#------------------------------------------------------------------------------
#$Date: 2021-09-01 01:44:21 +0300 (Wed, 01 Sep 2021) $
#$Revision: 268334 $
#$URL: file:///home/coder/svn-repositories/cod/cif/7/24/34/7243452.cif $
#------------------------------------------------------------------------------
#
# This file is available in the Crystallography Open Database (COD),
# http://www.crystallography.net/
#
# All data on this site have been placed in the public domain by the
# contributors.
#
data_7243452
loop_
_publ_author_name
'Gayathri, Parthasarathy'
'Kanagajothi, Karuppaiah'
'Nag, Probal'
'Anand, Neethu'
'Reddy, Vennapusa Sivaranjana'
'Moon, Dohyun'
'Anthony, Savarimuthu Philip'
'Madhu, Vedichi'
_publ_section_title
;
 Symmetrical and unsymmetrical thiazole based ESIPT derivatives: Highly
 selective fluorescence sensing of Cu2+ and structure controlled
 reversible mechanofluorochromism
;
_journal_name_full               CrystEngComm
_journal_paper_doi               10.1039/D1CE00927C
_journal_year                    2021
_chemical_formula_moiety         'C24 H28 N4 O2 S2'
_chemical_formula_sum            'C24 H28 N4 O2 S2'
_chemical_formula_weight         468.62
_space_group_crystal_system      triclinic
_space_group_IT_number           2
_space_group_name_Hall           '-P 1'
_space_group_name_H-M_alt        'P -1'
_atom_sites_solution_hydrogens   geom
_audit_creation_method           SHELXL-2018/3
_audit_update_record
;
2021-03-25 deposited with the CCDC.	2021-08-30 downloaded from the CCDC.
;
_cell_angle_alpha                105.64(3)
_cell_angle_beta                 97.57(3)
_cell_angle_gamma                90.80(3)
_cell_formula_units_Z            1
_cell_length_a                   7.1770(14)
_cell_length_b                   7.4550(15)
_cell_length_c                   11.030(2)
_cell_measurement_reflns_used    16173
_cell_measurement_temperature    220(2)
_cell_measurement_theta_max      33.548
_cell_measurement_theta_min      0.361
_cell_volume                     562.6(2)
_computing_cell_refinement       '<i>HKL3000sm</i>(Otwinowski & Minor, 1997)'
_computing_data_collection
'<i>PAL BL2D-SMDC Program</i>(Shin et.al, 2016)'
_computing_data_reduction        '<i>HKL3000sm</i>(Otwinowski & Minor, 1997)'
_computing_molecular_graphics    '<i>DIAMOND 4</i>(Putx&Brandenburg, 2014)'
_computing_publication_material  '<i>publCIF</i>(Westrip, 2010)'
_computing_structure_refinement  '<i>SHELXL-2018</i>(Sheldrick, 2018)'
_computing_structure_solution    '<i>SHELXT-2018</i>(Sheldrick, 2018)'
_diffrn_ambient_temperature      220(2)
_diffrn_measured_fraction_theta_full 0.991
_diffrn_measured_fraction_theta_max 0.977
_diffrn_measurement_device_type  'Rayonix MX225HS CCD area detector'
_diffrn_measurement_method       'omega scan'
_diffrn_radiation_type           synchrotron
_diffrn_radiation_wavelength     0.630
_diffrn_reflns_av_R_equivalents  0.0455
_diffrn_reflns_av_unetI/netI     0.0632
_diffrn_reflns_Laue_measured_fraction_full 0.991
_diffrn_reflns_Laue_measured_fraction_max 0.977
_diffrn_reflns_limit_h_max       10
_diffrn_reflns_limit_h_min       -10
_diffrn_reflns_limit_k_max       10
_diffrn_reflns_limit_k_min       -10
_diffrn_reflns_limit_l_max       15
_diffrn_reflns_limit_l_min       -15
_diffrn_reflns_number            6355
_diffrn_reflns_point_group_measured_fraction_full 0.991
_diffrn_reflns_point_group_measured_fraction_max 0.977
_diffrn_reflns_theta_full        22.210
_diffrn_reflns_theta_max         26.499
_diffrn_reflns_theta_min         1.717
_diffrn_source                   'PLSII 2D bending magnet'
_exptl_absorpt_coefficient_mu    0.192
_exptl_absorpt_correction_T_max  1.000
_exptl_absorpt_correction_T_min  0.766
_exptl_absorpt_correction_type   empirical
_exptl_absorpt_process_details
'<i>HKL3000sm Scalepack</i>(Otwinowski et.al,2003)'
_exptl_crystal_colour            yellow
_exptl_crystal_density_diffrn    1.383
_exptl_crystal_description       needle
_exptl_crystal_F_000             248
_exptl_crystal_size_max          0.101
_exptl_crystal_size_mid          0.004
_exptl_crystal_size_min          0.003
_refine_diff_density_max         0.896
_refine_diff_density_min         -0.791
_refine_diff_density_rms         0.084
_refine_ls_extinction_method     none
_refine_ls_goodness_of_fit_ref   1.115
_refine_ls_hydrogen_treatment    constr
_refine_ls_matrix_type           full
_refine_ls_number_parameters     166
_refine_ls_number_reflns         3280
_refine_ls_number_restraints     0
_refine_ls_restrained_S_all      1.115
_refine_ls_R_factor_all          0.1284
_refine_ls_R_factor_gt           0.0943
_refine_ls_shift/su_max          0.000
_refine_ls_shift/su_mean         0.000
_refine_ls_structure_factor_coef Fsqd
_refine_ls_weighting_details
'w=1/[\s^2^(Fo^2^)+(0.1955P)^2^+0.0283P] where P=(Fo^2^+2Fc^2^)/3'
_refine_ls_weighting_scheme      calc
_refine_ls_wR_factor_gt          0.2936
_refine_ls_wR_factor_ref         0.3170
_reflns_Friedel_coverage         0.000
_reflns_number_gt                1989
_reflns_number_total             3280
_reflns_threshold_expression     'I > 2\s(I)'
_cod_data_source_file            d1ce00927c2.cif
_cod_data_source_block           SPA532
_cod_database_code               7243452
_shelx_shelxl_version_number     2018/3
_shelx_space_group_comment
;
The symmetry employed for this shelxl refinement is uniquely defined
by the following loop, which should always be used as a source of
symmetry information in preference to the above space-group names.
They are only intended as comments.
;
_shelx_estimated_absorpt_t_min   0.981
_shelx_estimated_absorpt_t_max   0.999
_shelx_res_file
;
TITL SPA532 in P-1
    SPA532.res
    created by SHELXL-2018/3 at 17:26:03 on 21-Oct-2019
CELL  0.63000   7.1770   7.4550  11.0300  105.639   97.572   90.799
ZERR    1.000   0.0014   0.0015   0.0022    0.030    0.030    0.030
LATT  1
SFAC C H N O S
DISP C          0.0021         0.0012           9.00
DISP H          0.0000         0.0000           0.66
DISP N          0.0044         0.0025          14.78
DISP O          0.0080         0.0047          23.75
DISP S          0.1022         0.0976         369.49
UNIT 24 28 4 2 2
ACTA
TEMP -53.15
SIZE 0.101 0.004 0.003
OMIT -3 53
L.S. 10
BOND $H
LIST 4
FMAP -2
PLAN -10
CONF
HTAB O1 N1
WPDB
MERG 2
WGHT    0.195500    0.028300
FVAR       0.81493   0.65146
S1    5    0.241976    1.114427    0.485675    11.00000    0.04113    0.06958 =
         0.07993    0.02607    0.00435    0.01239
O1    4    0.345965    0.578984    0.689615    11.00000    0.03638    0.08179 =
         0.08562    0.03070    0.00773    0.01554
AFIX 147
H1    2    0.329330    0.667991    0.658288    11.00000   -1.50000
AFIX   0
N1    3    0.417833    0.837052    0.580780    11.00000    0.07837    0.04987 =
         0.05752    0.01407    0.00163    0.00796
N2    3    0.828083    0.213160    0.822903    11.00000    0.04501    0.09832 =
         0.10315    0.05820    0.01751    0.02696
C1    1    0.417582    0.977780    0.520290    11.00000    0.03878    0.06042 =
         0.06805    0.01403    0.00217    0.00922
C2    1    0.598306    0.775480    0.584462    11.00000    0.03657    0.05820 =
         0.06051    0.01251    0.00019    0.00947
C3    1    0.658414    0.629720    0.644022    11.00000    0.03702    0.05917 =
         0.06282    0.01533    0.00093    0.00946
C4    1    0.529882    0.538628    0.696208    11.00000    0.03554    0.06211 =
         0.06117    0.01307    0.00147    0.01012
C5    1    0.585863    0.403195    0.755319    11.00000    0.04049    0.06862 =
         0.06371    0.02134    0.00554    0.01071
AFIX  43
H5    2    0.496641    0.344798    0.789307    11.00000   -1.20000
AFIX   0
C6    1    0.773706    0.350460    0.765884    11.00000    0.04172    0.07008 =
         0.06865    0.02486    0.00300    0.01312
C7    1    0.903136    0.440563    0.712448    11.00000    0.03492    0.07822 =
         0.07752    0.02912    0.00871    0.01434
AFIX  43
H7    2    1.029473    0.408173    0.717128    11.00000   -1.20000
AFIX   0
C8    1    0.845799    0.574085    0.654200    11.00000    0.03760    0.06935 =
         0.07295    0.02374    0.00550    0.01204
AFIX  43
H8    2    0.934717    0.631486    0.619370    11.00000   -1.20000
AFIX   0
C9    1    0.698749    0.122670    0.880209    11.00000    0.04991    0.07072 =
         0.07886    0.02896    0.00967    0.01408
AFIX  23
H9A   2    0.746577    0.001691    0.884414    11.00000   -1.20000
H9AB  2    0.577382    0.098665    0.824827    11.00000   -1.20000
AFIX   0
C10   1    0.666535    0.231585    1.012204    11.00000    0.06416    0.08407 =
         0.07450    0.01960    0.00722    0.00480
AFIX 137
H10A  2    0.580645    0.159824    1.044217    11.00000   -1.50000
H10B  2    0.612780    0.349058    1.008728    11.00000   -1.50000
H10C  2    0.785528    0.255702    1.068292    11.00000   -1.50000
AFIX   0
PART 1 21
C11A  1    1.014342    0.136245    0.819056    21.00000    0.04433    0.07265 =
         0.08333    0.03373    0.01103    0.01668
AFIX  23
H11A  2    1.060438    0.138945    0.739760    21.00000   -1.20000
H11B  2    1.007316    0.006471    0.822717    21.00000   -1.20000
AFIX   0
C12A  1    1.146298    0.252716    0.931643    21.00000    0.04938    0.10891 =
         0.09382    0.03406   -0.01199    0.00740
AFIX 133
H12A  2    1.164583    0.376964    0.921880    21.00000   -1.50000
H12B  2    1.266491    0.195240    0.936335    21.00000   -1.50000
H12C  2    1.092612    0.260786    1.009060    21.00000   -1.50000
AFIX   0
PART 2 -21
C11B  1    1.041549    0.237822    0.896362   -21.00000    0.05210    0.06717 =
         0.05720    0.02240   -0.00476    0.00280
AFIX  23
H11C  2    1.102285    0.357512    0.898741   -21.00000   -1.20000
H11D  2    1.045942    0.226825    0.983237   -21.00000   -1.20000
AFIX   0
C12B  1    1.131199    0.073320    0.811684   -21.00000    0.03670    0.08618 =
         0.11373    0.04647    0.00993    0.01900
AFIX 133
H12D  2    1.034047   -0.021310    0.765773   -21.00000   -1.50000
H12E  2    1.221668    0.020728    0.864172   -21.00000   -1.50000
H12F  2    1.194570    0.116521    0.751562   -21.00000   -1.50000
PART 0
AFIX   0
HKLF 4




REM  SPA532 in P-1
REM wR2 = 0.3170, GooF = S = 1.115, Restrained GooF = 1.115 for all data
REM R1 = 0.0943 for 1989 Fo > 4sig(Fo) and 0.1284 for all 3280 data
REM 166 parameters refined using 0 restraints

END

WGHT      0.1954      0.0288

REM Highest difference peak  0.896,  deepest hole -0.791,  1-sigma level  0.084
Q1    1   0.3210  0.8460  0.5895  11.00000  0.05    0.80
Q2    1   0.2190  1.1129  0.5547  11.00000  0.05   -0.79
Q3    1   0.9615  0.6610  0.6075  11.00000  0.05    0.78
Q4    1   0.2607  1.1161  0.4170  11.00000  0.05   -0.70
Q5    1   0.3400  1.1456  0.4598  11.00000  0.05    0.64
Q6    1   0.5000  1.0000  0.5000  10.50000  0.05    0.54
Q7    1   0.4696  0.9805  0.5143  11.00000  0.05    0.52
Q8    1   0.1962  1.0054  0.4651  11.00000  0.05   -0.51
Q9    1   0.3642  1.2897  0.3934  11.00000  0.05    0.50
Q10   1   0.1529  1.0718  0.4426  11.00000  0.05   -0.39
;
_shelx_res_checksum              83200
_shelx_hkl_file
;
   0   0   1 1059.81   27.42
   0   0  -1 1040.55   26.65
   0   0   2    7.93    0.69
   0   0  -2    5.30    0.46
   0   0   4  204.31    6.90
   0   0  -4  173.08    6.30
   0   0  -5   85.16    3.58
   0   0   7    5.61    0.49
   0   0  -7    4.84    1.00
   0   0   8    5.81    0.72
   0   0  -8    6.96    0.74
   0   0   9    0.66    0.43
   0   0  -9    0.57    0.63
   0   0  10   14.08    0.94
   0   0 -10   11.68    1.15
   0   0  11    4.90    0.80
   0   0 -11    6.21    1.20
   0   0  12    3.81    0.89
   0   0 -12    5.32    1.83
   0   0  13    0.74    0.69
   0   0 -13    0.37    0.86
   0   0  14    0.31    0.57
   0   0 -14    0.80    0.89
   0   0  15    0.14    0.80
   0   0 -15   -1.43    6.90
   0  -1  16   -0.06    0.31
   0   1 -15    2.20    0.80
   0  -1  15    1.75    0.54
   0   1 -14    0.60    0.86
   0  -1  14    0.09    0.60
   0   1 -13    0.94    0.89
   0  -1  13    0.17    0.77
   0   1 -12    0.72    1.12
   0  -1  12    0.17    0.83
   0   1 -11    0.52    1.03
   0  -1  11   -0.26    0.63
   0   1 -10   11.28    1.17
   0  -1  10   11.62    0.89
   0   1  -9    8.10    0.86
   0  -1   9   10.13    0.77
   0   1  -8   17.15    2.03
   0  -1   8   23.07    1.63
   0   1  -7    4.12    0.72
   0  -1   7    5.35    0.52
   0   1  -6    5.24    0.63
   0  -1   6    7.56    0.57
   0   1  -5   30.86    1.69
   0  -1   5   38.73    1.57
   0   1  -2    1.83    0.40
   0  -1   2    1.75    0.23
   0   1  -1  258.04    6.21
   0  -1   1  251.37    6.30
   0   1   0    8.33    0.74
   0  -1   0    7.07    0.49
   0   1   1   45.77    2.09
   0  -1  -1   45.20    1.98
   0   1   2 9121.57  328.55
   0  -1  -2 9999.00  342.40
   0   1   3 5403.66  138.95
   0  -1  -3 5090.49  182.98
   0   1   4    8.90    1.00
   0  -1  -4    7.84    0.72
   0   1   5    0.40    0.37
   0  -1  -5    0.20    0.37
   0   1   6   35.93    2.06
   0  -1  -6   32.00    1.46
   0   1   7   57.57    2.49
   0  -1  -7   52.19    2.18
   0   1   8    6.73    0.60
   0  -1  -8    5.55    0.89
   0   1   9   11.45    0.89
   0  -1  -9   11.14    1.15
   0   1  10    4.06    0.72
   0  -1 -10    2.83    0.80
   0   1  11    1.83    0.57
   0  -1 -11    1.32    1.09
   0   1  12    1.32    0.89
   0  -1 -12   -0.34    1.15
   0   1  13    2.46    0.63
   0  -1 -13    3.46    0.94
   0   1  14    0.57    0.74
   0  -1 -14   -0.11    1.26
   0   1  15    0.14    0.57
   0   2 -16   -0.94    6.36
   0  -2  16   -0.17    0.46
   0   2 -15    4.52    7.47
   0  -2  15    0.09    0.57
   0   2 -14    0.86    1.23
   0  -2  14    0.17    0.69
   0   2 -13    5.44    1.17
   0  -2  13    5.30    0.89
   0   2 -12   16.49    1.49
   0  -2  12   18.46    1.17
   0   2 -11    1.17    0.92
   0  -2  11   -0.14    0.72
   0   2 -10    0.74    0.83
   0  -2  10    0.31    0.54
   0   2  -9    5.75    1.46
   0  -2   9    6.47    0.63
   0   2  -8    0.23    0.54
   0  -2   8    0.20    0.29
   0   2  -7   63.24    2.72
   0  -2   7   72.00    3.21
   0   2  -6   18.15    0.92
   0  -2   6   21.47    0.97
   0  -2   5  106.86    5.38
   0   2  -4   76.63    3.58
   0  -2   4   70.71    2.29
   0   2  -3    6.18    0.69
   0  -2   3    5.21    0.37
   0   2  -2  648.59   14.74
   0  -2   2  625.26   15.06
   0   2  -1 1065.91   23.47
   0  -2   1 1065.65   22.64
   0   2   0    8.33    0.54
   0  -2   0    8.19    0.63
   0   2   1  123.44    4.58
   0  -2  -1  120.20    4.64
   0   2   2  129.85    4.98
   0  -2  -2  130.28    5.38
   0   2   3    8.82    0.80
   0  -2  -3    9.16    0.69
   0   2   4  435.44   12.19
   0  -2  -4  513.02   25.11
   0   2   5 1432.47   33.84
   0  -2  -5 1339.09   40.99
   0   2   6   98.30    3.78
   0  -2  -6   97.10    3.84
   0   2   7    0.06    0.43
   0  -2  -7    0.14    0.69
   0   2   8   -0.11    0.57
   0  -2  -8    0.09    0.92
   0   2   9   12.71    0.92
   0  -2  -9   11.59    1.17
   0   2  10   -0.34    0.69
   0  -2 -10   -0.11    1.12
   0   2  11    0.00    0.57
   0  -2 -11    0.57    0.94
   0   2  12    0.29    0.72
   0  -2 -12    0.23    1.12
   0   2  13    1.52    0.74
   0  -2 -13   -0.20    1.23
   0   2  14   -0.43    0.57
   0   3 -16    0.11    0.74
   0  -3  16    0.34    0.43
   0   3 -15    0.63    1.00
   0  -3  15    0.00    0.43
   0   3 -14    0.54    0.97
   0  -3  14    0.09    0.49
   0   3 -13    2.95    1.15
   0  -3  13    1.60    0.63
   0   3 -12    5.93    1.09
   0  -3  12    4.27    0.69
   0   3 -11    5.78    0.94
   0  -3  11    4.32    0.69
   0   3 -10   86.80    9.90
   0   3  -9   15.86    1.06
   0  -3   9   14.11    0.86
   0   3  -8   11.77    1.00
   0  -3   8    9.85    0.69
   0   3  -7   23.07    1.17
   0  -3   7   21.01    1.12
   0   3  -6   69.76    3.01
   0  -3   6   67.16    2.12
   0   3  -5   53.05    2.52
   0  -3   5   53.53    1.89
   0   3  -4  115.19    3.32
   0  -3   4  115.31    3.46
   0   3  -3  222.63    5.84
   0  -3   3  211.72    5.81
   0   3  -2  418.84   13.05
   0  -3   2  424.45   10.33
   0   3  -1   70.74    2.26
   0  -3   1   74.14    3.06
   0   3   0  287.32    8.73
   0  -3   0  280.77    8.39
   0   3   1    4.69    0.52
   0  -3  -1    5.55    0.52
   0   3   2   14.49    1.12
   0  -3  -2   13.05    0.86
   0   3   3    2.15    0.43
   0  -3  -3    1.80    0.46
   0   3   4   19.18    1.06
   0  -3  -4   20.04    1.37
   0   3   5   35.61    2.12
   0  -3  -5   33.38    2.89
   0   3   6    4.29    0.60
   0  -3  -6    5.15    0.72
   0   3   7  122.61    5.10
   0  -3  -7  126.64    5.93
   0   3   8   55.22    2.75
   0  -3  -8   56.17    2.72
   0   3   9   -0.23    0.49
   0  -3  -9    0.43    0.80
   0   3  10    0.40    0.86
   0  -3 -10    0.54    1.23
   0   3  11    0.09    0.63
   0  -3 -11    0.09    1.03
   0   3  12    0.11    0.77
   0  -3 -12    0.00    1.37
   0   3  13    0.09    0.57
   0  -4  17   -4.75    6.21
   0  -4  15    0.14    0.52
   0   4 -14   -0.09    0.77
   0  -4  14    0.14    0.57
   0   4 -13    0.72    2.69
   0  -4  13    1.52    0.52
   0   4 -12    1.35    2.23
   0  -4  12    0.29    0.40
   0   4 -11    7.82    0.86
   0  -4  11    6.67    0.66
   0   4 -10   17.83    1.37
   0  -4  10   15.49    0.86
   0   4  -9   17.15    2.12
   0  -4   9   13.60    0.80
   0   4  -8   58.17    3.52
   0  -4   8   63.95    2.38
   0   4  -7   68.96    3.15
   0  -4   7   66.07    2.92
   0   4  -6   16.95    0.89
   0  -4   6   17.18    0.86
   0   4  -5   63.64    2.00
   0  -4   5   68.59    2.49
   0   4  -4   72.88    2.38
   0  -4   4   74.03    2.55
   0   4  -3    8.42    0.46
   0  -4   3    7.70    0.49
   0   4  -2  175.85    4.81
   0  -4   2  182.04    5.01
   0   4  -1   57.02    2.15
   0  -4   1   55.25    1.83
   0   4   0  226.92   10.11
   0  -4   0  215.70    6.81
   0   4   1  239.55    7.41
   0  -4  -1  227.32    7.24
   0   4   2   32.55    1.55
   0  -4  -2   32.41    1.52
   0   4   3   78.55    3.98
   0  -4  -3   72.14    2.89
   0   4   4    0.03    0.43
   0  -4  -4    0.17    0.60
   0   4   5    1.83    0.40
   0  -4  -5    2.46    0.72
   0   4   6    2.92    0.52
   0  -4  -6    3.89    0.69
   0  -4  -7   17.95    2.00
   0   4   8    3.03    0.66
   0  -4  -8    4.04    1.29
   0   4   9    3.66    0.86
   0  -4  -9    4.78    1.46
   0   4  10   10.42    1.15
   0  -4 -10   10.36    1.60
   0   4  11    0.20    0.60
   0  -4 -11   -0.03    1.00
   0   4  12    0.09    0.83
   0  -4 -12    0.46    1.20
   0   4  13   -0.63    0.89
   0  -4 -13    0.77    1.83
   0  -5  17   -2.78    6.27
   0  -5  15    3.01    7.82
   0   5 -14    0.03    0.52
   0  -5  14    0.14    0.46
   0   5 -13    0.69    1.86
   0  -5  13    0.20    0.40
   0   5 -12    0.26    0.63
   0  -5  12    0.00    0.40
   0   5 -11    1.00    0.60
   0  -5  11    1.98    0.40
   0   5 -10    1.26    0.60
   0  -5  10    1.06    0.37
   0   5  -9    4.41    1.06
   0  -5   9    5.38    0.49
   0   5  -8   20.18    1.66
   0  -5   8   23.19    1.03
   0   5  -7   25.13    1.52
   0  -5   7   27.40    1.32
   0   5  -6   13.37    0.74
   0  -5   6   13.14    0.89
   0   5  -5   30.60    1.15
   0  -5   5   31.98    1.40
   0   5  -4    1.52    0.37
   0  -5   4    2.12    0.31
   0   5  -3   20.70    1.03
   0  -5   3   21.01    1.03
   0   5  -2   41.45    1.66
   0  -5   2   38.33    1.72
   0   5  -1   14.43    1.17
   0  -5   1   14.28    0.80
   0   5   0   26.08    1.26
   0  -5   0   24.10    1.06
   0   5   1    2.23    0.40
   0  -5  -1    2.52    0.49
   0   5   2   39.02    1.60
   0  -5  -2   37.53    1.72
   0   5   3   81.41    3.26
   0   5   4   13.43    0.83
   0  -5  -4   13.77    1.00
   0   5   5   19.44    1.20
   0  -5  -5   20.53    1.37
   0   5   6    3.49    0.69
   0  -5  -6    5.10    0.94
   0   5   7    0.80    0.63
   0  -5  -7    0.40    0.97
   0   5   8    1.40    0.72
   0  -5  -8    1.55    1.09
   0   5   9    2.83    0.66
   0  -5  -9    2.26    2.00
   0   5  10    2.23    0.69
   0  -5 -10    2.72    1.06
   0   5  11   -0.17    0.57
   0  -5 -11   -0.23    1.37
   0   5  13   -0.09    0.89
   0   6 -14   -2.66    5.04
   0  -6  14   -0.26    0.60
   0   6 -13    1.15    0.46
   0  -6  13    1.32    0.34
   0   6 -12    2.12    0.57
   0  -6  12    3.35    0.34
   0   6 -11    0.83    1.06
   0  -6  11    0.66    0.29
   0   6 -10    0.14    0.74
   0  -6  10    0.63    0.23
   0   6  -9    0.20    0.66
   0  -6   9    0.14    0.26
   0   6  -8    3.84    0.57
   0  -6   8    3.69    0.34
   0   6  -7    7.10    0.66
   0  -6   7    7.53    0.52
   0   6  -6    4.72    0.43
   0  -6   6    4.67    0.43
   0   6  -5    4.24    0.40
   0  -6   5    4.04    0.46
   0   6  -4    0.52    0.29
   0  -6   4    0.34    0.40
   0   6  -3    0.17    0.29
   0  -6   3    0.23    0.40
   0   6  -2    0.66    0.40
   0  -6   2    0.66    0.49
   0   6  -1    1.55    0.37
   0  -6   1    0.97    0.49
   0   6   0   15.72    0.86
   0  -6   0   15.26    1.03
   0   6   1    0.23    0.52
   0  -6  -1    0.43    0.60
   0   6   2    0.29    0.57
   0  -6  -2    0.09    0.69
   0   6   3   12.28    0.83
   0  -6  -3   13.43    1.09
   0   6   4    1.86    0.66
   0  -6  -4    0.74    1.00
   0   6   5   12.31    0.92
   0  -6  -5   12.28    1.40
   0   6   6    4.21    0.77
   0  -6  -6    7.24    1.17
   0   6   7    0.77    0.80
   0  -6  -7    2.23    1.00
   0   6   8    2.09    0.60
   0  -6  -8    1.03    1.12
   0   6   9    0.34    0.72
   0  -6  -9    0.83    1.06
   0   6  10   -0.77    1.26
   0  -6 -10    0.23    1.40
   0  -7  13    3.23    6.38
   0   7 -12    0.26    8.13
   0  -7  12    0.23    0.17
   0   7 -11    2.81    0.54
   0  -7  11    2.38    0.34
   0   7 -10    5.73    0.74
   0  -7  10    8.47    0.49
   0   7  -9    6.70    0.77
   0  -7   9    7.56    0.43
   0   7  -8    1.20    0.52
   0  -7   8    1.23    0.34
   0   7  -7    4.84    0.46
   0  -7   7    4.38    0.49
   0   7  -6    1.75    0.37
   0  -7   6    2.03    1.23
   0   7  -5   27.48    1.57
   0  -7   5   28.80    1.32
   0   7  -4    1.98    0.52
   0  -7   4    2.23    0.54
   0   7  -3    0.17    0.37
   0  -7   3   -0.29    0.40
   0   7  -2    3.46    0.40
   0  -7   2    3.23    0.57
   0   7  -1    1.43    0.46
   0  -7   1    1.98    0.54
   0   7   0    5.18    0.57
   0  -7   0    4.75    0.63
   0   7   1    7.59    0.72
   0  -7  -1    6.36    0.83
   0   7   2    0.11    0.54
   0  -7  -2    0.31    0.86
   0   7   3    0.92    0.60
   0  -7  -3    1.00    1.15
   0   7   4    0.11    0.72
   0  -7  -4    0.03    1.03
   0   7   5    3.15    0.69
   0  -7  -5    3.49    1.20
   0   7   6    1.32    0.60
   0  -7  -6    1.43    1.26
   0   7   7    0.80    0.69
   0  -7  -7    0.54    1.03
   0   7   8    0.40    0.60
   0  -7  -8    0.14    0.89
   0  -7  -9    0.26    1.37
   0   8 -12    0.77    3.95
   0  -8  12    7.39    6.30
   0   8 -11   -4.29    7.87
   0  -8  11    2.63    5.58
   0   8 -10    0.77    7.33
   0  -8  10    0.66    0.29
   0   8  -9   11.54    7.64
   0  -8   9    0.92    0.23
   0   8  -8    8.22    1.15
   0  -8   8    6.78    0.60
   0   8  -7    6.30    0.69
   0  -8   7    7.76    0.72
   0   8  -6    2.20    0.49
   0  -8   6    3.75    1.77
   0   8  -5    4.15    0.52
   0  -8   5    3.69    0.57
   0   8  -4    0.63    0.54
   0  -8   4    0.60    0.57
   0   8  -3    9.68    0.74
   0  -8   3    7.61    0.72
   0   8  -2   10.62    0.86
   0  -8   2    8.93    1.00
   0   8  -1   -0.11    0.80
   0  -8   1    0.57    0.89
   0   8   0    4.90    0.72
   0  -8   0    4.55    0.89
   0   8   1    1.26    0.57
   0  -8  -1    1.63    0.83
   0   8   2    4.27    0.86
   0  -8  -2    5.10    1.32
   0   8   3    4.32    1.12
   0  -8  -3    4.32    1.46
   0   8   4    0.92    0.60
   0  -8  -4    0.83    1.03
   0   8   5   -0.26    0.60
   0  -8  -5   -0.37    1.20
   0   8   6    0.23    0.77
   0  -8  -6    0.83    1.26
   0   8   7   -0.57    0.77
   0  -8  -7    0.86    1.43
   0   9 -11    1.95    5.58
   0   9 -10    0.54    6.27
   0   9  -8   -1.80    4.78
   0  -9   8    0.74    0.37
   0   9  -7    0.17    0.46
   0  -9   7   -0.11    0.43
   0   9  -6    3.12    0.49
   0  -9   6    3.18    0.60
   0   9  -5    2.06    0.49
   0  -9   5    1.95    0.74
   0   9  -4    1.23    0.69
   0  -9   4    0.94    0.74
   0   9  -3    1.77    0.60
   0  -9   3    1.43    0.86
   0   9  -2   -0.11    0.77
   0  -9   2    0.09    0.94
   0   9  -1    0.83    0.57
   0  -9   1    0.74    1.15
   0   9   0    3.78    0.92
   0  -9   0    4.29    1.15
   0   9   1    0.49    0.77
   0  -9  -1    0.40    0.97
   0   9   2    0.80    0.83
   0  -9  -2    1.63    1.32
   0   9   3   -0.14    0.52
   0  -9  -3   -0.57    1.12
   0   9   4    0.46    1.03
   0  -9  -4    0.46    0.72
   0   9   5    0.09    0.54
   0  10  -6    0.23    0.86
   0 -10   6    0.94    1.92
   0  10  -5    0.34    0.69
   0  10  -4   -0.52    0.49
   0 -10   4    0.31    1.83
   0  10  -3    0.43    0.66
   0 -10   3    0.00    0.74
   0  10  -2   -0.20    0.69
   0 -10   2    0.29    0.94
   0  10  -1    0.14    0.40
   0 -10   1    0.52    0.80
   0  10   0    0.23    0.63
   0  10   1   -0.72    0.97
   0 -10  -1    1.00    2.40
   0  10   2    0.14    0.46
   0 -10  -2   -0.14    0.97
   0 -10  -3    0.26    0.72
   0  11  -5   -0.20    0.49
   0  11  -4   -0.09    0.57
   0  11   0    0.06    0.49
   1 -11   3    0.17    0.46
  -1  11  -3   -0.11    0.69
  -1  11  -4    0.20    0.66
  -1  11  -5    0.00    0.80
  -1  11  -6   -0.06    0.74
   1 -10  -5    0.23    1.20
  -1  10   3   -0.03    0.43
  -1  10   2    0.26    0.63
   1 -10  -1    1.00    1.17
  -1  10   1    1.46    1.09
   1 -10   0   -0.09    0.52
  -1  10   0   -0.06    0.94
   1 -10   1    1.86    0.94
  -1  10  -1    0.72    1.20
   1 -10   2    0.37    0.86
  -1  10  -2    0.49    0.66
   1 -10   3    0.49    0.69
  -1  10  -3    1.32    0.40
   1 -10   4    1.37    0.94
  -1  10  -4    1.06    0.63
   1 -10   5    0.26    0.52
  -1  10  -5   -0.06    0.57
   1 -10   6    0.63    0.60
  -1  10  -6    0.86    0.60
   1 -10   7    0.97    0.37
  -1  10  -7    1.26    0.66
   1 -10   8   -0.06    0.43
  -1  10  -8    0.00    0.37
   1 -10   9   -0.06    0.37
  -1  10  -9    0.14    0.43
   1 -10  10    0.89    0.31
   1 -10  13    2.92    8.96
   1  -9  -7    0.11    0.97
   1  -9  -6    0.46    0.92
   1  -9  -4   -0.29    1.63
  -1   9   4   -0.03    0.60
   1  -9  -3    0.69    1.03
  -1   9   3    1.37    0.74
   1  -9  -2    0.89    0.92
  -1   9   2    1.06    0.72
   1  -9  -1    0.52    1.23
  -1   9   1    0.00    1.03
   1  -9   0    0.69    1.20
  -1   9   0    0.14    0.77
   1  -9   1    4.41    1.12
  -1   9  -1    4.87    0.77
   1  -9   2   -0.17    0.66
  -1   9  -2    0.23    0.66
   1  -9   3    1.03    0.69
  -1   9  -3    0.63    0.54
   1  -9   4    0.97    0.72
  -1   9  -4    2.18    0.63
   1  -9   5    1.12    0.66
  -1   9  -5    1.77    0.57
   1  -9   6    0.26    0.66
  -1   9  -6    0.74    0.63
   1  -9   7    0.40    0.40
  -1   9  -7    1.15    0.46
   1  -9   8    0.00    0.40
  -1   9  -8    0.97    1.03
   1  -9   9    1.95    0.52
  -1   9  -9    2.40    0.72
   1  -9  10    0.46    0.31
  -1   9 -10    3.18    6.01
   1  -9  11    0.00    0.49
  -1   9 -11   -0.72    5.50
   1  -8  -7    0.20    0.60
  -1   8   7    0.34    0.80
   1  -8  -6    0.66    1.77
  -1   8   6    0.66    0.86
   1  -8  -5   -0.72    1.29
  -1   8   5    0.72    0.83
   1  -8  -4    1.35    1.69
  -1   8   4    1.15    0.63
   1  -8  -3    2.81    0.97
  -1   8   3    3.41    1.06
   1  -8  -2    1.60    0.92
  -1   8   2    2.26    0.74
   1  -8  -1    6.07    1.09
  -1   8   1    5.98    0.77
   1  -8   0    3.64    0.89
  -1   8   0    3.95    0.74
   1  -8   1    9.10    0.92
  -1   8  -1    9.19    0.72
   1  -8   2    1.57    0.60
  -1   8  -2    1.32    0.43
   1  -8   3    1.89    0.60
  -1   8  -3    2.26    0.46
   1  -8   4    0.63    0.54
  -1   8  -4    1.15    0.46
   1  -8   5    1.60    0.49
  -1   8  -5    1.09    0.52
   1  -8   6    1.60    0.46
  -1   8  -6    2.09    0.52
   1  -8   7    0.23    0.49
  -1   8  -7   -0.20    0.54
   1  -8   8    0.14    0.49
  -1   8  -8    0.26    0.72
   1  -8   9    0.11    0.40
  -1   8  -9    1.00    0.69
   1  -8  10    0.00    0.37
  -1   8 -10   -0.83    0.86
   1  -8  11    0.69    0.43
  -1   8 -11    0.46    0.80
   1  -8  12    1.15    0.34
  -1   8 -12    1.52    0.80
   1  -8  13   -0.14    0.26
  -1   8 -13    0.43    0.57
  -1   8 -14    0.03    0.52
   1  -7 -10    0.66    1.55
  -1   7  10   -0.17    0.66
   1  -7  -9    1.49    1.86
  -1   7   9    0.26    0.69
   1  -7  -8   -0.29    1.12
  -1   7   8    0.40    0.66
   1  -7  -7    3.58    1.40
  -1   7   7    2.92    0.72
   1  -7  -6    3.86    1.26
  -1   7   6    3.26    0.74
   1  -7  -5    3.78    1.03
  -1   7   5    4.64    0.92
   1  -7  -4    3.86    1.03
  -1   7   4    2.98    0.63
   1  -7  -3    7.53    1.12
  -1   7   3    4.52    0.83
   1  -7  -2    9.16    1.06
  -1   7   2    9.42    0.89
   1  -7  -1   23.99    1.72
  -1   7   1   22.24    1.35
   1  -7   0   12.60    1.15
  -1   7   0   13.91    0.92
   1  -7   1   22.01    1.29
  -1   7  -1   22.27    1.17
   1  -7   2   17.23    1.12
  -1   7  -2   18.06    0.97
   1  -7   3   24.93    1.20
  -1   7  -3   26.85    1.12
   1  -7   4   20.67    1.23
  -1   7  -4   19.32    1.15
   1  -7   5    3.12    0.43
  -1   7  -5    2.81    0.49
   1  -7   6    1.57    0.52
  -1   7  -6    2.12    0.57
   1  -7   7   13.65    0.92
  -1   7  -7   12.08    0.86
   1  -7   8    0.43    0.40
  -1   7  -8   -0.20    0.46
   1  -7   9    0.23    0.37
  -1   7  -9   -0.23    0.63
   1  -7  10    1.49    0.37
  -1   7 -10    0.72    0.86
   1  -7  11    0.00    0.34
  -1   7 -11    0.49    0.94
   1  -7  12    0.34    0.40
  -1   7 -12    0.57    1.29
   1  -7  13   -0.20    0.40
  -1   7 -13    0.26    1.17
   1  -7  15   -0.14    0.34
   1  -6 -11    0.43    1.09
  -1   6  10    0.43    0.69
   1  -6  -9    1.29    1.06
  -1   6   9    0.72    1.06
   1  -6  -8    0.97    1.00
  -1   6   8    1.92    0.54
   1  -6  -7    1.95    0.94
  -1   6   7    2.46    0.57
   1  -6  -6    1.72    0.89
  -1   6   6    0.63    0.54
   1  -6  -5    2.95    0.97
  -1   6   5    3.23    0.66
   1  -6  -4   18.55    1.29
  -1   6   4   16.40    0.97
   1  -6  -3   28.23    1.55
  -1   6   3   25.28    1.40
   1  -6  -2   10.85    1.06
  -1   6   2    9.39    0.92
   1  -6  -1   11.97    0.89
  -1   6   1   13.94    1.20
   1  -6   0   30.66    1.40
  -1   6   0   32.20    1.35
   1  -6   1   44.83    1.92
  -1   6  -1   48.21    1.83
   1  -6   3   31.98    1.46
  -1   6  -3   33.52    1.57
   1  -6   4   71.77    2.32
  -1   6  -4   71.62    2.26
   1  -6   5   21.78    1.06
  -1   6  -5   18.92    0.94
   1  -6   6   61.46    2.35
  -1   6  -6   60.52    2.98
   1  -6   7   30.57    1.37
  -1   6  -7   28.17    1.29
   1  -6   8   -0.03    0.40
  -1   6  -8   -0.09    0.83
   1  -6   9    9.33    0.74
  -1   6  -9    7.99    1.32
   1  -6  10    7.61    0.60
  -1   6 -10    7.79    1.55
   1  -6  11    0.31    0.46
  -1   6 -11   -1.40    1.49
   1  -6  12    2.09    0.57
  -1   6 -12    1.69    0.72
   1  -6  13    0.23    0.43
  -1   6 -13   -0.03    0.66
   1  -6  14    0.14    0.49
  -1   6 -14    0.26    0.63
   1  -5 -11    0.31    0.74
  -1   5  11    0.34    0.52
   1  -5 -10   -0.29    0.80
  -1   5  10    0.06    0.60
   1  -5  -9   -0.29    1.09
  -1   5   9    0.52    0.63
   1  -5  -8   -0.54    1.66
  -1   5   8   -0.34    0.54
   1  -5  -7    1.06    0.97
  -1   5   7   -0.77    0.57
   1  -5  -6    3.58    0.94
  -1   5   6    4.87    0.63
   1  -5  -5    0.00    0.92
  -1   5   5    0.14    0.54
   1  -5  -4    2.00    0.63
  -1   5   4    2.61    0.46
   1  -5  -3    5.75    0.69
  -1   5   3    5.52    0.54
   1  -5  -2   16.46    1.17
  -1   5   2   17.81    1.09
   1  -5  -1   89.86    2.98
  -1   5   1   94.44    3.06
   1  -5   0   38.67    1.43
  -1   5   0   38.82    1.37
   1  -5   1    8.59    0.66
  -1   5  -1    7.36    0.54
   1  -5   2   36.99    1.46
  -1   5  -2   37.04    1.46
   1  -5   3   40.62    1.55
  -1   5  -3   37.96    1.52
   1  -5   4  194.72   11.02
  -1   5  -4  170.53    6.36
   1  -5   5   39.71    1.72
  -1   5  -5   36.07    1.37
   1  -5   6   92.92    3.18
  -1   5  -6   87.63    2.78
   1  -5   7    8.02    0.66
  -1   5  -7    7.99    0.74
   1  -5   8   37.13    1.55
  -1   5  -8   36.18    2.75
   1  -5   9   44.03    1.80
  -1   5  -9   48.64    3.18
   1  -5  10    1.77    0.54
  -1   5 -10    3.61    1.43
   1  -5  11    1.12    0.54
  -1   5 -11    1.06    1.60
   1  -5  12    2.75    0.60
  -1   5 -12    6.24    2.03
   1  -5  13    0.26    0.60
  -1   5 -13   -0.26    1.89
   1  -5  14    0.77    0.74
  -1   5 -14    0.77    1.80
   1  -4 -12    0.69    1.29
  -1   4  12   -0.23    1.32
   1  -4 -11    0.74    1.26
  -1   4  11    1.92    0.63
   1  -4 -10    0.00    1.06
  -1   4  10   -0.49    0.66
   1  -4  -9    2.26    1.00
  -1   4   9    2.35    0.66
   1  -4  -8    1.80    1.06
  -1   4   8    2.26    0.72
   1  -4  -7    1.26    0.89
  -1   4   7    1.40    0.80
   1  -4  -6    4.24    0.97
  -1   4   6    2.63    0.66
   1  -4  -5   12.65    0.97
  -1   4   5   11.79    1.09
   1  -4  -4    0.92    0.54
  -1   4   4    0.77    0.40
   1  -4  -3    8.24    0.69
  -1   4   3    9.76    0.66
   1  -4  -2    0.69    0.52
  -1   4   2    0.43    0.31
   1  -4  -1   75.03    2.81
  -1   4   1   80.61    3.18
   1  -4   0   67.10    2.52
  -1   4   0   65.96    2.26
   1  -4   1  261.59    7.04
  -1   4  -1  268.00    8.62
   1  -4   2   72.74    2.86
  -1   4  -2   73.37    2.49
   1  -4   3   18.84    0.83
  -1   4  -3   19.84    0.92
   1  -4   4    2.29    0.40
  -1   4  -4    2.46    0.40
   1  -4   5   19.64    1.00
  -1   4  -5   18.78    0.92
   1  -4   6   56.68    1.95
  -1   4  -6   54.16    2.09
   1  -4   7   30.12    1.26
  -1   4  -7   27.94    1.37
   1  -4   8   18.75    0.97
  -1   4  -8   19.49    1.86
   1  -4   9    1.80    0.52
  -1   4  -9    5.41    1.69
   1  -4  10    0.66    0.52
  -1   4 -10    0.34    0.72
   1  -4  11    9.76    0.86
  -1   4 -11   14.28    1.15
   1  -4  12    0.97    0.66
  -1   4 -12    1.35    0.94
   1  -4  13    0.20    0.52
  -1   4 -13    0.89    1.00
   1  -4  14    3.78    6.27
  -1   4 -14   -0.77    0.94
   1  -4  15    3.21    5.95
   1  -3 -13    0.46    0.92
  -1   3  13    0.77    0.60
   1  -3 -12   -1.29    1.35
  -1   3  12    0.57    0.80
   1  -3 -11    0.77    1.09
  -1   3  11    1.60    0.57
   1  -3 -10    2.15    1.03
  -1   3  10    2.29    0.63
   1  -3  -9    3.32    1.17
  -1   3   9    4.58    0.72
   1  -3  -8    5.21    1.12
  -1   3   8    4.95    0.72
   1  -3  -7    0.57    0.72
  -1   3   7    0.57    0.46
   1  -3  -6   36.33    2.06
  -1   3   6   35.98    1.69
   1  -3  -5    1.12    0.54
  -1   3   5    0.31    0.37
   1  -3  -4   41.59    2.69
  -1   3   4   40.68    2.15
   1  -3  -3   78.44    3.44
  -1   3   3   92.72    3.44
   1  -3  -2   22.90    1.26
  -1   3   2   24.07    1.09
   1  -3  -1   46.09    2.03
  -1   3   1   46.26    1.77
   1  -3   0   60.77    2.20
  -1   3   0   60.26    2.12
   1  -3   1  216.67    6.27
  -1   3  -1  242.95    7.70
   1  -3   2  937.46   28.25
  -1   3  -2  966.03   21.41
   1  -3   3  106.03    3.44
  -1   3  -3  110.76    3.55
   1  -3   4  119.69    3.98
  -1   3  -4  114.56    3.29
   1  -3   5   36.53    1.43
  -1   3  -5   39.28    1.66
   1  -3   6   48.21    1.72
  -1   3  -6   46.12    1.89
   1  -3   7    3.95    0.52
  -1   3  -7    5.55    1.72
   1  -3   8    0.40    0.52
  -1   3  -8    2.43    1.55
   1  -3   9    4.06    0.69
  -1   3  -9    4.75    0.77
   1  -3  10    0.20    0.66
  -1   3 -10   -0.11    0.83
   1  -3  11    0.11    0.57
  -1   3 -11   -0.03    0.94
   1  -3  12    0.52    0.77
  -1   3 -12    1.40    1.12
   1  -3  13    0.52    0.57
  -1   3 -13    0.63    1.20
   1  -3  14   -0.09    0.57
  -1   3 -14   -0.26    4.12
   1  -3  15    1.43    6.15
   1  -2 -14   -0.63    1.49
  -1   2  14   -0.31    0.92
   1  -2 -13    0.03    0.66
  -1   2  13    0.06    0.52
   1  -2 -12    4.41    1.37
  -1   2  12    5.01    0.80
   1  -2 -11    6.96    1.12
  -1   2  11    7.79    0.77
   1  -2 -10    5.70    1.00
  -1   2  10    4.87    0.77
   1  -2  -9    2.40    1.03
  -1   2   9    2.12    0.77
   1  -2  -8    7.67    1.06
  -1   2   8    8.53    0.77
   1  -2  -7    6.24    0.83
  -1   2   7    7.59    0.72
   1  -2  -6   10.33    0.80
  -1   2   6   11.57    0.74
   1  -2  -5   31.17    1.60
  -1   2   5   37.44    1.69
   1  -2  -4  188.45    6.96
  -1   2   4  205.71    7.50
   1  -2  -3    7.33    0.92
  -1   2   3    7.21    0.57
   1  -2  -2   41.16    2.72
  -1   2   2   45.95    3.12
   1  -2  -1  281.97    9.59
  -1   2   1  302.75    8.44
  -1   2   0   77.95    3.58
   1  -2   1  439.90   11.71
  -1   2  -1  448.32   11.05
   1  -2   2   18.03    0.97
  -1   2  -2   18.78    0.92
   1  -2   3  362.58    9.76
  -1   2  -3  347.73    9.05
   1  -2   4 1171.71   31.20
  -1   2  -4 1142.20   26.42
   1  -2   5  112.73    3.32
  -1   2  -5  103.34    3.44
   1  -2   6   77.29    2.63
  -1   2  -6   74.43    2.83
   1  -2   7    9.10    0.60
  -1   2  -7    8.93    0.77
   1  -2   8   11.42    0.80
  -1   2  -8   10.02    0.97
   1  -2   9   19.09    1.15
  -1   2  -9   19.18    1.35
   1  -2  10    2.29    0.54
  -1   2 -10    2.15    0.74
   1  -2  11    0.17    0.63
  -1   2 -11    0.72    1.12
   1  -2  12    0.00    0.77
  -1   2 -12    0.46    1.12
   1  -2  13    0.14    0.57
  -1   2 -13    0.52    1.15
   1  -2  14    0.80    0.57
  -1   2 -14    1.17    1.12
   1  -2  15    0.11    5.84
   1  -1 -14    0.03    1.20
  -1   1  14   -0.17    0.54
   1  -1 -13    0.66    1.09
  -1   1  13    0.17    0.66
   1  -1 -12    1.75    1.32
  -1   1  12    0.40    0.60
   1  -1 -11    3.66    1.17
  -1   1  11    4.21    0.80
   1  -1 -10   -0.17    0.77
  -1   1  10    0.31    0.46
   1  -1  -9   33.92    2.61
  -1   1   9   34.21    1.63
   1  -1  -8    4.32    0.86
  -1   1   8    5.18    0.63
   1  -1  -7    4.90    0.60
  -1   1   7    6.04    0.60
   1  -1  -6    2.09    0.57
  -1   1   6    3.35    0.52
   1  -1  -5   41.77    1.86
  -1   1   5   47.52    2.12
   1  -1  -4   14.91    0.89
  -1   1   4   18.12    1.09
   1  -1  -3  410.42   12.82
  -1   1   3  433.32   11.68
   1  -1  -2   18.69    1.12
  -1   1   2   20.50    1.32
   1  -1  -1   32.35    2.20
  -1   1   1   48.06    2.78
   1  -1   0   33.58    1.52
  -1   1   0   33.92    2.06
   1  -1   1  700.84   17.23
  -1   1  -1  730.61   17.49
   1  -1   2   40.31    3.12
  -1   1  -2   35.50    2.18
  -1   1  -3  398.51   18.61
   1  -1   4   29.06    1.37
  -1   1  -4   23.85    2.09
   1  -1   5  141.30    4.24
  -1   1  -5  114.51    4.64
   1  -1   6  313.95    9.53
   1  -1   7  289.36    8.70
  -1   1  -7  272.21   11.62
   1  -1   8   11.94    1.06
  -1   1  -8   12.51    1.83
   1  -1   9    1.98    0.89
  -1   1  -9    2.15    0.80
   1  -1  10    0.17    0.63
  -1   1 -10    1.63    0.94
   1  -1  11    5.93    0.69
  -1   1 -11    9.36    1.37
   1  -1  12    0.40    0.74
  -1   1 -12    1.57    2.75
   1  -1  13    1.12    0.66
  -1   1 -13    0.49    1.32
   1  -1  14    0.49    0.69
  -1   1 -14    1.12    1.35
   1  -1  16   -0.09    0.54
  -1   0  16   -2.09    4.98
  -1   0  15    0.14    1.40
   1   0 -14    0.54    1.03
  -1   0  14    0.54    0.57
   1   0 -13    0.14    1.32
  -1   0  13   -0.54    0.92
   1   0 -12    3.12    0.97
  -1   0  12    2.12    0.66
   1   0 -11    9.93    1.26
   1   0 -10    6.30    0.86
  -1   0  10    7.27    0.83
   1   0  -9   11.91    1.15
   1   0  -8   39.65    1.95
  -1   0   8   46.09    1.98
   1   0  -7   37.67    1.69
  -1   0   7   47.09    2.09
   1   0  -6    1.43    0.43
  -1   0   6    2.35    0.40
   1   0  -5   17.52    0.89
  -1   0   5   21.73    1.03
   1   0  -4  314.81    8.99
  -1   0   4  337.51   10.22
   1   0  -3  207.54    6.73
  -1   0   3  225.69    7.47
   1   0  -2  292.28    9.05
  -1   0   2  298.23    9.73
   1   0  -1 3073.06   78.04
  -1   0   1 3059.03   74.94
   1   0   0  529.88   15.52
  -1   0   0  513.05   15.06
   1   0   1    7.64    0.80
  -1   0  -1    8.59    0.92
   1   0   2   87.20    3.95
   1   0   3   31.49    1.86
   1   0   4   60.95    3.03
  -1   0  -4   47.72    2.23
   1   0   5    9.68    1.00
  -1   0  -5    6.78    0.66
  -1   0  -6   24.73    1.35
   1   0   7   15.23    1.03
  -1   0  -7   11.42    0.89
   1   0   8   32.23    1.60
  -1   0  -8   23.73    2.49
   1   0   9   60.37    3.35
  -1   0  -9  179.12   14.26
   1   0  10    1.03    0.54
  -1   0 -10    1.12    1.86
   1   0  11    3.26    0.66
  -1   0 -11    4.72    1.03
   1   0  12   -0.52    0.63
  -1   0 -12    0.31    1.09
   1   0  13    0.34    0.66
  -1   0 -13    1.00    1.12
   1   0  14   -0.40    0.74
  -1   0 -14   -0.06    1.35
   1   0  15   -0.09    0.69
  -1   0 -15    2.23    4.06
  -1  -1  16    0.00    4.06
   1   1 -15    3.86    8.59
  -1  -1  15   -0.49    4.27
   1   1 -14    0.92    0.80
  -1  -1  14    1.20    0.77
   1   1 -13    3.58    1.03
  -1  -1  13    3.21    0.66
   1   1 -12    4.09    1.12
  -1  -1  12    5.15    0.74
   1   1 -11    3.66    0.94
  -1  -1  11    4.49    0.54
   1   1 -10    1.52    0.80
  -1  -1  10    2.83    0.66
   1   1  -9   55.28    2.83
  -1  -1   9   59.40    2.81
   1   1  -8   99.11    8.70
  -1  -1   8   82.19    3.18
   1   1  -7   84.59    2.78
  -1  -1   7  106.55    4.15
   1   1  -6   67.16    2.49
  -1  -1   6   88.20    4.21
   1   1  -5   53.85    1.83
  -1  -1   5   65.61    2.38
   1   1  -4   45.06    2.38
  -1  -1   4   54.68    3.15
   1   1  -3   14.03    0.66
  -1  -1   3   14.20    0.66
   1   1  -2  573.02   20.18
  -1  -1   2  620.37   15.63
   1   1  -1   24.19    1.06
  -1  -1   1   25.02    1.80
   1   1   0   72.85    3.75
  -1  -1   0   69.08    2.69
   1   1   1 4672.28  182.67
  -1  -1  -1 4273.09  114.79
   1   1   2 3407.08  126.76
   1   1   3  132.28    6.10
  -1  -1  -3  126.67    5.24
   1   1   4    1.29    0.40
  -1  -1  -4    0.54    0.43
   1   1   5   98.85    4.32
  -1  -1  -5   84.19    3.64
   1   1   6   31.03    2.83
  -1  -1  -6   26.77    1.77
   1   1   7   23.93    1.32
  -1  -1  -7   22.04    1.37
   1   1   8    0.74    0.49
  -1  -1  -8    0.86    0.72
   1   1   9    0.06    0.66
  -1  -1  -9   -0.06    0.72
   1   1  10    3.15    0.77
  -1  -1 -10    3.44    1.17
   1   1  11    4.98    1.00
  -1  -1 -11    3.98    1.29
   1   1  12    1.32    0.74
  -1  -1 -12    1.23    0.89
   1   1  13    0.57    0.72
  -1  -1 -13    0.63    0.97
   1   1  14    0.46    0.54
  -1  -1 -14   -0.03    1.09
   1   2 -16    0.31    9.99
   1   2 -15    0.83    0.69
  -1  -2  15    1.06    0.60
   1   2 -14    1.43    1.09
  -1  -2  14    2.00    0.72
   1   2 -13    8.99    1.23
  -1  -2  13    6.93    0.80
   1   2 -12    0.20    0.69
  -1  -2  12    0.26    0.43
  -1  -2  11   21.67    1.66
   1   2 -10    8.24    1.00
  -1  -2  10    9.42    0.92
   1   2  -9   25.51    1.89
  -1  -2   9   36.18    1.92
   1   2  -8   10.88    0.89
  -1  -2   8   17.58    3.41
   1   2  -7   77.32    3.32
  -1  -2   7   89.03    3.64
   1   2  -6  230.87   14.40
  -1  -2   6  227.29    7.64
   1   2  -5  518.54   25.94
  -1  -2   5  514.65   19.12
   1   2  -4   12.82    0.54
  -1  -2   4   12.37    0.66
   1   2  -3  334.50   21.33
  -1  -2   3  380.56   19.44
   1   2  -2    4.29    0.37
  -1  -2   2    3.55    0.40
   1   2  -1   46.52    2.32
  -1  -2   1   47.09    1.86
   1   2   0  293.42   10.36
  -1  -2   0  293.11    9.76
   1   2   1  275.82    9.45
  -1  -2  -1  261.48    9.68
   1   2   2    7.73    0.83
  -1  -2  -2    6.27    0.60
   1   2   3  280.28    8.13
  -1  -2  -3  272.47    8.79
   1   2   4 1774.99   64.95
  -1  -2  -4 1649.92   46.38
   1   2   5  345.98   11.31
  -1  -2  -5  314.46   11.71
   1   2   6    3.15    0.72
  -1  -2  -6    4.24    0.89
   1   2   7   19.38    2.03
  -1  -2  -7   21.01    1.52
   1   2   8    2.35    0.54
  -1  -2  -8    1.20    0.83
   1   2   9    3.03    0.66
  -1  -2  -9    3.26    1.06
   1   2  10    3.15    0.63
  -1  -2 -10    2.75    1.12
   1   2  11    0.60    0.60
  -1  -2 -11    0.80    1.06
   1   2  12    0.26    0.69
  -1  -2 -12   -0.06    1.03
   1   2  13   -0.14    0.52
  -1  -2 -13    0.77    1.17
  -1  -2 -14   -0.26    0.92
   1   3 -16   -0.43    6.47
   1   3 -15   -0.31    0.74
  -1  -3  15   -0.06    0.37
   1   3 -14   -0.43    0.80
  -1  -3  14    0.14    0.57
   1   3 -13    0.89    0.80
  -1  -3  13    0.97    0.57
   1   3 -12   -0.11    0.77
  -1  -3  12    0.60    0.49
  -1  -3  11  107.78    7.99
   1   3 -10   20.55    1.40
  -1  -3  10   45.77    5.70
   1   3  -9   27.40    1.77
  -1  -3   9   26.34    1.17
   1   3  -8   60.37    5.55
  -1  -3   8   44.00    1.86
   1   3  -7    8.22    0.54
  -1  -3   7    9.70    0.52
   1   3  -6  110.16    4.18
  -1  -3   6  108.41    3.18
   1   3  -5   20.18    1.00
  -1  -3   5   20.78    0.66
   1   3  -4  227.52   14.40
  -1  -3   4  232.25   12.42
  -1  -3   3  362.24   19.07
   1   3  -2   74.57    3.15
  -1  -3   2   79.10    2.61
   1   3  -1   33.35    2.18
  -1  -3   1   31.83    1.72
   1   3   0   22.36    1.17
  -1  -3   0   23.45    1.55
   1   3   1   30.34    1.89
  -1  -3  -1   25.96    2.00
   1   3   2  110.73    3.95
  -1  -3  -2  103.31    3.78
   1   3   3   41.42    1.75
  -1  -3  -3   38.93    1.57
   1   3   4   19.81    1.06
  -1  -3  -4   17.23    1.03
   1   3   5    0.40    0.54
  -1  -3  -5   -0.23    0.80
  -1  -3  -6  320.47   14.69
   1   3   7  204.59    6.93
  -1  -3  -7  208.92   11.54
   1   3   8   22.39    1.49
  -1  -3  -8   21.38    1.80
   1   3   9    0.14    0.54
  -1  -3  -9    0.43    1.03
   1   3  10    3.95    0.74
  -1  -3 -10    3.44    1.12
   1   3  11    0.26    0.60
  -1  -3 -11   -0.17    1.06
   1   3  12    0.52    0.83
  -1  -3 -12    1.69    1.66
  -1  -3 -13   -0.06    1.72
   1   3  14   -0.09    0.63
  -1  -3 -14    0.31    1.17
   1   4 -14    0.40    0.77
  -1  -4  14    0.37    0.43
   1   4 -13    1.17    0.72
  -1  -4  13    1.23    0.46
   1   4 -12    0.52    0.72
  -1  -4  12    0.06    0.37
   1   4 -11    1.17    1.89
  -1  -4  11    0.77    0.34
   1   4 -10    0.57    0.57
  -1  -4  10    1.86    0.31
   1   4  -9  130.37    9.50
  -1  -4   9  109.61   11.31
   1   4  -8  320.85   17.63
   1   4  -7    3.58    0.54
  -1  -4   7    3.86    0.23
   1   4  -6  103.37    7.56
  -1  -4   6   85.28    6.93
   1   4  -5    8.85    2.81
   1   4  -4   68.82    2.61
  -1  -4   4   65.76    2.98
   1   4  -3    1.86    0.29
  -1  -4   3    1.57    0.29
   1   4  -2   62.78    2.23
  -1  -4   2   62.92    2.09
   1   4  -1   64.24    3.44
  -1  -4   1   56.37    1.92
   1   4   0   40.25    1.75
  -1  -4   0   38.04    1.55
   1   4   1    3.52    0.46
  -1  -4  -1    3.55    0.57
   1   4   2    4.09    0.43
  -1  -4  -2    4.52    0.49
   1   4   3    5.50    0.63
  -1  -4  -3    4.84    0.74
   1   4   4   23.47    1.29
  -1  -4  -4   22.39    1.23
   1   4   5    5.32    0.66
  -1  -4  -5    4.38    0.72
   1   4   6    4.90    1.00
  -1  -4  -6    3.98    0.89
   1   4   7    0.66    0.54
  -1  -4  -7    0.03    0.80
   1   4   9    3.75    5.95
  -1  -4  -9   56.08    3.41
   1   4  10   15.06    1.32
  -1  -4 -10   17.43    1.92
   1   4  11    0.49    0.72
  -1  -4 -11   -0.06    1.46
   1   4  12    0.54    0.63
  -1  -4 -12   -0.17    1.15
   1   4  13    1.00    1.03
  -1  -4 -13    0.23    1.43
   1   5 -14   -3.92    7.67
  -1  -5  14    2.15    5.12
   1   5 -13    0.43    0.54
  -1  -5  13   -0.92    5.30
   1   5 -12    1.80    0.54
  -1  -5  12    2.52    0.52
   1   5 -11    9.82    0.69
  -1  -5  11   27.08    5.30
   1   5 -10    5.15    0.52
  -1  -5  10    4.84    0.31
   1   5  -9    9.99    0.52
  -1  -5   9    9.99    0.40
   1   5  -8   12.40    4.81
  -1  -5   8    4.01    3.55
   1   5  -7   29.83    4.72
  -1  -5   7   24.70    4.44
   1   5  -4    9.42    0.52
  -1  -5   4   10.25    1.17
   1   5  -3    1.95    0.34
  -1  -5   3    1.86    0.37
   1   5  -2    0.37    0.29
  -1  -5   2    0.26    0.37
   1   5  -1   -0.06    0.37
  -1  -5   1   -0.17    0.46
   1   5   0    9.33    0.69
  -1  -5   0    8.44    0.69
   1   5   1    1.98    0.52
  -1  -5  -1    1.60    0.57
   1   5   2    2.15    0.43
  -1  -5  -2    1.57    0.57
   1   5   3    1.83    0.54
  -1  -5  -3    1.49    0.83
   1   5   4    9.45    0.97
  -1  -5  -4   11.85    1.23
   1   5   5    0.46    0.49
  -1  -5  -5    1.49    0.80
   1   5   6    1.03    0.57
  -1  -5  -6    1.46    1.15
   1   5   7    1.63    0.74
  -1  -5  -7    2.63    1.32
   1   5   8    0.23    0.69
  -1  -5  -8    0.20    1.26
   1   5   9    0.49    0.72
  -1  -5  -9   -0.26    1.00
   1   5  10   -0.40    0.60
  -1  -5 -10    0.40    2.58
   1   5  11    5.73    0.86
  -1  -5 -11    8.39    1.37
   1   5  12    2.26    0.69
  -1  -5 -12    3.89    1.32
   1   6 -14    4.72    6.70
   1   6 -13    4.06    8.44
  -1  -6  13    0.46    5.67
   1   6 -12   10.59    8.50
  -1  -6  12    8.19    5.24
   1   6 -11    4.21    7.44
  -1  -6  11    3.81    5.04
   1   6 -10   10.85    6.98
  -1  -6  10   10.88    4.78
   1   6  -9   73.23   11.48
   1   6  -8  108.04   11.94
   1   6  -7   37.41    6.38
  -1  -6   7   27.74    4.81
  -1  -6   6   29.20    2.06
  -1  -6   5    0.34    0.23
   1   6  -2   15.32    0.80
  -1  -6   2   13.48    0.83
   1   6  -1    0.46    0.40
  -1  -6   1    0.20    0.57
   1   6   0    4.52    0.46
  -1  -6   0    4.04    0.60
   1   6   1    4.41    0.57
  -1  -6  -1    3.55    1.12
   1   6   2    0.86    0.49
  -1  -6  -2    0.63    0.72
   1   6   3    1.17    0.66
  -1  -6  -3    0.20    0.86
   1   6   4    7.10    0.69
  -1  -6  -4    7.59    1.09
   1   6   5    0.14    0.49
  -1  -6  -5    0.83    0.86
   1   6   6    2.55    0.69
  -1  -6  -6    2.83    1.03
   1   6   7    2.26    0.63
  -1  -6  -7    2.81    1.17
   1   6   8   -0.09    0.54
  -1  -6  -8    0.34    1.06
   1   6   9    0.09    0.97
  -1  -6  -9   -0.17    1.83
   1   6  10   -0.17    0.80
  -1  -6 -10   -0.26    2.12
  -1  -6 -11   -0.31    2.00
   1   7 -13    1.66    6.84
  -1  -7  13   -2.81    6.64
   1   7 -12    1.17    8.73
  -1  -7  12    5.78    6.38
   1   7 -11    3.38    8.85
  -1  -7  11   -0.26    5.50
   1   7 -10    4.27    8.04
  -1  -7  10    9.22    6.21
   1   7  -9   -5.01    7.93
  -1  -7   9    3.15    4.52
   1   7  -8   -4.55    7.56
  -1  -7   8    1.83    4.09
   1   7  -7   10.16    7.13
  -1  -7   7   18.38    4.64
   1   7  -6    3.44    6.87
  -1  -7   6   12.48    1.43
   1   7  -5    4.41    0.54
  -1  -7   5    7.16    0.66
   1   7  -4   12.57    0.94
  -1  -7   4   12.22    1.40
   1   7  -3    1.03    0.37
  -1  -7   3    0.23    0.54
   1   7  -2   31.69    1.69
  -1  -7   2   22.82    1.69
   1   7  -1   47.06    2.06
  -1  -7   1   37.90    2.20
   1   7   0   10.19    0.74
  -1  -7   0    9.22    0.97
   1   7   1    2.29    0.57
  -1  -7  -1    2.09    0.86
   1   7   2    0.49    0.66
  -1  -7  -2    0.69    1.09
   1   7   3    2.69    0.74
  -1  -7  -3    3.21    1.09
   1   7   4    0.03    0.57
  -1  -7  -4   -0.52    0.86
   1   7   5    0.23    0.77
  -1  -7  -5    0.34    1.29
   1   7   6    0.92    0.72
  -1  -7  -6    2.49    1.23
   1   7   7    1.49    0.80
  -1  -7  -7    3.72    1.98
   1   7   8    0.17    0.66
  -1  -7  -8    0.26    1.26
   1   7   9    0.37    0.89
  -1  -7  -9    1.03    1.15
   1   8 -12    1.35    5.07
  -1  -8  12   -1.46    6.07
   1   8 -11   -0.46    8.44
  -1  -8  11   -3.49    5.55
   1   8 -10    2.12    7.96
  -1  -8  10    5.75    7.27
   1   8  -9   -2.69    7.47
  -1  -8   9    0.83    5.21
   1   8  -8    3.98    8.67
  -1  -8   8    7.07    4.81
   1   8  -7    0.57    6.67
  -1  -8   7   -0.14    0.34
   1   8  -6    1.15    0.49
  -1  -8   6    1.03    0.37
   1   8  -5    1.63    0.40
  -1  -8   5    1.40    0.52
   1   8  -4    1.03    0.49
  -1  -8   4    0.97    0.57
   1   8  -3    1.75    0.49
  -1  -8   3    2.38    0.69
   1   8  -2    0.60    0.43
  -1  -8   2    0.57    0.74
   1   8  -1    0.06    0.57
  -1  -8   1   -0.37    0.72
   1   8   0    0.83    0.63
  -1  -8   0    0.80    0.89
   1   8   1    7.64    0.72
  -1  -8  -1    8.02    1.03
   1   8   2    1.95    0.69
  -1  -8  -2    2.86    1.17
   1   8   3    1.35    0.77
  -1  -8  -3    0.40    1.03
   1   8   4   -0.26    0.63
  -1  -8  -4   -0.29    1.12
   1   8   5    0.06    0.52
  -1  -8  -5    0.40    0.94
   1   8   6   -0.23    0.66
  -1  -8  -6    0.34    1.06
   1   9  -8    4.49    5.35
   1   9  -7   -0.06    0.52
  -1  -9   7    0.72    1.29
   1   9  -6    2.98    0.63
  -1  -9   6    3.12    0.63
   1   9  -5    1.12    0.54
  -1  -9   5    1.20    0.63
   1   9  -4    0.80    0.43
  -1  -9   4    0.20    0.72
   1   9  -3   -0.11    0.54
  -1  -9   3    0.17    0.77
   1   9  -2   -0.11    0.57
  -1  -9   2    0.03    1.00
   1   9  -1    0.23    0.66
  -1  -9   1   -0.09    0.80
   1   9   0   -0.06    0.86
  -1  -9   0    0.94    1.89
   1   9   1   -0.23    0.69
  -1  -9  -1   -1.20    2.09
   1   9   2   -0.31    0.43
  -1  -9  -2    0.06    1.63
   1   9   3   -0.40    0.72
  -1  -9  -3   -0.43    2.29
   1   9   4   -0.14    0.72
   1  10  -6   -0.23    0.43
  -1 -10   6    0.17    0.54
   1  10  -5    0.11    0.57
  -1 -10   5    0.17    0.77
   1  10  -4    0.46    0.63
  -1 -10   4    0.89    1.12
   1  10  -3    1.40    0.69
   1  10  -1    0.37    0.63
   1  10   0   -0.54    0.66
  -1 -10   0   -0.34    1.40
   1  11  -2    0.17    0.49
   2 -12   3    5.47    4.72
   2 -11   1   -0.34    0.80
   2 -11   2   -0.40    0.52
  -2  11  -2   -0.26    0.43
   2 -11   3    0.14    0.60
  -2  11  -3   -0.06    0.89
  -2  11  -4    1.52    0.57
   2 -11   5    1.55    0.89
  -2  11  -5    1.72    1.26
   2 -11   6    0.49    0.72
  -2  11  -6    0.31    0.60
   2 -11   7    0.11    0.54
  -2  11  -7    0.40    1.15
   2 -11   8   -0.03    0.57
  -2  10   3   -0.17    0.72
  -2  10   2    0.37    0.80
   2 -10  -1    0.54    1.95
  -2  10   1   -0.20    0.77
   2 -10   0    0.31    1.06
  -2  10   0    0.14    0.83
   2 -10   1    0.31    0.69
  -2  10  -1    0.17    0.60
   2 -10   2    0.46    0.72
  -2  10  -2    0.31    0.54
   2 -10   3    0.29    0.94
  -2  10  -3   -0.06    0.74
   2 -10   4    0.06    0.83
  -2  10  -4    0.37    0.74
   2 -10   5    0.26    0.57
  -2  10  -5   -0.29    0.66
   2 -10   6    0.00    0.66
  -2  10  -6    0.31    0.57
   2 -10   7    6.07    1.12
  -2  10  -7    4.06    0.86
  -2  10  -8    2.15    0.77
   2 -10   9    1.32    0.69
  -2  10  -9    0.77    0.80
   2 -10  11    0.20    0.77
   2  -9  -6   -0.14    2.81
  -2   9   6   -0.09    0.66
   2  -9  -5    1.57    3.12
  -2   9   5    0.34    0.92
   2  -9  -4    0.06    0.89
  -2   9   4   -0.03    0.52
   2  -9  -3    0.40    0.92
  -2   9   3   -0.26    0.94
   2  -9  -2    0.29    1.26
  -2   9   2    0.09    0.60
   2  -9  -1    0.77    0.89
  -2   9   1    0.29    0.74
   2  -9   0    2.72    0.94
  -2   9   0    3.72    0.74
   2  -9   1    2.09    0.80
  -2   9  -1    2.98    0.60
   2  -9   2    0.66    1.00
  -2   9  -2    0.94    0.63
   2  -9   3    2.63    0.94
  -2   9  -3    2.52    0.66
   2  -9   4    2.35    0.86
  -2   9  -4    2.23    0.94
   2  -9   5    2.35    0.86
  -2   9  -5    4.27    0.77
   2  -9   6    6.96    0.92
  -2   9  -6    5.44    0.80
   2  -9   7    0.46    0.69
  -2   9  -7   -0.46    0.69
   2  -9   8    0.52    0.72
  -2   9  -8    1.26    0.77
   2  -9   9    1.17    0.63
  -2   9  -9    0.80    0.66
   2  -9  10    4.24    0.66
  -2   9 -10    4.69    0.86
   2  -9  11    0.83    0.49
  -2   9 -11    0.63    1.03
   2  -9  12    1.43    0.43
   2  -9  13   -2.61   12.25
  -2   8   7    1.06    0.83
   2  -8  -6    0.14    1.49
  -2   8   6    0.72    1.37
   2  -8  -5   -0.03    1.89
  -2   8   5    2.26    0.86
   2  -8  -4   -0.94    1.29
  -2   8   4    0.72    0.63
   2  -8  -3    0.72    1.17
  -2   8   3    0.97    0.63
   2  -8  -2    0.52    1.23
  -2   8   2    0.86    0.83
   2  -8  -1    1.52    1.15
  -2   8   1    0.66    0.74
   2  -8   0   -0.03    0.97
  -2   8   0    0.66    0.60
   2  -8   1   -1.06    0.97
  -2   8  -1    0.40    0.86
   2  -8   2   14.66    1.29
  -2   8  -2   16.49    0.92
   2  -8   3   14.23    1.17
  -2   8  -3   14.28    0.86
   2  -8   4    1.52    0.57
  -2   8  -4    1.86    0.66
   2  -8   5    7.47    0.92
  -2   8  -5    5.98    0.74
   2  -8   6    9.39    0.86
  -2   8  -6   11.31    1.03
   2  -8   7    3.69    0.77
  -2   8  -7    4.18    0.66
   2  -8   8   15.52    1.03
  -2   8  -8   13.88    1.06
   2  -8   9    2.03    0.60
  -2   8  -9    1.49    0.74
   2  -8  10    2.92    0.57
  -2   8 -10    2.49    0.86
   2  -8  11    0.89    0.49
  -2   8 -11    0.09    0.72
   2  -8  12    2.18    0.66
  -2   8 -12    1.72    1.12
   2  -8  13    0.14    0.52
  -2   8 -13    0.00    0.74
   2  -8  14    0.60    0.60
  -2   8 -14   -0.20    1.06
  -2   7  10   -0.37    1.12
  -2   7   9   -0.06    1.00
   2  -7  -8    1.26    1.83
  -2   7   8    0.80    1.20
   2  -7  -7    0.89    1.20
  -2   7   7    0.03    0.60
   2  -7  -6   -0.20    1.26
  -2   7   6   -0.49    0.63
   2  -7  -5    1.15    1.26
  -2   7   5    0.49    0.74
   2  -7  -4   -0.37    1.15
  -2   7   4   -0.26    0.57
   2  -7  -3    0.60    1.03
  -2   7   3    1.55    0.66
   2  -7  -2    4.41    0.80
  -2   7   2    3.01    0.57
   2  -7  -1    2.00    0.66
  -2   7   1    0.57    0.49
   2  -7   0    0.06    0.69
  -2   7   0    0.14    0.63
   2  -7   1    2.40    0.80
  -2   7  -1    2.06    0.52
   2  -7   2    5.30    0.66
  -2   7  -2    5.30    0.52
   2  -7   3    2.92    0.74
  -2   7  -3    3.01    0.60
   2  -7   4    8.53    0.74
  -2   7  -4    9.16    0.72
   2  -7   5   51.73    2.78
  -2   7  -5   55.99    3.78
   2  -7   6    2.15    0.46
  -2   7  -6    3.29    0.60
   2  -7   7    4.95    0.74
  -2   7  -7    4.95    0.83
   2  -7   8   12.85    0.97
  -2   7  -8   11.59    0.97
   2  -7   9    3.98    0.63
  -2   7  -9    6.10    0.94
   2  -7  10    7.84    0.72
  -2   7 -10    7.59    1.09
   2  -7  11    5.04    0.69
  -2   7 -11    4.52    1.52
   2  -7  12    0.34    0.60
  -2   7 -12    1.15    0.74
   2  -7  13    1.43    0.52
  -2   7 -13    0.97    1.17
  -2   7 -14    3.01    4.84
   2  -6 -11    1.40    1.72
  -2   6  11    0.03    0.57
   2  -6 -10    6.64    1.55
  -2   6  10    2.83    0.54
   2  -6  -9    1.03    1.40
  -2   6   9    2.66    0.63
   2  -6  -8    1.23    0.89
  -2   6   8    0.52    0.83
   2  -6  -7    5.67    1.20
  -2   6   7    2.89    0.60
   2  -6  -6    6.33    1.17
  -2   6   6    4.32    0.83
   2  -6  -5    3.12    1.06
  -2   6   5    3.09    0.63
   2  -6  -4    8.73    1.17
  -2   6   4   10.56    0.94
   2  -6  -3    1.26    0.77
  -2   6   3    0.69    0.49
   2  -6  -2   14.89    1.23
  -2   6   2   14.66    0.92
   2  -6  -1    3.03    0.92
  -2   6   1    3.84    0.83
   2  -6   0    0.92    0.57
  -2   6   0    0.94    0.40
   2  -6   1    1.15    0.49
  -2   6  -1    1.75    0.40
   2  -6   2    6.50    0.77
  -2   6  -2    7.56    0.63
   2  -6   3    7.67    0.66
  -2   6  -3    8.27    0.63
   2  -6   4   28.05    1.29
  -2   6  -4   25.82    1.15
   2  -6   5   25.51    1.26
  -2   6  -5   22.27    1.09
   2  -6   6    2.78    0.52
  -2   6  -6    1.98    0.63
   2  -6   7   61.00    4.29
  -2   6  -7   50.67    2.43
   2  -6   8    6.15    0.69
  -2   6  -8    6.21    0.86
   2  -6   9   -0.06    0.54
  -2   6  -9    0.72    1.35
   2  -6  10    2.72    0.52
  -2   6 -10    4.12    1.69
   2  -6  11    2.52    0.57
  -2   6 -11    3.01    2.09
   2  -6  12    1.12    0.63
  -2   6 -12    1.40    0.92
   2  -6  13    1.46    0.63
  -2   6 -13    1.03    0.69
   2  -6  14   -0.20    1.09
  -2   6 -14   -0.92    1.46
  -2   6 -15   -0.72    5.44
   2  -5 -12    0.52    1.69
  -2   5  12   -0.34    0.66
   2  -5 -11   -1.09    1.49
  -2   5  11   -0.20    0.57
   2  -5 -10    0.80    1.63
  -2   5  10    0.00    0.63
   2  -5  -9    0.69    1.12
  -2   5   9    0.09    0.69
   2  -5  -8   17.29    1.55
  -2   5   8   14.17    1.06
   2  -5  -7   23.27    2.12
  -2   5   7   21.44    1.49
   2  -5  -6   10.51    1.12
  -2   5   6   10.25    0.92
   2  -5  -5   24.13    1.40
  -2   5   5   24.25    1.20
   2  -5  -4   41.82    1.89
  -2   5   4   41.88    1.69
   2  -5  -3   17.75    1.12
  -2   5   3   17.89    0.94
   2  -5  -2   64.58    2.49
  -2   5   2   60.72    2.20
   2  -5  -1    1.35    0.69
  -2   5   1    3.18    0.57
   2  -5   0   35.35    1.37
  -2   5   0   35.87    1.40
   2  -5   1   86.08    3.03
  -2   5  -1   89.14    3.21
   2  -5   2   45.49    1.80
  -2   5  -2   46.63    1.89
   2  -5   3   24.50    1.26
  -2   5  -3   24.50    1.29
   2  -5   4   29.49    1.52
  -2   5  -4   31.92    1.49
   2  -5   5   40.08    1.80
  -2   5  -5   39.62    1.66
   2  -5   6   42.83    1.95
  -2   5  -6   43.57    1.69
   2  -5   7   79.27    2.81
  -2   5  -7   71.39    2.86
   2  -5   8   32.20    1.55
  -2   5  -8   30.60    1.60
   2  -5   9    3.23    0.63
  -2   5  -9    4.67    1.83
   2  -5  10    8.96    0.86
  -2   5 -10    7.33    1.06
   2  -5  11    1.15    0.74
  -2   5 -11    2.20    1.09
   2  -5  12    0.72    0.69
  -2   5 -12   -0.74    1.03
   2  -5  13    0.20    0.63
  -2   5 -13    1.32    0.94
   2  -5  14    0.57    0.63
  -2   5 -14   -1.72    2.63
   2  -4 -12    0.63    1.89
  -2   4  12    0.11    0.66
   2  -4 -11   -0.83    1.35
  -2   4  11   -0.66    0.63
   2  -4 -10    0.80    1.06
  -2   4  10    0.92    0.66
   2  -4  -9    0.29    1.00
  -2   4   9    0.26    0.60
   2  -4  -8    1.46    0.83
  -2   4   8    1.15    0.52
   2  -4  -7    1.83    0.97
  -2   4   7    1.98    0.60
   2  -4  -6   11.36    1.17
  -2   4   6    9.62    0.72
   2  -4  -5  101.88    5.81
  -2   4   5   89.69    4.87
   2  -4  -4   15.97    1.06
  -2   4   4   15.83    0.86
   2  -4  -3  102.43    3.66
  -2   4   3  105.12    3.86
   2  -4  -2   99.73    3.55
  -2   4   2  103.23    3.49
   2  -4  -1   95.01    3.18
  -2   4   1   96.19    3.46
   2  -4   0   97.79    3.55
  -2   4   0  103.83    3.32
   2  -4   1  126.27    4.04
  -2   4  -1  123.72    3.86
   2  -4   2   12.45    0.80
  -2   4  -2   14.60    0.80
   2  -4   3  235.11    6.64
  -2   4  -3  244.30    6.64
   2  -4   4  167.29    4.90
  -2   4  -4  170.27    4.72
   2  -4   5  102.97    3.78
  -2   4  -5  100.48    3.41
   2  -4   6   51.38    2.23
  -2   4  -6   49.72    1.89
   2  -4   7   69.05    2.20
  -2   4  -7   71.08    2.63
   2  -4   8   33.04    1.52
  -2   4  -8   32.41    1.66
   2  -4   9   41.85    1.77
  -2   4  -9   49.98    3.75
   2  -4  10   25.91    1.37
  -2   4 -10   27.34    3.75
   2  -4  11    5.58    0.94
  -2   4 -11    5.90    2.89
   2  -4  12    2.32    0.69
  -2   4 -12    3.58    1.17
   2  -4  13    0.20    0.83
  -2   4 -13    0.11    1.12
   2  -4  14    0.57    0.63
  -2   4 -15   -0.29    0.89
   2  -3 -13    0.31    1.15
  -2   3  13    0.49    0.69
   2  -3 -12    1.60    1.95
  -2   3  12    0.14    0.80
   2  -3 -11    0.09    1.37
  -2   3  11    0.14    0.74
   2  -3 -10    3.38    1.23
  -2   3  10    2.52    0.57
   2  -3  -9    0.94    0.86
  -2   3   9    0.86    0.46
   2  -3  -8    0.11    0.80
  -2   3   8    0.52    0.72
   2  -3  -7    0.11    0.86
  -2   3   7   -0.11    0.54
   2  -3  -6    3.52    0.66
  -2   3   6    3.49    0.43
   2  -3  -5    3.64    0.54
  -2   3   5    3.58    0.43
   2  -3  -4    3.72    0.60
  -2   3   4    3.84    0.46
   2  -3  -3  201.47    9.22
  -2   3   3  210.86    9.85
   2  -3  -2   16.92    1.06
  -2   3   2   16.37    0.89
   2  -3  -1  105.80    4.04
  -2   3   1  110.21    3.84
   2  -3   0  207.83    6.90
  -2   3   0  226.52    6.70
   2  -3   1  186.13    5.78
  -2   3  -1  193.74    5.81
   2  -3   2   57.17    2.29
  -2   3  -2   59.86    2.06
   2  -3   3  256.26    7.79
  -2   3  -3  261.73    7.61
   2  -3   4   37.13    1.55
  -2   3  -4   37.53    1.43
   2  -3   5   95.27    3.98
  -2   3  -5   98.07    3.44
   2  -3   6  165.00    4.72
  -2   3  -6  177.26    5.52
   2  -3   7   89.09    2.95
  -2   3  -7   84.08    3.01
   2  -3   8   41.85    1.92
  -2   3  -8   42.65    2.26
   2  -3   9   17.06    1.15
  -2   3  -9   20.67    1.43
   2  -3  10   13.71    1.06
  -2   3 -10   15.63    1.43
   2  -3  11    7.84    0.94
  -2   3 -11   10.59    1.37
   2  -3  12    6.90    1.00
  -2   3 -12   15.11    3.55
   2  -3  13    3.15    0.89
  -2   3 -13    5.98    1.37
   2  -3  14   -0.17    0.40
  -2   3 -14   -0.03    0.74
   2  -3  15    2.12    6.30
   2  -2 -14   -0.09    0.89
  -2   2  14   -0.49    0.97
   2  -2 -13    0.43    0.94
  -2   2  13    0.77    0.60
   2  -2 -12    6.44    1.20
  -2   2  12    6.33    0.72
   2  -2 -11    2.75    1.06
  -2   2  11    3.35    0.72
   2  -2 -10    1.77    1.09
  -2   2  10    2.78    0.69
   2  -2  -9    0.66    0.80
  -2   2   9    0.31    0.72
   2  -2  -8    8.99    0.92
  -2   2   8   10.02    0.94
   2  -2  -7   26.05    1.46
  -2   2   7   29.80    1.72
   2  -2  -6   11.88    1.03
  -2   2   6   11.42    0.86
   2  -2  -5   34.72    1.63
  -2   2   5   39.59    1.77
   2  -2  -4   17.63    1.06
  -2   2   4   19.18    1.15
   2  -2  -3    4.29    0.52
  -2   2   3    4.98    0.52
   2  -2  -2   39.56    2.75
  -2   2   2   44.49    1.98
   2  -2  -1    1.86    0.54
  -2   2   1    0.37    0.46
   2  -2   0  179.66    6.36
  -2   2   0  183.70    5.98
   2  -2   1   11.88    0.86
  -2   2  -1   12.17    0.77
   2  -2   2  129.22    4.58
  -2   2  -2  146.00    4.47
   2  -2   3   48.38    2.09
  -2   2  -3   50.35    2.03
   2  -2   4   11.11    0.74
  -2   2  -4   12.19    0.80
   2  -2   5   77.15    2.63
  -2   2  -5   79.93    4.15
   2  -2   6   52.59    1.89
  -2   2  -6   53.62    2.46
   2  -2   7   10.65    1.00
  -2   2  -7    9.79    1.95
   2  -2   8   38.82    1.69
  -2   2  -8   42.20    3.23
   2  -2   9    9.79    0.80
  -2   2  -9   11.48    1.06
   2  -2  10   21.53    1.17
  -2   2 -10   28.40    2.03
   2  -2  11    2.43    0.66
  -2   2 -11    3.15    0.94
   2  -2  12    3.23    0.89
  -2   2 -12    3.49    1.23
   2  -2  13    0.92    0.89
  -2   2 -13    1.75    1.23
   2  -2  14    0.09    0.40
  -2   2 -14    1.98    0.83
   2  -2  15    3.72    6.53
   2  -1 -15   -0.11    1.29
  -2   1  15    0.14    0.74
   2  -1 -14    0.06    0.89
  -2   1  14    0.80    0.69
   2  -1 -13    2.26    1.35
  -2   1  13    1.40    0.57
   2  -1 -12   -0.69    1.17
  -2   1  12   -0.14    0.69
   2  -1 -11    1.52    0.92
  -2   1  11    1.83    0.57
   2  -1 -10   21.67    1.43
  -2   1  10   20.38    1.06
   2  -1  -9  127.04    9.56
  -2   1   9   67.19    2.58
   2  -1  -8   25.51    1.40
  -2   1   8   27.85    1.29
   2  -1  -7   13.14    0.89
  -2   1   7   13.80    0.80
   2  -1  -6    7.27    0.74
  -2   1   6    8.93    0.63
   2  -1  -5  202.25    7.41
  -2   1   5  235.11    6.61
   2  -1  -4   51.07    2.86
  -2   1   4   64.47    4.21
   2  -1  -3  305.30    9.59
  -2   1   3  353.97   16.95
   2  -1  -2    0.66    0.29
  -2   1   2    0.37    0.26
   2  -1  -1    1.26    0.29
  -2   1   1    1.20    0.31
   2  -1   0   22.70    1.57
  -2   1   0   25.59    2.00
   2  -1   1  690.44   20.15
  -2   1  -1  748.36   32.63
   2  -1   2   34.67    1.86
  -2   1  -2   36.36    1.60
   2  -1   3  103.23    4.18
  -2   1  -3  100.16    4.35
   2  -1   4   10.99    0.89
  -2   1  -4    5.64    1.49
   2  -1   5    5.52    0.57
  -2   1  -5    0.74    2.06
   2  -1   6   22.04    1.32
  -2   1  -6   17.58    1.23
   2  -1   7    6.41    0.63
  -2   1  -7    6.10    0.83
   2  -1   8    8.04    0.89
  -2   1  -8    8.33    1.15
   2  -1   9    0.86    0.63
  -2   1  -9    1.43    0.80
   2  -1  10    2.12    0.86
  -2   1 -10    4.09    1.37
   2  -1  11    0.37    0.86
  -2   1 -11    0.83    1.26
   2  -1  12    1.26    0.60
  -2   1 -12    0.89    1.29
   2  -1  13    1.29    0.74
  -2   1 -13    2.43    1.12
   2  -1  14    0.09    0.43
   2  -1  15   -0.06    1.00
   2   0 -15   -0.17    0.74
  -2   0  15    0.03    0.43
   2   0 -14    0.34    1.00
  -2   0  14    0.26    0.57
   2   0 -13    0.54    1.20
  -2   0  13    0.60    0.74
   2   0 -12    0.77    0.92
  -2   0  12    0.43    0.52
   2   0 -11    3.95    0.89
  -2   0  11    4.01    0.52
   2   0 -10    0.20    0.72
  -2   0  10    0.14    0.40
   2   0  -9    0.97    0.63
  -2   0   9    1.03    0.46
  -2   0   8   26.91    1.20
   2   0  -7  298.00   13.45
   2   0  -6  183.30    7.76
  -2   0   6  212.95    7.21
   2   0  -5   55.02    2.15
  -2   0   5   67.73    2.46
   2   0  -4   24.70    1.17
  -2   0   4   26.79    1.23
   2   0  -3   73.20    2.89
  -2   0   3   78.64    3.26
   2   0  -2  955.55   27.34
  -2   0   2  997.69   28.60
   2   0  -1   77.98    3.46
  -2   0   1   86.11    3.44
   2   0   0  275.70    9.62
  -2   0   0  281.66   10.02
   2   0   1   22.59    1.72
  -2   0  -1   22.30    1.40
   2   0   2    3.23    0.57
  -2   0  -2    1.60    0.92
   2   0   3  229.21    8.76
  -2   0  -4   51.44    2.61
   2   0   5   79.01    3.18
   2   0   6   26.68    1.52
  -2   0  -6   23.24    1.49
   2   0   7    1.52    0.66
  -2   0  -7    2.18    0.83
   2   0   8   61.83    2.89
  -2   0  -8   55.68    2.95
   2   0   9    0.66    0.63
  -2   0  -9    0.60    0.77
   2   0  10    0.06    0.60
  -2   0 -10    0.40    0.94
   2   0  11   -0.34    0.69
  -2   0 -11    0.54    0.94
   2   0  12   -0.06    0.74
  -2   0 -12    0.31    0.89
   2   0  13    0.14    0.80
  -2   0 -13    0.14    1.03
   2   0  14    0.09    0.54
  -2   0 -15   -0.37    0.63
  -2   0 -16   -0.11    4.44
   2   1 -15    0.17    0.74
  -2  -1  15    0.09    0.43
   2   1 -14    0.23    0.80
  -2  -1  14    0.23    0.57
   2   1 -13    0.09    0.72
  -2  -1  13    0.03    0.49
   2   1 -12    0.26    0.66
  -2  -1  12   -0.14    0.52
   2   1 -11    0.54    0.83
  -2  -1  11   -0.20    0.66
   2   1 -10    1.63    0.80
  -2  -1  10    1.32    0.49
   2   1  -9   -0.49    0.60
  -2  -1   9    0.06    0.31
   2   1  -8    6.53    0.57
  -2  -1   8    8.36    0.54
   2   1  -7   54.88    2.78
  -2  -1   7   66.81    2.81
   2   1  -6    6.36    0.57
  -2  -1   6    6.93    0.57
   2   1  -5  495.53   19.95
  -2  -1   5  556.64   16.98
   2   1  -4  791.64   20.35
  -2  -1   4  887.62   23.62
   2   1  -3   51.44    2.00
  -2  -1   3   53.50    2.15
   2   1  -2  186.96    6.15
  -2  -1   2  208.14    6.67
   2   1  -1  113.99    4.15
  -2  -1   1  114.11    4.35
   2   1   0  672.70   19.64
   2   1   1    8.39    1.00
  -2  -1  -1    9.05    0.83
   2   1   2  355.48   11.22
  -2  -1  -2  297.74   11.51
  -2  -1  -3   32.32    1.60
   2   1   4    0.40    0.80
  -2  -1  -4    0.74    1.09
   2   1   5   50.84    2.23
  -2  -1  -5   44.97    2.15
   2   1   6   41.11    2.78
  -2  -1  -6   41.57    1.98
   2   1   7   17.86    1.00
  -2  -1  -7   15.97    1.89
   2   1   8   19.52    1.23
  -2  -1  -8   17.72    2.29
   2   1   9    1.23    0.94
  -2  -1  -9    0.34    1.06
   2   1  10   12.48    1.49
  -2  -1 -10   14.51    1.55
   2   1  11    5.75    1.03
  -2  -1 -11    5.78    1.52
   2   1  12   -0.06    0.89
  -2  -1 -12   -0.46    1.52
   2   1  13    0.37    1.15
  -2  -1 -13    0.34    1.32
   2   1  14   -0.11    0.46
  -2  -1 -14   -0.09    0.63
  -2  -1 -15    0.03    0.66
  -2  -2  16   -0.03    0.49
   2   2 -15    0.80    2.26
  -2  -2  15    0.00    0.37
   2   2 -14    0.83    1.03
  -2  -2  14    0.92    0.52
   2   2 -13    0.57    1.00
  -2  -2  13   -0.03    0.52
   2   2 -12    1.83    0.63
  -2  -2  12    2.00    0.40
   2   2 -11    2.75    0.63
  -2  -2  11    2.83    0.37
   2   2 -10    1.32    0.52
  -2  -2  10    1.32    0.31
   2   2  -9    7.79    0.69
  -2  -2   9    9.45    0.60
   2   2  -8    0.92    0.37
  -2  -2   8    1.83    0.31
   2   2  -7   38.79    5.38
  -2  -2   7   30.14    1.17
   2   2  -6   -0.06    0.23
  -2  -2   6    0.06    0.17
   2   2  -5   47.52    1.57
  -2  -2   5   51.01    1.83
  -2  -2   4  689.13   19.47
   2   2  -3  277.42    7.56
  -2  -2   3  354.68   11.97
   2   2  -2  727.77   25.22
  -2  -2   2  728.32   31.00
   2   2  -1  152.89    6.04
  -2  -2   1  165.75    5.44
   2   2   0    2.49    0.43
  -2  -2   0    2.29    0.89
   2   2   1    0.43    0.46
  -2  -2  -1    0.46    0.46
   2   2   2    4.41    0.86
  -2  -2  -2    1.63    0.54
   2   2   3    2.20    0.60
  -2  -2  -3    2.20    0.66
   2   2   4    6.78    0.94
  -2  -2  -4    7.21    0.92
   2   2   5    3.86    0.63
  -2  -2  -5    4.09    0.83
   2   2   6   11.22    1.00
  -2  -2  -6    9.10    1.63
   2   2   7    6.78    0.89
  -2  -2  -7    7.84    1.00
   2   2   8    4.95    0.80
  -2  -2  -8    4.72    1.63
   2   2   9    4.84    1.00
  -2  -2  -9    2.81    1.35
   2   2  10    1.72    0.66
  -2  -2 -10    3.09    1.20
   2   2  11    1.83    0.72
  -2  -2 -11    0.63    1.12
   2   2  12    1.15    0.63
  -2  -2 -12    1.23    1.15
   2   2  13    2.55    0.97
  -2  -2 -13    2.49    1.72
  -2  -2 -14    0.14    1.17
  -2  -3  15   -0.09    0.43
   2   3 -14   -0.11    1.09
  -2  -3  14    0.92    0.49
   2   3 -13    0.43    0.77
  -2  -3  13    0.57    0.34
   2   3 -12    1.60    0.77
  -2  -3  12    0.83    0.43
   2   3 -11    5.87    0.77
  -2  -3  11    6.24    0.63
   2   3 -10   12.48    1.49
  -2  -3  10   20.18    1.15
   2   3  -9    7.44    0.69
  -2  -3   9    9.25    0.69
   2   3  -7  108.52    6.98
   2   3  -6   10.33    4.41
  -2  -3   6   10.68    3.12
   2   3  -5   43.17    5.93
  -2  -3   5   52.50    4.95
   2   3  -4  162.60    9.90
   2   3  -3    8.99    0.40
  -2  -3   3    7.67    0.80
  -2  -3   2  867.53   43.97
  -2  -3   1   22.76    1.83
   2   3   0  115.39    4.72
   2   3   1  170.41    7.99
  -2  -3  -1  139.35    4.64
   2   3   2   41.59    1.80
  -2  -3  -2   34.72    2.03
   2   3   3    3.09    0.60
  -2  -3  -3    3.61    1.09
   2   3   4    3.46    0.57
  -2  -3  -4    1.72    0.77
   2   3   5    8.56    0.66
  -2  -3  -5    9.53    1.17
   2   3   6   27.91    1.49
  -2  -3  -6   25.11    1.69
  -2  -3  -7    0.60    0.80
   2   3   8    2.92    1.09
  -2  -3  -8    4.21    1.20
   2   3   9    0.17    0.66
  -2  -3  -9    0.46    1.06
   2   3  10    0.37    0.69
  -2  -3 -10    0.54    1.03
   2   3  11    1.09    1.12
  -2  -3 -11    0.20    2.03
   2   3  12    0.29    0.52
  -2  -3 -12   -0.09    0.63
   2   3  13    0.03    0.66
  -2  -3 -13   -0.14    0.97
   2   4 -14    0.43    0.83
  -2  -4  14    0.37    0.34
   2   4 -13   -0.11    0.63
  -2  -4  13    0.14    0.31
   2   4 -12    3.92    0.72
  -2  -4  12    2.23    0.40
   2   4 -11    6.90    0.80
  -2  -4  11    7.99    0.63
   2   4 -10    0.57    0.43
  -2  -4  10    0.20    0.20
   2   4  -9  116.20   12.02
   2   4  -8   19.52    6.53
  -2  -4   8   14.34    3.52
   2   4  -7   71.80    6.41
  -2  -4   7   66.90    5.93
   2   4  -6   42.37    5.44
  -2  -4   6   35.61    3.86
  -2  -4   5  230.96   11.68
   2   4  -4   49.55    1.72
  -2  -4   4   43.97    1.86
   2   4  -3   45.97    2.23
  -2  -4   3   46.29    2.29
  -2  -4   2  146.71    6.76
   2   4  -1   78.67    3.98
  -2  -4   1   81.04    3.58
   2   4   0  185.61    8.24
   2   4   1  164.97    6.93
  -2  -4  -1  116.82    6.53
   2   4   2   -0.03    0.54
  -2  -4  -2    0.37    0.72
   2   4   3   11.94    0.83
  -2  -4  -3   11.36    1.00
   2   4   4    1.15    0.57
  -2  -4  -4    1.15    0.89
   2   4   5   16.92    1.35
  -2  -4  -5   15.63    1.12
   2   4   6    1.60    0.74
  -2  -4  -6    1.89    1.06
   2   4   7    3.35    0.77
  -2  -4  -7    5.12    1.09
   2   4   8   16.12    1.26
  -2  -4  -8   19.78    1.98
  -2  -4  -9    3.86    1.63
   2   4  10    0.69    0.86
  -2  -4 -10   -0.29    1.35
   2   4  11    0.57    0.83
  -2  -4 -11    0.83    1.15
   2   4  12    0.06    1.03
  -2  -4 -12    0.83    1.29
   2   4  13   -0.54    0.83
   2   5 -14   -2.32    6.73
  -2  -5  14    0.11    0.26
   2   5 -13   -0.06    0.92
  -2  -5  13    2.58    5.04
   2   5 -12    0.60   10.33
   2   5 -11   -1.89    9.25
  -2  -5  11   -1.23    4.32
   2   5 -10   -1.32    7.73
  -2  -5  10   -4.67    4.64
   2   5  -9   40.74    8.50
   2   5  -5   80.93    7.87
  -2  -5   5   59.29    5.78
   2   5  -4   12.22    0.89
  -2  -5   4   12.68    0.74
   2   5  -3  108.07    4.92
  -2  -5   3   99.76    4.61
   2   5  -2   52.07    2.66
   2   5  -1   35.38    1.98
  -2  -5   1   31.92    1.55
   2   5   0   21.13    0.97
  -2  -5   0   21.81    1.12
   2   5   1   62.43    2.20
  -2  -5  -1   57.88    3.98
   2   5   2   31.86    1.26
  -2  -5  -2   31.12    1.43
   2   5   3   46.23    2.43
  -2  -5  -3   45.14    2.09
   2   5   4    3.41    0.66
  -2  -5  -4    4.09    0.97
   2   5   5    0.34    0.52
  -2  -5  -5    0.77    0.80
   2   5   6    0.52    0.54
  -2  -5  -6   -0.17    0.94
   2   5   7    2.81    0.97
  -2  -5  -7    3.46    1.03
   2   5   8    1.37    0.69
  -2  -5  -8    1.32    1.29
   2   5   9    0.80    1.03
  -2  -5  -9    0.31    1.37
   2   5  10    2.38    0.80
  -2  -5 -10    3.92    1.23
   2   5  11    3.86    0.77
  -2  -5 -11    9.36    4.41
   2   5  12    0.29    0.72
  -2  -5 -12    1.43    1.35
   2   6 -14    0.31    8.39
   2   6 -13    0.00    7.39
  -2  -6  13    2.89    5.32
   2   6 -12   20.35    9.79
  -2  -6  12    9.10    5.44
   2   6 -11   12.54    7.70
  -2  -6  11    0.83    5.07
   2   6 -10   17.55    7.99
  -2  -6  10   11.59    5.27
   2   6  -9    4.67    8.36
  -2  -6   9    2.15    4.87
   2   6  -8    6.81    7.36
  -2  -6   8    5.93    3.58
   2   6  -7   -5.15    6.21
   2   6  -6   23.62    6.13
   2   6  -5   62.03    6.84
  -2  -6   5   54.19    5.10
   2   6  -3    0.31    0.23
  -2  -6   3    0.72    0.46
   2   6  -2   16.09    0.77
  -2  -6   2   12.34    0.92
   2   6  -1   10.45    0.72
  -2  -6   1   10.79    0.86
   2   6   0   15.46    1.09
  -2  -6   0   13.43    1.20
   2   6   1    8.16    0.74
  -2  -6  -1    8.02    0.77
   2   6   2    4.01    0.57
  -2  -6  -2    4.78    1.06
   2   6   3    5.61    0.69
  -2  -6  -3    4.49    0.97
   2   6   4    7.73    0.80
  -2  -6  -4    6.98    1.26
   2   6   5    8.16    1.03
  -2  -6  -5    9.68    1.35
   2   6   6    1.26    0.74
  -2  -6  -6    1.43    1.15
   2   6   7    1.00    0.69
  -2  -6  -7    0.09    1.23
   2   6   8    0.26    1.00
  -2  -6  -8    1.43    1.60
   2   6   9   -0.17    0.60
  -2  -6  -9   -0.72    1.06
   2   6  10    0.54    0.74
  -2  -6 -10    0.83    1.66
   2   6  11   -0.29    0.54
  -2  -6 -11    0.46    1.23
   2   7 -16    1.89   10.05
   2   7 -15   29.20   18.98
   2   7 -14   -1.55   10.28
   2   7 -13   -2.43   10.59
  -2  -7  13    0.74    5.15
   2   7 -12   -2.20    8.56
  -2  -7  12    2.69    5.64
   2   7 -11   -2.40    9.70
  -2  -7  11   -1.17    4.92
   2   7 -10  -18.41   10.53
  -2  -7  10    0.06    4.64
   2   7  -9   -1.75    6.76
  -2  -7   9   -4.81    5.44
   2   7  -8   -0.11    7.21
  -2  -7   8    2.75    4.32
   2   7  -7   23.24    8.44
  -2  -7   7   22.39    4.90
   2   7  -6    3.95    6.98
  -2  -7   6    3.09    3.69
   2   7  -5    3.86    0.46
  -2  -7   5    3.32    0.52
   2   7  -4    4.78    0.52
  -2  -7   4    5.47    1.03
   2   7  -3    5.07    0.54
  -2  -7   3    4.35    0.57
   2   7  -2   73.74    3.15
   2   7  -1   35.10    1.95
   2   7   0    0.54    0.57
  -2  -7   0    1.26    1.09
   2   7   1    0.66    0.52
  -2  -7  -1    1.23    0.74
   2   7   2    1.66    0.54
  -2  -7  -2    2.66    1.60
   2   7   3    0.46    0.60
  -2  -7  -3   -0.37    0.97
   2   7   4    1.49    0.57
  -2  -7  -4    1.72    1.17
   2   7   5    0.23    0.54
  -2  -7  -5   -0.06    1.03
   2   7   6    0.40    0.60
  -2  -7  -6    0.23    1.17
   2   7   7    0.37    0.52
  -2  -7  -7    0.46    0.74
  -2  -7  -8    0.03    1.52
   2   8 -15    0.72   13.48
   2   8 -14   -1.72   12.74
   2   8 -13    1.00   10.31
   2   8 -12    3.92    8.82
  -2  -8  12   -0.37    4.55
   2   8 -11   19.61   12.17
  -2  -8  11    9.30    4.67
   2   8 -10    5.95   11.02
  -2  -8  10    3.52    4.72
   2   8  -9    2.23    6.73
  -2  -8   9   -3.18    5.21
   2   8  -8   16.63    9.62
  -2  -8   8   -1.20    6.07
   2   8  -7    0.09    7.61
  -2  -8   7   -0.49    4.49
   2   8  -6    0.14    0.31
  -2  -8   6    0.26    0.46
   2   8  -5    7.93    0.66
  -2  -8   5    6.01    0.72
   2   8  -4   10.79    1.00
  -2  -8   4    7.07    1.32
   2   8  -3    5.07    0.69
  -2  -8   3    3.92    0.83
   2   8  -2    0.63    0.54
  -2  -8   2    0.00    1.12
   2   8  -1   -0.72    0.63
  -2  -8   1    0.40    0.74
   2   8   0   14.83    1.00
  -2  -8   0   10.42    1.52
   2   8   1   19.70    1.32
  -2  -8  -1   16.55    2.23
   2   8   2    1.52    0.74
  -2  -8  -2    3.64    1.35
   2   8   3    0.60    0.57
  -2  -8  -3   -0.60    0.97
   2   8   4   -0.17    0.80
  -2  -8  -4   -0.03    1.17
   2   8   5   -0.20    0.52
  -2  -8  -5    0.92    1.20
  -2  -8  -6   -0.37    1.17
   2   9 -10   -3.92    8.36
   2   9  -9    3.46    8.27
  -2  -9   9   -0.40    4.64
   2   9  -8    6.90    7.67
   2   9  -7    7.50    8.85
   2   9  -6    0.29    0.29
   2   9  -5    1.43    0.43
  -2  -9   5    0.94    0.69
   2   9  -4   -0.03    0.43
  -2  -9   4    0.43    0.74
   2   9  -3    1.17    0.37
  -2  -9   3    1.66    0.92
   2   9  -2    4.92    0.63
  -2  -9   2    5.07    1.17
   2   9  -1    0.23    0.86
  -2  -9   1    1.83    1.06
   2   9   0    0.72    0.92
  -2  -9   0    0.17    1.20
   2   9   1    0.09    0.77
  -2  -9  -1    0.52    1.40
   2   9   2    1.60    0.63
  -2  -9  -2    0.83    1.06
   2   9   3    2.69    0.72
  -2  -9  -3    3.58    1.06
   2   9   4    0.74    0.66
  -2  -9  -4    0.63    1.80
   2   9   5    0.40    0.69
  -2  -9  -5    0.37    1.06
   2  10  -6    0.20    0.34
   2  10  -5    0.20    0.37
  -2 -10   5   -0.09    0.69
   2  10  -4    0.23    0.49
   2  10  -3   -0.11    0.34
   2  10  -2   -0.40    0.60
  -2 -10   2    0.34    1.20
   2  10  -1    0.34    0.74
  -2 -10   0    0.29    0.80
   2  10   2   -0.03    1.03
   2  10   3    0.06    0.97
   3 -12   2    2.55    3.72
   3 -11   3    0.06    0.74
  -3  11  -3    0.46    0.63
  -3  11  -4    2.03    0.57
  -3  11  -5   -0.34    0.57
   3 -11   6    2.12    3.98
  -3  11  -6   -0.03    0.49
   3 -11   7    1.52    3.92
  -3  11  -7    0.03    0.69
   3 -10  -2   -0.06    1.35
  -3  10   2   -0.52    0.83
   3 -10  -1    1.06    1.75
  -3  10   1    0.00    0.49
   3 -10   0    0.52    0.77
  -3  10   0    0.00    0.66
   3 -10   1    0.06    0.74
  -3  10  -1    0.14    0.54
   3 -10   2   -0.06    0.54
  -3  10  -2    1.17    0.66
   3 -10   3    0.06    0.63
  -3  10  -3    0.74    0.52
   3 -10   4    1.03    0.94
  -3  10  -4    1.20    1.15
   3 -10   5    2.23    1.15
  -3  10  -5    0.97    0.83
   3 -10   6    6.10    1.20
  -3  10  -6    7.87    1.35
   3 -10   7    4.69    0.77
  -3  10  -7    7.41    1.06
   3 -10   8   -0.20    0.49
  -3  10  -8    0.14    0.60
   3 -10   9   -0.20    0.72
  -3  10  -9    0.09    0.74
   3 -10  10    1.43    0.66
  -3  10 -10    1.60    0.83
   3 -10  11    0.40    0.52
  -3  10 -11    0.52    0.89
   3  -9  -6    0.29    0.92
  -3   9   6    0.52    0.57
   3  -9  -5    0.37    0.92
  -3   9   5   -0.20    0.69
   3  -9  -4   -0.49    1.66
  -3   9   4    0.17    0.57
   3  -9  -3    0.49    2.55
  -3   9   3   -0.09    1.03
   3  -9  -2    0.60    0.97
  -3   9   2    0.94    0.77
   3  -9  -1    0.57    0.89
  -3   9   1    2.55    0.72
   3  -9   0    0.20    0.66
  -3   9   0    0.43    0.72
   3  -9   1    0.26    0.63
  -3   9  -1    0.37    0.63
   3  -9   2    1.23    0.83
  -3   9  -2    0.94    0.72
   3  -9   3   -0.14    0.72
  -3   9  -3    0.20    0.66
   3  -9   4   -0.26    0.69
  -3   9  -4    0.11    0.66
   3  -9   5    0.83    0.69
  -3   9  -5    1.69    0.72
   3  -9   6    1.69    0.66
  -3   9  -6    1.98    0.66
   3  -9   7    0.77    0.57
  -3   9  -7    1.52    0.66
   3  -9   8    9.39    0.92
  -3   9  -8    9.76    1.32
   3  -9   9   22.64    1.52
  -3   9  -9   25.85    1.83
   3  -9  10    1.32    0.66
  -3   9 -10    0.11    0.97
   3  -9  11    0.03    0.69
  -3   9 -11   -0.09    0.86
   3  -9  12    0.31    0.43
  -3   9 -12   -0.20    1.17
   3  -8  -8   -1.80    3.06
  -3   8   8    0.60    0.92
   3  -8  -7    0.92    1.06
  -3   8   7    0.69    1.00
   3  -8  -6    6.13    1.69
  -3   8   6    3.18    0.86
   3  -8  -5    0.09    0.94
  -3   8   5    0.54    0.77
   3  -8  -4    0.83    0.94
  -3   8   4    1.17    0.63
   3  -8  -3    0.66    1.15
  -3   8   3    0.11    0.66
   3  -8  -2   -0.29    1.15
  -3   8   2   -0.31    0.83
   3  -8  -1    1.23    1.20
  -3   8   1    0.09    0.72
   3  -8   0   -0.97    1.06
  -3   8   0    0.23    0.49
   3  -8   1    0.97    0.77
  -3   8  -1    0.80    0.63
   3  -8   2   -0.11    0.72
  -3   8  -2   -0.34    0.52
   3  -8   3   -0.23    0.69
  -3   8  -3    0.49    0.63
   3  -8   4    0.29    0.80
  -3   8  -4    0.37    0.72
   3  -8   5    0.09    0.80
  -3   8  -5   -0.34    0.57
   3  -8   6    0.09    0.52
  -3   8  -6    0.17    0.63
   3  -8   7    0.14    0.52
  -3   8  -7   -0.09    0.69
   3  -8   8    0.17    0.49
  -3   8  -8   -0.60    0.89
   3  -8   9    0.37    0.69
  -3   8  -9   -0.31    0.97
   3  -8  10    1.46    0.77
  -3   8 -10    1.26    1.03
   3  -8  11   18.86    1.32
  -3   8 -11   18.49    2.00
   3  -8  12    5.93    0.92
  -3   8 -12    5.32    2.00
   3  -8  13    0.03    1.26
  -3   8 -13    1.55    6.38
   3  -8  14    0.00    0.86
  -3   8 -14    0.40    0.66
   3  -7 -10    0.52    1.23
   3  -7  -9    0.23    0.92
  -3   7   9    0.00    0.54
   3  -7  -8   -0.17    1.32
  -3   7   8   -0.54    1.06
   3  -7  -7    1.00    1.17
  -3   7   7    0.29    0.63
   3  -7  -6    2.66    1.20
  -3   7   6    2.20    0.69
   3  -7  -5    4.61    1.29
  -3   7   5    3.12    0.77
   3  -7  -4   35.70    4.55
  -3   7   4   20.98    1.80
   3  -7  -3   30.14    2.15
  -3   7   3   30.06    1.95
   3  -7  -2    2.00    0.80
  -3   7   2    1.00    0.52
   3  -7  -1    0.46    0.72
  -3   7   1   -0.34    0.66
   3  -7   0    3.52    1.00
  -3   7   0    4.18    0.66
   3  -7   1    2.06    0.72
  -3   7  -1    2.92    0.57
   3  -7   2    1.23    0.83
  -3   7  -2    1.15    0.69
   3  -7   3    1.80    0.69
  -3   7  -3    1.92    0.63
   3  -7   4    2.52    0.63
  -3   7  -4    1.92    0.72
   3  -7   5    5.67    0.89
  -3   7  -5    5.67    0.83
   3  -7   6    1.98    0.54
  -3   7  -6    1.52    0.69
   3  -7   7    4.87    0.86
  -3   7  -7    4.58    1.00
   3  -7   8    0.26    0.72
  -3   7  -8    0.14    0.97
   3  -7   9    2.83    0.74
  -3   7  -9    2.52    1.15
   3  -7  10    1.29    0.74
  -3   7 -10    1.77    1.60
   3  -7  11    0.20    0.72
  -3   7 -11    0.66    1.06
   3  -7  12    0.72    0.86
  -3   7 -12    0.17    1.00
   3  -7  13    1.43    0.63
  -3   7 -13   -2.46    6.24
   3  -7  14    1.95    0.77
  -3   7 -14    2.00    4.72
   3  -6 -10    3.09    2.06
  -3   6  10   -0.09    0.94
   3  -6  -9    0.03    1.29
  -3   6   9    0.37    0.80
   3  -6  -8    1.37    1.20
  -3   6   8    0.17    0.60
   3  -6  -7    0.72    0.94
  -3   6   7    2.15    1.09
   3  -6  -6    0.66    0.94
  -3   6   6    0.72    0.69
   3  -6  -5    1.32    1.03
  -3   6   5    0.46    0.57
   3  -6  -4    6.27    0.92
  -3   6   4    5.27    0.63
   3  -6  -3    9.50    1.06
  -3   6   3    8.16    0.69
   3  -6  -2   29.17    1.63
  -3   6   2   23.65    1.20
   3  -6  -1  129.74    5.75
  -3   6   1  137.89    6.10
   3  -6   0   19.18    1.26
  -3   6   0   18.46    0.97
   3  -6   1    3.32    0.74
  -3   6  -1    3.69    0.66
   3  -6   2    7.21    0.74
  -3   6  -2    7.39    0.69
   3  -6   3   19.29    1.06
  -3   6  -3   17.66    0.94
   3  -6   4    0.92    0.69
  -3   6  -4    1.23    0.63
   3  -6   5    1.03    0.49
  -3   6  -5    0.86    0.46
   3  -6   6   12.60    1.17
  -3   6  -6   13.54    1.32
   3  -6   7   20.55    1.12
  -3   6  -7   20.75    1.17
   3  -6   8    6.13    0.83
  -3   6  -8    6.15    1.17
   3  -6   9    9.85    1.29
  -3   6  -9   11.11    2.06
   3  -6  10    2.69    0.83
  -3   6 -10    3.21    1.20
   3  -6  11    1.09    0.83
  -3   6 -11    0.26    1.23
   3  -6  12    3.01    0.66
  -3   6 -12    1.26    0.83
   3  -6  13   -0.09    0.83
  -3   6 -13   -0.14    1.00
   3  -6  14   -0.23    0.66
  -3   6 -14    0.23    0.89
   3  -5 -11    0.34    1.00
  -3   5  11    0.26    0.72
   3  -5 -10    0.26    0.69
  -3   5  10    0.31    0.63
   3  -5  -9    1.20    1.00
  -3   5   9    0.49    0.60
   3  -5  -8    7.30    1.37
  -3   5   8    6.61    0.77
   3  -5  -7   -0.14    0.89
  -3   5   7    0.66    0.54
   3  -5  -6    0.34    0.92
  -3   5   6    0.17    0.52
   3  -5  -5   -0.17    0.89
  -3   5   5    0.69    0.60
   3  -5  -4    1.17    0.69
  -3   5   4    0.54    0.54
   3  -5  -3    1.35    0.83
  -3   5   3    1.95    0.69
   3  -5  -2    3.03    0.66
  -3   5   2    2.12    0.43
   3  -5  -1   10.11    0.80
  -3   5   1   10.71    0.72
   3  -5   0   13.25    0.83
  -3   5   0   11.62    0.72
   3  -5   1   79.67    2.78
  -3   5  -1   79.58    2.83
   3  -5   2  176.65    4.81
  -3   5  -2  177.03    5.61
   3  -5   3    7.96    0.80
  -3   5  -3    8.53    0.69
   3  -5   4    3.41    0.66
  -3   5  -4    3.12    0.60
   3  -5   5   12.11    1.20
  -3   5  -5   12.54    1.09
   3  -5   6    1.23    0.66
  -3   5  -6    0.83    0.74
   3  -5   7    4.92    0.72
  -3   5  -7    5.07    1.03
   3  -5   8    9.45    0.80
  -3   5  -8    8.96    1.09
   3  -5   9   22.84    1.43
  -3   5  -9   24.16    1.95
   3  -5  10    8.50    0.89
  -3   5 -10    7.47    2.15
   3  -5  11    3.06    0.77
  -3   5 -11    2.98    2.92
   3  -5  12    2.66    0.80
  -3   5 -12    4.41    1.20
   3  -5  13    0.31    0.80
  -3   5 -13    0.49    1.15
   3  -5  14    0.46    0.77
  -3   5 -14    0.09    0.86
   3  -4 -11    0.14    0.80
  -3   4  11    0.83    0.80
   3  -4 -10    0.11    2.12
  -3   4  10   -0.06    0.77
   3  -4  -9    0.37    1.03
  -3   4   9    0.11    0.86
   3  -4  -8    4.52    1.00
  -3   4   8    3.89    0.66
   3  -4  -7    8.85    1.26
  -3   4   7    8.96    0.72
   3  -4  -6   53.47    2.38
  -3   4   6   50.73    1.98
   3  -4  -5   39.10    2.18
  -3   4   5   38.19    1.69
   3  -4  -4   -0.03    0.66
  -3   4   4   -0.52    0.89
   3  -4  -3   24.91    1.32
  -3   4   3   23.42    1.09
   3  -4  -2    7.70    0.74
  -3   4   2    8.19    0.60
   3  -4  -1   22.50    1.17
  -3   4   1   21.53    1.03
   3  -4   0   16.00    1.03
  -3   4   0   16.12    1.00
   3  -4   1    4.52    0.63
  -3   4  -1    4.04    0.57
   3  -4   2    0.03    0.34
  -3   4  -2    0.40    0.34
   3  -4   3    0.23    0.43
  -3   4  -3    0.43    0.40
   3  -4   4  152.89    4.67
  -3   4  -4  151.38    4.69
   3  -4   5    0.57    0.60
  -3   4  -5    0.11    0.69
   3  -4   6    2.52    0.57
  -3   4  -6    2.15    0.69
   3  -4   7    0.57    0.66
  -3   4  -7    1.15    0.89
   3  -4   8   -0.29    0.72
  -3   4  -8   -1.03    1.00
   3  -4   9    8.59    0.97
  -3   4  -9    8.13    1.35
   3  -4  10    0.34    0.83
  -3   4 -10   -0.49    1.23
   3  -4  11    6.90    0.86
  -3   4 -11    8.13    2.46
   3  -4  12    2.49    1.06
  -3   4 -12    2.18    4.41
   3  -4  13    0.60    0.94
  -3   4 -13    0.72    1.35
   3  -4  14    0.40    0.69
   3  -3 -13    0.60    1.03
  -3   3  13    0.34    0.49
   3  -3 -12    0.14    0.97
  -3   3  12    0.09    0.52
   3  -3 -11    3.03    1.57
  -3   3  11    1.77    0.60
   3  -3 -10    1.63    1.12
  -3   3  10    1.46    0.63
   3  -3  -9    4.64    1.00
  -3   3   9    4.95    0.66
   3  -3  -8    3.81    1.09
  -3   3   8    4.38    0.72
   3  -3  -7    1.95    0.69
  -3   3   7    1.17    0.43
   3  -3  -6    4.58    0.80
  -3   3   6    3.41    0.60
   3  -3  -5    6.98    0.83
  -3   3   5    7.70    0.69
   3  -3  -4  210.29    9.76
  -3   3   4  210.35    7.27
   3  -3  -3  329.69   10.31
  -3   3   3  367.97   11.25
   3  -3  -2   34.44    2.18
  -3   3   2   34.81    1.98
   3  -3  -1   49.32    2.15
  -3   3   1   56.65    2.49
   3  -3   0  213.27    7.04
  -3   3   0  219.02    7.36
   3  -3   1   30.95    1.37
  -3   3  -1   32.35    1.55
   3  -3   2  215.64    6.64
  -3   3  -2  239.20    6.96
   3  -3   3    0.20    0.49
  -3   3  -3    0.20    0.52
   3  -3   4   23.82    1.35
  -3   3  -4   23.99    1.26
   3  -3   5   42.71    1.83
  -3   3  -5   46.60    2.89
   3  -3   6    2.92    0.54
  -3   3  -6    3.38    0.83
   3  -3   7    1.89    0.72
  -3   3  -7    1.29    1.83
   3  -3   8   16.35    1.12
  -3   3  -8   17.15    1.43
   3  -3   9   -0.11    0.72
  -3   3  -9    0.00    1.12
   3  -3  10    1.72    0.89
  -3   3 -10   -0.77    2.92
   3  -3  11    2.63    0.86
  -3   3 -11    3.98    1.35
   3  -3  12    2.63    0.89
  -3   3 -12    2.98    1.40
   3  -3  13   -0.09    0.54
  -3   3 -13   -0.60    1.35
   3  -3  14    0.43    1.17
  -3   3 -14    0.66    3.89
   3  -2 -13    0.14    1.32
  -3   2  13    0.09    0.69
   3  -2 -12    0.03    1.12
  -3   2  12   -0.11    0.63
   3  -2 -11    1.03    1.23
  -3   2  11    1.37    0.74
   3  -2 -10    2.72    1.15
  -3   2  10    1.23    0.74
   3  -2  -9    0.52    0.74
  -3   2   9    1.06    0.46
   3  -2  -8   10.16    0.92
  -3   2   8    9.90    0.77
   3  -2  -7    3.23    0.83
  -3   2   7    2.58    0.60
   3  -2  -6   44.92    2.29
  -3   2   6   48.21    2.00
   3  -2  -5    2.72    0.66
  -3   2   5    1.98    0.49
   3  -2  -4    0.31    0.43
  -3   2   4    0.94    0.31
   3  -2  -3   10.05    0.86
  -3   2   3    9.22    0.80
   3  -2  -2  351.19   12.17
  -3   2   2  390.09   11.74
   3  -2  -1 1241.13   46.03
  -3   2   1 1269.96   35.27
   3  -2   0  241.09   10.53
  -3   2   0  260.85   13.37
   3  -2   1   57.97    2.49
  -3   2  -1   62.32    2.38
   3  -2   2  508.12   13.71
  -3   2  -2  557.67   14.17
   3  -2   3   68.90    2.61
  -3   2  -3   72.25    2.72
   3  -2   4  300.21   14.08
  -3   2  -4  313.23    8.56
   3  -2   5   25.48    1.37
  -3   2  -5   24.53    1.40
   3  -2   6   27.11    1.55
  -3   2  -6   24.33    1.60
   3  -2   7   47.72    2.06
  -3   2  -7   48.32    2.29
   3  -2   8   19.27    1.26
  -3   2  -8   19.47    1.86
   3  -2   9    0.40    0.92
  -3   2  -9   -0.26    3.01
   3  -2  10    9.28    0.94
  -3   2 -10   11.88    1.46
   3  -2  11    1.63    1.06
  -3   2 -11    1.80    1.49
   3  -2  12    0.74    0.83
  -3   2 -12    2.32    1.63
   3  -2  13    1.63    1.09
  -3   2 -13   -2.03    3.64
  -3   2 -14    0.66    1.37
  -3   2 -15    0.14    1.09
   3  -1 -14    0.23    1.09
  -3   1  14   -0.26    0.52
   3  -1 -13    0.54    1.20
  -3   1  13    0.00    0.69
   3  -1 -12   -0.72    1.23
  -3   1  12    0.11    0.60
   3  -1 -11    0.69    0.83
  -3   1  11    0.54    0.52
   3  -1 -10    1.95    1.06
  -3   1  10    0.63    0.63
   3  -1  -9    1.12    0.77
  -3   1   9    0.77    0.54
   3  -1  -8    0.94    0.57
  -3   1   8    0.92    0.40
   3  -1  -7    2.23    0.54
  -3   1   7    2.35    0.43
   3  -1  -6    8.93    0.66
  -3   1   6   10.62    0.66
   3  -1  -5   -0.29    0.54
  -3   1   5   -0.29    0.43
   3  -1  -4   61.38    2.58
  -3   1   4   70.97    3.21
   3  -1  -3    4.44    0.57
  -3   1   3    5.30    0.54
   3  -1  -2    5.58    0.60
  -3   1   2    5.73    0.60
   3  -1  -1   28.43    1.60
  -3   1   1   33.29    1.92
   3  -1   0    2.95    0.52
  -3   1   0    4.12    0.57
   3  -1   1 1733.25   65.30
  -3   1  -1 1830.90   56.97
   3  -1   2  382.88   11.97
  -3   1  -2  396.25   17.81
   3  -1   3   54.19    2.40
  -3   1  -3   53.47    2.29
   3  -1   4  192.77    6.30
  -3   1  -4  197.27    7.76
   3  -1   5  144.96    4.64
  -3   1  -5  128.99    5.87
   3  -1   6   80.21    2.81
  -3   1  -6   75.20    3.78
   3  -1   7   58.37    2.63
  -3   1  -7   56.82    2.63
   3  -1   8    6.15    0.83
  -3   1  -8    6.07    1.26
   3  -1   9   26.31    1.43
  -3   1  -9   31.92    5.90
   3  -1  10   10.28    1.17
  -3   1 -10   15.66    1.80
   3  -1  11    3.09    0.86
  -3   1 -11    3.58    1.20
   3  -1  12    1.89    1.03
   3  -1  13    0.63    0.89
  -3   1 -13   -0.92    1.46
   3  -1  14    0.57    1.17
  -3   1 -14    0.69    1.23
  -3   0  15    0.03    0.40
   3   0 -14   -0.29    1.12
  -3   0  14    0.34    0.74
   3   0 -13    0.83    1.12
  -3   0  13    1.40    0.74
   3   0 -12    0.63    0.97
  -3   0  12    0.89    0.63
   3   0 -11    2.23    1.09
  -3   0  11    1.89    0.72
   3   0 -10    4.47    0.92
  -3   0  10    3.12    0.60
   3   0  -9    1.26    0.66
  -3   0   9    0.74    0.40
  -3   0   8   67.96    2.89
   3   0  -7    0.97    0.43
  -3   0   7    0.26    0.34
   3   0  -6   17.18    1.12
  -3   0   6   20.01    1.06
   3   0  -5   16.69    0.94
  -3   0   5   19.75    0.97
   3   0  -4   37.27    1.60
  -3   0   4   43.46    1.92
   3   0  -3    4.52    0.46
  -3   0   3    5.01    0.52
   3   0  -2    1.98    0.43
  -3   0   2    2.75    0.37
   3   0  -1    1.75    0.34
  -3   0   1    2.75    0.40
   3   0   0   12.57    0.97
  -3   0   0   12.11    0.92
   3   0   1    2.29    0.54
  -3   0  -1    3.38    0.80
   3   0   2  130.45    4.75
  -3   0  -2  116.82    4.55
   3   0   3  317.53   14.00
  -3   0  -3  293.08   12.91
   3   0   4  189.22    6.50
  -3   0  -4  178.60    6.61
   3   0   5   44.20    1.98
  -3   0  -5   38.02    1.95
   3   0   6   11.34    0.94
  -3   0  -6   13.34    1.06
   3   0   7   58.00    2.78
  -3   0  -7   49.58    2.89
   3   0   8   11.77    1.00
  -3   0  -8   13.74    1.26
   3   0   9   24.36    1.37
  -3   0  -9   27.74    3.38
   3   0  10    1.43    0.92
  -3   0 -10    1.66    1.35
   3   0  11    5.38    1.00
  -3   0 -11    5.24    1.46
   3   0  12    0.57    0.92
  -3   0 -12    2.00    1.57
   3   0  13   -0.46    0.97
  -3   0 -13    0.74    1.40
   3   0  14    0.52    0.86
  -3  -1  15    0.17    0.43
   3   1 -14    0.54    1.35
  -3  -1  14    0.40    0.72
   3   1 -13    1.12    1.15
  -3  -1  13    1.46    0.74
   3   1 -12    1.60    1.09
  -3  -1  12    1.23    0.57
   3   1 -11    6.01    0.92
  -3  -1  11    6.36    0.60
   3   1 -10    6.67    0.74
  -3  -1  10    6.76    0.54
   3   1  -9   15.14    1.72
  -3  -1   9   15.66    0.86
   3   1  -8   24.19    1.60
  -3  -1   8   27.05    1.23
   3   1  -7    0.23    0.43
  -3  -1   7    0.37    0.40
  -3  -1   6  257.70    9.88
   3   1  -5  146.34    6.27
  -3  -1   5  166.35    5.75
   3   1  -4  115.37    5.90
  -3  -1   4  128.68    4.35
   3   1  -3  109.24    4.09
  -3  -1   3  122.72    4.41
   3   1  -2  127.82    4.67
  -3  -1   2  143.13    5.10
   3   1  -1  138.67    4.98
  -3  -1   1  139.96    5.01
   3   1   0   40.08    2.46
  -3  -1   0   35.24    2.69
   3   1   1   12.91    0.94
  -3  -1  -1   10.71    1.03
   3   1   2   11.54    0.77
  -3  -1  -2   10.31    1.15
   3   1   3   12.31    0.92
  -3  -1  -3   10.22    1.63
   3   1   4   26.39    1.43
  -3  -1  -4   21.84    2.29
   3   1   5    1.55    1.06
  -3  -1  -5    2.32    2.00
   3   1   6   40.48    2.75
  -3  -1  -6   35.33    2.26
   3   1   7    1.20    0.60
  -3  -1  -7    1.09    1.40
   3   1   8    0.54    0.60
  -3  -1  -8    0.49    0.83
   3   1   9    1.26    0.80
  -3  -1  -9    0.86    1.03
   3   1  10    0.29    0.77
  -3  -1 -10    2.32    1.15
   3   1  11    2.03    0.77
  -3  -1 -11    1.95    1.15
   3   1  12    0.14    0.63
  -3  -1 -12    1.83    1.00
   3   1  13    0.49    0.74
  -3  -2  16   -0.09    0.20
  -3  -2  15    0.20    0.31
   3   2 -14    0.29    0.83
  -3  -2  14    1.23    0.60
   3   2 -13    0.23    0.94
  -3  -2  13    0.52    0.60
   3   2 -12    2.86    0.94
  -3  -2  12    3.44    0.60
   3   2 -11    8.36    1.00
  -3  -2  11    8.67    0.57
   3   2 -10    0.94    0.69
  -3  -2  10    1.26    0.52
   3   2  -9   38.47    5.98
  -3  -2   9   26.94    1.63
   3   2  -8    7.84    0.60
  -3  -2   8    8.19    0.54
   3   2  -7   70.79    2.52
  -3  -2   7   70.71    2.35
  -3  -2   6   44.20    1.72
   3   2  -5    4.69    0.37
  -3  -2   5    5.15    0.37
   3   2  -4   77.81    2.86
  -3  -2   4   88.48    2.95
   3   2  -3  884.45   23.70
  -3  -2   3  902.74   25.71
   3   2  -2  229.50    7.53
  -3  -2   2  241.12    8.79
   3   2  -1  279.85    9.30
  -3  -2   1  279.48    9.59
   3   2   0   87.31    3.46
  -3  -2   0   81.76    5.27
   3   2   1  116.62    4.64
  -3  -2  -1  112.02    3.55
   3   2   2   88.28    5.98
  -3  -2  -2   68.85    2.95
   3   2   3   52.36    2.09
  -3  -2  -3   48.24    2.78
   3   2   4    4.78    0.74
  -3  -2  -4    3.98    0.66
   3   2   5   16.32    1.15
  -3  -2  -5   16.37    1.23
   3   2   6    3.89    1.37
  -3  -2  -6    3.18    0.94
   3   2   7   22.84    1.57
  -3  -2  -7   17.86    2.69
   3   2   8    1.17    0.66
  -3  -2  -8    0.43    1.09
   3   2   9    0.60    0.72
  -3  -2  -9    0.40    0.92
   3   2  10    0.17    0.72
  -3  -2 -10    0.97    2.06
   3   2  11    0.14    0.97
  -3  -2 -11    0.63    1.46
   3   2  12    0.06    0.86
  -3  -2 -12    0.40    1.43
   3   2  13   -0.69    0.74
   3   2  14    0.06    0.57
  -3  -2 -14    0.14    0.80
  -3  -3  15   -0.03    0.31
   3   3 -14   -0.09    0.43
  -3  -3  14    0.00    0.46
   3   3 -13    0.11    1.49
  -3  -3  13   -0.11    0.31
   3   3 -12    0.57    1.17
  -3  -3  12    1.32    0.40
   3   3 -11   -0.06    0.52
  -3  -3  11    0.03    0.34
   3   3 -10    1.37    0.52
  -3  -3  10    1.80    0.37
   3   3  -9   42.65    8.90
  -3  -3   9   19.70    1.09
   3   3  -8    0.63    0.66
  -3  -3   8    1.09    0.26
   3   3  -7   18.86    1.37
  -3  -3   7   18.95    1.03
   3   3  -6    7.41    0.40
  -3  -3   6   10.48    0.69
   3   3  -5   56.34    2.09
  -3  -3   5   52.87    2.38
   3   3  -4   81.10    2.95
  -3  -3   4   88.69    4.06
   3   3  -3    0.40    0.23
  -3  -3   3    0.83    0.86
   3   3  -2    1.52    0.31
  -3  -3   2    0.86    0.43
   3   3  -1  354.54   15.52
  -3  -3   0  218.13   10.91
   3   3   1  124.75    4.09
  -3  -3  -1  106.49    4.84
   3   3   2   58.54    2.23
  -3  -3  -2   56.77    2.46
   3   3   3   16.98    1.06
  -3  -3  -3   17.55    1.15
   3   3   4   39.45    2.49
  -3  -3  -4   37.59    1.72
   3   3   5   13.11    1.43
  -3  -3  -5   17.23    1.43
   3   3   6    7.01    0.97
  -3  -3  -6    8.39    1.29
   3   3   7    2.38    0.77
  -3  -3  -7    2.86    0.97
   3   3   8    3.49    1.83
  -3  -3  -8    2.03    1.15
   3   3   9    2.92    0.89
  -3  -3  -9    2.40    1.29
   3   3  10    0.63    0.97
  -3  -3 -10    0.57    1.52
   3   3  11    0.03    0.69
  -3  -3 -11    0.92    1.06
   3   3  12    0.20    0.60
  -3  -3 -12   -0.09    0.74
   3   3  13   -0.17    0.72
  -3  -3 -13    0.11    1.12
  -3  -4  14   -0.09    0.52
   3   4 -13   -0.40    0.83
  -3  -4  13   -0.06    0.26
   3   4 -12    0.20    0.83
  -3  -4  12    0.06    0.29
   3   4 -11   -0.09    0.69
  -3  -4  11   -0.14    0.20
   3   4 -10    4.64    8.87
   3   4  -9    0.31    8.39
  -3  -4   9    3.86    3.81
   3   4  -8    2.81    5.44
  -3  -4   8   -0.94    3.78
   3   4  -7    4.24    7.59
  -3  -4   7    5.21    3.32
   3   4  -6   -1.20    6.24
  -3  -4   6    3.55    3.32
   3   4  -5   10.68    5.32
  -3  -4   5    7.36    3.64
   3   4  -4    8.44    0.46
  -3  -4   4    6.76    0.92
   3   4  -3    0.17    0.23
  -3  -4   3    0.46    0.86
   3   4  -2   37.07    1.57
  -3  -4   2   37.73    2.43
   3   4  -1    0.69    0.52
  -3  -4   1    1.80    1.12
   3   4   0   27.22    1.17
  -3  -4   0   24.50    1.49
   3   4   1   25.45    1.75
  -3  -4  -1   24.39    1.35
   3   4   2  105.86    5.95
  -3  -4  -2  126.90   11.34
   3   4   3   23.62    1.63
  -3  -4  -3   22.39    1.60
   3   4   4   17.15    1.49
  -3  -4  -4   17.98    1.55
   3   4   5    0.11    0.66
  -3  -4  -5    1.69    0.94
   3   4   6    5.64    0.97
  -3  -4  -6    6.27    1.29
   3   4   7    1.32    0.69
  -3  -4  -7    1.40    1.12
   3   4   8    1.12    0.80
  -3  -4  -8    0.74    1.35
   3   4   9    0.29    0.69
  -3  -4  -9   -1.03    1.60
  -3  -4 -10   -0.34    2.23
  -3  -4 -11   -0.26    2.55
  -3  -5  14   -2.83    4.29
  -3  -5  13   17.40    4.72
   3   5 -12    3.89    8.24
   3   5 -11   -5.55    8.65
   3   5 -10   -2.58    8.82
  -3  -5  10   -0.69    4.75
   3   5  -9   17.49    9.33
  -3  -5   9    3.41    4.12
   3   5  -8    5.87    8.30
  -3  -5   8    2.32    4.01
  -3  -5   7    2.98    3.55
   3   5  -6   11.45    6.18
  -3  -5   6    4.47    3.09
  -3  -5   5    2.32    3.12
   3   5  -4    0.74    0.20
  -3  -5   4    0.00    0.37
   3   5  -3   21.18    1.00
  -3  -5   3   24.82    1.43
   3   5  -2    0.63    0.37
  -3  -5   2   -0.66    1.00
   3   5  -1    9.19    0.66
  -3  -5   1    7.70    0.77
   3   5   0   -0.03    0.60
  -3  -5   0   -0.31    0.72
   3   5   1    0.06    0.54
  -3  -5  -1    0.11    0.72
   3   5   2   20.38    1.17
  -3  -5  -2   23.02    1.55
   3   5   3    2.75    0.77
  -3  -5  -3    2.81    1.23
   3   5   4   11.14    1.00
  -3  -5  -4   12.11    1.26
   3   5   5    5.84    0.80
  -3  -5  -5    6.36    1.12
   3   5   6    1.75    0.77
  -3  -5  -6    2.58    1.20
   3   5   7   -0.23    0.77
  -3  -5  -7    2.09    1.26
   3   5   8    0.86    0.97
  -3  -5  -8    0.60    1.83
  -3  -5  -9    0.11    0.89
  -3  -5 -10   -0.34    1.06
  -3  -5 -11    0.14    1.95
  -3  -6  14    1.40    4.67
   3   6 -13   -3.58   13.03
  -3  -6  13   -0.72    5.90
   3   6 -12   -3.92   10.11
  -3  -6  12   -0.40    4.52
   3   6 -11    8.56   10.53
  -3  -6  11    9.45    5.84
   3   6 -10   25.13   10.91
   3   6  -9    5.52   10.16
  -3  -6   9   -0.86    4.64
   3   6  -8    3.12    9.22
  -3  -6   8    6.67    3.95
   3   6  -7    1.12    8.24
   3   6  -5    3.49    0.23
  -3  -6   5    3.61    0.43
   3   6  -4    7.96    0.49
  -3  -6   4    7.36    0.63
   3   6  -3    6.67    0.60
  -3  -6   3    5.15    0.63
   3   6  -2    1.52    0.49
  -3  -6   2    1.63    0.63
   3   6  -1   14.31    1.09
  -3  -6   1   12.11    1.17
   3   6   0    8.27    0.80
  -3  -6   0    8.30    1.00
   3   6   1    2.55    0.54
  -3  -6  -1    2.72    1.09
   3   6   2    6.10    0.86
  -3  -6  -2    5.61    0.92
   3   6   3    0.80    0.66
  -3  -6  -3    0.29    0.86
   3   6   4    7.44    0.97
  -3  -6  -4    7.53    1.35
   3   6   5    3.75    0.83
  -3  -6  -5    0.89    0.86
   3   6   6    0.46    0.83
  -3  -6  -6    0.77    1.43
   3   6   7    0.49    0.77
  -3  -6  -7    0.26    0.94
   3   6   8    0.11    0.60
  -3  -6  -8    0.23    0.80
   3   6   9   -0.03    0.94
  -3  -6  -9   -0.43    0.97
   3   6  10    0.06    0.72
  -3  -6 -10    1.49    3.18
  -3  -7  13   -2.38    4.87
  -3  -7  12   -0.43    6.04
   3   7 -11   -4.84    9.02
  -3  -7  11    0.80    4.44
   3   7 -10   -0.49   11.99
  -3  -7  10    1.75    4.92
   3   7  -9    3.52   11.28
   3   7  -8   10.25   11.28
   3   7  -7   -0.54    9.19
  -3  -7   7   -1.49    4.64
   3   7  -6    8.07    8.93
  -3  -7   6    7.56    4.09
   3   7  -5    2.52    0.31
  -3  -7   5    2.81    0.72
   3   7  -4    7.41    0.66
  -3  -7   4    4.84    0.69
   3   7  -3    8.70    0.74
  -3  -7   3    5.67    0.80
   3   7  -2    0.06    0.49
  -3  -7   2    0.03    0.72
   3   7  -1    3.12    0.52
  -3  -7   1    2.63    0.72
   3   7   0    1.72    0.60
  -3  -7   0    1.72    0.92
   3   7   1    1.72    0.92
  -3  -7  -1    2.92    0.86
   3   7   2    6.01    0.89
  -3  -7  -2    4.47    1.09
   3   7   3    1.37    0.74
  -3  -7  -3    2.09    1.15
   3   7   4    1.23    0.74
  -3  -7  -4    2.69    1.26
   3   7   5    0.74    0.69
  -3  -7  -5    0.80    1.52
   3   7   6    1.12    0.69
  -3  -7  -6   -0.14    1.40
   3   8 -11   -4.52   12.51
   3   8  -8    0.14    8.56
  -3  -8   8   -0.17    5.10
   3   8  -7    2.40    8.13
  -3  -8   7   -0.14    4.61
   3   8  -6    2.46    8.42
   3   8  -5    1.17    0.31
  -3  -8   5    0.52    0.63
   3   8  -4    0.29    0.46
  -3  -8   4   -0.14    0.72
   3   8  -3    0.29    0.54
  -3  -8   3    0.54    0.69
   3   8  -2    2.20    0.72
  -3  -8   2    1.55    0.92
   3   8  -1    0.23    0.60
  -3  -8   1    0.80    0.97
   3   8   0    4.67    0.92
  -3  -8   0    4.12    1.15
   3   8   1   -0.31    0.60
  -3  -8  -1    0.29    0.74
   3   8   2    0.54    0.83
  -3  -8  -2    0.63    1.17
   3   8   3    0.17    0.60
  -3  -8  -3    0.00    1.15
   3   8   4   -0.06    0.40
  -3  -8  -4    0.49    0.86
  -3  -8  -5   -0.40    0.97
  -3  -8  -6    0.43    1.09
  -3  -9  13   -1.35    4.55
   3   9  -7    1.15    8.85
   3   9  -5   -0.03    0.26
  -3  -9   5    0.37    0.66
   3   9  -4    0.00    0.52
  -3  -9   4    0.11    0.77
   3   9  -3   -0.06    0.63
  -3  -9   3    0.17    1.23
   3   9  -2   -0.06    0.34
  -3  -9   2   -0.20    0.63
   3   9  -1   -0.20    0.60
  -3  -9   1    0.69    1.20
   3   9   0    0.43    0.66
  -3  -9   0    0.37    1.52
   3   9   1   -0.11    0.77
  -3  -9  -1   -0.20    1.20
   3   9   2    0.43    0.74
  -3  -9  -2    3.61    1.32
  -3  -9  -3    2.58    1.60
  -3  -9  -4    0.14    0.89
  -3  -9  -5   -0.40    0.72
  -3 -10  11   11.74    7.04
  -3 -10  10    0.80    3.46
   3  10  -5    0.11    0.29
   3  10  -4    0.86    0.57
   3  10  -3    0.60    0.54
  -3 -10   3    0.06    1.00
   3  10  -2   -0.11    0.52
  -3 -10   2   -0.57    1.12
  -3 -10   1   -0.63    1.32
  -4  11  -2    0.17    0.60
  -4  11  -3   -0.11    0.63
  -4  11  -5    0.11    1.00
  -4  11  -8    1.55    1.06
  -4  11  -9   -0.23    0.72
   4 -10  -2    2.63    2.86
  -4  10   2   -0.11    0.72
   4 -10  -1    0.57    2.66
  -4  10   1    0.00    0.74
   4 -10   0    0.06    0.52
  -4  10   0    0.43    0.74
   4 -10   1    0.00    0.57
  -4  10  -1    0.34    0.94
  -4  10  -2    0.83    0.77
   4 -10   3   -0.77    1.20
  -4  10  -3    0.49    0.74
   4 -10   4    0.14    1.00
  -4  10  -4   -0.06    0.66
   4 -10   5    0.03    0.97
  -4  10  -5    0.54    0.83
   4 -10   6    0.17    0.66
  -4  10  -6    0.69    0.89
  -4  10  -7    0.31    0.43
   4 -10   8   -0.20    0.63
  -4  10  -8    0.00    0.94
   4  -9  -4    1.40    3.29
  -4   9   4   -0.20    1.12
   4  -9  -3    0.66    1.20
  -4   9   3    0.74    0.86
   4  -9  -2    1.98    1.32
  -4   9   2    1.83    0.54
   4  -9  -1    0.63    0.77
  -4   9   1    1.12    0.72
   4  -9   0    1.83    1.06
  -4   9   0    2.35    1.37
   4  -9   1    2.61    1.20
  -4   9  -1    3.72    0.92
   4  -9   2    0.23    1.06
  -4   9  -2   -0.23    0.57
   4  -9   3   -0.14    0.72
  -4   9  -3    0.60    0.77
   4  -9   4    3.61    0.83
  -4   9  -4    4.01    0.72
   4  -9   5    3.44    0.80
  -4   9  -5    4.78    0.89
   4  -9   6    0.52    0.83
  -4   9  -6    2.49    0.83
   4  -9   7    1.03    0.94
  -4   9  -7    1.37    0.97
   4  -9   8    2.86    1.06
  -4   9  -8    3.52    0.97
   4  -9   9    2.55    0.89
  -4   9  -9    0.29    1.26
   4  -9  10    0.20    0.66
  -4   9 -10   -0.03    1.15
   4  -9  11   -0.52    1.26
  -4   9 -11    0.37    1.69
   4  -9  12   -0.03    0.49
   4  -9  13   -0.03    0.43
  -4   8   8    1.57    1.12
   4  -8  -7   -0.31    2.63
  -4   8   7    0.20    0.89
   4  -8  -6   -0.20    0.57
  -4   8   6    0.03    0.49
   4  -8  -5    2.98    1.20
  -4   8   5    2.78    0.80
   4  -8  -4    3.32    1.12
  -4   8   4    4.21    0.74
   4  -8  -3    1.23    0.94
  -4   8   3    1.92    0.66
   4  -8  -2   -0.14    1.00
  -4   8   2    0.86    0.69
   4  -8  -1    1.06    0.92
  -4   8   1    1.52    0.86
   4  -8   0   13.57    1.46
  -4   8   0   11.11    1.17
   4  -8   1   11.97    1.57
  -4   8  -1   13.91    1.12
   4  -8   2    6.27    0.94
  -4   8  -2    7.53    0.86
   4  -8   3   10.31    1.15
  -4   8  -3    9.02    1.06
   4  -8   4    3.44    0.86
  -4   8  -4    4.06    0.86
   4  -8   5    0.69    0.89
  -4   8  -5   -0.43    0.86
   4  -8   6    5.18    1.12
  -4   8  -6    6.24    1.17
   4  -8   7   10.19    1.37
  -4   8  -7    9.56    1.46
   4  -8   8    5.95    1.26
  -4   8  -8    6.90    1.35
   4  -8   9    1.80    0.97
  -4   8  -9    1.83    1.26
   4  -8  10    9.28    1.15
  -4   8 -10    9.88    1.66
   4  -8  11    4.29    0.77
  -4   8 -11    3.55    1.40
   4  -8  12    0.23    1.98
  -4   8 -12    1.29    6.96
   4  -8  13    0.29    1.29
  -4   8 -13   -2.46    6.27
   4  -7  -9   -0.17    0.97
  -4   7   9    0.06    0.72
   4  -7  -8    0.20    1.17
  -4   7   8    0.77    1.35
   4  -7  -7    0.31    0.89
  -4   7   7    0.37    0.72
   4  -7  -6    1.20    1.03
  -4   7   6    0.11    0.72
   4  -7  -5    6.73    1.26
  -4   7   5    7.01    0.83
   4  -7  -4    6.50    1.17
  -4   7   4    5.32    0.83
   4  -7  -3    3.01    1.29
  -4   7   3    2.03    0.77
   4  -7  -2   27.74    2.00
  -4   7   2   24.10    1.29
   4  -7  -1    3.26    0.92
  -4   7   1    2.72    0.63
   4  -7   0    3.55    1.15
  -4   7   0    2.89    0.69
   4  -7   1    1.26    0.77
  -4   7  -1    0.94    0.63
   4  -7   2   10.02    1.12
  -4   7  -2    9.42    0.83
   4  -7   3   40.79    2.15
  -4   7  -3   34.24    1.89
   4  -7   4   16.83    1.17
  -4   7  -4   19.47    1.20
   4  -7   5    8.73    0.89
  -4   7  -5    9.39    0.86
   4  -7   6   13.23    1.29
  -4   7  -6   12.51    1.12
   4  -7   7    0.80    0.89
  -4   7  -7   -0.06    1.03
   4  -7   8    1.80    0.97
  -4   7  -8    1.09    1.15
   4  -7   9    7.64    1.35
  -4   7  -9    6.61    1.72
   4  -7  10    6.84    1.23
  -4   7 -10    7.13    1.55
   4  -7  11    0.94    0.97
  -4   7 -11    0.63    1.29
   4  -7  12    3.38    0.97
  -4   7 -12    3.09    1.15
   4  -7  13    2.72    1.98
  -4   7 -13    3.18    1.40
   4  -7  14   -0.06    1.00
  -4   7 -14    0.77    1.03
   4  -6 -11    0.66    1.09
   4  -6 -10   -0.17    0.63
  -4   6  10   -0.11    0.57
   4  -6  -9    1.95    1.12
  -4   6   9    0.29    0.86
   4  -6  -8    0.31    1.43
  -4   6   8    0.34    0.63
   4  -6  -7    1.29    1.55
  -4   6   7    0.00    0.86
   4  -6  -6    0.26    0.89
  -4   6   6    0.66    1.03
   4  -6  -5    0.37    1.00
  -4   6   5    0.03    0.66
   4  -6  -4    0.83    1.17
  -4   6   4    0.69    0.66
   4  -6  -3   14.74    1.40
  -4   6   3   15.17    0.92
   4  -6  -2  101.60    3.89
  -4   6   2   87.77    4.44
   4  -6  -1   15.32    1.17
  -4   6   1   14.83    0.94
   4  -6   0   65.35    2.86
  -4   6   0   59.51    2.78
   4  -6   1   10.22    1.00
  -4   6  -1    9.76    0.74
   4  -6   2    0.03    0.83
  -4   6  -2    0.03    0.66
   4  -6   3    0.92    0.63
  -4   6  -3    0.86    0.60
   4  -6   4    0.54    0.89
  -4   6  -4   -0.52    0.77
   4  -6   5   23.65    1.46
  -4   6  -5   23.07    1.35
   4  -6   6   19.49    1.37
  -4   6  -6   20.78    1.55
   4  -6   7    4.98    1.06
  -4   6  -7    4.29    1.23
   4  -6   8    2.09    0.92
  -4   6  -8    3.72    1.20
   4  -6   9    2.26    1.03
  -4   6  -9    2.58    1.40
   4  -6  10    0.23    0.94
  -4   6 -10   -0.09    1.46
   4  -6  11    1.46    1.03
  -4   6 -11    0.80    1.35
   4  -6  12    1.37    1.03
  -4   6 -12    2.35    1.40
   4  -6  13    0.20    0.89
  -4   6 -13   -0.26    1.37
   4  -6  14    0.26    1.00
   4  -5 -12    0.03    0.92
  -4   5  12    0.52    0.66
   4  -5 -11    1.43    1.29
  -4   5  11    0.86    0.86
   4  -5 -10    2.46    1.35
  -4   5  10    2.00    0.94
   4  -5  -9    1.49    1.35
  -4   5   9    1.37    0.63
   4  -5  -8    0.40    1.03
  -4   5   8    1.09    0.72
   4  -5  -7    4.72    1.23
  -4   5   7    4.09    0.63
   4  -5  -6   10.22    1.09
  -4   5   6    9.02    0.83
   4  -5  -5    3.29    1.35
  -4   5   5    4.12    0.74
   4  -5  -4   11.79    1.03
  -4   5   4   11.54    0.83
   4  -5  -3   -0.23    1.03
  -4   5   3    0.69    0.69
   4  -5  -2   12.77    1.03
  -4   5   2   13.00    1.06
   4  -5  -1    5.47    0.74
  -4   5   1    7.79    0.69
   4  -5   0  253.09    8.53
  -4   5   0  256.29    8.02
   4  -5   1  278.91    8.96
  -4   5  -1  289.76   13.23
   4  -5   2   11.97    0.97
  -4   5  -2   13.77    1.03
   4  -5   3   55.91    2.46
  -4   5  -3   59.37    2.35
   4  -5   4   12.17    1.15
  -4   5  -4   13.71    1.12
   4  -5   5    1.95    0.69
  -4   5  -5    2.35    0.77
   4  -5   6    1.75    0.86
  -4   5  -6    2.18    1.03
   4  -5   7    0.66    0.83
  -4   5  -7    2.00    1.20
   4  -5   8    4.95    0.74
  -4   5  -8    5.93    1.06
   4  -5   9    1.40    1.00
  -4   5  -9   -0.29    2.43
   4  -5  10    0.57    1.03
  -4   5 -10   -0.80    2.55
   4  -5  11    0.03    0.89
  -4   5 -11    1.86    2.89
   4  -5  12    0.29    1.29
  -4   5 -12    0.49    1.37
   4  -5  13    0.03    0.63
  -4   5 -13   -0.92    1.55
   4  -4 -11    1.75    1.03
  -4   4  11    0.37    0.66
   4  -4 -10    3.15    1.17
  -4   4  10    3.18    1.17
   4  -4  -9    7.59    1.37
  -4   4   9    6.27    0.80
   4  -4  -8   10.13    1.37
  -4   4   8    9.07    0.77
   4  -4  -7    5.78    1.20
  -4   4   7    4.69    0.69
   4  -4  -6    1.43    0.77
  -4   4   6    1.32    0.57
   4  -4  -5    7.79    0.94
  -4   4   5    8.67    0.77
   4  -4  -4   19.15    1.40
  -4   4   4   17.61    1.20
   4  -4  -3   29.11    2.12
  -4   4   3   29.34    2.26
   4  -4  -2   45.03    2.35
  -4   4   2   41.62    2.15
   4  -4  -1    0.97    0.52
  -4   4   1    0.52    0.40
   4  -4   0   24.28    1.23
  -4   4   0   23.42    1.17
   4  -4   1   15.52    0.97
  -4   4  -1   15.06    1.03
   4  -4   2  166.21    4.75
  -4   4  -2  161.94    5.04
   4  -4   3  759.75   26.34
  -4   4  -3  733.56   28.51
   4  -4   4   66.76    2.49
  -4   4  -4   71.88    2.81
   4  -4   5   54.30    2.46
  -4   4  -5   57.45    2.43
   4  -4   6   -0.03    0.80
  -4   4  -6    1.12    1.06
   4  -4   7   21.99    1.43
  -4   4  -7   23.04    1.72
   4  -4   8    2.58    0.69
  -4   4  -8    3.61    1.23
   4  -4   9    1.89    0.97
  -4   4  -9    2.32    1.26
   4  -4  10   -0.66    0.97
  -4   4 -10   -0.83    1.57
   4  -4  11    1.29    0.72
  -4   4 -11   -0.83    2.61
   4  -4  12   -0.52    0.94
  -4   4 -12    0.11    0.97
   4  -4  13    0.09    0.86
  -4   4 -13    0.66    1.57
   4  -3 -12    0.80    1.29
  -4   3  12    0.29    0.72
   4  -3 -11   -0.49    1.15
  -4   3  11    0.31    0.57
   4  -3 -10    5.15    1.35
  -4   3  10    5.32    0.94
   4  -3  -9    2.78    0.94
  -4   3   9    2.03    0.66
   4  -3  -8    0.97    0.94
  -4   3   8    1.20    0.54
   4  -3  -7   26.54    1.69
  -4   3   7   21.53    1.20
   4  -3  -6   23.96    1.43
  -4   3   6   21.21    1.12
   4  -3  -5    8.56    0.86
  -4   3   5   10.05    0.80
   4  -3  -4   19.78    1.06
  -4   3   4   17.72    1.00
   4  -3  -3   12.54    0.94
  -4   3   3   11.74    0.83
   4  -3  -2    2.58    0.63
  -4   3   2    2.83    0.49
   4  -3  -1   46.26    2.72
  -4   3   1   45.29    2.63
   4  -3   0   56.74    2.52
  -4   3   0   60.26    2.66
   4  -3   1    4.92    0.63
  -4   3  -1    4.47    0.63
   4  -3   2    1.77    0.63
  -4   3  -2    0.72    0.43
   4  -3   3   21.99    1.26
  -4   3  -3   25.53    1.35
   4  -3   4   19.75    1.20
  -4   3  -4   24.13    1.26
  -4   3  -5  555.38   18.55
   4  -3   6  235.28    8.07
  -4   3  -6  244.96    8.10
   4  -3   7    3.86    0.69
  -4   3  -7    4.64    1.15
   4  -3   8    4.67    0.86
  -4   3  -8    4.58    1.37
   4  -3   9    6.96    1.23
  -4   3  -9    8.62    1.46
   4  -3  10    1.75    0.89
  -4   3 -10    4.61    3.52
   4  -3  11    0.14    1.06
  -4   3 -11    2.98    1.57
   4  -3  12   -0.37    1.03
  -4   3 -12    2.86    2.98
   4  -3  13   -0.40    1.32
  -4   3 -13    2.66    1.55
   4  -2 -13    0.17    1.00
  -4   2  13   -0.31    0.69
   4  -2 -12    1.17    1.98
  -4   2  12    0.66    0.69
   4  -2 -11    0.37    0.80
  -4   2  11    0.03    0.63
   4  -2 -10    4.87    1.12
  -4   2  10    4.78    1.03
   4  -2  -9    9.48    1.15
  -4   2   9    9.48    0.80
   4  -2  -8    0.17    0.69
  -4   2   8    0.00    0.52
   4  -2  -7    0.94    0.66
  -4   2   7    1.49    0.49
   4  -2  -6    2.55    0.60
  -4   2   6    2.58    0.46
   4  -2  -5   10.68    0.83
  -4   2   5   11.14    0.83
   4  -2  -4   60.80    2.72
  -4   2   4   59.29    2.63
   4  -2  -3   15.06    1.09
  -4   2   3   18.69    1.17
   4  -2  -2  186.65    6.93
  -4   2   2  184.53    6.27
   4  -2  -1   26.48    1.46
  -4   2   1   27.91    1.60
   4  -2   0    5.61    0.60
  -4   2   0    6.38    0.60
   4  -2   1    3.09    0.60
  -4   2  -1    3.95    1.29
   4  -2   2   29.43    1.43
  -4   2  -2   33.75    1.49
   4  -2   3    1.92    0.74
  -4   2  -3    1.89    0.63
   4  -2   4   12.45    1.20
  -4   2  -4    8.04    1.23
   4  -2   5    1.72    0.54
  -4   2  -5    1.46    0.97
   4  -2   6    0.46    0.57
  -4   2  -6   -0.49    1.03
   4  -2   7   72.31    2.75
  -4   2  -7   79.84    3.41
   4  -2   8  167.21    6.24
  -4   2  -8  175.94    8.24
   4  -2   9    1.60    0.83
  -4   2  -9    2.61    3.12
   4  -2  10    0.57    1.03
  -4   2 -10    1.32    1.60
   4  -2  11    0.31    1.06
  -4   2 -11   -2.43    3.86
   4  -2  12    0.52    1.15
  -4   2 -12    0.54    1.66
   4  -2  13    0.31    1.00
  -4   2 -13    0.43    1.20
   4  -2  14    0.00    0.83
   4  -1 -13   -0.57    0.80
  -4   1  13    0.11    0.66
   4  -1 -12   -0.14    1.00
  -4   1  12    0.17    0.52
   4  -1 -11    1.37    0.83
  -4   1  11   -0.43    0.52
   4  -1 -10    6.10    1.00
  -4   1  10    5.73    0.97
   4  -1  -9    6.33    0.92
  -4   1   9    5.98    0.63
   4  -1  -8    3.41    0.80
  -4   1   8    3.84    0.57
   4  -1  -7   47.63    1.92
  -4   1   7   50.15    1.92
   4  -1  -6   11.91    0.83
  -4   1   6   11.65    0.72
   4  -1  -5   10.94    0.92
  -4   1   5   12.94    0.92
   4  -1  -4   17.43    1.09
  -4   1   4   19.98    1.23
   4  -1  -3   34.75    1.95
  -4   1   3   38.90    1.98
   4  -1  -2  132.46    5.27
  -4   1   2  147.00    5.98
   4  -1  -1   16.75    1.23
  -4   1   1   19.55    1.26
   4  -1   0  270.03    9.13
  -4   1   0  290.45    8.73
   4  -1   1  444.23   13.40
  -4   1  -1  448.32   13.34
   4  -1   2   22.73    1.72
  -4   1  -2   28.28    1.63
   4  -1   3   47.75    1.92
  -4   1  -3   44.14    2.75
   4  -1   4   -0.40    0.66
  -4   1  -4   -0.37    0.92
   4  -1   5    2.29    0.63
  -4   1  -5    1.37    1.06
   4  -1   6   16.37    1.32
  -4   1  -6   12.19    2.89
   4  -1   7    7.21    1.00
  -4   1  -7    7.50    1.23
   4  -1   8    5.41    1.00
  -4   1  -8    6.01    1.52
   4  -1   9   -0.40    0.80
  -4   1  -9   -0.03    1.09
   4  -1  10   28.68    2.29
  -4   1 -10   35.67    2.78
   4  -1  11    2.38    0.86
  -4   1 -11    3.61    1.83
   4  -1  12   -0.11    0.86
  -4   1 -12   -0.06    1.23
   4  -1  13    1.00    1.00
  -4   1 -13    0.26    4.81
   4   0 -16   -9.39   19.47
  -4   0  15    0.20    3.64
  -4   0  14    0.23    0.43
   4   0 -13   -0.03    1.06
  -4   0  13    0.11    0.60
   4   0 -12    0.40    1.00
  -4   0  12    0.20    0.54
   4   0 -11    0.74    0.92
  -4   0  11    0.26    0.46
   4   0 -10    0.09    1.06
  -4   0  10   -0.14    0.63
   4   0  -9    1.23    0.69
  -4   0   9    0.92    0.40
   4   0  -8    9.85    0.97
  -4   0   8    9.93    0.69
   4   0  -7   58.54    2.38
  -4   0   7   61.75    2.26
   4   0  -6    3.03    0.49
  -4   0   6    3.23    0.43
   4   0  -5   46.03    1.86
  -4   0   5   49.64    1.92
   4   0  -4   70.91    3.03
  -4   0   4   74.51    3.15
   4   0  -3   50.41    2.40
  -4   0   3   59.54    2.63
   4   0  -2   50.21    2.63
  -4   0   2   57.05    2.58
   4   0  -1  203.79    7.79
  -4   0   1  220.94    7.93
   4   0   0   34.27    1.83
  -4   0   0   32.86    1.86
   4   0   1   47.26    2.12
  -4   0  -1   44.66    2.12
   4   0   2   66.21    2.75
  -4   0  -2   62.66    2.89
   4   0   3  637.57   18.46
  -4   0  -3  603.42   23.85
   4   0   4   81.47    4.81
  -4   0  -4   79.27    5.21
   4   0   5   41.22    1.92
  -4   0  -5   41.48    3.81
   4   0   6   24.73    1.46
  -4   0  -6   23.19    2.98
   4   0   7    5.30    1.06
  -4   0  -7    5.41    2.98
   4   0   8   12.28    1.12
  -4   0  -8   11.28    1.66
   4   0   9    4.64    0.83
  -4   0  -9    5.18    1.20
   4   0  10    6.21    1.03
  -4   0 -10    7.33    1.49
   4   0  11   -0.29    0.97
  -4   0 -11    2.29    1.72
   4   0  12    0.80    0.89
  -4   0 -12   -0.03    1.60
   4   0  13    0.31    1.00
  -4   0 -13    1.20    1.69
   4   0  14    1.06    1.06
  -4  -1  15   -0.29    0.74
  -4  -1  14   -0.17    0.31
   4   1 -13    0.09    1.57
  -4  -1  13    0.09    0.31
   4   1 -12    1.89    0.86
  -4  -1  12    2.23    0.60
   4   1 -11   -0.74    0.89
  -4  -1  11    0.23    0.40
   4   1 -10    0.74    0.77
  -4  -1  10    0.43    0.46
   4   1  -9    1.09    0.54
  -4  -1   9    0.31    0.43
   4   1  -8   -0.06    0.49
  -4  -1   8   -0.17    0.29
   4   1  -7    1.23    0.54
  -4  -1   7    1.26    0.37
   4   1  -6    2.49    0.52
  -4  -1   6    2.03    0.37
   4   1  -5   84.51    3.26
  -4  -1   5   97.67    3.52
   4   1  -4   48.64    2.18
  -4  -1   4   55.28    2.29
   4   1  -3   11.08    0.83
  -4  -1   3   13.05    0.86
   4   1  -2  116.22    4.78
  -4  -1   2  112.65    4.18
   4   1  -1   16.75    1.12
  -4  -1   1   14.89    1.12
   4   1   0  111.50    4.09
  -4  -1   0  105.89    7.24
   4   1   1   66.41    2.95
  -4  -1  -1   58.91    3.92
   4   1   2   25.79    1.43
  -4  -1  -2   23.62    1.46
   4   1   3   25.91    1.49
  -4  -1  -3   23.07    2.32
   4   1   4    1.12    0.63
  -4  -1  -4    2.00    1.06
   4   1   5  130.77    4.87
  -4  -1  -5  129.59    4.55
   4   1   6   98.13    5.24
  -4  -1  -6  102.37    5.52
   4   1   7   10.91    1.29
  -4  -1  -7   10.48    1.83
   4   1   8   15.80    1.35
  -4  -1  -8   15.23    1.89
   4   1   9    6.01    0.97
  -4  -1  -9    5.61    3.18
   4   1  10    2.52    0.94
  -4  -1 -10    2.92    1.17
   4   1  11    1.52    0.86
  -4  -1 -11    1.63    1.26
   4   1  12    3.29    0.80
  -4  -1 -12    0.94    1.20
   4   1  13   -0.17    0.54
  -4  -1 -13   -0.06    0.89
  -4  -2  14   -0.52    3.32
   4   2 -13    0.31    1.29
  -4  -2  13    0.86    0.40
   4   2 -12    0.23    0.77
  -4  -2  12   -0.09    0.31
   4   2 -11    0.80    0.72
  -4  -2  11    1.00    0.43
   4   2 -10    4.92    0.74
  -4  -2  10    4.12    0.43
   4   2  -9   15.63    1.12
  -4  -2   9   21.01    1.26
   4   2  -8    0.43    0.40
  -4  -2   8    0.37    0.31
   4   2  -7   14.63    0.80
  -4  -2   7   14.89    0.74
   4   2  -6   11.65    0.77
  -4  -2   6   12.62    0.80
   4   2  -5   14.66    1.00
  -4  -2   5   17.03    0.94
   4   2  -4   38.33    1.86
  -4  -2   4   40.36    1.92
   4   2  -3   11.31    0.86
  -4  -2   3   10.85    0.86
   4   2  -2   68.99    2.98
  -4  -2   2   65.24    2.89
   4   2  -1   43.11    2.00
  -4  -2   1   42.62    2.18
   4   2   0    4.06    0.54
  -4  -2   0    3.23    0.89
   4   2   1    1.09    0.40
  -4  -2  -1    0.09    0.92
   4   2   2   35.27    1.95
   4   2   3   13.83    1.03
  -4  -2  -3   16.15    1.23
   4   2   4   10.68    0.94
  -4  -2  -4   11.79    1.43
   4   2   5    1.66    0.89
  -4  -2  -5    2.18    1.20
   4   2   6    1.92    0.83
  -4  -2  -6    2.03    1.40
   4   2   7    9.05    1.49
  -4  -2  -7   10.25    1.49
   4   2   8   28.14    1.98
  -4  -2  -8   27.51    3.06
   4   2   9    5.41    1.03
  -4  -2  -9    7.76    1.57
   4   2  10    0.17    0.94
  -4  -2 -10    0.20    1.55
   4   2  11    1.57    0.94
  -4  -2 -11    1.89    1.49
   4   2  12    0.20    0.57
   4   2  13   -0.11    0.60
  -4  -3  14    3.09    3.89
   4   3 -13    2.20    1.17
  -4  -3  13    0.83    0.43
   4   3 -12    1.83    0.80
  -4  -3  12    1.32    0.49
   4   3 -11    4.24    1.49
  -4  -3  11    4.24    0.54
   4   3 -10    3.64    0.60
  -4  -3  10    5.04    0.46
   4   3  -9    6.15    0.63
  -4  -3   9    6.24    0.66
   4   3  -8   14.69    0.86
  -4  -3   8   28.83    5.61
   4   3  -7   64.01    4.35
  -4  -3   7   71.54    3.84
   4   3  -6   18.52    1.03
  -4  -3   6   18.86    1.00
   4   3  -5   12.28    0.72
  -4  -3   5   13.03    1.06
   4   3  -4  137.52    5.21
  -4  -3   4  125.07    4.29
   4   3  -3   18.72    1.15
  -4  -3   3   19.67    2.03
   4   3  -2  154.07    5.12
  -4  -3   2  127.76    6.76
   4   3  -1   12.65    0.92
  -4  -3   1   11.59    2.15
   4   3   0    0.60    0.40
  -4  -3   0    0.31    0.77
   4   3   1    6.18    1.17
  -4  -3  -1    7.76    1.12
   4   3   2   13.63    1.00
  -4  -3  -2   12.74    1.35
   4   3   3    4.09    0.72
  -4  -3  -3    3.26    1.23
   4   3   4    1.35    0.72
  -4  -3  -4    3.66    2.26
   4   3   5    4.81    0.80
  -4  -3  -5    5.12    1.20
   4   3   6    0.20    0.77
  -4  -3  -6   -0.20    1.03
   4   3   7    0.34    1.00
  -4  -3  -7   -0.72    2.18
   4   3   8    2.00    0.89
  -4  -3  -8    1.40    1.49
  -4  -3  -9   -1.26    1.69
   4   3  10    1.26    0.77
  -4  -3 -10    0.20    5.12
   4   3  11    1.60    1.03
   4   3  12    0.17    0.49
  -4  -4  14    2.81    3.61
   4   4 -13   -0.14    1.00
  -4  -4  13    0.37    0.26
   4   4 -12    1.66    0.94
  -4  -4  12    0.52    0.29
   4   4 -11   -8.33   15.06
   4   4 -10   26.88    8.93
   4   4  -9   26.19   11.08
  -4  -4   9    4.81    4.55
  -4  -4   8   29.94    5.81
  -4  -4   7   38.27    5.75
  -4  -4   6   43.28    5.98
   4   4  -5   77.49    3.84
  -4  -4   5   79.67    3.69
   4   4  -4   86.54    4.35
  -4  -4   4   78.84    3.81
   4   4  -3   13.60    0.86
  -4  -4   3   14.57    1.75
  -4  -4   2   70.88    4.12
   4   4  -1   20.61    1.17
   4   4   0   80.38    3.95
  -4  -4   0   58.11    3.92
   4   4   1   31.78    1.49
  -4  -4  -1   29.06    2.61
   4   4   2   12.40    1.55
  -4  -4  -2   13.88    1.26
   4   4   3    6.90    0.86
  -4  -4  -3    7.87    1.23
   4   4   4    8.10    1.26
  -4  -4  -4    7.30    2.75
   4   4   5    2.00    0.83
  -4  -4  -5    1.77    1.37
   4   4   6    5.87    0.92
  -4  -4  -6    6.53    1.23
   4   4   7    0.34    0.80
  -4  -4  -7   -0.54    2.23
   4   4   8   -0.34    1.03
  -4  -4  -8    0.60    1.69
   4   4   9   -0.14    0.69
  -4  -4  -9    0.17    1.09
   4   4  10    0.49    0.49
  -4  -5  15   -0.94    3.89
  -4  -5  14   -1.15    3.84
   4   5 -12   12.42   15.06
   4   5 -11    6.56   14.37
  -4  -5  11   -0.52    4.87
   4   5 -10   14.80   10.51
  -4  -5  10    5.70    4.72
   4   5  -9   -5.61   11.42
  -4  -5   9    6.24    4.32
  -4  -5   8    8.13    4.58
  -4  -5   7   12.17    5.21
  -4  -5   6   19.70    5.38
   4   5  -5   51.73    2.58
   4   5  -4   18.38    1.29
  -4  -5   4   20.30    1.83
   4   5  -3   28.97    2.18
  -4  -5   3   35.01    2.06
   4   5  -2   23.36    1.17
  -4  -5   2   24.68    2.03
   4   5  -1   15.97    0.92
  -4  -5   1   16.75    2.29
   4   5   0   16.52    0.97
  -4  -5   0   14.80    1.17
   4   5   1    8.87    0.74
  -4  -5  -1    9.96    1.23
   4   5   2    8.93    0.92
  -4  -5  -2    8.87    1.32
   4   5   3   22.93    1.40
  -4  -5  -3   21.16    3.23
   4   5   4    5.38    0.86
  -4  -5  -4    6.44    1.49
   4   5   5    5.93    1.00
  -4  -5  -5    1.20    2.49
   4   5   6    2.03    0.83
  -4  -5  -6    2.81    1.20
   4   5   7   -0.34    1.03
  -4  -5  -7   -1.46    3.86
   4   5   8    0.23    0.69
  -4  -5  -8    0.74    1.29
  -4  -5  -9   -0.11    0.80
  -4  -6  14    4.12    4.49
  -4  -6  13    1.40    5.07
   4   6 -12    8.93   18.49
   4   6 -11   -4.95   16.89
  -4  -6  11   -0.26    5.67
   4   6 -10    3.09   13.63
  -4  -6  10   -0.63    4.35
  -4  -6   9    1.77    4.72
   4   6  -8    4.55   13.71
  -4  -6   8   -4.21    4.69
   4   6  -6    4.12    9.48
   4   6  -5    5.15    0.34
  -4  -6   5    4.15    0.40
   4   6  -4    1.66    0.34
  -4  -6   4    1.40    0.46
   4   6  -3   14.23    0.83
  -4  -6   3   13.45    1.23
   4   6  -2    3.01    0.40
  -4  -6   2    2.38    0.74
   4   6  -1    6.21    0.83
  -4  -6   1    6.67    1.00
   4   6   0    3.18    0.60
  -4  -6   0    2.12    1.06
   4   6   1    3.69    0.63
  -4  -6  -1    4.35    0.97
   4   6   2    2.18    0.77
  -4  -6  -2    2.29    0.92
   4   6   3    3.15    0.66
  -4  -6  -3    2.63    1.26
   4   6   4    0.29    1.00
  -4  -6  -4   -0.23    1.52
   4   6   5    2.52    0.74
  -4  -6  -5    5.30    1.23
   4   6   6    0.94    0.89
  -4  -6  -6    1.66    1.37
   4   6   7   -0.52    0.83
  -4  -6  -7    0.34    1.60
  -4  -6  -8    0.29    0.86
  -4  -6  -9   -0.14    2.69
  -4  -7  12   -1.17    5.32
   4   7 -11    5.95    8.59
   4   7 -10    4.01   13.14
  -4  -7  10    2.20    5.58
   4   7  -9    1.83   12.25
  -4  -7   9    9.99    4.84
  -4  -7   7    2.95    4.69
   4   7  -6   -3.84   11.02
  -4  -7   6    1.75    4.06
   4   7  -5    0.14    0.20
  -4  -7   5    0.00    0.40
   4   7  -4    0.03    0.31
  -4  -7   4    0.29    0.54
   4   7  -3    0.23    0.46
  -4  -7   3   -0.43    0.69
   4   7  -2    0.23    0.52
  -4  -7   2   -0.29    0.74
   4   7  -1    0.17    0.57
  -4  -7   1    1.23    1.00
   4   7   0    0.54    0.49
  -4  -7   0   -0.74    0.86
   4   7   1    0.40    0.83
  -4  -7  -1   -0.77    2.03
   4   7   2    0.77    0.86
  -4  -7  -2    0.86    1.20
   4   7   3    0.20    0.97
  -4  -7  -3    0.80    1.83
   4   7   4   -0.06    1.03
   4   7   5   -0.17    0.66
  -4  -7  -5    0.09    0.63
   4   7   6    0.14    0.46
  -4  -7  -6    0.06    0.72
   4   7   7   -0.23    0.54
  -4  -7  -7    0.60    2.46
  -4  -8  11   -1.80    3.12
  -4  -8   8   -3.03    5.04
  -4  -8   6    7.59    4.81
   4   8  -5    2.89    0.37
  -4  -8   5    2.78    0.66
   4   8  -4    1.09    0.43
  -4  -8   4   -0.26    0.57
   4   8  -3    0.52    0.46
  -4  -8   3    0.31    1.66
   4   8  -2   -0.03    0.63
  -4  -8   2   -0.52    0.83
   4   8  -1    0.03    0.49
  -4  -8   1    0.06    0.92
   4   8   0    0.20    0.63
  -4  -8   0   -0.74    1.12
   4   8   1    0.31    0.57
  -4  -8  -1   -0.60    1.43
   4   8   2    0.63    0.89
  -4  -8  -2   -0.29    0.94
  -4  -8  -5   -0.43    0.77
  -4  -8  -6   -0.66    0.94
  -4  -9   9    2.20    4.15
  -4  -9   8    7.96    3.66
   4   9  -5    0.23    0.26
  -4  -9   5    0.34    0.46
   4   9  -4    2.49    0.57
  -4  -9   4    3.55    1.09
   4   9  -3    1.89    0.49
  -4  -9   3    2.20    1.15
   4   9  -2    0.60    0.63
  -4  -9   2    0.31    0.60
   4   9  -1    0.52    0.72
   4   9   0    0.14    0.57
  -4  -9   0   -0.72    1.00
  -4  -9  -1   -0.34    0.92
  -4  -9  -2    0.49    0.77
  -4  -9  -3    0.31    0.83
   4  10  -4   -0.06    0.34
   4  10  -3    0.26    0.63
  -5  11  -5    0.54    0.92
  -5  11  -6   -0.26    0.57
  -5  11  -7    0.09    0.60
   5 -10   0   -0.34    0.57
  -5  10   0    0.49    0.86
   5 -10   2   -0.23    0.60
  -5  10  -2    0.09    0.80
   5 -10   3    0.06    0.66
  -5  10  -3    0.37    0.80
   5 -10   4    0.17    0.57
  -5  10  -4    0.49    0.86
  -5  10  -5    4.41    1.06
  -5  10  -6    0.11    1.03
   5  -9  -4    0.77    0.69
  -5   9   4   -0.03    0.52
   5  -9  -3    0.09    0.63
  -5   9   3    0.11    0.37
   5  -9  -2    0.03    0.63
  -5   9   2   -0.17    0.60
   5  -9  -1   -0.54    0.77
  -5   9   1    0.26    0.66
   5  -9   0    0.26    0.86
  -5   9   0    0.26    0.97
   5  -9   1    0.63    0.94
  -5   9  -1    0.40    0.80
   5  -9   2    2.46    1.00
  -5   9  -2    2.06    0.86
   5  -9   3    0.43    0.86
  -5   9  -3    1.09    0.74
   5  -9   4    0.09    0.92
  -5   9  -4    0.31    0.80
   5  -9   5    0.06    0.77
  -5   9  -5    0.23    0.66
   5  -9   6    0.17    0.86
  -5   9  -6    1.12    0.77
   5  -9   7    1.95    0.77
  -5   9  -7    2.29    0.80
   5  -9   8    0.11    0.92
  -5   9  -8    0.49    1.03
   5  -9   9    0.31    0.86
   5  -9  10    0.06    0.40
   5  -9  11    0.17    0.63
   5  -9  12    1.63    0.94
   5  -8  -6    0.46    1.06
  -5   8   6   -0.40    0.63
   5  -8  -5    0.14    1.03
  -5   8   5    0.31    0.69
   5  -8  -4    0.57    1.00
  -5   8   4    0.00    0.66
   5  -8  -3   -0.11    1.37
  -5   8   3   -0.26    0.86
   5  -8  -2    1.72    1.35
  -5   8   2    1.09    0.89
   5  -8  -1    0.09    1.32
  -5   8   1    0.03    0.94
   5  -8   0   -0.26    0.86
  -5   8   0    0.46    0.66
   5  -8   1    0.89    0.94
  -5   8  -1    1.12    0.69
   5  -8   2    2.72    0.92
  -5   8  -2    1.83    0.80
   5  -8   3   -0.29    0.92
  -5   8  -3    0.09    0.77
   5  -8   4    3.35    1.20
  -5   8  -4    3.64    1.06
   5  -8   5    0.31    0.97
  -5   8  -5    1.29    1.03
   5  -8   6    0.20    1.06
  -5   8  -6    0.72    1.09
   5  -8   7    0.52    1.09
  -5   8  -7    0.26    0.97
   5  -8   8    0.86    0.97
  -5   8  -8    0.20    1.32
   5  -8   9    2.46    0.83
  -5   8  -9    1.52    1.23
   5  -8  10    0.06    0.80
  -5   8 -10    1.09    1.23
   5  -8  11    0.77    1.43
  -5   8 -11    1.55    1.37
  -5   8 -12   -1.06    7.33
  -5   7   8    0.06    0.54
   5  -7  -7   -0.09    1.37
  -5   7   7    1.89    0.89
   5  -7  -6   -0.52    1.17
  -5   7   6    0.52    0.80
   5  -7  -5    0.43    1.29
  -5   7   5    0.57    0.74
   5  -7  -4    0.40    1.37
  -5   7   4    0.80    0.77
   5  -7  -3    6.58    1.03
  -5   7   3    5.41    0.83
   5  -7  -2    3.15    1.06
  -5   7   2    4.49    0.83
   5  -7  -1    3.75    1.40
  -5   7   1    3.01    0.94
   5  -7   0    7.16    0.86
  -5   7   0    8.16    0.80
   5  -7   1    3.15    1.00
  -5   7  -1    3.55    0.80
   5  -7   2    7.90    1.20
  -5   7  -2    7.07    0.94
   5  -7   3    6.70    1.23
  -5   7  -3    4.92    1.00
   5  -7   4   12.05    1.20
  -5   7  -4   14.40    1.09
   5  -7   5   16.12    1.32
  -5   7  -5   15.83    1.20
   5  -7   6    1.00    0.86
  -5   7  -6    0.89    0.97
   5  -7   7    3.66    1.00
  -5   7  -7    3.55    1.09
   5  -7   8    2.63    0.83
  -5   7  -8    2.38    1.29
   5  -7   9    3.32    0.83
  -5   7  -9    3.84    1.40
   5  -7  10    1.15    1.00
  -5   7 -10    0.11    1.57
   5  -7  11    1.09    0.97
  -5   7 -11    0.63    1.98
   5  -7  12    0.06    1.06
  -5   7 -12   -0.20    2.23
   5  -7  13   -0.63    1.23
  -5   7 -13    2.49    3.61
  -5   6  10    0.00    0.69
  -5   6   9    0.80    0.60
   5  -6  -8    1.49    1.15
  -5   6   8    2.72    0.66
   5  -6  -7    0.03    1.06
  -5   6   7    0.23    0.74
   5  -6  -6    0.14    1.23
  -5   6   6    0.46    0.69
   5  -6  -5    2.23    0.94
  -5   6   5    0.06    0.89
   5  -6  -4    1.52    1.06
  -5   6   4    0.06    0.66
   5  -6  -3   -0.94    1.15
  -5   6   3   -0.43    0.80
   5  -6  -2    0.54    0.89
  -5   6   2   -0.49    0.69
   5  -6  -1   27.97    1.80
  -5   6   1   23.79    1.26
   5  -6   0   17.92    1.40
  -5   6   0   19.01    1.32
   5  -6   1   21.01    1.46
  -5   6  -1   21.04    1.15
   5  -6   2   21.99    1.60
  -5   6  -2   21.47    1.57
   5  -6   3   14.60    1.20
  -5   6  -3   15.20    1.09
   5  -6   4   18.86    1.49
  -5   6  -4   18.98    1.29
   5  -6   5   38.82    2.09
  -5   6  -5   36.36    2.03
   5  -6   6   12.51    1.06
  -5   6  -6   10.68    1.40
   5  -6   7   43.51    2.46
  -5   6  -7   48.78    2.46
   5  -6   8    3.66    0.83
  -5   6  -8    3.15    1.69
   5  -6   9    2.69    1.15
  -5   6  -9    1.77    1.63
   5  -6  10    0.03    1.03
  -5   6 -10    0.23    1.40
   5  -6  11    2.95    0.92
  -5   6 -11   -0.37    1.17
   5  -6  12    3.03    1.40
  -5   6 -13    0.77    1.55
   5  -5 -11    0.11    0.69
  -5   5  11    0.06    0.69
   5  -5 -10    0.77    1.17
  -5   5  10    0.57    0.63
   5  -5  -9   -0.46    1.63
  -5   5   9   -0.46    0.92
   5  -5  -8    1.52    0.92
  -5   5   8    0.14    0.60
   5  -5  -7    0.77    0.92
  -5   5   7    0.60    0.74
   5  -5  -6    6.41    1.35
  -5   5   6    5.35    0.77
   5  -5  -5    2.12    0.83
  -5   5   5    0.94    0.60
   5  -5  -4    0.26    1.09
  -5   5   4    0.54    0.74
   5  -5  -3    2.03    0.74
  -5   5   3    2.52    0.57
   5  -5  -2    4.49    0.80
  -5   5   2    4.44    0.66
   5  -5  -1    0.86    1.00
  -5   5   1    1.00    0.74
   5  -5   0   13.28    1.12
  -5   5   0   13.63    1.03
   5  -5   1   26.37    1.86
  -5   5  -1   24.36    1.40
   5  -5   2   59.20    2.55
  -5   5  -2   57.68    2.38
   5  -5   3   16.52    1.23
  -5   5  -3   15.89    1.23
   5  -5   4   42.31    1.83
  -5   5  -4   41.51    1.83
   5  -5   5   16.40    1.49
  -5   5  -5   17.20    1.49
   5  -5   6   10.11    1.29
  -5   5  -6   11.22    1.40
   5  -5   7   45.57    2.29
  -5   5  -7   46.40    3.66
   5  -5   8   12.34    1.46
  -5   5  -8   18.84    1.80
   5  -5   9   22.39    1.69
  -5   5  -9   24.25    3.89
   5  -5  10   11.05    1.20
  -5   5 -10   11.31    1.77
   5  -5  11   -0.40    1.12
  -5   5 -11    0.54    1.77
   5  -5  12   -0.03    0.69
   5  -5  13    0.11    0.63
  -5   5 -13    0.69    1.63
   5  -4 -12    2.03    3.12
  -5   4  12    0.00    0.69
   5  -4 -11    0.66    1.49
  -5   4  11    0.14    0.69
   5  -4 -10   -0.11    1.09
  -5   4  10    0.37    0.69
   5  -4  -9    1.03    1.09
  -5   4   9    1.77    0.72
   5  -4  -8   11.59    1.63
  -5   4   8    9.85    1.00
   5  -4  -7    6.64    1.09
  -5   4   7    5.75    0.80
   5  -4  -6    1.20    0.80
  -5   4   6    2.32    0.54
   5  -4  -5    6.96    1.00
  -5   4   5    6.56    0.69
   5  -4  -4    1.17    0.74
  -5   4   4    0.92    0.49
   5  -4  -3    0.54    0.63
  -5   4   3   -0.06    0.57
   5  -4  -2    3.03    1.00
  -5   4   2    3.92    1.23
   5  -4  -1   10.42    1.06
  -5   4   1   11.05    1.09
   5  -4   0    9.99    0.94
  -5   4   0   10.13    0.89
   5  -4   1    2.81    0.72
  -5   4  -1    1.57    0.72
   5  -4   2   94.24    3.38
  -5   4  -2   90.57    3.44
   5  -4   3   14.97    1.23
  -5   4  -3   15.14    1.15
   5  -4   4  116.97    3.75
  -5   4  -4  121.61    4.21
   5  -4   5    5.73    0.77
  -5   4  -5    6.78    1.29
   5  -4   6   22.64    1.37
  -5   4  -6   24.76    1.77
   5  -4   7    6.38    1.15
  -5   4  -7   10.11    1.66
   5  -4   8    2.78    1.00
  -5   4  -8    4.75    1.69
   5  -4   9    8.85    1.03
  -5   4  -9   11.54    2.89
   5  -4  10    8.07    1.26
  -5   4 -10    9.93    3.52
   5  -4  11    5.15    1.00
  -5   4 -11    6.67    1.66
   5  -4  12    2.69    1.00
  -5   4 -12   10.62    5.01
   5  -4  13    0.52    1.55
  -5   4 -13    1.37    4.06
   5  -3 -13    0.94    2.63
   5  -3 -12   -0.14    1.06
  -5   3  12   -0.29    0.77
   5  -3 -11    7.19    1.40
  -5   3  11    7.64    1.20
   5  -3 -10    9.45    1.29
  -5   3  10    9.42    0.89
   5  -3  -9    8.36    1.23
  -5   3   9    8.90    0.83
   5  -3  -8    4.87    1.20
  -5   3   8    5.24    0.77
   5  -3  -7   12.68    1.26
  -5   3   7   14.17    1.00
   5  -3  -6   30.89    1.72
  -5   3   6   29.08    1.43
   5  -3  -5   80.56    4.04
  -5   3   5   70.76    2.69
   5  -3  -4   19.09    1.29
  -5   3   4   17.03    1.17
   5  -3  -3   16.95    1.29
  -5   3   3   16.52    1.17
   5  -3  -2   12.17    1.00
  -5   3   2   10.96    0.83
   5  -3  -1   10.39    0.89
  -5   3   1   11.85    0.97
   5  -3   0   12.97    1.17
  -5   3   0   11.79    1.26
   5  -3   1   39.42    2.09
  -5   3  -1   42.71    2.09
   5  -3   2    6.33    1.00
  -5   3  -2    5.10    0.80
   5  -3   3    0.66    0.54
  -5   3  -3    0.23    0.72
   5  -3   4  129.71    4.58
  -5   3  -4  125.41    4.78
   5  -3   5  188.33    7.99
  -5   3  -5  203.62    6.27
   5  -3   6   18.21    1.17
  -5   3  -6   16.78    1.72
   5  -3   7   17.98    1.23
  -5   3  -7   20.15    1.75
   5  -3   8    1.23    1.03
  -5   3  -8    1.75    2.15
   5  -3   9    0.20    0.94
  -5   3  -9    0.17    3.29
   5  -3  10   -0.14    0.92
  -5   3 -10    0.29    1.66
   5  -3  11    0.46    1.03
  -5   3 -11    0.37    1.29
   5  -3  12    0.17    0.74
  -5   3 -12    2.38    1.98
   5  -3  13   -0.49    0.94
   5  -2 -12    2.12    1.17
  -5   2  12    1.32    0.72
   5  -2 -11    0.43    1.00
  -5   2  11    0.52    0.57
   5  -2 -10    6.58    1.46
  -5   2  10    5.93    0.86
   5  -2  -9   12.74    1.32
  -5   2   9    9.33    0.86
   5  -2  -8   84.13    4.58
  -5   2   8   59.09    7.04
   5  -2  -7   28.63    1.69
  -5   2   7   30.23    1.43
   5  -2  -6   20.50    1.26
  -5   2   6   20.07    1.06
   5  -2  -5   50.21    2.20
  -5   2   5   48.09    2.35
   5  -2  -4   67.73    2.72
  -5   2   4   68.13    2.75
   5  -2  -3  133.69    4.92
  -5   2   3  137.55    5.01
   5  -2  -2  124.53    4.64
  -5   2   2  137.04    4.92
   5  -2  -1   17.86    1.12
  -5   2   1   19.38    1.29
   5  -2   0   32.06    2.06
  -5   2   0   31.06    1.69
   5  -2   1   30.77    1.80
  -5   2  -1   32.95    1.66
   5  -2   2   71.34    2.78
  -5   2  -2   73.51    4.21
   5  -2   3   21.76    1.37
  -5   2  -3   20.07    1.40
   5  -2   4   56.14    2.49
  -5   2  -4   50.64    2.40
   5  -2   5    0.31    0.83
  -5   2  -5   -0.72    1.29
   5  -2   6   65.53    2.86
  -5   2  -6   66.13    3.38
   5  -2   7  175.85    6.93
  -5   2  -7  165.35    6.07
   5  -2   8   25.45    1.52
  -5   2  -8   27.40    2.35
   5  -2   9    7.73    1.26
  -5   2  -9    5.90    1.92
   5  -2  10    0.63    0.86
  -5   2 -10    0.89    1.35
   5  -2  11    0.40    1.20
  -5   2 -11   -0.23    1.75
   5  -2  12    0.72    0.83
  -5   2 -12    3.18    3.64
   5  -1 -13    0.09    1.83
  -5   1  13   -0.11    0.60
   5  -1 -12    0.14    0.97
  -5   1  12    0.23    0.43
   5  -1 -11    0.49    1.03
  -5   1  11    0.20    0.54
   5  -1 -10    3.55    0.89
  -5   1  10    3.84    0.63
   5  -1  -9    1.09    1.00
  -5   1   9    0.94    0.63
   5  -1  -8   21.24    1.55
  -5   1   8   22.67    1.32
   5  -1  -7   10.82    0.94
  -5   1   7   11.19    0.89
   5  -1  -6  187.05    8.24
  -5   1   6  184.13    6.98
   5  -1  -5   96.04    3.81
  -5   1   5  100.39    3.55
   5  -1  -4   22.24    1.32
  -5   1   4   23.36    1.37
   5  -1  -3   61.46    2.69
  -5   1   3   62.98    2.63
   5  -1  -2  115.11    4.47
  -5   1   2  126.99    5.15
   5  -1  -1  119.49    4.38
  -5   1   1  129.36    4.69
   5  -1   0  136.83    4.81
  -5   1   0  144.02    4.98
   5  -1   1   35.33    1.89
  -5   1  -1   33.52    2.00
   5  -1   2   14.51    1.06
  -5   1  -2   13.65    1.23
   5  -1   3   13.17    1.12
  -5   1  -3   15.09    1.20
   5  -1   4   73.11    2.92
  -5   1  -4   66.18    4.24
   5  -1   5   17.63    1.35
  -5   1  -5   18.86    1.55
   5  -1   6   21.73    1.43
  -5   1  -6   20.95    1.77
   5  -1   7    0.34    1.00
  -5   1  -7    0.17    1.55
   5  -1   8    8.87    1.12
  -5   1  -8   10.45    3.86
   5  -1   9   42.02    2.75
  -5   1  -9   50.67    5.12
   5  -1  10   32.78    2.18
  -5   1 -10   37.44    2.95
   5  -1  11   -0.23    0.83
  -5   1 -11    0.09    1.35
   5  -1  12    0.17    0.77
  -5   1 -12   -1.00    5.10
   5  -1  13   -0.20    1.15
  -5   1 -13   -0.52    1.46
   5   0 -13    0.60    1.09
  -5   0  13    0.43    0.72
   5   0 -12    0.26    0.63
  -5   0  12    0.20    0.31
   5   0 -11    2.00    0.92
  -5   0  11    1.23    0.83
   5   0 -10    0.80    0.72
  -5   0  10    0.09    0.49
   5   0  -9    0.26    0.72
  -5   0   9    0.34    0.49
   5   0  -8    0.00    0.66
  -5   0   8    0.17    0.46
   5   0  -7    0.89    0.74
  -5   0   7    1.23    0.43
   5   0  -6   37.33    1.80
  -5   0   6   41.51    1.92
   5   0  -5  190.74    8.65
  -5   0   5  192.74    6.18
   5   0  -4   51.27    2.43
  -5   0   4   57.08    2.52
   5   0  -3  216.22   10.28
  -5   0   3  221.23    7.87
   5   0  -2    5.10    0.57
  -5   0   2    6.50    0.63
   5   0  -1   20.58    1.29
  -5   0   1   22.27    1.23
   5   0   0   55.62    2.46
  -5   0   0   58.77    2.40
   5   0   1   93.67    4.18
  -5   0  -1   90.75    3.46
   5   0   2   11.88    0.92
  -5   0  -2   14.51    1.29
   5   0   3   19.35    1.15
  -5   0  -3   17.15    2.72
   5   0   4    0.34    0.69
  -5   0  -4    0.83    2.92
   5   0   5    4.12    1.40
  -5   0  -5    5.15    3.06
   5   0   6    4.21    0.97
  -5   0  -6    4.47    1.26
   5   0   7   20.32    1.60
  -5   0  -7   22.24    2.35
   5   0   8    1.35    1.00
  -5   0  -8    1.95    1.69
   5   0   9    0.83    0.86
  -5   0  -9    1.09    1.32
   5   0  10   -0.77    1.23
  -5   0 -10   -0.46    4.61
   5   0  11    2.35    1.23
  -5   0 -11    6.70    1.86
   5   0  12    3.49    1.09
  -5   0 -12    7.16    3.21
   5   0  13    1.35    1.29
  -5   0 -13   -0.72    1.92
  -5  -1  14   -0.06    0.80
   5   1 -13    0.17    1.06
  -5  -1  13    0.06    0.54
   5   1 -12   -0.57    0.89
  -5  -1  12    0.20    0.46
   5   1 -11    0.43    0.72
  -5  -1  11    0.29    0.66
   5   1 -10    3.86    0.83
  -5  -1  10    3.98    0.54
   5   1  -9    1.77    0.74
  -5  -1   9    2.03    0.52
   5   1  -8   21.78    1.35
  -5  -1   8   19.90    1.15
   5   1  -7    0.46    0.60
  -5  -1   7    0.37    0.46
   5   1  -6   13.43    1.09
  -5  -1   6   15.86    1.12
   5   1  -5    0.57    0.40
  -5  -1   5    0.69    0.37
   5   1  -4   36.18    1.86
  -5  -1   4   38.47    1.89
   5   1  -3  319.96   13.86
  -5  -1   3  328.52   10.65
   5   1  -2   54.42    2.75
  -5  -1   2   54.73    2.52
   5   1  -1  106.66    4.55
  -5  -1   1  116.40    4.49
   5   1   0   -0.20    0.43
  -5  -1   0    0.72    0.72
   5   1   1    1.29    0.43
  -5  -1  -1    2.35    1.75
   5   1   2    2.03    0.74
  -5  -1  -2    2.58    1.09
   5   1   3   27.91    1.49
  -5  -1  -3   23.82    4.52
   5   1   4    1.09    0.89
  -5  -1  -4    0.49    1.37
   5   1   5    1.75    0.77
  -5  -1  -5    1.55    1.17
   5   1   6    0.60    0.83
  -5  -1  -6   -0.40    2.61
   5   1   7   -0.43    1.63
  -5  -1  -7   -1.29    3.29
   5   1   8    0.09    1.12
  -5  -1  -8   -0.77    3.61
   5   1   9    2.40    0.92
  -5  -1  -9    8.16    4.58
   5   1  10    0.57    0.89
  -5  -1 -10   -0.17    1.29
   5   1  11    0.54    1.03
  -5  -1 -11   -0.29    1.46
   5   1  12   -0.63    0.77
  -5  -1 -12   -0.29    1.15
   5   1  13   -0.06    0.60
   5   2 -14    0.29    1.29
  -5  -2  14    0.17    0.49
   5   2 -13    1.80    1.86
  -5  -2  13    1.46    0.49
   5   2 -12    3.06    0.92
  -5  -2  12    1.92    0.49
   5   2 -11    0.09    0.77
  -5  -2  11    0.40    0.46
   5   2 -10    0.09    0.72
  -5  -2  10    0.77    0.43
   5   2  -9    1.60    0.54
  -5  -2   9    1.00    0.43
   5   2  -8    9.73    0.86
  -5  -2   8   10.51    0.72
   5   2  -7    5.90    0.60
  -5  -2   7    5.70    0.54
   5   2  -6   48.38    2.12
  -5  -2   6   50.70    2.72
   5   2  -5    7.16    0.66
  -5  -2   5    8.19    0.69
   5   2  -4   16.57    1.09
  -5  -2   4   18.92    1.09
   5   2  -3   37.36    2.75
  -5  -2   3   39.10    2.00
   5   2  -2    8.07    0.86
  -5  -2   2    7.33    0.97
   5   2  -1  207.91    6.78
  -5  -2   1  204.74    6.98
   5   2   0  165.18    6.01
  -5  -2   0  160.05    7.10
   5   2   1   -0.29    0.60
  -5  -2  -1    0.14    1.06
   5   2   2    0.14    0.74
  -5  -2  -2   -3.29    2.89
   5   2   3   12.31    1.17
  -5  -2  -3    9.65    1.26
   5   2   4    0.60    0.92
  -5  -2  -4    0.17    1.52
   5   2   5   -0.20    0.77
  -5  -2  -5    0.03    1.49
   5   2   6    1.26    1.09
  -5  -2  -6    0.46    1.75
   5   2   7    7.56    1.23
  -5  -2  -7    9.93    2.15
   5   2   8    1.15    1.29
  -5  -2  -8    1.60    1.55
   5   2   9    0.17    0.94
  -5  -2  -9    1.75    2.83
   5   2  10    0.52    0.97
  -5  -2 -10   -1.03    2.00
   5   2  11   -0.09    1.06
  -5  -2 -11   -0.69    1.55
   5   2  12    2.38    1.17
   5   3 -14    0.20    0.97
  -5  -3  14   -0.86    4.32
   5   3 -13    0.77    1.06
  -5  -3  13   -0.14    0.34
   5   3 -12    0.23    0.69
  -5  -3  12    0.23    0.57
   5   3 -11    2.23    0.72
  -5  -3  11    1.43    0.54
   5   3 -10    4.24    0.60
  -5  -3  10    3.84    0.60
   5   3  -9    4.98    0.60
  -5  -3   9    6.07    0.72
   5   3  -8   11.45    0.89
  -5  -3   8   11.51    0.72
   5   3  -7    0.72    0.37
  -5  -3   7    0.00    0.34
   5   3  -6    5.18    0.57
  -5  -3   6    5.41    0.66
   5   3  -5   11.79    0.83
  -5  -3   5   10.62    1.17
   5   3  -4   18.46    1.29
  -5  -3   4   17.35    1.63
   5   3  -3   27.51    1.72
  -5  -3   3   28.03    1.60
   5   3  -2    0.40    0.46
  -5  -3   2   -0.60    1.46
   5   3  -1   45.17    2.23
  -5  -3   1   39.65    2.03
   5   3   0    1.32    0.46
  -5  -3   0    0.49    1.66
   5   3   1   33.66    1.83
  -5  -3  -1   34.04    4.32
   5   3   2   60.80    2.46
  -5  -3  -2   62.46    2.81
   5   3   3   11.02    1.03
  -5  -3  -3    9.90    1.40
   5   3   4    0.60    0.69
  -5  -3  -4    0.06    1.03
   5   3   5    4.04    0.86
  -5  -3  -5    4.69    1.26
   5   3   6    0.20    0.77
  -5  -3  -6    0.37    3.52
   5   3   7    0.97    1.20
  -5  -3  -7    0.92    3.41
   5   3   8    0.20    1.09
  -5  -3  -8    0.94    1.66
   5   3   9    0.20    0.92
  -5  -3  -9    2.58    3.01
  -5  -4  14    2.12    4.24
  -5  -4  13    0.03    0.26
  -5  -4  12   -0.52    3.46
  -5  -4  11    1.35    5.24
   5   4 -10    1.29    0.31
   5   4  -9    0.43    0.54
  -5  -4   9   -3.18    5.98
   5   4  -8    1.57    0.26
  -5  -4   8   -0.17    5.93
   5   4  -7    6.96    0.46
  -5  -4   7    6.78    0.72
   5   4  -6   18.61    1.00
  -5  -4   6   17.63    1.55
   5   4  -5   24.05    1.35
  -5  -4   5   23.24    1.89
   5   4  -4    0.23    0.31
  -5  -4   4   -0.66    0.54
   5   4  -3    0.09    0.40
  -5  -4   3   -0.11    0.74
   5   4  -2    0.40    0.49
  -5  -4   2   -2.29    1.89
   5   4  -1    2.29    0.57
  -5  -4   1    4.35    2.20
   5   4   0    0.40    0.60
  -5  -4   0    0.63    1.00
   5   4   1    1.43    0.63
  -5  -4  -1    2.23    1.20
   5   4   2    1.55    0.66
  -5  -4  -2    1.69    1.03
   5   4   3    0.09    0.83
  -5  -4  -3    0.80    3.03
   5   4   4   12.45    1.26
  -5  -4  -4   13.86    1.83
   5   4   5    1.40    0.72
  -5  -4  -5    1.60    1.75
   5   4   6    0.80    0.80
  -5  -4  -6    1.46    1.35
   5   4   7   -0.14    1.06
  -5  -4  -7    0.83    3.18
   5   4   8    0.63    1.15
  -5  -4  -8   -0.06    1.63
   5   4   9   -0.11    0.49
  -5  -4  -9   -0.34    1.15
   5   4  10   -0.06    0.49
  -5  -5  11    1.46    3.01
   5   5 -10    1.15   18.75
  -5  -5  10   -0.86    4.06
  -5  -5   9   10.91    5.90
  -5  -5   8   15.32    6.56
  -5  -5   7   19.44    6.73
   5   5  -6    0.49    0.23
  -5  -5   6    0.34    0.37
   5   5  -5    0.40    0.26
  -5  -5   5   -0.29    0.86
   5   5  -4    2.49    0.46
  -5  -5   4    3.21    0.63
   5   5  -3   55.19    2.78
  -5  -5   3   48.41    2.20
   5   5  -2    4.09    0.54
  -5  -5   2    4.49    0.94
   5   5  -1    1.49    0.63
  -5  -5   1    1.75    2.55
   5   5   0    1.63    0.63
  -5  -5   0    0.60    1.29
   5   5   1    1.06    0.83
  -5  -5  -1    1.75    1.35
   5   5   2   -0.26    0.66
  -5  -5  -2   -1.80    3.12
   5   5   3    1.15    0.86
  -5  -5  -3    0.20    1.55
   5   5   4   -0.06    0.69
  -5  -5  -4    0.31    1.15
   5   5   5    0.14    0.60
  -5  -5  -5    0.09    1.92
   5   5   6   -0.06    0.77
  -5  -5  -6    0.66    1.20
   5   5   7    0.06    0.86
  -5  -6  13    3.21    4.15
   5   6 -11    6.33   11.22
  -5  -6  11   -0.46    3.29
   5   6 -10   10.36   15.74
  -5  -6  10    0.86    4.87
   5   6  -9   10.82   13.05
  -5  -6   9    3.92    4.01
  -5  -6   8    1.66    5.93
   5   6  -7   11.42   12.57
  -5  -6   7   12.42    7.76
  -5  -6   6   13.63    0.77
   5   6  -5   24.76    1.12
  -5  -6   5   22.84    2.20
   5   6  -4    5.55    0.52
  -5  -6   4    6.76    1.43
   5   6  -3    2.55    0.49
  -5  -6   3    3.29    1.89
   5   6  -2    0.74    0.54
  -5  -6   2   -0.09    0.86
   5   6  -1   13.25    0.89
  -5  -6   1   11.91    1.75
   5   6   0    9.02    0.83
  -5  -6   0    9.05    1.46
   5   6   1    2.06    0.83
  -5  -6  -1    2.52    1.43
   5   6   2    1.23    0.86
  -5  -6  -2   -0.09    1.60
   5   6   3    0.74    0.60
  -5  -6  -3    0.66    1.35
   5   6   4    0.26    0.63
  -5  -6  -4    1.43    2.00
   5   6   5   -0.46    0.74
   5   6   6    0.14    0.49
  -5  -6  -6    0.29    1.06
  -5  -6  -8    0.20    0.83
  -5  -7  12   -1.49    4.35
  -5  -7  11    7.30    5.30
  -5  -7  10    0.03    3.32
  -5  -7   9   -3.38    4.47
   5   7  -8   -4.52   12.51
  -5  -7   8    2.58    4.95
  -5  -7   6    5.64    4.92
   5   7  -5    0.74    0.23
  -5  -7   5    0.86    0.31
   5   7  -4    6.47    0.52
  -5  -7   4    6.64    0.86
   5   7  -3    6.64    0.69
  -5  -7   3    7.53    1.15
   5   7  -2    5.10    0.63
  -5  -7   2    5.41    1.03
   5   7  -1    1.46    0.72
  -5  -7   1    3.01    1.09
   5   7   0    0.86    0.60
  -5  -7   0    0.63    1.20
   5   7   1    1.86    0.60
  -5  -7  -1    3.95    1.63
   5   7   2    3.12    0.74
  -5  -7  -2    4.44    1.92
   5   7   3    0.43    0.54
  -5  -7  -3    1.03    1.89
   5   7   4   -0.09    0.74
  -5  -7  -4   -0.86    2.03
  -5  -7  -6    0.23    0.92
  -5  -8  11   -0.49    3.18
  -5  -8  10    2.86    6.38
  -5  -8   9   -2.09    5.07
  -5  -8   8    0.94    5.52
  -5  -8   7    1.40    5.24
  -5  -8   6    2.49    4.35
   5   8  -5    0.00    0.26
  -5  -8   5    0.20    0.43
   5   8  -4    0.92    0.37
  -5  -8   4    0.40    0.49
   5   8  -3    0.29    0.46
  -5  -8   3    0.20    0.69
   5   8  -2    0.83    0.34
  -5  -8   2    0.83    1.12
   5   8  -1    1.52    0.69
  -5  -8   1    2.46    1.23
   5   8   0    0.69    0.63
   5   8   1    0.46    0.60
   5   8   2    0.00    0.57
   5   8   3    0.60    1.12
  -5  -9   8    1.92    4.38
  -5  -9   6   -2.00    4.58
   5   9  -5    0.29    0.37
  -5  -9   5   -2.52    4.01
   5   9  -4    0.00    0.37
  -5  -9   4    0.26    0.52
   5   9  -2    0.03    0.43
  -6  10   0    0.26    0.86
  -6  10  -1    0.09    0.54
  -6  10  -2    0.03    0.54
  -6  10  -3   -0.26    0.60
  -6  10  -4    0.66    1.52
  -6  10 -10    2.55    1.83
  -6   9   4    2.43    1.69
  -6   9   3   -0.11    0.49
  -6   9   2    1.09    0.57
   6  -9  -1   -0.63    3.29
  -6   9   1    0.26    0.72
   6  -9   0   -0.20    1.03
  -6   9   0    0.37    0.80
   6  -9   1    0.06    0.89
  -6   9  -1    1.92    0.86
   6  -9   2    0.57    0.92
  -6   9  -2    0.06    1.00
   6  -9   3   -0.14    0.89
  -6   9  -3    0.80    0.92
   6  -9   4   -0.11    0.74
  -6   9  -4    0.31    0.77
   6  -9   5   -0.11    0.72
  -6   9  -5    0.03    0.74
  -6   9  -6    0.23    0.97
   6  -9   7    0.26    0.89
  -6   9  -7    0.69    1.55
   6  -9   8   -0.29    0.63
   6  -9  10   -0.37    0.80
   6  -9  11    0.00    0.43
  -6   8   6    0.29    0.66
  -6   8   5   -0.11    0.80
   6  -8  -4    0.31    1.63
  -6   8   4    0.14    0.60
   6  -8  -3    0.60    1.37
  -6   8   3    0.43    0.74
   6  -8  -2    5.41    1.55
  -6   8   2    2.89    1.00
   6  -8  -1    2.09    1.06
  -6   8   1    1.40    0.89
   6  -8   0    0.46    1.12
  -6   8   0    0.26    0.89
   6  -8   1    4.90    1.00
  -6   8  -1    4.09    0.89
   6  -8   2    0.97    0.94
  -6   8  -2    0.34    0.77
   6  -8   3    2.72    1.03
  -6   8  -3    2.23    0.94
   6  -8   4    4.58    1.06
  -6   8  -4    6.27    0.97
   6  -8   5    0.94    0.83
  -6   8  -5    0.77    1.15
   6  -8   6    1.57    0.97
  -6   8  -6    2.00    1.00
   6  -8   7    1.66    0.92
  -6   8  -7    2.00    1.98
   6  -8   8    0.80    1.12
  -6   8  -8    0.89    1.80
   6  -8   9   -0.29    1.03
   6  -8  10    0.17    0.69
  -6   7   8   -0.11    0.72
  -6   7   7    0.14    0.80
   6  -7  -5    1.60    1.49
  -6   7   5   -0.17    0.80
   6  -7  -4   -0.09    1.09
  -6   7   4    0.17    0.72
   6  -7  -3    1.37    0.97
  -6   7   3    1.32    0.74
   6  -7  -2    0.26    1.03
  -6   7   2    1.32    0.94
   6  -7  -1    0.57    1.23
  -6   7   1    0.77    0.92
   6  -7   0    4.47    1.12
  -6   7   0    4.61    0.83
   6  -7   1    9.48    1.15
  -6   7  -1   11.05    1.06
   6  -7   2    1.60    1.06
  -6   7  -2    0.92    0.92
   6  -7   3    3.52    1.29
  -6   7  -3    3.55    0.86
   6  -7   4    2.95    1.29
  -6   7  -4    1.20    1.09
   6  -7   5    3.89    1.26
  -6   7  -5    2.98    1.00
   6  -7   6    8.04    1.52
  -6   7  -6    7.44    1.52
   6  -7   7    2.98    1.29
  -6   7  -7    0.49    1.52
   6  -7   8    2.40    0.83
  -6   7  -8    6.67    2.72
   6  -7   9    0.54    0.89
  -6   7  -9    0.14    1.35
   6  -7  10   -0.46    1.32
  -6   7 -10   -0.34    2.46
  -6   6  10    0.72    0.92
  -6   6   9    0.29    1.00
   6  -6  -8   -0.17    0.77
  -6   6   8    0.31    0.92
   6  -6  -7    0.80    1.46
  -6   6   7    0.31    0.92
   6  -6  -6   -0.11    1.40
  -6   6   6    0.26    0.69
   6  -6  -5    0.54    0.94
  -6   6   5    0.26    0.57
   6  -6  -4    1.32    1.00
  -6   6   4    1.12    0.83
   6  -6  -3   -0.52    1.29
  -6   6   3    0.80    0.86
   6  -6  -2    0.94    0.86
  -6   6   2    0.74    0.83
   6  -6  -1    0.66    1.17
  -6   6   1   -0.06    0.69
   6  -6   0    0.31    1.26
  -6   6   0    1.86    0.77
   6  -6   1    5.52    0.94
  -6   6  -1    4.84    0.94
   6  -6   2    0.23    1.06
  -6   6  -2    0.86    0.72
   6  -6   3    3.69    1.35
  -6   6  -3    4.90    1.09
   6  -6   4    1.43    0.86
  -6   6  -4    2.40    0.97
   6  -6   5    0.94    0.77
  -6   6  -5    2.15    0.94
   6  -6   6    0.37    0.74
  -6   6  -6    0.00    1.15
   6  -6   7    0.74    0.77
  -6   6  -7    0.77    1.32
   6  -6   8    5.12    1.43
  -6   6  -8    4.21    2.75
   6  -6   9    1.92    1.32
  -6   6  -9    3.23    1.80
   6  -6  10    0.11    0.89
  -6   6 -10    0.74    1.32
   6  -6  11    0.34    0.94
  -6   6 -11   -0.09    1.40
   6  -6  12   -0.03    1.40
   6  -5  -9    0.06    1.23
  -6   5   9   -0.29    1.37
   6  -5  -8    1.32    0.94
  -6   5   8    0.17    0.66
   6  -5  -7   13.83    1.63
  -6   5   7    7.39    0.94
   6  -5  -6   10.53    1.23
  -6   5   6    8.67    0.97
   6  -5  -5    1.17    0.97
  -6   5   5    0.57    0.54
   6  -5  -4    0.29    0.89
  -6   5   4    0.54    0.60
   6  -5  -3   -0.20    0.92
  -6   5   3   -0.20    0.52
   6  -5  -2   10.65    1.17
  -6   5   2   13.00    1.46
   6  -5  -1    8.85    1.06
  -6   5   1    7.50    1.03
   6  -5   0    1.86    0.80
  -6   5   0    1.72    0.60
   6  -5   1    1.63    0.74
  -6   5  -1    1.92    0.83
   6  -5   2    0.60    1.00
  -6   5  -2    0.46    0.63
   6  -5   3   13.03    1.29
  -6   5  -3   11.25    1.12
   6  -5   4   21.53    1.46
  -6   5  -4   20.67    1.75
   6  -5   5    1.69    1.12
  -6   5  -5    0.92    1.03
   6  -5   6    0.00    1.09
  -6   5  -6    1.20    1.35
   6  -5   7    0.54    1.23
  -6   5  -7    0.69    1.63
   6  -5   8    2.95    1.09
  -6   5  -8    1.66    1.60
   6  -5   9   -0.17    1.15
  -6   5  -9    2.66    1.49
   6  -5  10    0.77    1.29
  -6   5 -10   -0.26    2.00
   6  -5  11    0.34    1.37
  -6   5 -11    0.92    2.32
   6  -4 -11    1.12    1.69
  -6   4  11   -0.46    1.35
   6  -4 -10   -0.60    1.17
  -6   4  10   -0.26    0.83
   6  -4  -9    0.57    1.32
  -6   4   9    0.17    0.83
   6  -4  -8    0.09    1.09
  -6   4   8    0.43    0.54
   6  -4  -7   -0.06    1.26
  -6   4   7   -0.31    0.63
   6  -4  -6   -0.34    0.74
  -6   4   6    0.26    0.66
   6  -4  -5   14.31    1.49
  -6   4   5   13.48    1.20
   6  -4  -4   78.55    3.44
  -6   4   4   67.22    3.32
   6  -4  -3    9.93    1.00
  -6   4   3    8.79    0.92
   6  -4  -2    4.55    1.09
  -6   4   2    3.29    0.66
   6  -4  -1    0.60    0.72
  -6   4   1   -0.80    1.55
   6  -4   0   16.40    1.17
  -6   4   0   17.43    1.15
   6  -4   1   21.87    1.66
  -6   4  -1   20.18    1.69
   6  -4   2   22.19    1.57
  -6   4  -2   22.04    1.43
   6  -4   3    7.76    1.20
  -6   4  -3    9.82    1.03
   6  -4   4    2.89    1.23
  -6   4  -4    3.95    1.20
   6  -4   5   15.80    1.46
  -6   4  -5   15.09    1.86
   6  -4   6   35.93    2.20
  -6   4  -6   33.72    2.23
   6  -4   7   14.51    1.43
  -6   4  -7   14.06    1.69
   6  -4   8    3.21    1.26
  -6   4  -8    3.06    1.80
   6  -4   9    2.58    0.97
  -6   4  -9    0.34    2.32
   6  -4  10    0.94    1.03
  -6   4 -10    0.26    3.41
   6  -4  11    2.89    0.77
  -6   4 -11    0.69    2.23
   6  -4  12    0.60    0.80
   6  -3 -12   -0.40    1.49
  -6   3  12   -0.57    1.03
   6  -3 -11    0.40    1.26
  -6   3  11    0.37    0.57
   6  -3 -10    0.69    1.29
  -6   3  10   -0.54    0.69
   6  -3  -9    0.83    1.06
  -6   3   9   -0.09    0.57
   6  -3  -8    0.06    1.00
  -6   3   8    0.06    0.69
   6  -3  -7   -0.34    1.20
  -6   3   7    0.31    0.69
   6  -3  -6    1.43    0.74
  -6   3   6    0.40    0.54
   6  -3  -5    1.26    0.77
  -6   3   5    0.83    0.52
   6  -3  -4    2.20    0.77
  -6   3   4    1.86    0.66
   6  -3  -3    1.60    0.86
  -6   3   3    1.12    0.63
   6  -3  -2   96.90    4.49
  -6   3   2   96.27    3.75
   6  -3  -1   67.07    2.69
  -6   3   1   63.04    2.69
   6  -3   0    0.11    0.69
  -6   3   0   -0.06    0.66
   6  -3   1    0.09    0.66
  -6   3  -1    0.83    1.23
   6  -3   2   10.42    1.12
  -6   3  -2   10.65    1.06
   6  -3   3   13.17    1.32
  -6   3  -3   12.02    1.37
   6  -3   4   12.05    1.15
  -6   3  -4   10.85    1.40
   6  -3   5   19.41    1.55
  -6   3  -5   20.84    1.52
   6  -3   6    6.01    0.94
  -6   3  -6    5.24    1.35
   6  -3   7    7.90    1.17
  -6   3  -7    7.84    1.72
   6  -3   8   16.60    1.57
  -6   3  -8   14.57    3.61
   6  -3   9   18.24    1.75
  -6   3  -9   13.51    2.29
   6  -3  10   -0.14    1.06
  -6   3 -10    5.18    4.12
   6  -3  11    2.23    1.09
  -6   3 -11    1.80    1.80
   6  -3  12   -0.14    0.74
  -6   3 -12   -0.09    1.40
   6  -2 -13    0.57    1.12
  -6   2  13   -0.14    0.66
   6  -2 -12   -0.11    1.09
  -6   2  12    0.06    0.46
   6  -2 -11    0.77    1.37
  -6   2  11    0.92    0.72
   6  -2 -10    0.92    0.94
  -6   2  10    0.31    0.57
   6  -2  -9   13.97    1.40
  -6   2   9   16.03    1.06
   6  -2  -8   13.17    1.43
  -6   2   8   14.06    1.12
   6  -2  -7    5.12    1.17
  -6   2   7    3.66    0.63
   6  -2  -6    7.19    1.15
  -6   2   6    7.01    0.69
   6  -2  -5    0.74    0.86
  -6   2   5    0.43    0.63
   6  -2  -4   25.05    1.92
  -6   2   4   27.71    1.69
   6  -2  -3    5.95    1.09
  -6   2   3    7.41    0.74
   6  -2  -2    9.79    1.12
  -6   2   2   10.59    1.03
   6  -2  -1    8.42    1.17
  -6   2   1    8.53    0.97
   6  -2   0   10.91    1.06
  -6   2   0   11.16    1.17
   6  -2   1  107.01    3.86
  -6   2  -1  110.18    4.06
   6  -2   2    0.37    0.80
  -6   2  -2   -0.60    0.97
   6  -2   3    3.66    0.74
  -6   2  -3    2.63    1.69
   6  -2   4    0.63    0.92
  -6   2  -4    1.29    1.32
   6  -2   5    3.52    1.00
  -6   2  -5    5.67    1.32
   6  -2   6   -0.20    0.94
  -6   2  -6    0.43    1.75
   6  -2   7   -0.23    0.72
  -6   2  -7    2.43    2.81
   6  -2   8    9.68    1.32
  -6   2  -8    7.84    2.20
   6  -2   9    1.46    0.89
  -6   2  -9    4.01    4.32
   6  -2  10    1.55    1.26
  -6   2 -10    3.32    1.83
   6  -2  11    3.64    1.03
  -6   2 -11    4.47    1.35
   6  -2  12   -0.11    0.92
   6  -1 -13    0.34    0.92
  -6   1  13   -0.03    0.54
   6  -1 -12    0.34    0.92
  -6   1  12    0.37    0.49
   6  -1 -11    1.32    1.29
  -6   1  11    1.20    0.66
   6  -1 -10    2.29    1.23
  -6   1  10    1.75    0.57
   6  -1  -9    3.98    1.17
  -6   1   9    3.52    0.77
   6  -1  -8    2.83    1.00
  -6   1   8    1.43    0.69
  -6   1   7   63.58    3.64
   6  -1  -6   92.72    4.87
  -6   1   6  114.82    6.38
   6  -1  -5   42.17    1.98
  -6   1   5   39.71    1.75
   6  -1  -4   56.62    2.52
  -6   1   4   55.51    2.63
   6  -1  -3    7.64    1.09
  -6   1   3    8.79    0.94
   6  -1  -2   29.54    1.95
  -6   1   2   29.46    1.69
   6  -1  -1  102.65    4.32
  -6   1   1  100.31    3.98
   6  -1   0   36.79    1.98
  -6   1   0   42.02    1.95
   6  -1   1   34.12    2.23
  -6   1  -1   31.86    2.20
   6  -1   2    9.59    0.97
  -6   1  -2    9.82    1.09
   6  -1   3   23.10    1.72
  -6   1  -3   23.39    1.92
   6  -1   4    1.40    1.00
  -6   1  -4    2.26    1.46
   6  -1   5   10.08    1.23
  -6   1  -5    5.27    3.29
   6  -1   6    4.64    1.09
  -6   1  -6    3.81    1.92
   6  -1   7    0.40    0.83
  -6   1  -7   -1.57    4.09
   6  -1   8    0.29    1.20
  -6   1  -8    0.46    1.92
   6  -1   9    6.04    1.00
  -6   1  -9    7.61    3.26
   6  -1  10    0.14    1.09
  -6   1 -10    0.23    1.46
   6  -1  11    1.52    1.09
  -6   1 -11   -0.29    2.03
   6   0 -13    0.43    0.54
  -6   0  13    0.49    0.57
   6   0 -12    0.66    0.80
  -6   0  12    0.60    0.43
   6   0 -11    1.46    1.12
  -6   0  11    1.37    0.66
   6   0 -10    1.52    1.03
  -6   0  10    0.89    0.54
   6   0  -9    8.76    1.00
  -6   0   9    8.22    0.72
   6   0  -8   19.29    1.37
  -6   0   8   17.72    0.94
   6   0  -7    0.66    0.92
  -6   0   7    0.46    0.57
   6   0  -6   54.33    2.32
  -6   0   6   59.29    2.20
   6   0  -5   59.69    2.92
  -6   0   5   64.35    2.63
   6   0  -4  303.84   10.05
  -6   0   4  324.45   10.82
   6   0  -3  169.90    6.53
  -6   0   3  186.19    6.70
   6   0  -2   89.52    3.55
  -6   0   2   95.98    3.46
   6   0  -1   87.77    3.49
  -6   0   1   90.15    3.61
   6   0   0   11.36    1.23
  -6   0   0   13.57    1.40
   6   0   1  148.57    4.87
  -6   0  -1  151.29    5.15
   6   0   2   55.56    2.78
  -6   0  -2   58.43    3.18
   6   0   3   65.67    3.15
  -6   0  -3   60.69    2.95
   6   0   4   20.04    1.52
  -6   0  -4   13.14    3.03
   6   0   5    0.74    0.94
  -6   0  -5    0.60    1.77
   6   0   6    0.52    1.49
  -6   0  -6    2.20    1.77
   6   0   7    1.83    0.80
  -6   0  -7    1.09    1.37
   6   0   8    4.95    1.35
  -6   0  -8    4.04    4.55
   6   0   9    0.03    1.29
  -6   0  -9    0.06    1.83
   6   0  10    0.06    1.23
  -6   0 -10    0.83    2.03
   6   0  11    1.92    0.66
  -6   0 -11    1.49    1.49
   6   0  12   -0.23    0.63
  -6   0 -12   -0.23    1.03
  -6  -1  14    0.17    0.40
  -6  -1  13    0.03    0.49
   6   1 -12    0.46    0.69
  -6  -1  12    0.37    0.80
   6   1 -11    1.17    0.97
  -6  -1  11    0.86    0.60
   6   1 -10    0.54    0.89
  -6  -1  10   -0.03    0.57
   6   1  -9    0.74    0.54
  -6  -1   9    0.94    0.49
   6   1  -8    2.49    0.74
  -6  -1   8    2.69    0.54
   6   1  -7   13.08    1.00
  -6  -1   7   12.28    0.94
   6   1  -6   48.06    2.20
  -6  -1   6   44.71    2.15
   6   1  -5   30.34    1.63
  -6  -1   5   32.66    1.75
   6   1  -4  106.03    4.29
  -6  -1   4  107.29    3.98
   6   1  -3   13.83    1.09
  -6  -1   3   14.74    1.12
   6   1  -2  336.76   11.62
  -6  -1   2  320.10    9.76
   6   1  -1  269.35   13.40
  -6  -1   1  269.12    8.85
   6   1   0   88.46    3.55
  -6  -1   0   87.60    3.64
   6   1   1   72.48    3.12
  -6  -1  -1   60.80    4.47
   6   1   2   15.74    1.32
  -6  -1  -2   15.00    2.03
   6   1   3   54.93    2.38
  -6  -1  -3   56.57    4.44
   6   1   4   28.48    1.83
  -6  -1  -4   31.95    2.46
   6   1   5   25.51    2.12
  -6  -1  -5   30.95    2.72
   6   1   6   14.31    1.26
  -6  -1  -6   12.05    3.92
   6   1   7    0.06    0.94
  -6  -1  -7    1.32    1.60
   6   1   8    2.55    2.03
  -6  -1  -8    0.77    5.01
   6   1   9    0.14    0.92
  -6  -1  -9   -1.20    3.72
   6   1  10   -0.20    0.97
  -6  -1 -10    0.80    1.55
   6   1  11   -0.14    1.09
  -6  -1 -11   -0.11    1.37
  -6  -2  13    1.15    3.26
   6   2 -12    0.43    0.89
  -6  -2  12    0.52    0.57
   6   2 -11   -0.06    0.74
  -6  -2  11    0.00    0.52
   6   2 -10   -0.03    0.49
  -6  -2  10   -0.20    0.46
   6   2  -9   -0.11    0.69
  -6  -2   9    0.26    0.46
   6   2  -8    0.52    0.49
  -6  -2   8    1.17    0.54
   6   2  -7    2.58    0.49
  -6  -2   7    2.29    0.52
   6   2  -6    0.57    0.60
  -6  -2   6    0.31    0.54
   6   2  -5    2.86    0.46
  -6  -2   5    2.55    0.52
   6   2  -4   45.86    2.06
  -6  -2   4   43.48    2.23
   6   2  -3   40.54    1.95
  -6  -2   3   38.19    2.20
   6   2  -2   23.59    1.66
  -6  -2   2   24.19    1.69
   6   2  -1  197.24    6.24
  -6  -2   1  174.28    5.93
   6   2   0   55.82    2.72
  -6  -2   0   55.91    2.89
   6   2   1  117.86    4.69
  -6  -2  -1   96.33    6.07
   6   2   2   69.25    3.15
  -6  -2  -2   67.93    3.44
   6   2   3   10.88    1.32
  -6  -2  -3   14.11    2.00
   6   2   4    8.44    1.12
  -6  -2  -4    8.99    4.61
   6   2   5    8.42    1.12
  -6  -2  -5   14.03    3.41
   6   2   6    5.87    1.09
  -6  -2  -6    7.41    1.66
   6   2   7    4.09    0.94
  -6  -2  -7    6.58    1.77
   6   2   8    2.95    1.03
  -6  -2  -8    2.29    1.23
   6   2   9    0.11    0.86
  -6  -2  -9   -0.46    1.23
   6   3 -13    0.31    0.69
  -6  -3  13    0.03    0.52
   6   3 -12   -0.46    0.63
  -6  -3  12    0.17    0.37
   6   3 -11    2.61    0.66
  -6  -3  11    2.98    0.52
   6   3 -10    1.40    0.63
  -6  -3  10    2.32    0.49
   6   3  -9    2.49    0.54
  -6  -3   9    3.29    0.52
   6   3  -8    0.17    0.52
  -6  -3   8    0.37    0.43
   6   3  -7    3.18    0.60
  -6  -3   7    2.95    0.54
   6   3  -6    0.57    0.46
  -6  -3   6    0.54    0.60
   6   3  -5   10.42    0.97
  -6  -3   5   11.16    1.15
   6   3  -4   21.13    1.40
  -6  -3   4   19.49    2.12
   6   3  -3    1.75    0.54
  -6  -3   3    2.23    0.92
   6   3  -2    3.92    0.69
  -6  -3   2    3.26    1.03
   6   3  -1   19.58    1.12
  -6  -3   1   16.78    2.61
   6   3   0    1.40    0.66
  -6  -3   0   -2.15    2.92
   6   3   1   96.90    3.64
  -6  -3  -1   98.99    5.84
   6   3   2    7.24    0.86
  -6  -3  -2    3.46    3.92
   6   3   3   14.17    1.20
  -6  -3  -3   17.29    2.00
   6   3   4   15.34    1.29
  -6  -3  -4   19.01    2.20
   6   3   5    1.43    0.92
  -6  -3  -5    2.75    1.37
   6   3   6    1.09    0.83
  -6  -3  -6    1.15    1.23
   6   3   7    0.34    0.74
  -6  -3  -7    1.29    1.55
   6   3   8    0.06    0.46
  -6  -3  -8    0.43    0.80
  -6  -4  13    1.40    4.52
  -6  -4  12    2.89    3.92
   6   4 -11    0.40    0.60
  -6  -4  11    0.17    0.43
   6   4 -10    0.69    0.37
   6   4  -9    4.21    1.37
  -6  -4   9    5.32    0.49
   6   4  -8   15.49    2.12
  -6  -4   8   12.62    0.94
   6   4  -7   12.14    0.80
  -6  -4   7    8.39    1.03
   6   4  -6    3.98    0.54
  -6  -4   6    3.18    0.94
   6   4  -5    2.35    0.46
  -6  -4   5    2.89    0.97
   6   4  -4    7.90    0.77
  -6  -4   4    7.99    1.57
   6   4  -3    3.78    0.54
  -6  -4   3    4.04    1.63
   6   4  -2   28.11    1.69
  -6  -4   2   29.89    3.06
   6   4  -1    4.32    0.74
  -6  -4   1    4.90    1.26
   6   4   0    1.86    0.77
  -6  -4   0    2.75    1.32
   6   4   1    4.06    0.86
  -6  -4  -1    3.66    1.63
   6   4   2    0.11    0.74
  -6  -4  -2    0.29    1.12
   6   4   3   12.60    1.32
  -6  -4  -3   17.95    5.24
   6   4   4   14.49    2.32
  -6  -4  -4   19.44    2.40
   6   4   5    0.26    0.92
  -6  -4  -5   -0.97    1.75
   6   4   6    1.23    0.54
  -6  -4  -6    3.44    1.43
   6   4   7   -0.20    0.49
  -6  -4  -7   -0.20    0.89
   6   4   8   -0.09    0.66
  -6  -5  11    1.43    5.55
   6   5 -10    8.02   12.74
  -6  -5  10    0.31    6.01
   6   5  -9    0.11   17.66
  -6  -5   9    4.01    7.47
   6   5  -8    0.09   14.97
  -6  -5   8    3.92    7.47
   6   5  -7    5.01    0.43
  -6  -5   7    3.95    0.54
   6   5  -6   34.32    1.46
  -6  -5   6   25.28    2.06
   6   5  -5   18.38    1.03
  -6  -5   5   14.08    1.89
   6   5  -4    2.18    0.54
  -6  -5   4    1.12    1.37
   6   5  -3    0.69    0.46
  -6  -5   3    0.52    0.83
   6   5  -2    2.23    0.63
  -6  -5   2    4.32    2.38
   6   5  -1    0.54    0.60
  -6  -5   1    0.63    1.23
   6   5   0    5.75    0.89
  -6  -5   0    4.24    3.46
   6   5   1    3.92    0.83
  -6  -5  -1    5.32    1.86
   6   5   2    1.15    1.00
  -6  -5  -2    1.83    3.89
   6   5   3    0.37    1.00
  -6  -5  -3    0.26    1.66
   6   5   4    0.17    0.66
  -6  -5  -4    0.54    1.23
   6   5   5   -0.29    0.57
  -6  -5  -5    0.14    1.32
   6   5   6    1.72    0.97
  -6  -5  -6    5.27    2.35
   6   5   7    0.17    0.49
  -6  -5  -7    0.34    1.20
  -6  -5  -8    0.72    3.09
   6   6 -10  -11.79   14.37
  -6  -6  10   -1.49    3.69
   6   6  -9   -9.28   16.63
  -6  -6   9   -5.38    5.15
   6   6  -8    5.73   14.14
  -6  -6   8   -8.07    7.33
   6   6  -7   -3.92   13.45
  -6  -6   7    2.98    7.04
   6   6  -6    0.11    0.26
  -6  -6   6   -0.34    0.74
   6   6  -5    0.29    0.31
  -6  -6   5    0.34    1.40
   6   6  -4    3.92    0.46
  -6  -6   4    3.58    1.95
   6   6  -3    8.04    0.74
  -6  -6   3    6.93    2.58
   6   6  -2    0.00    0.57
  -6  -6   2    0.72    1.00
   6   6  -1    0.00    0.60
  -6  -6   1    0.43    2.63
   6   6   0   -0.14    0.74
  -6  -6   0   -0.14    3.23
   6   6   1    0.26    0.69
  -6  -6  -1    0.54    1.49
   6   6   2    0.03    0.97
  -6  -6  -2   -0.57    1.75
   6   6   3    0.54    0.57
   6   6   4    0.09    0.46
  -6  -6  -4    0.43    1.92
  -6  -6  -5   -0.09    3.06
  -6  -6  -6   -1.72    4.09
   6   7  -6    0.97    0.29
  -6  -7   6    0.54    0.29
   6   7  -5   -0.11    0.31
  -6  -7   5   -0.31    0.54
   6   7  -4    0.00    0.43
  -6  -7   4    0.94    0.74
   6   7  -3    0.09    0.52
  -6  -7   3   -0.49    2.20
   6   7  -2   -0.11    0.49
  -6  -7   2   -0.66    1.00
   6   7  -1    0.46    0.60
  -6  -7   1    0.49    0.69
   6   7   0    0.14    0.60
  -6  -7   0   -0.23    4.18
   6   7   1    0.00    0.46
  -6  -7  -1   -0.06    0.74
   6   7   2    0.29    0.43
  -6  -7  -2   -0.17    0.69
  -6  -8   5    0.11    3.78
   6   8  -4    0.74    0.34
  -6  -8   4    1.12    0.69
   6   8  -3   -0.20    0.49
  -6  -8   3    0.40    0.89
   6   8  -2    0.97    0.69
   6   8  -1    1.00    0.74
   6   8   0   -0.31    0.74
   6   8   1    0.23    0.77
  -7   9   1   -0.26    0.69
  -7   9   0    0.17    0.69
  -7   9  -4    0.66    1.52
  -7   9  -6    0.46    1.63
  -7   8   4    0.66    0.86
   7  -8  -3    2.12    3.03
  -7   8   3    3.92    1.06
   7  -8  -2    1.06    1.35
  -7   8   2    0.52    0.89
   7  -8  -1    0.40    1.46
  -7   8   1    0.00    1.03
   7  -8   0    0.31    1.35
  -7   8   0    0.49    0.86
   7  -8   1    0.49    1.49
  -7   8  -1    0.43    1.55
   7  -8   2   -0.89    1.52
  -7   8  -2    0.83    1.60
   7  -8   3    0.34    1.37
  -7   8  -3    0.23    1.06
   7  -8   4    0.66    1.43
  -7   8  -4    0.94    1.17
   7  -8   5   -0.29    1.32
  -7   8  -5   -0.69    1.17
   7  -8   6   -0.09    1.52
  -7   8  -6   -0.03    1.40
   7  -8   7    3.75    1.17
  -7   7   5    0.66    1.00
   7  -7  -4    0.89    3.55
  -7   7   4    0.34    0.92
   7  -7  -3   -0.06    1.00
  -7   7   3   -0.46    0.86
   7  -7  -2    1.49    1.20
  -7   7   2    0.97    0.86
   7  -7  -1    7.70    1.35
  -7   7   1    9.62    1.12
   7  -7   0   11.08    1.75
  -7   7   0    5.61    1.26
   7  -7   1   -0.43    1.49
  -7   7  -1    0.03    1.03
   7  -7   2    2.00    3.75
  -7   7  -2    1.92    0.89
   7  -7   3    3.86    1.55
  -7   7  -3    4.04    0.97
   7  -7   4    0.86    1.12
  -7   7  -4    0.77    1.03
   7  -7   5    0.03    1.49
  -7   7  -5    1.72    1.46
   7  -7   6    1.15    1.52
  -7   7  -6   -0.26    1.63
   7  -7   7   -0.52    1.35
  -7   7  -7   -0.52    2.43
   7  -7   8    2.03    1.09
  -7   7  -8    0.89    1.57
   7  -7   9    0.23    1.57
  -7   7  -9    0.29    2.69
   7  -6  -7   -0.11    1.23
  -7   6   7    1.23    0.77
   7  -6  -6    1.03    1.49
  -7   6   6    2.20    0.92
   7  -6  -5    2.83    1.06
  -7   6   5    2.78    0.63
   7  -6  -4    3.64    1.09
  -7   6   4    4.49    0.94
   7  -6  -3    4.27    1.46
  -7   6   3    5.81    1.66
   7  -6  -2    5.64    1.29
  -7   6   2    5.24    1.00
   7  -6  -1    6.24    1.23
  -7   6   1    4.78    0.92
   7  -6   0    2.38    0.89
  -7   6   0    1.72    0.69
   7  -6   1   18.64    1.95
  -7   6  -1   13.94    1.49
   7  -6   2   41.94    2.95
  -7   6  -2   42.40    3.38
   7  -6   3    6.21    1.32
  -7   6  -3    8.85    1.17
   7  -6   4    0.66    1.06
  -7   6  -4    0.77    1.17
   7  -6   5   13.31    1.37
  -7   6  -5   18.01    1.66
   7  -6   6    6.27    1.20
  -7   6  -6    3.06    1.72
   7  -6   7    1.69    1.35
  -7   6  -7    2.83    1.32
   7  -6   8    1.69    1.37
  -7   6  -8    1.46    1.69
   7  -6   9    0.17    0.97
  -7   6  -9    0.31    1.32
  -7   6 -10   -0.11    2.03
   7  -5  -8    0.40    1.20
  -7   5   8    0.74    0.74
   7  -5  -7    1.55    1.32
  -7   5   7   -0.23    0.66
   7  -5  -6    1.17    1.17
  -7   5   6    0.37    0.74
   7  -5  -5    4.90    1.20
  -7   5   5    4.12    0.89
   7  -5  -4    3.23    1.32
  -7   5   4    2.09    0.74
   7  -5  -3    6.15    1.15
  -7   5   3    4.58    0.77
   7  -5  -2    8.16    1.57
  -7   5   2    7.27    1.09
   7  -5  -1   16.92    1.57
  -7   5   1   17.29    2.12
   7  -5   0    7.41    1.12
  -7   5   0    6.50    1.06
   7  -5   1   12.05    1.55
  -7   5  -1   11.59    1.20
   7  -5   2    3.01    1.09
  -7   5  -2    1.83    1.15
   7  -5   3    4.47    1.00
  -7   5  -3    4.38    0.97
   7  -5   4   27.42    1.86
  -7   5  -4   28.20    2.26
   7  -5   5   31.89    2.15
  -7   5  -5   32.72    2.29
   7  -5   6    0.29    0.92
  -7   5  -6    1.12    1.49
   7  -5   7    9.76    1.35
  -7   5  -7    7.10    1.57
   7  -5   8    5.12    1.77
  -7   5  -8    2.52    2.15
   7  -5   9    1.29    1.32
  -7   5  -9    5.50    2.58
  -7   5 -10   -0.20    1.72
   7  -4  -9   -0.31    1.43
  -7   4   9    0.29    0.74
   7  -4  -8    0.80    1.12
  -7   4   8   -0.06    0.69
   7  -4  -7   -0.06    1.46
  -7   4   7   -0.06    0.69
   7  -4  -6    0.83    1.03
  -7   4   6   -0.17    0.60
   7  -4  -5    5.55    1.40
  -7   4   5    3.89    1.00
   7  -4  -4    2.40    0.97
  -7   4   4    2.78    0.83
   7  -4  -3    1.49    1.15
  -7   4   3    1.35    0.77
   7  -4  -2    2.98    0.89
  -7   4   2    3.38    0.72
   7  -4  -1    1.86    1.17
  -7   4   1    1.15    0.89
   7  -4   0    0.74    0.86
  -7   4   0    0.49    0.77
   7  -4   1    6.93    1.40
  -7   4  -1    6.44    1.15
   7  -4   2   13.45    1.32
  -7   4  -2   12.62    1.29
   7  -4   3    1.57    0.92
  -7   4  -3    1.63    0.92
   7  -4   4    5.75    1.15
  -7   4  -4    6.56    1.57
   7  -4   5   -0.89    0.94
  -7   4  -5   -0.17    1.63
   7  -4   6    1.75    0.89
  -7   4  -6    3.98    1.29
   7  -4   7   17.38    1.63
  -7   4  -7   18.55    2.35
   7  -4   8   -0.40    1.32
  -7   4  -8    3.01    3.41
   7  -4   9   -0.11    1.09
  -7   4  -9    2.38    1.95
   7  -4  10    1.15    1.29
  -7   4 -10    0.46    4.24
   7  -4  11    0.23    0.97
   7  -3 -10    1.06    1.15
  -7   3  10    0.46    0.72
   7  -3  -9    0.52    1.17
  -7   3   9    0.29    0.83
   7  -3  -8    0.74    0.94
  -7   3   8    1.00    0.60
   7  -3  -7    5.27    1.37
  -7   3   7    3.69    0.89
   7  -3  -6    2.29    0.97
  -7   3   6    1.86    0.77
   7  -3  -5    3.61    0.94
  -7   3   5    3.12    0.83
   7  -3  -4   -0.37    1.20
  -7   3   4    1.29    0.83
   7  -3  -3   26.08    1.80
  -7   3   3   22.90    1.57
   7  -3  -2   28.80    1.69
  -7   3   2   27.11    1.40
   7  -3  -1    7.16    1.23
  -7   3   1    6.64    1.15
   7  -3   0    0.97    0.77
  -7   3   0   -0.14    0.66
   7  -3   1    0.40    1.12
  -7   3  -1    1.49    1.00
   7  -3   2    0.66    0.86
  -7   3  -2   -0.66    1.40
   7  -3   3    4.38    1.00
  -7   3  -3    5.44    1.35
   7  -3   4    9.28    1.52
  -7   3  -4    7.82    1.66
   7  -3   5    0.26    1.15
  -7   3  -5    0.52    1.63
   7  -3   6    2.40    1.37
  -7   3  -6    1.37    1.66
   7  -3   7    3.06    1.03
  -7   3  -7    0.63    1.75
   7  -3   8    0.40    1.35
  -7   3  -8    0.46    3.66
   7  -3   9    0.66    1.06
  -7   3  -9    0.11    1.95
   7  -3  10   -0.23    0.80
  -7   3 -10   -2.00    4.75
   7  -3  11    0.54    1.40
   7  -2 -11    0.94    1.00
  -7   2  11    0.20    0.54
   7  -2 -10   -0.23    1.40
  -7   2  10   -0.17    0.80
   7  -2  -9    1.26    1.06
  -7   2   9    0.89    0.63
   7  -2  -8    1.03    0.86
  -7   2   8    1.75    0.57
   7  -2  -7    0.06    1.00
  -7   2   7    0.80    0.77
   7  -2  -6    0.54    1.06
  -7   2   6    1.77    0.83
   7  -2  -5   15.46    1.43
  -7   2   5   12.88    0.94
   7  -2  -4   13.57    1.15
  -7   2   4   15.23    1.09
   7  -2  -3   17.98    1.23
  -7   2   3   17.00    1.23
   7  -2  -2    0.83    0.69
  -7   2   2    0.29    0.77
   7  -2  -1   29.06    2.26
  -7   2   1   30.37    1.86
   7  -2   0  105.20    3.98
  -7   2   0  101.17    3.75
   7  -2   1   23.59    1.75
  -7   2  -1   24.16    1.95
   7  -2   2   12.48    1.23
  -7   2  -2   11.99    1.26
   7  -2   3    1.12    1.15
  -7   2  -3    0.06    1.46
   7  -2   4    1.60    1.00
  -7   2  -4    0.46    2.69
   7  -2   5    8.82    1.35
  -7   2  -5    7.93    1.89
   7  -2   6    0.86    0.94
  -7   2  -6    1.37    1.46
   7  -2   7    0.43    1.23
  -7   2  -7   -0.20    1.83
   7  -2   8   -1.37    1.29
  -7   2  -8    3.58    3.78
   7  -2   9    0.94    0.77
  -7   2  -9    2.86    4.41
   7  -2  10    0.09    1.03
  -7   2 -10   -0.43    6.04
   7  -2  11   -0.06    1.00
  -7   2 -11    0.11    2.18
  -7   1  12    0.03    0.77
   7  -1 -11   -0.72    0.92
  -7   1  11    0.09    0.52
   7  -1 -10    1.32    0.94
  -7   1  10    0.46    0.66
   7  -1  -9    0.63    1.15
  -7   1   9    1.69    0.80
   7  -1  -8    0.72    1.15
  -7   1   8    0.57    0.60
   7  -1  -7    0.31    1.06
  -7   1   7    0.31    0.52
   7  -1  -6    5.84    1.12
  -7   1   6    5.38    0.83
   7  -1  -5    0.37    0.72
  -7   1   5    0.72    0.66
   7  -1  -4   -0.03    0.60
  -7   1   4    0.63    0.66
   7  -1  -3    6.47    0.89
  -7   1   3    5.01    0.83
   7  -1  -2   11.22    1.23
  -7   1   2   10.48    1.17
   7  -1  -1   25.19    2.09
  -7   1   1   27.37    1.77
   7  -1   0    0.66    0.92
  -7   1   0   -0.26    1.06
   7  -1   1    0.66    0.97
  -7   1  -1    0.31    1.00
   7  -1   2  111.04    4.44
  -7   1  -2  118.26    5.01
   7  -1   3   39.79    2.18
  -7   1  -3   34.87    2.49
   7  -1   4   18.18    1.66
  -7   1  -4   15.83    3.69
   7  -1   5    1.46    1.15
  -7   1  -5    0.74    1.83
   7  -1   6    2.58    1.00
  -7   1  -6    0.37    2.95
   7  -1   7    1.12    1.17
  -7   1  -7    1.03    1.57
   7  -1   8    2.23    1.20
  -7   1  -8    0.72    2.12
   7  -1   9    0.34    1.29
  -7   1  -9    0.49    1.89
   7  -1  10    0.94    0.92
  -7   1 -10   -0.43    1.72
   7  -1  11    0.34    1.60
  -7   0  12    0.20    0.40
   7   0 -11    0.31    0.86
  -7   0  11    0.23    0.52
   7   0 -10    1.00    0.92
  -7   0  10    0.11    0.49
   7   0  -9    0.23    0.80
  -7   0   9   -0.20    0.46
   7   0  -8    0.06    0.97
  -7   0   8    0.06    0.57
   7   0  -7    1.00    0.94
  -7   0   7    0.20    0.60
   7   0  -6    0.06    0.60
  -7   0   6    0.34    0.60
   7   0  -5    9.33    0.92
  -7   0   5   10.94    1.12
   7   0  -4    2.26    0.83
  -7   0   4    1.60    0.60
   7   0  -3    9.68    1.17
  -7   0   3   11.16    1.29
   7   0  -2    8.24    1.00
  -7   0   2    8.19    1.03
   7   0  -1    1.03    0.83
  -7   0   1    1.20    1.09
   7   0   0    0.29    0.86
  -7   0   0    0.09    1.20
   7   0   1    7.82    1.12
  -7   0  -1    6.24    1.49
   7   0   2    0.00    0.72
  -7   0  -2    0.66    1.03
   7   0   3    3.81    1.12
  -7   0  -3    3.41    1.86
   7   0   4   13.11    1.29
  -7   0  -4   11.99    1.69
   7   0   5   34.04    2.23
  -7   0  -5   32.66    2.58
   7   0   6    6.61    1.40
  -7   0  -6    7.30    2.09
   7   0   7    0.20    1.52
  -7   0  -7   -0.17    4.21
   7   0   8    0.23    1.03
  -7   0  -8    0.20    1.63
   7   0   9    0.09    1.00
  -7   0  -9   -1.32    3.66
   7   0  10   58.17   38.90
   7   0  11    3.69   28.08
  -7  -1  12    0.31    0.37
   7   1 -11    1.49    0.63
  -7  -1  11    1.17    0.43
   7   1 -10    9.99    1.09
  -7  -1  10    8.73    0.92
   7   1  -9    2.98    0.92
  -7  -1   9    3.92    0.72
   7   1  -8   -0.17    0.63
  -7  -1   8    0.46    0.54
   7   1  -7    1.72    0.83
  -7  -1   7    2.12    0.72
   7   1  -6    8.07    0.83
  -7  -1   6    9.70    0.86
   7   1  -5    0.00    0.72
  -7  -1   5    0.46    0.77
   7   1  -4    0.11    0.57
  -7  -1   4    1.15    0.80
   7   1  -3   41.62    2.81
  -7  -1   3   41.31    2.55
   7   1  -2   17.03    1.52
  -7  -1   2   20.75    1.66
   7   1  -1   12.94    1.29
  -7  -1   1   14.83    1.75
   7   1   0   50.04    2.49
  -7  -1   0   45.46    4.01
   7   1   1    3.21    0.97
  -7  -1  -1    5.87    1.66
   7   1   2    6.70    0.89
  -7  -1  -2    4.69    1.49
   7   1   3   -0.14    0.69
  -7  -1  -3    0.49    2.66
   7   1   4    3.44    0.83
  -7  -1  -4    3.35    3.64
   7   1   5    1.49    1.23
  -7  -1  -5    1.26    1.89
   7   1   6    1.75    1.23
  -7  -1  -6    1.57    2.03
   7   1   7    4.78    1.46
  -7  -1  -7    7.50    2.43
   7   1   8   -0.17    1.09
  -7  -1  -8    0.20    3.95
   7   1   9   -0.20    0.46
  -7  -1  -9   -0.77    2.09
   7   1  10    0.40    0.63
   7   2 -12   -0.34    2.20
  -7  -2  12    0.26    0.49
   7   2 -11    0.57    0.66
  -7  -2  11    0.49    0.46
   7   2 -10    1.49    0.52
  -7  -2  10    1.80    0.46
   7   2  -9    0.63    0.80
  -7  -2   9    1.95    0.57
   7   2  -8   37.53    4.41
  -7  -2   8   29.11    1.69
   7   2  -7   19.04    1.72
  -7  -2   7   22.13    1.57
   7   2  -6    9.79    1.00
  -7  -2   6   10.02    1.15
   7   2  -5    1.40    0.63
  -7  -2   5    2.43    0.77
   7   2  -4   42.02    2.63
  -7  -2   4   37.50    2.18
   7   2  -3    3.41    0.80
  -7  -2   3    3.15    1.06
   7   2  -2    1.09    0.72
  -7  -2   2    0.03    1.15
   7   2  -1   22.61    1.55
  -7  -2   1   18.84    1.92
   7   2   0   65.47    2.95
  -7  -2   0   52.50    3.89
   7   2   1   25.13    1.69
  -7  -2  -1   17.78    4.32
   7   2   2   24.45    1.60
  -7  -2  -2   23.96    2.52
   7   2   3   13.03    1.57
  -7  -2  -3   16.29    2.35
   7   2   4    2.69    1.17
  -7  -2  -4    2.46    2.03
   7   2   5    1.46    1.06
  -7  -2  -5    2.40    1.95
   7   2   6    1.35    1.20
  -7  -2  -6    1.63    2.00
   7   2   7    0.43    1.15
  -7  -2  -7   -0.03    1.92
   7   2   8    0.26    0.92
  -7  -2  -8    0.89    1.63
   7   2   9    0.09    0.97
  -7  -2  -9    0.60    1.43
   7   3 -12    0.06    0.77
  -7  -3  12   -0.83    5.04
   7   3 -11   -0.09    0.40
  -7  -3  11    0.00    0.74
   7   3 -10   -0.17    0.60
  -7  -3  10   -0.23    0.52
   7   3  -9    0.46    0.57
  -7  -3   9   -0.34    0.54
   7   3  -8    2.86    0.66
  -7  -3   8    2.09    0.63
   7   3  -7    4.84    0.72
  -7  -3   7    3.69    0.74
   7   3  -6   17.69    1.46
  -7  -3   6   18.66    1.29
   7   3  -5   36.73    1.92
  -7  -3   5   34.87    2.72
   7   3  -4   13.23    1.29
  -7  -3   4   14.83    1.57
   7   3  -3    5.24    0.69
  -7  -3   3    5.64    1.29
   7   3  -2   20.21    1.37
  -7  -3   2   19.38    1.69
   7   3  -1   14.60    1.35
  -7  -3   1   14.97    3.06
   7   3   0    1.09    0.83
  -7  -3   0    1.63    3.35
   7   3   1   -0.26    0.63
  -7  -3  -1   -1.52    2.98
   7   3   2   19.01    1.49
  -7  -3  -2   21.87    4.01
   7   3   3   20.10    1.66
  -7  -3  -3   22.67    4.49
   7   3   4    5.27    1.23
  -7  -3  -4   13.31    6.41
   7   3   5    8.27    1.23
  -7  -3  -5   13.48    4.47
   7   3   6    1.09    1.15
  -7  -3  -6    0.06    1.92
   7   3   7    1.12    1.00
  -7  -3  -7    0.09    1.89
   7   4 -12    1.15    0.66
  -7  -4  12    1.86    4.69
   7   4 -11    0.03    0.34
  -7  -4  11   -1.23    5.21
   7   4 -10    0.29    0.49
   7   4  -9    0.52    1.49
  -7  -4   9   -0.03    0.46
   7   4  -8    0.03    0.43
  -7  -4   8    0.11    0.60
   7   4  -7   -0.11    0.46
  -7  -4   7   -0.57    0.74
   7   4  -6    0.20    0.52
  -7  -4   6   -0.46    0.77
   7   4  -5    3.41    0.60
  -7  -4   5    2.81    1.37
   7   4  -4    2.78    0.46
  -7  -4   4    3.09    1.06
   7   4  -3   17.23    1.26
  -7  -4   3   14.34    1.46
   7   4  -2    2.26    0.89
  -7  -4   2    1.46    1.29
   7   4  -1    2.49    0.72
  -7  -4   1    2.95    1.15
   7   4   0    3.15    0.86
  -7  -4   0    2.09    3.69
   7   4   1    6.47    1.12
  -7  -4  -1    5.87    1.77
   7   4   2    0.40    1.03
  -7  -4  -2    0.97    1.83
   7   4   3    2.03    0.74
  -7  -4  -3    2.06    1.80
   7   4   4    1.32    0.92
  -7  -4  -4    0.11    1.49
   7   4   5    3.69    0.83
  -7  -4  -5    1.83    4.15
   7   4   6    0.34    0.92
  -7  -4  -6   -0.23    1.60
   7   4   7    0.03    0.83
  -7  -4  -7   -0.69    1.32
   7   5 -10    9.48   16.03
  -7  -5   9    3.75    7.53
   7   5  -8    4.15    0.40
  -7  -5   8    2.32    0.52
   7   5  -7    3.03    0.43
  -7  -5   7    1.69    0.83
   7   5  -6    1.52    0.49
  -7  -5   6    1.89    0.69
   7   5  -5    2.35    0.52
  -7  -5   5    3.64    1.37
   7   5  -4    0.31    0.54
  -7  -5   4    0.60    1.60
   7   5  -3    0.40    0.69
  -7  -5   3   -0.23    1.06
   7   5  -2   -0.23    0.66
  -7  -5   2    1.29    2.98
   7   5  -1    0.06    0.74
  -7  -5   1    1.37    1.26
   7   5   0   -0.37    0.77
  -7  -5   0   -1.09    4.27
   7   5   1    0.63    0.92
  -7  -5  -1    0.03    1.66
   7   5   2    0.34    0.77
  -7  -5  -2    0.14    1.37
   7   5   3   -0.14    0.83
  -7  -5  -3    2.18    4.32
   7   5   4   -0.03    0.63
  -7  -5  -4   -0.63    1.35
   7   5   5   -0.03    0.40
  -7  -5  -5    0.17    0.94
   7   6  -7   16.98    1.17
   7   6  -6    3.06    0.46
  -7  -6   6    3.12    0.63
   7   6  -5    4.61    0.66
  -7  -6   5    4.72    1.52
   7   6  -4    1.49    0.52
  -7  -6   4    0.77    0.80
   7   6  -3    3.69    0.60
  -7  -6   3    2.20    0.92
   7   6  -2    0.37    0.63
  -7  -6   2    0.94    1.12
   7   6  -1   -0.17    0.69
  -7  -6   1    0.31    0.89
   7   6   0    0.43    0.77
   7   6   1    0.29    1.03
   7   6   2    0.03    0.69
   7   6   3    0.23    0.43
  -7  -6  -3   -0.46    0.86
   7   6   4   -0.03    0.69
   7   7  -6    1.06    0.34
   7   7  -5    5.67    0.60
  -7  -7   5   -6.01   23.30
   7   7  -4    2.23    0.49
  -7  -7   4    3.86    2.23
   7   7  -3    1.46    0.43
  -7  -7   3    0.31    0.86
   7   7  -2    0.29    0.80
   7   7  -1   -0.11    0.77
  -7  -7  -1    0.23    0.69
   7   8  -5    0.06    0.31
   7   8  -4   -0.03    0.37
   7   8  -3   -0.06    0.63
   7   8  -2    1.20    0.74
   7   8  -1    0.34    0.54
   7   8   0   -0.11    0.57
  -8   8  -1    0.37    0.60
  -8   8  -2    0.49    0.72
   8  -8   3    1.83    1.17
   8  -8   4    0.20    0.66
   8  -8   5    1.98    1.37
  -8   8  -5    3.44    2.86
   8  -8   6    5.73    1.69
   8  -8   7    0.11    1.03
  -8   7   5   -0.09    0.57
   8  -7  -4    0.03    1.15
  -8   7   4    0.46    1.06
   8  -7  -3    0.09    1.40
  -8   7   3    0.92    0.97
   8  -7  -2    0.31    1.52
  -8   7   2    0.31    0.89
   8  -7  -1    0.00    1.23
  -8   7   1    2.61    1.20
   8  -7   0   -0.06    1.09
  -8   7   0   -0.69    1.20
   8  -7   1    1.20    1.15
  -8   7  -1    1.03    0.97
   8  -7   2    0.86    0.80
  -8   7  -2    0.83    1.00
   8  -7   3    0.20    1.17
  -8   7  -3    1.46    1.03
   8  -7   4    1.35    1.17
  -8   7  -4    0.72    1.00
   8  -7   8    5.87    1.43
   8  -7   9    4.49    1.52
   8  -6  -7   -0.37    0.57
  -8   6   7    0.14    0.97
   8  -6  -6   -0.03    0.63
  -8   6   6    1.20    0.92
   8  -6  -5   -0.46    1.46
  -8   6   5    0.40    0.74
   8  -6  -4   -0.49    1.03
  -8   6   4    0.54    0.92
   8  -6  -3    0.80    1.26
  -8   6   3    0.52    0.89
   8  -6  -2    1.15    1.12
  -8   6   2   -0.63    1.12
   8  -6  -1    1.12    1.49
  -8   6   1   -0.80    1.12
   8  -6   0    0.11    1.46
  -8   6   0    0.94    1.29
   8  -6   1    9.53    1.75
  -8   6  -1    8.87    1.32
   8  -6   2    0.74    1.03
  -8   6  -2    1.20    0.97
   8  -6   3    1.15    1.20
  -8   6  -3    0.86    1.09
   8  -6   4    0.54    0.94
  -8   6  -4    0.97    1.17
   8  -6   5    0.26    1.46
  -8   6  -5    0.37    1.43
   8  -6   6   -0.40    1.66
  -8   6  -6    0.63    1.86
   8  -6   7    0.46    1.09
  -8   6  -7    0.57    1.57
   8  -6   8   -0.34    0.94
   8  -5  -8    0.26    0.66
  -8   5   8    0.00    0.92
   8  -5  -7    1.98    0.97
  -8   5   7    1.60    0.66
   8  -5  -6    0.72    1.49
  -8   5   6    1.35    1.00
   8  -5  -5    1.75    1.09
  -8   5   5    0.49    0.86
   8  -5  -4    7.04    1.43
  -8   5   4    6.56    1.00
   8  -5  -3   11.54    1.69
  -8   5   3    8.30    1.17
   8  -5  -2    2.29    1.15
  -8   5   2    0.97    0.83
   8  -5  -1    5.70    1.35
  -8   5   1    3.69    0.97
   8  -5   0    3.01    1.52
  -8   5   0    1.29    1.89
   8  -5   1    0.60    1.46
  -8   5  -1   -1.06    1.35
   8  -5   2    0.14    1.43
  -8   5  -2    0.06    0.89
   8  -5   3   25.13    2.00
  -8   5  -3   26.42    2.06
   8  -5   4   14.17    1.92
  -8   5  -4   14.60    2.20
   8  -5   5    0.54    1.46
  -8   5  -5    0.26    1.55
   8  -5   6    0.14    1.35
  -8   5  -6    1.12    1.86
   8  -5   7   -0.57    1.09
  -8   5  -7   -1.69    1.69
   8  -5   8   -0.60    1.15
  -8   5  -8    0.14    2.61
  -8   5  -9    0.14    1.89
   8  -4  -8   -0.11    0.63
  -8   4   8    0.57    0.83
   8  -4  -7    2.12    1.06
  -8   4   7    2.52    0.74
   8  -4  -6    2.12    1.40
  -8   4   6    2.35    0.77
   8  -4  -5    4.29    1.12
  -8   4   5    3.55    0.86
   8  -4  -4   23.22    1.92
  -8   4   4   16.80    1.43
   8  -4  -3    2.78    1.03
  -8   4   3    2.23    0.92
   8  -4  -2    8.30    1.57
  -8   4   2    7.82    0.97
   8  -4  -1   26.25    1.83
  -8   4   1   26.82    1.63
   8  -4   0   23.13    1.89
  -8   4   0   17.46    1.52
   8  -4   1   11.19    1.69
  -8   4  -1    9.82    1.37
   8  -4   2   13.28    1.72
  -8   4  -2   12.22    1.52
   8  -4   3    6.70    1.46
  -8   4  -3    5.98    1.60
   8  -4   4    0.43    1.46
  -8   4  -4   -0.63    1.69
   8  -4   5   14.20    2.12
  -8   4  -5   14.28    1.95
   8  -4   6   30.46    2.95
  -8   4  -6   28.31    2.98
   8  -4   7    2.12    1.12
  -8   4  -7    1.43    1.49
   8  -4   8   -0.06    1.46
  -8   4  -8    0.40    1.49
   8  -4   9    0.43    1.12
  -8   4  -9    0.57    1.60
   8  -4  10   -0.77    1.37
   8  -3  -9    0.57    0.66
  -8   3   9   -0.06    0.66
   8  -3  -8   -0.09    1.00
  -8   3   8    0.14    0.89
   8  -3  -7    4.81    1.15
  -8   3   7    2.43    0.89
   8  -3  -6    1.60    1.09
  -8   3   6    1.20    0.69
   8  -3  -5    1.55    1.12
  -8   3   5    1.83    0.94
   8  -3  -4   10.99    1.09
  -8   3   4    9.19    1.03
   8  -3  -3    3.41    1.29
  -8   3   3    3.55    0.92
   8  -3  -2   24.10    1.55
  -8   3   2   24.59    1.57
   8  -3  -1   11.05    1.40
  -8   3   1    8.65    1.35
   8  -3   0    5.07    1.17
  -8   3   0    6.38    1.20
   8  -3   1   13.91    1.37
  -8   3  -1   12.68    1.46
   8  -3   2   36.64    2.49
  -8   3  -2   32.09    2.63
   8  -3   3   18.92    2.35
  -8   3  -3    9.82    2.92
   8  -3   4   10.16    1.63
  -8   3  -4   10.28    1.69
   8  -3   5    6.24    1.75
  -8   3  -5    7.79    2.09
   8  -3   6    0.37    1.03
  -8   3  -6   -0.26    3.38
   8  -3   7    4.41    1.32
  -8   3  -7    1.46    3.29
   8  -3   8    7.84    1.75
  -8   3  -8   10.25    2.15
   8  -3   9    6.07    1.12
  -8   3  -9    3.41    3.58
   8  -3  10   -0.49    1.55
  -8   3 -10   -0.94    3.98
   8  -2 -10    0.14    0.52
  -8   2  10    0.00    0.57
   8  -2  -9   -0.60    0.69
  -8   2   9   -0.09    0.69
   8  -2  -8    1.66    1.23
  -8   2   8    0.43    0.92
   8  -2  -7    0.83    1.29
  -8   2   7    0.43    0.69
   8  -2  -6    3.44    1.03
  -8   2   6    4.52    0.72
   8  -2  -5    4.06    0.92
  -8   2   5    3.75    0.80
   8  -2  -4    0.66    1.17
  -8   2   4    0.80    0.77
   8  -2  -3   -0.34    0.74
  -8   2   3    0.29    0.80
   8  -2  -2    0.11    0.77
  -8   2   2    0.97    0.94
   8  -2  -1    2.78    1.12
  -8   2   1    3.23    1.17
   8  -2   0    3.55    0.94
  -8   2   0    4.09    1.03
   8  -2   1    6.53    1.12
  -8   2  -1    9.05    1.66
   8  -2   2    2.18    1.20
  -8   2  -2    1.52    1.26
   8  -2   3    2.95    1.26
  -8   2  -3    4.44    1.80
   8  -2   4    9.76    1.57
  -8   2  -4    6.18    2.00
   8  -2   5   13.05    1.63
  -8   2  -5    9.68    3.72
   8  -2   6    7.36    1.26
  -8   2  -6    7.70    2.06
   8  -2   7    3.61    1.60
  -8   2  -7    4.52    2.29
   8  -2   8   -0.03    0.97
  -8   2  -8   -0.06    1.55
   8  -2   9    0.20    1.03
   8  -2  10    0.69    1.32
  -8   1  12   -0.11    0.46
   8  -1 -11    0.14    0.69
  -8   1  11    0.40    0.49
   8  -1 -10    0.29    0.72
  -8   1  10    2.09    0.72
   8  -1  -9    3.44    1.09
  -8   1   9    3.29    0.83
   8  -1  -8    3.86    1.26
  -8   1   8    4.27    0.97
   8  -1  -7    4.84    1.26
  -8   1   7    6.50    1.03
   8  -1  -6    2.61    0.83
  -8   1   6    2.09    0.92
   8  -1  -5    0.54    0.72
  -8   1   5   -0.31    0.74
   8  -1  -4   15.46    1.37
  -8   1   4   16.80    1.49
   8  -1  -3    1.83    0.77
  -8   1   3    1.43    0.72
   8  -1  -2    0.26    1.03
  -8   1   2    0.52    1.03
   8  -1  -1    2.00    0.77
  -8   1   1    1.40    1.17
   8  -1   0    6.53    1.26
  -8   1   0    7.47    1.29
   8  -1   1    0.60    0.86
  -8   1  -1    0.09    1.26
   8  -1   2    1.46    0.94
  -8   1  -2    1.63    1.57
   8  -1   3    0.06    1.06
  -8   1  -3   -0.43    1.26
   8  -1   4   -0.06    0.86
  -8   1  -4    2.06    1.80
   8  -1   5    0.80    1.00
  -8   1  -5    0.43    1.86
   8  -1   6    0.37    1.43
  -8   1  -6    3.18    1.60
   8  -1   7    0.46    0.92
  -8   1  -7   -0.69    4.61
   8  -1   8    2.40    1.23
   8  -1   9   -0.52    1.06
   8  -1  10    0.40    1.17
  -8   0  12    0.43    0.74
   8   0 -11    1.52    1.23
  -8   0  11    1.15    0.66
   8   0 -10    2.23    0.66
  -8   0  10    3.72    0.86
   8   0  -9    2.06    0.89
  -8   0   9    3.18    0.72
   8   0  -8    3.35    1.12
  -8   0   8    2.18    0.83
   8   0  -7   10.79    1.23
  -8   0   7    9.33    1.06
   8   0  -6   12.94    1.55
  -8   0   6   16.17    1.46
   8   0  -5   18.41    2.06
  -8   0   5   21.61    2.03
   8   0  -4   11.74    1.46
  -8   0   4   11.36    1.37
   8   0  -3    3.75    1.06
  -8   0   3    2.83    1.12
   8   0  -2    4.69    0.89
  -8   0   2    5.24    1.17
   8   0  -1   13.57    1.17
  -8   0   1   17.26    1.69
   8   0   0    4.24    1.06
  -8   0   0    5.73    1.43
   8   0   1    6.84    1.26
  -8   0  -1    6.10    1.77
   8   0   2    5.12    1.20
  -8   0  -2    2.75    2.38
   8   0   3    6.04    1.12
  -8   0  -3    6.01    1.57
   8   0   4    9.99    1.72
  -8   0  -4    9.16    2.26
   8   0   5   -1.09    1.12
  -8   0  -5   -0.17    1.95
   8   0   6   -0.60    0.92
  -8   0  -6    0.80    3.26
   8   0   7    0.94    1.03
  -8   0  -7    0.46    1.43
   8   0   8    0.31    1.03
  -8   0  -8    0.40    1.83
   8   0   9    0.69    1.35
   8   1 -12    0.03    0.60
  -8  -1  12    0.03    0.40
   8   1 -11    1.15    0.97
  -8  -1  11    0.66    0.54
   8   1 -10   -0.37    0.77
  -8  -1  10    0.89    0.66
   8   1  -9    3.09    1.03
  -8  -1   9    2.78    0.83
   8   1  -8    6.76    1.03
  -8  -1   8    6.61    0.89
   8   1  -7   14.20    1.32
  -8  -1   7   13.68    1.15
   8   1  -6    4.64    0.97
  -8  -1   6    4.49    0.97
   8   1  -5    9.30    1.00
  -8  -1   5    8.85    1.06
   8   1  -4   13.60    1.35
  -8  -1   4   12.14    1.40
   8   1  -3   27.77    1.77
  -8  -1   3   26.68    1.92
   8   1  -2   10.28    1.17
  -8  -1   2   11.02    1.35
   8   1  -1    4.49    1.20
  -8  -1   1    5.73    1.63
   8   1   0   -0.06    0.69
  -8  -1   0   -0.17    1.40
   8   1   1   11.22    1.32
  -8  -1  -1    8.24    1.95
   8   1   2    1.77    1.00
  -8  -1  -2    1.89    3.98
   8   1   3    7.70    1.15
  -8  -1  -3    3.03    4.06
   8   1   4    2.32    1.26
  -8  -1  -4    1.72    2.12
   8   1   5    0.94    0.97
  -8  -1  -5    1.17    1.89
   8   1   6    2.18    1.17
  -8  -1  -6    6.07    1.98
   8   1   7    0.31    1.03
  -8  -1  -7    1.83    2.23
   8   1   8    0.09    0.89
  -8  -2  12    0.06    0.54
   8   2 -11    0.09    0.66
  -8  -2  11   -0.11    0.60
   8   2 -10    0.34    0.66
  -8  -2  10    0.23    0.63
   8   2  -9    2.23    0.69
  -8  -2   9    1.89    0.63
   8   2  -8    8.13    1.12
  -8  -2   8    9.76    1.06
   8   2  -7   -0.29    0.66
  -8  -2   7    0.11    0.80
   8   2  -6    5.01    0.89
  -8  -2   6    6.50    1.09
   8   2  -5    8.67    0.92
  -8  -2   5   10.05    1.32
   8   2  -4    7.21    1.06
  -8  -2   4    6.53    1.49
   8   2  -3    0.60    0.80
  -8  -2   3    1.17    1.29
   8   2  -2    4.52    0.97
  -8  -2   2    5.07    2.63
   8   2  -1    3.26    0.77
  -8  -2   1    3.01    2.03
   8   2   0    6.93    1.17
  -8  -2   0    7.04    3.55
   8   2   1    0.74    0.92
  -8  -2  -1   -0.49    1.89
   8   2   2    0.57    0.80
  -8  -2  -2    1.35    1.95
   8   2   3   -0.09    1.06
  -8  -2  -3    1.77    2.15
   8   2   4    1.26    1.06
  -8  -2  -4   -0.52    2.12
   8   2   5    0.77    1.03
  -8  -2  -5   -0.83    1.86
   8   2   6    0.17    0.83
  -8  -2  -6    1.15    2.38
   8   2   7    0.00    0.37
  -8  -2  -7    1.15    2.63
  -8  -3  12   -5.41   33.78
  -8  -3  10   -0.09    0.54
   8   3  -9    1.80    0.54
  -8  -3   9    1.46    0.72
   8   3  -8    0.66    0.57
  -8  -3   8    0.20    0.72
   8   3  -7    2.52    0.77
  -8  -3   7    3.44    0.83
   8   3  -6   30.95    1.92
  -8  -3   6   37.21    2.00
   8   3  -5   13.51    1.29
  -8  -3   5   15.32    1.60
   8   3  -4    0.37    0.74
  -8  -3   4    0.23    1.77
   8   3  -3    0.40    0.77
  -8  -3   3    1.55    1.57
   8   3  -2    2.32    0.83
  -8  -3   2    2.49    1.83
   8   3  -1    0.83    0.86
  -8  -3   1    3.98    2.72
   8   3   0    0.26    0.94
  -8  -3   0    1.00    2.55
   8   3   1    1.29    0.80
  -8  -3  -1    1.63    4.21
   8   3   2    0.09    0.83
  -8  -3  -2    0.66    4.64
   8   3   3    0.00    0.83
  -8  -3  -3    0.09    1.92
   8   3   4    1.06    1.09
  -8  -3  -4    1.12    2.23
   8   3   5    0.17    1.57
  -8  -3  -5   -0.60    1.75
   8   3   6   -0.26    1.52
  -8  -3  -6    0.11    2.06
  -8  -4  11   66.38   50.87
  -8  -4  10   15.14   32.49
   8   4  -9    2.26    0.57
  -8  -4   9    1.95    0.63
   8   4  -8    0.72    0.37
  -8  -4   8    1.00    0.77
   8   4  -7    5.95    0.77
  -8  -4   7    6.36    1.23
   8   4  -6    0.29    0.60
  -8  -4   6    0.06    1.17
   8   4  -5    0.40    0.63
  -8  -4   5    1.17    1.57
   8   4  -4   37.36    2.03
  -8  -4   4   28.05    1.98
   8   4  -3   29.89    1.89
  -8  -4   3   21.13    2.23
   8   4  -2    3.89    0.83
  -8  -4   2    4.29    2.92
   8   4  -1   -0.63    0.80
  -8  -4   1   -3.01    3.46
   8   4   0    0.37    0.69
  -8  -4   0    0.63    1.69
   8   4   1    0.52    0.92
  -8  -4  -1    0.63    1.80
   8   4   2   -0.31    0.86
  -8  -4  -2    1.12    1.75
   8   4   3    0.66    0.77
  -8  -4  -3    1.12    1.32
   8   4   4    0.46    1.20
   8   4   5   -0.03    1.20
  -8  -4  -5    0.43    2.00
  -8  -5  11   15.72   36.81
  -8  -5  10   -7.59   45.34
   8   5  -9    0.46    0.63
   8   5  -8   -0.03    0.23
  -8  -5   8   24.28   31.69
   8   5  -7    1.57    0.57
  -8  -5   7    1.43    0.60
   8   5  -6    1.86    0.54
  -8  -5   6    1.52    1.26
   8   5  -5    2.95    0.86
  -8  -5   5    0.20    1.77
   8   5  -4    3.01    0.72
  -8  -5   4    3.03    1.12
   8   5  -3   -0.26    0.66
  -8  -5   3   -0.06    2.20
   8   5  -2    6.18    0.92
  -8  -5   2    5.41    1.37
   8   5  -1    7.93    1.06
  -8  -5   1    7.64    4.52
   8   5   0    4.01    0.72
  -8  -5   0    5.38    1.55
   8   5   1    0.46    1.09
  -8  -5  -1    0.46    1.40
   8   5   2    0.49    0.57
   8   5   3    0.54    1.00
   8   5   4   -0.17    1.29
   8   6  -7    0.77    0.37
  -8  -6   7    0.57    0.63
   8   6  -6    0.06    0.52
  -8  -6   6    0.31    1.20
   8   6  -5    0.34    0.54
  -8  -6   5   -0.52    1.35
   8   6  -4    0.74    0.77
  -8  -6   4   -0.97    2.38
   8   6  -3   -0.09    0.74
  -8  -6   3    0.06    1.06
   8   6  -2    0.34    0.92
  -8  -6   2   -1.32    2.26
   8   6  -1    0.23    0.86
  -8  -6   1   -1.09    2.92
   8   6   0   -0.14    0.97
  -8  -6   0    1.03    2.18
   8   6   1    3.18    1.55
   8   6   2    1.00    1.06
   8   7  -6    2.20    0.57
  -8  -7   6    0.31    0.63
   8   7  -4    0.00    0.46
   8   7  -3    0.03    0.54
   8   7  -2   -0.49    0.86
   8   7   1   -0.20    1.00
   8   7   2   -0.46    0.80
   8   8  -3    0.14    0.46
   8   8  -2    0.06    0.43
  -9   7   1   -0.09    0.63
  -9   7   0   -0.09    0.72
   9  -7   1    0.37    0.72
  -9   7  -1   -0.37    0.77
   9  -7   2    0.11    0.60
  -9   7  -2    0.66    0.86
  -9   7  -3   -0.11    1.29
   9  -7   4   -0.92    1.60
  -9   7  -4    0.80    1.40
   9  -6  -5    5.35    2.26
  -9   6   5    4.69    1.35
   9  -6  -4   -1.49    5.41
  -9   6   4    0.46    1.75
   9  -6  -3    0.17    0.54
  -9   6   3    0.74    1.57
   9  -6  -2   -0.26    1.55
  -9   6   2    0.49    1.83
   9  -6  -1    1.32    1.86
  -9   6   1    1.09    2.09
   9  -6   0    0.49    1.43
  -9   6   0    2.75    1.40
   9  -6   1    0.03    1.49
  -9   6  -1    0.49    1.35
   9  -6   2    0.69    1.63
  -9   6  -2   -0.97    2.23
   9  -6   6   -0.40    1.20
  -9   6  -6    6.27    6.96
   9  -5  -7    0.26    1.17
  -9   5   7   -0.09    0.80
   9  -5  -6    0.26    1.00
  -9   5   6   -0.06    0.80
   9  -5  -5    1.60    1.15
  -9   5   5    1.95    0.83
   9  -5  -4   -0.37    1.55
  -9   5   4   -0.14    0.89
   9  -5  -3   15.09    1.66
  -9   5   3   11.45    1.20
   9  -5  -2    6.41    1.43
  -9   5   2    8.50    1.37
   9  -5  -1    1.23    1.17
  -9   5   1   -0.26    0.94
   9  -5   0    2.06    1.17
  -9   5   0    0.77    1.26
   9  -5   1    3.89    1.63
  -9   5  -1    1.52    2.61
   9  -5   2    0.09    1.63
  -9   5  -2    0.83    1.57
   9  -5   3    1.52    1.77
  -9   5  -3   -0.34    1.80
   9  -5   4    0.60    1.69
  -9   5  -4    1.00    1.95
   9  -5   5    0.34    1.15
  -9   5  -5    0.00    1.37
  -9   5  -6    3.46    9.42
  -9   5  -7 2854.61  110.50
   9  -4  -8    0.00    0.54
  -9   4   8    0.52    0.63
   9  -4  -7    0.54    1.15
  -9   4   7    0.31    0.80
   9  -4  -6   -0.26    1.03
  -9   4   6    0.43    0.77
   9  -4  -5   -1.12    1.43
  -9   4   5   -0.17    0.92
   9  -4  -4   -0.20    1.20
  -9   4   4   -0.17    0.94
   9  -4  -3    4.38    1.40
  -9   4   3    2.61    1.09
   9  -4  -2   11.57    1.98
  -9   4   2    9.53    1.55
   9  -4  -1    5.44    1.23
  -9   4   1    5.58    1.40
   9  -4   0   14.80    1.66
  -9   4   0   12.17    1.43
   9  -4   1    0.09    0.97
  -9   4  -1    0.52    1.15
   9  -4   2    0.03    1.15
  -9   4  -2   -0.20    1.35
   9  -4   3    4.12    1.32
  -9   4  -3    4.55    2.09
   9  -4   4    0.29    1.15
  -9   4  -4   -0.14    1.40
   9  -4   5   -0.63    0.97
  -9   4  -5    0.11    1.37
   9  -4   6   -0.49    1.46
  -9   4  -6    0.31    2.86
   9  -4   7    0.20    0.74
  -9   4  -7   -2.23    2.29
  -9   4  -8    3.18    5.52
  -9   3   9   -0.46    0.66
   9  -3  -8    2.81    1.06
  -9   3   8    0.89    0.92
   9  -3  -7    1.98    1.06
  -9   3   7    1.83    0.69
   9  -3  -6    3.12    1.09
  -9   3   6    2.69    0.97
   9  -3  -5    3.18    1.09
  -9   3   5    3.15    1.03
   9  -3  -4    0.43    0.97
  -9   3   4    0.63    0.89
   9  -3  -3    3.55    1.57
  -9   3   3    3.35    1.32
   9  -3  -2    1.69    1.17
  -9   3   2    2.86    1.29
   9  -3  -1    1.15    1.43
  -9   3   1    2.49    1.12
   9  -3   0   21.30    2.12
  -9   3   0   18.69    1.66
   9  -3   1    8.19    1.32
  -9   3  -1    8.39    1.69
   9  -3   2    6.15    1.12
  -9   3  -2    6.93    1.86
   9  -3   3    0.23    1.00
  -9   3  -3    1.29    1.63
   9  -3   4    1.09    1.32
  -9   3  -4    1.55    3.18
   9  -3   5   -1.06    1.55
  -9   3  -5   -2.15    2.35
   9  -3   6    0.43    1.26
  -9   3  -6   -1.23    2.32
   9  -3   7    0.54    1.12
  -9   3  -7    0.03    1.29
   9  -3   8    0.26    1.35
  -9   3  -8    0.83    1.69
  -9   2  10    1.63    0.57
  -9   2   9    0.66    0.86
   9  -2  -8    0.46    0.94
  -9   2   8    0.14    0.74
   9  -2  -7   -0.03    0.86
  -9   2   7    0.69    0.80
   9  -2  -6    4.69    1.40
  -9   2   6    5.24    0.89
   9  -2  -5   15.46    1.49
  -9   2   5   17.06    1.49
   9  -2  -4    5.84    1.29
  -9   2   4    5.61    1.15
   9  -2  -3   16.20    1.40
  -9   2   3   17.66    1.49
   9  -2  -2    7.04    1.46
  -9   2   2    6.64    1.23
   9  -2  -1    4.12    1.06
  -9   2   1    5.95    1.32
   9  -2   0   12.05    1.52
  -9   2   0    9.62    1.83
   9  -2   1    3.72    1.32
  -9   2  -1    4.64    1.89
   9  -2   2    7.13    1.63
  -9   2  -2    8.33    1.66
   9  -2   3   21.73    2.46
  -9   2  -3   25.88    2.49
   9  -2   4   -0.83    1.37
  -9   2  -4    0.09    2.20
   9  -2   5    1.20    1.23
  -9   2  -5    0.34    2.09
   9  -2   6    1.06    1.32
  -9   2  -6   -0.83    2.89
   9  -2   7    0.14    1.23
  -9   2  -7    0.94    3.92
   9  -2   8   -0.14    1.00
  -9   2  -8   -0.69    3.23
   9  -1 -10   -0.20    1.15
  -9   1  10   -0.49    1.03
   9  -1  -9    0.29    0.97
  -9   1   9   -0.03    0.66
   9  -1  -8    0.66    0.94
  -9   1   8    1.46    0.80
   9  -1  -7    6.36    1.23
  -9   1   7    6.70    0.97
   9  -1  -6   -0.37    1.23
  -9   1   6    1.26    1.17
   9  -1  -5    4.09    0.92
  -9   1   5    2.81    1.23
   9  -1  -4    0.23    0.72
  -9   1   4    0.34    0.97
   9  -1  -3   27.42    2.81
  -9   1   3   31.32    2.35
   9  -1  -2    8.82    1.17
  -9   1   2    9.59    1.46
   9  -1  -1    8.87    1.52
  -9   1   1    6.73    1.52
   9  -1   0   16.98    1.43
  -9   1   0   17.81    1.89
   9  -1   1    2.43    1.03
  -9   1  -1    2.12    1.43
   9  -1   2   11.79    1.46
  -9   1  -2   10.51    2.12
   9  -1   3    3.01    1.03
  -9   1  -3    2.09    2.89
   9  -1   4    5.35    1.15
  -9   1  -4    4.06    1.66
   9  -1   5   10.13    1.49
  -9   1  -5    5.70    4.32
   9  -1   6    2.35    1.26
  -9   1  -6    1.32    2.12
   9  -1   7    0.23    1.77
  -9   1  -7   -1.23    3.35
   9  -1   8    0.31    0.92
   9   0 -11    0.31    0.66
  -9   0  11    0.17    0.60
   9   0 -10   -0.26    0.60
  -9   0  10   -0.06    0.49
   9   0  -9    0.03    0.89
  -9   0   9    1.09    0.77
   9   0  -8    0.89    0.94
  -9   0   8    1.26    0.77
   9   0  -7    3.09    1.17
  -9   0   7    1.77    1.06
   9   0  -6   -0.17    1.12
  -9   0   6    0.57    0.92
   9   0  -5   -0.46    1.06
  -9   0   5    0.74    1.15
   9   0  -4    5.58    0.89
  -9   0   4    4.64    1.37
   9   0  -3    2.66    0.92
  -9   0   3    4.15    1.26
   9   0  -2    5.27    1.52
  -9   0   2    6.64    1.66
   9   0  -1    9.65    1.26
  -9   0   1   10.33    1.52
   9   0   0   10.76    1.35
  -9   0   0   11.94    1.75
   9   0   1    1.46    1.26
  -9   0  -1    0.17    1.92
   9   0   2    3.15    1.40
  -9   0  -2    4.98    2.06
   9   0   3    0.80    1.26
  -9   0  -3    1.40    2.32
   9   0   4    3.06    1.40
  -9   0  -4    7.50    4.24
   9   0   5    0.23    0.80
  -9   0  -5   -2.20    3.29
   9   0   6    0.20    0.86
   9   0   7    0.26    0.52
   9   1 -11   -0.09    0.54
  -9  -1  11    0.11    0.43
   9   1 -10    1.37    0.92
  -9  -1  10    0.37    0.54
   9   1  -9    1.43    1.03
  -9  -1   9    1.37    0.83
   9   1  -8    0.26    1.06
  -9  -1   8    1.00    0.94
   9   1  -7    5.01    1.17
  -9  -1   7    4.78    1.06
   9   1  -6    8.19    1.26
  -9  -1   6    8.33    1.26
   9   1  -5   21.67    1.77
  -9  -1   5   18.66    1.86
   9   1  -4    2.92    1.17
  -9  -1   4    3.69    1.40
   9   1  -3    0.77    0.97
  -9  -1   3    0.83    1.17
   9   1  -2    0.66    0.92
  -9  -1   2    1.15    1.20
   9   1  -1    0.37    1.00
  -9  -1   1    0.52    1.77
   9   1   0   10.19    1.37
  -9  -1   0   10.19    2.12
   9   1   1   -0.54    0.86
  -9  -1  -1    0.43    1.75
   9   1   2    1.29    0.86
  -9  -1  -2    1.95    1.98
   9   1   3    0.74    1.15
  -9  -1  -3    0.20    1.66
   9   1   4    0.92    1.37
  -9  -1  -4    0.03    1.55
   9   1   5    0.49    1.29
   9   2 -11    0.20    0.46
   9   2 -10    0.43    0.80
  -9  -2  10    0.94    0.94
   9   2  -9   -0.03    0.83
  -9  -2   9    0.26    0.80
   9   2  -8    3.78    0.80
  -9  -2   8    5.01    0.80
   9   2  -7    4.06    0.97
  -9  -2   7    5.04    1.12
   9   2  -6    9.76    1.29
  -9  -2   6    9.70    1.40
   9   2  -5    7.13    1.06
  -9  -2   5    8.73    1.43
   9   2  -4   10.56    1.32
  -9  -2   4   13.77    1.89
   9   2  -3   19.01    1.95
  -9  -2   3   19.78    2.23
   9   2  -2   13.48    1.52
  -9  -2   2   15.17    2.09
   9   2  -1    2.78    1.03
  -9  -2   1    3.12    1.83
   9   2   0    0.52    0.86
  -9  -2   0    0.57    1.69
   9   2   1    0.11    1.09
  -9  -2  -1   -0.11    2.18
   9   2   2    3.92    1.15
  -9  -2  -2    2.20    2.06
   9   2   3    0.66    0.80
  -9  -2  -3   -0.20    2.12
   9   2   4    0.86    1.15
  -9  -2  -4    0.46    1.55
  -9  -2  -5   -0.11    1.86
   9   3 -10   -0.11    0.34
   9   3  -9    1.60    0.92
  -9  -3   9    0.34    0.57
   9   3  -8    1.95    0.86
  -9  -3   8    0.86    1.09
   9   3  -7    0.52    0.57
  -9  -3   7    0.26    1.15
   9   3  -6    3.72    0.97
  -9  -3   6    2.58    1.20
   9   3  -5    5.30    0.94
  -9  -3   5    4.35    1.43
   9   3  -4   11.88    1.20
  -9  -3   4   10.99    1.29
   9   3  -3    9.45    1.06
  -9  -3   3    6.87    1.66
   9   3  -2    6.53    1.15
  -9  -3   2    4.24    1.57
   9   3  -1    9.65    1.00
  -9  -3   1    7.61    1.72
   9   3   0    9.16    1.12
  -9  -3   0    9.48    3.66
   9   3   1    3.49    0.89
  -9  -3  -1    0.69    1.26
   9   3   2    0.17    0.69
   9   3   3    0.17    0.94
   9   4  -9    1.09    0.57
   9   4  -8   -0.17    0.72
  -9  -4   8    0.31    0.80
   9   4  -7    0.94    0.72
  -9  -4   7   -0.23    1.06
   9   4  -6    2.98    0.72
  -9  -4   6    1.03    0.97
   9   4  -5    0.06    0.72
  -9  -4   5    0.37    1.80
   9   4  -4   -0.09    0.74
  -9  -4   4    1.86    1.69
   9   4  -3    1.55    0.77
  -9  -4   3   -0.26    1.52
   9   4  -2    0.66    1.06
  -9  -4   2    1.06    1.35
   9   4  -1    3.72    0.80
  -9  -4   1    1.20    2.32
   9   4   0    1.63    0.83
  -9  -4   0    0.11    0.89
   9   4   1    2.06    0.89
  -9  -4  -1    1.29    1.55
   9   4   2    1.43    0.72
   9   4   3    0.40    0.83
   9   5  -9   -0.14    0.43
   9   5  -8    0.14    0.34
   9   5  -7    0.03    0.57
  -9  -5   7    0.11    0.66
   9   5  -6    0.40    0.57
  -9  -5   6    0.37    0.69
   9   5  -5    0.26    0.57
  -9  -5   5   -0.26    1.49
   9   5  -4    0.60    0.83
  -9  -5   4    0.09    1.09
   9   5  -3    0.66    0.69
  -9  -5   3    0.09    2.55
   9   5  -2    2.52    0.77
  -9  -5   2    0.49    1.40
   9   5  -1    0.14    0.80
  -9  -5   1    0.09    2.18
   9   5   0   -0.06    0.74
  -9  -5   0    0.69    1.55
   9   5   1    0.06    1.06
   9   6  -6    0.03    0.60
   9   6  -3    0.37    0.69
  10  -5  -4    4.35    4.78
 -10   5   4    4.06    2.12
  10  -5  -3    7.61    1.26
 -10   5   3    9.88    1.35
  10  -5  -2    0.37    1.23
 -10   5   2   -0.17    1.20
  10  -5  -1    0.29    1.29
 -10   5   1   -0.77    1.26
  10  -5   0    0.63    1.17
 -10   5   0    0.34    1.32
  10  -5   1    0.34    1.35
 -10   5  -1    0.60    1.69
  10  -5   2    0.40    1.00
 -10   5  -2    1.06    1.66
  10  -5   3    0.06    1.06
 -10   5  -3    0.80    1.55
 -10   4   7   -0.23    1.20
 -10   4   6    2.66    1.57
  10  -4  -5    0.80    1.37
 -10   4   5    0.09    1.17
  10  -4  -4    0.31    1.15
 -10   4   4   -1.03    1.17
  10  -4  -3    1.89    1.17
 -10   4   3    1.06    1.15
  10  -4  -2    5.93    1.80
 -10   4   2    4.87    1.46
  10  -4  -1   30.06    2.69
 -10   4   1   22.50    2.43
  10  -4   0    5.61    1.83
 -10   4   0    7.19    1.89
  10  -4   1    1.83    1.72
 -10   4  -1    0.66    1.77
  10  -4   2    0.74    1.66
 -10   4  -2   -0.11    1.89
  10  -4   3    0.40    1.77
 -10   4  -3    0.52    3.26
  10  -4   4    1.77    1.57
  10  -4   5    0.03    0.86
 -10   4  -5   -1.00    2.29
  10  -3  -8   -0.29    1.00
 -10   3   8   -0.31    1.06
  10  -3  -7   -0.46    0.92
 -10   3   7    0.29    0.72
  10  -3  -6    0.03    1.40
 -10   3   6    0.31    1.37
  10  -3  -5   -0.26    0.92
 -10   3   5    0.80    0.86
  10  -3  -4    4.87    1.32
 -10   3   4    2.12    1.09
  10  -3  -3    1.77    1.66
 -10   3   3    1.55    1.46
  10  -3  -2    1.06    1.17
 -10   3   2    0.89    1.35
  10  -3  -1    6.81    1.40
 -10   3   1    5.55    1.49
  10  -3   0   -0.09    1.09
 -10   3   0    1.32    1.49
  10  -3   1   31.12    2.52
 -10   3  -1   22.87    2.38
  10  -3   2   13.25    1.77
 -10   3  -2   14.37    2.03
  10  -3   3    3.12    1.32
 -10   3  -3   -0.23    1.52
  10  -3   4    2.00    1.15
 -10   3  -4   -0.49    2.03
  10  -3   5    0.97    1.40
 -10   2  10    0.40    0.72
  10  -2  -9   -0.40    0.74
 -10   2   9   -0.31    0.72
  10  -2  -8    0.72    1.26
 -10   2   8    0.03    1.15
  10  -2  -7    2.29    0.97
 -10   2   7    0.92    1.12
  10  -2  -6    0.94    1.26
 -10   2   6    0.11    1.03
  10  -2  -5   -0.37    0.94
 -10   2   5    0.06    0.86
  10  -2  -4    0.31    1.32
 -10   2   4    0.31    1.32
  10  -2  -3   -0.26    1.03
 -10   2   3    0.89    1.23
  10  -2  -2    2.12    1.00
 -10   2   2    2.26    1.37
  10  -2  -1    2.26    1.49
 -10   2   1    0.34    1.80
  10  -2   0    2.72    1.55
 -10   2   0    3.35    2.03
  10  -2   1    3.18    1.46
 -10   2  -1    3.98    1.63
  10  -2   2    7.19    1.60
 -10   2  -2    5.35    1.69
  10  -2   3    5.38    1.77
 -10   2  -3    6.56    1.98
  10  -2   4   15.29    2.18
 -10   2  -4   12.94    2.58
  10  -2   5    1.98    1.17
 -10   2  -5   -0.09    1.86
 -10   1  10    0.26    0.46
  10  -1  -9    0.00    0.89
 -10   1   9    0.40    1.15
  10  -1  -8    2.29    0.86
 -10   1   8    0.43    0.86
  10  -1  -7    0.94    0.89
 -10   1   7    1.32    1.12
  10  -1  -6    0.43    1.35
 -10   1   6    0.09    0.80
  10  -1  -5    1.72    0.89
 -10   1   5    0.11    1.03
  10  -1  -4    0.46    1.37
 -10   1   4    1.66    1.37
  10  -1  -3    0.14    0.92
 -10   1   3    0.03    1.43
  10  -1  -2    4.78    1.57
 -10   1   2    3.95    1.80
  10  -1  -1    2.40    1.17
 -10   1   1    0.63    1.57
  10  -1   0    0.09    0.97
 -10   1   0    1.32    1.55
  10  -1   1   -0.17    1.06
 -10   1  -1   -0.77    1.69
  10  -1   2    0.31    1.06
 -10   1  -2   -0.20    1.92
  10  -1   3    2.06    1.17
 -10   1  -3    0.94    2.12
  10  -1   4    6.36    1.60
 -10   1  -4    4.84    3.15
  10  -1   5    0.63    1.29
  10  -1   6    3.64    1.20
  10   0  -9    1.69    0.60
 -10   0   9    0.14    0.66
  10   0  -8    1.55    0.72
 -10   0   8    2.23    0.72
  10   0  -7    0.57    0.83
 -10   0   7   -0.11    0.83
  10   0  -6    2.78    1.20
 -10   0   6    3.89    1.26
  10   0  -5    6.73    1.03
 -10   0   5    6.18    1.60
  10   0  -4    0.03    0.83
 -10   0   4    0.40    1.06
  10   0  -3    0.60    1.17
 -10   0   3    2.69    1.43
  10   0  -2    1.35    0.92
 -10   0   2    1.03    1.17
  10   0  -1    1.12    1.00
 -10   0   1    3.78    1.37
  10   0   0    7.10    1.43
 -10   0   0    5.78    1.86
  10   0   1    4.78    1.43
 -10   0  -1    2.98    2.15
  10   0   2    1.63    1.40
 -10   0  -2    2.09    2.12
  10   0   3    0.66    1.03
 -10   0  -3    0.40    3.21
  10   0   4   -0.20    1.17
  10   0   5   -0.83    1.32
  10   1 -10   -0.09    0.69
  10   1  -9    0.34    0.89
 -10  -1   9    0.20    0.92
  10   1  -8   -0.06    0.94
 -10  -1   8   -0.09    1.03
  10   1  -7   -0.34    1.12
 -10  -1   7    1.17    1.26
  10   1  -6    3.09    1.15
 -10  -1   6    1.40    1.35
  10   1  -5    1.37    1.09
 -10  -1   5    0.74    1.37
  10   1  -4   -0.03    0.74
 -10  -1   4    2.06    1.20
  10   1  -3   11.14    1.49
 -10  -1   3   12.88    1.95
  10   1  -2    2.98    0.92
 -10  -1   2    1.86    1.69
  10   1  -1   -0.34    1.20
 -10  -1   1    1.55    3.01
  10   1   0    0.00    1.09
 -10  -1   0    0.80    3.58
  10   1   1    4.09    1.09
 -10  -1  -1    0.23    3.86
  10   1   2    1.15    0.92
 -10  -1  -2    1.69    3.21
  10   1   3    0.34    0.83
  10   2  -9   -0.11    0.40
 -10  -2   9    0.14    1.75
  10   2  -8    0.20    0.97
 -10  -2   8    0.57    1.29
  10   2  -7   -0.26    1.00
 -10  -2   7    0.09    1.00
  10   2  -6   -0.20    1.00
 -10  -2   6    0.20    1.66
  10   2  -5    0.54    0.94
 -10  -2   5   -0.03    1.40
  10   2  -4    0.29    0.77
 -10  -2   4    0.29    1.35
  10   2  -3    0.43    0.94
 -10  -2   3   -1.20    1.72
  10   2  -2   -0.69    0.80
 -10  -2   2    0.86    1.92
  10   2  -1    0.60    1.35
 -10  -2   1    3.84    2.06
  10   2   0    1.98    1.09
 -10  -2   0    0.89    2.00
  10   2   1    0.31    0.89
 -10  -2  -1    0.72    2.18
  10   2   2    0.11    0.74
 -10  -2  -3    0.72    1.03
  10   3  -9    0.26    0.49
  10   3  -8    0.74    0.83
 -10  -3   8    0.31    1.17
  10   3  -7    0.92    0.66
 -10  -3   7   -0.29    0.77
  10   3  -6    3.23    0.69
 -10  -3   6    3.64    1.57
  10   3  -5    0.49    0.69
 -10  -3   5    0.17    1.35
  10   3  -4    0.06    0.63
 -10  -3   4   -0.23    1.23
  10   3  -3    1.80    1.00
 -10  -3   3    0.06    2.83
  10   3  -2    0.69    0.97
 -10  -3   2    2.66    3.46
  10   3  -1    0.66    1.12
 -10  -3   1    2.69    3.55
  10   3   0    1.09    1.06
 -10  -3   0    0.20    1.75
  10   3   1   -0.40    1.29
 -10  -3  -1    2.12   16.29
  10   4  -9    1.72    0.86
  10   4  -8    1.03    0.74
  10   4  -7    1.32    0.63
 -10  -4   7   -0.03    0.89
  10   4  -6    1.52    0.80
  10   4  -4    2.66    1.80
  10   4  -3    0.00    1.12
  10   4  -2    0.69    1.12
  10   4  -1    1.55    0.97
 -10  -4   1   -0.14    0.83
  10   4   0   -0.31    1.06
 -10  -4  -1   -5.35   19.38
  10   5  -8    0.14    0.40
  10   5  -6    2.72    0.52
  10   5  -5    0.26    0.43
  10   5  -4    0.26    0.72
 -10  -5   4    1.72    2.00
  10   5  -2    0.52    1.17
  10   6  -6    0.31    0.72
  10   6  -5    1.06    0.57
  11  -3  -4   -0.66    1.03
 -11   3   4    0.66    1.00
  11  -3  -3   -0.06    1.15
 -11   3   3    0.23    0.97
  11  -3  -2    0.09    1.66
 -11   3   2   -0.69    1.23
  11  -3  -1   -0.52    1.69
 -11   3   1    0.00    1.63
  11  -3   0    0.74    1.66
 -11   3   0    2.23    1.89
  11  -2  -7    1.92    1.29
 -11   2   7    0.89    1.29
  11  -2  -6    4.47    2.03
 -11   2   6    3.26    1.17
  11  -2  -5    3.61    1.06
 -11   2   5    4.29    1.26
  11  -2  -4    2.49    1.06
 -11   2   4    2.00    1.12
  11  -2  -3    0.94    1.26
 -11   2   3    1.12    1.29
  11  -2  -2    2.09    1.43
 -11   2   2    1.69    1.63
  11  -2  -1    1.00    1.17
 -11   2   1    1.35    1.26
  11  -2   0    0.46    1.09
 -11   2   0   -0.31    1.49
  11  -2   1    0.29    1.15
 -11   2  -1    0.49    1.72
  11  -2   2    0.74    3.49
 -11   2  -2    1.40    2.26
 -11   1   9   -0.06    1.20
  11  -1  -8    0.37    0.57
 -11   1   8    0.57    1.26
  11  -1  -7    0.11    1.03
 -11   1   7    1.32    0.89
  11  -1  -6    0.63    1.20
 -11   1   6    0.66    1.12
  11  -1  -5    4.98    1.15
 -11   1   5    1.92    0.97
  11  -1  -4    4.47    1.69
 -11   1   4    4.81    1.72
  11  -1  -3    4.15    1.35
 -11   1   3    4.52    2.81
  11  -1  -2    3.41    1.12
 -11   1   2    5.58    2.58
  11  -1  -1    0.49    1.06
 -11   1   1    0.26    2.78
  11  -1   0    0.80    1.00
 -11   1   0    0.26    2.72
  11  -1   1    0.03    1.17
 -11   1  -1    0.31    2.52
  11  -1   2   -0.29    0.72
 -11   1  -2   -0.17    2.72
  11   0  -8    0.00    0.57
  11   0  -7   -0.17    1.20
 -11   0   7    0.46    1.49
  11   0  -6    0.00    0.80
 -11   0   6   -0.20    1.26
  11   0  -5    0.31    0.92
 -11   0   5   -0.06    1.23
  11   0  -4    0.31    1.29
 -11   0   4    0.57    1.60
  11   0  -3    3.15    1.29
 -11   0   3    0.89    1.75
  11   0  -2    2.15    0.97
 -11   0   2    0.89    1.40
  11   0  -1    0.69    0.86
 -11   0   1    0.37    2.46
  11   0   0    2.61    1.23
 -11   0   0    0.89    2.12
  11   0   1   -0.94    1.03
 -11  -1  10   -0.46    0.66
  11   1  -8    2.38    4.61
 -11  -1   8    1.12    1.89
  11   1  -7   10.39    2.18
 -11  -1   7   10.25    3.52
  11   1  -6    1.86    0.72
 -11  -1   6    0.20    1.75
  11   1  -5    0.17    1.03
 -11  -1   5    1.23    1.29
  11   1  -4   -0.11    1.15
 -11  -1   4    0.14    1.66
  11   1  -3   -0.37    1.29
 -11  -1   3    0.03    1.63
  11   1  -2   -0.09    0.63
 -11  -1   2    1.12    1.72
  11   1  -1   -0.26    1.03
  11   1   0    0.14    0.69
  11   1   1    0.09    0.72
  11   2  -8    0.46    0.72
 -11  -2   8    0.52    0.94
  11   2  -7    0.06    0.46
 -11  -2   7    0.46    1.49
  11   2  -6    0.11    0.66
 -11  -2   6    0.54    1.03
  11   2  -5    7.70    1.37
 -11  -2   5    7.41    1.98
  11   2  -4    4.72    1.03
 -11  -2   4    6.07    3.09
  11   2  -3    1.23    0.72
 -11  -2   3    0.63    2.06
  11   2  -2   -0.31    0.66
  11   2  -1   -0.52    1.17
  11   3  -7   -0.11    0.60
  11   3  -6    0.37    1.55
  11   3  -5    0.00    1.03
 -11  -3   5    0.77    2.20
  11   3  -4    0.31    0.43
  11   3  -3    0.26    0.72
  11   3  -2    4.15    1.55
  11   4  -7    0.06    0.74
 -11  -4   7    0.43    0.89
  11   4  -5   -0.06    0.63
  11   4  -3    0.20    0.86
 -12   0   5    1.26    1.86
 -12   0   4    0.17    1.55
   0   0   0    0.00    0.00

_computing_structure_solution     '<i>SHELXT-2018</i>(Sheldrick, 2018)'
;
_shelx_hkl_checksum              6201
loop_
_space_group_symop_operation_xyz
'x, y, z'
'-x, -y, -z'
loop_
_atom_site_label
_atom_site_type_symbol
_atom_site_fract_x
_atom_site_fract_y
_atom_site_fract_z
_atom_site_U_iso_or_equiv
_atom_site_adp_type
_atom_site_occupancy
_atom_site_site_symmetry_order
_atom_site_calc_flag
_atom_site_refinement_flags_posn
_atom_site_refinement_flags_adp
_atom_site_refinement_flags_occupancy
_atom_site_disorder_assembly
_atom_site_disorder_group
S1 S 0.24198(11) 1.11443(12) 0.48568(9) 0.0627(4) Uani 1 1 d . . . . .
O1 O 0.3460(3) 0.5790(4) 0.6896(3) 0.0664(7) Uani 1 1 d . . . . .
H1 H 0.329330 0.667991 0.658288 0.100 Uiso 1 1 calc R U . . .
N1 N 0.4178(5) 0.8371(4) 0.5808(3) 0.0627(8) Uani 1 1 d . . . . .
N2 N 0.8281(4) 0.2132(5) 0.8229(4) 0.0753(10) Uani 1 1 d . . . . .
C1 C 0.4176(4) 0.9778(5) 0.5203(3) 0.0569(8) Uani 1 1 d . . . . .
C2 C 0.5983(4) 0.7755(4) 0.5845(3) 0.0530(7) Uani 1 1 d . . . . .
C3 C 0.6584(4) 0.6297(4) 0.6440(3) 0.0538(7) Uani 1 1 d . . . . .
C4 C 0.5299(4) 0.5386(5) 0.6962(3) 0.0541(7) Uani 1 1 d . . . . .
C5 C 0.5859(5) 0.4032(5) 0.7553(3) 0.0571(8) Uani 1 1 d . . . . .
H5 H 0.496641 0.344798 0.789307 0.068 Uiso 1 1 calc R U . . .
C6 C 0.7737(5) 0.3505(5) 0.7659(4) 0.0593(8) Uani 1 1 d . . . . .
C7 C 0.9031(5) 0.4406(5) 0.7124(4) 0.0618(9) Uani 1 1 d . . . . .
H7 H 1.029473 0.408173 0.717128 0.074 Uiso 1 1 calc R U . . .
C8 C 0.8458(5) 0.5741(5) 0.6542(4) 0.0593(8) Uani 1 1 d . . . . .
H8 H 0.934717 0.631486 0.619370 0.071 Uiso 1 1 calc R U . . .
C9 C 0.6987(5) 0.1227(5) 0.8802(4) 0.0647(9) Uani 1 1 d . . . . .
H9A H 0.746577 0.001691 0.884414 0.078 Uiso 1 1 calc R U . . .
H9AB H 0.577382 0.098665 0.824827 0.078 Uiso 1 1 calc R U . . .
C10 C 0.6665(6) 0.2316(6) 1.0122(4) 0.0749(10) Uani 1 1 d . . . . .
H10A H 0.580645 0.159824 1.044217 0.112 Uiso 1 1 calc R U . . .
H10B H 0.612780 0.349058 1.008728 0.112 Uiso 1 1 calc R U . . .
H10C H 0.785528 0.255702 1.068292 0.112 Uiso 1 1 calc R U . . .
C11A C 1.0143(8) 0.1362(9) 0.8191(7) 0.0640(18) Uani 0.651(10) 1 d . . P A 1
H11A H 1.060438 0.138945 0.739760 0.077 Uiso 0.651(10) 1 calc R U P A 1
H11B H 1.007316 0.006471 0.822717 0.077 Uiso 0.651(10) 1 calc R U P A 1
C12A C 1.1463(11) 0.2527(11) 0.9316(8) 0.085(2) Uani 0.651(10) 1 d . . P A 1
H12A H 1.164583 0.376964 0.921880 0.127 Uiso 0.651(10) 1 calc R U P A 1
H12B H 1.266491 0.195240 0.936335 0.127 Uiso 0.651(10) 1 calc R U P A 1
H12C H 1.092612 0.260786 1.009060 0.127 Uiso 0.651(10) 1 calc R U P A 1
C11B C 1.0415(18) 0.2378(17) 0.8964(12) 0.059(3) Uani 0.349(10) 1 d . . P A 2
H11C H 1.102285 0.357512 0.898741 0.071 Uiso 0.349(10) 1 calc R U P A 2
H11D H 1.045942 0.226825 0.983237 0.071 Uiso 0.349(10) 1 calc R U P A 2
C12B C 1.1312(14) 0.0733(17) 0.8117(14) 0.075(4) Uani 0.349(10) 1 d . . P A 2
H12D H 1.034047 -0.021310 0.765773 0.113 Uiso 0.349(10) 1 calc R U P A 2
H12E H 1.221668 0.020728 0.864172 0.113 Uiso 0.349(10) 1 calc R U P A 2
H12F H 1.194570 0.116521 0.751562 0.113 Uiso 0.349(10) 1 calc R U P A 2
loop_
_atom_site_aniso_label
_atom_site_aniso_U_11
_atom_site_aniso_U_22
_atom_site_aniso_U_33
_atom_site_aniso_U_23
_atom_site_aniso_U_13
_atom_site_aniso_U_12
S1 0.0411(5) 0.0696(6) 0.0799(7) 0.0261(5) 0.0043(4) 0.0124(3)
O1 0.0364(12) 0.0818(16) 0.0856(17) 0.0307(14) 0.0077(11) 0.0155(10)
N1 0.078(2) 0.0499(13) 0.0575(15) 0.0141(12) 0.0016(14) 0.0080(13)
N2 0.0450(16) 0.098(2) 0.103(2) 0.058(2) 0.0175(16) 0.0270(15)
C1 0.0388(15) 0.0604(17) 0.0681(19) 0.0140(15) 0.0022(13) 0.0092(12)
C2 0.0366(14) 0.0582(16) 0.0605(17) 0.0125(14) 0.0002(12) 0.0095(12)
C3 0.0370(14) 0.0592(16) 0.0628(18) 0.0153(14) 0.0009(12) 0.0095(12)
C4 0.0355(14) 0.0621(16) 0.0612(18) 0.0131(14) 0.0015(12) 0.0101(12)
C5 0.0405(15) 0.0686(19) 0.0637(18) 0.0213(15) 0.0055(13) 0.0107(13)
C6 0.0417(16) 0.0701(18) 0.069(2) 0.0249(16) 0.0030(14) 0.0131(13)
C7 0.0349(15) 0.078(2) 0.078(2) 0.0291(18) 0.0087(14) 0.0143(14)
C8 0.0376(15) 0.0694(19) 0.073(2) 0.0237(17) 0.0055(14) 0.0120(13)
C9 0.0499(18) 0.0707(19) 0.079(2) 0.0290(18) 0.0097(16) 0.0141(15)
C10 0.064(2) 0.084(2) 0.075(2) 0.020(2) 0.0072(19) 0.0048(19)
C11A 0.044(3) 0.073(3) 0.083(4) 0.034(4) 0.011(3) 0.017(2)
C12A 0.049(4) 0.109(5) 0.094(5) 0.034(4) -0.012(4) 0.007(4)
C11B 0.052(7) 0.067(6) 0.057(6) 0.022(5) -0.005(5) 0.003(5)
C12B 0.037(5) 0.086(7) 0.114(10) 0.046(7) 0.010(5) 0.019(5)
loop_
_atom_type_symbol
_atom_type_description
_atom_type_scat_dispersion_real
_atom_type_scat_dispersion_imag
_atom_type_scat_source
C C 0.0021 0.0012 'International Tables Vol C Tables 4.2.6.8 and 6.1.1.4'
H H 0.0000 0.0000 'International Tables Vol C Tables 4.2.6.8 and 6.1.1.4'
N N 0.0044 0.0025 'International Tables Vol C Tables 4.2.6.8 and 6.1.1.4'
O O 0.0080 0.0047 'International Tables Vol C Tables 4.2.6.8 and 6.1.1.4'
S S 0.1022 0.0976 'International Tables Vol C Tables 4.2.6.8 and 6.1.1.4'
loop_
_geom_angle_atom_site_label_1
_geom_angle_atom_site_label_2
_geom_angle_atom_site_label_3
_geom_angle
_geom_angle_site_symmetry_1
_geom_angle_site_symmetry_3
_geom_angle_publ_flag
C1 S1 C2 88.31(15) . 2_676 ?
C4 O1 H1 109.5 . . ?
C2 N1 C1 105.5(3) . . ?
C6 N2 C9 121.9(3) . . ?
C6 N2 C11A 122.5(4) . . ?
C9 N2 C11A 115.3(4) . . ?
C6 N2 C11B 115.7(5) . . ?
C9 N2 C11B 113.4(5) . . ?
C1 C1 N1 118.5(4) 2_676 . ?
C1 C1 S1 111.2(4) 2_676 . ?
N1 C1 S1 130.3(3) . . ?
N1 C2 C3 122.7(3) . . ?
N1 C2 S1 116.5(3) . 2_676 ?
C3 C2 S1 120.8(2) . 2_676 ?
C4 C3 C8 116.6(3) . . ?
C4 C3 C2 120.7(3) . . ?
C8 C3 C2 122.7(3) . . ?
O1 C4 C5 117.3(3) . . ?
O1 C4 C3 121.5(3) . . ?
C5 C4 C3 121.2(3) . . ?
C4 C5 C6 121.5(3) . . ?
C4 C5 H5 119.3 . . ?
C6 C5 H5 119.3 . . ?
N2 C6 C5 121.3(3) . . ?
N2 C6 C7 121.3(3) . . ?
C5 C6 C7 117.5(3) . . ?
C8 C7 C6 120.4(3) . . ?
C8 C7 H7 119.8 . . ?
C6 C7 H7 119.8 . . ?
C7 C8 C3 122.7(3) . . ?
C7 C8 H8 118.6 . . ?
C3 C8 H8 118.6 . . ?
N2 C9 C10 114.9(4) . . ?
N2 C9 H9A 108.5 . . ?
C10 C9 H9A 108.5 . . ?
N2 C9 H9AB 108.5 . . ?
C10 C9 H9AB 108.5 . . ?
H9A C9 H9AB 107.5 . . ?
C9 C10 H10A 109.5 . . ?
C9 C10 H10B 109.5 . . ?
H10A C10 H10B 109.5 . . ?
C9 C10 H10C 109.5 . . ?
H10A C10 H10C 109.5 . . ?
H10B C10 H10C 109.5 . . ?
N2 C11A C12A 108.3(6) . . ?
N2 C11A H11A 110.0 . . ?
C12A C11A H11A 110.0 . . ?
N2 C11A H11B 110.0 . . ?
C12A C11A H11B 110.0 . . ?
H11A C11A H11B 108.4 . . ?
C11A C12A H12A 109.5 . . ?
C11A C12A H12B 109.5 . . ?
H12A C12A H12B 109.5 . . ?
C11A C12A H12C 109.5 . . ?
H12A C12A H12C 109.5 . . ?
H12B C12A H12C 109.5 . . ?
C12B C11B N2 100.7(9) . . ?
C12B C11B H11C 111.6 . . ?
N2 C11B H11C 111.6 . . ?
C12B C11B H11D 111.6 . . ?
N2 C11B H11D 111.6 . . ?
H11C C11B H11D 109.4 . . ?
C11B C12B H12D 109.5 . . ?
C11B C12B H12E 109.5 . . ?
H12D C12B H12E 109.5 . . ?
C11B C12B H12F 109.5 . . ?
H12D C12B H12F 109.5 . . ?
H12E C12B H12F 109.5 . . ?
loop_
_geom_bond_atom_site_label_1
_geom_bond_atom_site_label_2
_geom_bond_distance
_geom_bond_site_symmetry_2
_geom_bond_publ_flag
S1 C1 1.700(3) . ?
S1 C2 1.771(4) 2_676 ?
O1 C4 1.355(3) . ?
O1 H1 0.8300 . ?
N1 C2 1.379(4) . ?
N1 C1 1.387(5) . ?
N2 C6 1.374(5) . ?
N2 C9 1.443(5) . ?
N2 C11A 1.463(6) . ?
N2 C11B 1.619(13) . ?
C1 C1 1.385(7) 2_676 ?
C2 C3 1.457(5) . ?
C3 C4 1.406(5) . ?
C3 C8 1.412(4) . ?
C4 C5 1.380(5) . ?
C5 C6 1.408(4) . ?
C5 H5 0.9400 . ?
C6 C7 1.415(5) . ?
C7 C8 1.364(5) . ?
C7 H7 0.9400 . ?
C8 H8 0.9400 . ?
C9 C10 1.513(6) . ?
C9 H9A 0.9800 . ?
C9 H9AB 0.9800 . ?
C10 H10A 0.9700 . ?
C10 H10B 0.9700 . ?
C10 H10C 0.9700 . ?
C11A C12A 1.510(11) . ?
C11A H11A 0.9800 . ?
C11A H11B 0.9800 . ?
C12A H12A 0.9700 . ?
C12A H12B 0.9700 . ?
C12A H12C 0.9700 . ?
C11B C12B 1.534(18) . ?
C11B H11C 0.9800 . ?
C11B H11D 0.9800 . ?
C12B H12D 0.9700 . ?
C12B H12E 0.9700 . ?
C12B H12F 0.9700 . ?
loop_
_geom_hbond_atom_site_label_D
_geom_hbond_atom_site_label_H
_geom_hbond_atom_site_label_A
_geom_hbond_distance_DH
_geom_hbond_distance_HA
_geom_hbond_distance_DA
_geom_hbond_angle_DHA
_geom_hbond_site_symmetry_A
_geom_hbond_publ_flag
O1 H1 N1 0.83 1.85 2.606(4) 150.6 . yes
loop_
_geom_torsion_atom_site_label_1
_geom_torsion_atom_site_label_2
_geom_torsion_atom_site_label_3
_geom_torsion_atom_site_label_4
_geom_torsion
_geom_torsion_site_symmetry_1
_geom_torsion_site_symmetry_2
_geom_torsion_site_symmetry_3
_geom_torsion_site_symmetry_4
_geom_torsion_publ_flag
C2 N1 C1 C1 0.2(5) . . . 2_676 ?
C2 N1 C1 S1 -179.3(3) . . . . ?
C2 S1 C1 C1 0.6(4) 2_676 . . 2_676 ?
C2 S1 C1 N1 -179.8(4) 2_676 . . . ?
C1 N1 C2 C3 178.4(3) . . . . ?
C1 N1 C2 S1 -0.7(4) . . . 2_676 ?
N1 C2 C3 C4 2.9(5) . . . . ?
S1 C2 C3 C4 -178.1(2) 2_676 . . . ?
N1 C2 C3 C8 -176.3(3) . . . . ?
S1 C2 C3 C8 2.8(5) 2_676 . . . ?
C8 C3 C4 O1 -178.8(3) . . . . ?
C2 C3 C4 O1 2.0(5) . . . . ?
C8 C3 C4 C5 0.6(5) . . . . ?
C2 C3 C4 C5 -178.6(3) . . . . ?
O1 C4 C5 C6 179.4(3) . . . . ?
C3 C4 C5 C6 0.0(6) . . . . ?
C9 N2 C6 C5 -3.1(7) . . . . ?
C11A N2 C6 C5 170.8(5) . . . . ?
C11B N2 C6 C5 -148.1(6) . . . . ?
C9 N2 C6 C7 178.7(4) . . . . ?
C11A N2 C6 C7 -7.4(7) . . . . ?
C11B N2 C6 C7 33.6(7) . . . . ?
C4 C5 C6 N2 -178.9(4) . . . . ?
C4 C5 C6 C7 -0.6(6) . . . . ?
N2 C6 C7 C8 178.8(4) . . . . ?
C5 C6 C7 C8 0.5(6) . . . . ?
C6 C7 C8 C3 0.1(6) . . . . ?
C4 C3 C8 C7 -0.7(6) . . . . ?
C2 C3 C8 C7 178.5(3) . . . . ?
C6 N2 C9 C10 -80.4(5) . . . . ?
C11A N2 C9 C10 105.3(5) . . . . ?
C11B N2 C9 C10 65.4(6) . . . . ?
C6 N2 C11A C12A 89.1(7) . . . . ?
C9 N2 C11A C12A -96.6(6) . . . . ?
C6 N2 C11B C12B -112.3(7) . . . . ?
C9 N2 C11B C12B 99.7(7) . . . . ?
