#------------------------------------------------------------------------------
#$Date: 2021-09-06 13:18:35 +0300 (Mon, 06 Sep 2021) $
#$Revision: 268631 $
#$URL: file:///home/coder/svn-repositories/cod/cif/7/24/31/7243110.cif $
#------------------------------------------------------------------------------
#
# This file is available in the Crystallography Open Database (COD),
# http://www.crystallography.net/
#
# All data on this site have been placed in the public domain by the
# contributors.
#
data_7243110
loop_
_publ_author_name
'Colmont, Marie'
'Zadoya, Anastasiya'
'Darie, C\'eline'
'Domingos, Cyril'
'Leclercq, Bastien'
'Mentr\'e, Olivier'
_publ_section_title
;
 Direct Bi3+--Bi3+ contacts mediated by lone pairs in the HP-BiNiO(PO4)
 polymorph
;
_journal_issue                   29
_journal_name_full               CrystEngComm
_journal_page_first              5124
_journal_page_last               5130
_journal_paper_doi               10.1039/D1CE00802A
_journal_volume                  23
_journal_year                    2021
_chemical_formula_sum            'Bi2 Ni2 O10 P2'
_chemical_formula_weight         757.3
_space_group_IT_number           2
_space_group_name_Hall           '-P 1'
_space_group_name_H-M_alt        'P -1'
_symmetry_cell_setting           triclinic
_symmetry_Int_Tables_number      2
_symmetry_space_group_name_Hall  '-P 1'
_symmetry_space_group_name_H-M   'P -1'
_audit_update_record
;
2021-06-02 deposited with the CCDC.	2021-06-23 downloaded from the CCDC.
;
_cell_angle_alpha                83.817(2)
_cell_angle_beta                 110.727(2)
_cell_angle_gamma                123.412(2)
_cell_formula_units_Z            1
_cell_length_a                   7.4211(4)
_cell_length_b                   6.5606(4)
_cell_length_c                   5.1633(3)
_cell_measurement_temperature    293
_cell_volume                     195.03(2)
_diffrn_ambient_temperature      293
_diffrn_measurement_device_type  'BRUKER D8 ADVANCE'
_diffrn_radiation_probe          x-ray
_diffrn_radiation_type           'Cu K\a'
_diffrn_radiation_wavelength     1.54187
_diffrn_source                   'X-ray tube'
_diffrn_source_target            Copper
_exptl_absorpt_coefficient_mu    96.866
_exptl_crystal_density_diffrn    6.4476
_exptl_crystal_description       powder
_exptl_crystal_F_000             332
_pd_instr_location               ' ?'
_pd_meas_2theta_range_inc        0.02
_pd_meas_2theta_range_max        119.685
_pd_meas_2theta_range_min        5.000
_pd_meas_number_of_points        5615
_pd_proc_2theta_range_inc        0.02
_pd_proc_2theta_range_max        119.685
_pd_proc_2theta_range_min        12.497
_pd_proc_ls_background_function
'Manual background combined with 11 Legendre polynoms'
_pd_proc_ls_pref_orient_corr     'March & Dollase'
_pd_proc_ls_profile_function     Pseudo-Voigt
_pd_proc_ls_prof_R_factor        0.0281
_pd_proc_ls_prof_wR_expected     0.0107
_pd_proc_ls_prof_wR_factor       0.0376
_refine_diff_density_max         2.23
_refine_diff_density_min         -2.23
_refine_ls_goodness_of_fit_all   3.53
_refine_ls_number_constraints    0
_refine_ls_number_parameters     49
_refine_ls_number_restraints     10
_refine_ls_R_factor_all          0.0383
_refine_ls_R_factor_gt           0.0383
_refine_ls_shift/su_max          0.0133
_refine_ls_shift/su_mean         0.0023
_refine_ls_weighting_scheme      sigma
_refine_ls_wR_factor_all         0.0483
_refine_ls_wR_factor_gt          0.0483
_cod_data_source_file            d1ce00802a2.cif
_cod_data_source_block           I
_cod_depositor_comments
;
The following automatic conversions were performed:

data item '_diffrn_radiation_probe' value 'X-ray' was changed to
'x-ray' in accordance with the
/home/data/users/saulius/crontab/automatic-downloads/rss-feeds/RSC/lib/dictionaries/cif_core.dic
dictionary named 'cif_core.dic' version 2.4.2 last updated on
2011-04-26.

Automatic conversion script
Id: cif_fix_values 7556 2019-12-06 15:28:31Z antanas 

 Adding full bibliography for 7243110.cif.
;
_cod_database_code               7243110
loop_
_space_group_symop_id
_space_group_symop_operation_xyz
1 x,y,z
2 -x,-y,-z
loop_
_atom_site_label
_atom_site_type_symbol
_atom_site_fract_x
_atom_site_fract_y
_atom_site_fract_z
_atom_site_adp_type
_atom_site_U_iso_or_equiv
_atom_site_site_symmetry_multiplicity
_atom_site_occupancy
_atom_site_calc_flag
_atom_site_refinement_flags
_atom_site_disorder_assembly
_atom_site_disorder_group
Bi1 Bi 0.9552(3) 0.2302(3) 0.8972(3) Uiso 0.0092(5) 2 1 d . . .
Ni1 Ni 0.7250(8) 0.8638(7) 0.3230(9) Uiso 0.0049(17) 2 1 d . . .
O1 O 0.926(2) 0.929(2) 0.7331(14) Uiso 0.0012 2 1 d . . .
P1 P 0.3761(10) 0.6980(11) 0.6492(12) Uiso 0.013(2) 2 1 d . . .
O2 O 0.236(2) 0.791(2) 0.614(2) Uiso 0.0012 2 1 d . . .
O3 O 0.2954(19) 0.4579(12) 0.757(2) Uiso 0.0012 2 1 d . . .
O4 O 0.458(2) 0.708(2) 0.3990(19) Uiso 0.0012 2 1 d . . .
O5 O 0.5919(16) 0.8812(16) 0.9002(18) Uiso 0.0012 2 1 d . . .
loop_
_atom_site_aniso_label
_atom_site_aniso_type_symbol
_atom_site_aniso_U_11
_atom_site_aniso_U_22
_atom_site_aniso_U_33
_atom_site_aniso_U_12
_atom_site_aniso_U_13
_atom_site_aniso_U_23
? ? ? ? ? ? ? ?
loop_
_atom_type_symbol
_atom_type_scat_dispersion_real
_atom_type_scat_dispersion_imag
_atom_type_scat_source
Bi -4.0111 8.9310 'International Tables Vol C tables 4.2.6.8 and 6.1.1.1'
Ni -3.0029 0.5091 'International Tables Vol C tables 4.2.6.8 and 6.1.1.1'
O 0.0492 0.0322 'International Tables Vol C tables 4.2.6.8 and 6.1.1.1'
P 0.2955 0.4335 'International Tables Vol C tables 4.2.6.8 and 6.1.1.1'
loop_
_exptl_crystal_face_index_h
_exptl_crystal_face_index_k
_exptl_crystal_face_index_l
_exptl_crystal_face_perp_dist
? ? ? ?
loop_
_geom_angle_atom_site_label_1
_geom_angle_atom_site_label_2
_geom_angle_atom_site_label_3
_geom_angle_site_symmetry_1
_geom_angle_site_symmetry_2
_geom_angle_site_symmetry_3
_geom_angle
_geom_angle_publ_flag
Bi1 Bi1 Bi1 2_757 . 2_767 146.00(5) ?
Bi1 Bi1 Ni1 2_757 . 1_545 74.37(10) ?
Bi1 Bi1 Ni1 2_757 . 1_546 59.53(13) ?
Bi1 Bi1 Ni1 2_757 . 2_766 57.56(9) ?
Bi1 Bi1 O1 2_757 . 1_545 38.7(3) ?
Bi1 Bi1 O1 2_757 . 2_767 36.5(4) ?
Bi1 Bi1 P1 2_757 . 1_655 112.51(17) ?
Bi1 Bi1 P1 2_757 . 2_666 134.89(14) ?
Bi1 Bi1 O2 2_757 . 2_666 115.3(4) ?
Bi1 Bi1 O3 2_757 . 1_655 92.2(3) ?
Bi1 Bi1 O5 2_757 . 1_545 74.2(3) ?
Bi1 Bi1 Ni1 2_767 . 1_545 139.59(11) ?
Bi1 Bi1 Ni1 2_767 . 1_546 102.50(12) ?
Bi1 Bi1 Ni1 2_767 . 2_766 130.12(8) ?
Bi1 Bi1 O1 2_767 . 1_545 171.9(3) ?
Bi1 Bi1 O1 2_767 . 2_767 109.9(4) ?
Bi1 Bi1 P1 2_767 . 1_655 73.78(15) ?
Bi1 Bi1 P1 2_767 . 2_666 78.37(15) ?
Bi1 Bi1 O2 2_767 . 2_666 98.6(4) ?
Bi1 Bi1 O3 2_767 . 1_655 91.0(3) ?
Bi1 Bi1 O5 2_767 . 1_545 111.6(3) ?
Ni1 Bi1 Ni1 1_545 . 1_546 104.09(11) ?
Ni1 Bi1 Ni1 1_545 . 2_766 58.89(12) ?
Ni1 Bi1 O1 1_545 . 1_545 36.3(3) ?
Ni1 Bi1 O1 1_545 . 2_767 110.4(4) ?
Ni1 Bi1 P1 1_545 . 1_655 90.20(14) ?
Ni1 Bi1 P1 1_545 . 2_666 62.39(18) ?
Ni1 Bi1 O2 1_545 . 2_666 41.0(4) ?
Ni1 Bi1 O3 1_545 . 1_655 83.6(2) ?
Ni1 Bi1 O5 1_545 . 1_545 73.5(3) ?
Ni1 Bi1 Ni1 1_546 . 2_766 117.09(15) ?
Ni1 Bi1 O1 1_546 . 1_545 85.6(3) ?
Ni1 Bi1 O1 1_546 . 2_767 44.7(4) ?
Ni1 Bi1 P1 1_546 . 1_655 159.78(12) ?
Ni1 Bi1 P1 1_546 . 2_666 118.04(15) ?
Ni1 Bi1 O2 1_546 . 2_666 127.3(3) ?
Ni1 Bi1 O3 1_546 . 1_655 146.0(3) ?
Ni1 Bi1 O5 1_546 . 1_545 39.7(2) ?
Ni1 Bi1 O1 2_766 . 1_545 43.1(3) ?
Ni1 Bi1 O1 2_766 . 2_767 82.2(5) ?
Ni1 Bi1 P1 2_766 . 1_655 58.44(17) ?
Ni1 Bi1 P1 2_766 . 2_666 105.59(18) ?
Ni1 Bi1 O2 2_766 . 2_666 81.2(5) ?
Ni1 Bi1 O3 2_766 . 1_655 39.4(3) ?
Ni1 Bi1 O5 2_766 . 1_545 118.2(3) ?
O1 Bi1 O1 1_545 . 2_767 75.2(5) ?
O1 Bi1 P1 1_545 . 1_655 98.3(3) ?
O1 Bi1 P1 1_545 . 2_666 98.7(3) ?
O1 Bi1 O2 1_545 . 2_666 76.7(5) ?
O1 Bi1 O3 1_545 . 1_655 81.6(4) ?
O1 Bi1 O5 1_545 . 1_545 75.1(5) ?
O1 Bi1 P1 2_767 . 1_655 117.0(3) ?
O1 Bi1 P1 2_767 . 2_666 161.3(3) ?
O1 Bi1 O2 2_767 . 2_666 151.3(5) ?
O1 Bi1 O3 2_767 . 1_655 101.4(5) ?
O1 Bi1 O5 2_767 . 1_545 79.8(4) ?
P1 Bi1 P1 1_655 . 2_666 81.14(15) ?
P1 Bi1 O2 1_655 . 2_666 72.8(3) ?
P1 Bi1 O3 1_655 . 1_655 20.3(3) ?
P1 Bi1 O5 1_655 . 1_545 160.4(2) ?
P1 Bi1 O2 2_666 . 2_666 25.1(5) ?
P1 Bi1 O3 2_666 . 1_655 95.1(3) ?
P1 Bi1 O5 2_666 . 1_545 81.6(3) ?
O2 Bi1 O3 2_666 . 1_655 80.0(4) ?
O2 Bi1 O5 2_666 . 1_545 87.7(3) ?
O3 Bi1 O5 1_655 . 1_545 155.7(4) ?
Bi1 Ni1 Bi1 1_564 . 1_565 104.09(11) ?
Bi1 Ni1 Bi1 1_564 . 2_766 62.91(12) ?
Bi1 Ni1 O1 1_564 . . 118.3(3) ?
Bi1 Ni1 O1 1_564 . 2_776 43.0(3) ?
Bi1 Ni1 O2 1_564 . 2_676 71.0(4) ?
Bi1 Ni1 O3 1_564 . 2_666 104.5(4) ?
Bi1 Ni1 O4 1_564 . . 140.0(5) ?
Bi1 Ni1 O5 1_564 . 1_554 47.5(3) ?
Bi1 Ni1 Bi1 1_565 . 2_766 121.11(14) ?
Bi1 Ni1 O1 1_565 . . 37.8(5) ?
Bi1 Ni1 O1 1_565 . 2_776 90.4(3) ?
Bi1 Ni1 O2 1_565 . 2_676 49.0(3) ?
Bi1 Ni1 O3 1_565 . 2_666 133.0(3) ?
Bi1 Ni1 O4 1_565 . . 85.0(4) ?
Bi1 Ni1 O5 1_565 . 1_554 135.2(4) ?
Bi1 Ni1 O1 2_766 . . 94.8(6) ?
Bi1 Ni1 O1 2_766 . 2_776 39.0(4) ?
Bi1 Ni1 O2 2_766 . 2_676 127.8(4) ?
Bi1 Ni1 O3 2_766 . 2_666 47.8(4) ?
Bi1 Ni1 O4 2_766 . . 143.5(5) ?
Bi1 Ni1 O5 2_766 . 1_554 80.4(4) ?
O1 Ni1 O1 . . 2_776 82.5(4) ?
O1 Ni1 O2 . . 2_676 86.0(6) ?
O1 Ni1 O3 . . 2_666 95.4(6) ?
O1 Ni1 O4 . . . 92.9(5) ?
O1 Ni1 O5 . . 1_554 165.7(4) ?
O1 Ni1 O2 2_776 . 2_676 90.0(6) ?
O1 Ni1 O3 2_776 . 2_666 85.8(6) ?
O1 Ni1 O4 2_776 . . 175.2(4) ?
O1 Ni1 O5 2_776 . 1_554 85.4(4) ?
O2 Ni1 O3 2_676 . 2_666 175.3(6) ?
O2 Ni1 O4 2_676 . . 88.3(7) ?
O2 Ni1 O5 2_676 . 1_554 86.3(5) ?
O3 Ni1 O4 2_666 . . 96.0(6) ?
O3 Ni1 O5 2_666 . 1_554 91.3(5) ?
O4 Ni1 O5 . . 1_554 99.0(5) ?
Bi1 O1 Bi1 1_565 . 2_767 104.8(3) ?
Bi1 O1 Ni1 1_565 . . 105.9(8) ?
Bi1 O1 Ni1 1_565 . 2_776 98.0(5) ?
Bi1 O1 Ni1 2_767 . . 146.1(8) ?
Bi1 O1 Ni1 2_767 . 2_776 92.2(6) ?
Ni1 O1 Ni1 . . 2_776 97.5(4) ?
Bi1 P1 Bi1 1_455 . 2_666 98.86(17) ?
Bi1 P1 O2 1_455 . . 80.1(5) ?
Bi1 P1 O3 1_455 . . 35.5(6) ?
Bi1 P1 O4 1_455 . . 134.2(5) ?
Bi1 P1 O5 1_455 . . 109.4(5) ?
Bi1 P1 O2 2_666 . . 48.0(5) ?
Bi1 P1 O3 2_666 . . 120.9(4) ?
Bi1 P1 O4 2_666 . . 72.9(6) ?
Bi1 P1 O5 2_666 . . 132.6(6) ?
O2 P1 O3 . . . 115.6(9) ?
O2 P1 O4 . . . 117.5(9) ?
O2 P1 O5 . . . 99.8(8) ?
O3 P1 O4 . . . 110.3(9) ?
O3 P1 O5 . . . 103.4(6) ?
O4 P1 O5 . . . 108.4(7) ?
Bi1 O2 Ni1 2_666 . 2_676 90.0(5) ?
Bi1 O2 P1 2_666 . . 106.9(8) ?
Ni1 O2 P1 2_676 . . 139.2(7) ?
Bi1 O3 Ni1 1_455 . 2_666 92.8(3) ?
Bi1 O3 P1 1_455 . . 124.1(9) ?
Ni1 O3 P1 2_666 . . 136.4(9) ?
Ni1 O4 P1 . . . 139.3(6) ?
Bi1 O5 Ni1 1_565 . 1_556 92.9(3) ?
Bi1 O5 P1 1_565 . . 128.7(6) ?
Ni1 O5 P1 1_556 . . 135.2(6) ?
loop_
_geom_bond_atom_site_label_1
_geom_bond_atom_site_label_2
_geom_bond_site_symmetry_1
_geom_bond_site_symmetry_2
_geom_bond_distance
_geom_bond_publ_flag
Bi1 Bi1 . 2_757 3.423(3) ?
Bi1 Bi1 . 2_767 3.438(3) ?
Bi1 Ni1 . 1_545 3.304(5) ?
Bi1 Ni1 . 1_546 3.244(5) ?
Bi1 Ni1 . 2_766 3.313(7) ?
Bi1 O1 . 1_545 2.104(18) ?
Bi1 O1 . 2_767 2.216(12) ?
Bi1 P1 . 1_655 3.499(6) ?
Bi1 P1 . 2_666 3.211(7) ?
Bi1 O2 . 2_666 2.493(11) ?
Bi1 O3 . 1_655 2.456(13) ?
Bi1 O5 . 1_545 2.395(9) ?
Ni1 O1 . . 2.036(8) ?
Ni1 O1 . 2_776 2.285(15) ?
Ni1 O2 . 2_676 2.166(18) ?
Ni1 O3 . 2_666 2.108(13) ?
Ni1 O4 . . 1.831(15) ?
Ni1 O5 . 1_554 2.073(10) ?
P1 O2 . . 1.42(2) ?
P1 O3 . . 1.469(10) ?
P1 O4 . . 1.594(16) ?
P1 O5 . . 1.561(8) ?
loop_
_geom_hbond_atom_site_label_D
_geom_hbond_atom_site_label_H
_geom_hbond_atom_site_label_A
_geom_hbond_site_symmetry_D
_geom_hbond_site_symmetry_H
_geom_hbond_site_symmetry_A
_geom_hbond_distance_DH
_geom_hbond_distance_HA
_geom_hbond_distance_DA
_geom_hbond_angle_DHA
_geom_hbond_publ_flag
? ? ? ? ? ? ? ? ? ? ?
loop_
_geom_torsion_atom_site_label_1
_geom_torsion_atom_site_label_2
_geom_torsion_atom_site_label_3
_geom_torsion_atom_site_label_4
_geom_torsion_site_symmetry_1
_geom_torsion_site_symmetry_2
_geom_torsion_site_symmetry_3
_geom_torsion_site_symmetry_4
_geom_torsion
_geom_torsion_publ_flag
? ? ? ? ? ? ? ? ? ?
loop_
_pd_proc_point_id
_pd_proc_2theta_corrected
_pd_proc_d_spacing
_pd_proc_intensity_net
_pd_calc_intensity_net
_pd_proc_ls_weight
1 12.6095 7.020197 11954.00 12394.70 109.00
2 12.6299 7.008904 12085.00 12375.50 110.00
3 12.6504 6.997592 12290.00 12356.20 111.00
4 12.6708 6.986372 12079.00 12337.10 110.00
5 12.6912 6.975188 12116.00 12318.00 110.00
6 12.7116 6.964039 12020.00 12299.00 110.00
7 12.7321 6.952873 12304.00 12280.00 111.00
8 12.7525 6.941797 12388.00 12261.10 111.00
9 12.7729 6.930756 12114.00 12242.30 110.00
10 12.7934 6.919696 12265.00 12223.40 111.00
11 12.8138 6.908725 12162.00 12204.70 110.00
12 12.8342 6.897789 12206.00 12186.00 110.00
13 12.8546 6.886889 11990.00 12167.40 109.00
14 12.8751 6.875969 11968.00 12148.80 109.00
15 12.8955 6.865138 12086.00 12130.30 110.00
16 12.9159 6.854340 12009.00 12111.80 110.00
17 12.9364 6.843524 11757.00 12093.30 108.00
18 12.9568 6.832795 12079.00 12075.00 110.00
19 12.9772 6.822101 11887.00 12056.70 109.00
20 12.9976 6.811439 12021.00 12038.50 110.00
21 13.0181 6.800759 11995.00 12020.20 110.00
22 13.0385 6.790164 11993.00 12002.10 110.00
23 13.0589 6.779603 11958.00 11984.00 109.00
24 13.0794 6.769022 11925.00 11965.90 109.00
25 13.0998 6.758527 11861.00 11948.00 109.00
26 13.1202 6.748064 11925.00 11930.00 109.00
27 13.1406 6.737634 11737.00 11912.20 108.00
28 13.1611 6.727186 11631.00 11894.30 108.00
29 13.1815 6.716821 11645.00 11876.50 108.00
30 13.2019 6.706488 11711.00 11858.80 108.00
31 13.2224 6.696136 11794.00 11841.10 109.00
32 13.2428 6.685866 11679.00 11823.40 108.00
33 13.2632 6.675629 11759.00 11805.90 108.00
34 13.2836 6.665423 11808.00 11788.40 109.00
35 13.3041 6.655198 11974.00 11770.80 109.00
36 13.3245 6.645055 11714.00 11753.40 108.00
37 13.3449 6.634943 11644.00 11736.00 108.00
38 13.3654 6.624812 11630.00 11718.60 108.00
39 13.3858 6.614761 11842.00 11701.30 109.00
40 13.4062 6.604742 11758.00 11684.10 108.00
41 13.4266 6.594752 11881.00 11666.90 109.00
42 13.4471 6.584745 11684.00 11649.70 108.00
43 13.4675 6.574817 11897.00 11632.60 109.00
44 13.4879 6.564919 11915.00 11615.50 109.00
45 13.5084 6.555002 11808.00 11598.50 109.00
46 13.5288 6.545163 11695.00 11581.50 108.00
47 13.5492 6.535355 11528.00 11564.60 107.00
48 13.5696 6.525575 11486.00 11547.70 107.00
49 13.5901 6.515778 11805.00 11530.80 109.00
50 13.6105 6.506057 11501.00 11514.00 107.00
51 13.6309 6.496367 11525.00 11497.30 107.00
52 13.6513 6.486704 11702.00 11480.60 108.00
53 13.6718 6.477024 11490.00 11463.90 107.00
54 13.6922 6.467420 11523.00 11447.30 107.00
55 13.7126 6.457844 11593.00 11430.70 108.00
56 13.7331 6.448251 11423.00 11414.10 107.00
57 13.7535 6.438732 11541.00 11397.60 107.00
58 13.7739 6.429242 11613.00 11381.20 108.00
59 13.7943 6.419779 11512.00 11364.80 107.00
60 13.8148 6.410299 11616.00 11348.40 108.00
61 13.8352 6.400893 11503.00 11332.10 107.00
62 13.8556 6.391515 11515.00 11315.80 107.00
63 13.8761 6.382118 11310.00 11299.50 106.00
64 13.8965 6.372796 11570.00 11283.30 108.00
65 13.9169 6.363500 11350.00 11267.10 107.00
66 13.9373 6.354231 11481.00 11251.00 107.00
67 13.9578 6.344945 11498.00 11234.90 107.00
68 13.9782 6.335731 11478.00 11218.90 107.00
69 13.9986 6.326543 11392.00 11202.90 107.00
70 14.0191 6.317338 11424.00 11186.90 107.00
71 14.0395 6.308205 11568.00 11171.00 108.00
72 14.0599 6.299098 11597.00 11155.10 108.00
73 14.0803 6.290017 11477.00 11139.30 107.00
74 14.1008 6.280920 11492.00 11123.40 107.00
75 14.1212 6.271892 11410.00 11107.70 107.00
76 14.1416 6.262890 11333.00 11091.90 106.00
77 14.1621 6.253870 11395.00 11084.50 107.00
78 14.1825 6.244921 11500.00 11077.10 107.00
79 14.2029 6.235997 11464.00 11069.80 107.00
80 14.2233 6.227098 11225.00 11062.50 106.00
81 14.2438 6.218182 11362.00 11055.20 107.00
82 14.2642 6.209335 11250.00 11048.00 106.00
83 14.2846 6.200513 11433.00 11133.60 107.00
84 14.3051 6.191674 11410.00 11130.40 107.00
85 14.3255 6.182903 11176.00 11173.60 106.00
86 14.3459 6.174157 11351.00 11172.80 107.00
87 14.3663 6.165435 11294.00 11172.60 106.00
88 14.3868 6.156696 11090.00 11172.80 105.00
89 14.4072 6.148025 11442.00 11173.60 107.00
90 14.4276 6.139377 11444.00 11174.90 107.00
91 14.4481 6.130712 11158.00 11176.90 106.00
92 14.4685 6.122114 11233.00 11179.60 106.00
93 14.4889 6.113540 11427.00 11183.10 107.00
94 14.5093 6.104990 11038.00 11187.30 105.00
95 14.5298 6.096423 11383.00 11192.60 107.00
96 14.5502 6.087921 11242.00 11198.90 106.00
97 14.5706 6.079444 11228.00 11206.20 106.00
98 14.5911 6.070949 11241.00 11214.90 106.00
99 14.6115 6.062518 11195.00 11225.00 106.00
100 14.6319 6.054112 11091.00 11236.70 105.00
101 14.6523 6.045729 11162.00 11250.20 106.00
102 14.6728 6.037328 11168.00 11265.70 106.00
103 14.6932 6.028991 11260.00 11283.50 106.00
104 14.7136 6.020679 11197.00 11304.00 106.00
105 14.7341 6.012348 11198.00 11327.50 106.00
106 14.7545 6.004081 11541.00 11354.40 107.00
107 14.7749 5.995837 11470.00 11385.30 107.00
108 14.7953 5.987616 11579.00 11420.90 108.00
109 14.8158 5.979377 11632.00 11462.30 108.00
110 14.8362 5.971201 11476.00 11510.20 107.00
111 14.8566 5.963048 11863.00 11566.10 109.00
112 14.8770 5.954917 11885.00 11632.00 109.00
113 14.8975 5.946769 11845.00 11710.40 109.00
114 14.9179 5.938683 11907.00 11803.00 109.00
115 14.9383 5.930618 12048.00 11912.70 110.00
116 14.9588 5.922537 11996.00 12041.80 110.00
117 14.9792 5.914517 12020.00 12191.00 110.00
118 14.9996 5.906519 12114.00 12366.80 110.00
119 15.0200 5.898543 12309.00 12579.70 111.00
120 15.0405 5.890550 12658.00 12846.00 113.00
121 15.0609 5.882617 12787.00 13183.10 113.00
122 15.0813 5.874705 13119.00 13620.80 115.00
123 15.1018 5.866776 13534.00 14209.70 116.00
124 15.1222 5.858908 14658.00 15031.10 121.00
125 15.1426 5.851061 15453.00 16249.50 124.00
126 15.1630 5.843235 17158.00 18148.70 131.00
127 15.1835 5.835392 20111.00 21182.00 142.00
128 15.2039 5.827608 24056.00 25865.60 155.00
129 15.2243 5.819845 30459.00 32675.90 175.00
130 15.2448 5.812066 39443.00 41576.30 199.00
131 15.2652 5.804345 49901.00 50848.40 223.00
132 15.2856 5.796644 57624.00 56682.20 240.00
133 15.3060 5.788964 56628.00 56184.50 238.00
134 15.3265 5.781267 49891.00 50190.80 223.00
135 15.3469 5.773628 40005.00 41468.70 200.00
136 15.3673 5.766009 31021.00 32890.40 176.00
137 15.3878 5.758374 23946.00 26090.90 155.00
138 15.4082 5.750795 19626.00 21369.20 140.00
139 15.4286 5.743237 16807.00 18281.70 130.00
140 15.4490 5.735700 14930.00 16314.00 122.00
141 15.4695 5.728146 13814.00 15038.30 118.00
142 15.4899 5.720647 13304.00 14182.30 115.00
143 15.5103 5.713170 12788.00 13571.10 113.00
144 15.5308 5.705674 12353.00 13111.00 111.00
145 15.5512 5.698236 12127.00 12755.70 110.00
146 15.5716 5.690816 12234.00 12473.20 111.00
147 15.5920 5.683416 11894.00 12244.70 109.00
148 15.6125 5.676000 11883.00 12056.70 109.00
149 15.6329 5.668639 11691.00 11901.70 108.00
150 15.6533 5.661297 11517.00 11772.00 107.00
151 15.6738 5.653939 11894.00 11662.30 109.00
152 15.6942 5.646636 11723.00 11569.70 108.00
153 15.7146 5.639351 11937.00 11490.90 109.00
154 15.7350 5.632086 11450.00 11423.60 107.00
155 15.7555 5.624804 11865.00 11365.80 109.00
156 15.7759 5.617577 11561.00 11316.90 108.00
157 15.7963 5.610368 11610.00 11275.50 108.00
158 15.8168 5.603142 11819.00 11240.70 109.00
159 15.8372 5.595971 11506.00 11212.40 107.00
160 15.8576 5.588818 11499.00 11190.00 107.00
161 15.8780 5.581683 11416.00 11173.30 107.00
162 15.8985 5.574532 11304.00 11162.50 106.00
163 15.9189 5.567435 11386.00 11157.90 107.00
164 15.9393 5.560355 11350.00 11159.90 107.00
165 15.9598 5.553259 11208.00 11169.40 106.00
166 15.9802 5.546216 11467.00 11187.50 107.00
167 16.0006 5.539190 11164.00 11216.00 106.00
168 16.0210 5.532183 11519.00 11257.40 107.00
169 16.0415 5.525159 11395.00 11315.70 107.00
170 16.0619 5.518188 11532.00 11395.90 107.00
171 16.0823 5.511234 11598.00 11507.70 108.00
172 16.1028 5.504264 11741.00 11668.80 108.00
173 16.1232 5.497346 11943.00 11909.00 109.00
174 16.1436 5.490445 12426.00 12283.60 111.00
175 16.1640 5.483562 12953.00 12878.50 114.00
176 16.1845 5.476662 13858.00 13811.60 118.00
177 16.2049 5.469813 15066.00 15185.10 123.00
178 16.2253 5.462982 16716.00 17033.70 129.00
179 16.2457 5.456168 18830.00 19129.80 137.00
180 16.2662 5.449338 20584.00 20775.00 143.00
181 16.2866 5.442558 21187.00 21056.80 146.00
182 16.3070 5.435796 20016.00 20126.20 141.00
183 16.3275 5.429017 17939.00 18313.20 134.00
184 16.3479 5.422288 16110.00 16330.90 127.00
185 16.3683 5.415576 14387.00 14621.30 120.00
186 16.3887 5.408881 13017.00 13357.40 114.00
187 16.4092 5.402170 12657.00 12495.20 113.00
188 16.4296 5.395508 11826.00 11936.20 109.00
189 16.4500 5.388863 11487.00 11573.20 107.00
190 16.4705 5.382201 11240.00 11329.40 106.00
191 16.4909 5.375590 11188.00 11158.90 106.00
192 16.5113 5.368995 11143.00 11032.40 106.00
193 16.5317 5.362415 11195.00 10934.60 106.00
194 16.5522 5.355819 11118.00 10856.30 105.00
195 16.5726 5.349273 11026.00 10792.80 105.00
196 16.5930 5.342742 10867.00 10740.10 104.00
197 16.6135 5.336195 10750.00 10695.60 104.00
198 16.6339 5.329698 11075.00 10657.90 105.00
199 16.6543 5.323215 10945.00 10625.40 105.00
200 16.6747 5.316749 10893.00 10597.10 104.00
201 16.6952 5.310266 11092.00 10572.00 105.00
202 16.7156 5.303832 10640.00 10549.90 103.00
203 16.7360 5.297412 10864.00 10530.10 104.00
204 16.7565 5.290977 10825.00 10512.10 104.00
205 16.7769 5.284590 10660.00 10495.80 103.00
206 16.7973 5.278218 10623.00 10481.00 103.00
207 16.8177 5.271862 10629.00 10467.30 103.00
208 16.8382 5.265489 10690.00 10454.50 103.00
209 16.8586 5.259163 10822.00 10442.70 104.00
210 16.8790 5.252853 10748.00 10431.60 104.00
211 16.8995 5.246527 10656.00 10421.10 103.00
212 16.9199 5.240247 10745.00 10411.30 104.00
213 16.9403 5.233983 10809.00 10402.00 104.00
214 16.9607 5.227734 10668.00 10393.10 103.00
215 16.9812 5.221469 10542.00 10384.70 103.00
216 17.0016 5.215250 10751.00 10376.60 104.00
217 17.0220 5.209046 10703.00 10368.80 103.00
218 17.0425 5.202826 10574.00 10361.20 103.00
219 17.0629 5.196651 10647.00 10354.00 103.00
220 17.0833 5.190492 10941.00 10347.00 105.00
221 17.1037 5.184347 10860.00 10340.20 104.00
222 17.1242 5.178186 10589.00 10333.60 103.00
223 17.1446 5.172071 10552.00 10327.20 103.00
224 17.1650 5.165970 10633.00 10321.00 103.00
225 17.1855 5.159854 10543.00 10320.00 103.00
226 17.2059 5.153783 10492.00 10319.20 102.00
227 17.2263 5.147726 10757.00 10318.60 104.00
228 17.2467 5.141682 10749.00 10318.00 104.00
229 17.2672 5.135624 10602.00 10317.60 103.00
230 17.2876 5.129610 10559.00 10295.80 103.00
231 17.3080 5.123610 10569.00 10296.30 103.00
232 17.3285 5.117594 10642.00 10286.30 103.00
233 17.3489 5.111623 10576.00 10287.40 103.00
234 17.3693 5.105665 10643.00 10288.50 103.00
235 17.3897 5.099722 10350.00 10289.60 102.00
236 17.4102 5.093763 10533.00 10325.00 103.00
237 17.4306 5.087848 10666.00 10327.40 103.00
238 17.4510 5.081946 10532.00 10330.00 103.00
239 17.4714 5.076058 10596.00 10350.10 103.00
240 17.4919 5.070156 10729.00 10353.60 104.00
241 17.5123 5.064295 10603.00 10357.20 103.00
242 17.5327 5.058449 10613.00 10361.00 103.00
243 17.5532 5.052587 10655.00 10364.90 103.00
244 17.5736 5.046768 10597.00 10369.10 103.00
245 17.5940 5.040962 10649.00 10373.50 103.00
246 17.6144 5.035170 10648.00 10378.10 103.00
247 17.6349 5.029363 10550.00 10382.90 103.00
248 17.6553 5.023598 10634.00 10388.10 103.00
249 17.6757 5.017846 10645.00 10393.50 103.00
250 17.6962 5.012079 10741.00 10399.30 104.00
251 17.7166 5.006354 10398.00 10405.50 102.00
252 17.7370 5.000642 10656.00 10412.10 103.00
253 17.7574 4.994943 10609.00 10419.10 103.00
254 17.7779 4.989229 10617.00 10426.70 103.00
255 17.7983 4.983557 10535.00 10434.80 103.00
256 17.8187 4.977897 10663.00 10443.50 103.00
257 17.8392 4.972223 10628.00 10453.10 103.00
258 17.8596 4.966590 10687.00 10463.40 103.00
259 17.8800 4.960969 10886.00 10474.60 104.00
260 17.9004 4.955362 10690.00 10486.90 103.00
261 17.9209 4.949739 10669.00 10500.40 103.00
262 17.9413 4.944157 10645.00 10515.30 103.00
263 17.9617 4.938588 10615.00 10531.80 103.00
264 17.9822 4.933004 10433.00 10550.20 102.00
265 18.0026 4.927460 10862.00 10570.70 104.00
266 18.0230 4.921928 10633.00 10593.80 103.00
267 18.0434 4.916410 10553.00 10619.90 103.00
268 18.0639 4.910877 10673.00 10649.80 103.00
269 18.0843 4.905383 10705.00 10683.80 103.00
270 18.1047 4.899902 10907.00 10723.10 104.00
271 18.1252 4.894406 10683.00 10769.10 103.00
272 18.1456 4.888950 10673.00 10822.80 103.00
273 18.1660 4.883505 10879.00 10886.50 104.00
274 18.1864 4.878074 10964.00 10962.70 105.00
275 18.2069 4.872627 11046.00 11055.60 105.00
276 18.2273 4.867219 11066.00 11169.30 105.00
277 18.2477 4.861825 11158.00 11311.60 106.00
278 18.2682 4.856415 11362.00 11495.00 107.00
279 18.2886 4.851043 11566.00 11782.40 108.00
280 18.3090 4.845685 11714.00 12121.10 108.00
281 18.3294 4.840338 11811.00 12614.60 109.00
282 18.3499 4.834977 12617.00 13387.30 112.00
283 18.3703 4.829653 13480.00 14523.90 116.00
284 18.3907 4.824342 14929.00 16206.90 122.00
285 18.4112 4.819016 16978.00 18569.80 130.00
286 18.4316 4.813728 19717.00 21524.60 140.00
287 18.4520 4.808453 22681.00 24525.20 151.00
288 18.4724 4.803188 24292.00 26417.20 156.00
289 18.4929 4.797910 24451.00 26398.40 156.00
290 18.5133 4.792670 23102.00 24778.90 152.00
291 18.5337 4.787440 21005.00 22195.20 145.00
292 18.5542 4.782197 18907.00 19350.50 138.00
293 18.5746 4.776991 16514.00 16904.40 129.00
294 18.5950 4.771796 15144.00 15071.90 123.00
295 18.6154 4.766613 13640.00 13801.60 117.00
296 18.6359 4.761416 13056.00 12952.30 114.00
297 18.6563 4.756255 12468.00 12395.50 112.00
298 18.6767 4.751106 11976.00 12022.00 109.00
299 18.6972 4.745943 11728.00 11761.20 108.00
300 18.7176 4.740817 11781.00 11573.60 109.00
301 18.7380 4.735701 11568.00 11433.40 108.00
302 18.7584 4.730597 11696.00 11326.50 108.00
303 18.7789 4.725479 11640.00 11244.00 108.00
304 18.7993 4.720397 11309.00 11181.00 106.00
305 18.8197 4.715326 11450.00 11133.30 107.00
306 18.8401 4.710267 11313.00 11098.20 106.00
307 18.8606 4.705194 11324.00 11073.70 106.00
308 18.8810 4.700156 11211.00 11058.80 106.00
309 18.9014 4.695129 11164.00 11052.40 106.00
310 18.9219 4.690088 11037.00 11054.30 105.00
311 18.9423 4.685083 11018.00 11064.10 105.00
312 18.9627 4.680089 11147.00 11082.00 106.00
313 18.9831 4.675106 11204.00 11108.70 106.00
314 19.0036 4.670109 11178.00 11145.10 106.00
315 19.0240 4.665147 11193.00 11192.20 106.00
316 19.0444 4.660196 11408.00 11252.00 107.00
317 19.0649 4.655231 11339.00 11327.50 106.00
318 19.0853 4.650301 11306.00 11421.50 106.00
319 19.1057 4.645382 11463.00 11539.10 107.00
320 19.1261 4.640473 11490.00 11687.50 107.00
321 19.1466 4.635551 11540.00 11878.00 107.00
322 19.1670 4.630663 11914.00 12125.80 109.00
323 19.1874 4.625786 12134.00 12460.40 110.00
324 19.2079 4.620895 12577.00 12934.80 112.00
325 19.2283 4.616039 13161.00 13630.00 115.00
326 19.2487 4.611193 14261.00 14679.30 119.00
327 19.2691 4.606357 15739.00 16258.90 125.00
328 19.2896 4.601508 17792.00 18573.70 133.00
329 19.3100 4.596693 20585.00 21722.10 143.00
330 19.3304 4.591887 23955.00 25549.90 155.00
331 19.3509 4.587069 27728.00 29231.10 167.00
332 19.3713 4.582284 30060.00 31249.70 173.00
333 19.3917 4.577510 29628.00 30888.40 172.00
334 19.4121 4.572746 27048.00 28688.20 164.00
335 19.4326 4.567968 23758.00 25368.50 154.00
336 19.4530 4.563224 19811.00 21806.20 141.00
337 19.4734 4.558489 17023.00 18732.60 130.00
338 19.4939 4.553742 14795.00 16407.80 122.00
339 19.5143 4.549027 13538.00 14789.60 116.00
340 19.5347 4.544323 13013.00 13662.70 114.00
341 19.5551 4.539628 12513.00 12931.10 112.00
342 19.5756 4.534921 11867.00 12412.60 109.00
343 19.5960 4.530245 11668.00 12059.90 108.00
344 19.6164 4.525580 11722.00 11799.20 108.00
345 19.6369 4.520902 11593.00 11598.30 108.00
346 19.6573 4.516256 11447.00 11440.70 107.00
347 19.6777 4.511621 11365.00 11313.70 107.00
348 19.6981 4.506994 11242.00 11210.00 106.00
349 19.7186 4.502355 11401.00 11146.60 107.00
350 19.7390 4.497748 11012.00 11075.80 105.00
351 19.7594 4.493150 11089.00 11016.20 105.00
352 19.7799 4.488540 10819.00 10977.00 104.00
353 19.8003 4.483961 10596.00 10934.50 103.00
354 19.8207 4.479393 10757.00 10898.20 104.00
355 19.8411 4.474833 10849.00 10867.00 104.00
356 19.8616 4.470261 10680.00 10840.00 103.00
357 19.8820 4.465720 10839.00 10816.80 104.00
358 19.9024 4.461189 10724.00 10796.80 104.00
359 19.9229 4.456645 10766.00 10779.30 104.00
360 19.9433 4.452131 10800.00 10764.40 104.00
361 19.9637 4.447628 10625.00 10751.50 103.00
362 19.9841 4.443134 10702.00 10740.50 103.00
363 20.0046 4.438627 10814.00 10731.10 104.00
364 20.0250 4.434152 10751.00 10723.20 104.00
365 20.0454 4.429685 10665.00 10716.70 103.00
366 20.0658 4.425228 10798.00 10711.40 104.00
367 20.0863 4.420758 10794.00 10707.30 104.00
368 20.1067 4.416318 10765.00 10704.30 104.00
369 20.1271 4.411888 10739.00 10702.40 104.00
370 20.1476 4.407445 10780.00 10701.40 104.00
371 20.1680 4.403033 10824.00 10701.60 104.00
372 20.1884 4.398630 10687.00 10702.70 103.00
373 20.2088 4.394236 10703.00 10704.10 103.00
374 20.2293 4.389830 10676.00 10706.50 103.00
375 20.2497 4.385453 10785.00 10710.10 104.00
376 20.2701 4.381085 10643.00 10714.90 103.00
377 20.2906 4.376706 10922.00 10721.00 105.00
378 20.3110 4.372355 10868.00 10728.50 104.00
379 20.3314 4.368014 10869.00 10737.60 104.00
380 20.3518 4.363682 10942.00 10748.50 105.00
381 20.3723 4.359338 10988.00 10761.40 105.00
382 20.3927 4.355023 11029.00 10776.70 105.00
383 20.4131 4.350717 11041.00 10794.70 105.00
384 20.4336 4.346398 11019.00 10816.00 105.00
385 20.4540 4.342109 11321.00 10797.10 106.00
386 20.4744 4.337829 11450.00 10828.60 107.00
387 20.4948 4.333557 11417.00 10843.60 107.00
388 20.5153 4.329273 11605.00 10888.90 108.00
389 20.5357 4.325018 11381.00 10942.90 107.00
390 20.5561 4.320772 11182.00 11008.40 106.00
391 20.5766 4.316514 11439.00 11089.50 107.00
392 20.5970 4.312285 11133.00 11190.60 106.00
393 20.6174 4.308064 11487.00 11320.70 107.00
394 20.6378 4.303852 11625.00 11494.20 108.00
395 20.6583 4.299627 11694.00 11736.90 108.00
396 20.6787 4.295432 11925.00 12086.90 109.00
397 20.6991 4.291245 12294.00 12606.10 111.00
398 20.7196 4.287045 13135.00 13378.90 115.00
399 20.7400 4.282874 14200.00 14483.80 119.00
400 20.7604 4.278712 15809.00 15979.20 126.00
401 20.7808 4.274558 17283.00 17794.80 131.00
402 20.8013 4.270391 18835.00 19569.10 137.00
403 20.8217 4.266253 19589.00 20613.10 140.00
404 20.8421 4.262124 19034.00 20562.30 138.00
405 20.8626 4.257982 18509.00 19645.80 136.00
406 20.8830 4.253869 17253.00 18188.60 131.00
407 20.9034 4.249763 15864.00 16509.70 126.00
408 20.9238 4.245666 14949.00 14972.50 122.00
409 20.9443 4.241557 14032.00 13759.50 118.00
410 20.9647 4.237475 13091.00 12888.70 114.00
411 20.9851 4.233402 12575.00 12287.00 112.00
412 21.0056 4.229317 12166.00 11875.90 110.00
413 21.0260 4.225260 11713.00 11595.50 108.00
414 21.0464 4.221210 11373.00 11397.60 107.00
415 21.0668 4.217169 11290.00 11252.60 106.00
416 21.0873 4.213115 11013.00 11141.70 105.00
417 21.1077 4.209089 11070.00 11055.20 105.00
418 21.1281 4.205071 10987.00 10985.80 105.00
419 21.1486 4.201042 10967.00 10929.00 105.00
420 21.1690 4.197039 10830.00 10882.20 104.00
421 21.1894 4.193045 10801.00 10843.20 104.00
422 21.2098 4.189058 11006.00 10810.30 105.00
423 21.2303 4.185059 10710.00 10782.20 103.00
424 21.2507 4.181088 10790.00 10758.30 104.00
425 21.2711 4.177125 10913.00 10737.60 104.00
426 21.2916 4.173149 10870.00 10719.70 104.00
427 21.3120 4.169200 10862.00 10704.10 104.00
428 21.3324 4.165259 10880.00 10690.40 104.00
429 21.3528 4.161326 10926.00 10678.40 105.00
430 21.3733 4.157381 10920.00 10667.70 104.00
431 21.3937 4.153463 10753.00 10658.20 104.00
432 21.4141 4.149552 10875.00 10649.80 104.00
433 21.4345 4.145649 10726.00 10642.30 104.00
434 21.4550 4.141734 10861.00 10635.60 104.00
435 21.4754 4.137846 10793.00 10629.50 104.00
436 21.4958 4.133965 10578.00 10624.10 103.00
437 21.5163 4.130073 10620.00 10619.10 103.00
438 21.5367 4.126207 10748.00 10614.70 104.00
439 21.5571 4.122348 10889.00 10610.70 104.00
440 21.5775 4.118497 10440.00 10607.00 102.00
441 21.5980 4.114635 10545.00 10603.70 103.00
442 21.6184 4.110797 10700.00 10600.70 103.00
443 21.6388 4.106968 10823.00 10597.90 104.00
444 21.6593 4.103127 10561.00 10595.40 103.00
445 21.6797 4.099312 10599.00 10593.10 103.00
446 21.7001 4.095505 10376.00 10591.00 102.00
447 21.7205 4.091704 10738.00 10589.10 104.00
448 21.7410 4.087893 10759.00 10587.30 104.00
449 21.7614 4.084106 10486.00 10585.70 102.00
450 21.7818 4.080328 10633.00 10584.30 103.00
451 21.8023 4.076538 10592.00 10582.90 103.00
452 21.8227 4.072773 10692.00 10581.70 103.00
453 21.8431 4.069015 10789.00 10580.60 104.00
454 21.8635 4.065265 10673.00 10579.60 103.00
455 21.8840 4.061503 10507.00 10578.60 103.00
456 21.9044 4.057766 10576.00 10577.80 103.00
457 21.9248 4.054037 10682.00 10554.50 103.00
458 21.9453 4.050296 10606.00 10554.50 103.00
459 21.9657 4.046581 10731.00 10554.70 104.00
460 21.9861 4.042872 10742.00 10543.80 104.00
461 22.0065 4.039171 10762.00 10544.40 104.00
462 22.0270 4.035458 10693.00 10544.90 103.00
463 22.0474 4.031770 10729.00 10545.50 104.00
464 22.0678 4.028089 10908.00 10546.00 104.00
465 22.0883 4.024397 10687.00 10546.50 103.00
466 22.1087 4.020730 10651.00 10547.10 103.00
467 22.1291 4.017069 10843.00 10570.40 104.00
468 22.1495 4.013416 10801.00 10571.70 104.00
469 22.1700 4.009751 10737.00 10573.10 104.00
470 22.1904 4.006111 10680.00 10585.90 103.00
471 22.2108 4.002478 10779.00 10587.70 104.00
472 22.2313 3.998833 10692.00 10589.70 103.00
473 22.2517 3.995213 10608.00 10591.80 103.00
474 22.2721 3.991600 11009.00 10593.90 105.00
475 22.2925 3.987993 10805.00 10596.10 104.00
476 22.3130 3.984376 10502.00 10598.50 102.00
477 22.3334 3.980782 10674.00 10601.00 103.00
478 22.3538 3.977196 10801.00 10603.50 104.00
479 22.3743 3.973598 10767.00 10606.30 104.00
480 22.3947 3.970025 10713.00 10609.10 104.00
481 22.4151 3.966458 10644.00 10612.10 103.00
482 22.4355 3.962897 10643.00 10615.30 103.00
483 22.4560 3.959326 10555.00 10618.80 103.00
484 22.4764 3.955778 10701.00 10622.40 103.00
485 22.4968 3.952238 10641.00 10626.20 103.00
486 22.5173 3.948686 10818.00 10630.40 104.00
487 22.5377 3.945157 10686.00 10634.80 103.00
488 22.5581 3.941636 10569.00 10639.50 103.00
489 22.5785 3.938121 10549.00 10644.60 103.00
490 22.5990 3.934595 10527.00 10650.10 103.00
491 22.6194 3.931092 10600.00 10656.00 103.00
492 22.6398 3.927597 10604.00 10662.50 103.00
493 22.6603 3.924090 10582.00 10669.50 103.00
494 22.6807 3.920606 10612.00 10677.20 103.00
495 22.7011 3.917129 10719.00 10685.60 104.00
496 22.7215 3.913658 10843.00 10694.90 104.00
497 22.7420 3.910177 10729.00 10705.20 104.00
498 22.7624 3.906719 10854.00 10716.50 104.00
499 22.7828 3.903266 10787.00 10729.20 104.00
500 22.8032 3.899821 10466.00 10743.30 102.00
501 22.8237 3.896365 10857.00 10759.30 104.00
502 22.8441 3.892931 10751.00 10777.30 104.00
503 22.8645 3.889504 10500.00 10797.70 102.00
504 22.8850 3.886066 10613.00 10821.20 103.00
505 22.9054 3.882652 10690.00 10848.10 103.00
506 22.9258 3.879243 10848.00 10879.30 104.00
507 22.9462 3.875840 10923.00 10915.80 105.00
508 22.9667 3.872427 10845.00 10959.00 104.00
509 22.9871 3.869036 10895.00 11010.20 104.00
510 23.0075 3.865652 10928.00 11071.80 105.00
511 23.0280 3.862257 11134.00 11147.30 106.00
512 23.0484 3.858885 11308.00 11240.30 106.00
513 23.0688 3.855519 11664.00 11358.20 108.00
514 23.0892 3.852159 11769.00 11511.70 108.00
515 23.1097 3.848788 11988.00 11720.50 109.00
516 23.1301 3.845439 12587.00 12012.00 112.00
517 23.1505 3.842097 13253.00 12432.10 115.00
518 23.1710 3.838744 13564.00 13045.60 116.00
519 23.1914 3.835413 14244.00 13919.40 119.00
520 23.2118 3.832089 15127.00 15120.80 123.00
521 23.2322 3.828770 16753.00 16658.10 129.00
522 23.2527 3.825441 17976.00 18383.30 134.00
523 23.2731 3.822134 18941.00 19821.60 138.00
524 23.2935 3.818833 20366.00 20424.80 143.00
525 23.3140 3.815521 20310.00 20104.40 143.00
526 23.3344 3.812232 19171.00 19168.70 138.00
527 23.3548 3.808948 18026.00 17829.40 134.00
528 23.3752 3.805670 16528.00 16313.30 129.00
529 23.3957 3.802382 15063.00 14908.20 123.00
530 23.4161 3.799116 13726.00 13790.10 117.00
531 23.4365 3.795855 12863.00 12964.10 113.00
532 23.4570 3.792584 12327.00 12375.60 111.00
533 23.4774 3.789335 11890.00 11966.80 109.00
534 23.4978 3.786091 11571.00 11679.70 108.00
535 23.5182 3.782853 11377.00 11473.60 107.00
536 23.5387 3.779605 11233.00 11320.20 106.00
537 23.5591 3.776378 11144.00 11203.10 106.00
538 23.5795 3.773157 11005.00 11110.60 105.00
539 23.6000 3.769926 10872.00 11035.40 104.00
540 23.6204 3.766716 10847.00 10973.80 104.00
541 23.6408 3.763512 10900.00 10922.30 104.00
542 23.6612 3.760314 10910.00 10878.90 104.00
543 23.6817 3.757105 10771.00 10841.60 104.00
544 23.7021 3.753917 10881.00 10809.70 104.00
545 23.7225 3.750736 10583.00 10782.00 103.00
546 23.7430 3.747543 10633.00 10757.60 103.00
547 23.7634 3.744373 10773.00 10736.20 104.00
548 23.7838 3.741207 10778.00 10717.20 104.00
549 23.8042 3.738047 10633.00 10700.20 103.00
550 23.8247 3.734877 10787.00 10684.90 104.00
551 23.8451 3.731728 10523.00 10671.20 103.00
552 23.8655 3.728584 10765.00 10658.70 104.00
553 23.8860 3.725431 10838.00 10647.20 104.00
554 23.9064 3.722298 10801.00 10636.80 104.00
555 23.9268 3.719170 10881.00 10627.10 104.00
556 23.9472 3.716048 11114.00 10618.20 105.00
557 23.9677 3.712916 10797.00 10609.90 104.00
558 23.9881 3.709805 10883.00 10602.20 104.00
559 24.0085 3.706699 10861.00 10595.00 104.00
560 24.0289 3.703598 10780.00 10588.30 104.00
561 24.0494 3.700488 10900.00 10581.90 104.00
562 24.0698 3.697398 10680.00 10575.90 103.00
563 24.0902 3.694313 10783.00 10570.20 104.00
564 24.1107 3.691218 10586.00 10564.80 103.00
565 24.1311 3.688144 10757.00 10559.60 104.00
566 24.1515 3.685075 10732.00 10554.70 104.00
567 24.1719 3.682011 10569.00 10550.00 103.00
568 24.1924 3.678937 10561.00 10545.50 103.00
569 24.2128 3.675884 10559.00 10541.20 103.00
570 24.2332 3.672836 10634.00 10537.00 103.00
571 24.2537 3.669778 10607.00 10533.00 103.00
572 24.2741 3.666740 10490.00 10529.10 102.00
573 24.2945 3.663707 10348.00 10525.30 102.00
574 24.3149 3.660680 10605.00 10521.70 103.00
575 24.3354 3.657642 10421.00 10518.10 102.00
576 24.3558 3.654625 10404.00 10514.70 102.00
577 24.3762 3.651613 10350.00 10511.30 102.00
578 24.3967 3.648591 10266.00 10508.00 101.00
579 24.4171 3.645589 10411.00 10504.80 102.00
580 24.4375 3.642591 10445.00 10478.90 102.00
581 24.4579 3.639600 10421.00 10487.00 102.00
582 24.4784 3.636598 10491.00 10485.10 102.00
583 24.4988 3.633616 10292.00 10472.00 101.00
584 24.5192 3.630639 10203.00 10475.70 101.00
585 24.5397 3.627653 10353.00 10474.40 102.00
586 24.5601 3.624686 10301.00 10473.20 101.00
587 24.5805 3.621724 10368.00 10472.00 102.00
588 24.6009 3.618767 10382.00 10471.00 102.00
589 24.6214 3.615800 10391.00 10469.90 102.00
590 24.6418 3.612853 10201.00 10468.80 101.00
591 24.6622 3.609910 10515.00 10467.90 103.00
592 24.6827 3.606959 10477.00 10466.90 102.00
593 24.7031 3.604027 10296.00 10465.90 101.00
594 24.7235 3.601099 10473.00 10465.10 102.00
595 24.7439 3.598176 10423.00 10464.30 102.00
596 24.7644 3.595244 10405.00 10463.50 102.00
597 24.7848 3.592331 10440.00 10462.90 102.00
598 24.8052 3.589423 10500.00 10462.30 102.00
599 24.8257 3.586505 10407.00 10461.80 102.00
600 24.8461 3.583607 10416.00 10461.40 102.00
601 24.8665 3.580713 10437.00 10490.40 102.00
602 24.8869 3.577824 10515.00 10491.30 103.00
603 24.9074 3.574926 10494.00 10492.40 102.00
604 24.9278 3.572047 10542.00 10508.00 103.00
605 24.9482 3.569172 10563.00 10510.10 103.00
606 24.9687 3.566288 10441.00 10512.40 102.00
607 24.9891 3.563423 10377.00 10515.00 102.00
608 25.0095 3.560563 10444.00 10518.00 102.00
609 25.0299 3.557707 10361.00 10521.40 102.00
610 25.0504 3.554842 10398.00 10525.20 102.00
611 25.0708 3.551996 10343.00 10529.50 102.00
612 25.0912 3.549154 10320.00 10534.40 102.00
613 25.1117 3.546303 10453.00 10539.90 102.00
614 25.1321 3.543471 10396.00 10546.10 102.00
615 25.1525 3.540643 10335.00 10553.10 102.00
616 25.1729 3.537820 10659.00 10561.00 103.00
617 25.1934 3.534988 10491.00 10570.10 102.00
618 25.2138 3.532174 10348.00 10580.30 102.00
619 25.2342 3.529365 10421.00 10592.00 102.00
620 25.2547 3.526546 10349.00 10605.50 102.00
621 25.2751 3.523746 10519.00 10620.90 103.00
622 25.2955 3.520951 10346.00 10638.80 102.00
623 25.3159 3.518160 10504.00 10659.60 102.00
624 25.3364 3.515360 10556.00 10684.00 103.00
625 25.3568 3.512578 10570.00 10740.60 103.00
626 25.3772 3.509800 10571.00 10775.80 103.00
627 25.3976 3.507027 10759.00 10818.00 104.00
628 25.4181 3.504245 10617.00 10883.50 103.00
629 25.4385 3.501482 10735.00 10948.20 104.00
630 25.4589 3.498722 10762.00 11030.80 104.00
631 25.4794 3.495953 10878.00 11140.60 104.00
632 25.4998 3.493203 11100.00 11289.40 105.00
633 25.5202 3.490457 11395.00 11496.80 107.00
634 25.5406 3.487715 11716.00 11787.60 108.00
635 25.5611 3.484965 11952.00 12192.60 109.00
636 25.5815 3.482232 12425.00 12732.30 111.00
637 25.6019 3.479503 12990.00 13409.00 114.00
638 25.6224 3.476766 14014.00 14158.80 118.00
639 25.6428 3.474046 14526.00 14790.90 121.00
640 25.6632 3.471331 15114.00 15091.20 123.00
641 25.6836 3.468620 15073.00 15027.00 123.00
642 25.7041 3.465900 14676.00 14728.30 121.00
643 25.7245 3.463198 14354.00 14281.70 120.00
644 25.7449 3.460500 13655.00 13742.50 117.00
645 25.7654 3.457793 13292.00 13214.20 115.00
646 25.7858 3.455104 12727.00 12789.80 113.00
647 25.8062 3.452419 12445.00 12493.10 112.00
648 25.8266 3.449739 12222.00 12318.60 111.00
649 25.8471 3.447049 12313.00 12253.00 111.00
650 25.8675 3.444376 12322.00 12288.20 111.00
651 25.8879 3.441709 12688.00 12426.60 113.00
652 25.9084 3.439032 12876.00 12689.90 113.00
653 25.9288 3.436372 13795.00 13114.70 117.00
654 25.9492 3.433717 14273.00 13759.30 119.00
655 25.9696 3.431066 15425.00 14694.70 124.00
656 25.9901 3.428406 16881.00 15997.60 130.00
657 26.0105 3.425764 17968.00 17682.40 134.00
658 26.0309 3.423125 18941.00 19640.60 138.00
659 26.0514 3.420478 19545.00 21477.20 140.00
660 26.0718 3.417848 19262.00 22544.60 139.00
661 26.0922 3.415222 18790.00 22555.40 137.00
662 26.1126 3.412600 18557.00 21794.60 136.00
663 26.1331 3.409970 17420.00 20557.90 132.00
664 26.1535 3.407356 16939.00 18981.70 130.00
665 26.1739 3.404747 16088.00 17297.80 127.00
666 26.1944 3.402129 15451.00 15786.40 124.00
667 26.2148 3.399528 14865.00 14610.10 122.00
668 26.2352 3.396930 14293.00 13739.50 120.00
669 26.2556 3.394337 13972.00 13130.10 118.00
670 26.2761 3.391736 13720.00 12718.20 117.00
671 26.2965 3.389151 13484.00 12460.80 116.00
672 26.3169 3.386570 13226.00 12306.90 115.00
673 26.3374 3.383981 13320.00 12238.40 115.00
674 26.3578 3.381408 13169.00 12245.40 115.00
675 26.3782 3.378839 13358.00 12329.40 116.00
676 26.3986 3.376274 13251.00 12505.00 115.00
677 26.4191 3.373701 13599.00 12803.40 117.00
678 26.4395 3.371144 13743.00 13267.60 117.00
679 26.4599 3.368591 14261.00 13959.90 119.00
680 26.4804 3.366030 15419.00 14954.40 124.00
681 26.5008 3.363486 16341.00 16298.10 128.00
682 26.5212 3.360944 18302.00 17984.70 135.00
683 26.5416 3.358408 20496.00 19821.80 143.00
684 26.5621 3.355862 22824.00 21331.40 151.00
685 26.5825 3.353333 24097.00 21952.70 155.00
686 26.6029 3.350808 23733.00 21639.10 154.00
687 26.6233 3.348287 22088.00 20736.00 149.00
688 26.6438 3.345757 20242.00 19438.80 142.00
689 26.6642 3.343244 18558.00 17872.70 136.00
690 26.6846 3.340734 15996.00 16283.90 126.00
691 26.7051 3.338216 14640.00 14902.40 121.00
692 26.7255 3.335714 13045.00 13826.00 114.00
693 26.7459 3.333216 12255.00 13033.50 111.00
694 26.7663 3.330722 11648.00 12454.00 108.00
695 26.7868 3.328220 11476.00 12035.00 107.00
696 26.8072 3.325733 11076.00 11795.90 105.00
697 26.8276 3.323251 10932.00 11573.90 105.00
698 26.8481 3.320760 10808.00 11433.30 104.00
699 26.8685 3.318285 10695.00 11293.70 103.00
700 26.8889 3.315814 10763.00 11191.40 104.00
701 26.9093 3.313346 10657.00 11109.20 103.00
702 26.9298 3.310871 10694.00 11037.40 103.00
703 26.9502 3.308411 10634.00 10983.60 103.00
704 26.9706 3.305954 10510.00 10940.10 103.00
705 26.9911 3.303490 10768.00 10905.00 104.00
706 27.0115 3.301042 10646.00 10877.40 103.00
707 27.0319 3.298597 10790.00 10856.70 104.00
708 27.0523 3.296156 10713.00 10842.00 104.00
709 27.0728 3.293706 10772.00 10832.80 104.00
710 27.0932 3.291273 10676.00 10831.10 103.00
711 27.1136 3.288843 11020.00 10835.10 105.00
712 27.1341 3.286405 11135.00 10845.10 106.00
713 27.1545 3.283982 11140.00 10861.60 106.00
714 27.1749 3.281563 11258.00 10885.40 106.00
715 27.1953 3.279148 11473.00 10917.90 107.00
716 27.2158 3.276724 11668.00 10961.40 108.00
717 27.2362 3.274316 11784.00 11018.70 109.00
718 27.2566 3.271912 11627.00 11095.00 108.00
719 27.2771 3.269500 11887.00 11199.00 109.00
720 27.2975 3.267102 11943.00 11314.10 109.00
721 27.3179 3.264709 12030.00 11514.90 110.00
722 27.3383 3.262319 12281.00 11795.50 111.00
723 27.3588 3.259921 12816.00 12169.80 113.00
724 27.3792 3.257539 13510.00 12685.70 116.00
725 27.3996 3.255160 13908.00 13333.40 118.00
726 27.4201 3.252773 14942.00 14061.90 122.00
727 27.4405 3.250401 15609.00 14705.30 125.00
728 27.4609 3.248033 16383.00 15054.50 128.00
729 27.4813 3.245668 16342.00 15042.70 128.00
730 27.5018 3.243295 15797.00 14787.00 126.00
731 27.5222 3.240938 15158.00 14388.10 123.00
732 27.5426 3.238584 14348.00 13876.50 120.00
733 27.5631 3.236221 13613.00 13322.40 117.00
734 27.5835 3.233874 12652.00 12830.60 112.00
735 27.6039 3.231531 12229.00 12451.20 111.00
736 27.6243 3.229191 12085.00 12189.10 110.00
737 27.6448 3.226843 11773.00 12028.00 109.00
738 27.6652 3.224510 11824.00 11950.40 109.00
739 27.6856 3.222180 11718.00 11939.40 108.00
740 27.7061 3.219842 11832.00 11984.80 109.00
741 27.7265 3.217520 11706.00 12081.10 108.00
742 27.7469 3.215200 12175.00 12229.00 110.00
743 27.7673 3.212885 12181.00 12434.90 110.00
744 27.7878 3.210561 12645.00 12713.60 112.00
745 27.8082 3.208252 13049.00 13059.20 114.00
746 27.8286 3.205947 13797.00 13565.70 117.00
747 27.8491 3.203634 14464.00 14268.40 120.00
748 27.8695 3.201335 15568.00 15233.70 125.00
749 27.8899 3.199039 17249.00 16607.10 131.00
750 27.9103 3.196748 19164.00 18512.10 138.00
751 27.9308 3.194448 22009.00 21096.10 148.00
752 27.9512 3.192163 25329.00 24393.40 159.00
753 27.9716 3.189881 28716.00 28251.60 169.00
754 27.9920 3.187603 31500.00 32083.50 177.00
755 28.0125 3.185317 32462.00 34862.80 180.00
756 28.0329 3.183045 32307.00 35694.50 180.00
757 28.0533 3.180777 31310.00 34706.10 177.00
758 28.0738 3.178501 29972.00 32607.20 173.00
759 28.0942 3.176239 27467.00 29797.30 166.00
760 28.1146 3.173981 25613.00 26482.80 160.00
761 28.1350 3.171726 23561.00 23126.70 153.00
762 28.1555 3.169463 21657.00 20184.90 147.00
763 28.1759 3.167215 20061.00 17868.50 142.00
764 28.1963 3.164970 18740.00 16128.70 137.00
765 28.2168 3.162717 17728.00 14849.10 133.00
766 28.2372 3.160478 16275.00 13924.50 128.00
767 28.2576 3.158243 15310.00 13248.20 124.00
768 28.2780 3.156011 14753.00 12744.90 121.00
769 28.2985 3.153771 13925.00 12359.60 118.00
770 28.3189 3.151546 13591.00 12059.80 117.00
771 28.3393 3.149324 13096.00 11819.50 114.00
772 28.3598 3.147094 13081.00 11622.40 114.00
773 28.3802 3.144878 12161.00 11459.70 110.00
774 28.4006 3.142665 12189.00 11323.20 110.00
775 28.4210 3.140456 11991.00 11207.40 110.00
776 28.4415 3.138239 11714.00 11108.00 108.00
777 28.4619 3.136036 11582.00 11022.70 108.00
778 28.4823 3.133837 11393.00 10948.90 107.00
779 28.5028 3.131629 11227.00 10884.20 106.00
780 28.5232 3.129436 11244.00 10827.70 106.00
781 28.5436 3.127246 10894.00 10854.10 104.00
782 28.5640 3.125059 10811.00 10812.60 104.00
783 28.5845 3.122864 10745.00 10776.00 104.00
784 28.6049 3.120683 10611.00 10780.80 103.00
785 28.6253 3.118506 10572.00 10753.90 103.00
786 28.6458 3.116321 10519.00 10730.40 103.00
787 28.6662 3.114149 10606.00 10710.10 103.00
788 28.6866 3.111981 10663.00 10692.70 103.00
789 28.7070 3.109816 10462.00 10667.30 102.00
790 28.7275 3.107644 10494.00 10655.20 102.00
791 28.7479 3.105485 10602.00 10645.40 103.00
792 28.7683 3.103329 10474.00 10632.40 102.00
793 28.7888 3.101166 10413.00 10622.40 102.00
794 28.8092 3.099016 10392.00 10614.00 102.00
795 28.8296 3.096870 10547.00 10607.70 103.00
796 28.8500 3.094726 10581.00 10603.30 103.00
797 28.8705 3.092576 10646.00 10601.00 103.00
798 28.8909 3.090438 10509.00 10600.90 103.00
799 28.9113 3.088304 10619.00 10657.00 103.00
800 28.9318 3.086162 10839.00 10663.40 104.00
801 28.9522 3.084034 10667.00 10672.70 103.00
802 28.9726 3.081909 10807.00 10685.10 104.00
803 28.9930 3.079787 10763.00 10728.10 104.00
804 29.0135 3.077658 10850.00 10749.50 104.00
805 29.0339 3.075542 10995.00 10776.00 105.00
806 29.0543 3.073429 10795.00 10808.80 104.00
807 29.0748 3.071308 11139.00 10849.80 106.00
808 29.0952 3.069201 10967.00 10901.20 105.00
809 29.1156 3.067097 11332.00 10967.10 106.00
810 29.1360 3.064996 11335.00 11053.40 106.00
811 29.1565 3.062888 11481.00 11169.20 107.00
812 29.1769 3.060793 11660.00 11325.00 108.00
813 29.1973 3.058701 11805.00 11535.50 109.00
814 29.2177 3.056612 12219.00 11816.00 111.00
815 29.2382 3.054515 12424.00 12179.80 111.00
816 29.2586 3.052432 12789.00 12611.60 113.00
817 29.2790 3.050352 13450.00 13025.00 116.00
818 29.2995 3.048264 13963.00 13419.90 118.00
819 29.3199 3.046189 14046.00 13615.60 119.00
820 29.3403 3.044118 14261.00 13612.40 119.00
821 29.3607 3.042049 13862.00 13462.20 118.00
822 29.3812 3.039973 13622.00 13270.70 117.00
823 29.4016 3.037911 13322.00 13022.30 115.00
824 29.4220 3.035851 12768.00 12754.00 113.00
825 29.4425 3.033784 12489.00 12524.00 112.00
826 29.4629 3.031729 12061.00 12371.40 110.00
827 29.4833 3.029679 11964.00 12303.50 109.00
828 29.5037 3.027630 11880.00 12316.10 109.00
829 29.5242 3.025574 11849.00 12403.80 109.00
830 29.5446 3.023532 12018.00 12574.10 110.00
831 29.5650 3.021492 12151.00 12808.50 110.00
832 29.5855 3.019445 12752.00 13130.10 113.00
833 29.6059 3.017411 13007.00 13557.30 114.00
834 29.6263 3.015379 13735.00 14134.10 117.00
835 29.6467 3.013351 14771.00 14908.50 122.00
836 29.6672 3.011316 15928.00 15978.50 126.00
837 29.6876 3.009293 17467.00 17451.60 132.00
838 29.7080 3.007273 19656.00 19478.30 140.00
839 29.7285 3.005246 22492.00 22229.10 150.00
840 29.7489 3.003232 26096.00 25792.40 162.00
841 29.7693 3.001220 30519.00 30127.70 175.00
842 29.7897 2.999211 36165.00 34754.50 190.00
843 29.8102 2.997195 41569.00 38574.30 204.00
844 29.8306 2.995192 44606.00 40317.30 211.00
845 29.8510 2.993192 43901.00 39858.70 210.00
846 29.8715 2.991184 40071.00 38043.90 200.00
847 29.8919 2.989189 37037.00 35463.60 192.00
848 29.9123 2.987197 33584.00 32191.10 183.00
849 29.9327 2.985208 29077.00 28552.50 171.00
850 29.9532 2.983212 24617.00 25132.90 157.00
851 29.9736 2.981227 21623.00 22373.30 147.00
852 29.9940 2.979246 19563.00 20358.40 140.00
853 30.0145 2.977258 18767.00 19035.30 137.00
854 30.0349 2.975282 18695.00 18338.80 137.00
855 30.0553 2.973310 19003.00 18209.90 138.00
856 30.0757 2.971339 19531.00 18640.60 140.00
857 30.0962 2.969362 20713.00 19670.00 144.00
858 30.1166 2.967397 22356.00 21342.20 150.00
859 30.1370 2.965435 23808.00 23734.90 154.00
860 30.1575 2.963466 26142.00 26635.40 162.00
861 30.1779 2.961509 28026.00 29585.60 167.00
862 30.1983 2.959555 30862.00 31709.80 176.00
863 30.2187 2.957603 32767.00 32302.80 181.00
864 30.2392 2.955645 32720.00 31460.40 181.00
865 30.2596 2.953699 31082.00 29847.20 176.00
866 30.2800 2.951756 27804.00 27731.70 167.00
867 30.3005 2.949805 25826.00 25137.90 161.00
868 30.3209 2.947867 22948.00 22373.80 151.00
869 30.3413 2.945932 20245.00 19834.00 142.00
870 30.3617 2.943999 17531.00 17741.00 132.00
871 30.3822 2.942059 15340.00 16112.80 124.00
872 30.4026 2.940132 14299.00 14897.10 120.00
873 30.4230 2.938206 13079.00 13995.60 114.00
874 30.4435 2.936275 12556.00 13325.10 112.00
875 30.4639 2.934355 11888.00 12826.60 109.00
876 30.4843 2.932437 11509.00 12448.40 107.00
877 30.5047 2.930523 11349.00 12156.60 107.00
878 30.5252 2.928602 11171.00 11927.70 106.00
879 30.5456 2.926692 10855.00 11748.70 104.00
880 30.5660 2.924786 10825.00 11609.10 104.00
881 30.5864 2.922881 10613.00 11502.80 103.00
882 30.6069 2.920970 10575.00 11419.70 103.00
883 30.6273 2.919071 10614.00 11373.30 103.00
884 30.6477 2.917175 10606.00 11357.90 103.00
885 30.6682 2.915272 10784.00 11375.20 104.00
886 30.6886 2.913380 10615.00 11440.40 103.00
887 30.7090 2.911491 10617.00 11565.90 103.00
888 30.7294 2.909605 10971.00 11766.80 105.00
889 30.7499 2.907712 11480.00 12064.30 107.00
890 30.7703 2.905831 11737.00 12474.70 108.00
891 30.7907 2.903952 12464.00 13005.70 112.00
892 30.8112 2.902067 13332.00 13628.80 115.00
893 30.8316 2.900193 13884.00 14228.20 118.00
894 30.8520 2.898322 14621.00 14626.40 121.00
895 30.8724 2.896453 14573.00 14705.80 121.00
896 30.8929 2.894578 14375.00 14562.30 120.00
897 30.9133 2.892714 14072.00 14251.50 119.00
898 30.9337 2.890853 13631.00 13848.10 117.00
899 30.9542 2.888985 13112.00 13355.80 115.00
900 30.9746 2.887129 12618.00 12856.50 112.00
901 30.9950 2.885275 12146.00 12392.80 110.00
902 31.0154 2.883424 11413.00 12023.50 107.00
903 31.0359 2.881567 11234.00 11752.30 106.00
904 31.0563 2.879720 11009.00 11569.30 105.00
905 31.0767 2.877876 10890.00 11457.50 104.00
906 31.0972 2.876026 10919.00 11402.90 104.00
907 31.1176 2.874187 10862.00 11322.10 104.00
908 31.1380 2.872350 10857.00 11358.80 104.00
909 31.1584 2.870516 11045.00 11434.40 105.00
910 31.1789 2.868676 11106.00 11551.00 105.00
911 31.1993 2.866846 11169.00 11676.70 106.00
912 31.2197 2.865020 11447.00 11895.90 107.00
913 31.2402 2.863187 11974.00 12190.20 109.00
914 31.2606 2.861365 12345.00 12583.70 111.00
915 31.2810 2.859545 12891.00 13118.90 114.00
916 31.3014 2.857728 13688.00 13853.80 117.00
917 31.3219 2.855905 14650.00 14871.00 121.00
918 31.3423 2.854092 16001.00 16253.50 126.00
919 31.3627 2.852282 18224.00 18100.40 135.00
920 31.3832 2.850466 20426.00 20488.50 143.00
921 31.4036 2.848661 23235.00 23339.40 152.00
922 31.4240 2.846858 26604.00 26324.80 163.00
923 31.4444 2.845057 29336.00 28717.90 171.00
924 31.4649 2.843251 30532.00 29763.80 175.00
925 31.4853 2.841455 29404.00 29392.20 171.00
926 31.5057 2.839662 28395.00 28125.40 169.00
927 31.5262 2.837862 26465.00 26485.80 163.00
928 31.5466 2.836074 24524.00 24373.70 157.00
929 31.5670 2.834287 21791.00 21941.70 148.00
930 31.5874 2.832503 19286.00 19517.70 139.00
931 31.6079 2.830713 17582.00 17457.20 133.00
932 31.6283 2.828934 15573.00 15811.80 125.00
933 31.6487 2.827157 14164.00 14560.50 119.00
934 31.6692 2.825373 13309.00 13625.80 115.00
935 31.6896 2.823601 12653.00 12941.20 112.00
936 31.7100 2.821831 11915.00 12436.60 109.00
937 31.7304 2.820064 11551.00 12062.10 107.00
938 31.7509 2.818290 11277.00 11780.00 106.00
939 31.7713 2.816527 10738.00 11567.50 104.00
940 31.7917 2.814766 10645.00 11406.00 103.00
941 31.8121 2.813008 10672.00 11284.40 103.00
942 31.8326 2.811243 10538.00 11195.10 103.00
943 31.8530 2.809489 10365.00 11134.10 102.00
944 31.8734 2.807737 10433.00 11098.30 102.00
945 31.8939 2.805979 10359.00 11086.10 102.00
946 31.9143 2.804232 10667.00 11097.50 103.00
947 31.9347 2.802488 10733.00 11133.50 104.00
948 31.9551 2.800745 10723.00 11196.60 104.00
949 31.9756 2.798996 10873.00 11291.80 104.00
950 31.9960 2.797258 11069.00 11418.30 105.00
951 32.0164 2.795522 11233.00 11593.70 106.00
952 32.0369 2.793780 11706.00 11838.50 108.00
953 32.0573 2.792049 11917.00 12176.70 109.00
954 32.0777 2.790320 12282.00 12646.90 111.00
955 32.0981 2.788593 13138.00 13299.00 115.00
956 32.1186 2.786860 13955.00 14198.20 118.00
957 32.1390 2.785138 15223.00 15400.00 123.00
958 32.1594 2.783418 16994.00 16955.60 130.00
959 32.1799 2.781691 18620.00 18844.30 136.00
960 32.2003 2.779976 20431.00 20880.30 143.00
961 32.2207 2.778262 21184.00 22613.50 146.00
962 32.2411 2.776551 21073.00 23505.50 145.00
963 32.2616 2.774833 20764.00 23402.60 144.00
964 32.2820 2.773126 20412.00 22661.60 143.00
965 32.3024 2.771422 19605.00 21601.00 140.00
966 32.3229 2.769711 18838.00 20252.70 137.00
967 32.3433 2.768011 17721.00 18652.50 133.00
968 32.3637 2.766312 16799.00 16996.40 130.00
969 32.3841 2.764616 15773.00 15510.70 126.00
970 32.4046 2.762914 15389.00 14296.50 124.00
971 32.4250 2.761223 14702.00 13367.70 121.00
972 32.4454 2.759533 13929.00 12675.80 118.00
973 32.4659 2.757837 13547.00 12168.00 116.00
974 32.4863 2.756152 12851.00 11804.40 113.00
975 32.5067 2.754469 12443.00 11546.30 112.00
976 32.5271 2.752788 11973.00 11367.70 109.00
977 32.5476 2.751101 11903.00 11250.40 109.00
978 32.5680 2.749425 11527.00 11184.20 107.00
979 32.5884 2.747750 11486.00 11162.70 107.00
980 32.6089 2.746070 11334.00 11184.40 106.00
981 32.6293 2.744399 11272.00 11251.30 106.00
982 32.6497 2.742731 11323.00 11369.90 106.00
983 32.6701 2.741065 11415.00 11552.20 107.00
984 32.6906 2.739393 11946.00 11819.60 109.00
985 32.7110 2.737731 12282.00 12199.40 111.00
986 32.7314 2.736072 12840.00 12735.20 113.00
987 32.7519 2.734406 13648.00 13487.10 117.00
988 32.7723 2.732750 14964.00 14514.90 122.00
989 32.7927 2.731097 16308.00 15840.40 128.00
990 32.8131 2.729446 18460.00 17613.50 136.00
991 32.8336 2.727788 20631.00 19758.00 144.00
992 32.8540 2.726141 23494.00 22019.70 153.00
993 32.8744 2.724496 25611.00 23866.90 160.00
994 32.8949 2.722845 26846.00 24771.60 164.00
995 32.9153 2.721204 25708.00 24583.60 160.00
996 32.9357 2.719565 24865.00 23743.10 158.00
997 32.9561 2.717928 23901.00 22539.70 155.00
998 32.9766 2.716286 22461.00 21023.90 150.00
999 32.9970 2.714653 20569.00 19223.10 143.00
1000 33.0174 2.713023 18420.00 17360.30 136.00
1001 33.0379 2.711386 16522.00 15651.00 129.00
1002 33.0583 2.709759 14794.00 14250.00 122.00
1003 33.0787 2.708135 13937.00 13154.00 118.00
1004 33.0991 2.706512 12928.00 12318.50 114.00
1005 33.1196 2.704884 12233.00 11685.00 111.00
1006 33.1400 2.703265 11576.00 11208.60 108.00
1007 33.1604 2.701649 11237.00 10844.40 106.00
1008 33.1808 2.700035 10675.00 10560.80 103.00
1009 33.2013 2.698415 10340.00 10334.40 102.00
1010 33.2217 2.696804 10142.00 10151.60 101.00
1011 33.2421 2.695196 9973.00 10000.10 100.00
1012 33.2626 2.693582 9771.00 9872.11 99.00
1013 33.2830 2.691977 9509.00 9763.47 98.00
1014 33.3034 2.690375 9463.00 9669.80 97.00
1015 33.3238 2.688775 9448.00 9588.28 97.00
1016 33.3443 2.687169 9267.00 9516.43 96.00
1017 33.3647 2.685572 9321.00 9453.30 97.00
1018 33.3851 2.683978 9272.00 9397.17 96.00
1019 33.4056 2.682378 9248.00 9346.78 96.00
1020 33.4260 2.680788 9054.00 9301.75 95.00
1021 33.4464 2.679199 8992.00 9261.16 95.00
1022 33.4668 2.677612 8929.00 9224.45 94.00
1023 33.4873 2.676020 8942.00 9191.00 95.00
1024 33.5077 2.674437 8920.00 9160.77 94.00
1025 33.5281 2.672857 9017.00 9133.29 95.00
1026 33.5486 2.671271 8895.00 9108.19 94.00
1027 33.5690 2.669694 8679.00 9085.53 93.00
1028 33.5894 2.668119 8724.00 9052.48 93.00
1029 33.6098 2.666547 8557.00 9035.70 93.00
1030 33.6303 2.664968 8695.00 9020.78 93.00
1031 33.6507 2.663399 8783.00 9007.83 94.00
1032 33.6711 2.661832 8720.00 8979.35 93.00
1033 33.6916 2.660259 8611.00 8982.83 93.00
1034 33.7120 2.658696 8553.00 8978.29 92.00
1035 33.7324 2.657135 8659.00 8975.71 93.00
1036 33.7528 2.655576 8601.00 8975.22 93.00
1037 33.7733 2.654011 8543.00 8976.96 92.00
1038 33.7937 2.652455 8587.00 8981.09 93.00
1039 33.8141 2.650902 8616.00 8987.86 93.00
1040 33.8346 2.649343 8592.00 8997.61 93.00
1041 33.8550 2.647793 8644.00 9010.60 93.00
1042 33.8754 2.646245 8816.00 9027.32 94.00
1043 33.8958 2.644699 8545.00 9048.33 92.00
1044 33.9163 2.643147 8899.00 9074.45 94.00
1045 33.9367 2.641605 8792.00 9106.30 94.00
1046 33.9571 2.640065 8938.00 9145.05 95.00
1047 33.9776 2.638519 9023.00 9192.35 95.00
1048 33.9980 2.636982 9264.00 9249.50 96.00
1049 34.0184 2.635448 9160.00 9319.03 96.00
1050 34.0388 2.633915 9612.00 9404.03 98.00
1051 34.0593 2.632377 9919.00 9509.37 100.00
1052 34.0797 2.630847 10227.00 9640.14 101.00
1053 34.1001 2.629320 10584.00 9805.89 103.00
1054 34.1206 2.627787 10990.00 10021.00 105.00
1055 34.1410 2.626264 11498.00 10302.60 107.00
1056 34.1614 2.624743 12090.00 10678.40 110.00
1057 34.1818 2.623223 12622.00 11184.10 112.00
1058 34.2023 2.621697 13308.00 11867.00 115.00
1059 34.2227 2.620181 13974.00 12768.70 118.00
1060 34.2431 2.618667 14728.00 13933.80 121.00
1061 34.2636 2.617147 15618.00 15337.30 125.00
1062 34.2840 2.615636 16681.00 16957.50 129.00
1063 34.3044 2.614128 17577.00 18494.80 133.00
1064 34.3248 2.612621 18819.00 19532.50 137.00
1065 34.3453 2.611109 19743.00 19773.10 141.00
1066 34.3657 2.609605 20063.00 19385.80 142.00
1067 34.3861 2.608104 19506.00 18675.10 140.00
1068 34.4065 2.606604 18262.00 17783.60 135.00
1069 34.4270 2.605099 17180.00 16673.60 131.00
1070 34.4474 2.603603 16133.00 15393.40 127.00
1071 34.4678 2.602108 15042.00 14107.10 123.00
1072 34.4883 2.600609 13751.00 12965.00 117.00
1073 34.5087 2.599118 12409.00 12041.70 111.00
1074 34.5291 2.597629 11576.00 11325.50 108.00
1075 34.5495 2.596142 10761.00 10784.10 104.00
1076 34.5700 2.594650 10269.00 10379.00 101.00
1077 34.5904 2.593166 9735.00 10081.30 99.00
1078 34.6108 2.591684 9742.00 9862.28 99.00
1079 34.6313 2.590197 9586.00 9718.69 98.00
1080 34.6517 2.588719 9408.00 9605.12 97.00
1081 34.6721 2.587243 9212.00 9527.99 96.00
1082 34.6925 2.585768 9119.00 9481.81 95.00
1083 34.7130 2.584288 9144.00 9472.19 96.00
1084 34.7334 2.582817 9237.00 9482.94 96.00
1085 34.7538 2.581347 9419.00 9524.14 97.00
1086 34.7743 2.579873 9717.00 9601.34 99.00
1087 34.7947 2.578407 9563.00 9722.67 98.00
1088 34.8151 2.576943 9741.00 9902.13 99.00
1089 34.8355 2.575480 10140.00 10159.20 101.00
1090 34.8560 2.574013 10546.00 10522.00 103.00
1091 34.8764 2.572554 11070.00 11018.80 105.00
1092 34.8968 2.571097 11680.00 11685.80 108.00
1093 34.9173 2.569634 12767.00 12556.00 113.00
1094 34.9377 2.568181 13902.00 13620.70 118.00
1095 34.9581 2.566729 15366.00 14808.60 124.00
1096 34.9785 2.565278 17192.00 15911.60 131.00
1097 34.9990 2.563823 17899.00 16625.20 134.00
1098 35.0194 2.562376 18002.00 16758.10 134.00
1099 35.0398 2.560931 17176.00 16431.00 131.00
1100 35.0603 2.559481 16951.00 15877.70 130.00
1101 35.0807 2.558039 16195.00 15202.30 127.00
1102 35.1011 2.556599 15161.00 14372.80 123.00
1103 35.1215 2.555161 14172.00 13411.20 119.00
1104 35.1420 2.553717 13006.00 12433.50 114.00
1105 35.1624 2.552282 11810.00 11565.20 109.00
1106 35.1828 2.550849 11086.00 10850.90 105.00
1107 35.2033 2.549411 10426.00 10286.10 102.00
1108 35.2237 2.547981 10006.00 9853.25 100.00
1109 35.2441 2.546553 9400.00 9522.16 97.00
1110 35.2645 2.545126 9159.00 9268.32 96.00
1111 35.2850 2.543695 8758.00 9070.97 94.00
1112 35.3054 2.542272 8644.00 8916.56 93.00
1113 35.3258 2.540850 8627.00 8792.89 93.00
1114 35.3463 2.539424 8413.00 8691.59 92.00
1115 35.3667 2.538006 8420.00 8608.08 92.00
1116 35.3871 2.536589 8322.00 8556.44 91.00
1117 35.4075 2.535175 8181.00 8497.53 90.00
1118 35.4280 2.533755 8008.00 8447.14 89.00
1119 35.4484 2.532343 8127.00 8404.33 90.00
1120 35.4688 2.530934 8234.00 8376.00 91.00
1121 35.4893 2.529519 8195.00 8373.95 91.00
1122 35.5097 2.528112 8475.00 8356.89 92.00
1123 35.5301 2.526707 8261.00 8344.26 91.00
1124 35.5505 2.525305 8085.00 8335.77 90.00
1125 35.5710 2.523896 8087.00 8336.72 90.00
1126 35.5914 2.522496 8283.00 8336.26 91.00
1127 35.6118 2.521098 8333.00 8339.75 91.00
1128 35.6323 2.519695 8300.00 8347.41 91.00
1129 35.6527 2.518300 8525.00 8359.44 92.00
1130 35.6731 2.516906 8770.00 8376.31 94.00
1131 35.6935 2.515515 8472.00 8398.61 92.00
1132 35.7140 2.514117 8640.00 8427.33 93.00
1133 35.7344 2.512729 8714.00 8433.97 93.00
1134 35.7548 2.511343 8805.00 8479.77 94.00
1135 35.7752 2.509957 8931.00 8545.83 95.00
1136 35.7957 2.508567 9048.00 8617.58 95.00
1137 35.8161 2.507185 9286.00 8693.11 96.00
1138 35.8365 2.505804 9257.00 8809.11 96.00
1139 35.8570 2.504419 9746.00 8967.20 99.00
1140 35.8774 2.503042 9798.00 9166.38 99.00
1141 35.8978 2.501666 10423.00 9430.87 102.00
1142 35.9182 2.500292 10447.00 9782.09 102.00
1143 35.9387 2.498913 11021.00 10246.50 105.00
1144 35.9591 2.497542 11446.00 10842.60 107.00
1145 35.9795 2.496173 11782.00 11578.70 109.00
1146 36.0000 2.494798 12541.00 12429.20 112.00
1147 36.0204 2.493432 13442.00 13274.00 116.00
1148 36.0408 2.492068 13952.00 13917.00 118.00
1149 36.0612 2.490705 14553.00 14179.30 121.00
1150 36.0817 2.489336 14519.00 14066.20 120.00
1151 36.1021 2.487977 14314.00 13740.80 120.00
1152 36.1225 2.486618 13713.00 13324.20 117.00
1153 36.1430 2.485255 13274.00 12815.60 115.00
1154 36.1634 2.483900 12753.00 12199.20 113.00
1155 36.1838 2.482546 11847.00 11524.90 109.00
1156 36.2042 2.481194 11131.00 10883.80 106.00
1157 36.2247 2.479837 10485.00 10333.90 102.00
1158 36.2451 2.478488 9810.00 9906.98 99.00
1159 36.2655 2.477141 9297.00 9570.64 96.00
1160 36.2860 2.475789 9161.00 9316.35 96.00
1161 36.3064 2.474444 8778.00 9128.69 94.00
1162 36.3268 2.473101 8668.00 8990.75 93.00
1163 36.3472 2.471760 8738.00 8895.66 93.00
1164 36.3677 2.470414 8363.00 8823.87 91.00
1165 36.3881 2.469076 8130.00 8784.53 90.00
1166 36.4085 2.467739 8242.00 8753.30 91.00
1167 36.4290 2.466398 8270.00 8714.90 91.00
1168 36.4494 2.465064 8126.00 8709.29 90.00
1169 36.4698 2.463732 8281.00 8714.14 91.00
1170 36.4902 2.462401 8318.00 8736.11 91.00
1171 36.5107 2.461066 8236.00 8755.09 91.00
1172 36.5311 2.459738 8177.00 8799.07 90.00
1173 36.5515 2.458412 8388.00 8858.67 92.00
1174 36.5720 2.457082 8517.00 8937.15 92.00
1175 36.5924 2.455759 8717.00 9038.07 93.00
1176 36.6128 2.454437 8971.00 9168.00 95.00
1177 36.6332 2.453117 9054.00 9336.10 95.00
1178 36.6537 2.451792 9364.00 9556.48 97.00
1179 36.6741 2.450475 9369.00 9844.93 97.00
1180 36.6945 2.449160 10111.00 10225.60 101.00
1181 36.7150 2.447839 10769.00 10730.10 104.00
1182 36.7354 2.446527 11515.00 11386.10 107.00
1183 36.7558 2.445216 12356.00 12226.40 111.00
1184 36.7762 2.443906 13616.00 13263.40 117.00
1185 36.7967 2.442592 14671.00 14465.10 121.00
1186 36.8171 2.441285 15496.00 15686.60 124.00
1187 36.8375 2.439980 15887.00 16720.20 126.00
1188 36.8580 2.438670 16289.00 17411.90 128.00
1189 36.8784 2.437368 16916.00 17788.20 130.00
1190 36.8988 2.436067 17562.00 17958.20 133.00
1191 36.9192 2.434768 17988.00 17897.00 134.00
1192 36.9397 2.433464 17732.00 17483.60 133.00
1193 36.9601 2.432168 17278.00 16726.60 131.00
1194 36.9805 2.430873 16128.00 15799.90 127.00
1195 37.0009 2.429580 15683.00 14876.30 125.00
1196 37.0214 2.428281 14945.00 14013.00 122.00
1197 37.0418 2.426991 14159.00 13224.40 119.00
1198 37.0622 2.425702 13530.00 12536.40 116.00
1199 37.0827 2.424408 12776.00 11996.80 113.00
1200 37.1031 2.423122 12324.00 11643.90 111.00
1201 37.1235 2.421837 12209.00 11482.40 110.00
1202 37.1439 2.420554 12097.00 11503.60 110.00
1203 37.1644 2.419266 12001.00 11683.20 110.00
1204 37.1848 2.417985 12441.00 11964.20 112.00
1205 37.2052 2.416707 12464.00 12247.30 112.00
1206 37.2257 2.415423 12676.00 12415.40 113.00
1207 37.2461 2.414147 12679.00 12414.20 113.00
1208 37.2665 2.412872 12323.00 12293.90 111.00
1209 37.2869 2.411599 12114.00 12123.70 110.00
1210 37.3074 2.410321 12067.00 11907.30 110.00
1211 37.3278 2.409050 11503.00 11608.60 107.00
1212 37.3482 2.407781 11317.00 11225.40 106.00
1213 37.3687 2.406508 10951.00 10811.90 105.00
1214 37.3891 2.405242 10563.00 10431.10 103.00
1215 37.4095 2.403977 10253.00 10104.70 101.00
1216 37.4299 2.402714 10050.00 9831.86 100.00
1217 37.4504 2.401445 9743.00 9608.88 99.00
1218 37.4708 2.400185 9516.00 9440.47 98.00
1219 37.4912 2.398926 9630.00 9312.25 98.00
1220 37.5117 2.397662 9426.00 9258.61 97.00
1221 37.5321 2.396406 9503.00 9264.41 97.00
1222 37.5525 2.395151 9640.00 9332.55 98.00
1223 37.5729 2.393897 9908.00 9470.02 100.00
1224 37.5934 2.392639 9900.00 9680.84 99.00
1225 37.6138 2.391388 10474.00 9991.86 102.00
1226 37.6342 2.390139 10972.00 10405.80 105.00
1227 37.6547 2.388885 11390.00 10922.20 107.00
1228 37.6751 2.387638 11679.00 11500.00 108.00
1229 37.6955 2.386393 11608.00 12054.80 108.00
1230 37.7159 2.385149 12002.00 12473.90 110.00
1231 37.7364 2.383900 11989.00 12710.70 109.00
1232 37.7568 2.382659 12209.00 12833.50 110.00
1233 37.7772 2.381420 12588.00 12969.30 112.00
1234 37.7977 2.380175 12562.00 13129.60 112.00
1235 37.8181 2.378938 12920.00 13284.80 114.00
1236 37.8385 2.377702 12842.00 13353.50 113.00
1237 37.8589 2.376468 13009.00 13257.70 114.00
1238 37.8794 2.375229 13196.00 12981.00 115.00
1239 37.8998 2.373998 13030.00 12546.90 114.00
1240 37.9202 2.372767 12561.00 12079.60 112.00
1241 37.9407 2.371533 12188.00 11620.20 110.00
1242 37.9611 2.370305 11659.00 11164.30 108.00
1243 37.9815 2.369079 11405.00 10683.00 107.00
1244 38.0019 2.367854 10938.00 10191.20 105.00
1245 38.0224 2.366625 10355.00 9730.20 102.00
1246 38.0428 2.365402 9770.00 9333.95 99.00
1247 38.0632 2.364182 9320.00 9009.19 97.00
1248 38.0837 2.362956 9101.00 8748.74 95.00
1249 38.1041 2.361738 8783.00 8553.13 94.00
1250 38.1245 2.360521 8624.00 8391.70 93.00
1251 38.1449 2.359306 8564.00 8263.40 93.00
1252 38.1654 2.358086 8359.00 8159.88 91.00
1253 38.1858 2.356873 8318.00 8075.99 91.00
1254 38.2062 2.355661 8177.00 8011.10 90.00
1255 38.2267 2.354445 7996.00 7952.67 89.00
1256 38.2471 2.353236 7838.00 7903.22 89.00
1257 38.2675 2.352029 7909.00 7860.68 89.00
1258 38.2879 2.350823 7792.00 7823.77 88.00
1259 38.3084 2.349612 7621.00 7774.67 87.00
1260 38.3288 2.348408 7770.00 7746.88 88.00
1261 38.3492 2.347206 7419.00 7722.42 86.00
1262 38.3696 2.346005 7471.00 7700.84 86.00
1263 38.3901 2.344800 7359.00 7670.79 86.00
1264 38.4105 2.343601 7239.00 7646.06 85.00
1265 38.4309 2.342404 7220.00 7631.77 85.00
1266 38.4514 2.341202 7275.00 7619.21 85.00
1267 38.4718 2.340008 7193.00 7618.97 85.00
1268 38.4922 2.338815 7237.00 7604.59 85.00
1269 38.5126 2.337623 7226.00 7597.17 85.00
1270 38.5331 2.336426 7251.00 7591.13 85.00
1271 38.5535 2.335237 7187.00 7586.47 85.00
1272 38.5739 2.334049 7167.00 7590.54 85.00
1273 38.5944 2.332856 7223.00 7593.82 85.00
1274 38.6148 2.331671 7179.00 7598.46 85.00
1275 38.6352 2.330487 7336.00 7604.53 86.00
1276 38.6556 2.329304 7069.00 7612.08 84.00
1277 38.6761 2.328116 7153.00 7621.27 85.00
1278 38.6965 2.326936 7124.00 7623.22 84.00
1279 38.7169 2.325757 7276.00 7636.12 85.00
1280 38.7374 2.324573 7274.00 7651.10 85.00
1281 38.7578 2.323397 7308.00 7668.21 85.00
1282 38.7782 2.322222 7371.00 7687.81 86.00
1283 38.7986 2.321048 7288.00 7703.89 85.00
1284 38.8191 2.319869 7267.00 7729.73 85.00
1285 38.8395 2.318697 7375.00 7759.08 86.00
1286 38.8599 2.317527 7326.00 7792.64 86.00
1287 38.8804 2.316352 7308.00 7831.29 85.00
1288 38.9008 2.315185 7498.00 7874.61 87.00
1289 38.9212 2.314018 7474.00 7925.68 86.00
1290 38.9416 2.312853 7780.00 7985.11 88.00
1291 38.9621 2.311683 7833.00 8054.95 89.00
1292 38.9825 2.310521 7858.00 8136.96 89.00
1293 39.0029 2.309359 8073.00 8234.67 90.00
1294 39.0234 2.308193 8127.00 8353.16 90.00
1295 39.0438 2.307034 8423.00 8497.63 92.00
1296 39.0642 2.305876 8560.00 8677.48 93.00
1297 39.0846 2.304720 8597.00 8904.83 93.00
1298 39.1051 2.303559 9415.00 9197.60 97.00
1299 39.1255 2.302405 9694.00 9574.00 98.00
1300 39.1459 2.301252 10357.00 10060.60 102.00
1301 39.1664 2.300095 10577.00 10689.20 103.00
1302 39.1868 2.298944 11864.00 11485.70 109.00
1303 39.2072 2.297795 12508.00 12440.60 112.00
1304 39.2276 2.296647 13738.00 13547.20 117.00
1305 39.2481 2.295495 14880.00 14690.60 122.00
1306 39.2685 2.294349 16271.00 15670.20 128.00
1307 39.2889 2.293205 17249.00 16315.90 131.00
1308 39.3094 2.292057 17876.00 16560.10 134.00
1309 39.3298 2.290915 17706.00 16477.70 133.00
1310 39.3502 2.289774 17206.00 16161.30 131.00
1311 39.3706 2.288634 16711.00 15708.60 129.00
1312 39.3911 2.287491 16050.00 15138.60 127.00
1313 39.4115 2.286354 15373.00 14477.30 124.00
1314 39.4319 2.285218 14591.00 13761.90 121.00
1315 39.4524 2.284078 13953.00 13051.60 118.00
1316 39.4728 2.282944 13133.00 12438.50 115.00
1317 39.4932 2.281812 12523.00 11980.50 112.00
1318 39.5136 2.280681 12163.00 11704.00 110.00
1319 39.5341 2.279546 11896.00 11602.40 109.00
1320 39.5545 2.278417 11629.00 11649.60 108.00
1321 39.5749 2.277290 11668.00 11790.90 108.00
1322 39.5953 2.276164 11740.00 11940.60 108.00
1323 39.6158 2.275033 11809.00 11993.90 109.00
1324 39.6362 2.273909 11742.00 11896.40 108.00
1325 39.6566 2.272786 11661.00 11688.40 108.00
1326 39.6771 2.271659 11226.00 11446.50 106.00
1327 39.6975 2.270539 11172.00 11211.30 106.00
1328 39.7179 2.269420 10536.00 10969.10 103.00
1329 39.7383 2.268302 10433.00 10704.80 102.00
1330 39.7588 2.267179 10148.00 10437.30 101.00
1331 39.7792 2.266064 9905.00 10210.00 100.00
1332 39.7996 2.264949 9651.00 10048.20 98.00
1333 39.8201 2.263831 9826.00 9953.91 99.00
1334 39.8405 2.262718 9652.00 9919.64 98.00
1335 39.8609 2.261607 9551.00 9945.78 98.00
1336 39.8813 2.260498 9796.00 10047.50 99.00
1337 39.9018 2.259384 10044.00 10242.40 100.00
1338 39.9222 2.258276 10571.00 10532.00 103.00
1339 39.9426 2.257170 10864.00 10899.00 104.00
1340 39.9631 2.256059 11723.00 11295.80 108.00
1341 39.9835 2.254955 12225.00 11627.30 111.00
1342 40.0039 2.253853 12902.00 11788.80 114.00
1343 40.0243 2.252751 12746.00 11735.80 113.00
1344 40.0448 2.251645 12290.00 11525.80 111.00
1345 40.0652 2.250545 11772.00 11255.00 108.00
1346 40.0856 2.249447 11495.00 10965.60 107.00
1347 40.1061 2.248345 11194.00 10641.20 106.00
1348 40.1265 2.247249 10830.00 10260.60 104.00
1349 40.1469 2.246154 10140.00 9846.44 101.00
1350 40.1673 2.245060 9615.00 9445.12 98.00
1351 40.1878 2.243962 8997.00 9090.38 95.00
1352 40.2082 2.242871 8631.00 8798.49 93.00
1353 40.2286 2.241781 8539.00 8567.44 92.00
1354 40.2491 2.240686 8389.00 8383.77 92.00
1355 40.2695 2.239598 8040.00 8242.32 90.00
1356 40.2899 2.238511 7676.00 8132.50 88.00
1357 40.3103 2.237425 7878.00 8047.70 89.00
1358 40.3308 2.236335 7660.00 7982.13 88.00
1359 40.3512 2.235252 7465.00 7932.29 86.00
1360 40.3716 2.234169 7639.00 7894.88 87.00
1361 40.3921 2.233083 7431.00 7867.85 86.00
1362 40.4125 2.232003 7461.00 7850.28 86.00
1363 40.4329 2.230924 7401.00 7841.49 86.00
1364 40.4533 2.229846 7434.00 7841.54 86.00
1365 40.4738 2.228764 7529.00 7851.18 87.00
1366 40.4942 2.227688 7687.00 7871.76 88.00
1367 40.5146 2.226613 7826.00 7905.55 88.00
1368 40.5351 2.225535 7671.00 7956.17 88.00
1369 40.5555 2.224462 7806.00 8027.60 88.00
1370 40.5759 2.223391 8032.00 8125.71 90.00
1371 40.5963 2.222321 7979.00 8257.04 89.00
1372 40.6168 2.221246 8301.00 8429.32 91.00
1373 40.6372 2.220179 8363.00 8645.66 91.00
1374 40.6576 2.219112 8546.00 8904.74 92.00
1375 40.6781 2.218040 8986.00 9190.07 95.00
1376 40.6985 2.216976 9237.00 9455.30 96.00
1377 40.7189 2.215912 9361.00 9639.58 97.00
1378 40.7393 2.214850 9737.00 9701.03 99.00
1379 40.7598 2.213783 9827.00 9655.10 99.00
1380 40.7802 2.212723 9595.00 9557.94 98.00
1381 40.8006 2.211664 9262.00 9430.48 96.00
1382 40.8211 2.210601 9341.00 9308.01 97.00
1383 40.8415 2.209543 9139.00 9154.48 96.00
1384 40.8619 2.208487 9040.00 8991.89 95.00
1385 40.8823 2.207432 8877.00 8837.04 94.00
1386 40.9028 2.206373 8787.00 8710.19 94.00
1387 40.9232 2.205321 8667.00 8641.21 93.00
1388 40.9436 2.204269 8727.00 8618.03 93.00
1389 40.9640 2.203218 8805.00 8634.53 94.00
1390 40.9845 2.202164 8886.00 8662.02 94.00
1391 41.0049 2.201115 8984.00 8665.35 95.00
1392 41.0253 2.200068 9015.00 8625.44 95.00
1393 41.0458 2.199017 8812.00 8550.10 94.00
1394 41.0662 2.197971 8572.00 8464.26 93.00
1395 41.0866 2.196927 8495.00 8375.83 92.00
1396 41.1070 2.195884 8342.00 8283.68 91.00
1397 41.1275 2.194837 8234.00 8179.74 91.00
1398 41.1479 2.193796 7971.00 8057.81 89.00
1399 41.1683 2.192756 7738.00 7946.00 88.00
1400 41.1888 2.191712 7565.00 7846.35 87.00
1401 41.2092 2.190674 7485.00 7761.78 87.00
1402 41.2296 2.189637 7488.00 7703.06 87.00
1403 41.2500 2.188601 7122.00 7645.12 84.00
1404 41.2705 2.187562 7326.00 7603.64 86.00
1405 41.2909 2.186528 7179.00 7572.21 85.00
1406 41.3113 2.185496 7247.00 7548.73 85.00
1407 41.3318 2.184459 7085.00 7533.97 84.00
1408 41.3522 2.183429 7114.00 7520.17 84.00
1409 41.3726 2.182399 7093.00 7509.65 84.00
1410 41.3930 2.181370 7230.00 7505.05 85.00
1411 41.4135 2.180338 7078.00 7504.85 84.00
1412 41.4339 2.179312 7174.00 7509.38 85.00
1413 41.4543 2.178287 7299.00 7519.31 85.00
1414 41.4748 2.177257 7280.00 7535.13 85.00
1415 41.4952 2.176234 7321.00 7559.78 86.00
1416 41.5156 2.175212 7290.00 7594.72 85.00
1417 41.5360 2.174191 7380.00 7632.04 86.00
1418 41.5565 2.173166 7532.00 7696.59 87.00
1419 41.5769 2.172147 7685.00 7779.86 88.00
1420 41.5973 2.171128 7665.00 7883.94 88.00
1421 41.6178 2.170106 7698.00 8007.52 88.00
1422 41.6382 2.169091 8046.00 8140.83 90.00
1423 41.6586 2.168075 8155.00 8257.39 90.00
1424 41.6790 2.167061 8357.00 8344.61 91.00
1425 41.6995 2.166043 8348.00 8383.81 91.00
1426 41.7199 2.165031 8309.00 8378.75 91.00
1427 41.7403 2.164021 8087.00 8342.82 90.00
1428 41.7608 2.163006 8027.00 8284.87 90.00
1429 41.7812 2.161997 8075.00 8210.40 90.00
1430 41.8016 2.160989 8027.00 8120.69 90.00
1431 41.8220 2.159982 8133.00 8019.75 90.00
1432 41.8425 2.158971 7875.00 7914.01 89.00
1433 41.8629 2.157966 7789.00 7811.83 88.00
1434 41.8833 2.156962 7813.00 7729.60 88.00
1435 41.9038 2.155954 7431.00 7650.09 86.00
1436 41.9242 2.154953 7224.00 7585.54 85.00
1437 41.9446 2.153952 7432.00 7534.50 86.00
1438 41.9650 2.152952 7393.00 7495.05 86.00
1439 41.9855 2.151948 7239.00 7470.11 85.00
1440 42.0059 2.150950 7235.00 7447.95 85.00
1441 42.0263 2.149953 7472.00 7431.98 86.00
1442 42.0468 2.148953 7113.00 7421.05 84.00
1443 42.0672 2.147958 7161.00 7414.52 85.00
1444 42.0876 2.146964 7340.00 7411.86 86.00
1445 42.1080 2.145971 7175.00 7412.91 85.00
1446 42.1285 2.144974 7405.00 7417.78 86.00
1447 42.1489 2.143983 7269.00 7426.78 85.00
1448 42.1693 2.142993 7243.00 7440.56 85.00
1449 42.1897 2.142004 7421.00 7460.07 86.00
1450 42.2102 2.141011 7343.00 7491.25 86.00
1451 42.2306 2.140024 7474.00 7526.44 86.00
1452 42.2510 2.139038 7587.00 7571.90 87.00
1453 42.2715 2.138048 7655.00 7629.52 87.00
1454 42.2919 2.137064 7847.00 7693.50 89.00
1455 42.3123 2.136081 7847.00 7790.86 89.00
1456 42.3327 2.135099 7913.00 7905.29 89.00
1457 42.3532 2.134113 7954.00 8002.10 89.00
1458 42.3736 2.133133 8043.00 8057.37 90.00
1459 42.3940 2.132154 8017.00 8114.41 90.00
1460 42.4145 2.131170 8146.00 8126.43 90.00
1461 42.4349 2.130193 8211.00 8135.63 91.00
1462 42.4553 2.129217 8303.00 8150.54 91.00
1463 42.4757 2.128241 8463.00 8184.84 92.00
1464 42.4962 2.127262 8330.00 8212.23 91.00
1465 42.5166 2.126289 8443.00 8250.12 92.00
1466 42.5370 2.125316 8611.00 8308.79 93.00
1467 42.5575 2.124340 8716.00 8399.15 93.00
1468 42.5779 2.123369 8886.00 8524.36 94.00
1469 42.5983 2.122400 9404.00 8691.73 97.00
1470 42.6187 2.121431 9460.00 8891.42 97.00
1471 42.6392 2.120459 9884.00 9107.45 99.00
1472 42.6596 2.119492 10042.00 9317.54 100.00
1473 42.6800 2.118526 10041.00 9516.60 100.00
1474 42.7005 2.117557 10389.00 9729.43 102.00
1475 42.7209 2.116592 10614.00 9983.89 103.00
1476 42.7413 2.115630 10984.00 10296.10 105.00
1477 42.7617 2.114668 10824.00 10648.50 104.00
1478 42.7822 2.113702 10769.00 10987.00 104.00
1479 42.8026 2.112742 10559.00 11226.60 103.00
1480 42.8230 2.111782 10456.00 11298.90 102.00
1481 42.8435 2.110820 10170.00 11198.60 101.00
1482 42.8639 2.109862 10168.00 10993.30 101.00
1483 42.8843 2.108906 9974.00 10758.80 100.00
1484 42.9047 2.107950 9630.00 10524.80 98.00
1485 42.9252 2.106991 9452.00 10273.30 97.00
1486 42.9456 2.106038 9386.00 9984.69 97.00
1487 42.9660 2.105085 9158.00 9666.68 96.00
1488 42.9865 2.104129 9045.00 9351.98 95.00
1489 43.0069 2.103178 8896.00 9074.80 94.00
1490 43.0273 2.102228 8851.00 8848.71 94.00
1491 43.0477 2.101279 8625.00 8675.62 93.00
1492 43.0682 2.100326 8759.00 8550.77 94.00
1493 43.0886 2.099379 8750.00 8469.45 94.00
1494 43.1090 2.098433 8720.00 8425.46 93.00
1495 43.1295 2.097483 8545.00 8414.47 92.00
1496 43.1499 2.096539 8448.00 8433.10 92.00
1497 43.1703 2.095595 8769.00 8477.75 94.00
1498 43.1907 2.094653 8810.00 8543.53 94.00
1499 43.2112 2.093706 8800.00 8623.18 94.00
1500 43.2316 2.092766 8868.00 8707.03 94.00
1501 43.2520 2.091826 8895.00 8789.34 94.00
1502 43.2725 2.090883 8954.00 8881.91 95.00
1503 43.2929 2.089945 8943.00 8995.74 95.00
1504 43.3133 2.089007 9183.00 9144.38 96.00
1505 43.3337 2.088071 9273.00 9339.51 96.00
1506 43.3542 2.087132 9620.00 9589.36 98.00
1507 43.3746 2.086197 9655.00 9899.67 98.00
1508 43.3950 2.085264 10134.00 10283.30 101.00
1509 43.4155 2.084327 10800.00 10741.20 104.00
1510 43.4359 2.083395 11041.00 11244.20 105.00
1511 43.4563 2.082464 11773.00 11729.80 109.00
1512 43.4767 2.081535 12235.00 12114.90 111.00
1513 43.4972 2.080601 12329.00 12320.80 111.00
1514 43.5176 2.079673 12066.00 12373.90 110.00
1515 43.5380 2.078746 12371.00 12359.10 111.00
1516 43.5584 2.077820 12362.00 12349.30 111.00
1517 43.5789 2.076890 12583.00 12366.10 112.00
1518 43.5993 2.075965 12450.00 12399.70 112.00
1519 43.6197 2.075042 12874.00 12441.80 113.00
1520 43.6402 2.074115 12887.00 12538.00 114.00
1521 43.6606 2.073193 13389.00 12750.90 116.00
1522 43.6810 2.072272 13908.00 13143.50 118.00
1523 43.7014 2.071352 14455.00 13767.10 120.00
1524 43.7219 2.070428 15736.00 14670.50 125.00
1525 43.7423 2.069510 17020.00 15882.70 130.00
1526 43.7627 2.068593 18427.00 17425.50 136.00
1527 43.7832 2.067672 20725.00 19284.20 144.00
1528 43.8036 2.066756 22875.00 21335.20 151.00
1529 43.8240 2.065841 25007.00 23376.90 158.00
1530 43.8444 2.064928 27486.00 25169.10 166.00
1531 43.8649 2.064010 29223.00 26556.00 171.00
1532 43.8853 2.063098 30621.00 27523.70 175.00
1533 43.9057 2.062187 31176.00 28194.30 177.00
1534 43.9262 2.061272 31634.00 28654.40 178.00
1535 43.9466 2.060362 32511.00 28833.70 180.00
1536 43.9670 2.059454 32859.00 28543.00 181.00
1537 43.9874 2.058546 31910.00 27625.60 179.00
1538 44.0079 2.057635 29870.00 26130.10 173.00
1539 44.0283 2.056728 27518.00 24337.20 166.00
1540 44.0487 2.055823 25026.00 22513.50 158.00
1541 44.0692 2.054915 23697.00 20783.90 154.00
1542 44.0896 2.054011 21712.00 19150.20 147.00
1543 44.1100 2.053109 19819.00 17561.10 141.00
1544 44.1304 2.052207 17738.00 16028.10 133.00
1545 44.1509 2.051301 15931.00 14612.70 126.00
1546 44.1713 2.050402 14283.00 13387.40 120.00
1547 44.1917 2.049502 12948.00 12364.60 114.00
1548 44.2122 2.048600 12010.00 11524.80 110.00
1549 44.2326 2.047702 11206.00 10849.80 106.00
1550 44.2530 2.046806 10445.00 10305.60 102.00
1551 44.2734 2.045910 9959.00 9862.67 100.00
1552 44.2939 2.045011 9417.00 9502.85 97.00
1553 44.3143 2.044117 9063.00 9208.74 95.00
1554 44.3347 2.043223 8683.00 8965.93 93.00
1555 44.3552 2.042326 8430.00 8759.96 92.00
1556 44.3756 2.041435 8334.00 8584.74 91.00
1557 44.3960 2.040545 8210.00 8435.89 91.00
1558 44.4164 2.039655 7862.00 8307.34 89.00
1559 44.4369 2.038761 7968.00 8185.87 89.00
1560 44.4573 2.037873 7557.00 8089.19 87.00
1561 44.4777 2.036986 7757.00 8003.66 88.00
1562 44.4982 2.036095 7558.00 7927.98 87.00
1563 44.5186 2.035209 7581.00 7861.52 87.00
1564 44.5390 2.034325 7428.00 7798.17 86.00
1565 44.5594 2.033441 7305.00 7746.35 85.00
1566 44.5799 2.032553 7213.00 7700.42 85.00
1567 44.6003 2.031671 7242.00 7660.23 85.00
1568 44.6207 2.030790 7275.00 7625.08 85.00
1569 44.6412 2.029905 7152.00 7594.47 85.00
1570 44.6616 2.029025 7169.00 7568.81 85.00
1571 44.6820 2.028146 7156.00 7550.05 85.00
1572 44.7024 2.027268 7290.00 7535.47 85.00
1573 44.7229 2.026386 7040.00 7525.02 84.00
1574 44.7433 2.025510 7232.00 7518.92 85.00
1575 44.7637 2.024634 7379.00 7517.34 86.00
1576 44.7841 2.023759 7252.00 7520.63 85.00
1577 44.8046 2.022881 7101.00 7529.42 84.00
1578 44.8250 2.022007 7261.00 7544.42 85.00
1579 44.8454 2.021135 7268.00 7566.80 85.00
1580 44.8659 2.020259 7262.00 7597.29 85.00
1581 44.8863 2.019388 7259.00 7639.93 85.00
1582 44.9067 2.018518 7492.00 7696.81 87.00
1583 44.9271 2.017649 7747.00 7771.93 88.00
1584 44.9476 2.016777 7831.00 7870.96 88.00
1585 44.9680 2.015909 8064.00 7998.67 90.00
1586 44.9884 2.015043 8144.00 8163.84 90.00
1587 45.0089 2.014173 8361.00 8374.59 91.00
1588 45.0293 2.013308 8411.00 8634.97 92.00
1589 45.0497 2.012443 8836.00 8946.50 94.00
1590 45.0701 2.011580 9367.00 9296.40 97.00
1591 45.0906 2.010713 9668.00 9649.67 98.00
1592 45.1110 2.009851 9971.00 9929.95 100.00
1593 45.1314 2.008990 10136.00 10096.50 101.00
1594 45.1519 2.008126 10152.00 10120.80 101.00
1595 45.1723 2.007266 9948.00 10045.40 100.00
1596 45.1927 2.006407 9949.00 9934.02 100.00
1597 45.2131 2.005549 9890.00 9822.40 99.00
1598 45.2336 2.004688 10125.00 9700.01 101.00
1599 45.2540 2.003832 9943.00 9554.70 100.00
1600 45.2744 2.002977 9869.00 9371.37 99.00
1601 45.2949 2.002118 9614.00 9165.51 98.00
1602 45.3153 2.001264 9431.00 8968.68 97.00
1603 45.3357 2.000411 9235.00 8813.25 96.00
1604 45.3561 1.999559 9236.00 8700.86 96.00
1605 45.3766 1.998703 9081.00 8642.61 95.00
1606 45.3970 1.997852 9064.00 8633.04 95.00
1607 45.4174 1.997002 8890.00 8656.80 94.00
1608 45.4379 1.996149 8919.00 8690.75 94.00
1609 45.4583 1.995301 8711.00 8705.16 93.00
1610 45.4787 1.994453 8391.00 8668.00 92.00
1611 45.4991 1.993606 8441.00 8583.07 92.00
1612 45.5196 1.992756 8392.00 8498.16 92.00
1613 45.5400 1.991911 8281.00 8415.57 91.00
1614 45.5604 1.991067 8186.00 8335.63 90.00
1615 45.5809 1.990219 8119.00 8261.17 90.00
1616 45.6013 1.989376 8179.00 8194.30 90.00
1617 45.6217 1.988534 8045.00 8092.29 90.00
1618 45.6421 1.987693 8180.00 8037.22 90.00
1619 45.6626 1.986848 8082.00 8000.49 90.00
1620 45.6830 1.986008 8173.00 7991.15 90.00
1621 45.7034 1.985169 8187.00 7999.38 90.00
1622 45.7239 1.984327 8043.00 8009.45 90.00
1623 45.7443 1.983489 7969.00 7990.73 89.00
1624 45.7647 1.982653 8196.00 7960.42 91.00
1625 45.7851 1.981817 7946.00 7916.64 89.00
1626 45.8056 1.980978 7792.00 7867.00 88.00
1627 45.8260 1.980143 7880.00 7822.58 89.00
1628 45.8464 1.979310 7660.00 7784.69 88.00
1629 45.8669 1.978473 7866.00 7748.38 89.00
1630 45.8873 1.977641 7741.00 7712.84 88.00
1631 45.9077 1.976809 7601.00 7680.64 87.00
1632 45.9281 1.975979 7844.00 7659.48 89.00
1633 45.9486 1.975145 7730.00 7652.83 88.00
1634 45.9690 1.974316 7604.00 7657.39 87.00
1635 45.9894 1.973488 7664.00 7662.92 88.00
1636 46.0099 1.972656 7528.00 7657.10 87.00
1637 46.0303 1.971829 7615.00 7632.23 87.00
1638 46.0507 1.971003 7811.00 7592.46 88.00
1639 46.0711 1.970178 7644.00 7547.42 87.00
1640 46.0916 1.969350 7496.00 7503.77 87.00
1641 46.1120 1.968526 7478.00 7462.09 86.00
1642 46.1324 1.967703 7479.00 7418.08 86.00
1643 46.1528 1.966881 7462.00 7372.45 86.00
1644 46.1733 1.966055 7183.00 7319.60 85.00
1645 46.1937 1.965234 7282.00 7268.11 85.00
1646 46.2141 1.964414 7374.00 7221.72 86.00
1647 46.2346 1.963591 7158.00 7182.07 85.00
1648 46.2550 1.962773 7059.00 7149.73 84.00
1649 46.2754 1.961955 7159.00 7125.55 85.00
1650 46.2958 1.961138 6939.00 7105.08 83.00
1651 46.3163 1.960318 7034.00 7089.06 84.00
1652 46.3367 1.959502 6885.00 7076.81 83.00
1653 46.3571 1.958687 6897.00 7067.56 83.00
1654 46.3776 1.957869 6954.00 7060.75 83.00
1655 46.3980 1.957056 7035.00 7056.04 84.00
1656 46.4184 1.956244 6982.00 7053.10 84.00
1657 46.4388 1.955432 6982.00 7051.71 84.00
1658 46.4593 1.954617 7044.00 7051.73 84.00
1659 46.4797 1.953806 6917.00 7053.08 83.00
1660 46.5001 1.952997 7054.00 7055.71 84.00
1661 46.5206 1.952184 6986.00 7059.66 84.00
1662 46.5410 1.951376 6896.00 7064.91 83.00
1663 46.5614 1.950568 6943.00 7078.15 83.00
1664 46.5818 1.949762 6851.00 7085.75 83.00
1665 46.6023 1.948952 6993.00 7094.07 84.00
1666 46.6227 1.948146 6977.00 7104.21 84.00
1667 46.6431 1.947342 6934.00 7116.44 83.00
1668 46.6636 1.946534 6867.00 7131.20 83.00
1669 46.6840 1.945731 7135.00 7152.00 84.00
1670 46.7044 1.944929 6939.00 7173.06 83.00
1671 46.7248 1.944127 6962.00 7198.28 83.00
1672 46.7453 1.943322 7177.00 7228.84 85.00
1673 46.7657 1.942522 7121.00 7265.78 84.00
1674 46.7861 1.941723 7292.00 7311.04 85.00
1675 46.8066 1.940920 7163.00 7359.29 85.00
1676 46.8270 1.940122 7351.00 7429.39 86.00
1677 46.8474 1.939325 7545.00 7517.27 87.00
1678 46.8678 1.938528 7458.00 7629.38 86.00
1679 46.8883 1.937729 7637.00 7768.96 87.00
1680 46.9087 1.936934 7967.00 7942.14 89.00
1681 46.9291 1.936139 8174.00 8150.62 90.00
1682 46.9496 1.935342 8607.00 8405.56 93.00
1683 46.9700 1.934549 8934.00 8692.50 95.00
1684 46.9904 1.933756 9702.00 8991.27 98.00
1685 47.0108 1.932965 9604.00 9254.85 98.00
1686 47.0313 1.932170 9877.00 9430.61 99.00
1687 47.0517 1.931380 9755.00 9486.46 99.00
1688 47.0721 1.930591 9706.00 9441.41 99.00
1689 47.0926 1.929798 9588.00 9344.02 98.00
1690 47.1130 1.929010 9623.00 9237.90 98.00
1691 47.1334 1.928223 9573.00 9133.66 98.00
1692 47.1538 1.927436 9640.00 9017.66 98.00
1693 47.1743 1.926646 9414.00 8876.82 97.00
1694 47.1947 1.925861 9103.00 8717.28 95.00
1695 47.2151 1.925077 9008.00 8561.32 95.00
1696 47.2356 1.924289 8774.00 8433.05 94.00
1697 47.2560 1.923506 8875.00 8349.77 94.00
1698 47.2764 1.922723 8482.00 8317.28 92.00
1699 47.2968 1.921942 8632.00 8336.74 93.00
1700 47.3173 1.921157 8839.00 8409.92 94.00
1701 47.3377 1.920377 8829.00 8509.80 94.00
1702 47.3581 1.919597 8930.00 8619.79 94.00
1703 47.3785 1.918818 8784.00 8707.55 94.00
1704 47.3990 1.918036 8942.00 8744.51 95.00
1705 47.4194 1.917259 8752.00 8723.17 94.00
1706 47.4398 1.916482 8793.00 8663.49 94.00
1707 47.4603 1.915702 8837.00 8589.71 94.00
1708 47.4807 1.914926 8607.00 8520.54 93.00
1709 47.5011 1.914152 8406.00 8455.44 92.00
1710 47.5215 1.913378 8361.00 8385.05 91.00
1711 47.5420 1.912600 8425.00 8303.04 92.00
1712 47.5624 1.911827 8281.00 8212.62 91.00
1713 47.5828 1.911055 8180.00 8123.07 90.00
1714 47.6033 1.910280 7990.00 8038.05 89.00
1715 47.6237 1.909510 7977.00 7960.93 89.00
1716 47.6441 1.908740 7869.00 7895.16 89.00
1717 47.6645 1.907970 8081.00 7846.34 90.00
1718 47.6850 1.907198 7994.00 7818.89 89.00
1719 47.7054 1.906430 8000.00 7813.03 89.00
1720 47.7258 1.905663 8039.00 7830.49 90.00
1721 47.7463 1.904893 7990.00 7869.05 89.00
1722 47.7667 1.904127 8119.00 7929.15 90.00
1723 47.7871 1.903361 8017.00 8012.07 90.00
1724 47.8075 1.902597 8307.00 8114.74 91.00
1725 47.8280 1.901829 8371.00 8226.10 91.00
1726 47.8484 1.901066 8560.00 8320.45 93.00
1727 47.8688 1.900304 8586.00 8373.62 93.00
1728 47.8893 1.899538 8635.00 8373.96 93.00
1729 47.9097 1.898777 8624.00 8332.97 93.00
1730 47.9301 1.898016 8565.00 8274.59 93.00
1731 47.9505 1.897257 8561.00 8217.57 93.00
1732 47.9710 1.896494 8405.00 8163.60 92.00
1733 47.9914 1.895735 8286.00 8106.65 91.00
1734 48.0118 1.894977 8181.00 8039.88 90.00
1735 48.0323 1.894217 8184.00 7965.93 90.00
1736 48.0527 1.893460 8101.00 7896.89 90.00
1737 48.0731 1.892704 8090.00 7844.58 90.00
1738 48.0935 1.891949 7833.00 7817.69 89.00
1739 48.1140 1.891191 7878.00 7821.47 89.00
1740 48.1344 1.890437 7960.00 7859.30 89.00
1741 48.1548 1.889684 8003.00 7934.16 89.00
1742 48.1753 1.888928 7833.00 8049.89 89.00
1743 48.1957 1.888176 7990.00 8207.87 89.00
1744 48.2161 1.887425 8036.00 8408.26 90.00
1745 48.2365 1.886674 8310.00 8643.32 91.00
1746 48.2570 1.885920 8214.00 8892.82 91.00
1747 48.2774 1.885171 8470.00 9114.56 92.00
1748 48.2978 1.884423 8580.00 9261.79 93.00
1749 48.3183 1.883671 8927.00 9305.50 94.00
1750 48.3387 1.882924 8951.00 9257.61 95.00
1751 48.3591 1.882177 8761.00 9160.87 94.00
1752 48.3795 1.881431 8961.00 9054.26 95.00
1753 48.4000 1.880682 8728.00 8951.36 93.00
1754 48.4204 1.879938 8722.00 8843.57 93.00
1755 48.4408 1.879194 8482.00 8715.42 92.00
1756 48.4613 1.878447 8347.00 8567.53 91.00
1757 48.4817 1.877704 8461.00 8412.69 92.00
1758 48.5021 1.876962 8230.00 8273.45 91.00
1759 48.5225 1.876221 8260.00 8163.85 91.00
1760 48.5430 1.875476 8088.00 8087.44 90.00
1761 48.5634 1.874736 8137.00 8039.80 90.00
1762 48.5838 1.873996 8002.00 8008.60 89.00
1763 48.6043 1.873254 8096.00 7980.85 90.00
1764 48.6247 1.872516 8099.00 7945.44 90.00
1765 48.6451 1.871778 7971.00 7904.65 89.00
1766 48.6655 1.871041 8104.00 7866.85 90.00
1767 48.6860 1.870301 8013.00 7839.84 90.00
1768 48.7064 1.869566 7945.00 7826.65 89.00
1769 48.7268 1.868831 7887.00 7825.24 89.00
1770 48.7472 1.868097 8039.00 7826.24 90.00
1771 48.7677 1.867359 8201.00 7845.66 91.00
1772 48.7881 1.866626 8307.00 7881.85 91.00
1773 48.8085 1.865894 8249.00 7941.40 91.00
1774 48.8290 1.865158 8432.00 8028.29 92.00
1775 48.8494 1.864427 8302.00 8139.54 91.00
1776 48.8698 1.863697 8621.00 8273.94 93.00
1777 48.8902 1.862967 8845.00 8398.40 94.00
1778 48.9107 1.862234 8915.00 8516.76 94.00
1779 48.9311 1.861505 8954.00 8626.94 95.00
1780 48.9515 1.860777 9036.00 8746.26 95.00
1781 48.9720 1.860046 9211.00 8894.70 96.00
1782 48.9924 1.859319 9197.00 9078.45 96.00
1783 49.0128 1.858593 9439.00 9289.89 97.00
1784 49.0332 1.857868 9544.00 9487.48 98.00
1785 49.0537 1.857139 9759.00 9627.37 99.00
1786 49.0741 1.856415 9832.00 9666.57 99.00
1787 49.0945 1.855691 9844.00 9597.67 99.00
1788 49.1150 1.854965 9693.00 9450.27 98.00
1789 49.1354 1.854243 9621.00 9273.84 98.00
1790 49.1558 1.853521 9140.00 9105.04 96.00
1791 49.1762 1.852800 8924.00 8945.49 94.00
1792 49.1967 1.852076 8714.00 8778.89 93.00
1793 49.2171 1.851356 8501.00 8591.26 92.00
1794 49.2375 1.850636 8494.00 8382.05 92.00
1795 49.2580 1.849914 8174.00 8166.34 90.00
1796 49.2784 1.849196 8096.00 7966.72 90.00
1797 49.2988 1.848479 7901.00 7792.09 89.00
1798 49.3192 1.847762 7681.00 7646.24 88.00
1799 49.3397 1.847042 7416.00 7526.92 86.00
1800 49.3601 1.846327 7385.00 7434.00 86.00
1801 49.3805 1.845612 7338.00 7362.76 86.00
1802 49.4010 1.844894 7109.00 7310.15 84.00
1803 49.4214 1.844180 6941.00 7274.48 83.00
1804 49.4418 1.843467 7143.00 7253.90 85.00
1805 49.4622 1.842754 7087.00 7247.49 84.00
1806 49.4827 1.842039 7180.00 7254.31 85.00
1807 49.5031 1.841328 7296.00 7274.38 85.00
1808 49.5235 1.840617 7212.00 7305.55 85.00
1809 49.5440 1.839903 7133.00 7343.91 84.00
1810 49.5644 1.839194 7158.00 7381.30 85.00
1811 49.5848 1.838485 7299.00 7407.33 85.00
1812 49.6052 1.837777 7400.00 7409.74 86.00
1813 49.6257 1.837066 7391.00 7394.43 86.00
1814 49.6461 1.836359 6955.00 7365.18 83.00
1815 49.6665 1.835652 7196.00 7331.40 85.00
1816 49.6870 1.834943 7324.00 7298.45 86.00
1817 49.7074 1.834237 6949.00 7266.37 83.00
1818 49.7278 1.833533 7024.00 7231.37 84.00
1819 49.7482 1.832829 6913.00 7189.09 83.00
1820 49.7687 1.832122 6825.00 7143.96 83.00
1821 49.7891 1.831419 6787.00 7098.71 82.00
1822 49.8095 1.830717 6708.00 7057.07 82.00
1823 49.8300 1.830012 6764.00 7021.22 82.00
1824 49.8504 1.829311 6755.00 6992.23 82.00
1825 49.8708 1.828610 6644.00 6969.68 82.00
1826 49.8912 1.827910 6537.00 6953.72 81.00
1827 49.9117 1.827208 6612.00 6942.29 81.00
1828 49.9321 1.826509 6686.00 6935.69 82.00
1829 49.9525 1.825811 6605.00 6933.55 81.00
1830 49.9729 1.825113 6680.00 6935.74 82.00
1831 49.9934 1.824413 6595.00 6943.22 81.00
1832 50.0138 1.823717 6618.00 6956.85 81.00
1833 50.0342 1.823021 6667.00 6978.69 82.00
1834 50.0547 1.822322 6846.00 6999.06 83.00
1835 50.0751 1.821628 6737.00 7032.61 82.00
1836 50.0955 1.820934 6847.00 7075.35 83.00
1837 50.1159 1.820240 7017.00 7134.75 84.00
1838 50.1364 1.819544 6978.00 7201.27 84.00
1839 50.1568 1.818852 7065.00 7280.87 84.00
1840 50.1772 1.818160 7224.00 7372.86 85.00
1841 50.1977 1.817466 7110.00 7469.86 84.00
1842 50.2181 1.816776 7425.00 7566.90 86.00
1843 50.2385 1.816086 7325.00 7648.73 86.00
1844 50.2589 1.815396 7416.00 7696.20 86.00
1845 50.2794 1.814704 7584.00 7709.40 87.00
1846 50.2998 1.814016 7346.00 7698.81 86.00
1847 50.3202 1.813329 7290.00 7680.14 85.00
1848 50.3407 1.812638 7317.00 7671.09 86.00
1849 50.3611 1.811952 7330.00 7658.18 86.00
1850 50.3815 1.811266 7457.00 7647.28 86.00
1851 50.4019 1.810581 7352.00 7633.22 86.00
1852 50.4224 1.809893 7291.00 7618.25 85.00
1853 50.4428 1.809209 7452.00 7610.49 86.00
1854 50.4632 1.808525 7428.00 7619.33 86.00
1855 50.4837 1.807839 7512.00 7656.47 87.00
1856 50.5041 1.807157 7676.00 7719.96 88.00
1857 50.5245 1.806475 7812.00 7822.02 88.00
1858 50.5449 1.805794 7872.00 7961.82 89.00
1859 50.5654 1.805110 7925.00 8146.01 89.00
1860 50.5858 1.804430 8231.00 8373.17 91.00
1861 50.6062 1.803750 8531.00 8637.36 92.00
1862 50.6267 1.803068 9052.00 8919.41 95.00
1863 50.6471 1.802389 9308.00 9180.88 96.00
1864 50.6675 1.801712 9433.00 9363.41 97.00
1865 50.6879 1.801034 9256.00 9437.33 96.00
1866 50.7084 1.800354 9104.00 9401.17 95.00
1867 50.7288 1.799678 9097.00 9294.37 95.00
1868 50.7492 1.799003 8917.00 9164.36 94.00
1869 50.7697 1.798325 8878.00 9034.24 94.00
1870 50.7901 1.797650 8832.00 8904.28 94.00
1871 50.8105 1.796976 8668.00 8754.34 93.00
1872 50.8309 1.796303 8459.00 8573.47 92.00
1873 50.8514 1.795627 8337.00 8357.70 91.00
1874 50.8718 1.794955 8056.00 8143.54 90.00
1875 50.8922 1.794283 7725.00 7939.50 88.00
1876 50.9127 1.793609 7561.00 7758.31 87.00
1877 50.9331 1.792938 7395.00 7605.71 86.00
1878 50.9535 1.792269 7212.00 7479.73 85.00
1879 50.9739 1.791599 7164.00 7373.88 85.00
1880 50.9944 1.790927 7127.00 7291.57 84.00
1881 51.0148 1.790259 7098.00 7224.97 84.00
1882 51.0352 1.789591 6911.00 7171.37 83.00
1883 51.0557 1.788921 6764.00 7128.01 82.00
1884 51.0761 1.788254 6764.00 7093.22 82.00
1885 51.0965 1.787588 6856.00 7065.13 83.00
1886 51.1169 1.786923 6749.00 7042.47 82.00
1887 51.1374 1.786255 6640.00 7024.19 81.00
1888 51.1578 1.785590 6766.00 7018.45 82.00
1889 51.1782 1.784926 6753.00 7007.35 82.00
1890 51.1987 1.784260 6697.00 6999.00 82.00
1891 51.2191 1.783597 6569.00 6993.16 81.00
1892 51.2395 1.782935 6541.00 6989.57 81.00
1893 51.2599 1.782273 6671.00 6988.07 82.00
1894 51.2804 1.781609 6536.00 6988.59 81.00
1895 51.3008 1.780949 6704.00 7001.39 82.00
1896 51.3212 1.780288 6665.00 7008.67 82.00
1897 51.3416 1.779629 6409.00 7015.44 80.00
1898 51.3621 1.778967 6812.00 7024.39 83.00
1899 51.3825 1.778309 6763.00 7034.11 82.00
1900 51.4029 1.777651 6719.00 7047.90 82.00
1901 51.4234 1.776990 6850.00 7064.67 83.00
1902 51.4438 1.776334 6794.00 7084.70 82.00
1903 51.4642 1.775678 6850.00 7108.66 83.00
1904 51.4846 1.775022 6813.00 7137.33 83.00
1905 51.5051 1.774364 6944.00 7171.90 83.00
1906 51.5255 1.773709 7189.00 7212.58 85.00
1907 51.5459 1.773055 7192.00 7267.92 85.00
1908 51.5664 1.772399 7418.00 7328.78 86.00
1909 51.5868 1.771746 7358.00 7402.01 86.00
1910 51.6072 1.771093 7498.00 7490.13 87.00
1911 51.6276 1.770441 7820.00 7595.29 88.00
1912 51.6481 1.769787 7743.00 7719.15 88.00
1913 51.6685 1.769136 7888.00 7867.29 89.00
1914 51.6889 1.768486 8196.00 8018.12 91.00
1915 51.7094 1.767833 8248.00 8168.97 91.00
1916 51.7298 1.767184 8326.00 8304.30 91.00
1917 51.7502 1.766535 8518.00 8416.29 92.00
1918 51.7706 1.765887 8709.00 8509.48 93.00
1919 51.7911 1.765236 8752.00 8604.43 94.00
1920 51.8115 1.764589 8889.00 8711.68 94.00
1921 51.8319 1.763943 9038.00 8847.34 95.00
1922 51.8524 1.763294 9143.00 9013.61 96.00
1923 51.8728 1.762648 9329.00 9199.59 97.00
1924 51.8932 1.762003 9577.00 9388.59 98.00
1925 51.9136 1.761359 9810.00 9554.34 99.00
1926 51.9341 1.760712 10008.00 9670.56 100.00
1927 51.9545 1.760068 10207.00 9719.71 101.00
1928 51.9749 1.759426 10272.00 9711.94 101.00
1929 51.9954 1.758780 10518.00 9679.86 103.00
1930 52.0158 1.758138 10589.00 9667.27 103.00
1931 52.0362 1.757497 10495.00 9684.24 102.00
1932 52.0566 1.756856 10464.00 9738.17 102.00
1933 52.0771 1.756213 10508.00 9824.84 103.00
1934 52.0975 1.755573 10600.00 9929.92 103.00
1935 52.1179 1.754934 10395.00 10048.20 102.00
1936 52.1384 1.754292 10497.00 10173.60 102.00
1937 52.1588 1.753654 10204.00 10288.30 101.00
1938 52.1792 1.753017 9989.00 10354.60 100.00
1939 52.1996 1.752380 9955.00 10350.30 100.00
1940 52.2201 1.751740 9792.00 10283.30 99.00
1941 52.2405 1.751104 9684.00 10188.10 98.00
1942 52.2609 1.750469 9636.00 10103.40 98.00
1943 52.2814 1.749830 9674.00 10049.40 98.00
1944 52.3018 1.749196 9618.00 10021.30 98.00
1945 52.3222 1.748562 9569.00 9994.59 98.00
1946 52.3426 1.747929 9541.00 9943.01 98.00
1947 52.3631 1.747293 9571.00 9853.91 98.00
1948 52.3835 1.746660 9463.00 9735.18 97.00
1949 52.4039 1.746028 9612.00 9603.95 98.00
1950 52.4244 1.745394 9505.00 9473.64 97.00
1951 52.4448 1.744763 9544.00 9348.79 98.00
1952 52.4652 1.744133 9353.00 9232.55 97.00
1953 52.4856 1.743503 9108.00 9106.60 95.00
1954 52.5061 1.742870 9239.00 8972.76 96.00
1955 52.5265 1.742241 9054.00 8854.09 95.00
1956 52.5469 1.741613 8874.00 8749.11 94.00
1957 52.5673 1.740985 8776.00 8661.79 94.00
1958 52.5878 1.740355 8854.00 8591.74 94.00
1959 52.6082 1.739728 8734.00 8542.22 93.00
1960 52.6286 1.739102 8757.00 8502.21 94.00
1961 52.6491 1.738473 8705.00 8485.53 93.00
1962 52.6695 1.737848 8588.00 8488.68 93.00
1963 52.6899 1.737223 8515.00 8506.74 92.00
1964 52.7103 1.736599 8624.00 8530.82 93.00
1965 52.7308 1.735972 8582.00 8553.45 93.00
1966 52.7512 1.735348 8610.00 8574.43 93.00
1967 52.7716 1.734726 8745.00 8602.64 94.00
1968 52.7921 1.734101 8802.00 8650.87 94.00
1969 52.8125 1.733479 8749.00 8729.40 94.00
1970 52.8329 1.732857 9035.00 8843.96 95.00
1971 52.8533 1.732237 9237.00 8997.96 96.00
1972 52.8738 1.731614 9489.00 9196.20 97.00
1973 52.8942 1.730994 9618.00 9443.85 98.00
1974 52.9146 1.730374 10006.00 9751.24 100.00
1975 52.9351 1.729753 10131.00 10126.40 101.00
1976 52.9555 1.729134 10459.00 10560.10 102.00
1977 52.9759 1.728517 11028.00 11024.10 105.00
1978 52.9963 1.727899 11109.00 11462.20 105.00
1979 53.0168 1.727280 11494.00 11800.50 107.00
1980 53.0372 1.726663 11529.00 11973.30 107.00
1981 53.0576 1.726048 11585.00 11971.30 108.00
1982 53.0781 1.725429 11446.00 11839.70 107.00
1983 53.0985 1.724814 11148.00 11651.00 106.00
1984 53.1189 1.724200 10963.00 11459.10 105.00
1985 53.1393 1.723586 10749.00 11279.10 104.00
1986 53.1598 1.722970 10856.00 11092.90 104.00
1987 53.1802 1.722357 10542.00 10877.00 103.00
1988 53.2006 1.721745 10535.00 10623.70 103.00
1989 53.2211 1.721130 10145.00 10352.40 101.00
1990 53.2415 1.720519 9961.00 10097.60 100.00
1991 53.2619 1.719908 9909.00 9890.61 100.00
1992 53.2823 1.719298 10002.00 9751.52 100.00
1993 53.3028 1.718685 9588.00 9689.13 98.00
1994 53.3232 1.718075 9909.00 9704.66 100.00
1995 53.3436 1.717466 9685.00 9790.89 98.00
1996 53.3641 1.716855 9670.00 9933.65 98.00
1997 53.3845 1.716247 9595.00 10104.70 98.00
1998 53.4049 1.715640 9894.00 10271.50 99.00
1999 53.4253 1.715033 10024.00 10412.30 100.00
2000 53.4458 1.714423 9916.00 10524.80 100.00
2001 53.4662 1.713817 10205.00 10622.50 101.00
2002 53.4866 1.713212 10643.00 10718.70 103.00
2003 53.5071 1.712604 10805.00 10805.30 104.00
2004 53.5275 1.711999 10876.00 10852.40 104.00
2005 53.5479 1.711395 10775.00 10830.40 104.00
2006 53.5683 1.710792 10626.00 10729.30 103.00
2007 53.5888 1.710186 10426.00 10568.10 102.00
2008 53.6092 1.709583 10408.00 10384.40 102.00
2009 53.6296 1.708981 10266.00 10200.50 101.00
2010 53.6501 1.708376 10052.00 10024.60 100.00
2011 53.6705 1.707775 10210.00 9856.67 101.00
2012 53.6909 1.707174 9900.00 9693.02 99.00
2013 53.7113 1.706574 9957.00 9537.24 100.00
2014 53.7318 1.705971 9760.00 9400.92 99.00
2015 53.7522 1.705372 9632.00 9300.75 98.00
2016 53.7726 1.704773 9648.00 9244.81 98.00
2017 53.7931 1.704172 9453.00 9232.51 97.00
2018 53.8135 1.703574 9730.00 9282.38 99.00
2019 53.8339 1.702977 9773.00 9369.39 99.00
2020 53.8543 1.702380 9822.00 9482.89 99.00
2021 53.8748 1.701780 10041.00 9593.00 100.00
2022 53.8952 1.701185 9849.00 9660.85 99.00
2023 53.9156 1.700589 9715.00 9659.18 99.00
2024 53.9360 1.699994 9537.00 9584.37 98.00
2025 53.9565 1.699396 9523.00 9473.94 98.00
2026 53.9769 1.698802 9464.00 9345.69 97.00
2027 53.9973 1.698209 9391.00 9227.30 97.00
2028 54.0178 1.697613 9444.00 9120.95 97.00
2029 54.0382 1.697020 9287.00 9019.10 96.00
2030 54.0586 1.696428 9300.00 8894.74 96.00
2031 54.0790 1.695836 9118.00 8761.44 95.00
2032 54.0995 1.695242 8977.00 8621.50 95.00
2033 54.1199 1.694651 8872.00 8492.69 94.00
2034 54.1403 1.694061 8832.00 8388.74 94.00
2035 54.1608 1.693468 8787.00 8321.78 94.00
2036 54.1812 1.692879 8600.00 8290.99 93.00
2037 54.2016 1.692290 8636.00 8298.46 93.00
2038 54.2220 1.691701 8864.00 8350.86 94.00
2039 54.2425 1.691110 8740.00 8451.45 93.00
2040 54.2629 1.690523 8817.00 8597.68 94.00
2041 54.2833 1.689936 8893.00 8787.50 94.00
2042 54.3038 1.689346 8847.00 9012.57 94.00
2043 54.3242 1.688760 9117.00 9248.22 95.00
2044 54.3446 1.688174 9181.00 9460.55 96.00
2045 54.3650 1.687589 9125.00 9604.12 96.00
2046 54.3855 1.687001 9477.00 9650.59 97.00
2047 54.4059 1.686417 9713.00 9600.84 99.00
2048 54.4263 1.685833 9616.00 9488.50 98.00
2049 54.4468 1.685247 9630.00 9353.63 98.00
2050 54.4672 1.684664 9158.00 9222.71 96.00
2051 54.4876 1.684082 9108.00 9100.45 95.00
2052 54.5080 1.683500 8823.00 8971.99 94.00
2053 54.5285 1.682915 8545.00 8819.94 92.00
2054 54.5489 1.682334 8694.00 8640.96 93.00
2055 54.5693 1.681753 8441.00 8445.16 92.00
2056 54.5898 1.681170 8188.00 8249.65 90.00
2057 54.6102 1.680591 8188.00 8070.06 90.00
2058 54.6306 1.680011 7805.00 7917.28 88.00
2059 54.6510 1.679432 7714.00 7791.77 88.00
2060 54.6715 1.678851 7469.00 7691.39 86.00
2061 54.6919 1.678273 7507.00 7624.54 87.00
2062 54.7123 1.677696 7226.00 7563.31 85.00
2063 54.7328 1.677116 7383.00 7513.38 86.00
2064 54.7532 1.676539 7214.00 7469.97 85.00
2065 54.7736 1.675963 7215.00 7431.36 85.00
2066 54.7940 1.675387 7074.00 7394.94 84.00
2067 54.8145 1.674809 7137.00 7360.07 84.00
2068 54.8349 1.674235 7174.00 7327.62 85.00
2069 54.8553 1.673660 7015.00 7303.78 84.00
2070 54.8758 1.673083 6972.00 7279.11 83.00
2071 54.8962 1.672510 6930.00 7256.23 83.00
2072 54.9166 1.671937 7017.00 7227.87 84.00
2073 54.9370 1.671364 6934.00 7206.00 83.00
2074 54.9575 1.670789 7038.00 7192.72 84.00
2075 54.9779 1.670218 6895.00 7183.94 83.00
2076 54.9983 1.669647 7018.00 7180.94 84.00
2077 55.0188 1.669073 7038.00 7188.05 84.00
2078 55.0392 1.668503 6924.00 7200.10 83.00
2079 55.0596 1.667933 6829.00 7216.02 83.00
2080 55.0800 1.667363 6952.00 7240.74 83.00
2081 55.1005 1.666792 6946.00 7272.53 83.00
2082 55.1209 1.666223 6923.00 7303.62 83.00
2083 55.1413 1.665655 6962.00 7327.95 83.00
2084 55.1618 1.665084 7101.00 7341.77 84.00
2085 55.1822 1.664517 7154.00 7342.14 85.00
2086 55.2026 1.663950 7037.00 7334.35 84.00
2087 55.2230 1.663384 6996.00 7324.42 84.00
2088 55.2435 1.662815 7056.00 7316.91 84.00
2089 55.2639 1.662250 7158.00 7313.46 85.00
2090 55.2843 1.661685 7042.00 7319.11 84.00
2091 55.3047 1.661120 7164.00 7314.28 85.00
2092 55.3252 1.660553 7137.00 7314.83 84.00
2093 55.3456 1.659989 7221.00 7316.91 85.00
2094 55.3660 1.659426 7252.00 7323.59 85.00
2095 55.3865 1.658860 7050.00 7338.02 84.00
2096 55.4069 1.658298 7386.00 7362.01 86.00
2097 55.4273 1.657736 7479.00 7394.17 86.00
2098 55.4477 1.657174 7480.00 7437.39 86.00
2099 55.4682 1.656610 7486.00 7485.18 87.00
2100 55.4886 1.656050 7479.00 7540.11 86.00
2101 55.5090 1.655489 7561.00 7599.82 87.00
2102 55.5295 1.654927 7763.00 7671.04 88.00
2103 55.5499 1.654368 7837.00 7753.22 89.00
2104 55.5703 1.653808 8089.00 7860.68 90.00
2105 55.5907 1.653250 8170.00 7988.12 90.00
2106 55.6112 1.652689 8249.00 8150.33 91.00
2107 55.6316 1.652131 8429.00 8346.19 92.00
2108 55.6520 1.651574 8780.00 8578.49 94.00
2109 55.6725 1.651015 8997.00 8843.06 95.00
2110 55.6929 1.650458 9101.00 9129.55 95.00
2111 55.7133 1.649902 9213.00 9417.81 96.00
2112 55.7337 1.649347 9337.00 9677.36 97.00
2113 55.7542 1.648789 9420.00 9880.72 97.00
2114 55.7746 1.648234 9622.00 10014.50 98.00
2115 55.7950 1.647680 9800.00 10088.90 99.00
2116 55.8155 1.647123 10053.00 10113.90 100.00
2117 55.8359 1.646570 10272.00 10113.50 101.00
2118 55.8563 1.646017 10098.00 10082.90 100.00
2119 55.8767 1.645464 10037.00 10024.30 100.00
2120 55.8972 1.644910 9905.00 9938.53 100.00
2121 55.9176 1.644358 9855.00 9828.62 99.00
2122 55.9380 1.643807 9711.00 9698.91 99.00
2123 55.9585 1.643253 9676.00 9551.78 98.00
2124 55.9789 1.642702 9807.00 9401.38 99.00
2125 55.9993 1.642152 9469.00 9252.39 97.00
2126 56.0197 1.641603 9487.00 9114.00 97.00
2127 56.0402 1.641051 9402.00 8996.26 97.00
2128 56.0606 1.640502 9290.00 8904.43 96.00
2129 56.0810 1.639954 8951.00 8831.77 95.00
2130 56.1015 1.639403 8921.00 8763.31 94.00
2131 56.1219 1.638856 8767.00 8683.69 94.00
2132 56.1423 1.638309 8565.00 8584.98 93.00
2133 56.1627 1.637762 8434.00 8472.32 92.00
2134 56.1832 1.637213 8275.00 8358.07 91.00
2135 56.2036 1.636667 8431.00 8257.93 92.00
2136 56.2240 1.636122 8290.00 8171.93 91.00
2137 56.2445 1.635574 8126.00 8100.37 90.00
2138 56.2649 1.635029 8163.00 8037.68 90.00
2139 56.2853 1.634485 7900.00 7977.60 89.00
2140 56.3057 1.633942 8066.00 7911.15 90.00
2141 56.3262 1.633395 7968.00 7857.19 89.00
2142 56.3466 1.632852 8034.00 7814.49 90.00
2143 56.3670 1.632310 8187.00 7789.45 90.00
2144 56.3875 1.631765 8089.00 7783.53 90.00
2145 56.4079 1.631223 8137.00 7800.70 90.00
2146 56.4283 1.630682 8280.00 7843.24 91.00
2147 56.4487 1.630141 8432.00 7909.99 92.00
2148 56.4692 1.629598 8555.00 8016.06 92.00
2149 56.4896 1.629058 8653.00 8154.20 93.00
2150 56.5100 1.628519 8916.00 8333.00 94.00
2151 56.5304 1.627979 9201.00 8557.67 96.00
2152 56.5509 1.627438 9653.00 8833.91 98.00
2153 56.5713 1.626899 9635.00 9159.87 98.00
2154 56.5917 1.626361 10193.00 9529.74 101.00
2155 56.6122 1.625821 10526.00 9934.29 103.00
2156 56.6326 1.625284 10983.00 10309.50 105.00
2157 56.6530 1.624747 11210.00 10616.40 106.00
2158 56.6734 1.624211 11811.00 10799.30 109.00
2159 56.6939 1.623672 12042.00 10848.60 110.00
2160 56.7143 1.623137 12005.00 10794.20 110.00
2161 56.7347 1.622601 11839.00 10693.80 109.00
2162 56.7552 1.622064 11558.00 10591.90 108.00
2163 56.7756 1.621530 11168.00 10511.40 106.00
2164 56.7960 1.620996 10952.00 10442.30 105.00
2165 56.8164 1.620462 10895.00 10356.50 104.00
2166 56.8369 1.619926 10729.00 10227.30 104.00
2167 56.8573 1.619394 10756.00 10050.30 104.00
2168 56.8777 1.618861 10417.00 9846.38 102.00
2169 56.8982 1.618327 10095.00 9639.71 100.00
2170 56.9186 1.617795 9887.00 9465.86 99.00
2171 56.9390 1.617264 9510.00 9324.30 98.00
2172 56.9594 1.616733 9426.00 9217.52 97.00
2173 56.9799 1.616200 9460.00 9133.91 97.00
2174 57.0003 1.615670 9269.00 9054.84 96.00
2175 57.0207 1.615141 9094.00 8974.38 95.00
2176 57.0412 1.614609 9075.00 8896.66 95.00
2177 57.0616 1.614080 9082.00 8835.11 95.00
2178 57.0820 1.613552 9163.00 8803.79 96.00
2179 57.1024 1.613024 8907.00 8806.50 94.00
2180 57.1229 1.612494 8940.00 8849.39 95.00
2181 57.1433 1.611967 9015.00 8928.82 95.00
2182 57.1637 1.611440 9263.00 9041.68 96.00
2183 57.1842 1.610911 9221.00 9185.84 96.00
2184 57.2046 1.610385 9298.00 9354.78 96.00
2185 57.2250 1.609860 9527.00 9536.74 98.00
2186 57.2454 1.609334 9741.00 9710.04 99.00
2187 57.2659 1.608807 9867.00 9850.04 99.00
2188 57.2863 1.608283 9940.00 9942.30 100.00
2189 57.3067 1.607759 9998.00 9995.93 100.00
2190 57.3272 1.607232 9961.00 10034.90 100.00
2191 57.3476 1.606709 9945.00 10080.90 100.00
2192 57.3680 1.606186 9806.00 10139.60 99.00
2193 57.3884 1.605664 9934.00 10196.20 100.00
2194 57.4089 1.605139 9921.00 10224.00 100.00
2195 57.4293 1.604618 10146.00 10198.90 101.00
2196 57.4497 1.604097 10138.00 10113.10 101.00
2197 57.4702 1.603573 10257.00 9975.91 101.00
2198 57.4906 1.603053 9846.00 9804.54 99.00
2199 57.5110 1.602533 9662.00 9613.30 98.00
2200 57.5314 1.602013 9487.00 9413.71 97.00
2201 57.5519 1.601491 9126.00 9212.50 96.00
2202 57.5723 1.600972 8821.00 9015.75 94.00
2203 57.5927 1.600453 8753.00 8824.94 94.00
2204 57.6132 1.599933 8737.00 8641.11 93.00
2205 57.6336 1.599415 8328.00 8468.02 91.00
2206 57.6540 1.598898 8314.00 8304.95 91.00
2207 57.6744 1.598381 8108.00 8152.98 90.00
2208 57.6949 1.597862 7996.00 8015.64 89.00
2209 57.7153 1.597345 7739.00 7889.33 88.00
2210 57.7357 1.596830 7576.00 7790.36 87.00
2211 57.7562 1.596312 7634.00 7712.75 87.00
2212 57.7766 1.595796 7316.00 7655.73 86.00
2213 57.7970 1.595282 7221.00 7611.66 85.00
2214 57.8174 1.594767 7296.00 7581.83 85.00
2215 57.8379 1.594251 7284.00 7556.25 85.00
2216 57.8583 1.593737 7240.00 7530.79 85.00
2217 57.8787 1.593224 7065.00 7499.50 84.00
2218 57.8991 1.592712 7254.00 7471.25 85.00
2219 57.9196 1.592197 7130.00 7445.06 84.00
2220 57.9400 1.591685 7212.00 7426.60 85.00
2221 57.9604 1.591173 7196.00 7414.06 85.00
2222 57.9809 1.590659 7288.00 7410.53 85.00
2223 58.0013 1.590148 7229.00 7413.26 85.00
2224 58.0217 1.589638 7306.00 7421.76 85.00
2225 58.0421 1.589128 7419.00 7437.17 86.00
2226 58.0626 1.588616 7338.00 7462.26 86.00
2227 58.0830 1.588106 7568.00 7499.28 87.00
2228 58.1034 1.587597 7616.00 7549.48 87.00
2229 58.1239 1.587086 7825.00 7619.18 88.00
2230 58.1443 1.586578 8072.00 7704.28 90.00
2231 58.1647 1.586070 8289.00 7801.18 91.00
2232 58.1851 1.585562 8203.00 7902.21 91.00
2233 58.2056 1.585053 8653.00 7997.78 93.00
2234 58.2260 1.584546 8642.00 8078.78 93.00
2235 58.2464 1.584040 8703.00 8143.67 93.00
2236 58.2669 1.583531 8793.00 8204.08 94.00
2237 58.2873 1.583026 8731.00 8272.30 93.00
2238 58.3077 1.582521 8842.00 8368.01 94.00
2239 58.3281 1.582016 9032.00 8489.37 95.00
2240 58.3486 1.581509 9012.00 8646.84 95.00
2241 58.3690 1.581005 9381.00 8839.31 97.00
2242 58.3894 1.580501 9655.00 9066.19 98.00
2243 58.4099 1.579995 9769.00 9327.38 99.00
2244 58.4303 1.579492 9895.00 9615.19 99.00
2245 58.4507 1.578990 9871.00 9916.31 99.00
2246 58.4711 1.578487 9948.00 10204.80 100.00
2247 58.4916 1.577983 9823.00 10437.20 99.00
2248 58.5120 1.577481 10059.00 10577.80 100.00
2249 58.5324 1.576980 10117.00 10615.10 101.00
2250 58.5529 1.576477 10018.00 10562.10 100.00
2251 58.5733 1.575977 10069.00 10460.40 100.00
2252 58.5937 1.575477 10121.00 10351.70 101.00
2253 58.6141 1.574977 9857.00 10262.30 99.00
2254 58.6346 1.574475 10058.00 10197.10 100.00
2255 58.6550 1.573976 10167.00 10134.60 101.00
2256 58.6754 1.573478 10151.00 10082.00 101.00
2257 58.6959 1.572977 10254.00 10023.60 101.00
2258 58.7163 1.572479 10035.00 9955.56 100.00
2259 58.7367 1.571982 10594.00 9891.94 103.00
2260 58.7571 1.571484 10498.00 9843.50 102.00
2261 58.7776 1.570985 10562.00 9805.93 103.00
2262 58.7980 1.570489 10693.00 9776.96 103.00
2263 58.8184 1.569993 10805.00 9747.07 104.00
2264 58.8389 1.569495 10700.00 9705.87 103.00
2265 58.8593 1.569000 10323.00 9653.51 102.00
2266 58.8797 1.568505 10334.00 9561.93 102.00
2267 58.9001 1.568010 10242.00 9440.26 101.00
2268 58.9206 1.567513 10175.00 9297.33 101.00
2269 58.9410 1.567019 10176.00 9148.19 101.00
2270 58.9614 1.566526 9895.00 9002.94 99.00
2271 58.9819 1.566031 9846.00 8878.30 99.00
2272 59.0023 1.565538 9637.00 8747.76 98.00
2273 59.0227 1.565045 9441.00 8624.41 97.00
2274 59.0431 1.564553 9230.00 8501.04 96.00
2275 59.0636 1.564059 9027.00 8375.94 95.00
2276 59.0840 1.563568 8766.00 8252.34 94.00
2277 59.1044 1.563077 8806.00 8135.35 94.00
2278 59.1248 1.562586 8821.00 8015.85 94.00
2279 59.1453 1.562094 8633.00 7895.81 93.00
2280 59.1657 1.561604 8601.00 7777.81 93.00
2281 59.1861 1.561114 8262.00 7664.10 91.00
2282 59.2066 1.560623 8154.00 7559.65 90.00
2283 59.2270 1.560134 7957.00 7468.58 89.00
2284 59.2474 1.559645 8060.00 7390.21 90.00
2285 59.2678 1.559157 7831.00 7321.37 88.00
2286 59.2883 1.558667 7593.00 7251.26 87.00
2287 59.3087 1.558180 7571.00 7189.02 87.00
2288 59.3291 1.557693 7594.00 7131.98 87.00
2289 59.3496 1.557204 7373.00 7071.15 86.00
2290 59.3700 1.556717 7330.00 7014.40 86.00
2291 59.3904 1.556231 7281.00 6965.59 85.00
2292 59.4108 1.555746 7053.00 6921.43 84.00
2293 59.4313 1.555258 7202.00 6877.79 85.00
2294 59.4517 1.554773 7035.00 6847.53 84.00
2295 59.4721 1.554289 7002.00 6823.60 84.00
2296 59.4926 1.553802 6920.00 6805.89 83.00
2297 59.5130 1.553318 6838.00 6791.07 83.00
2298 59.5334 1.552834 6876.00 6785.97 83.00
2299 59.5538 1.552351 6855.00 6786.43 83.00
2300 59.5743 1.551866 6767.00 6792.69 82.00
2301 59.5947 1.551384 6992.00 6803.01 84.00
2302 59.6151 1.550902 7026.00 6821.08 84.00
2303 59.6356 1.550417 6999.00 6845.56 84.00
2304 59.6560 1.549936 7026.00 6876.19 84.00
2305 59.6764 1.549455 7037.00 6911.12 84.00
2306 59.6968 1.548974 7312.00 6950.71 86.00
2307 59.7173 1.548491 7208.00 6990.21 85.00
2308 59.7377 1.548011 7311.00 7023.90 86.00
2309 59.7581 1.547532 7359.00 7046.72 86.00
2310 59.7786 1.547050 7332.00 7056.16 86.00
2311 59.7990 1.546571 7392.00 7053.76 86.00
2312 59.8194 1.546092 7343.00 7047.87 86.00
2313 59.8398 1.545614 7161.00 7037.23 85.00
2314 59.8603 1.545134 7223.00 7028.68 85.00
2315 59.8807 1.544656 7231.00 7022.20 85.00
2316 59.9011 1.544179 7289.00 7018.28 85.00
2317 59.9216 1.543700 7240.00 7013.59 85.00
2318 59.9420 1.543223 7118.00 7006.54 84.00
2319 59.9624 1.542747 7252.00 6997.74 85.00
2320 59.9828 1.542271 7202.00 6990.87 85.00
2321 60.0033 1.541793 7041.00 6985.32 84.00
2322 60.0237 1.541318 7234.00 6985.00 85.00
2323 60.0441 1.540843 7034.00 6990.90 84.00
2324 60.0646 1.540366 7120.00 7005.05 84.00
2325 60.0850 1.539892 7125.00 7027.54 84.00
2326 60.1054 1.539418 7093.00 7062.18 84.00
2327 60.1258 1.538945 7191.00 7103.92 85.00
2328 60.1463 1.538469 7242.00 7157.21 85.00
2329 60.1667 1.537997 7359.00 7223.15 86.00
2330 60.1871 1.537524 7446.00 7303.91 86.00
2331 60.2076 1.537049 7493.00 7402.29 87.00
2332 60.2280 1.536578 7669.00 7519.88 88.00
2333 60.2484 1.536106 7869.00 7659.48 89.00
2334 60.2688 1.535635 7625.00 7821.75 87.00
2335 60.2893 1.535162 7984.00 8009.16 89.00
2336 60.3097 1.534692 7984.00 8214.19 89.00
2337 60.3301 1.534221 8163.00 8426.90 90.00
2338 60.3506 1.533749 8304.00 8629.74 91.00
2339 60.3710 1.533280 8532.00 8798.31 92.00
2340 60.3914 1.532811 8665.00 8916.41 93.00
2341 60.4118 1.532342 8710.00 8982.27 93.00
2342 60.4323 1.531871 8930.00 9010.73 94.00
2343 60.4527 1.531403 9344.00 9029.26 97.00
2344 60.4731 1.530936 9160.00 9059.72 96.00
2345 60.4935 1.530468 9133.00 9115.12 96.00
2346 60.5140 1.529999 9529.00 9197.52 98.00
2347 60.5344 1.529532 9715.00 9295.97 99.00
2348 60.5548 1.529066 9770.00 9407.81 99.00
2349 60.5753 1.528597 10111.00 9516.45 101.00
2350 60.5957 1.528131 10325.00 9634.77 102.00
2351 60.6161 1.527666 10470.00 9758.90 102.00
2352 60.6365 1.527201 10771.00 9892.30 104.00
2353 60.6570 1.526734 10815.00 10038.50 104.00
2354 60.6774 1.526269 11220.00 10191.90 106.00
2355 60.6978 1.525805 11378.00 10351.10 107.00
2356 60.7183 1.525339 11358.00 10520.10 107.00
2357 60.7387 1.524876 11536.00 10692.60 107.00
2358 60.7591 1.524413 11809.00 10875.30 109.00
2359 60.7795 1.523950 11786.00 11059.50 109.00
2360 60.8000 1.523485 12231.00 11240.90 111.00
2361 60.8204 1.523023 12417.00 11416.20 111.00
2362 60.8408 1.522561 12615.00 11591.10 112.00
2363 60.8613 1.522098 12691.00 11769.30 113.00
2364 60.8817 1.521637 12820.00 11940.00 113.00
2365 60.9021 1.521176 12737.00 12090.30 113.00
2366 60.9225 1.520715 12911.00 12200.40 114.00
2367 60.9430 1.520253 12985.00 12275.30 114.00
2368 60.9634 1.519793 12782.00 12320.60 113.00
2369 60.9838 1.519334 12618.00 12353.20 112.00
2370 61.0043 1.518872 12760.00 12382.50 113.00
2371 61.0247 1.518413 12677.00 12397.30 113.00
2372 61.0451 1.517955 12623.00 12367.60 112.00
2373 61.0655 1.517497 12491.00 12265.20 112.00
2374 61.0860 1.517037 12369.00 12083.10 111.00
2375 61.1064 1.516579 12145.00 11834.70 110.00
2376 61.1268 1.516122 12105.00 11565.10 110.00
2377 61.1473 1.515663 11656.00 11309.90 108.00
2378 61.1677 1.515206 11539.00 11096.30 107.00
2379 61.1881 1.514750 11106.00 10927.50 105.00
2380 61.2085 1.514294 10999.00 10791.10 105.00
2381 61.2290 1.513836 10976.00 10672.20 105.00
2382 61.2494 1.513381 10956.00 10561.40 105.00
2383 61.2698 1.512926 10669.00 10443.20 103.00
2384 61.2903 1.512469 10524.00 10320.00 103.00
2385 61.3107 1.512015 10550.00 10190.70 103.00
2386 61.3311 1.511561 10275.00 10050.60 101.00
2387 61.3515 1.511107 9986.00 9897.84 100.00
2388 61.3720 1.510651 9878.00 9728.48 99.00
2389 61.3924 1.510198 9594.00 9555.26 98.00
2390 61.4128 1.509746 9436.00 9386.08 97.00
2391 61.4333 1.509291 9207.00 9226.47 96.00
2392 61.4537 1.508839 9120.00 9076.15 95.00
2393 61.4741 1.508387 9031.00 8930.17 95.00
2394 61.4945 1.507936 8911.00 8783.17 94.00
2395 61.5150 1.507483 8640.00 8630.98 93.00
2396 61.5354 1.507032 8359.00 8475.00 91.00
2397 61.5558 1.506581 8378.00 8318.45 92.00
2398 61.5763 1.506129 8104.00 8166.63 90.00
2399 61.5967 1.505679 7980.00 8028.30 89.00
2400 61.6171 1.505230 7845.00 7902.02 89.00
2401 61.6375 1.504780 7684.00 7791.11 88.00
2402 61.6580 1.504329 7679.00 7695.62 88.00
2403 61.6784 1.503881 7621.00 7616.99 87.00
2404 61.6988 1.503433 7557.00 7555.29 87.00
2405 61.7192 1.502984 7608.00 7510.92 87.00
2406 61.7397 1.502535 7583.00 7483.97 87.00
2407 61.7601 1.502087 7349.00 7475.84 86.00
2408 61.7805 1.501640 7535.00 7484.59 87.00
2409 61.8010 1.501191 7482.00 7511.56 86.00
2410 61.8214 1.500745 7439.00 7556.50 86.00
2411 61.8418 1.500299 7580.00 7617.47 87.00
2412 61.8622 1.499853 7456.00 7694.59 86.00
2413 61.8827 1.499406 7668.00 7781.57 88.00
2414 61.9031 1.498961 7813.00 7868.07 88.00
2415 61.9235 1.498516 7873.00 7941.92 89.00
2416 61.9440 1.498069 7919.00 7991.10 89.00
2417 61.9644 1.497625 7908.00 8009.30 89.00
2418 61.9848 1.497181 8128.00 8000.90 90.00
2419 62.0052 1.496738 7899.00 7977.84 89.00
2420 62.0257 1.496292 7888.00 7953.14 89.00
2421 62.0461 1.495849 7814.00 7938.41 88.00
2422 62.0665 1.495407 7579.00 7945.02 87.00
2423 62.0870 1.494962 7753.00 7955.58 88.00
2424 62.1074 1.494520 7727.00 7973.01 88.00
2425 62.1278 1.494078 7944.00 7992.51 89.00
2426 62.1482 1.493637 7886.00 8011.78 89.00
2427 62.1687 1.493194 7816.00 8030.63 88.00
2428 62.1891 1.492753 7770.00 8047.47 88.00
2429 62.2095 1.492312 7724.00 8057.01 88.00
2430 62.2300 1.491870 7554.00 8050.61 87.00
2431 62.2504 1.491430 7348.00 8023.83 86.00
2432 62.2708 1.490991 7378.00 7971.29 86.00
2433 62.2912 1.490551 7361.00 7903.78 86.00
2434 62.3117 1.490110 7411.00 7830.20 86.00
2435 62.3321 1.489672 7356.00 7761.57 86.00
2436 62.3525 1.489233 7379.00 7705.54 86.00
2437 62.3730 1.488793 7187.00 7653.77 85.00
2438 62.3934 1.488356 7220.00 7605.35 85.00
2439 62.4138 1.487918 7236.00 7554.12 85.00
2440 62.4342 1.487481 7157.00 7496.60 85.00
2441 62.4547 1.487042 7116.00 7433.29 84.00
2442 62.4751 1.486606 7163.00 7368.91 85.00
2443 62.4955 1.486169 7125.00 7302.69 84.00
2444 62.5160 1.485731 7168.00 7253.79 85.00
2445 62.5364 1.485296 7199.00 7210.73 85.00
2446 62.5568 1.484861 7102.00 7182.69 84.00
2447 62.5772 1.484425 7043.00 7161.66 84.00
2448 62.5977 1.483989 7011.00 7151.59 84.00
2449 62.6181 1.483554 7185.00 7156.71 85.00
2450 62.6385 1.483120 7200.00 7168.53 85.00
2451 62.6590 1.482684 7128.00 7188.54 84.00
2452 62.6794 1.482251 7233.00 7221.95 85.00
2453 62.6998 1.481818 7019.00 7267.78 84.00
2454 62.7202 1.481385 7161.00 7321.31 85.00
2455 62.7407 1.480950 7267.00 7386.39 85.00
2456 62.7611 1.480518 7472.00 7455.69 86.00
2457 62.7815 1.480086 7509.00 7525.49 87.00
2458 62.8020 1.479652 7806.00 7588.04 88.00
2459 62.8224 1.479221 7498.00 7645.76 87.00
2460 62.8428 1.478790 7651.00 7697.74 87.00
2461 62.8632 1.478359 7938.00 7748.92 89.00
2462 62.8837 1.477926 7848.00 7809.16 89.00
2463 62.9041 1.477496 8052.00 7881.98 90.00
2464 62.9245 1.477066 7774.00 7967.89 88.00
2465 62.9450 1.476635 7921.00 8070.20 89.00
2466 62.9654 1.476205 7997.00 8174.54 89.00
2467 62.9858 1.475776 7886.00 8271.73 89.00
2468 63.0062 1.475348 8091.00 8347.15 90.00
2469 63.0267 1.474917 8128.00 8392.25 90.00
2470 63.0471 1.474489 7984.00 8402.08 89.00
2471 63.0675 1.474061 7980.00 8400.83 89.00
2472 63.0879 1.473634 8071.00 8395.31 90.00
2473 63.1084 1.473204 8087.00 8403.60 90.00
2474 63.1288 1.472777 8289.00 8432.76 91.00
2475 63.1492 1.472351 8111.00 8484.83 90.00
2476 63.1697 1.471922 8383.00 8555.84 92.00
2477 63.1901 1.471496 8370.00 8627.60 91.00
2478 63.2105 1.471071 8329.00 8702.94 91.00
2479 63.2309 1.470645 8255.00 8770.00 91.00
2480 63.2514 1.470218 8485.00 8818.73 92.00
2481 63.2718 1.469793 8537.00 8847.11 92.00
2482 63.2922 1.469368 8666.00 8860.36 93.00
2483 63.3127 1.468942 8543.00 8861.77 92.00
2484 63.3331 1.468518 8613.00 8855.61 93.00
2485 63.3535 1.468094 8750.00 8835.93 94.00
2486 63.3739 1.467671 8582.00 8806.61 93.00
2487 63.3944 1.467246 8470.00 8759.92 92.00
2488 63.4148 1.466823 8478.00 8694.74 92.00
2489 63.4352 1.466400 8384.00 8617.48 92.00
2490 63.4557 1.465976 8389.00 8530.83 92.00
2491 63.4761 1.465554 8210.00 8441.03 91.00
2492 63.4965 1.465132 8191.00 8359.27 91.00
2493 63.5169 1.464711 8152.00 8276.61 90.00
2494 63.5374 1.464288 8051.00 8197.53 90.00
2495 63.5578 1.463867 8103.00 8121.46 90.00
2496 63.5782 1.463446 8027.00 8054.67 90.00
2497 63.5987 1.463024 7757.00 7984.57 88.00
2498 63.6191 1.462604 7763.00 7925.09 88.00
2499 63.6395 1.462185 7573.00 7878.05 87.00
2500 63.6599 1.461765 7663.00 7844.69 88.00
2501 63.6804 1.461344 7608.00 7830.25 87.00
2502 63.7008 1.460925 7660.00 7832.21 88.00
2503 63.7212 1.460507 7718.00 7848.03 88.00
2504 63.7417 1.460087 7816.00 7868.73 88.00
2505 63.7621 1.459669 7692.00 7886.24 88.00
2506 63.7825 1.459251 7793.00 7894.58 88.00
2507 63.8029 1.458834 7763.00 7890.94 88.00
2508 63.8234 1.458415 7818.00 7878.78 88.00
2509 63.8438 1.457998 7596.00 7865.81 87.00
2510 63.8642 1.457581 7661.00 7860.07 88.00
2511 63.8847 1.457163 7840.00 7867.47 89.00
2512 63.9051 1.456747 7870.00 7890.60 89.00
2513 63.9255 1.456331 7759.00 7929.19 88.00
2514 63.9459 1.455916 7762.00 7981.43 88.00
2515 63.9664 1.455499 7833.00 8046.03 89.00
2516 63.9868 1.455084 7783.00 8122.20 88.00
2517 64.0072 1.454670 8163.00 8211.12 90.00
2518 64.0277 1.454253 8009.00 8313.02 89.00
2519 64.0481 1.453839 7959.00 8422.49 89.00
2520 64.0685 1.453426 8088.00 8530.23 90.00
2521 64.0889 1.453012 8183.00 8622.67 90.00
2522 64.1094 1.452597 8218.00 8685.01 91.00
2523 64.1298 1.452185 8422.00 8719.86 92.00
2524 64.1502 1.451772 8369.00 8732.48 91.00
2525 64.1707 1.451358 8664.00 8737.08 93.00
2526 64.1911 1.450946 8626.00 8749.25 93.00
2527 64.2115 1.450534 8524.00 8778.30 92.00
2528 64.2319 1.450122 8718.00 8825.08 93.00
2529 64.2524 1.449709 8961.00 8882.37 95.00
2530 64.2728 1.449299 9012.00 8934.97 95.00
2531 64.2932 1.448888 8950.00 8973.11 95.00
2532 64.3136 1.448478 8792.00 8987.30 94.00
2533 64.3341 1.448066 8833.00 8980.22 94.00
2534 64.3545 1.447656 8897.00 8958.68 94.00
2535 64.3749 1.447246 8910.00 8939.05 94.00
2536 64.3954 1.446835 9055.00 8936.47 95.00
2537 64.4158 1.446426 9221.00 8967.10 96.00
2538 64.4362 1.446018 9195.00 9028.66 96.00
2539 64.4566 1.445609 9186.00 9126.50 96.00
2540 64.4771 1.445199 9362.00 9257.70 97.00
2541 64.4975 1.444791 9310.00 9417.08 96.00
2542 64.5179 1.444384 9569.00 9586.21 98.00
2543 64.5384 1.443975 9831.00 9754.67 99.00
2544 64.5588 1.443568 9796.00 9904.36 99.00
2545 64.5792 1.443161 10128.00 10021.40 101.00
2546 64.5996 1.442755 10115.00 10103.30 101.00
2547 64.6201 1.442346 10402.00 10152.50 102.00
2548 64.6405 1.441940 10271.00 10178.60 101.00
2549 64.6609 1.441535 10175.00 10186.10 101.00
2550 64.6814 1.441128 9957.00 10177.90 100.00
2551 64.7018 1.440723 10019.00 10151.10 100.00
2552 64.7222 1.440318 9785.00 10097.50 99.00
2553 64.7426 1.439913 9764.00 10010.60 99.00
2554 64.7631 1.439507 9656.00 9887.18 98.00
2555 64.7835 1.439103 9699.00 9733.43 98.00
2556 64.8039 1.438699 9491.00 9560.54 97.00
2557 64.8244 1.438294 9188.00 9380.94 96.00
2558 64.8448 1.437891 9121.00 9205.95 96.00
2559 64.8652 1.437488 8774.00 9039.43 94.00
2560 64.8856 1.437085 8804.00 8884.78 94.00
2561 64.9061 1.436681 8438.00 8734.28 92.00
2562 64.9265 1.436279 8406.00 8589.85 92.00
2563 64.9469 1.435877 8267.00 8448.83 91.00
2564 64.9674 1.435474 8287.00 8310.00 91.00
2565 64.9878 1.435072 8167.00 8174.08 90.00
2566 65.0082 1.434672 7992.00 8046.12 89.00
2567 65.0286 1.434271 7757.00 7927.81 88.00
2568 65.0491 1.433868 7816.00 7821.69 88.00
2569 65.0695 1.433468 7448.00 7732.11 86.00
2570 65.0899 1.433068 7435.00 7656.26 86.00
2571 65.1104 1.432667 7401.00 7594.09 86.00
2572 65.1308 1.432267 7379.00 7544.06 86.00
2573 65.1512 1.431868 7176.00 7503.11 85.00
2574 65.1716 1.431469 7210.00 7468.41 85.00
2575 65.1921 1.431069 7131.00 7440.41 84.00
2576 65.2125 1.430670 7097.00 7415.73 84.00
2577 65.2329 1.430272 7253.00 7401.63 85.00
2578 65.2534 1.429873 7212.00 7396.05 85.00
2579 65.2738 1.429475 7167.00 7400.80 85.00
2580 65.2942 1.429078 7139.00 7416.77 84.00
2581 65.3146 1.428681 7231.00 7445.15 85.00
2582 65.3351 1.428283 7268.00 7492.02 85.00
2583 65.3555 1.427886 7114.00 7549.35 84.00
2584 65.3759 1.427490 7256.00 7623.66 85.00
2585 65.3964 1.427092 7451.00 7714.84 86.00
2586 65.4168 1.426697 7623.00 7828.25 87.00
2587 65.4372 1.426301 7585.00 7964.88 87.00
2588 65.4576 1.425906 7756.00 8122.67 88.00
2589 65.4781 1.425509 7790.00 8307.42 88.00
2590 65.4985 1.425115 8084.00 8510.22 90.00
2591 65.5189 1.424721 8376.00 8730.85 92.00
2592 65.5394 1.424325 8417.00 8947.01 92.00
2593 65.5598 1.423931 8585.00 9148.77 93.00
2594 65.5802 1.423537 8748.00 9333.34 94.00
2595 65.6006 1.423144 8716.00 9491.06 93.00
2596 65.6211 1.422749 8910.00 9616.16 94.00
2597 65.6415 1.422356 8834.00 9698.97 94.00
2598 65.6619 1.421964 8878.00 9740.16 94.00
2599 65.6823 1.421572 8992.00 9742.45 95.00
2600 65.7028 1.421178 8756.00 9711.41 94.00
2601 65.7232 1.420786 8742.00 9662.92 93.00
2602 65.7436 1.420395 8804.00 9601.11 94.00
2603 65.7641 1.420002 8630.00 9531.85 93.00
2604 65.7845 1.419611 8463.00 9450.54 92.00
2605 65.8049 1.419220 8467.00 9349.54 92.00
2606 65.8253 1.418830 8485.00 9223.20 92.00
2607 65.8458 1.418437 8274.00 9069.42 91.00
2608 65.8662 1.418048 8329.00 8895.37 91.00
2609 65.8866 1.417658 8138.00 8711.59 90.00
2610 65.9071 1.417267 8011.00 8532.30 90.00
2611 65.9275 1.416878 7840.00 8363.22 89.00
2612 65.9479 1.416489 7682.00 8210.17 88.00
2613 65.9683 1.416100 7532.00 8077.15 87.00
2614 65.9888 1.415710 7511.00 7951.71 87.00
2615 66.0092 1.415322 7476.00 7837.22 86.00
2616 66.0296 1.414934 7322.00 7731.61 86.00
2617 66.0501 1.414545 7351.00 7634.86 86.00
2618 66.0705 1.414158 7334.00 7549.18 86.00
2619 66.0909 1.413771 7202.00 7475.17 85.00
2620 66.1113 1.413384 7078.00 7416.18 84.00
2621 66.1318 1.412996 7111.00 7366.28 84.00
2622 66.1522 1.412609 7059.00 7328.28 84.00
2623 66.1726 1.412223 7227.00 7300.34 85.00
2624 66.1931 1.411836 7054.00 7283.88 84.00
2625 66.2135 1.411450 7037.00 7277.74 84.00
2626 66.2339 1.411065 7009.00 7281.72 84.00
2627 66.2543 1.410680 6922.00 7296.04 83.00
2628 66.2748 1.410293 7112.00 7325.61 84.00
2629 66.2952 1.409909 7038.00 7364.65 84.00
2630 66.3156 1.409525 7248.00 7414.27 85.00
2631 66.3361 1.409139 7055.00 7473.94 84.00
2632 66.3565 1.408755 7238.00 7552.86 85.00
2633 66.3769 1.408372 7208.00 7648.27 85.00
2634 66.3973 1.407989 7393.00 7761.07 86.00
2635 66.4178 1.407604 7494.00 7892.51 87.00
2636 66.4382 1.407221 7713.00 8041.21 88.00
2637 66.4586 1.406839 7950.00 8210.76 89.00
2638 66.4791 1.406455 8087.00 8394.73 90.00
2639 66.4995 1.406073 8240.00 8587.62 91.00
2640 66.5199 1.405691 8440.00 8780.29 92.00
2641 66.5403 1.405310 8706.00 8966.33 93.00
2642 66.5608 1.404927 8699.00 9125.73 93.00
2643 66.5812 1.404546 9029.00 9243.60 95.00
2644 66.6016 1.404165 8843.00 9307.84 94.00
2645 66.6221 1.403783 8674.00 9318.02 93.00
2646 66.6425 1.403402 8801.00 9286.13 94.00
2647 66.6629 1.403023 8793.00 9231.27 94.00
2648 66.6833 1.402643 8619.00 9171.03 93.00
2649 66.7038 1.402262 8790.00 9114.81 94.00
2650 66.7242 1.401883 8633.00 9065.09 93.00
2651 66.7446 1.401504 8688.00 9015.42 93.00
2652 66.7651 1.401123 8562.00 8954.58 93.00
2653 66.7855 1.400745 8608.00 8875.49 93.00
2654 66.8059 1.400367 8444.00 8767.95 92.00
2655 66.8263 1.399989 8380.00 8640.23 92.00
2656 66.8468 1.399609 8138.00 8501.03 90.00
2657 66.8672 1.399232 8351.00 8360.00 91.00
2658 66.8876 1.398854 8126.00 8226.32 90.00
2659 66.9080 1.398478 7940.00 8103.98 89.00
2660 66.9285 1.398099 7866.00 8001.51 89.00
2661 66.9489 1.397723 7682.00 7917.46 88.00
2662 66.9693 1.397347 7721.00 7850.85 88.00
2663 66.9898 1.396969 7516.00 7795.83 87.00
2664 67.0102 1.396593 7603.00 7760.27 87.00
2665 67.0306 1.396217 7717.00 7737.56 88.00
2666 67.0510 1.395842 7619.00 7729.87 87.00
2667 67.0715 1.395465 7542.00 7736.35 87.00
2668 67.0919 1.395091 7684.00 7756.40 88.00
2669 67.1123 1.394717 7386.00 7786.25 86.00
2670 67.1328 1.394340 7428.00 7823.55 86.00
2671 67.1532 1.393967 7309.00 7858.73 85.00
2672 67.1736 1.393593 7330.00 7881.87 86.00
2673 67.1940 1.393219 7279.00 7888.93 85.00
2674 67.2145 1.392844 7285.00 7877.15 85.00
2675 67.2349 1.392471 7293.00 7853.85 85.00
2676 67.2553 1.392099 7271.00 7821.86 85.00
2677 67.2758 1.391724 7254.00 7791.73 85.00
2678 67.2962 1.391352 7166.00 7769.32 85.00
2679 67.3166 1.390980 7304.00 7756.41 85.00
2680 67.3370 1.390608 7260.00 7751.73 85.00
2681 67.3575 1.390235 7115.00 7752.05 84.00
2682 67.3779 1.389863 7348.00 7754.06 86.00
2683 67.3983 1.389492 7506.00 7756.45 87.00
2684 67.4188 1.389120 7378.00 7760.48 86.00
2685 67.4392 1.388749 7234.00 7772.84 85.00
2686 67.4596 1.388379 7446.00 7794.63 86.00
2687 67.4800 1.388009 7662.00 7832.36 88.00
2688 67.5005 1.387637 7650.00 7890.18 87.00
2689 67.5209 1.387268 7583.00 7970.20 87.00
2690 67.5413 1.386898 7909.00 8073.90 89.00
2691 67.5618 1.386528 8182.00 8201.16 90.00
2692 67.5822 1.386159 8290.00 8347.08 91.00
2693 67.6026 1.385790 8465.00 8504.64 92.00
2694 67.6230 1.385422 8441.00 8662.29 92.00
2695 67.6435 1.385052 8553.00 8807.28 92.00
2696 67.6639 1.384684 8526.00 8927.56 92.00
2697 67.6843 1.384316 8527.00 9021.18 92.00
2698 67.7048 1.383947 8627.00 9095.02 93.00
2699 67.7252 1.383580 8842.00 9160.60 94.00
2700 67.7456 1.383213 8794.00 9229.17 94.00
2701 67.7660 1.382846 8995.00 9304.52 95.00
2702 67.7865 1.382478 9056.00 9381.43 95.00
2703 67.8069 1.382111 9114.00 9444.92 95.00
2704 67.8273 1.381746 9163.00 9483.24 96.00
2705 67.8478 1.381378 9456.00 9484.18 97.00
2706 67.8682 1.381012 9585.00 9454.63 98.00
2707 67.8886 1.380647 9388.00 9405.26 97.00
2708 67.9090 1.380282 9454.00 9354.10 97.00
2709 67.9295 1.379916 9450.00 9312.10 97.00
2710 67.9499 1.379551 9498.00 9301.16 97.00
2711 67.9703 1.379187 9412.00 9318.18 97.00
2712 67.9908 1.378821 9333.00 9359.06 97.00
2713 68.0112 1.378457 9426.00 9413.69 97.00
2714 68.0316 1.378093 9245.00 9471.56 96.00
2715 68.0520 1.377730 9517.00 9524.57 98.00
2716 68.0725 1.377365 9318.00 9563.46 97.00
2717 68.0929 1.377002 9551.00 9582.30 98.00
2718 68.1133 1.376639 9425.00 9573.52 97.00
2719 68.1338 1.376275 9281.00 9538.75 96.00
2720 68.1542 1.375913 9331.00 9481.39 97.00
2721 68.1746 1.375551 9064.00 9410.24 95.00
2722 68.1950 1.375189 9090.00 9338.16 95.00
2723 68.2155 1.374826 9101.00 9276.28 95.00
2724 68.2359 1.374465 8980.00 9231.96 95.00
2725 68.2563 1.374104 9047.00 9209.43 95.00
2726 68.2767 1.373743 9081.00 9199.52 95.00
2727 68.2972 1.373380 8995.00 9202.89 95.00
2728 68.3176 1.373020 9040.00 9215.54 95.00
2729 68.3380 1.372660 9045.00 9235.45 95.00
2730 68.3585 1.372298 8869.00 9262.53 94.00
2731 68.3789 1.371939 9037.00 9296.93 95.00
2732 68.3993 1.371579 8869.00 9332.42 94.00
2733 68.4197 1.371220 8855.00 9361.32 94.00
2734 68.4402 1.370859 8839.00 9372.63 94.00
2735 68.4606 1.370501 8850.00 9358.44 94.00
2736 68.4810 1.370142 8970.00 9319.62 95.00
2737 68.5015 1.369782 8958.00 9260.93 95.00
2738 68.5219 1.369424 8747.00 9202.44 94.00
2739 68.5423 1.369066 8744.00 9156.75 94.00
2740 68.5627 1.368709 8899.00 9130.09 94.00
2741 68.5832 1.368350 8572.00 9119.71 93.00
2742 68.6036 1.367993 8573.00 9114.38 93.00
2743 68.6240 1.367636 8634.00 9097.07 93.00
2744 68.6445 1.367277 8569.00 9051.09 93.00
2745 68.6649 1.366921 8560.00 8967.72 93.00
2746 68.6853 1.366565 8591.00 8849.01 93.00
2747 68.7057 1.366209 8567.00 8707.04 93.00
2748 68.7262 1.365851 8371.00 8557.26 91.00
2749 68.7466 1.365496 8200.00 8414.91 91.00
2750 68.7670 1.365141 7945.00 8288.98 89.00
2751 68.7875 1.364784 8081.00 8181.42 90.00
2752 68.8079 1.364429 7805.00 8091.15 88.00
2753 68.8283 1.364074 7730.00 8011.36 88.00
2754 68.8487 1.363720 7725.00 7939.17 88.00
2755 68.8692 1.363364 7647.00 7870.07 87.00
2756 68.8896 1.363010 7679.00 7801.36 88.00
2757 68.9100 1.362657 7508.00 7727.32 87.00
2758 68.9305 1.362302 7607.00 7659.55 87.00
2759 68.9509 1.361948 7598.00 7592.29 87.00
2760 68.9713 1.361595 7610.00 7524.36 87.00
2761 68.9917 1.361243 7408.00 7456.21 86.00
2762 69.0122 1.360888 7238.00 7389.37 85.00
2763 69.0326 1.360536 7244.00 7326.39 85.00
2764 69.0530 1.360184 7080.00 7269.91 84.00
2765 69.0735 1.359830 7183.00 7219.91 85.00
2766 69.0939 1.359479 7121.00 7172.38 84.00
2767 69.1143 1.359127 6987.00 7130.67 84.00
2768 69.1347 1.358776 7105.00 7088.12 84.00
2769 69.1552 1.358423 7072.00 7044.85 84.00
2770 69.1756 1.358073 6808.00 7000.16 83.00
2771 69.1960 1.357722 6924.00 6954.42 83.00
2772 69.2165 1.357370 6722.00 6909.58 82.00
2773 69.2369 1.357020 6836.00 6868.10 83.00
2774 69.2573 1.356670 6818.00 6830.85 83.00
2775 69.2777 1.356321 6848.00 6799.16 83.00
2776 69.2982 1.355970 6751.00 6772.61 82.00
2777 69.3186 1.355620 6688.00 6751.37 82.00
2778 69.3390 1.355271 6975.00 6734.88 84.00
2779 69.3595 1.354921 6920.00 6724.73 83.00
2780 69.3799 1.354572 6754.00 6721.12 82.00
2781 69.4003 1.354224 6899.00 6725.35 83.00
2782 69.4207 1.353876 6776.00 6737.99 82.00
2783 69.4412 1.353527 6670.00 6760.38 82.00
2784 69.4616 1.353179 6586.00 6793.19 81.00
2785 69.4820 1.352831 6917.00 6837.19 83.00
2786 69.5024 1.352484 6849.00 6892.68 83.00
2787 69.5229 1.352136 6953.00 6956.77 83.00
2788 69.5433 1.351789 6981.00 7032.12 84.00
2789 69.5637 1.351443 7204.00 7111.98 85.00
2790 69.5842 1.351095 7268.00 7189.50 85.00
2791 69.6046 1.350748 7350.00 7254.70 86.00
2792 69.6250 1.350403 7133.00 7297.43 84.00
2793 69.6454 1.350057 7358.00 7311.44 86.00
2794 69.6659 1.349710 7276.00 7296.29 85.00
2795 69.6863 1.349365 7383.00 7258.38 86.00
2796 69.7067 1.349020 7278.00 7206.20 85.00
2797 69.7272 1.348673 7114.00 7151.81 84.00
2798 69.7476 1.348329 7275.00 7100.90 85.00
2799 69.7680 1.347984 7068.00 7055.58 84.00
2800 69.7884 1.347640 7018.00 7014.18 84.00
2801 69.8089 1.347295 6927.00 6973.98 83.00
2802 69.8293 1.346951 6859.00 6927.27 83.00
2803 69.8497 1.346608 6907.00 6872.05 83.00
2804 69.8702 1.346263 6916.00 6807.75 83.00
2805 69.8906 1.345920 6847.00 6737.77 83.00
2806 69.9110 1.345577 6681.00 6665.89 82.00
2807 69.9314 1.345235 6587.00 6596.12 81.00
2808 69.9519 1.344890 6676.00 6530.99 82.00
2809 69.9723 1.344548 6452.00 6472.65 80.00
2810 69.9927 1.344206 6319.00 6423.56 79.00
2811 70.0132 1.343863 6427.00 6375.01 80.00
2812 70.0336 1.343522 6330.00 6336.97 80.00
2813 70.0540 1.343180 6388.00 6304.82 80.00
2814 70.0744 1.342839 6429.00 6277.77 80.00
2815 70.0949 1.342497 6301.00 6256.69 79.00
2816 70.1153 1.342156 6187.00 6238.61 79.00
2817 70.1357 1.341816 6240.00 6224.45 79.00
2818 70.1562 1.341474 6264.00 6213.93 79.00
2819 70.1766 1.341134 6211.00 6203.08 79.00
2820 70.1970 1.340794 6382.00 6197.56 80.00
2821 70.2174 1.340455 6317.00 6199.90 79.00
2822 70.2379 1.340114 6427.00 6204.26 80.00
2823 70.2583 1.339774 6283.00 6212.78 79.00
2824 70.2787 1.339436 6326.00 6225.88 80.00
2825 70.2992 1.339095 6273.00 6244.19 79.00
2826 70.3196 1.338757 6327.00 6268.12 80.00
2827 70.3400 1.338419 6495.00 6298.35 81.00
2828 70.3604 1.338081 6364.00 6336.03 80.00
2829 70.3809 1.337741 6343.00 6378.54 80.00
2830 70.4013 1.337404 6436.00 6429.83 80.00
2831 70.4217 1.337066 6442.00 6486.33 80.00
2832 70.4422 1.336727 6586.00 6548.06 81.00
2833 70.4626 1.336390 6704.00 6609.00 82.00
2834 70.4830 1.336053 6694.00 6669.63 82.00
2835 70.5034 1.335717 6759.00 6722.60 82.00
2836 70.5239 1.335379 6879.00 6772.69 83.00
2837 70.5443 1.335043 6959.00 6815.59 83.00
2838 70.5647 1.334707 6878.00 6850.33 83.00
2839 70.5852 1.334370 6766.00 6874.42 82.00
2840 70.6056 1.334034 7028.00 6883.47 84.00
2841 70.6260 1.333699 6945.00 6876.71 83.00
2842 70.6464 1.333364 6758.00 6853.43 82.00
2843 70.6669 1.333027 6834.00 6815.57 83.00
2844 70.6873 1.332693 6688.00 6768.16 82.00
2845 70.7077 1.332358 6792.00 6717.73 82.00
2846 70.7282 1.332022 6814.00 6666.00 83.00
2847 70.7486 1.331688 6593.00 6616.97 81.00
2848 70.7690 1.331355 6789.00 6567.87 82.00
2849 70.7894 1.331021 6726.00 6518.92 82.00
2850 70.8099 1.330686 6546.00 6465.33 81.00
2851 70.8303 1.330353 6498.00 6408.72 81.00
2852 70.8507 1.330020 6317.00 6351.78 79.00
2853 70.8711 1.329687 6331.00 6293.42 80.00
2854 70.8916 1.329353 6336.00 6235.77 80.00
2855 70.9120 1.329021 6363.00 6184.06 80.00
2856 70.9324 1.328688 6253.00 6134.92 79.00
2857 70.9529 1.328355 6387.00 6091.26 80.00
2858 70.9733 1.328023 6208.00 6053.66 79.00
2859 70.9937 1.327692 6171.00 6021.63 79.00
2860 71.0141 1.327360 6174.00 5992.59 79.00
2861 71.0346 1.327028 6253.00 5966.42 79.00
2862 71.0550 1.326697 6337.00 5949.10 80.00
2863 71.0754 1.326366 6217.00 5934.79 79.00
2864 71.0959 1.326034 6227.00 5924.10 79.00
2865 71.1163 1.325704 6184.00 5917.17 79.00
2866 71.1367 1.325374 6221.00 5915.58 79.00
2867 71.1571 1.325044 6264.00 5916.28 79.00
2868 71.1776 1.324713 6119.00 5920.83 78.00
2869 71.1980 1.324383 6079.00 5928.89 78.00
2870 71.2184 1.324054 6081.00 5939.43 78.00
2871 71.2389 1.323723 6129.00 5951.67 78.00
2872 71.2593 1.323394 6047.00 5964.35 78.00
2873 71.2797 1.323066 6098.00 5974.67 78.00
2874 71.3001 1.322737 6142.00 5980.10 78.00
2875 71.3206 1.322408 6361.00 5980.17 80.00
2876 71.3410 1.322080 6132.00 5972.98 78.00
2877 71.3614 1.321752 6176.00 5959.47 79.00
2878 71.3819 1.321423 6191.00 5944.22 79.00
2879 71.4023 1.321095 6207.00 5928.61 79.00
2880 71.4227 1.320768 6171.00 5914.38 79.00
2881 71.4431 1.320441 6182.00 5903.88 79.00
2882 71.4636 1.320113 6102.00 5894.91 78.00
2883 71.4840 1.319786 6185.00 5886.56 79.00
2884 71.5044 1.319460 6149.00 5877.91 78.00
2885 71.5249 1.319132 6242.00 5873.56 79.00
2886 71.5453 1.318806 6139.00 5868.25 78.00
2887 71.5657 1.318480 6303.00 5861.38 79.00
2888 71.5861 1.318155 6127.00 5853.94 78.00
2889 71.6066 1.317828 6315.00 5846.11 79.00
2890 71.6270 1.317503 6257.00 5838.17 79.00
2891 71.6474 1.317178 6119.00 5830.83 78.00
2892 71.6679 1.316851 6091.00 5823.67 78.00
2893 71.6883 1.316527 6024.00 5817.76 78.00
2894 71.7087 1.316202 6025.00 5813.48 78.00
2895 71.7291 1.315878 6031.00 5811.79 78.00
2896 71.7496 1.315553 6057.00 5812.77 78.00
2897 71.7700 1.315229 6124.00 5816.39 78.00
2898 71.7904 1.314906 6145.00 5822.27 78.00
2899 71.8109 1.314581 6178.00 5829.83 79.00
2900 71.8313 1.314258 6127.00 5838.21 78.00
2901 71.8517 1.313935 6259.00 5846.95 79.00
2902 71.8721 1.313612 6222.00 5855.27 79.00
2903 71.8926 1.313288 6310.00 5863.59 79.00
2904 71.9130 1.312965 6249.00 5872.56 79.00
2905 71.9334 1.312643 6239.00 5883.27 79.00
2906 71.9539 1.312320 6263.00 5898.66 79.00
2907 71.9743 1.311998 6303.00 5915.87 79.00
2908 71.9947 1.311677 6334.00 5937.30 80.00
2909 72.0151 1.311355 6476.00 5963.14 80.00
2910 72.0356 1.311033 6343.00 5993.50 80.00
2911 72.0560 1.310712 6405.00 6024.35 80.00
2912 72.0764 1.310391 6544.00 6062.76 81.00
2913 72.0968 1.310070 6557.00 6105.45 81.00
2914 72.1173 1.309748 6604.00 6153.58 81.00
2915 72.1377 1.309428 6668.00 6207.78 82.00
2916 72.1581 1.309108 6648.00 6272.59 82.00
2917 72.1786 1.308787 6730.00 6341.70 82.00
2918 72.1990 1.308467 6758.00 6416.34 82.00
2919 72.2194 1.308148 6559.00 6493.40 81.00
2920 72.2398 1.307829 6643.00 6567.53 82.00
2921 72.2603 1.307508 6703.00 6635.58 82.00
2922 72.2807 1.307190 6856.00 6687.94 83.00
2923 72.3011 1.306871 6869.00 6720.07 83.00
2924 72.3216 1.306551 7003.00 6734.86 84.00
2925 72.3420 1.306233 6977.00 6737.63 84.00
2926 72.3624 1.305915 6900.00 6735.39 83.00
2927 72.3828 1.305597 7015.00 6734.97 84.00
2928 72.4033 1.305278 7044.00 6740.36 84.00
2929 72.4237 1.304961 7006.00 6754.43 84.00
2930 72.4441 1.304644 7013.00 6773.22 84.00
2931 72.4646 1.304325 7036.00 6794.28 84.00
2932 72.4850 1.304008 7019.00 6810.87 84.00
2933 72.5054 1.303692 7039.00 6818.38 84.00
2934 72.5258 1.303375 6961.00 6814.00 83.00
2935 72.5463 1.303057 7090.00 6798.09 84.00
2936 72.5667 1.302741 6909.00 6774.17 83.00
2937 72.5871 1.302426 6860.00 6746.67 83.00
2938 72.6076 1.302109 6903.00 6719.07 83.00
2939 72.6280 1.301793 6902.00 6693.08 83.00
2940 72.6484 1.301478 6754.00 6667.81 82.00
2941 72.6688 1.301163 6630.00 6641.33 81.00
2942 72.6893 1.300846 6916.00 6611.69 83.00
2943 72.7097 1.300532 6814.00 6578.60 83.00
2944 72.7301 1.300217 6719.00 6542.78 82.00
2945 72.7506 1.299901 6596.00 6506.04 81.00
2946 72.7710 1.299587 6542.00 6471.28 81.00
2947 72.7914 1.299274 6735.00 6440.59 82.00
2948 72.8118 1.298960 6604.00 6415.32 81.00
2949 72.8323 1.298645 6562.00 6395.48 81.00
2950 72.8527 1.298332 6656.00 6380.00 82.00
2951 72.8731 1.298018 6592.00 6366.71 81.00
2952 72.8936 1.297704 6649.00 6353.33 82.00
2953 72.9140 1.297391 6481.00 6338.51 81.00
2954 72.9344 1.297079 6563.00 6320.61 81.00
2955 72.9548 1.296766 6503.00 6303.21 81.00
2956 72.9753 1.296453 6607.00 6287.12 81.00
2957 72.9957 1.296141 6473.00 6274.51 80.00
2958 73.0161 1.295829 6585.00 6267.62 81.00
2959 73.0366 1.295516 6632.00 6268.03 81.00
2960 73.0570 1.295205 6611.00 6274.27 81.00
2961 73.0774 1.294894 6590.00 6290.96 81.00
2962 73.0978 1.294582 6633.00 6315.34 81.00
2963 73.1183 1.294270 6619.00 6346.62 81.00
2964 73.1387 1.293959 6772.00 6382.42 82.00
2965 73.1591 1.293649 6798.00 6422.28 82.00
2966 73.1796 1.293337 6801.00 6463.41 82.00
2967 73.2000 1.293027 6731.00 6502.97 82.00
2968 73.2204 1.292717 7109.00 6538.74 84.00
2969 73.2408 1.292408 7027.00 6569.74 84.00
2970 73.2613 1.292097 7086.00 6596.59 84.00
2971 73.2817 1.291787 7012.00 6620.05 84.00
2972 73.3021 1.291478 6988.00 6643.45 84.00
2973 73.3226 1.291168 6990.00 6666.85 84.00
2974 73.3430 1.290859 6953.00 6689.17 83.00
2975 73.3634 1.290551 7008.00 6708.72 84.00
2976 73.3838 1.290242 7095.00 6723.89 84.00
2977 73.4043 1.289933 6930.00 6734.21 83.00
2978 73.4247 1.289625 7021.00 6740.49 84.00
2979 73.4451 1.289317 7127.00 6744.64 84.00
2980 73.4655 1.289009 7038.00 6748.67 84.00
2981 73.4860 1.288700 7145.00 6754.07 85.00
2982 73.5064 1.288393 7195.00 6761.06 85.00
2983 73.5268 1.288086 7135.00 6767.83 84.00
2984 73.5473 1.287778 7000.00 6771.56 84.00
2985 73.5677 1.287471 7126.00 6769.17 84.00
2986 73.5881 1.287165 7102.00 6759.25 84.00
2987 73.6085 1.286859 6933.00 6743.03 83.00
2988 73.6290 1.286551 6985.00 6723.98 84.00
2989 73.6494 1.286245 7107.00 6706.90 84.00
2990 73.6698 1.285939 7091.00 6695.52 84.00
2991 73.6903 1.285632 7011.00 6691.80 84.00
2992 73.7107 1.285327 7038.00 6695.32 84.00
2993 73.7311 1.285022 7040.00 6703.12 84.00
2994 73.7515 1.284717 7007.00 6710.67 84.00
2995 73.7720 1.284410 7019.00 6712.55 84.00
2996 73.7924 1.284106 6978.00 6703.84 84.00
2997 73.8128 1.283801 6777.00 6684.83 82.00
2998 73.8333 1.283496 6870.00 6655.85 83.00
2999 73.8537 1.283192 6880.00 6620.68 83.00
3000 73.8741 1.282888 6678.00 6583.17 82.00
3001 73.8945 1.282584 6672.00 6546.51 82.00
3002 73.9150 1.282279 6764.00 6512.28 82.00
3003 73.9354 1.281976 6569.00 6481.26 81.00
3004 73.9558 1.281673 6694.00 6452.80 82.00
3005 73.9763 1.281368 6694.00 6427.05 82.00
3006 73.9967 1.281066 6731.00 6400.71 82.00
3007 74.0171 1.280763 6854.00 6375.25 83.00
3008 74.0375 1.280460 6458.00 6351.30 80.00
3009 74.0580 1.280157 6680.00 6328.09 82.00
3010 74.0784 1.279855 6670.00 6307.83 82.00
3011 74.0988 1.279553 6603.00 6291.39 81.00
3012 74.1193 1.279250 6452.00 6278.99 80.00
3013 74.1397 1.278948 6548.00 6271.19 81.00
3014 74.1601 1.278647 6790.00 6268.26 82.00
3015 74.1805 1.278346 6790.00 6267.72 82.00
3016 74.2010 1.278044 6695.00 6270.35 82.00
3017 74.2214 1.277743 6703.00 6276.42 82.00
3018 74.2418 1.277442 6599.00 6288.08 81.00
3019 74.2623 1.277140 6752.00 6304.58 82.00
3020 74.2827 1.276840 6755.00 6328.72 82.00
3021 74.3031 1.276540 6740.00 6362.33 82.00
3022 74.3235 1.276240 6748.00 6406.87 82.00
3023 74.3440 1.275939 6995.00 6465.79 84.00
3024 74.3644 1.275640 6941.00 6535.94 83.00
3025 74.3848 1.275340 7087.00 6620.85 84.00
3026 74.4053 1.275040 7037.00 6719.72 84.00
3027 74.4257 1.274741 7251.00 6831.90 85.00
3028 74.4461 1.274442 7118.00 6956.73 84.00
3029 74.4665 1.274144 7291.00 7092.17 85.00
3030 74.4870 1.273844 7468.00 7236.07 86.00
3031 74.5074 1.273546 7469.00 7383.37 86.00
3032 74.5278 1.273248 7697.00 7531.41 88.00
3033 74.5483 1.272948 7773.00 7678.51 88.00
3034 74.5687 1.272651 7655.00 7816.76 87.00
3035 74.5891 1.272353 7806.00 7941.71 88.00
3036 74.6095 1.272056 7945.00 8045.27 89.00
3037 74.6300 1.271757 8129.00 8118.38 90.00
3038 74.6504 1.271460 8047.00 8154.01 90.00
3039 74.6708 1.271164 8070.00 8152.12 90.00
3040 74.6912 1.270867 8165.00 8119.01 90.00
3041 74.7117 1.270569 8025.00 8063.22 90.00
3042 74.7321 1.270273 8037.00 7996.51 90.00
3043 74.7525 1.269977 8005.00 7927.00 89.00
3044 74.7730 1.269680 7944.00 7859.57 89.00
3045 74.7934 1.269384 7830.00 7793.03 88.00
3046 74.8138 1.269088 7824.00 7723.68 88.00
3047 74.8342 1.268793 7668.00 7646.06 88.00
3048 74.8547 1.268497 7572.00 7553.21 87.00
3049 74.8751 1.268201 7435.00 7444.11 86.00
3050 74.8955 1.267907 7384.00 7318.23 86.00
3051 74.9160 1.267611 7372.00 7181.18 86.00
3052 74.9364 1.267316 7228.00 7041.67 85.00
3053 74.9568 1.267022 7150.00 6905.86 85.00
3054 74.9772 1.266728 6811.00 6778.41 83.00
3055 74.9977 1.266432 6948.00 6660.53 83.00
3056 75.0181 1.266139 6824.00 6554.93 83.00
3057 75.0385 1.265845 6620.00 6457.35 81.00
3058 75.0590 1.265550 6568.00 6369.71 81.00
3059 75.0794 1.265257 6561.00 6291.16 81.00
3060 75.0998 1.264964 6465.00 6216.96 80.00
3061 75.1202 1.264671 6360.00 6148.49 80.00
3062 75.1407 1.264377 6407.00 6085.59 80.00
3063 75.1611 1.264084 6301.00 6028.93 79.00
3064 75.1815 1.263792 6307.00 5978.14 79.00
3065 75.2020 1.263498 6194.00 5931.61 79.00
3066 75.2224 1.263207 6253.00 5891.79 79.00
3067 75.2428 1.262915 6159.00 5860.39 78.00
3068 75.2632 1.262623 6122.00 5831.31 78.00
3069 75.2837 1.262330 6047.00 5804.45 78.00
3070 75.3041 1.262039 5990.00 5781.16 77.00
3071 75.3245 1.261748 6107.00 5760.92 78.00
3072 75.3450 1.261455 6068.00 5744.35 78.00
3073 75.3654 1.261165 5900.00 5729.94 77.00
3074 75.3858 1.260874 6071.00 5717.21 78.00
3075 75.4062 1.260584 5985.00 5705.96 77.00
3076 75.4267 1.260292 6067.00 5697.36 78.00
3077 75.4471 1.260002 6011.00 5690.46 78.00
3078 75.4675 1.259712 5899.00 5685.16 77.00
3079 75.4880 1.259421 6089.00 5681.40 78.00
3080 75.5084 1.259131 6039.00 5678.90 78.00
3081 75.5288 1.258842 6042.00 5677.31 78.00
3082 75.5492 1.258553 5934.00 5676.21 77.00
3083 75.5697 1.258262 5920.00 5675.14 77.00
3084 75.5901 1.257974 5929.00 5673.74 77.00
3085 75.6105 1.257685 6092.00 5671.76 78.00
3086 75.6310 1.257395 5931.00 5669.47 77.00
3087 75.6514 1.257107 5885.00 5667.18 77.00
3088 75.6718 1.256819 6018.00 5665.05 78.00
3089 75.6922 1.256531 6076.00 5664.80 78.00
3090 75.7127 1.256241 5955.00 5665.19 77.00
3091 75.7331 1.255954 5991.00 5669.52 77.00
3092 75.7535 1.255666 5917.00 5677.82 77.00
3093 75.7740 1.255377 5773.00 5686.17 76.00
3094 75.7944 1.255090 5953.00 5696.76 77.00
3095 75.8148 1.254803 5954.00 5708.02 77.00
3096 75.8352 1.254517 6078.00 5719.32 78.00
3097 75.8557 1.254229 5952.00 5730.21 77.00
3098 75.8761 1.253942 5991.00 5739.90 77.00
3099 75.8965 1.253656 5946.00 5748.03 77.00
3100 75.9170 1.253368 6027.00 5752.87 78.00
3101 75.9374 1.253082 5879.00 5756.70 77.00
3102 75.9578 1.252797 5943.00 5759.04 77.00
3103 75.9782 1.252511 6019.00 5760.69 78.00
3104 75.9987 1.252224 5994.00 5761.87 77.00
3105 76.0191 1.251939 5946.00 5764.57 77.00
3106 76.0395 1.251654 6077.00 5768.74 78.00
3107 76.0599 1.251369 5874.00 5774.42 77.00
3108 76.0804 1.251083 5991.00 5782.07 77.00
3109 76.1008 1.250798 6038.00 5791.65 78.00
3110 76.1212 1.250514 5954.00 5800.27 77.00
3111 76.1417 1.250228 6148.00 5809.36 78.00
3112 76.1621 1.249944 6158.00 5819.80 78.00
3113 76.1825 1.249660 5996.00 5831.28 77.00
3114 76.2029 1.249376 6000.00 5844.30 77.00
3115 76.2234 1.249092 5990.00 5859.54 77.00
3116 76.2438 1.248808 6054.00 5877.44 78.00
3117 76.2642 1.248525 6035.00 5898.62 78.00
3118 76.2847 1.248240 6179.00 5923.57 79.00
3119 76.3051 1.247958 6063.00 5954.00 78.00
3120 76.3255 1.247675 6043.00 5986.78 78.00
3121 76.3459 1.247392 6263.00 6022.08 79.00
3122 76.3664 1.247109 6073.00 6061.48 78.00
3123 76.3868 1.246826 6195.00 6104.92 79.00
3124 76.4072 1.246544 6315.00 6149.10 79.00
3125 76.4277 1.246261 6151.00 6193.27 78.00
3126 76.4481 1.245979 6221.00 6235.55 79.00
3127 76.4685 1.245698 6337.00 6274.70 80.00
3128 76.4889 1.245416 6267.00 6310.43 79.00
3129 76.5094 1.245134 6394.00 6344.39 80.00
3130 76.5298 1.244853 6470.00 6377.94 80.00
3131 76.5502 1.244572 6491.00 6412.69 81.00
3132 76.5707 1.244290 6510.00 6450.94 81.00
3133 76.5911 1.244009 6516.00 6492.07 81.00
3134 76.6115 1.243729 6556.00 6536.95 81.00
3135 76.6319 1.243449 6717.00 6584.00 82.00
3136 76.6524 1.243167 6682.00 6631.85 82.00
3137 76.6728 1.242887 6643.00 6678.47 82.00
3138 76.6932 1.242608 6782.00 6721.77 82.00
3139 76.7137 1.242327 6766.00 6761.04 82.00
3140 76.7341 1.242047 6947.00 6795.73 83.00
3141 76.7545 1.241768 6760.00 6825.78 82.00
3142 76.7749 1.241489 6694.00 6850.12 82.00
3143 76.7954 1.241209 6798.00 6870.00 82.00
3144 76.8158 1.240930 6723.00 6880.65 82.00
3145 76.8362 1.240651 6890.00 6883.23 83.00
3146 76.8567 1.240372 6947.00 6878.51 83.00
3147 76.8771 1.240093 6859.00 6870.63 83.00
3148 76.8975 1.239815 6760.00 6858.55 82.00
3149 76.9179 1.239537 6758.00 6847.19 82.00
3150 76.9384 1.239258 6767.00 6839.01 82.00
3151 76.9588 1.238981 6790.00 6835.88 82.00
3152 76.9792 1.238703 6918.00 6838.71 83.00
3153 76.9997 1.238425 6822.00 6847.50 83.00
3154 77.0201 1.238148 6790.00 6864.43 82.00
3155 77.0405 1.237871 6825.00 6883.73 83.00
3156 77.0609 1.237594 6751.00 6906.92 82.00
3157 77.0814 1.237316 6893.00 6933.41 83.00
3158 77.1018 1.237040 6815.00 6963.12 83.00
3159 77.1222 1.236763 6895.00 6993.69 83.00
3160 77.1427 1.236486 6871.00 7025.09 83.00
3161 77.1631 1.236210 6836.00 7055.67 83.00
3162 77.1835 1.235934 6922.00 7084.33 83.00
3163 77.2039 1.235659 6765.00 7109.80 82.00
3164 77.2244 1.235382 7027.00 7128.50 84.00
3165 77.2448 1.235106 7076.00 7139.86 84.00
3166 77.2652 1.234831 7061.00 7149.55 84.00
3167 77.2856 1.234556 7007.00 7149.20 84.00
3168 77.3061 1.234280 7118.00 7145.63 84.00
3169 77.3265 1.234005 6976.00 7137.47 84.00
3170 77.3469 1.233731 7049.00 7129.81 84.00
3171 77.3674 1.233455 6973.00 7125.95 84.00
3172 77.3878 1.233181 7015.00 7127.65 84.00
3173 77.4082 1.232907 7027.00 7137.28 84.00
3174 77.4286 1.232633 6953.00 7154.13 83.00
3175 77.4491 1.232358 6925.00 7174.62 83.00
3176 77.4695 1.232085 7088.00 7200.93 84.00
3177 77.4899 1.231811 7164.00 7232.42 85.00
3178 77.5104 1.231537 7135.00 7267.47 84.00
3179 77.5308 1.231264 7242.00 7304.82 85.00
3180 77.5512 1.230991 7209.00 7340.34 85.00
3181 77.5716 1.230718 7256.00 7380.30 85.00
3182 77.5921 1.230444 7346.00 7427.44 86.00
3183 77.6125 1.230172 7324.00 7481.66 86.00
3184 77.6329 1.229900 7319.00 7543.94 86.00
3185 77.6534 1.229626 7283.00 7612.54 85.00
3186 77.6738 1.229354 7276.00 7681.79 85.00
3187 77.6942 1.229083 7355.00 7746.35 86.00
3188 77.7146 1.228811 7332.00 7798.72 86.00
3189 77.7351 1.228538 7468.00 7834.05 86.00
3190 77.7555 1.228267 7477.00 7848.66 86.00
3191 77.7759 1.227996 7440.00 7844.34 86.00
3192 77.7964 1.227723 7305.00 7824.37 85.00
3193 77.8168 1.227453 7309.00 7793.05 85.00
3194 77.8372 1.227182 7159.00 7753.98 85.00
3195 77.8576 1.226912 7251.00 7709.82 85.00
3196 77.8781 1.226640 7145.00 7662.02 85.00
3197 77.8985 1.226370 7037.00 7611.70 84.00
3198 77.9189 1.226100 7276.00 7558.44 85.00
3199 77.9394 1.225829 7064.00 7501.21 84.00
3200 77.9598 1.225559 7148.00 7440.16 85.00
3201 77.9802 1.225289 7219.00 7374.83 85.00
3202 78.0006 1.225020 6929.00 7306.69 83.00
3203 78.0211 1.224749 6866.00 7237.42 83.00
3204 78.0415 1.224480 6925.00 7169.59 83.00
3205 78.0619 1.224211 6790.00 7104.95 82.00
3206 78.0824 1.223941 6785.00 7042.50 82.00
3207 78.1028 1.223673 6743.00 6983.84 82.00
3208 78.1232 1.223404 6643.00 6928.64 82.00
3209 78.1436 1.223136 6693.00 6876.78 82.00
3210 78.1641 1.222867 6616.00 6827.86 81.00
3211 78.1845 1.222599 6508.00 6782.33 81.00
3212 78.2049 1.222331 6600.00 6740.22 81.00
3213 78.2254 1.222062 6335.00 6701.74 80.00
3214 78.2458 1.221794 6583.00 6668.63 81.00
3215 78.2662 1.221527 6338.00 6641.41 80.00
3216 78.2866 1.221260 6353.00 6620.72 80.00
3217 78.3071 1.220991 6383.00 6609.05 80.00
3218 78.3275 1.220725 6547.00 6603.65 81.00
3219 78.3479 1.220458 6363.00 6602.34 80.00
3220 78.3684 1.220190 6386.00 6605.01 80.00
3221 78.3888 1.219923 6215.00 6610.99 79.00
3222 78.4092 1.219657 6400.00 6619.41 80.00
3223 78.4296 1.219391 6513.00 6630.50 81.00
3224 78.4501 1.219124 6485.00 6643.75 81.00
3225 78.4705 1.218858 6411.00 6660.40 80.00
3226 78.4909 1.218593 6479.00 6681.08 80.00
3227 78.5114 1.218326 6453.00 6705.96 80.00
3228 78.5318 1.218060 6701.00 6733.87 82.00
3229 78.5522 1.217795 6688.00 6762.58 82.00
3230 78.5726 1.217530 6721.00 6790.13 82.00
3231 78.5931 1.217264 6631.00 6813.36 81.00
3232 78.6135 1.216999 6661.00 6829.89 82.00
3233 78.6339 1.216735 6783.00 6839.23 82.00
3234 78.6543 1.216470 6631.00 6844.07 81.00
3235 78.6748 1.216205 6570.00 6844.71 81.00
3236 78.6952 1.215941 6659.00 6845.25 82.00
3237 78.7156 1.215677 6816.00 6848.45 83.00
3238 78.7361 1.215412 6538.00 6856.59 81.00
3239 78.7565 1.215148 6595.00 6869.95 81.00
3240 78.7769 1.214885 6670.00 6887.42 82.00
3241 78.7973 1.214621 6720.00 6906.40 82.00
3242 78.8178 1.214357 6811.00 6924.13 83.00
3243 78.8382 1.214094 6719.00 6936.83 82.00
3244 78.8586 1.213831 6780.00 6941.64 82.00
3245 78.8791 1.213567 6628.00 6936.63 81.00
3246 78.8995 1.213304 6588.00 6921.52 81.00
3247 78.9199 1.213042 6732.00 6897.90 82.00
3248 78.9403 1.212780 6885.00 6868.12 83.00
3249 78.9608 1.212516 6708.00 6835.73 82.00
3250 78.9812 1.212254 6790.00 6804.41 82.00
3251 79.0016 1.211992 6761.00 6777.42 82.00
3252 79.0221 1.211729 6648.00 6754.50 82.00
3253 79.0425 1.211468 6613.00 6737.18 81.00
3254 79.0629 1.211207 6768.00 6724.90 82.00
3255 79.0833 1.210945 6591.00 6716.95 81.00
3256 79.1038 1.210683 6563.00 6712.14 81.00
3257 79.1242 1.210422 6467.00 6709.48 80.00
3258 79.1446 1.210161 6716.00 6707.41 82.00
3259 79.1651 1.209900 6503.00 6707.88 81.00
3260 79.1855 1.209639 6780.00 6711.24 82.00
3261 79.2059 1.209379 6717.00 6718.66 82.00
3262 79.2263 1.209119 6663.00 6729.73 82.00
3263 79.2468 1.208857 6737.00 6747.01 82.00
3264 79.2672 1.208597 6639.00 6770.94 81.00
3265 79.2876 1.208338 6753.00 6802.62 82.00
3266 79.3081 1.208077 6829.00 6842.66 83.00
3267 79.3285 1.207818 6817.00 6888.65 83.00
3268 79.3489 1.207558 6886.00 6940.38 83.00
3269 79.3693 1.207299 6922.00 6994.94 83.00
3270 79.3898 1.207039 7162.00 7053.54 85.00
3271 79.4102 1.206780 7037.00 7112.95 84.00
3272 79.4306 1.206522 7133.00 7172.84 84.00
3273 79.4511 1.206262 7418.00 7233.85 86.00
3274 79.4715 1.206004 7204.00 7295.89 85.00
3275 79.4919 1.205745 7433.00 7362.03 86.00
3276 79.5123 1.205487 7381.00 7430.94 86.00
3277 79.5328 1.205228 7243.00 7505.02 85.00
3278 79.5532 1.204970 7311.00 7581.33 86.00
3279 79.5736 1.204713 7425.00 7656.58 86.00
3280 79.5941 1.204454 7656.00 7729.22 87.00
3281 79.6145 1.204197 7722.00 7797.85 88.00
3282 79.6349 1.203939 7852.00 7862.14 89.00
3283 79.6553 1.203683 7801.00 7923.33 88.00
3284 79.6758 1.203424 8053.00 7984.25 90.00
3285 79.6962 1.203168 7813.00 8047.68 88.00
3286 79.7166 1.202911 7966.00 8116.35 89.00
3287 79.7371 1.202653 8051.00 8192.14 90.00
3288 79.7575 1.202397 8036.00 8271.19 90.00
3289 79.7779 1.202141 8129.00 8349.59 90.00
3290 79.7983 1.201885 8046.00 8419.58 90.00
3291 79.8188 1.201628 8210.00 8472.92 91.00
3292 79.8392 1.201372 8298.00 8503.22 91.00
3293 79.8596 1.201117 8366.00 8506.65 91.00
3294 79.8800 1.200861 8315.00 8485.88 91.00
3295 79.9005 1.200605 8083.00 8443.33 90.00
3296 79.9209 1.200350 8015.00 8385.33 90.00
3297 79.9413 1.200095 8036.00 8318.35 90.00
3298 79.9618 1.199839 7930.00 8245.85 89.00
3299 79.9822 1.199584 7898.00 8176.34 89.00
3300 80.0026 1.199329 7853.00 8109.09 89.00
3301 80.0230 1.199075 7742.00 8043.77 88.00
3302 80.0435 1.198820 7792.00 7978.45 88.00
3303 80.0639 1.198566 7767.00 7911.72 88.00
3304 80.0843 1.198312 7655.00 7840.62 87.00
3305 80.1048 1.198057 7653.00 7764.24 87.00
3306 80.1252 1.197803 7461.00 7681.94 86.00
3307 80.1456 1.197549 7483.00 7593.40 87.00
3308 80.1660 1.197296 7367.00 7499.73 86.00
3309 80.1865 1.197042 7267.00 7402.29 85.00
3310 80.2069 1.196789 7107.00 7303.63 84.00
3311 80.2273 1.196536 7003.00 7207.84 84.00
3312 80.2478 1.196282 6990.00 7115.76 84.00
3313 80.2682 1.196029 7010.00 7029.54 84.00
3314 80.2886 1.195777 6842.00 6951.80 83.00
3315 80.3090 1.195524 6766.00 6882.48 82.00
3316 80.3295 1.195271 6843.00 6821.43 83.00
3317 80.3499 1.195019 6833.00 6768.74 83.00
3318 80.3703 1.194767 6721.00 6723.20 82.00
3319 80.3908 1.194514 6620.00 6683.63 81.00
3320 80.4112 1.194262 6627.00 6649.52 81.00
3321 80.4316 1.194011 6489.00 6618.69 81.00
3322 80.4520 1.193760 6477.00 6591.24 80.00
3323 80.4725 1.193507 6493.00 6570.10 81.00
3324 80.4929 1.193256 6369.00 6552.74 80.00
3325 80.5133 1.193005 6448.00 6538.16 80.00
3326 80.5338 1.192753 6608.00 6526.55 81.00
3327 80.5542 1.192503 6437.00 6516.32 80.00
3328 80.5746 1.192252 6403.00 6507.24 80.00
3329 80.5950 1.192002 6320.00 6501.42 79.00
3330 80.6155 1.191751 6361.00 6499.30 80.00
3331 80.6359 1.191501 6322.00 6501.75 80.00
3332 80.6563 1.191251 6428.00 6510.48 80.00
3333 80.6768 1.191000 6322.00 6527.05 80.00
3334 80.6972 1.190750 6398.00 6549.21 80.00
3335 80.7176 1.190501 6509.00 6580.52 81.00
3336 80.7380 1.190251 6512.00 6619.88 81.00
3337 80.7585 1.190001 6585.00 6667.25 81.00
3338 80.7789 1.189752 6496.00 6721.43 81.00
3339 80.7993 1.189503 6529.00 6780.89 81.00
3340 80.8198 1.189253 6597.00 6847.14 81.00
3341 80.8402 1.189004 6686.00 6911.23 82.00
3342 80.8606 1.188756 6723.00 6972.68 82.00
3343 80.8810 1.188508 6648.00 7024.48 82.00
3344 80.9015 1.188258 6754.00 7062.79 82.00
3345 80.9219 1.188010 6880.00 7083.13 83.00
3346 80.9423 1.187762 6893.00 7085.84 83.00
3347 80.9628 1.187513 6719.00 7072.60 82.00
3348 80.9832 1.187266 6874.00 7047.82 83.00
3349 81.0036 1.187018 6806.00 7018.49 82.00
3350 81.0240 1.186771 6859.00 6988.39 83.00
3351 81.0445 1.186522 6752.00 6962.58 82.00
3352 81.0649 1.186275 6711.00 6945.08 82.00
3353 81.0853 1.186029 6619.00 6933.57 81.00
3354 81.1058 1.185781 6845.00 6928.09 83.00
3355 81.1262 1.185534 6532.00 6926.20 81.00
3356 81.1466 1.185287 6553.00 6924.49 81.00
3357 81.1670 1.185041 6721.00 6920.53 82.00
3358 81.1875 1.184794 6673.00 6917.80 82.00
3359 81.2079 1.184548 6705.00 6904.80 82.00
3360 81.2283 1.184302 6521.00 6885.17 81.00
3361 81.2487 1.184056 6607.00 6859.38 81.00
3362 81.2692 1.183809 6564.00 6827.29 81.00
3363 81.2896 1.183563 6555.00 6789.61 81.00
3364 81.3100 1.183318 6434.00 6747.35 80.00
3365 81.3305 1.183072 6427.00 6701.91 80.00
3366 81.3509 1.182827 6458.00 6657.45 80.00
3367 81.3713 1.182582 6661.00 6614.93 82.00
3368 81.3917 1.182337 6356.00 6577.07 80.00
3369 81.4122 1.182091 6477.00 6545.24 80.00
3370 81.4326 1.181846 6486.00 6519.91 81.00
3371 81.4530 1.181602 6438.00 6500.32 80.00
3372 81.4735 1.181357 6366.00 6484.99 80.00
3373 81.4939 1.181113 6346.00 6472.14 80.00
3374 81.5143 1.180868 6314.00 6459.64 79.00
3375 81.5347 1.180625 6523.00 6445.87 81.00
3376 81.5552 1.180380 6414.00 6430.00 80.00
3377 81.5756 1.180136 6260.00 6413.38 79.00
3378 81.5960 1.179893 6545.00 6395.29 81.00
3379 81.6165 1.179648 6394.00 6379.84 80.00
3380 81.6369 1.179405 6346.00 6366.31 80.00
3381 81.6573 1.179162 6435.00 6356.03 80.00
3382 81.6777 1.178919 6237.00 6352.68 79.00
3383 81.6982 1.178675 6444.00 6356.69 80.00
3384 81.7186 1.178433 6453.00 6365.15 80.00
3385 81.7390 1.178190 6321.00 6379.12 80.00
3386 81.7595 1.177947 6441.00 6396.10 80.00
3387 81.7799 1.177704 6295.00 6414.55 79.00
3388 81.8003 1.177462 6167.00 6432.42 79.00
3389 81.8207 1.177220 6430.00 6448.33 80.00
3390 81.8412 1.176977 6335.00 6460.60 80.00
3391 81.8616 1.176736 6439.00 6467.08 80.00
3392 81.8820 1.176494 6446.00 6468.43 80.00
3393 81.9025 1.176252 6358.00 6464.51 80.00
3394 81.9229 1.176011 6214.00 6455.60 79.00
3395 81.9433 1.175769 6305.00 6441.85 79.00
3396 81.9637 1.175529 6288.00 6423.84 79.00
3397 81.9842 1.175287 6132.00 6402.21 78.00
3398 82.0046 1.175046 6322.00 6378.71 80.00
3399 82.0250 1.174805 6325.00 6354.15 80.00
3400 82.0455 1.174564 6104.00 6329.25 78.00
3401 82.0659 1.174323 6291.00 6304.67 79.00
3402 82.0863 1.174083 6273.00 6280.61 79.00
3403 82.1067 1.173843 6161.00 6257.76 78.00
3404 82.1272 1.173602 6117.00 6233.94 78.00
3405 82.1476 1.173362 6201.00 6210.65 79.00
3406 82.1680 1.173123 6100.00 6187.41 78.00
3407 82.1885 1.172882 6233.00 6164.01 79.00
3408 82.2089 1.172643 6230.00 6139.56 79.00
3409 82.2293 1.172404 6031.00 6116.76 78.00
3410 82.2497 1.172165 6083.00 6095.17 78.00
3411 82.2702 1.171924 6182.00 6075.36 79.00
3412 82.2906 1.171686 5910.00 6058.17 77.00
3413 82.3110 1.171447 6045.00 6043.92 78.00
3414 82.3315 1.171207 6048.00 6034.15 78.00
3415 82.3519 1.170969 5866.00 6025.83 77.00
3416 82.3723 1.170731 5964.00 6019.24 77.00
3417 82.3927 1.170493 6081.00 6014.61 78.00
3418 82.4132 1.170253 6023.00 6008.69 78.00
3419 82.4336 1.170016 6128.00 5999.76 78.00
3420 82.4540 1.169778 6044.00 5989.52 78.00
3421 82.4744 1.169540 5933.00 5977.45 77.00
3422 82.4949 1.169302 5975.00 5963.31 77.00
3423 82.5153 1.169064 5757.00 5948.14 76.00
3424 82.5357 1.168827 5920.00 5932.88 77.00
3425 82.5562 1.168589 5975.00 5918.59 77.00
3426 82.5766 1.168352 5930.00 5905.55 77.00
3427 82.5970 1.168115 5866.00 5893.51 77.00
3428 82.6174 1.167879 5823.00 5880.83 76.00
3429 82.6379 1.167641 5955.00 5872.08 77.00
3430 82.6583 1.167404 5907.00 5863.10 77.00
3431 82.6787 1.167168 5884.00 5854.12 77.00
3432 82.6992 1.166931 5848.00 5843.58 76.00
3433 82.7196 1.166695 5824.00 5834.07 76.00
3434 82.7400 1.166459 5951.00 5823.88 77.00
3435 82.7604 1.166223 5767.00 5813.36 76.00
3436 82.7809 1.165987 5705.00 5802.55 76.00
3437 82.8013 1.165751 5731.00 5792.13 76.00
3438 82.8217 1.165516 5857.00 5783.27 77.00
3439 82.8422 1.165280 5781.00 5775.56 76.00
3440 82.8626 1.165044 5860.00 5767.84 77.00
3441 82.8830 1.164809 5859.00 5762.91 77.00
3442 82.9034 1.164575 5821.00 5759.38 76.00
3443 82.9239 1.164339 5782.00 5756.84 76.00
3444 82.9443 1.164104 5902.00 5755.22 77.00
3445 82.9647 1.163870 5894.00 5755.12 77.00
3446 82.9852 1.163635 5900.00 5757.09 77.00
3447 83.0056 1.163400 5893.00 5760.24 77.00
3448 83.0260 1.163166 5747.00 5764.77 76.00
3449 83.0464 1.162933 5736.00 5770.62 76.00
3450 83.0669 1.162698 5802.00 5778.32 76.00
3451 83.0873 1.162464 5881.00 5787.61 77.00
3452 83.1077 1.162230 5877.00 5798.75 77.00
3453 83.1282 1.161996 5984.00 5811.81 77.00
3454 83.1486 1.161763 5992.00 5826.86 77.00
3455 83.1690 1.161530 5888.00 5844.26 77.00
3456 83.1894 1.161297 5925.00 5864.29 77.00
3457 83.2099 1.161063 5993.00 5887.04 77.00
3458 83.2303 1.160830 6067.00 5913.39 78.00
3459 83.2507 1.160597 6088.00 5943.43 78.00
3460 83.2712 1.160364 6105.00 5978.04 78.00
3461 83.2916 1.160132 6139.00 6017.29 78.00
3462 83.3120 1.159899 6223.00 6061.92 79.00
3463 83.3324 1.159667 6467.00 6112.51 80.00
3464 83.3529 1.159434 6306.00 6169.87 79.00
3465 83.3733 1.159203 6368.00 6233.87 80.00
3466 83.3937 1.158971 6505.00 6304.38 81.00
3467 83.4142 1.158738 6473.00 6382.45 80.00
3468 83.4346 1.158507 6685.00 6465.86 82.00
3469 83.4550 1.158275 6613.00 6553.05 81.00
3470 83.4754 1.158044 6856.00 6641.25 83.00
3471 83.4959 1.157812 6747.00 6727.21 82.00
3472 83.5163 1.157581 6909.00 6806.32 83.00
3473 83.5367 1.157351 6876.00 6875.66 83.00
3474 83.5572 1.157119 6984.00 6933.85 84.00
3475 83.5776 1.156888 6866.00 6980.74 83.00
3476 83.5980 1.156658 6921.00 7021.08 83.00
3477 83.6184 1.156428 7168.00 7056.96 85.00
3478 83.6389 1.156196 6995.00 7092.70 84.00
3479 83.6593 1.155966 7369.00 7132.22 86.00
3480 83.6797 1.155736 7218.00 7178.54 85.00
3481 83.7002 1.155506 7261.00 7232.10 85.00
3482 83.7206 1.155276 7126.00 7292.41 84.00
3483 83.7410 1.155047 7331.00 7357.76 86.00
3484 83.7614 1.154817 7333.00 7424.46 86.00
3485 83.7819 1.154587 7282.00 7494.11 85.00
3486 83.8023 1.154358 7424.00 7559.02 86.00
3487 83.8227 1.154129 7388.00 7617.51 86.00
3488 83.8431 1.153900 7392.00 7667.38 86.00
3489 83.8636 1.153670 7333.00 7703.63 86.00
3490 83.8840 1.153442 7424.00 7723.89 86.00
3491 83.9044 1.153213 7484.00 7726.59 87.00
3492 83.9249 1.152984 7354.00 7712.19 86.00
3493 83.9453 1.152755 7266.00 7682.73 85.00
3494 83.9657 1.152527 7449.00 7643.12 86.00
3495 83.9861 1.152300 7431.00 7598.82 86.00
3496 84.0066 1.152071 7333.00 7553.83 86.00
3497 84.0270 1.151843 7409.00 7512.10 86.00
3498 84.0474 1.151615 7362.00 7475.96 86.00
3499 84.0679 1.151387 7413.00 7445.86 86.00
3500 84.0883 1.151159 7340.00 7420.51 86.00
3501 84.1087 1.150932 7288.00 7398.31 85.00
3502 84.1291 1.150705 7175.00 7377.16 85.00
3503 84.1496 1.150477 7273.00 7355.47 85.00
3504 84.1700 1.150250 7143.00 7334.63 85.00
3505 84.1904 1.150024 7274.00 7313.97 85.00
3506 84.2109 1.149796 7294.00 7294.76 85.00
3507 84.2313 1.149570 7220.00 7278.83 85.00
3508 84.2517 1.149343 7213.00 7267.28 85.00
3509 84.2721 1.149117 7319.00 7260.35 86.00
3510 84.2926 1.148890 7153.00 7257.21 85.00
3511 84.3130 1.148664 7205.00 7256.81 85.00
3512 84.3334 1.148438 7299.00 7257.79 85.00
3513 84.3539 1.148211 7199.00 7255.85 85.00
3514 84.3743 1.147986 7353.00 7251.54 86.00
3515 84.3947 1.147761 7257.00 7244.06 85.00
3516 84.4151 1.147535 7134.00 7232.65 84.00
3517 84.4356 1.147309 7289.00 7218.64 85.00
3518 84.4560 1.147084 7307.00 7201.28 85.00
3519 84.4764 1.146859 7206.00 7180.83 85.00
3520 84.4969 1.146633 7276.00 7157.72 85.00
3521 84.5173 1.146408 7389.00 7135.28 86.00
3522 84.5377 1.146184 7391.00 7108.96 86.00
3523 84.5581 1.145959 7061.00 7081.06 84.00
3524 84.5786 1.145734 7260.00 7052.37 85.00
3525 84.5990 1.145510 7182.00 7020.15 85.00
3526 84.6194 1.145286 7039.00 6985.31 84.00
3527 84.6399 1.145061 7035.00 6947.68 84.00
3528 84.6603 1.144837 7229.00 6908.72 85.00
3529 84.6807 1.144613 6935.00 6866.95 83.00
3530 84.7011 1.144390 7062.00 6824.17 84.00
3531 84.7216 1.144165 6903.00 6779.91 83.00
3532 84.7420 1.143942 6914.00 6737.56 83.00
3533 84.7624 1.143719 7016.00 6698.35 84.00
3534 84.7829 1.143494 7015.00 6660.25 84.00
3535 84.8033 1.143272 6871.00 6625.52 83.00
3536 84.8237 1.143049 6753.00 6593.26 82.00
3537 84.8441 1.142826 6794.00 6565.65 82.00
3538 84.8646 1.142602 6676.00 6541.85 82.00
3539 84.8850 1.142380 6698.00 6522.45 82.00
3540 84.9054 1.142157 6750.00 6508.31 82.00
3541 84.9259 1.141934 6699.00 6500.03 82.00
3542 84.9463 1.141712 6683.00 6498.41 82.00
3543 84.9667 1.141490 6593.00 6503.94 81.00
3544 84.9871 1.141268 6595.00 6516.16 81.00
3545 85.0076 1.141046 6799.00 6534.63 82.00
3546 85.0280 1.140824 6885.00 6557.32 83.00
3547 85.0484 1.140603 6597.00 6581.65 81.00
3548 85.0688 1.140381 6617.00 6604.24 81.00
3549 85.0893 1.140159 6628.00 6621.18 81.00
3550 85.1097 1.139938 6548.00 6630.82 81.00
3551 85.1301 1.139717 6605.00 6629.77 81.00
3552 85.1506 1.139495 6468.00 6618.20 80.00
3553 85.1710 1.139274 6371.00 6597.66 80.00
3554 85.1914 1.139054 6437.00 6570.52 80.00
3555 85.2118 1.138833 6374.00 6539.77 80.00
3556 85.2323 1.138612 6376.00 6508.12 80.00
3557 85.2527 1.138391 6510.00 6477.97 81.00
3558 85.2731 1.138171 6522.00 6450.17 81.00
3559 85.2936 1.137950 6379.00 6424.70 80.00
3560 85.3140 1.137730 6371.00 6400.08 80.00
3561 85.3344 1.137510 6290.00 6374.74 79.00
3562 85.3548 1.137291 6344.00 6346.12 80.00
3563 85.3753 1.137070 6253.00 6314.09 79.00
3564 85.3957 1.136851 6203.00 6277.69 79.00
3565 85.4161 1.136632 6243.00 6236.99 79.00
3566 85.4366 1.136411 6213.00 6192.74 79.00
3567 85.4570 1.136192 6057.00 6146.83 78.00
3568 85.4774 1.135973 6299.00 6100.63 79.00
3569 85.4978 1.135755 5974.00 6055.47 77.00
3570 85.5183 1.135535 6046.00 6012.21 78.00
3571 85.5387 1.135316 5916.00 5971.87 77.00
3572 85.5591 1.135098 6019.00 5934.44 78.00
3573 85.5796 1.134878 5860.00 5899.60 77.00
3574 85.6000 1.134660 5864.00 5867.48 77.00
3575 85.6204 1.134442 5786.00 5837.93 76.00
3576 85.6408 1.134224 5842.00 5810.20 76.00
3577 85.6613 1.134005 5889.00 5784.41 77.00
3578 85.6817 1.133788 5847.00 5760.89 76.00
3579 85.7021 1.133570 5972.00 5740.39 77.00
3580 85.7226 1.133351 5866.00 5721.19 77.00
3581 85.7430 1.133134 5881.00 5704.27 77.00
3582 85.7634 1.132917 5739.00 5689.44 76.00
3583 85.7838 1.132700 5797.00 5677.13 76.00
3584 85.8043 1.132482 5763.00 5666.04 76.00
3585 85.8247 1.132265 5753.00 5656.61 76.00
3586 85.8451 1.132048 5823.00 5648.58 76.00
3587 85.8656 1.131830 5762.00 5641.70 76.00
3588 85.8860 1.131614 5695.00 5635.78 75.00
3589 85.9064 1.131397 5647.00 5630.60 75.00
3590 85.9268 1.131181 5753.00 5625.98 76.00
3591 85.9473 1.130964 5647.00 5621.80 75.00
3592 85.9677 1.130748 5733.00 5618.08 76.00
3593 85.9881 1.130532 5703.00 5616.15 76.00
3594 86.0086 1.130315 5649.00 5615.16 75.00
3595 86.0290 1.130099 5843.00 5613.33 76.00
3596 86.0494 1.129884 5792.00 5612.35 76.00
3597 86.0698 1.129668 5730.00 5612.33 76.00
3598 86.0903 1.129452 5740.00 5613.87 76.00
3599 86.1107 1.129237 5767.00 5617.40 76.00
3600 86.1311 1.129022 5694.00 5620.52 75.00
3601 86.1516 1.128805 5702.00 5625.36 76.00
3602 86.1720 1.128591 5810.00 5630.63 76.00
3603 86.1924 1.128376 5709.00 5637.03 76.00
3604 86.2128 1.128161 5826.00 5645.75 76.00
3605 86.2333 1.127946 5638.00 5654.67 75.00
3606 86.2537 1.127731 5733.00 5665.01 76.00
3607 86.2741 1.127517 5884.00 5677.00 77.00
3608 86.2946 1.127302 5762.00 5690.95 76.00
3609 86.3150 1.127088 5777.00 5706.96 76.00
3610 86.3354 1.126874 5797.00 5725.37 76.00
3611 86.3558 1.126660 5940.00 5746.51 77.00
3612 86.3763 1.126445 5779.00 5770.83 76.00
3613 86.3967 1.126232 5919.00 5798.40 77.00
3614 86.4171 1.126018 5897.00 5829.62 77.00
3615 86.4375 1.125805 5876.00 5864.69 77.00
3616 86.4580 1.125591 6149.00 5903.84 78.00
3617 86.4784 1.125378 6004.00 5947.45 77.00
3618 86.4988 1.125165 6063.00 5991.83 78.00
3619 86.5193 1.124951 6125.00 6038.52 78.00
3620 86.5397 1.124738 6037.00 6087.62 78.00
3621 86.5601 1.124525 6123.00 6136.03 78.00
3622 86.5805 1.124313 6137.00 6181.74 78.00
3623 86.6010 1.124099 6180.00 6222.80 79.00
3624 86.6214 1.123887 6123.00 6258.15 78.00
3625 86.6418 1.123675 6314.00 6284.67 79.00
3626 86.6623 1.123462 6343.00 6302.19 80.00
3627 86.6827 1.123250 6218.00 6310.49 79.00
3628 86.7031 1.123038 6360.00 6311.14 80.00
3629 86.7235 1.122826 6283.00 6306.23 79.00
3630 86.7440 1.122613 6291.00 6297.49 79.00
3631 86.7644 1.122402 6316.00 6287.55 79.00
3632 86.7848 1.122191 6286.00 6277.76 79.00
3633 86.8053 1.121978 6203.00 6270.69 79.00
3634 86.8257 1.121767 6373.00 6263.66 80.00
3635 86.8461 1.121556 6330.00 6257.24 80.00
3636 86.8665 1.121345 6386.00 6249.96 80.00
3637 86.8870 1.121133 6307.00 6240.25 79.00
3638 86.9074 1.120923 6355.00 6231.44 80.00
3639 86.9278 1.120712 6416.00 6221.91 80.00
3640 86.9483 1.120501 6415.00 6211.20 80.00
3641 86.9687 1.120290 6164.00 6200.18 79.00
3642 86.9891 1.120080 6385.00 6189.86 80.00
3643 87.0095 1.119870 6387.00 6181.09 80.00
3644 87.0300 1.119659 6205.00 6175.75 79.00
3645 87.0504 1.119449 6222.00 6174.01 79.00
3646 87.0708 1.119239 6252.00 6177.04 79.00
3647 87.0913 1.119029 6260.00 6184.64 79.00
3648 87.1117 1.118819 6398.00 6196.74 80.00
3649 87.1321 1.118610 6395.00 6212.51 80.00
3650 87.1525 1.118400 6321.00 6231.36 80.00
3651 87.1730 1.118190 6473.00 6257.40 80.00
3652 87.1934 1.117981 6457.00 6285.33 80.00
3653 87.2138 1.117772 6438.00 6319.05 80.00
3654 87.2343 1.117562 6346.00 6356.07 80.00
3655 87.2547 1.117354 6442.00 6397.75 80.00
3656 87.2751 1.117145 6458.00 6443.98 80.00
3657 87.2955 1.116936 6413.00 6493.95 80.00
3658 87.3160 1.116727 6462.00 6545.71 80.00
3659 87.3364 1.116519 6499.00 6595.44 81.00
3660 87.3568 1.116311 6468.00 6642.88 80.00
3661 87.3773 1.116102 6553.00 6684.11 81.00
3662 87.3977 1.115893 6508.00 6716.41 81.00
3663 87.4181 1.115686 6470.00 6738.63 80.00
3664 87.4385 1.115478 6643.00 6749.41 82.00
3665 87.4590 1.115269 6600.00 6752.01 81.00
3666 87.4794 1.115062 6619.00 6746.40 81.00
3667 87.4998 1.114854 6544.00 6736.25 81.00
3668 87.5203 1.114646 6625.00 6723.12 81.00
3669 87.5407 1.114439 6565.00 6708.99 81.00
3670 87.5611 1.114232 6388.00 6695.95 80.00
3671 87.5815 1.114025 6505.00 6682.00 81.00
3672 87.6020 1.113817 6576.00 6668.88 81.00
3673 87.6224 1.113611 6356.00 6655.00 80.00
3674 87.6428 1.113404 6415.00 6640.47 80.00
3675 87.6632 1.113197 6385.00 6623.66 80.00
3676 87.6837 1.112990 6405.00 6605.32 80.00
3677 87.7041 1.112784 6331.00 6585.80 80.00
3678 87.7245 1.112578 6279.00 6563.74 79.00
3679 87.7450 1.112370 6389.00 6540.85 80.00
3680 87.7654 1.112165 6362.00 6518.07 80.00
3681 87.7858 1.111959 6363.00 6495.19 80.00
3682 87.8062 1.111753 6330.00 6470.05 80.00
3683 87.8267 1.111547 6376.00 6443.30 80.00
3684 87.8471 1.111341 6245.00 6413.68 79.00
3685 87.8675 1.111136 6241.00 6381.10 79.00
3686 87.8880 1.110929 6015.00 6346.38 78.00
3687 87.9084 1.110724 6267.00 6310.65 79.00
3688 87.9288 1.110519 6063.00 6274.78 78.00
3689 87.9492 1.110314 6264.00 6241.87 79.00
3690 87.9697 1.110108 6145.00 6210.92 78.00
3691 87.9901 1.109904 6093.00 6184.19 78.00
3692 88.0105 1.109699 6413.00 6162.07 80.00
3693 88.0310 1.109494 6090.00 6144.48 78.00
3694 88.0514 1.109289 6009.00 6131.15 78.00
3695 88.0718 1.109085 6132.00 6121.11 78.00
3696 88.0922 1.108881 6046.00 6113.19 78.00
3697 88.1127 1.108676 6206.00 6106.06 79.00
3698 88.1331 1.108472 6018.00 6097.47 78.00
3699 88.1535 1.108268 6191.00 6087.73 79.00
3700 88.1740 1.108063 6152.00 6076.85 78.00
3701 88.1944 1.107860 6053.00 6063.07 78.00
3702 88.2148 1.107656 6139.00 6048.52 78.00
3703 88.2352 1.107453 6060.00 6033.53 78.00
3704 88.2557 1.107249 6118.00 6018.06 78.00
3705 88.2761 1.107046 5916.00 6003.83 77.00
3706 88.2965 1.106843 6067.00 5991.71 78.00
3707 88.3170 1.106639 6143.00 5982.42 78.00
3708 88.3374 1.106436 5994.00 5976.55 77.00
3709 88.3578 1.106233 6046.00 5974.31 78.00
3710 88.3782 1.106030 6082.00 5975.28 78.00
3711 88.3987 1.105827 6122.00 5980.19 78.00
3712 88.4191 1.105625 6275.00 5987.92 79.00
3713 88.4395 1.105422 6148.00 5998.92 78.00
3714 88.4600 1.105219 6137.00 6012.41 78.00
3715 88.4804 1.105017 6146.00 6027.48 78.00
3716 88.5008 1.104815 6041.00 6044.77 78.00
3717 88.5212 1.104613 6105.00 6063.61 78.00
3718 88.5417 1.104411 6067.00 6083.87 78.00
3719 88.5621 1.104209 6278.00 6104.98 79.00
3720 88.5825 1.104007 6120.00 6126.59 78.00
3721 88.6030 1.103805 6355.00 6148.30 80.00
3722 88.6234 1.103604 6147.00 6169.49 78.00
3723 88.6438 1.103402 6346.00 6190.07 80.00
3724 88.6642 1.103202 6255.00 6209.93 79.00
3725 88.6847 1.103000 6331.00 6231.82 80.00
3726 88.7051 1.102799 6463.00 6252.71 80.00
3727 88.7255 1.102598 6294.00 6275.41 79.00
3728 88.7460 1.102396 6456.00 6301.22 80.00
3729 88.7664 1.102196 6401.00 6330.95 80.00
3730 88.7868 1.101995 6482.00 6365.50 81.00
3731 88.8072 1.101795 6269.00 6405.19 79.00
3732 88.8277 1.101594 6560.00 6450.00 81.00
3733 88.8481 1.101394 6589.00 6498.58 81.00
3734 88.8685 1.101194 6541.00 6549.57 81.00
3735 88.8890 1.100993 6530.00 6601.16 81.00
3736 88.9094 1.100793 6721.00 6650.46 82.00
3737 88.9298 1.100593 6650.00 6695.50 82.00
3738 88.9502 1.100394 6681.00 6735.05 82.00
3739 88.9707 1.100193 6854.00 6767.67 83.00
3740 88.9911 1.099994 6695.00 6790.37 82.00
3741 89.0115 1.099795 6726.00 6804.26 82.00
3742 89.0319 1.099596 6573.00 6809.72 81.00
3743 89.0524 1.099396 6590.00 6807.22 81.00
3744 89.0728 1.099197 6631.00 6797.78 81.00
3745 89.0932 1.098998 6617.00 6782.72 81.00
3746 89.1137 1.098798 6482.00 6763.58 81.00
3747 89.1341 1.098599 6621.00 6742.36 81.00
3748 89.1545 1.098401 6658.00 6720.69 82.00
3749 89.1749 1.098203 6722.00 6699.96 82.00
3750 89.1954 1.098003 6545.00 6681.00 81.00
3751 89.2158 1.097805 6576.00 6664.44 81.00
3752 89.2362 1.097607 6806.00 6650.18 82.00
3753 89.2567 1.097408 6429.00 6638.95 80.00
3754 89.2771 1.097210 6604.00 6627.96 81.00
3755 89.2975 1.097013 6600.00 6617.57 81.00
3756 89.3179 1.096815 6566.00 6606.73 81.00
3757 89.3384 1.096616 6355.00 6594.22 80.00
3758 89.3588 1.096419 6466.00 6579.22 80.00
3759 89.3792 1.096222 6333.00 6560.12 80.00
3760 89.3997 1.096023 6330.00 6536.40 80.00
3761 89.4201 1.095826 6459.00 6508.19 80.00
3762 89.4405 1.095629 6263.00 6476.13 79.00
3763 89.4609 1.095432 6327.00 6441.54 80.00
3764 89.4814 1.095235 6326.00 6406.03 80.00
3765 89.5018 1.095038 6467.00 6371.81 80.00
3766 89.5222 1.094841 6307.00 6340.39 79.00
3767 89.5427 1.094644 6103.00 6312.93 78.00
3768 89.5631 1.094447 6397.00 6290.40 80.00
3769 89.5835 1.094251 6338.00 6272.86 80.00
3770 89.6039 1.094055 6222.00 6259.92 79.00
3771 89.6244 1.093858 6303.00 6250.25 79.00
3772 89.6448 1.093662 6191.00 6242.44 79.00
3773 89.6652 1.093466 6213.00 6235.69 79.00
3774 89.6857 1.093269 6089.00 6229.50 78.00
3775 89.7061 1.093074 6160.00 6222.49 78.00
3776 89.7265 1.092878 6114.00 6214.82 78.00
3777 89.7469 1.092683 6161.00 6206.62 78.00
3778 89.7674 1.092487 6267.00 6196.96 79.00
3779 89.7878 1.092291 6254.00 6190.62 79.00
3780 89.8082 1.092096 6291.00 6187.03 79.00
3781 89.8287 1.091900 6194.00 6187.28 79.00
3782 89.8491 1.091705 6207.00 6192.21 79.00
3783 89.8695 1.091511 6307.00 6202.32 79.00
3784 89.8899 1.091316 6193.00 6218.00 79.00
3785 89.9104 1.091120 6232.00 6240.32 79.00
3786 89.9308 1.090926 6373.00 6266.41 80.00
3787 89.9512 1.090731 6219.00 6297.17 79.00
3788 89.9717 1.090536 6451.00 6331.99 80.00
3789 89.9921 1.090342 6366.00 6369.12 80.00
3790 90.0125 1.090148 6356.00 6407.75 80.00
3791 90.0329 1.089954 6466.00 6446.95 80.00
3792 90.0534 1.089759 6568.00 6484.43 81.00
3793 90.0738 1.089565 6386.00 6521.16 80.00
3794 90.0942 1.089372 6625.00 6555.97 81.00
3795 90.1147 1.089177 6599.00 6588.56 81.00
3796 90.1351 1.088984 6619.00 6618.01 81.00
3797 90.1555 1.088790 6743.00 6643.54 82.00
3798 90.1759 1.088597 6834.00 6664.11 83.00
3799 90.1964 1.088403 6701.00 6678.68 82.00
3800 90.2168 1.088210 6668.00 6686.73 82.00
3801 90.2372 1.088017 6775.00 6687.71 82.00
3802 90.2577 1.087823 6722.00 6682.54 82.00
3803 90.2781 1.087630 6834.00 6672.45 83.00
3804 90.2985 1.087438 6658.00 6658.36 82.00
3805 90.3189 1.087245 6659.00 6642.86 82.00
3806 90.3394 1.087052 6584.00 6626.83 81.00
3807 90.3598 1.086859 6651.00 6611.75 82.00
3808 90.3802 1.086667 6554.00 6598.60 81.00
3809 90.4006 1.086475 6614.00 6588.09 81.00
3810 90.4211 1.086282 6714.00 6580.45 82.00
3811 90.4415 1.086090 6637.00 6575.52 81.00
3812 90.4619 1.085899 6633.00 6572.66 81.00
3813 90.4824 1.085706 6589.00 6573.24 81.00
3814 90.5028 1.085514 6576.00 6570.72 81.00
3815 90.5232 1.085323 6680.00 6569.40 82.00
3816 90.5436 1.085131 6675.00 6567.70 82.00
3817 90.5641 1.084939 6479.00 6565.92 80.00
3818 90.5845 1.084748 6547.00 6564.43 81.00
3819 90.6049 1.084557 6552.00 6565.72 81.00
3820 90.6254 1.084365 6592.00 6567.11 81.00
3821 90.6458 1.084174 6438.00 6567.87 80.00
3822 90.6662 1.083983 6566.00 6568.82 81.00
3823 90.6866 1.083792 6647.00 6570.38 82.00
3824 90.7071 1.083601 6561.00 6571.23 81.00
3825 90.7275 1.083411 6561.00 6570.58 81.00
3826 90.7479 1.083220 6625.00 6567.84 81.00
3827 90.7684 1.083029 6571.00 6562.07 81.00
3828 90.7888 1.082839 6602.00 6553.31 81.00
3829 90.8092 1.082649 6543.00 6542.12 81.00
3830 90.8296 1.082459 6523.00 6527.66 81.00
3831 90.8501 1.082268 6481.00 6509.11 81.00
3832 90.8705 1.082078 6449.00 6488.46 80.00
3833 90.8909 1.081888 6437.00 6465.50 80.00
3834 90.9114 1.081698 6457.00 6445.27 80.00
3835 90.9318 1.081508 6240.00 6420.44 79.00
3836 90.9522 1.081319 6348.00 6395.68 80.00
3837 90.9726 1.081130 6439.00 6372.04 80.00
3838 90.9931 1.080940 6285.00 6349.54 79.00
3839 91.0135 1.080750 6448.00 6327.54 80.00
3840 91.0339 1.080562 6288.00 6308.14 79.00
3841 91.0544 1.080372 6323.00 6289.97 80.00
3842 91.0748 1.080183 6259.00 6273.67 79.00
3843 91.0952 1.079994 6197.00 6258.75 79.00
3844 91.1156 1.079806 6383.00 6244.96 80.00
3845 91.1361 1.079616 6343.00 6231.85 80.00
3846 91.1565 1.079428 6308.00 6219.57 79.00
3847 91.1769 1.079240 6304.00 6207.28 79.00
3848 91.1974 1.079051 6336.00 6194.56 80.00
3849 91.2178 1.078863 6399.00 6180.60 80.00
3850 91.2382 1.078674 6304.00 6163.13 79.00
3851 91.2586 1.078487 6227.00 6143.20 79.00
3852 91.2791 1.078298 6072.00 6120.71 78.00
3853 91.2995 1.078110 6168.00 6095.80 79.00
3854 91.3199 1.077923 6185.00 6070.28 79.00
3855 91.3404 1.077734 6074.00 6044.60 78.00
3856 91.3608 1.077547 6064.00 6019.57 78.00
3857 91.3812 1.077360 6181.00 5997.11 79.00
3858 91.4016 1.077173 5955.00 5977.42 77.00
3859 91.4221 1.076985 5997.00 5960.79 77.00
3860 91.4425 1.076797 6005.00 5947.48 77.00
3861 91.4629 1.076611 6132.00 5937.19 78.00
3862 91.4834 1.076423 6171.00 5929.50 79.00
3863 91.5038 1.076236 6110.00 5924.87 78.00
3864 91.5242 1.076050 5921.00 5920.71 77.00
3865 91.5446 1.075863 6037.00 5917.43 78.00
3866 91.5651 1.075676 5958.00 5914.66 77.00
3867 91.5855 1.075490 6032.00 5912.27 78.00
3868 91.6059 1.075303 5915.00 5910.34 77.00
3869 91.6263 1.075117 5862.00 5909.06 77.00
3870 91.6468 1.074930 5883.00 5910.10 77.00
3871 91.6672 1.074744 5903.00 5912.36 77.00
3872 91.6876 1.074559 5972.00 5914.20 77.00
3873 91.7081 1.074372 5842.00 5917.11 76.00
3874 91.7285 1.074186 5897.00 5921.82 77.00
3875 91.7489 1.074001 5974.00 5927.04 77.00
3876 91.7693 1.073816 5930.00 5933.70 77.00
3877 91.7898 1.073629 5961.00 5942.27 77.00
3878 91.8102 1.073444 6056.00 5953.99 78.00
3879 91.8306 1.073259 5935.00 5967.75 77.00
3880 91.8511 1.073073 6069.00 5984.77 78.00
3881 91.8715 1.072888 6016.00 6004.96 78.00
3882 91.8919 1.072703 6133.00 6027.68 78.00
3883 91.9123 1.072519 6128.00 6053.18 78.00
3884 91.9328 1.072333 6046.00 6080.06 78.00
3885 91.9532 1.072149 6140.00 6108.21 78.00
3886 91.9736 1.071964 6098.00 6132.76 78.00
3887 91.9941 1.071779 6318.00 6153.80 79.00
3888 92.0145 1.071595 6204.00 6169.89 79.00
3889 92.0349 1.071411 6104.00 6180.60 78.00
3890 92.0553 1.071227 6170.00 6186.34 79.00
3891 92.0758 1.071042 6161.00 6189.78 78.00
3892 92.0962 1.070858 6279.00 6189.50 79.00
3893 92.1166 1.070674 6095.00 6189.51 78.00
3894 92.1371 1.070490 6127.00 6192.15 78.00
3895 92.1575 1.070306 6150.00 6196.12 78.00
3896 92.1779 1.070123 6115.00 6204.69 78.00
3897 92.1983 1.069939 6111.00 6217.41 78.00
3898 92.2188 1.069755 6161.00 6233.50 78.00
3899 92.2392 1.069572 6207.00 6251.64 79.00
3900 92.2596 1.069389 6198.00 6269.76 79.00
3901 92.2801 1.069205 6196.00 6285.82 79.00
3902 92.3005 1.069022 6367.00 6297.02 80.00
3903 92.3209 1.068839 6182.00 6302.50 79.00
3904 92.3413 1.068657 6158.00 6300.75 78.00
3905 92.3618 1.068473 6135.00 6292.48 78.00
3906 92.3822 1.068291 6176.00 6276.83 79.00
3907 92.4026 1.068108 6168.00 6257.25 79.00
3908 92.4231 1.067925 6024.00 6232.68 78.00
3909 92.4435 1.067743 6151.00 6206.02 78.00
3910 92.4639 1.067561 6063.00 6179.42 78.00
3911 92.4843 1.067379 5980.00 6153.60 77.00
3912 92.5048 1.067196 6173.00 6129.29 79.00
3913 92.5252 1.067014 6074.00 6108.99 78.00
3914 92.5456 1.066833 6210.00 6089.20 79.00
3915 92.5661 1.066650 6121.00 6071.43 78.00
3916 92.5865 1.066469 6001.00 6055.39 77.00
3917 92.6069 1.066287 6023.00 6040.57 78.00
3918 92.6273 1.066106 6050.00 6026.14 78.00
3919 92.6478 1.065924 5933.00 6011.33 77.00
3920 92.6682 1.065743 6161.00 5998.63 78.00
3921 92.6886 1.065562 6083.00 5985.34 78.00
3922 92.7091 1.065380 6161.00 5974.75 78.00
3923 92.7295 1.065199 6142.00 5963.10 78.00
3924 92.7499 1.065018 6065.00 5952.94 78.00
3925 92.7703 1.064837 5999.00 5944.70 77.00
3926 92.7908 1.064656 6033.00 5938.82 78.00
3927 92.8112 1.064476 6206.00 5937.07 79.00
3928 92.8316 1.064295 6095.00 5938.04 78.00
3929 92.8521 1.064114 6056.00 5941.60 78.00
3930 92.8725 1.063934 6087.00 5948.08 78.00
3931 92.8929 1.063754 6035.00 5958.04 78.00
3932 92.9133 1.063574 6145.00 5970.23 78.00
3933 92.9338 1.063393 6041.00 5984.52 78.00
3934 92.9542 1.063213 6152.00 5998.97 78.00
3935 92.9746 1.063033 6182.00 6014.64 79.00
3936 92.9950 1.062854 6220.00 6029.60 79.00
3937 93.0155 1.062673 6192.00 6043.12 79.00
3938 93.0359 1.062494 5955.00 6054.60 77.00
3939 93.0563 1.062315 6000.00 6063.99 77.00
3940 93.0768 1.062135 6115.00 6071.73 78.00
3941 93.0972 1.061955 5923.00 6077.73 77.00
3942 93.1176 1.061776 6104.00 6083.00 78.00
3943 93.1380 1.061597 6238.00 6087.45 79.00
3944 93.1585 1.061418 6124.00 6091.81 78.00
3945 93.1789 1.061239 6067.00 6096.49 78.00
3946 93.1993 1.061060 6206.00 6101.93 79.00
3947 93.2198 1.060881 6167.00 6108.62 79.00
3948 93.2402 1.060702 6223.00 6116.86 79.00
3949 93.2606 1.060524 6183.00 6126.98 79.00
3950 93.2810 1.060346 6164.00 6138.97 79.00
3951 93.3015 1.060166 6257.00 6154.24 79.00
3952 93.3219 1.059988 6184.00 6169.30 79.00
3953 93.3423 1.059810 6214.00 6187.58 79.00
3954 93.3628 1.059631 6335.00 6208.40 80.00
3955 93.3832 1.059454 6407.00 6232.95 80.00
3956 93.4036 1.059276 6247.00 6260.28 79.00
3957 93.4240 1.059098 6257.00 6291.72 79.00
3958 93.4445 1.058920 6313.00 6328.20 79.00
3959 93.4649 1.058742 6431.00 6369.95 80.00
3960 93.4853 1.058565 6449.00 6417.29 80.00
3961 93.5058 1.058387 6433.00 6474.45 80.00
3962 93.5262 1.058210 6526.00 6535.67 81.00
3963 93.5466 1.058033 6681.00 6603.87 82.00
3964 93.5670 1.057856 6645.00 6678.18 82.00
3965 93.5875 1.057678 6798.00 6759.29 82.00
3966 93.6079 1.057501 6764.00 6844.35 82.00
3967 93.6283 1.057324 6739.00 6931.30 82.00
3968 93.6488 1.057147 6908.00 7018.75 83.00
3969 93.6692 1.056970 6752.00 7103.32 82.00
3970 93.6896 1.056794 7111.00 7179.51 84.00
3971 93.7100 1.056617 7339.00 7245.19 86.00
3972 93.7305 1.056440 7135.00 7298.09 84.00
3973 93.7509 1.056264 7144.00 7336.29 85.00
3974 93.7713 1.056088 7126.00 7359.35 84.00
3975 93.7918 1.055911 7033.00 7371.11 84.00
3976 93.8122 1.055735 6977.00 7373.40 84.00
3977 93.8326 1.055560 7078.00 7370.37 84.00
3978 93.8530 1.055384 7239.00 7366.57 85.00
3979 93.8735 1.055207 7253.00 7364.71 85.00
3980 93.8939 1.055032 7070.00 7368.46 84.00
3981 93.9143 1.054857 7023.00 7379.03 84.00
3982 93.9348 1.054680 7190.00 7396.68 85.00
3983 93.9552 1.054505 7121.00 7420.86 84.00
3984 93.9756 1.054330 7055.00 7447.48 84.00
3985 93.9960 1.054155 7163.00 7473.98 85.00
3986 94.0165 1.053979 7336.00 7495.47 86.00
3987 94.0369 1.053804 7090.00 7510.16 84.00
3988 94.0573 1.053629 7267.00 7514.10 85.00
3989 94.0778 1.053454 7049.00 7505.67 84.00
3990 94.0982 1.053279 7160.00 7484.98 85.00
3991 94.1186 1.053105 7150.00 7454.70 85.00
3992 94.1390 1.052930 7286.00 7417.94 85.00
3993 94.1595 1.052755 7242.00 7377.42 85.00
3994 94.1799 1.052581 7261.00 7339.77 85.00
3995 94.2003 1.052407 7105.00 7306.87 84.00
3996 94.2207 1.052233 7245.00 7280.59 85.00
3997 94.2412 1.052058 7063.00 7261.96 84.00
3998 94.2616 1.051884 7129.00 7251.02 84.00
3999 94.2820 1.051710 7108.00 7244.80 84.00
4000 94.3025 1.051536 7075.00 7241.28 84.00
4001 94.3229 1.051362 7077.00 7236.84 84.00
4002 94.3433 1.051189 7062.00 7229.60 84.00
4003 94.3637 1.051015 7053.00 7217.36 84.00
4004 94.3842 1.050841 7101.00 7197.26 84.00
4005 94.4046 1.050668 7133.00 7170.23 84.00
4006 94.4250 1.050495 7047.00 7139.22 84.00
4007 94.4455 1.050321 7107.00 7103.80 84.00
4008 94.4659 1.050148 6996.00 7068.11 84.00
4009 94.4863 1.049975 7052.00 7035.78 84.00
4010 94.5067 1.049802 7097.00 7008.78 84.00
4011 94.5272 1.049629 6838.00 6989.15 83.00
4012 94.5476 1.049456 6944.00 6977.60 83.00
4013 94.5680 1.049284 7126.00 6973.33 84.00
4014 94.5885 1.049110 6858.00 6975.13 83.00
4015 94.6089 1.048938 6870.00 6983.57 83.00
4016 94.6293 1.048766 7052.00 6995.87 84.00
4017 94.6497 1.048594 6981.00 7010.98 84.00
4018 94.6702 1.048421 6968.00 7025.71 83.00
4019 94.6906 1.048249 7072.00 7039.59 84.00
4020 94.7110 1.048077 6960.00 7052.24 83.00
4021 94.7315 1.047904 7165.00 7063.89 85.00
4022 94.7519 1.047732 7145.00 7075.63 85.00
4023 94.7723 1.047561 7112.00 7086.93 84.00
4024 94.7927 1.047389 7088.00 7098.73 84.00
4025 94.8132 1.047217 7078.00 7111.02 84.00
4026 94.8336 1.047046 7164.00 7123.04 85.00
4027 94.8540 1.046874 7154.00 7133.93 85.00
4028 94.8745 1.046702 7203.00 7143.05 85.00
4029 94.8949 1.046531 7289.00 7148.54 85.00
4030 94.9153 1.046360 7327.00 7151.48 86.00
4031 94.9357 1.046189 7282.00 7151.71 85.00
4032 94.9562 1.046018 7101.00 7150.05 84.00
4033 94.9766 1.045847 7330.00 7147.78 86.00
4034 94.9970 1.045676 7318.00 7146.37 86.00
4035 95.0175 1.045505 7231.00 7147.31 85.00
4036 95.0379 1.045335 7213.00 7151.85 85.00
4037 95.0583 1.045164 7416.00 7160.83 86.00
4038 95.0787 1.044994 7416.00 7174.14 86.00
4039 95.0992 1.044823 7430.00 7192.30 86.00
4040 95.1196 1.044653 7337.00 7213.70 86.00
4041 95.1400 1.044483 7174.00 7236.89 85.00
4042 95.1605 1.044312 7533.00 7260.22 87.00
4043 95.1809 1.044142 7340.00 7282.54 86.00
4044 95.2013 1.043972 7448.00 7301.23 86.00
4045 95.2217 1.043803 7436.00 7316.23 86.00
4046 95.2422 1.043632 7533.00 7327.39 87.00
4047 95.2626 1.043463 7399.00 7334.81 86.00
4048 95.2830 1.043294 7457.00 7339.09 86.00
4049 95.3035 1.043123 7477.00 7341.01 86.00
4050 95.3239 1.042954 7442.00 7341.51 86.00
4051 95.3443 1.042785 7308.00 7343.48 85.00
4052 95.3647 1.042616 7441.00 7344.84 86.00
4053 95.3852 1.042446 7477.00 7345.52 86.00
4054 95.4056 1.042277 7257.00 7349.83 85.00
4055 95.4260 1.042109 7416.00 7356.00 86.00
4056 95.4465 1.041939 7535.00 7363.65 87.00
4057 95.4669 1.041770 7397.00 7372.00 86.00
4058 95.4873 1.041602 7492.00 7380.41 87.00
4059 95.5077 1.041434 7426.00 7388.43 86.00
4060 95.5282 1.041264 7558.00 7395.95 87.00
4061 95.5486 1.041096 7487.00 7402.95 87.00
4062 95.5690 1.040928 7582.00 7410.20 87.00
4063 95.5894 1.040760 7431.00 7416.87 86.00
4064 95.6099 1.040591 7385.00 7423.81 86.00
4065 95.6303 1.040423 7514.00 7431.25 87.00
4066 95.6507 1.040255 7600.00 7439.68 87.00
4067 95.6712 1.040087 7495.00 7449.86 87.00
4068 95.6916 1.039919 7461.00 7461.07 86.00
4069 95.7120 1.039752 7412.00 7473.64 86.00
4070 95.7324 1.039584 7497.00 7489.10 87.00
4071 95.7529 1.039416 7350.00 7506.95 86.00
4072 95.7733 1.039249 7487.00 7523.06 87.00
4073 95.7937 1.039081 7378.00 7537.83 86.00
4074 95.8142 1.038913 7573.00 7550.32 87.00
4075 95.8346 1.038746 7450.00 7560.72 86.00
4076 95.8550 1.038579 7570.00 7568.73 87.00
4077 95.8754 1.038413 7395.00 7572.18 86.00
4078 95.8959 1.038245 7498.00 7574.70 87.00
4079 95.9163 1.038078 7348.00 7574.26 86.00
4080 95.9367 1.037912 7454.00 7572.95 86.00
4081 95.9572 1.037745 7431.00 7571.18 86.00
4082 95.9776 1.037578 7495.00 7569.10 87.00
4083 95.9980 1.037412 7312.00 7566.21 86.00
4084 96.0184 1.037245 7345.00 7560.88 86.00
4085 96.0389 1.037078 7374.00 7553.47 86.00
4086 96.0593 1.036912 7147.00 7540.56 85.00
4087 96.0797 1.036746 7446.00 7521.10 86.00
4088 96.1002 1.036580 7324.00 7494.23 86.00
4089 96.1206 1.036414 7177.00 7459.28 85.00
4090 96.1410 1.036248 7295.00 7417.57 85.00
4091 96.1614 1.036082 7257.00 7369.83 85.00
4092 96.1819 1.035916 7147.00 7318.31 85.00
4093 96.2023 1.035751 7015.00 7265.84 84.00
4094 96.2227 1.035585 7148.00 7214.33 85.00
4095 96.2432 1.035419 7196.00 7165.28 85.00
4096 96.2636 1.035254 6927.00 7120.40 83.00
4097 96.2840 1.035089 7120.00 7079.94 84.00
4098 96.3044 1.034924 7087.00 7043.91 84.00
4099 96.3249 1.034758 6968.00 7011.62 83.00
4100 96.3453 1.034593 6902.00 6982.55 83.00
4101 96.3657 1.034428 6864.00 6955.58 83.00
4102 96.3862 1.034263 6824.00 6929.74 83.00
4103 96.4066 1.034098 6884.00 6904.74 83.00
4104 96.4270 1.033934 6884.00 6880.36 83.00
4105 96.4474 1.033769 6820.00 6856.53 83.00
4106 96.4679 1.033604 6791.00 6836.20 82.00
4107 96.4883 1.033440 6912.00 6818.51 83.00
4108 96.5087 1.033275 6853.00 6802.74 83.00
4109 96.5292 1.033110 6855.00 6790.98 83.00
4110 96.5496 1.032946 6787.00 6783.66 82.00
4111 96.5700 1.032783 6753.00 6781.53 82.00
4112 96.5904 1.032619 6757.00 6782.15 82.00
4113 96.6109 1.032454 6928.00 6786.72 83.00
4114 96.6313 1.032290 6963.00 6793.91 83.00
4115 96.6517 1.032127 6832.00 6802.90 83.00
4116 96.6722 1.031963 6951.00 6812.93 83.00
4117 96.6926 1.031799 6881.00 6823.28 83.00
4118 96.7130 1.031636 6832.00 6833.56 83.00
4119 96.7334 1.031472 6836.00 6843.50 83.00
4120 96.7539 1.031309 6876.00 6852.68 83.00
4121 96.7743 1.031145 6827.00 6861.55 83.00
4122 96.7947 1.030982 7033.00 6869.80 84.00
4123 96.8151 1.030819 6895.00 6877.67 83.00
4124 96.8356 1.030656 6919.00 6885.33 83.00
4125 96.8560 1.030493 6804.00 6892.91 82.00
4126 96.8764 1.030330 6804.00 6902.13 82.00
4127 96.8969 1.030167 6901.00 6909.18 83.00
4128 96.9173 1.030005 6951.00 6915.44 83.00
4129 96.9377 1.029842 6972.00 6919.59 83.00
4130 96.9581 1.029680 6963.00 6920.38 83.00
4131 96.9786 1.029517 7075.00 6916.64 84.00
4132 96.9990 1.029354 6760.00 6907.65 82.00
4133 97.0194 1.029192 6966.00 6893.26 83.00
4134 97.0399 1.029030 6793.00 6873.81 82.00
4135 97.0603 1.028868 6773.00 6850.35 82.00
4136 97.0807 1.028706 6660.00 6823.52 82.00
4137 97.1011 1.028544 6725.00 6795.27 82.00
4138 97.1216 1.028382 6747.00 6766.15 82.00
4139 97.1420 1.028220 6841.00 6737.30 83.00
4140 97.1624 1.028059 6667.00 6709.26 82.00
4141 97.1829 1.027896 6649.00 6679.84 82.00
4142 97.2033 1.027735 6630.00 6655.03 81.00
4143 97.2237 1.027574 6725.00 6630.40 82.00
4144 97.2441 1.027413 6627.00 6604.06 81.00
4145 97.2646 1.027251 6649.00 6579.24 82.00
4146 97.2850 1.027090 6679.00 6553.48 82.00
4147 97.3054 1.026929 6582.00 6526.28 81.00
4148 97.3259 1.026767 6461.00 6497.52 80.00
4149 97.3463 1.026606 6526.00 6468.01 81.00
4150 97.3667 1.026446 6657.00 6438.45 82.00
4151 97.3871 1.026285 6477.00 6409.89 80.00
4152 97.4076 1.026124 6467.00 6382.99 80.00
4153 97.4280 1.025963 6580.00 6359.37 81.00
4154 97.4484 1.025803 6458.00 6339.70 80.00
4155 97.4689 1.025642 6331.00 6323.56 80.00
4156 97.4893 1.025482 6478.00 6310.72 80.00
4157 97.5097 1.025322 6466.00 6302.33 80.00
4158 97.5301 1.025162 6226.00 6298.58 79.00
4159 97.5506 1.025001 6380.00 6293.54 80.00
4160 97.5710 1.024841 6390.00 6294.21 80.00
4161 97.5914 1.024682 6432.00 6296.54 80.00
4162 97.6119 1.024521 6438.00 6300.07 80.00
4163 97.6323 1.024361 6288.00 6304.49 79.00
4164 97.6527 1.024202 6427.00 6309.70 80.00
4165 97.6731 1.024042 6306.00 6315.70 79.00
4166 97.6936 1.023882 6256.00 6323.09 79.00
4167 97.7140 1.023723 6196.00 6330.60 79.00
4168 97.7344 1.023564 6374.00 6338.68 80.00
4169 97.7549 1.023404 6468.00 6347.15 80.00
4170 97.7753 1.023245 6350.00 6355.64 80.00
4171 97.7957 1.023086 6302.00 6363.89 79.00
4172 97.8161 1.022927 6293.00 6370.63 79.00
4173 97.8366 1.022768 6305.00 6377.42 79.00
4174 97.8570 1.022609 6332.00 6382.31 80.00
4175 97.8774 1.022450 6268.00 6384.77 79.00
4176 97.8979 1.022291 6248.00 6386.96 79.00
4177 97.9183 1.022133 6246.00 6388.87 79.00
4178 97.9387 1.021974 6285.00 6387.61 79.00
4179 97.9591 1.021816 6410.00 6384.91 80.00
4180 97.9796 1.021657 6401.00 6381.00 80.00
4181 98.0000 1.021499 6254.00 6376.08 79.00
4182 98.0204 1.021341 6279.00 6371.81 79.00
4183 98.0409 1.021182 6316.00 6364.90 79.00
4184 98.0613 1.021024 6151.00 6356.90 78.00
4185 98.0817 1.020866 6195.00 6347.59 79.00
4186 98.1021 1.020709 6264.00 6337.33 79.00
4187 98.1226 1.020550 6328.00 6325.03 80.00
4188 98.1430 1.020393 6259.00 6311.54 79.00
4189 98.1634 1.020235 6340.00 6296.39 80.00
4190 98.1838 1.020078 6380.00 6279.64 80.00
4191 98.2043 1.019920 6286.00 6260.58 79.00
4192 98.2247 1.019763 6271.00 6242.12 79.00
4193 98.2451 1.019606 6133.00 6223.07 78.00
4194 98.2656 1.019448 6279.00 6203.68 79.00
4195 98.2860 1.019291 6216.00 6184.59 79.00
4196 98.3064 1.019134 6159.00 6167.57 78.00
4197 98.3268 1.018977 6212.00 6150.32 79.00
4198 98.3473 1.018819 6082.00 6134.51 78.00
4199 98.3677 1.018663 6270.00 6120.25 79.00
4200 98.3881 1.018506 6102.00 6107.56 78.00
4201 98.4086 1.018349 6009.00 6098.18 78.00
4202 98.4290 1.018193 6104.00 6091.34 78.00
4203 98.4494 1.018036 6137.00 6087.25 78.00
4204 98.4698 1.017880 6193.00 6085.75 79.00
4205 98.4903 1.017723 6094.00 6087.05 78.00
4206 98.5107 1.017567 6281.00 6091.17 79.00
4207 98.5311 1.017411 6209.00 6097.62 79.00
4208 98.5516 1.017254 6151.00 6107.30 78.00
4209 98.5720 1.017098 6253.00 6119.72 79.00
4210 98.5924 1.016942 6072.00 6134.61 78.00
4211 98.6128 1.016787 6230.00 6152.02 79.00
4212 98.6333 1.016630 6187.00 6170.82 79.00
4213 98.6537 1.016475 6264.00 6190.54 79.00
4214 98.6741 1.016319 6316.00 6211.82 79.00
4215 98.6946 1.016163 6135.00 6230.26 78.00
4216 98.7150 1.016008 6268.00 6244.51 79.00
4217 98.7354 1.015853 6314.00 6257.61 79.00
4218 98.7558 1.015698 6240.00 6267.18 79.00
4219 98.7763 1.015542 6223.00 6272.52 79.00
4220 98.7967 1.015387 6262.00 6275.15 79.00
4221 98.8171 1.015232 6400.00 6275.44 80.00
4222 98.8376 1.015076 6386.00 6274.57 80.00
4223 98.8580 1.014922 6335.00 6272.53 80.00
4224 98.8784 1.014767 6363.00 6273.44 80.00
4225 98.8988 1.014612 6244.00 6277.09 79.00
4226 98.9193 1.014457 6313.00 6284.18 79.00
4227 98.9397 1.014303 6451.00 6295.47 80.00
4228 98.9601 1.014148 6264.00 6311.10 79.00
4229 98.9806 1.013993 6397.00 6331.15 80.00
4230 99.0010 1.013839 6484.00 6355.21 81.00
4231 99.0214 1.013685 6338.00 6381.69 80.00
4232 99.0418 1.013531 6312.00 6412.03 79.00
4233 99.0623 1.013376 6516.00 6445.82 81.00
4234 99.0827 1.013222 6492.00 6481.38 81.00
4235 99.1031 1.013069 6629.00 6518.68 81.00
4236 99.1236 1.012914 6530.00 6557.33 81.00
4237 99.1440 1.012760 6551.00 6597.37 81.00
4238 99.1644 1.012607 6436.00 6636.30 80.00
4239 99.1848 1.012453 6340.00 6675.64 80.00
4240 99.2053 1.012299 6770.00 6713.04 82.00
4241 99.2257 1.012146 6598.00 6747.00 81.00
4242 99.2461 1.011993 6583.00 6776.36 81.00
4243 99.2666 1.011839 6651.00 6800.44 82.00
4244 99.2870 1.011686 6680.00 6818.03 82.00
4245 99.3074 1.011533 6546.00 6829.23 81.00
4246 99.3278 1.011380 6683.00 6832.45 82.00
4247 99.3483 1.011226 6589.00 6830.14 81.00
4248 99.3687 1.011073 6500.00 6823.31 81.00
4249 99.3891 1.010921 6505.00 6813.80 81.00
4250 99.4095 1.010768 6543.00 6801.51 81.00
4251 99.4300 1.010615 6660.00 6786.50 82.00
4252 99.4504 1.010462 6768.00 6774.56 82.00
4253 99.4708 1.010310 6473.00 6761.33 80.00
4254 99.4913 1.010157 6493.00 6748.10 81.00
4255 99.5117 1.010005 6483.00 6735.55 81.00
4256 99.5321 1.009853 6587.00 6723.19 81.00
4257 99.5525 1.009701 6457.00 6709.77 80.00
4258 99.5730 1.009548 6479.00 6698.29 80.00
4259 99.5934 1.009396 6389.00 6684.63 80.00
4260 99.6138 1.009244 6436.00 6670.16 80.00
4261 99.6343 1.009091 6512.00 6654.90 81.00
4262 99.6547 1.008940 6442.00 6639.32 80.00
4263 99.6751 1.008788 6266.00 6621.87 79.00
4264 99.6955 1.008637 6489.00 6606.31 81.00
4265 99.7160 1.008484 6358.00 6593.50 80.00
4266 99.7364 1.008333 6346.00 6583.63 80.00
4267 99.7568 1.008182 6286.00 6575.48 79.00
4268 99.7773 1.008030 6287.00 6571.31 79.00
4269 99.7977 1.007879 6357.00 6570.26 80.00
4270 99.8181 1.007728 6400.00 6571.90 80.00
4271 99.8385 1.007577 6362.00 6575.44 80.00
4272 99.8590 1.007425 6357.00 6579.96 80.00
4273 99.8794 1.007274 6270.00 6583.85 79.00
4274 99.8998 1.007123 6446.00 6586.59 80.00
4275 99.9203 1.006972 6361.00 6586.65 80.00
4276 99.9407 1.006822 6414.00 6583.05 80.00
4277 99.9611 1.006671 6385.00 6574.74 80.00
4278 99.9815 1.006521 6339.00 6562.27 80.00
4279 100.0020 1.006369 6315.00 6544.42 79.00
4280 100.0224 1.006219 6221.00 6523.21 79.00
4281 100.0428 1.006069 6341.00 6498.78 80.00
4282 100.0633 1.005918 6369.00 6472.04 80.00
4283 100.0837 1.005768 6243.00 6444.18 79.00
4284 100.1041 1.005618 6080.00 6416.14 78.00
4285 100.1245 1.005468 6278.00 6388.91 79.00
4286 100.1450 1.005318 6248.00 6363.12 79.00
4287 100.1654 1.005168 6263.00 6339.22 79.00
4288 100.1858 1.005018 6155.00 6317.66 78.00
4289 100.2063 1.004868 6337.00 6297.76 80.00
4290 100.2267 1.004718 6377.00 6279.48 80.00
4291 100.2471 1.004569 6169.00 6263.11 79.00
4292 100.2675 1.004419 6196.00 6245.90 79.00
4293 100.2880 1.004269 6116.00 6227.38 78.00
4294 100.3084 1.004120 6327.00 6209.27 80.00
4295 100.3288 1.003971 6078.00 6190.81 78.00
4296 100.3493 1.003821 6218.00 6171.84 79.00
4297 100.3697 1.003672 6103.00 6152.83 78.00
4298 100.3901 1.003523 6174.00 6134.14 79.00
4299 100.4105 1.003375 6173.00 6116.06 79.00
4300 100.4310 1.003225 6057.00 6098.53 78.00
4301 100.4514 1.003076 6103.00 6084.88 78.00
4302 100.4718 1.002928 6102.00 6073.19 78.00
4303 100.4923 1.002779 6036.00 6064.41 78.00
4304 100.5127 1.002630 6041.00 6059.17 78.00
4305 100.5331 1.002482 6218.00 6057.34 79.00
4306 100.5535 1.002333 6131.00 6058.93 78.00
4307 100.5740 1.002185 6137.00 6063.62 78.00
4308 100.5944 1.002036 6179.00 6070.78 79.00
4309 100.6148 1.001888 6266.00 6077.83 79.00
4310 100.6353 1.001740 6114.00 6088.48 78.00
4311 100.6557 1.001592 6193.00 6097.84 79.00
4312 100.6761 1.001444 6158.00 6106.74 78.00
4313 100.6965 1.001296 6211.00 6112.09 79.00
4314 100.7170 1.001148 6236.00 6114.16 79.00
4315 100.7374 1.001000 6240.00 6112.98 79.00
4316 100.7578 1.000852 6336.00 6107.36 80.00
4317 100.7782 1.000705 6183.00 6099.64 79.00
4318 100.7987 1.000557 6317.00 6090.12 79.00
4319 100.8191 1.000409 6081.00 6080.88 78.00
4320 100.8395 1.000262 6266.00 6071.44 79.00
4321 100.8600 1.000114 6211.00 6063.56 79.00
4322 100.8804 0.999967 6389.00 6058.09 80.00
4323 100.9008 0.999820 6114.00 6055.39 78.00
4324 100.9212 0.999673 6144.00 6054.91 78.00
4325 100.9417 0.999526 6190.00 6057.93 79.00
4326 100.9621 0.999379 6292.00 6062.37 79.00
4327 100.9825 0.999232 6214.00 6069.48 79.00
4328 101.0030 0.999085 6354.00 6077.65 80.00
4329 101.0234 0.998938 6343.00 6086.04 80.00
4330 101.0438 0.998792 6191.00 6094.00 79.00
4331 101.0642 0.998645 6216.00 6101.05 79.00
4332 101.0847 0.998498 6212.00 6106.79 79.00
4333 101.1051 0.998352 6285.00 6111.99 79.00
4334 101.1255 0.998206 6284.00 6115.74 79.00
4335 101.1460 0.998059 6251.00 6118.89 79.00
4336 101.1664 0.997913 6171.00 6121.78 79.00
4337 101.1868 0.997767 6235.00 6124.77 79.00
4338 101.2072 0.997621 6401.00 6128.14 80.00
4339 101.2277 0.997474 6437.00 6132.12 80.00
4340 101.2481 0.997329 6261.00 6136.94 79.00
4341 101.2685 0.997183 6415.00 6142.05 80.00
4342 101.2890 0.997037 6159.00 6149.55 78.00
4343 101.3094 0.996891 6244.00 6158.91 79.00
4344 101.3298 0.996746 6197.00 6170.50 79.00
4345 101.3502 0.996600 6206.00 6184.63 79.00
4346 101.3707 0.996454 6183.00 6201.51 79.00
4347 101.3911 0.996309 6200.00 6221.39 79.00
4348 101.4115 0.996164 6320.00 6243.55 79.00
4349 101.4320 0.996018 6589.00 6267.78 81.00
4350 101.4524 0.995873 6326.00 6294.18 80.00
4351 101.4728 0.995728 6452.00 6321.06 80.00
4352 101.4932 0.995583 6540.00 6348.32 81.00
4353 101.5137 0.995438 6385.00 6375.26 80.00
4354 101.5341 0.995293 6490.00 6400.72 81.00
4355 101.5545 0.995148 6576.00 6423.90 81.00
4356 101.5750 0.995003 6362.00 6443.11 80.00
4357 101.5954 0.994859 6445.00 6459.24 80.00
4358 101.6158 0.994714 6550.00 6471.43 81.00
4359 101.6362 0.994570 6543.00 6479.22 81.00
4360 101.6567 0.994425 6630.00 6483.23 81.00
4361 101.6771 0.994281 6574.00 6484.19 81.00
4362 101.6975 0.994137 6636.00 6483.27 81.00
4363 101.7180 0.993992 6693.00 6482.82 82.00
4364 101.7384 0.993848 6530.00 6481.15 81.00
4365 101.7588 0.993704 6693.00 6480.83 82.00
4366 101.7792 0.993560 6514.00 6482.44 81.00
4367 101.7997 0.993416 6680.00 6486.14 82.00
4368 101.8201 0.993272 6643.00 6492.00 82.00
4369 101.8405 0.993128 6598.00 6501.55 81.00
4370 101.8610 0.992984 6513.00 6511.83 81.00
4371 101.8814 0.992841 6602.00 6523.09 81.00
4372 101.9018 0.992697 6489.00 6534.62 81.00
4373 101.9222 0.992554 6845.00 6545.24 83.00
4374 101.9427 0.992410 6666.00 6555.19 82.00
4375 101.9631 0.992267 6493.00 6563.09 81.00
4376 101.9835 0.992124 6670.00 6569.24 82.00
4377 102.0039 0.991981 6451.00 6573.10 80.00
4378 102.0244 0.991837 6626.00 6574.72 81.00
4379 102.0448 0.991694 6422.00 6574.53 80.00
4380 102.0652 0.991551 6591.00 6572.89 81.00
4381 102.0857 0.991408 6526.00 6569.95 81.00
4382 102.1061 0.991265 6652.00 6566.62 82.00
4383 102.1265 0.991123 6652.00 6563.61 82.00
4384 102.1469 0.990980 6637.00 6560.60 81.00
4385 102.1674 0.990837 6552.00 6557.47 81.00
4386 102.1878 0.990695 6651.00 6554.39 82.00
4387 102.2082 0.990552 6438.00 6550.50 80.00
4388 102.2287 0.990409 6541.00 6545.08 81.00
4389 102.2491 0.990267 6547.00 6537.54 81.00
4390 102.2695 0.990125 6646.00 6527.51 82.00
4391 102.2899 0.989983 6604.00 6514.53 81.00
4392 102.3104 0.989840 6634.00 6498.42 81.00
4393 102.3308 0.989698 6648.00 6480.29 82.00
4394 102.3512 0.989557 6711.00 6460.42 82.00
4395 102.3717 0.989414 6566.00 6439.53 81.00
4396 102.3921 0.989273 6578.00 6418.74 81.00
4397 102.4125 0.989131 6540.00 6400.05 81.00
4398 102.4329 0.988990 6634.00 6382.00 81.00
4399 102.4534 0.988847 6591.00 6366.45 81.00
4400 102.4738 0.988706 6618.00 6353.52 81.00
4401 102.4942 0.988565 6596.00 6344.36 81.00
4402 102.5147 0.988423 6611.00 6339.62 81.00
4403 102.5351 0.988282 6624.00 6338.50 81.00
4404 102.5555 0.988141 6523.00 6341.91 81.00
4405 102.5759 0.988000 6527.00 6348.01 81.00
4406 102.5964 0.987858 6541.00 6357.39 81.00
4407 102.6168 0.987717 6577.00 6369.69 81.00
4408 102.6372 0.987576 6532.00 6384.64 81.00
4409 102.6577 0.987435 6456.00 6401.97 80.00
4410 102.6781 0.987294 6531.00 6421.24 81.00
4411 102.6985 0.987154 6792.00 6442.69 82.00
4412 102.7189 0.987013 6579.00 6464.33 81.00
4413 102.7394 0.986872 6612.00 6486.15 81.00
4414 102.7598 0.986732 6628.00 6506.76 81.00
4415 102.7802 0.986591 6682.00 6525.47 82.00
4416 102.8007 0.986451 6642.00 6541.13 81.00
4417 102.8211 0.986310 6550.00 6552.42 81.00
4418 102.8415 0.986170 6454.00 6559.35 80.00
4419 102.8619 0.986030 6521.00 6563.78 81.00
4420 102.8824 0.985890 6474.00 6562.60 80.00
4421 102.9028 0.985750 6717.00 6558.61 82.00
4422 102.9232 0.985610 6519.00 6552.82 81.00
4423 102.9437 0.985470 6520.00 6546.60 81.00
4424 102.9641 0.985330 6576.00 6540.82 81.00
4425 102.9845 0.985190 6596.00 6537.22 81.00
4426 103.0049 0.985051 6559.00 6535.98 81.00
4427 103.0254 0.984911 6545.00 6537.35 81.00
4428 103.0458 0.984771 6494.00 6540.22 81.00
4429 103.0662 0.984632 6484.00 6545.38 81.00
4430 103.0867 0.984492 6513.00 6552.54 81.00
4431 103.1071 0.984353 6499.00 6559.64 81.00
4432 103.1275 0.984214 6425.00 6566.29 80.00
4433 103.1479 0.984075 6404.00 6570.98 80.00
4434 103.1684 0.983935 6520.00 6572.61 81.00
4435 103.1888 0.983796 6400.00 6570.60 80.00
4436 103.2092 0.983657 6384.00 6563.61 80.00
4437 103.2297 0.983518 6546.00 6551.74 81.00
4438 103.2501 0.983379 6429.00 6535.66 80.00
4439 103.2705 0.983241 6265.00 6515.19 79.00
4440 103.2909 0.983102 6289.00 6491.67 79.00
4441 103.3114 0.982963 6338.00 6465.54 80.00
4442 103.3318 0.982825 6389.00 6438.25 80.00
4443 103.3522 0.982686 6406.00 6410.09 80.00
4444 103.3726 0.982548 6323.00 6381.11 80.00
4445 103.3931 0.982409 6327.00 6351.29 80.00
4446 103.4135 0.982271 6378.00 6321.75 80.00
4447 103.4339 0.982133 6357.00 6292.02 80.00
4448 103.4544 0.981995 6088.00 6261.59 78.00
4449 103.4748 0.981857 6301.00 6230.56 79.00
4450 103.4952 0.981719 6273.00 6200.11 79.00
4451 103.5156 0.981581 6145.00 6169.93 78.00
4452 103.5361 0.981443 6179.00 6140.11 79.00
4453 103.5565 0.981305 6301.00 6111.18 79.00
4454 103.5769 0.981168 6274.00 6083.13 79.00
4455 103.5974 0.981030 6216.00 6055.97 79.00
4456 103.6178 0.980892 6210.00 6029.77 79.00
4457 103.6382 0.980755 6215.00 6005.21 79.00
4458 103.6586 0.980617 6212.00 5982.18 79.00
4459 103.6791 0.980480 6090.00 5960.60 78.00
4460 103.6995 0.980342 6040.00 5940.75 78.00
4461 103.7199 0.980205 6186.00 5923.16 79.00
4462 103.7404 0.980068 6220.00 5906.14 79.00
4463 103.7608 0.979931 6151.00 5890.09 78.00
4464 103.7812 0.979794 6122.00 5876.50 78.00
4465 103.8016 0.979657 6319.00 5864.38 79.00
4466 103.8221 0.979520 6122.00 5854.89 78.00
4467 103.8425 0.979383 6048.00 5846.34 78.00
4468 103.8629 0.979247 6038.00 5838.28 78.00
4469 103.8834 0.979109 6035.00 5833.40 78.00
4470 103.9038 0.978973 6157.00 5830.84 78.00
4471 103.9242 0.978837 6212.00 5832.02 79.00
4472 103.9446 0.978700 6097.00 5834.42 78.00
4473 103.9651 0.978563 5984.00 5839.43 77.00
4474 103.9855 0.978427 5915.00 5846.99 77.00
4475 104.0059 0.978291 6168.00 5857.02 79.00
4476 104.0264 0.978155 6088.00 5869.41 78.00
4477 104.0468 0.978019 6121.00 5884.85 78.00
4478 104.0672 0.977883 6158.00 5900.42 78.00
4479 104.0876 0.977747 6073.00 5918.15 78.00
4480 104.1081 0.977610 6130.00 5936.18 78.00
4481 104.1285 0.977475 6040.00 5954.04 78.00
4482 104.1489 0.977339 6140.00 5972.45 78.00
4483 104.1694 0.977203 6316.00 5990.54 79.00
4484 104.1898 0.977068 6168.00 6008.26 79.00
4485 104.2102 0.976932 6110.00 6025.82 78.00
4486 104.2306 0.976797 6293.00 6042.92 79.00
4487 104.2511 0.976661 6237.00 6062.39 79.00
4488 104.2715 0.976526 6069.00 6082.34 78.00
4489 104.2919 0.976391 6313.00 6101.40 79.00
4490 104.3124 0.976255 6258.00 6121.42 79.00
4491 104.3328 0.976120 6190.00 6140.53 79.00
4492 104.3532 0.975985 6088.00 6158.76 78.00
4493 104.3736 0.975850 6159.00 6175.29 78.00
4494 104.3941 0.975715 6252.00 6189.37 79.00
4495 104.4145 0.975580 6237.00 6200.13 79.00
4496 104.4349 0.975445 6174.00 6207.03 79.00
4497 104.4554 0.975310 6292.00 6210.05 79.00
4498 104.4758 0.975175 6343.00 6209.53 80.00
4499 104.4962 0.975041 6299.00 6204.93 79.00
4500 104.5166 0.974907 6420.00 6197.21 80.00
4501 104.5371 0.974772 6283.00 6187.03 79.00
4502 104.5575 0.974637 6303.00 6175.29 79.00
4503 104.5779 0.974503 6253.00 6161.15 79.00
4504 104.5983 0.974369 6185.00 6148.74 79.00
4505 104.6188 0.974235 6268.00 6137.06 79.00
4506 104.6392 0.974101 6251.00 6126.79 79.00
4507 104.6596 0.973967 6179.00 6118.75 79.00
4508 104.6801 0.973832 6130.00 6111.98 78.00
4509 104.7005 0.973698 6040.00 6106.91 78.00
4510 104.7209 0.973565 6060.00 6103.62 78.00
4511 104.7413 0.973431 6124.00 6101.10 78.00
4512 104.7618 0.973297 6169.00 6098.70 79.00
4513 104.7822 0.973163 6262.00 6096.12 79.00
4514 104.8026 0.973030 6131.00 6092.37 78.00
4515 104.8231 0.972896 6156.00 6086.79 78.00
4516 104.8435 0.972763 6172.00 6079.47 79.00
4517 104.8639 0.972629 6081.00 6070.29 78.00
4518 104.8843 0.972496 6184.00 6059.86 79.00
4519 104.9048 0.972362 6224.00 6048.45 79.00
4520 104.9252 0.972229 6107.00 6036.93 78.00
4521 104.9456 0.972097 6350.00 6024.68 80.00
4522 104.9661 0.971963 6082.00 6014.64 78.00
4523 104.9865 0.971830 6145.00 6006.43 78.00
4524 105.0069 0.971697 6040.00 6000.52 78.00
4525 105.0273 0.971565 6151.00 5997.27 78.00
4526 105.0478 0.971431 5965.00 5996.86 77.00
4527 105.0682 0.971299 6103.00 5999.30 78.00
4528 105.0886 0.971166 5992.00 6005.27 77.00
4529 105.1091 0.971033 6085.00 6012.75 78.00
4530 105.1295 0.970901 6138.00 6021.39 78.00
4531 105.1499 0.970769 6286.00 6032.09 79.00
4532 105.1703 0.970636 6220.00 6043.64 79.00
4533 105.1908 0.970504 6124.00 6055.60 78.00
4534 105.2112 0.970372 6181.00 6067.51 79.00
4535 105.2316 0.970240 6083.00 6079.93 78.00
4536 105.2521 0.970107 6082.00 6091.49 78.00
4537 105.2725 0.969975 6052.00 6102.87 78.00
4538 105.2929 0.969843 6241.00 6114.33 79.00
4539 105.3133 0.969712 6177.00 6125.95 79.00
4540 105.3338 0.969579 6110.00 6137.99 78.00
4541 105.3542 0.969448 6288.00 6150.68 79.00
4542 105.3746 0.969316 6305.00 6164.67 79.00
4543 105.3951 0.969184 6362.00 6179.44 80.00
4544 105.4155 0.969053 6342.00 6193.49 80.00
4545 105.4359 0.968921 6344.00 6207.86 80.00
4546 105.4563 0.968790 6365.00 6222.54 80.00
4547 105.4768 0.968658 6388.00 6237.56 80.00
4548 105.4972 0.968527 6316.00 6251.16 79.00
4549 105.5176 0.968396 6191.00 6266.34 79.00
4550 105.5381 0.968264 6232.00 6281.26 79.00
4551 105.5585 0.968133 6351.00 6295.30 80.00
4552 105.5789 0.968002 6318.00 6308.84 79.00
4553 105.5993 0.967871 6269.00 6318.81 79.00
4554 105.6198 0.967740 6284.00 6326.71 79.00
4555 105.6402 0.967609 6277.00 6331.54 79.00
4556 105.6606 0.967479 6241.00 6333.18 79.00
4557 105.6811 0.967348 6348.00 6331.77 80.00
4558 105.7015 0.967217 6302.00 6327.74 79.00
4559 105.7219 0.967087 6303.00 6321.59 79.00
4560 105.7423 0.966956 6243.00 6314.34 79.00
4561 105.7628 0.966825 6352.00 6306.11 80.00
4562 105.7832 0.966695 6273.00 6297.89 79.00
4563 105.8036 0.966565 6471.00 6289.94 80.00
4564 105.8241 0.966434 6374.00 6282.32 80.00
4565 105.8445 0.966304 6297.00 6275.65 79.00
4566 105.8649 0.966174 6221.00 6269.69 79.00
4567 105.8853 0.966044 6165.00 6263.74 79.00
4568 105.9058 0.965914 6195.00 6258.79 79.00
4569 105.9262 0.965784 6246.00 6254.04 79.00
4570 105.9466 0.965654 6166.00 6249.24 79.00
4571 105.9670 0.965525 6200.00 6243.74 79.00
4572 105.9875 0.965395 6181.00 6237.29 79.00
4573 106.0079 0.965265 6219.00 6231.41 79.00
4574 106.0283 0.965136 6301.00 6225.29 79.00
4575 106.0488 0.965006 6290.00 6219.14 79.00
4576 106.0692 0.964876 6264.00 6213.43 79.00
4577 106.0896 0.964747 6184.00 6210.00 79.00
4578 106.1100 0.964618 6193.00 6206.50 79.00
4579 106.1305 0.964488 6285.00 6204.75 79.00
4580 106.1509 0.964359 6301.00 6204.31 79.00
4581 106.1713 0.964230 6334.00 6207.49 80.00
4582 106.1918 0.964101 6239.00 6211.75 79.00
4583 106.2122 0.963972 6197.00 6218.22 79.00
4584 106.2326 0.963843 6071.00 6226.26 78.00
4585 106.2530 0.963714 6181.00 6234.31 79.00
4586 106.2735 0.963585 6258.00 6244.29 79.00
4587 106.2939 0.963456 6278.00 6254.47 79.00
4588 106.3143 0.963328 6176.00 6264.51 79.00
4589 106.3348 0.963199 6262.00 6274.11 79.00
4590 106.3552 0.963070 6289.00 6282.45 79.00
4591 106.3756 0.962942 6259.00 6290.96 79.00
4592 106.3960 0.962814 6378.00 6298.65 80.00
4593 106.4165 0.962685 6196.00 6305.14 79.00
4594 106.4369 0.962557 6349.00 6311.64 80.00
4595 106.4573 0.962429 6329.00 6317.61 80.00
4596 106.4778 0.962300 6232.00 6323.92 79.00
4597 106.4982 0.962172 6427.00 6330.91 80.00
4598 106.5186 0.962044 6225.00 6338.90 79.00
4599 106.5390 0.961916 6480.00 6347.70 80.00
4600 106.5595 0.961788 6472.00 6358.16 80.00
4601 106.5799 0.961660 6331.00 6369.70 80.00
4602 106.6003 0.961533 6378.00 6383.20 80.00
4603 106.6208 0.961405 6354.00 6395.71 80.00
4604 106.6412 0.961277 6590.00 6409.45 81.00
4605 106.6616 0.961150 6533.00 6422.02 81.00
4606 106.6820 0.961022 6479.00 6433.34 80.00
4607 106.7025 0.960894 6523.00 6442.76 81.00
4608 106.7229 0.960767 6338.00 6449.48 80.00
4609 106.7433 0.960640 6406.00 6453.06 80.00
4610 106.7638 0.960512 6350.00 6453.19 80.00
4611 106.7842 0.960385 6362.00 6449.96 80.00
4612 106.8046 0.960258 6334.00 6442.94 80.00
4613 106.8250 0.960131 6342.00 6434.30 80.00
4614 106.8455 0.960004 6351.00 6422.83 80.00
4615 106.8659 0.959877 6363.00 6411.93 80.00
4616 106.8863 0.959750 6308.00 6401.53 79.00
4617 106.9068 0.959623 6355.00 6392.05 80.00
4618 106.9272 0.959496 6251.00 6384.05 79.00
4619 106.9476 0.959370 6272.00 6377.65 79.00
4620 106.9680 0.959243 6418.00 6373.16 80.00
4621 106.9885 0.959116 6289.00 6370.42 79.00
4622 107.0089 0.958990 6458.00 6368.85 80.00
4623 107.0293 0.958864 6296.00 6368.13 79.00
4624 107.0498 0.958737 6247.00 6367.44 79.00
4625 107.0702 0.958611 6372.00 6366.84 80.00
4626 107.0906 0.958485 6282.00 6365.58 79.00
4627 107.1110 0.958359 6293.00 6362.89 79.00
4628 107.1315 0.958232 6321.00 6359.50 80.00
4629 107.1519 0.958106 6312.00 6355.05 79.00
4630 107.1723 0.957980 6279.00 6349.37 79.00
4631 107.1927 0.957855 6302.00 6343.54 79.00
4632 107.2132 0.957728 6463.00 6336.93 80.00
4633 107.2336 0.957603 6291.00 6331.25 79.00
4634 107.2540 0.957477 6320.00 6324.69 79.00
4635 107.2745 0.957351 6307.00 6320.07 79.00
4636 107.2949 0.957226 6295.00 6315.79 79.00
4637 107.3153 0.957100 6295.00 6311.82 79.00
4638 107.3357 0.956975 6425.00 6308.26 80.00
4639 107.3562 0.956849 6362.00 6304.44 80.00
4640 107.3766 0.956724 6400.00 6300.64 80.00
4641 107.3970 0.956599 6262.00 6297.28 79.00
4642 107.4175 0.956473 6244.00 6293.78 79.00
4643 107.4379 0.956348 6342.00 6291.12 80.00
4644 107.4583 0.956223 6251.00 6288.71 79.00
4645 107.4787 0.956098 6291.00 6289.43 79.00
4646 107.4992 0.955973 6279.00 6291.26 79.00
4647 107.5196 0.955848 6239.00 6296.01 79.00
4648 107.5400 0.955723 6403.00 6303.24 80.00
4649 107.5605 0.955598 6281.00 6313.53 79.00
4650 107.5809 0.955473 6392.00 6326.88 80.00
4651 107.6013 0.955349 6274.00 6343.32 79.00
4652 107.6217 0.955224 6355.00 6362.19 80.00
4653 107.6422 0.955099 6450.00 6383.85 80.00
4654 107.6626 0.954975 6444.00 6407.14 80.00
4655 107.6830 0.954851 6493.00 6431.41 81.00
4656 107.7035 0.954726 6433.00 6456.45 80.00
4657 107.7239 0.954602 6329.00 6480.21 80.00
4658 107.7443 0.954478 6400.00 6501.86 80.00
4659 107.7647 0.954354 6441.00 6521.73 80.00
4660 107.7852 0.954229 6362.00 6539.70 80.00
4661 107.8056 0.954105 6378.00 6555.81 80.00
4662 107.8260 0.953982 6312.00 6570.67 79.00
4663 107.8465 0.953857 6417.00 6584.71 80.00
4664 107.8669 0.953734 6596.00 6598.54 81.00
4665 107.8873 0.953610 6464.00 6612.84 80.00
4666 107.9077 0.953486 6221.00 6628.56 79.00
4667 107.9282 0.953362 6425.00 6645.15 80.00
4668 107.9486 0.953239 6468.00 6662.33 80.00
4669 107.9690 0.953115 6384.00 6680.14 80.00
4670 107.9895 0.952992 6507.00 6698.22 81.00
4671 108.0099 0.952868 6398.00 6716.61 80.00
4672 108.0303 0.952745 6413.00 6733.54 80.00
4673 108.0507 0.952622 6412.00 6748.95 80.00
4674 108.0712 0.952498 6474.00 6762.81 80.00
4675 108.0916 0.952375 6292.00 6774.77 79.00
4676 108.1120 0.952252 6335.00 6784.78 80.00
4677 108.1325 0.952129 6243.00 6792.76 79.00
4678 108.1529 0.952006 6430.00 6798.49 80.00
4679 108.1733 0.951883 6360.00 6801.75 80.00
4680 108.1937 0.951761 6270.00 6802.34 79.00
4681 108.2142 0.951637 6357.00 6799.95 80.00
4682 108.2346 0.951515 6403.00 6793.39 80.00
4683 108.2550 0.951392 6233.00 6784.49 79.00
4684 108.2755 0.951269 6401.00 6772.10 80.00
4685 108.2959 0.951147 6489.00 6756.52 81.00
4686 108.3163 0.951024 6401.00 6738.04 80.00
4687 108.3367 0.950902 6392.00 6717.66 80.00
4688 108.3572 0.950779 6496.00 6694.63 81.00
4689 108.3776 0.950657 6398.00 6670.28 80.00
4690 108.3980 0.950535 6213.00 6645.03 79.00
4691 108.4185 0.950413 6139.00 6619.19 78.00
4692 108.4389 0.950291 6463.00 6593.55 80.00
4693 108.4593 0.950169 6320.00 6568.18 79.00
4694 108.4797 0.950047 6448.00 6544.04 80.00
4695 108.5002 0.949925 6186.00 6519.49 79.00
4696 108.5206 0.949803 6248.00 6497.51 79.00
4697 108.5410 0.949681 6178.00 6476.96 79.00
4698 108.5614 0.949560 6223.00 6457.42 79.00
4699 108.5819 0.949437 6251.00 6439.31 79.00
4700 108.6023 0.949316 6351.00 6422.33 80.00
4701 108.6227 0.949195 6104.00 6405.90 78.00
4702 108.6432 0.949073 6245.00 6389.05 79.00
4703 108.6636 0.948951 6298.00 6372.89 79.00
4704 108.6840 0.948830 6239.00 6355.60 79.00
4705 108.7044 0.948709 6216.00 6337.90 79.00
4706 108.7249 0.948587 6240.00 6320.15 79.00
4707 108.7453 0.948466 6288.00 6301.22 79.00
4708 108.7657 0.948345 6339.00 6281.88 80.00
4709 108.7862 0.948224 6167.00 6262.29 79.00
4710 108.8066 0.948103 6214.00 6242.92 79.00
4711 108.8270 0.947982 6360.00 6223.91 80.00
4712 108.8474 0.947861 6254.00 6206.38 79.00
4713 108.8679 0.947740 6197.00 6188.87 79.00
4714 108.8883 0.947620 6096.00 6172.81 78.00
4715 108.9087 0.947499 6230.00 6157.48 79.00
4716 108.9292 0.947378 6229.00 6144.44 79.00
4717 108.9496 0.947257 6173.00 6133.10 79.00
4718 108.9700 0.947137 6293.00 6124.05 79.00
4719 108.9904 0.947017 6240.00 6117.36 79.00
4720 109.0109 0.946896 6235.00 6112.92 79.00
4721 109.0313 0.946776 6036.00 6110.96 78.00
4722 109.0517 0.946656 6272.00 6111.45 79.00
4723 109.0722 0.946535 6226.00 6114.27 79.00
4724 109.0926 0.946415 6192.00 6119.56 79.00
4725 109.1130 0.946295 6292.00 6127.05 79.00
4726 109.1334 0.946175 6160.00 6136.54 78.00
4727 109.1539 0.946055 6168.00 6147.81 79.00
4728 109.1743 0.945935 6366.00 6160.40 80.00
4729 109.1947 0.945815 6254.00 6174.00 79.00
4730 109.2152 0.945695 6163.00 6188.26 79.00
4731 109.2356 0.945575 6178.00 6202.67 79.00
4732 109.2560 0.945456 6173.00 6217.68 79.00
4733 109.2764 0.945337 6212.00 6231.56 79.00
4734 109.2969 0.945217 6152.00 6244.89 78.00
4735 109.3173 0.945097 6151.00 6257.26 78.00
4736 109.3377 0.944978 6201.00 6268.71 79.00
4737 109.3582 0.944858 6240.00 6279.61 79.00
4738 109.3786 0.944739 6208.00 6288.89 79.00
4739 109.3990 0.944620 6226.00 6298.90 79.00
4740 109.4194 0.944501 6126.00 6306.81 78.00
4741 109.4399 0.944381 6183.00 6313.67 79.00
4742 109.4603 0.944262 6275.00 6319.45 79.00
4743 109.4807 0.944144 6273.00 6324.26 79.00
4744 109.5012 0.944024 6318.00 6328.24 79.00
4745 109.5216 0.943905 6320.00 6331.49 79.00
4746 109.5420 0.943787 6142.00 6334.15 78.00
4747 109.5624 0.943668 6341.00 6336.23 80.00
4748 109.5829 0.943549 6409.00 6336.78 80.00
4749 109.6033 0.943430 6449.00 6337.35 80.00
4750 109.6237 0.943312 6259.00 6336.80 79.00
4751 109.6442 0.943193 6280.00 6336.22 79.00
4752 109.6646 0.943075 6176.00 6332.59 79.00
4753 109.6850 0.942956 6352.00 6327.59 80.00
4754 109.7054 0.942838 6257.00 6320.35 79.00
4755 109.7259 0.942720 6174.00 6311.53 79.00
4756 109.7463 0.942601 6187.00 6301.31 79.00
4757 109.7667 0.942483 6175.00 6290.25 79.00
4758 109.7871 0.942365 6131.00 6278.47 78.00
4759 109.8076 0.942247 6212.00 6266.49 79.00
4760 109.8280 0.942129 6225.00 6253.48 79.00
4761 109.8484 0.942011 6163.00 6241.93 79.00
4762 109.8689 0.941893 6337.00 6230.91 80.00
4763 109.8893 0.941775 6123.00 6220.76 78.00
4764 109.9097 0.941658 6104.00 6211.69 78.00
4765 109.9301 0.941540 6189.00 6203.91 79.00
4766 109.9506 0.941422 6230.00 6197.82 79.00
4767 109.9710 0.941305 6163.00 6193.19 79.00
4768 109.9914 0.941187 6177.00 6189.83 79.00
4769 110.0119 0.941069 6148.00 6188.61 78.00
4770 110.0323 0.940952 6143.00 6189.03 78.00
4771 110.0527 0.940835 6192.00 6190.94 79.00
4772 110.0731 0.940718 6127.00 6194.12 78.00
4773 110.0936 0.940600 6157.00 6198.41 78.00
4774 110.1140 0.940483 6224.00 6203.73 79.00
4775 110.1344 0.940366 6173.00 6210.24 79.00
4776 110.1549 0.940249 6182.00 6216.36 79.00
4777 110.1753 0.940132 6366.00 6223.07 80.00
4778 110.1957 0.940015 6224.00 6229.68 79.00
4779 110.2161 0.939898 6225.00 6235.85 79.00
4780 110.2366 0.939781 6272.00 6240.51 79.00
4781 110.2570 0.939665 6168.00 6245.73 79.00
4782 110.2774 0.939548 6102.00 6248.99 78.00
4783 110.2979 0.939431 6272.00 6250.99 79.00
4784 110.3183 0.939315 6276.00 6251.80 79.00
4785 110.3387 0.939198 6364.00 6251.58 80.00
4786 110.3591 0.939082 6194.00 6250.75 79.00
4787 110.3796 0.938965 6231.00 6249.63 79.00
4788 110.4000 0.938849 6172.00 6248.62 79.00
4789 110.4204 0.938733 6225.00 6248.04 79.00
4790 110.4409 0.938616 6324.00 6248.12 80.00
4791 110.4613 0.938500 6110.00 6248.96 78.00
4792 110.4817 0.938384 6264.00 6250.00 79.00
4793 110.5021 0.938268 6044.00 6252.38 78.00
4794 110.5226 0.938152 6157.00 6254.91 78.00
4795 110.5430 0.938036 6182.00 6258.90 79.00
4796 110.5634 0.937920 6059.00 6261.21 78.00
4797 110.5839 0.937804 6136.00 6263.37 78.00
4798 110.6043 0.937688 6163.00 6264.50 79.00
4799 110.6247 0.937573 6247.00 6265.36 79.00
4800 110.6451 0.937457 6082.00 6266.17 78.00
4801 110.6656 0.937341 6134.00 6264.48 78.00
4802 110.6860 0.937226 6059.00 6262.10 78.00
4803 110.7064 0.937111 5979.00 6258.25 77.00
4804 110.7269 0.936995 6092.00 6252.67 78.00
4805 110.7473 0.936880 6096.00 6245.27 78.00
4806 110.7677 0.936765 6230.00 6237.11 79.00
4807 110.7881 0.936650 6121.00 6226.07 78.00
4808 110.8086 0.936534 6267.00 6213.05 79.00
4809 110.8290 0.936419 6001.00 6198.34 77.00
4810 110.8494 0.936304 6091.00 6182.73 78.00
4811 110.8699 0.936189 6126.00 6165.65 78.00
4812 110.8903 0.936074 6027.00 6147.54 78.00
4813 110.9107 0.935959 6055.00 6129.30 78.00
4814 110.9311 0.935844 5937.00 6111.09 77.00
4815 110.9516 0.935729 6241.00 6093.10 79.00
4816 110.9720 0.935615 6129.00 6075.79 78.00
4817 110.9924 0.935500 6047.00 6059.28 78.00
4818 111.0129 0.935385 6075.00 6042.03 78.00
4819 111.0333 0.935271 6066.00 6027.34 78.00
4820 111.0537 0.935156 6030.00 6013.90 78.00
4821 111.0741 0.935042 6065.00 6001.21 78.00
4822 111.0946 0.934927 6092.00 5989.69 78.00
4823 111.1150 0.934813 5876.00 5979.62 77.00
4824 111.1354 0.934699 6090.00 5969.76 78.00
4825 111.1558 0.934585 6036.00 5960.02 78.00
4826 111.1763 0.934470 6085.00 5950.33 78.00
4827 111.1967 0.934357 5996.00 5941.06 77.00
4828 111.2171 0.934243 6071.00 5931.34 78.00
4829 111.2376 0.934128 5897.00 5921.37 77.00
4830 111.2580 0.934015 5868.00 5912.13 77.00
4831 111.2784 0.933901 6086.00 5903.23 78.00
4832 111.2988 0.933787 6059.00 5894.62 78.00
4833 111.3193 0.933673 5998.00 5886.86 77.00
4834 111.3397 0.933560 5895.00 5880.31 77.00
4835 111.3601 0.933446 5979.00 5875.15 77.00
4836 111.3806 0.933332 6037.00 5870.84 78.00
4837 111.4010 0.933219 5894.00 5868.99 77.00
4838 111.4214 0.933105 5906.00 5868.24 77.00
4839 111.4418 0.932992 5937.00 5869.84 77.00
4840 111.4623 0.932878 6054.00 5873.26 78.00
4841 111.4827 0.932765 6073.00 5878.24 78.00
4842 111.5031 0.932652 5987.00 5884.63 77.00
4843 111.5236 0.932539 5995.00 5892.23 77.00
4844 111.5440 0.932426 6039.00 5901.26 78.00
4845 111.5644 0.932313 5905.00 5910.44 77.00
4846 111.5848 0.932200 6036.00 5920.05 78.00
4847 111.6053 0.932087 5936.00 5929.87 77.00
4848 111.6257 0.931974 6064.00 5940.10 78.00
4849 111.6461 0.931861 6067.00 5948.62 78.00
4850 111.6666 0.931748 5992.00 5958.19 77.00
4851 111.6870 0.931636 5948.00 5967.00 77.00
4852 111.7074 0.931523 6123.00 5975.00 78.00
4853 111.7278 0.931411 5994.00 5982.45 77.00
4854 111.7483 0.931298 5970.00 5989.41 77.00
4855 111.7687 0.931185 5931.00 5995.93 77.00
4856 111.7891 0.931073 6089.00 6001.87 78.00
4857 111.8096 0.930960 6055.00 6008.18 78.00
4858 111.8300 0.930848 5952.00 6014.69 77.00
4859 111.8504 0.930736 6037.00 6021.64 78.00
4860 111.8708 0.930624 6105.00 6029.24 78.00
4861 111.8913 0.930511 6065.00 6037.71 78.00
4862 111.9117 0.930399 6010.00 6047.03 78.00
4863 111.9321 0.930288 6053.00 6057.28 78.00
4864 111.9526 0.930175 6064.00 6068.45 78.00
4865 111.9730 0.930063 6159.00 6080.27 78.00
4866 111.9934 0.929952 6068.00 6092.72 78.00
4867 112.0138 0.929840 6174.00 6105.51 79.00
4868 112.0343 0.929728 6041.00 6118.38 78.00
4869 112.0547 0.929616 6134.00 6130.89 78.00
4870 112.0751 0.929505 6133.00 6142.26 78.00
4871 112.0956 0.929393 6117.00 6152.24 78.00
4872 112.1160 0.929282 6187.00 6161.65 79.00
4873 112.1364 0.929170 6045.00 6168.78 78.00
4874 112.1568 0.929059 6130.00 6175.16 78.00
4875 112.1773 0.928947 6203.00 6179.38 79.00
4876 112.1977 0.928836 6203.00 6180.64 79.00
4877 112.2181 0.928725 6066.00 6179.62 78.00
4878 112.2386 0.928613 6035.00 6176.39 78.00
4879 112.2590 0.928502 6183.00 6171.13 79.00
4880 112.2794 0.928392 6018.00 6164.05 78.00
4881 112.2998 0.928281 6218.00 6155.41 79.00
4882 112.3203 0.928169 6182.00 6145.50 79.00
4883 112.3407 0.928059 6234.00 6134.75 79.00
4884 112.3611 0.927948 6054.00 6122.34 78.00
4885 112.3815 0.927837 6108.00 6111.00 78.00
4886 112.4020 0.927726 6126.00 6099.43 78.00
4887 112.4224 0.927616 6060.00 6088.94 78.00
4888 112.4428 0.927505 6120.00 6079.30 78.00
4889 112.4633 0.927394 6135.00 6070.61 78.00
4890 112.4837 0.927284 6160.00 6063.17 78.00
4891 112.5041 0.927174 5974.00 6056.89 77.00
4892 112.5245 0.927063 5929.00 6051.30 77.00
4893 112.5450 0.926953 6083.00 6046.92 78.00
4894 112.5654 0.926842 6127.00 6044.14 78.00
4895 112.5858 0.926732 5915.00 6041.78 77.00
4896 112.6063 0.926622 6107.00 6040.02 78.00
4897 112.6267 0.926512 5893.00 6037.55 77.00
4898 112.6471 0.926402 5951.00 6036.51 77.00
4899 112.6675 0.926292 6133.00 6034.86 78.00
4900 112.6880 0.926182 6143.00 6034.03 78.00
4901 112.7084 0.926072 6009.00 6033.27 78.00
4902 112.7288 0.925962 5984.00 6031.72 77.00
4903 112.7493 0.925852 5920.00 6029.78 77.00
4904 112.7697 0.925742 5994.00 6027.98 77.00
4905 112.7901 0.925633 6018.00 6024.78 78.00
4906 112.8105 0.925523 5943.00 6022.03 77.00
4907 112.8310 0.925413 5841.00 6019.14 76.00
4908 112.8514 0.925304 6098.00 6016.59 78.00
4909 112.8718 0.925195 6119.00 6014.87 78.00
4910 112.8923 0.925085 5923.00 6013.93 77.00
4911 112.9127 0.924976 6128.00 6014.21 78.00
4912 112.9331 0.924867 6036.00 6015.74 78.00
4913 112.9535 0.924757 6047.00 6018.62 78.00
4914 112.9740 0.924648 6106.00 6022.82 78.00
4915 112.9944 0.924539 6147.00 6028.25 78.00
4916 113.0148 0.924430 6079.00 6036.34 78.00
4917 113.0353 0.924321 6014.00 6044.97 78.00
4918 113.0557 0.924212 6087.00 6052.24 78.00
4919 113.0761 0.924103 6141.00 6059.98 78.00
4920 113.0965 0.923994 6142.00 6067.51 78.00
4921 113.1170 0.923885 6116.00 6074.87 78.00
4922 113.1374 0.923777 5912.00 6081.31 77.00
4923 113.1578 0.923668 5955.00 6086.56 77.00
4924 113.1783 0.923559 6009.00 6090.39 78.00
4925 113.1987 0.923451 6082.00 6094.04 78.00
4926 113.2191 0.923342 6119.00 6094.41 78.00
4927 113.2395 0.923234 6170.00 6095.02 79.00
4928 113.2600 0.923125 6221.00 6093.19 79.00
4929 113.2804 0.923017 6099.00 6090.49 78.00
4930 113.3008 0.922909 6131.00 6087.57 78.00
4931 113.3213 0.922800 6072.00 6084.75 78.00
4932 113.3417 0.922692 6098.00 6082.50 78.00
4933 113.3621 0.922584 6077.00 6081.02 78.00
4934 113.3825 0.922476 5906.00 6080.98 77.00
4935 113.4030 0.922368 6068.00 6082.41 78.00
4936 113.4234 0.922260 6083.00 6085.39 78.00
4937 113.4438 0.922152 6207.00 6089.93 79.00
4938 113.4643 0.922044 6159.00 6097.34 78.00
4939 113.4847 0.921936 6185.00 6104.58 79.00
4940 113.5051 0.921829 6183.00 6112.61 79.00
4941 113.5255 0.921721 6116.00 6121.38 78.00
4942 113.5460 0.921613 6224.00 6130.36 79.00
4943 113.5664 0.921506 6234.00 6139.08 79.00
4944 113.5868 0.921398 6253.00 6147.18 79.00
4945 113.6073 0.921290 6321.00 6155.09 80.00
4946 113.6277 0.921183 6246.00 6161.15 79.00
4947 113.6481 0.921076 6115.00 6165.84 78.00
4948 113.6685 0.920969 6182.00 6169.51 79.00
4949 113.6890 0.920861 6163.00 6172.30 79.00
4950 113.7094 0.920754 6169.00 6173.65 79.00
4951 113.7298 0.920647 6168.00 6175.46 79.00
4952 113.7502 0.920540 6144.00 6177.35 78.00
4953 113.7707 0.920433 6186.00 6180.11 79.00
4954 113.7911 0.920326 6245.00 6183.31 79.00
4955 113.8115 0.920219 6276.00 6187.68 79.00
4956 113.8320 0.920112 6147.00 6193.37 78.00
4957 113.8524 0.920005 6253.00 6200.46 79.00
4958 113.8728 0.919898 6149.00 6209.00 78.00
4959 113.8932 0.919792 6291.00 6218.52 79.00
4960 113.9137 0.919685 6169.00 6228.74 79.00
4961 113.9341 0.919578 6291.00 6240.41 79.00
4962 113.9545 0.919472 6281.00 6252.29 79.00
4963 113.9750 0.919365 6319.00 6264.48 79.00
4964 113.9954 0.919259 6167.00 6274.86 79.00
4965 114.0158 0.919152 6376.00 6283.52 80.00
4966 114.0362 0.919046 6389.00 6289.88 80.00
4967 114.0567 0.918939 6244.00 6293.51 79.00
4968 114.0771 0.918833 6457.00 6294.53 80.00
4969 114.0975 0.918727 6238.00 6292.20 79.00
4970 114.1180 0.918621 6358.00 6287.08 80.00
4971 114.1384 0.918515 6222.00 6279.05 79.00
4972 114.1588 0.918409 6261.00 6268.88 79.00
4973 114.1792 0.918303 6272.00 6258.44 79.00
4974 114.1997 0.918197 6152.00 6247.39 78.00
4975 114.2201 0.918091 6279.00 6236.39 79.00
4976 114.2405 0.917985 6378.00 6225.88 80.00
4977 114.2610 0.917879 6244.00 6216.21 79.00
4978 114.2814 0.917774 6136.00 6207.71 78.00
4979 114.3018 0.917668 6273.00 6200.47 79.00
4980 114.3222 0.917563 6174.00 6195.86 79.00
4981 114.3427 0.917457 6250.00 6190.56 79.00
4982 114.3631 0.917352 6282.00 6187.04 79.00
4983 114.3835 0.917246 6194.00 6184.08 79.00
4984 114.4040 0.917140 6106.00 6181.62 78.00
4985 114.4244 0.917035 6141.00 6179.42 78.00
4986 114.4448 0.916930 6186.00 6177.24 79.00
4987 114.4652 0.916825 6294.00 6174.87 79.00
4988 114.4857 0.916719 6260.00 6172.12 79.00
4989 114.5061 0.916615 6012.00 6168.96 78.00
4990 114.5265 0.916510 6299.00 6165.38 79.00
4991 114.5470 0.916404 6323.00 6161.43 80.00
4992 114.5674 0.916299 6111.00 6157.00 78.00
4993 114.5878 0.916195 6169.00 6152.57 79.00
4994 114.6082 0.916090 6242.00 6149.00 79.00
4995 114.6287 0.915985 6292.00 6145.44 79.00
4996 114.6491 0.915880 6296.00 6142.51 79.00
4997 114.6695 0.915776 6219.00 6140.38 79.00
4998 114.6900 0.915671 6277.00 6139.20 79.00
4999 114.7104 0.915566 6157.00 6139.21 78.00
5000 114.7308 0.915462 6133.00 6141.90 78.00
5001 114.7512 0.915357 6050.00 6144.25 78.00
5002 114.7717 0.915253 6288.00 6148.00 79.00
5003 114.7921 0.915148 6089.00 6153.10 78.00
5004 114.8125 0.915044 6199.00 6160.12 79.00
5005 114.8330 0.914940 6016.00 6167.68 78.00
5006 114.8534 0.914836 6239.00 6177.38 79.00
5007 114.8738 0.914732 6201.00 6189.29 79.00
5008 114.8942 0.914628 6170.00 6201.91 79.00
5009 114.9147 0.914523 6265.00 6215.90 79.00
5010 114.9351 0.914419 6225.00 6230.95 79.00
5011 114.9555 0.914315 6276.00 6247.28 79.00
5012 114.9759 0.914212 6266.00 6264.27 79.00
5013 114.9964 0.914108 6263.00 6281.93 79.00
5014 115.0168 0.914004 6358.00 6299.16 80.00
5015 115.0372 0.913900 6152.00 6316.51 78.00
5016 115.0577 0.913796 6198.00 6332.95 79.00
5017 115.0781 0.913693 6325.00 6348.35 80.00
5018 115.0985 0.913589 6376.00 6363.67 80.00
5019 115.1189 0.913486 6265.00 6376.67 79.00
5020 115.1394 0.913382 6301.00 6388.55 79.00
5021 115.1598 0.913279 6246.00 6399.13 79.00
5022 115.1802 0.913176 6260.00 6407.38 79.00
5023 115.2007 0.913072 6306.00 6414.17 79.00
5024 115.2211 0.912969 6222.00 6419.31 79.00
5025 115.2415 0.912866 6288.00 6422.91 79.00
5026 115.2619 0.912763 6283.00 6425.07 79.00
5027 115.2824 0.912659 6215.00 6425.35 79.00
5028 115.3028 0.912556 6415.00 6424.85 80.00
5029 115.3232 0.912453 6150.00 6422.85 78.00
5030 115.3437 0.912350 6459.00 6419.91 80.00
5031 115.3641 0.912247 6368.00 6416.15 80.00
5032 115.3845 0.912145 6336.00 6411.17 80.00
5033 115.4049 0.912042 6229.00 6405.38 79.00
5034 115.4254 0.911939 6263.00 6398.96 79.00
5035 115.4458 0.911836 6407.00 6392.21 80.00
5036 115.4662 0.911734 6256.00 6385.31 79.00
5037 115.4867 0.911631 6159.00 6379.23 78.00
5038 115.5071 0.911528 6182.00 6372.88 79.00
5039 115.5275 0.911426 6365.00 6366.27 80.00
5040 115.5479 0.911324 6261.00 6360.05 79.00
5041 115.5684 0.911221 6164.00 6353.79 79.00
5042 115.5888 0.911119 6245.00 6347.70 79.00
5043 115.6092 0.911017 6244.00 6341.42 79.00
5044 115.6297 0.910914 6128.00 6334.71 78.00
5045 115.6501 0.910812 6375.00 6327.45 80.00
5046 115.6705 0.910710 6420.00 6319.43 80.00
5047 115.6909 0.910608 6242.00 6310.50 79.00
5048 115.7114 0.910506 6195.00 6300.50 79.00
5049 115.7318 0.910404 6353.00 6289.47 80.00
5050 115.7522 0.910302 6335.00 6277.33 80.00
5051 115.7727 0.910200 6230.00 6263.65 79.00
5052 115.7931 0.910098 6280.00 6249.43 79.00
5053 115.8135 0.909997 6315.00 6233.99 79.00
5054 115.8339 0.909895 6161.00 6218.31 78.00
5055 115.8544 0.909793 6237.00 6202.44 79.00
5056 115.8748 0.909692 6278.00 6186.39 79.00
5057 115.8952 0.909590 6280.00 6170.69 79.00
5058 115.9157 0.909488 6092.00 6155.59 78.00
5059 115.9361 0.909387 6301.00 6141.54 79.00
5060 115.9565 0.909286 6225.00 6128.73 79.00
5061 115.9769 0.909184 6223.00 6117.32 79.00
5062 115.9974 0.909083 6095.00 6107.77 78.00
5063 116.0178 0.908982 6200.00 6099.25 79.00
5064 116.0382 0.908881 6089.00 6092.03 78.00
5065 116.0587 0.908779 6237.00 6085.85 79.00
5066 116.0791 0.908678 6127.00 6080.50 78.00
5067 116.0995 0.908577 6153.00 6075.58 78.00
5068 116.1199 0.908476 6361.00 6070.76 80.00
5069 116.1404 0.908375 6178.00 6065.66 79.00
5070 116.1608 0.908274 6206.00 6059.87 79.00
5071 116.1812 0.908174 6160.00 6053.29 78.00
5072 116.2017 0.908073 6251.00 6045.53 79.00
5073 116.2221 0.907972 6166.00 6037.15 79.00
5074 116.2425 0.907871 6308.00 6026.81 79.00
5075 116.2629 0.907771 6258.00 6014.93 79.00
5076 116.2834 0.907670 6151.00 6002.05 78.00
5077 116.3038 0.907570 6105.00 5988.30 78.00
5078 116.3242 0.907469 6161.00 5973.91 78.00
5079 116.3446 0.907369 6116.00 5959.04 78.00
5080 116.3651 0.907268 6067.00 5944.39 78.00
5081 116.3855 0.907168 6072.00 5930.25 78.00
5082 116.4059 0.907068 6064.00 5916.41 78.00
5083 116.4264 0.906967 6031.00 5904.87 78.00
5084 116.4468 0.906867 6178.00 5893.95 79.00
5085 116.4672 0.906767 6125.00 5884.77 78.00
5086 116.4876 0.906667 6050.00 5876.82 78.00
5087 116.5081 0.906567 6100.00 5871.53 78.00
5088 116.5285 0.906467 6083.00 5866.69 78.00
5089 116.5489 0.906367 6062.00 5863.23 78.00
5090 116.5694 0.906267 6113.00 5861.01 78.00
5091 116.5898 0.906168 6098.00 5860.89 78.00
5092 116.6102 0.906068 5979.00 5860.34 77.00
5093 116.6306 0.905968 6194.00 5860.54 79.00
5094 116.6511 0.905868 6003.00 5861.09 77.00
5095 116.6715 0.905769 6116.00 5861.69 78.00
5096 116.6919 0.905669 6080.00 5864.77 78.00
5097 116.7124 0.905570 6050.00 5865.03 78.00
5098 116.7328 0.905470 6147.00 5864.35 78.00
5099 116.7532 0.905371 6133.00 5862.56 78.00
5100 116.7736 0.905272 6138.00 5860.32 78.00
5101 116.7941 0.905172 6066.00 5859.84 78.00
5102 116.8145 0.905073 6067.00 5858.75 78.00
5103 116.8349 0.904974 6169.00 5856.79 79.00
5104 116.8554 0.904874 5869.00 5854.22 77.00
5105 116.8758 0.904775 6017.00 5852.20 78.00
5106 116.8962 0.904676 6002.00 5850.39 77.00
5107 116.9166 0.904578 5892.00 5849.07 77.00
5108 116.9371 0.904478 5971.00 5848.47 77.00
5109 116.9575 0.904380 5944.00 5848.72 77.00
5110 116.9779 0.904281 6125.00 5850.20 78.00
5111 116.9984 0.904182 6026.00 5852.29 78.00
5112 117.0188 0.904083 5931.00 5856.25 77.00
5113 117.0392 0.903984 6270.00 5861.48 79.00
5114 117.0596 0.903886 6146.00 5867.79 78.00
5115 117.0801 0.903787 6019.00 5875.39 78.00
5116 117.1005 0.903689 6086.00 5883.96 78.00
5117 117.1209 0.903590 5979.00 5893.44 77.00
5118 117.1414 0.903491 5969.00 5903.79 77.00
5119 117.1618 0.903393 6055.00 5914.74 78.00
5120 117.1822 0.903295 6005.00 5926.30 77.00
5121 117.2026 0.903197 6195.00 5938.38 79.00
5122 117.2231 0.903098 6000.00 5950.83 77.00
5123 117.2435 0.903000 5979.00 5963.79 77.00
5124 117.2639 0.902902 5952.00 5977.19 77.00
5125 117.2844 0.902804 6205.00 5991.02 79.00
5126 117.3048 0.902706 6077.00 6005.02 78.00
5127 117.3252 0.902608 6083.00 6019.38 78.00
5128 117.3456 0.902510 6267.00 6034.24 79.00
5129 117.3661 0.902412 6193.00 6049.62 79.00
5130 117.3865 0.902314 6112.00 6065.36 78.00
5131 117.4069 0.902216 6090.00 6081.60 78.00
5132 117.4274 0.902118 6279.00 6098.42 79.00
5133 117.4478 0.902021 6311.00 6115.54 79.00
5134 117.4682 0.901923 6013.00 6133.72 78.00
5135 117.4886 0.901826 6295.00 6152.75 79.00
5136 117.5091 0.901728 6141.00 6172.29 78.00
5137 117.5295 0.901631 6198.00 6193.28 79.00
5138 117.5499 0.901533 6116.00 6215.35 78.00
5139 117.5703 0.901436 6088.00 6238.49 78.00
5140 117.5908 0.901338 6229.00 6263.16 79.00
5141 117.6112 0.901241 6206.00 6288.23 79.00
5142 117.6316 0.901144 6147.00 6314.05 78.00
5143 117.6521 0.901046 6206.00 6340.50 79.00
5144 117.6725 0.900949 6128.00 6367.05 78.00
5145 117.6929 0.900852 6260.00 6394.47 79.00
5146 117.7133 0.900755 6108.00 6420.59 78.00
5147 117.7338 0.900658 6299.00 6446.29 79.00
5148 117.7542 0.900561 6350.00 6470.99 80.00
5149 117.7746 0.900465 6264.00 6494.59 79.00
5150 117.7951 0.900367 6391.00 6516.68 80.00
5151 117.8155 0.900271 6347.00 6537.46 80.00
5152 117.8359 0.900174 6366.00 6556.58 80.00
5153 117.8563 0.900077 6229.00 6573.80 79.00
5154 117.8768 0.899980 6369.00 6588.99 80.00
5155 117.8972 0.899884 6437.00 6601.81 80.00
5156 117.9176 0.899787 6505.00 6612.21 81.00
5157 117.9381 0.899691 6376.00 6619.67 80.00
5158 117.9585 0.899594 6370.00 6625.11 80.00
5159 117.9789 0.899498 6392.00 6628.06 80.00
5160 117.9993 0.899402 6367.00 6629.25 80.00
5161 118.0198 0.899305 6539.00 6628.83 81.00
5162 118.0402 0.899209 6509.00 6627.37 81.00
5163 118.0606 0.899113 6470.00 6625.01 80.00
5164 118.0811 0.899016 6525.00 6622.29 81.00
5165 118.1015 0.898920 6469.00 6619.79 80.00
5166 118.1219 0.898825 6490.00 6617.42 81.00
5167 118.1423 0.898729 6452.00 6615.14 80.00
5168 118.1628 0.898632 6385.00 6613.10 80.00
5169 118.1832 0.898537 6276.00 6611.20 79.00
5170 118.2036 0.898441 6585.00 6609.27 81.00
5171 118.2241 0.898345 6603.00 6607.03 81.00
5172 118.2445 0.898249 6402.00 6604.26 80.00
5173 118.2649 0.898153 6466.00 6600.53 80.00
5174 118.2853 0.898058 6339.00 6595.89 80.00
5175 118.3058 0.897962 6285.00 6589.89 79.00
5176 118.3262 0.897866 6427.00 6582.38 80.00
5177 118.3466 0.897771 6233.00 6573.14 79.00
5178 118.3671 0.897675 6212.00 6561.97 79.00
5179 118.3875 0.897580 6285.00 6548.94 79.00
5180 118.4079 0.897485 6255.00 6534.22 79.00
5181 118.4283 0.897389 6266.00 6516.61 79.00
5182 118.4488 0.897294 6366.00 6498.34 80.00
5183 118.4692 0.897199 6389.00 6478.98 80.00
5184 118.4896 0.897104 6278.00 6459.71 79.00
5185 118.5101 0.897008 6373.00 6439.06 80.00
5186 118.5305 0.896913 6471.00 6418.70 80.00
5187 118.5509 0.896818 6277.00 6399.81 79.00
5188 118.5713 0.896723 6349.00 6381.63 80.00
5189 118.5918 0.896628 6190.00 6363.81 79.00
5190 118.6122 0.896533 6292.00 6347.47 79.00
5191 118.6326 0.896439 6454.00 6332.77 80.00
5192 118.6531 0.896344 6190.00 6319.70 79.00
5193 118.6735 0.896249 6278.00 6308.34 79.00
5194 118.6939 0.896154 6193.00 6298.57 79.00
5195 118.7143 0.896060 6299.00 6290.25 79.00
5196 118.7348 0.895965 6295.00 6284.22 79.00
5197 118.7552 0.895870 6253.00 6278.30 79.00
5198 118.7756 0.895776 6234.00 6273.75 79.00
5199 118.7961 0.895681 6207.00 6269.36 79.00
5200 118.8165 0.895587 6317.00 6265.44 79.00
5201 118.8369 0.895493 6291.00 6261.81 79.00
5202 118.8573 0.895399 6315.00 6259.09 79.00
5203 118.8778 0.895304 6314.00 6254.83 79.00
5204 118.8982 0.895210 6323.00 6251.47 80.00
5205 118.9186 0.895116 6190.00 6247.39 79.00
5206 118.9390 0.895022 6335.00 6244.34 80.00
5207 118.9595 0.894927 6358.00 6241.57 80.00
5208 118.9799 0.894834 6257.00 6239.23 79.00
5209 119.0003 0.894740 6365.00 6237.43 80.00
5210 119.0208 0.894645 6320.00 6236.62 79.00
5211 119.0412 0.894552 6501.00 6236.09 81.00
5212 119.0616 0.894458 6240.00 6236.18 79.00
5213 119.0820 0.894364 6326.00 6236.71 80.00
5214 119.1025 0.894270 6353.00 6237.85 80.00
5215 119.1229 0.894177 6203.00 6239.42 79.00
5216 119.1433 0.894083 6337.00 6241.27 80.00
5217 119.1638 0.893989 6371.00 6243.37 80.00
5218 119.1842 0.893896 6282.00 6246.60 79.00
5219 119.2046 0.893802 6166.00 6249.20 79.00
5220 119.2250 0.893709 6408.00 6252.18 80.00
5221 119.2455 0.893615 6289.00 6255.71 79.00
5222 119.2659 0.893522 6352.00 6259.56 80.00
5223 119.2863 0.893429 6461.00 6264.77 80.00
5224 119.3068 0.893335 6346.00 6271.18 80.00
5225 119.3272 0.893242 6392.00 6278.90 80.00
5226 119.3476 0.893149 6265.00 6287.69 79.00
5227 119.3680 0.893056 6330.00 6298.49 80.00
5228 119.3885 0.892963 6471.00 6310.99 80.00
5229 119.4089 0.892870 6390.00 6324.62 80.00
5230 119.4293 0.892777 6395.00 6340.20 80.00
5231 119.4498 0.892684 6427.00 6357.25 80.00
5232 119.4702 0.892591 6566.00 6375.77 81.00
5233 119.4906 0.892498 6380.00 6394.81 80.00
5234 119.5110 0.892406 6574.00 6414.40 81.00
5235 119.5315 0.892313 6381.00 6434.61 80.00
5236 119.5519 0.892220 6520.00 6455.02 81.00
5237 119.5723 0.892128 6487.00 6473.83 81.00
5238 119.5928 0.892035 6583.00 6491.61 81.00
5239 119.6132 0.891942 6470.00 6507.44 80.00
5240 119.6336 0.891850 6404.00 6521.80 80.00
5241 119.6540 0.891758 6502.00 6534.10 81.00
5242 119.6745 0.891665 6524.00 6544.23 81.00
5243 119.6949 0.891573 6509.00 6552.07 81.00
5244 119.7153 0.891481 6425.00 6557.71 80.00
5245 119.7358 0.891388 6491.00 6561.53 81.00
5246 119.7562 0.891296 6434.00 6563.24 80.00
5247 119.7766 0.891204 6458.00 6563.29 80.00
5248 119.7970 0.891112 6261.00 6562.20 79.00
loop_
_pd_proc_info_excluded_regions
'from 5 to 12.492'
loop_
_restr_angle_atom_site_label_1
_restr_angle_site_symmetry_1
_restr_angle_atom_site_label_2
_restr_angle_site_symmetry_2
_restr_angle_atom_site_label_3
_restr_angle_site_symmetry_3
_restr_angle_target
_restr_angle_target_weight_param
? ? ? ? ? ? ? ?
loop_
_restr_distance_atom_site_label_1
_restr_distance_site_symmetry_1
_restr_distance_atom_site_label_2
_restr_distance_site_symmetry_2
_restr_distance_target
_restr_distance_target_weight_param
P1 . O2 . 1.43 0.001
P1 . O3 . 1.47 0.001
P1 . O4 . 1.59 0.001
P1 . O5 . 1.57 0.001
O2 . O4 . 2.58 0.001
O4 . O5 . 2.56 0.001
O4 . O3 . 2.52 0.001
O3 . O5 . 2.38 0.001
O2 . O3 . 2.44 0.001
Ni1 . O1 . 2.05 0.001
loop_
_restr_equal_angle_atom_site_label_1
_restr_equal_angle_site_symmetry_1
_restr_equal_angle_atom_site_label_2
_restr_equal_angle_site_symmetry_2
_restr_equal_angle_atom_site_label_3
_restr_equal_angle_site_symmetry_3
_restr_equal_angle_class_class_id
_restr_equal_angle_class_target_weight_param
? ? ? ? ? ? ? ?
loop_
_restr_equal_distance_atom_site_label_1
_restr_equal_distance_site_symmetry_1
_restr_equal_distance_atom_site_label_2
_restr_equal_distance_site_symmetry_2
_restr_equal_distance_class_class_id
_restr_equal_distance_class_target_weight_param
? ? ? ? ? ?
loop_
_restr_equal_torsion_atom_site_label_1
_restr_equal_torsion_site_symmetry_1
_restr_equal_torsion_atom_site_label_2
_restr_equal_torsion_site_symmetry_2
_restr_equal_torsion_atom_site_label_3
_restr_equal_torsion_site_symmetry_3
_restr_equal_torsion_atom_site_label_4
_restr_equal_torsion_site_symmetry_4
_restr_equal_torsion_class_class_id
_restr_equal_torsion_class_target_weight_param
? ? ? ? ? ? ? ? ? ?
loop_
_restr_torsion_atom_site_label_1
_restr_torsion_site_symmetry_1
_restr_torsion_atom_site_label_2
_restr_torsion_site_symmetry_2
_restr_torsion_atom_site_label_3
_restr_torsion_site_symmetry_3
_restr_torsion_atom_site_label_4
_restr_torsion_site_symmetry_4
_restr_torsion_angle_target
_restr_torsion_weight_param
? ? ? ? ? ? ? ? ? ?
loop_
_jana_atom_site_adp_c_label
_jana_atom_site_adp_c_type_symbol
_jana_atom_site_adp_c_111
_jana_atom_site_adp_c_112
_jana_atom_site_adp_c_113
_jana_atom_site_adp_c_122
_jana_atom_site_adp_c_123
_jana_atom_site_adp_c_133
_jana_atom_site_adp_c_222
_jana_atom_site_adp_c_223
_jana_atom_site_adp_c_233
_jana_atom_site_adp_c_333
? ? ? ? ? ? ? ? ? ? ? ?
loop_
_jana_atom_site_adp_d_label
_jana_atom_site_adp_d_type_symbol
_jana_atom_site_adp_d_1111
_jana_atom_site_adp_d_1112
_jana_atom_site_adp_d_1113
_jana_atom_site_adp_d_1122
_jana_atom_site_adp_d_1123
_jana_atom_site_adp_d_1133
_jana_atom_site_adp_d_1222
_jana_atom_site_adp_d_1223
_jana_atom_site_adp_d_1233
_jana_atom_site_adp_d_1333
_jana_atom_site_adp_d_2222
_jana_atom_site_adp_d_2223
_jana_atom_site_adp_d_2233
_jana_atom_site_adp_d_2333
_jana_atom_site_adp_d_3333
? ? ? ? ? ? ? ? ? ? ? ? ? ? ? ? ?
loop_
_jana_atom_site_adp_e_label
_jana_atom_site_adp_e_type_symbol
_jana_atom_site_adp_e_11111
_jana_atom_site_adp_e_11112
_jana_atom_site_adp_e_11113
_jana_atom_site_adp_e_11122
_jana_atom_site_adp_e_11123
_jana_atom_site_adp_e_11133
_jana_atom_site_adp_e_11222
_jana_atom_site_adp_e_11223
_jana_atom_site_adp_e_11233
_jana_atom_site_adp_e_11333
_jana_atom_site_adp_e_12222
_jana_atom_site_adp_e_12223
_jana_atom_site_adp_e_12233
_jana_atom_site_adp_e_12333
_jana_atom_site_adp_e_13333
_jana_atom_site_adp_e_22222
_jana_atom_site_adp_e_22223
_jana_atom_site_adp_e_22233
_jana_atom_site_adp_e_22333
_jana_atom_site_adp_e_23333
_jana_atom_site_adp_e_33333
? ? ? ? ? ? ? ? ? ? ? ? ? ? ? ? ? ? ? ? ? ? ?
loop_
_jana_atom_site_adp_f_label
_jana_atom_site_adp_f_type_symbol
_jana_atom_site_adp_f_111111
_jana_atom_site_adp_f_111112
_jana_atom_site_adp_f_111113
_jana_atom_site_adp_f_111122
_jana_atom_site_adp_f_111123
_jana_atom_site_adp_f_111133
_jana_atom_site_adp_f_111222
_jana_atom_site_adp_f_111223
_jana_atom_site_adp_f_111233
_jana_atom_site_adp_f_111333
_jana_atom_site_adp_f_112222
_jana_atom_site_adp_f_112223
_jana_atom_site_adp_f_112233
_jana_atom_site_adp_f_112333
_jana_atom_site_adp_f_113333
_jana_atom_site_adp_f_122222
_jana_atom_site_adp_f_122223
_jana_atom_site_adp_f_122233
_jana_atom_site_adp_f_122333
_jana_atom_site_adp_f_123333
_jana_atom_site_adp_f_133333
_jana_atom_site_adp_f_222222
_jana_atom_site_adp_f_222223
_jana_atom_site_adp_f_222233
_jana_atom_site_adp_f_222333
_jana_atom_site_adp_f_223333
_jana_atom_site_adp_f_233333
_jana_atom_site_adp_f_333333
? ? ? ? ? ? ? ? ? ? ? ? ? ? ? ? ? ? ? ? ? ? ? ? ? ? ? ? ? ?
