#------------------------------------------------------------------------------
#$Date: 2021-11-06 21:47:43 +0200 (Sat, 06 Nov 2021) $
#$Revision: 270412 $
#$URL: file:///home/coder/svn-repositories/cod/cif/7/24/34/7243498.cif $
#------------------------------------------------------------------------------
#
# This file is available in the Crystallography Open Database (COD),
# http://www.crystallography.net/
#
# All data on this site have been placed in the public domain by the
# contributors.
#
data_7243498
loop_
_publ_author_name
'Ma, Zhi Long'
'Wang, Meng Chen'
'Tian, Li'
'Liu, Zhong Yi'
_publ_section_title
;
 Solvent-controlled metal coordination polymers of Co(ii) with different
 topological structures and properties
;
_journal_issue                   41
_journal_name_full               CrystEngComm
_journal_page_first              7253
_journal_page_last               7261
_journal_paper_doi               10.1039/D1CE01093J
_journal_volume                  23
_journal_year                    2021
_chemical_formula_moiety         'C24 H14 Co N12 O8'
_chemical_formula_sum            'C24 H14 Co N12 O8'
_chemical_formula_weight         657.40
_space_group_crystal_system      triclinic
_space_group_IT_number           2
_space_group_name_Hall           '-P 1'
_space_group_name_H-M_alt        'P -1'
_atom_sites_solution_hydrogens   mixed
_atom_sites_solution_primary     direct
_audit_block_doi                 10.5517/ccdc.csd.cc28lmfy
_audit_creation_date             2021-06-08
_audit_creation_method
;
Olex2 1.2-beta
(compiled 2018.05.29 svn.r3508 for OlexSys, GUI svn.r5506)
;
_audit_update_record
;
2021-08-16 deposited with the CCDC.	2021-09-07 downloaded from the CCDC.
;
_cell_angle_alpha                73.713(3)
_cell_angle_beta                 84.815(3)
_cell_angle_gamma                79.798(3)
_cell_formula_units_Z            1
_cell_length_a                   7.1998(11)
_cell_length_b                   10.3460(16)
_cell_length_c                   12.6281(19)
_cell_measurement_reflns_used    2623
_cell_measurement_temperature    296(2)
_cell_measurement_theta_max      28.30
_cell_measurement_theta_min      2.29
_cell_volume                     887.8(2)
_computing_molecular_graphics    'Olex2 (Dolomanov et al., 2009)'
_computing_publication_material  'Olex2 (Dolomanov et al., 2009)'
_computing_structure_refinement  'ShelXL (Sheldrick, 2015)'
_computing_structure_solution    'XS (Sheldrick, 2008)'
_diffrn_ambient_temperature      296.15
_diffrn_measured_fraction_theta_full 0.998
_diffrn_measured_fraction_theta_max 0.998
_diffrn_measurement_device_type  'CCD area detector'
_diffrn_measurement_method       'phi and omega scans'
_diffrn_radiation_monochromator  graphite
_diffrn_radiation_type           MoK\a
_diffrn_radiation_wavelength     0.71073
_diffrn_reflns_av_R_equivalents  0.0249
_diffrn_reflns_av_unetI/netI     0.0487
_diffrn_reflns_Laue_measured_fraction_full 0.998
_diffrn_reflns_Laue_measured_fraction_max 0.998
_diffrn_reflns_limit_h_max       9
_diffrn_reflns_limit_h_min       -9
_diffrn_reflns_limit_k_max       12
_diffrn_reflns_limit_k_min       -11
_diffrn_reflns_limit_l_max       15
_diffrn_reflns_limit_l_min       -11
_diffrn_reflns_number            5828
_diffrn_reflns_point_group_measured_fraction_full 0.998
_diffrn_reflns_point_group_measured_fraction_max 0.998
_diffrn_reflns_theta_full        25.242
_diffrn_reflns_theta_max         26.493
_diffrn_reflns_theta_min         1.682
_exptl_absorpt_coefficient_mu    0.540
_exptl_absorpt_correction_T_max  0.7457
_exptl_absorpt_correction_T_min  0.6157
_exptl_absorpt_correction_type   multi-scan
_exptl_absorpt_process_details
'SADABS-2012/1 (Bruker,2012) was used for absorption correction. wR2(int) was 0.1423 before and 0.0359 after correction. The Ratio of minimum to maximum transmission is 0.8257. The \l/2 correction factor is 0.0015.'
_exptl_crystal_colour            pink
_exptl_crystal_colour_primary    pink
_exptl_crystal_density_diffrn    1.230
_exptl_crystal_description       block
_exptl_crystal_F_000             333
_exptl_crystal_size_max          0.22
_exptl_crystal_size_mid          0.21
_exptl_crystal_size_min          0.18
_platon_squeeze_details
;
TITL N210607A         P -1         R = 0.10
CELL    7.1998   10.3460   12.6281     73.71     84.82     79.80
SPGR P-1
# Solvent Accessible Volume =       321
# Electrons Found in S.A.V. =        91
# Note: Atoms in Void are Labelled as Cxxx and Qxxx for all Others
C101 0.875 0.909 0.423 !       5.49 eA-3
C102 0.786 0.905 0.487 !       3.07 eA-3
C103 0.834 0.816 0.371 !       2.84 eA-3
C104 0.067 0.147 0.443 !       1.82 eA-3
Q105 0.018 0.625 0.288 !       1.59 eA-3
C106 0.966 0.534 0.301 !       1.55 eA-3
C107 0.658 1.005 0.433 !       1.31 eA-3
Q108 0.487 0.307 0.298 !       1.11 eA-3
C109 0.899 0.065 0.423 !       1.08 eA-3
C110 0.987 0.314 0.331 !       0.99 eA-3
C111 1.000 0.404 0.408 !       0.94 eA-3
Q112 0.291 0.558 0.223 !       0.94 eA-3
Q113 0.539 0.537 0.180 !       0.93 eA-3
C114 1.009 0.528 0.466 !       0.85 eA-3
Q115 0.496 0.938 0.013 !       0.63 eA-3
Q116 0.327 0.383 0.277 !       0.63 eA-3
Q117 0.411 0.339 0.209 !       0.61 eA-3
C118 1.000 1.000 0.500 !       0.56 eA-3
Q119 0.533 1.001 0.044 !       0.54 eA-3
Q120 0.440 0.503 0.275 !       0.50 eA-3
;
_refine_diff_density_max         0.851
_refine_diff_density_min         -0.759
_refine_diff_density_rms         0.059
_refine_ls_extinction_method     none
_refine_ls_goodness_of_fit_ref   1.064
_refine_ls_hydrogen_treatment    constr
_refine_ls_matrix_type           full
_refine_ls_number_parameters     212
_refine_ls_number_reflns         3655
_refine_ls_number_restraints     30
_refine_ls_restrained_S_all      1.125
_refine_ls_R_factor_all          0.0464
_refine_ls_R_factor_gt           0.0394
_refine_ls_shift/su_max          0.002
_refine_ls_shift/su_mean         0.000
_refine_ls_structure_factor_coef Fsqd
_refine_ls_weighting_details
'w=1/[\s^2^(Fo^2^)+(0.0429P)^2^+0.3957P] where P=(Fo^2^+2Fc^2^)/3'
_refine_ls_weighting_scheme      calc
_refine_ls_wR_factor_gt          0.0964
_refine_ls_wR_factor_ref         0.0992
_reflns_Friedel_coverage         0.000
_reflns_number_gt                3175
_reflns_number_total             3655
_reflns_threshold_expression     'I > 2\s(I)'
_iucr_refine_instructions_details
;
TITL N210607A in P-1
    n210607a_sq.res
    created by SHELXL-2018/3 at 15:39:02 on 08-Jun-2021
CELL 0.71073 7.1998 10.346 12.6281 73.713 84.815 79.798
ZERR 1 0.0011 0.0016 0.0019 0.003 0.003 0.003
LATT 1
SFAC C H Co N O
UNIT 24 14 1 12 8
DFIX 1.2 0.01 O3 C6 O3A C6
DFIX 1.26 0.005 O4A C6 O4 C6
FLAT 0.001 C5 C6 O3 O4
FLAT 0.001 C5 C6 O3A O4A
ISOR 0.01 0.01 O3 O3A O4A O4
EADP O3A O3
EADP O4A O4

L.S. 20 0 51
PLAN  20
SIZE 0.22 0.21 0.18
TEMP 23
BOND $H
CONF
HTAB
ABIN
fmap 2
acta
OMIT 0 53
OMIT 3 1 0
OMIT 1 2 0
OMIT -2 1 2
OMIT 1 3 4
REM <olex2.extras>
REM <HklSrc "%.\\n210607a_sq.hkl">
REM </olex2.extras>

WGHT    0.042900    0.395700
FVAR       0.30930   0.27667
CO1   3    0.500000    1.000000    0.000000    10.50000    0.01767    0.00920 =
         0.01226   -0.00065   -0.00182   -0.00272
O1    5    0.697734    0.824051   -0.002445    11.00000    0.02401    0.01360 =
         0.02356   -0.00765   -0.00435    0.00139
O2    5    0.596685    0.747351   -0.130064    11.00000    0.04051    0.03650 =
         0.04403   -0.02564   -0.02615    0.01596
PART 1
O3    5    0.365539    0.554558    0.224844    21.00000    0.17107    0.03652 =
         0.01263   -0.00494   -0.01413   -0.02985
O4    5    0.534650    0.340838    0.278547    21.00000    0.11736    0.03233 =
         0.02331   -0.00826   -0.01182   -0.02728
AFIX   3
H4    2    0.514850    0.333158    0.217837    21.00000   -1.50000
AFIX   0
PART 0
N1    4    0.458536    0.899407    0.172062    11.00000    0.02852    0.01664 =
         0.01487    0.00014   -0.00289   -0.00332
N2    4    0.441395    0.736235    0.322634    11.00000    0.03705    0.01667 =
         0.01333    0.00088   -0.00306   -0.00300
N3    4    0.300700    0.837771    0.335197    11.00000    0.04872    0.02952 =
         0.02330    0.00381    0.01150    0.00637
N4    4    1.114037    0.755465   -0.041597    11.00000    0.02018    0.01130 =
         0.02390   -0.00146   -0.00483   -0.00252
N5    4    1.068229    0.859448   -0.133462    11.00000    0.03621    0.02179 =
         0.02988    0.00457   -0.01439   -0.01088
N6    4    1.267852    0.914561   -0.032431    11.00000    0.02220    0.01326 =
         0.02491   -0.00411   -0.00283   -0.00495
C1    1    0.534563    0.775669    0.226108    11.00000    0.03326    0.01794 =
         0.01572   -0.00015   -0.00154   -0.00264
AFIX  43
H1    2    0.638257    0.723418    0.200571    11.00000   -1.20000
AFIX   0
C2    1    0.317134    0.932871    0.242399    11.00000    0.04265    0.02410 =
         0.02458    0.00325    0.00400    0.00558
AFIX  43
H2    2    0.237816    1.016605    0.226319    11.00000   -1.20000
AFIX   0
C3    1    0.489536    0.627586    0.513725    11.00000    0.05166    0.01723 =
         0.01748   -0.00093   -0.00337   -0.00545
AFIX  43
H3    2    0.481342    0.714820    0.522339    11.00000   -1.20000
AFIX   0
C4    1    0.473161    0.612425    0.409984    11.00000    0.04103    0.01855 =
         0.01264    0.00275   -0.00233   -0.00643
C5    1    0.481891    0.484724    0.393808    11.00000    0.04426    0.02089 =
         0.01420   -0.00015   -0.00326   -0.00805
C6    1    0.457960    0.456320    0.285850    11.00000    0.06997    0.02433 =
         0.01787    0.00067   -0.00751   -0.01083
C7    1    1.231344    0.790785    0.016175    11.00000    0.02625    0.01532 =
         0.02344   -0.00268   -0.00475   -0.00730
AFIX  43
H7    2    1.281314    0.735660    0.082212    11.00000   -1.20000
AFIX   0
C8    1    1.164627    0.951170   -0.123265    11.00000    0.03489    0.01771 =
         0.03403    0.00641   -0.01104   -0.01135
AFIX  43
H8    2    1.162111    1.035519   -0.174946    11.00000   -1.20000
AFIX   0
C9    1    1.050862    0.627007   -0.020340    11.00000    0.02133    0.01098 =
         0.02335   -0.00560   -0.00270   -0.00411
C10   1    0.863703    0.618680   -0.031646    11.00000    0.01886    0.01328 =
         0.01953   -0.00532   -0.00203   -0.00188
C11   1    0.815386    0.489174   -0.010647    11.00000    0.01591    0.01680 =
         0.02770   -0.00709   -0.00469   -0.00208
AFIX  43
H11   2    0.691005    0.480430   -0.017536    11.00000   -1.20000
AFIX   0
C12   1    0.707535    0.740802   -0.058293    11.00000    0.02020    0.01271 =
         0.01954   -0.00355   -0.00174   -0.00097
PART 2
O3A   5    0.462706    0.537182    0.195925   -21.00000    0.17107    0.03652 =
         0.01263   -0.00494   -0.01413   -0.02985
O4A   5    0.430723    0.333889    0.295384   -21.00000    0.11736    0.03233 =
         0.02331   -0.00826   -0.01182   -0.02728
AFIX   3
H4A   2    0.412643    0.324759    0.235184   -21.00000   -1.50000
AFIX   0
HKLF 4




REM  N210607A in P-1
REM wR2 = 0.0992, GooF = S = 1.064, Restrained GooF = 1.125 for all data
REM R1 = 0.0394 for 3175 Fo > 4sig(Fo) and 0.0464 for all 3655 data
REM 212 parameters refined using 30 restraints

END  
     
WGHT      0.0429      0.3964 

REM Instructions for potential hydrogen bonds
EQIV $7 -x+1, -y+1, -z
HTAB O4 O2_$7
EQIV $2 -x+1, -y+2, -z
HTAB C2 N5_$2
EQIV $1 x+1, y, z
HTAB C7 O3_$1
HTAB C7 O3A_$1
HTAB O4A O2_$7

REM Highest difference peak  0.851,  deepest hole -0.759,  1-sigma level  0.059
Q1    1   0.3098  0.5382  0.2217  11.00000  0.05    0.85
Q2    1   0.4913  0.3234  0.2863  11.00000  0.05    0.59
Q3    1   0.5151  0.5275  0.1949  11.00000  0.05    0.47
Q4    1   0.3227  0.3778  0.2889  11.00000  0.05    0.36
Q5    1   0.4175  0.4751  0.2866  11.00000  0.05    0.32
Q6    1   0.4895  0.9111  0.0136  11.00000  0.05    0.31
Q7    1   0.7904  0.6788 -0.0567  11.00000  0.05    0.28
Q8    1   1.0687  0.6929 -0.0169  11.00000  0.05    0.26
Q9    1   0.5173  0.4379  0.4179  11.00000  0.05    0.25
Q10   1   0.4479  0.4788  0.3445  11.00000  0.05    0.25
Q11   1   0.9405  0.6281 -0.0589  11.00000  0.05    0.24
Q12   1   0.4576  0.9970 -0.0649  11.00000  0.05    0.24
Q13   1   0.3715  1.0076  0.0202  11.00000  0.05    0.22
Q14   1   0.5581  0.6820 -0.1395  11.00000  0.05    0.22
Q15   1   0.5720  0.6988 -0.0855  11.00000  0.05    0.22
Q16   1   1.3532  0.9499 -0.0174  11.00000  0.05    0.22
Q17   1   0.8289  0.5597 -0.0065  11.00000  0.05    0.21
Q18   1   0.5303  0.6038  0.4595  11.00000  0.05    0.21
Q19   1   0.4694  0.8296  0.1736  11.00000  0.05    0.21
Q20   1   0.4309  1.0710  0.0579  11.00000  0.05    0.21

  REM The information below was added by Olex2.
  REM
  REM R1 = 0.0394 for 3175 Fo > 4sig(Fo) and 0.0464 for all 6725 data
  REM n/a parameters refined using n/a restraints
  REM Highest difference peak 0.85, deepest hole -0.76
  REM Mean Shift 0, Max Shift -0.002.

  REM +++ Tabular Listing of Refinement Information +++
  REM R1_all = 0.0464
  REM R1_gt = 0.0394
  REM wR_ref = 0.0992
  REM GOOF = 1.064
  REM Shift_max = -0.002
  REM Shift_mean = 0
  REM Reflections_all = 6725
  REM Reflections_gt = 3175
  REM Parameters = n/a
  REM Hole = -0.76
  REM Peak = 0.85
  REM Flack = n/a

  
;
_cod_data_source_file            d1ce01093j2.cif
_cod_data_source_block           n210607a_sq
_cod_depositor_comments
'Adding full bibliography for 7243497--7243499.cif.'
_cod_database_code               7243498
_shelx_shelxl_version_number     2018/3
_shelx_space_group_comment
;
The symmetry employed for this shelxl refinement is uniquely defined
by the following loop, which should always be used as a source of
symmetry information in preference to the above space-group names.
They are only intended as comments.
;
_shelx_estimated_absorpt_t_max   0.909
_shelx_estimated_absorpt_t_min   0.891
_olex2_refinement_description
;
1. Fixed Uiso
 At 1.2 times of:
  All C(H) groups
 At 1.5 times of:
  All O(H) groups
2. Restrained distances
 O3-C6 = O3A-C6
 1.2 with sigma of 0.01
 O4A-C6 = O4-C6
 1.26 with sigma of 0.005
3. Restrained planarity
 C5, C6, O3, O4
 with sigma of 0.001
 C5, C6, O3A, O4A
 with sigma of 0.001
4. Uiso/Uaniso restraints and constraints
Uanis(O3) \\sim Ueq, Uanis(O3A) \\sim Ueq, Uanis(O4A) \\sim Ueq, Uanis(O4)
\\sim Ueq: with sigma of 0.01 and sigma for terminal atoms of 0.01
Uanis(O3A) = Uanis(O3)
Uanis(O4A) = Uanis(O4)
5. Others
 Sof(O3A)=Sof(O4A)=Sof(H4A)=1-FVAR(1)
 Sof(O3)=Sof(O4)=Sof(H4)=FVAR(1)
6.a Riding coordinates:
 O4(H4), O4A(H4A)
6.b Aromatic/amide H refined with riding coordinates:
 C1(H1), C2(H2), C3(H3), C7(H7), C8(H8), C11(H11)
;
_shelx_fab_file
;
 1 0 0 54.70 0.00
 2 0 0 18.68 0.00
 3 0 0 4.55 0.00
 4 0 0 0.52 0.00
 5 0 0 0.63 0.00
 6 0 0 0.20 0.00
 7 0 0 -0.10 0.00
 8 0 0 0.12 0.00
 -8 1 0 0.43 0.00
 -7 1 0 -0.13 0.00
 -6 1 0 -0.44 0.00
 -5 1 0 -1.64 0.00
 -4 1 0 -4.80 0.00
 -3 1 0 -6.08 0.00
 -2 1 0 -4.79 0.00
 -1 1 0 0.80 0.00
 0 1 0 4.87 0.00
 1 1 0 -32.89 0.00
 2 1 0 -33.42 0.00
 4 1 0 -4.78 0.00
 5 1 0 -0.86 0.00
 6 1 0 -0.01 0.00
 7 1 0 0.13 0.00
 8 1 0 0.08 0.00
 -8 2 0 0.51 0.00
 -7 2 0 -0.15 0.00
 -6 2 0 -0.28 0.00
 -5 2 0 -0.70 0.00
 -4 2 0 -1.48 0.00
 -3 2 0 2.04 0.00
 -2 2 0 7.14 0.00
 -1 2 0 8.74 0.00
 0 2 0 6.93 0.00
 2 2 0 -8.52 0.00
 3 2 0 3.58 0.00
 4 2 0 2.44 0.00
 5 2 0 0.87 0.00
 6 2 0 0.19 0.00
 7 2 0 0.40 0.00
 8 2 0 0.34 0.00
 9 2 0 0.70 0.00
 -8 3 0 0.05 0.00
 -7 3 0 -0.91 0.00
 -6 3 0 -0.79 0.00
 -5 3 0 -0.49 0.00
 -4 3 0 0.11 0.00
 -3 3 0 3.91 0.00
 -2 3 0 4.62 0.00
 -1 3 0 -1.03 0.00
 0 3 0 -3.98 0.00
 1 3 0 -10.24 0.00
 2 3 0 1.82 0.00
 3 3 0 7.45 0.00
 4 3 0 2.20 0.00
 5 3 0 0.91 0.00
 6 3 0 0.84 0.00
 7 3 0 0.57 0.00
 8 3 0 -0.30 0.00
 -7 4 0 -0.08 0.00
 -6 4 0 0.48 0.00
 -5 4 0 0.58 0.00
 -4 4 0 0.34 0.00
 -3 4 0 1.60 0.00
 -2 4 0 -0.12 0.00
 -1 4 0 -4.00 0.00
 0 4 0 -3.22 0.00
 1 4 0 -3.07 0.00
 2 4 0 2.58 0.00
 3 4 0 2.81 0.00
 4 4 0 -1.25 0.00
 5 4 0 -0.64 0.00
 6 4 0 -0.17 0.00
 7 4 0 0.11 0.00
 8 4 0 0.37 0.00
 -7 5 0 -0.27 0.00
 -6 5 0 0.46 0.00
 -5 5 0 0.22 0.00
 -4 5 0 0.22 0.00
 -3 5 0 1.61 0.00
 -2 5 0 0.35 0.00
 -1 5 0 -2.36 0.00
 0 5 0 -2.30 0.00
 1 5 0 -2.12 0.00
 2 5 0 0.31 0.00
 3 5 0 1.11 0.00
 4 5 0 -0.02 0.00
 5 5 0 1.27 0.00
 6 5 0 1.20 0.00
 7 5 0 0.45 0.00
 8 5 0 -0.10 0.00
 -7 6 0 0.18 0.00
 -6 6 0 0.74 0.00
 -5 6 0 0.40 0.00
 -4 6 0 0.30 0.00
 -3 6 0 0.60 0.00
 -2 6 0 -0.55 0.00
 -1 6 0 -1.77 0.00
 0 6 0 -1.15 0.00
 1 6 0 -0.73 0.00
 2 6 0 1.41 0.00
 3 6 0 2.85 0.00
 4 6 0 2.07 0.00
 5 6 0 1.68 0.00
 6 6 0 0.49 0.00
 7 6 0 -0.28 0.00
 8 6 0 0.07 0.00
 -6 7 0 0.19 0.00
 -5 7 0 -0.19 0.00
 -4 7 0 0.22 0.00
 -3 7 0 0.67 0.00
 -2 7 0 -0.17 0.00
 -1 7 0 -1.74 0.00
 0 7 0 -1.50 0.00
 1 7 0 -0.69 0.00
 2 7 0 1.72 0.00
 3 7 0 2.15 0.00
 4 7 0 0.70 0.00
 5 7 0 -0.35 0.00
 6 7 0 -1.04 0.00
 7 7 0 -1.12 0.00
 8 7 0 -0.26 0.00
 -5 8 0 0.34 0.00
 -4 8 0 0.46 0.00
 -3 8 0 -0.12 0.00
 -2 8 0 -0.84 0.00
 -1 8 0 -1.39 0.00
 0 8 0 -0.14 0.00
 1 8 0 0.72 0.00
 2 8 0 1.92 0.00
 3 8 0 0.93 0.00
 4 8 0 -0.15 0.00
 5 8 0 -0.76 0.00
 6 8 0 -0.94 0.00
 7 8 0 -0.92 0.00
 -5 9 0 -0.39 0.00
 -4 9 0 -0.38 0.00
 -3 9 0 -0.56 0.00
 -2 9 0 -0.57 0.00
 -1 9 0 -0.85 0.00
 0 9 0 0.10 0.00
 1 9 0 0.86 0.00
 2 9 0 1.65 0.00
 3 9 0 0.48 0.00
 4 9 0 -0.42 0.00
 5 9 0 -0.50 0.00
 6 9 0 0.59 0.00
 7 9 0 0.76 0.00
 -4 10 0 0.04 0.00
 -3 10 0 -0.43 0.00
 -2 10 0 -0.34 0.00
 -1 10 0 0.18 0.00
 0 10 0 1.15 0.00
 1 10 0 1.13 0.00
 2 10 0 0.52 0.00
 3 10 0 -0.49 0.00
 4 10 0 -1.04 0.00
 5 10 0 -1.03 0.00
 6 10 0 -0.04 0.00
 -2 11 0 -0.42 0.00
 -1 11 0 0.25 0.00
 0 11 0 0.93 0.00
 1 11 0 0.65 0.00
 2 11 0 -0.17 0.00
 3 11 0 -0.13 0.00
 4 11 0 -0.12 0.00
 5 11 0 -0.09 0.00
 -1 12 0 0.55 0.00
 0 12 0 0.27 0.00
 1 12 0 -0.36 0.00
 2 12 0 -0.79 0.00
 3 12 0 -0.03 0.00
 -2 -12 1 0.80 0.00
 -1 -12 1 0.15 0.00
 0 -12 1 -0.20 0.00
 -5 -11 1 0.51 0.00
 -4 -11 1 0.60 0.00
 -3 -11 1 -0.11 0.00
 -2 -11 1 -0.28 0.00
 -1 -11 1 -1.24 0.00
 0 -11 1 -0.81 0.00
 1 -11 1 -0.12 0.00
 2 -11 1 0.35 0.00
 -6 -10 1 -0.20 0.00
 -5 -10 1 0.58 0.00
 -4 -10 1 0.34 0.00
 -3 -10 1 -0.32 0.00
 -2 -10 1 -0.21 0.00
 -1 -10 1 -0.54 0.00
 0 -10 1 -0.06 0.00
 1 -10 1 0.40 0.00
 2 -10 1 0.51 0.00
 3 -10 1 0.15 0.00
 -6 -9 1 -0.03 0.00
 -5 -9 1 0.70 0.00
 -4 -9 1 0.00 0.00
 -3 -9 1 -1.19 0.00
 -2 -9 1 -1.57 0.00
 -1 -9 1 -0.94 0.00
 0 -9 1 0.19 0.00
 1 -9 1 0.80 0.00
 2 -9 1 0.61 0.00
 3 -9 1 0.49 0.00
 4 -9 1 0.18 0.00
 -7 -8 1 0.56 0.00
 -6 -8 1 0.07 0.00
 -5 -8 1 -0.35 0.00
 -4 -8 1 -0.76 0.00
 -3 -8 1 -0.96 0.00
 -2 -8 1 -0.73 0.00
 -1 -8 1 0.42 0.00
 0 -8 1 1.03 0.00
 1 -8 1 1.23 0.00
 2 -8 1 0.30 0.00
 3 -8 1 -0.19 0.00
 4 -8 1 -0.50 0.00
 5 -8 1 -0.06 0.00
 -7 -7 1 1.39 0.00
 -6 -7 1 0.34 0.00
 -5 -7 1 -0.74 0.00
 -4 -7 1 -0.98 0.00
 -3 -7 1 -1.14 0.00
 -2 -7 1 -0.67 0.00
 -1 -7 1 0.76 0.00
 0 -7 1 1.18 0.00
 1 -7 1 1.38 0.00
 2 -7 1 0.17 0.00
 3 -7 1 -0.22 0.00
 4 -7 1 -0.19 0.00
 5 -7 1 0.06 0.00
 6 -7 1 -0.16 0.00
 -8 -6 1 0.31 0.00
 -7 -6 1 0.15 0.00
 -6 -6 1 -1.42 0.00
 -5 -6 1 -1.83 0.00
 -4 -6 1 -1.08 0.00
 -3 -6 1 -1.05 0.00
 -2 -6 1 0.01 0.00
 -1 -6 1 1.48 0.00
 0 -6 1 1.58 0.00
 1 -6 1 1.40 0.00
 2 -6 1 -0.73 0.00
 3 -6 1 -1.61 0.00
 4 -6 1 -0.88 0.00
 5 -6 1 -0.23 0.00
 6 -6 1 -0.04 0.00
 7 -6 1 0.15 0.00
 -8 -5 1 -0.11 0.00
 -7 -5 1 -0.55 0.00
 -6 -5 1 -0.96 0.00
 -5 -5 1 0.38 0.00
 -4 -5 1 1.90 0.00
 -3 -5 1 0.52 0.00
 -2 -5 1 0.55 0.00
 -1 -5 1 1.69 0.00
 0 -5 1 1.48 0.00
 1 -5 1 0.82 0.00
 2 -5 1 -1.71 0.00
 3 -5 1 -1.77 0.00
 4 -5 1 -0.17 0.00
 5 -5 1 -0.28 0.00
 6 -5 1 -0.44 0.00
 7 -5 1 -0.14 0.00
 -8 -4 1 -0.35 0.00
 -7 -4 1 -0.91 0.00
 -6 -4 1 -0.79 0.00
 -5 -4 1 0.24 0.00
 -4 -4 1 -0.70 0.00
 -3 -4 1 -5.43 0.00
 -2 -4 1 -3.80 0.00
 -1 -4 1 2.24 0.00
 0 -4 1 3.74 0.00
 1 -4 1 2.95 0.00
 2 -4 1 -1.34 0.00
 3 -4 1 -1.75 0.00
 4 -4 1 0.22 0.00
 5 -4 1 0.08 0.00
 6 -4 1 0.06 0.00
 7 -4 1 0.10 0.00
 -8 -3 1 -0.62 0.00
 -7 -3 1 -1.04 0.00
 -6 -3 1 -0.52 0.00
 -5 -3 1 -0.34 0.00
 -4 -3 1 -2.75 0.00
 -3 -3 1 -6.35 0.00
 -2 -3 1 1.43 0.00
 -1 -3 1 8.81 0.00
 1 -3 1 -3.28 0.00
 2 -3 1 -5.89 0.00
 3 -3 1 -1.82 0.00
 4 -3 1 2.14 0.00
 5 -3 1 1.80 0.00
 6 -3 1 1.35 0.00
 7 -3 1 0.79 0.00
 8 -3 1 0.06 0.00
 -8 -2 1 -0.22 0.00
 -7 -2 1 -0.33 0.00
 -6 -2 1 -0.14 0.00
 -5 -2 1 -0.72 0.00
 -4 -2 1 -1.85 0.00
 -3 -2 1 0.16 0.00
 -2 -2 1 14.50 0.00
 -1 -2 1 18.07 0.00
 0 -2 1 -0.61 0.00
 1 -2 1 -0.76 0.00
 2 -2 1 -0.44 0.00
 3 -2 1 1.99 0.00
 4 -2 1 2.25 0.00
 5 -2 1 0.05 0.00
 6 -2 1 -0.58 0.00
 7 -2 1 -0.55 0.00
 8 -2 1 -0.63 0.00
 -8 -1 1 0.00 0.00
 -7 -1 1 0.21 0.00
 -6 -1 1 1.00 0.00
 -5 -1 1 2.52 0.00
 -4 -1 1 6.11 0.00
 -3 -1 1 13.36 0.00
 -2 -1 1 24.33 0.00
 -1 -1 1 10.63 0.00
 0 -1 1 -21.77 0.00
 1 -1 1 -10.37 0.00
 2 -1 1 -0.90 0.00
 3 -1 1 3.64 0.00
 4 -1 1 3.21 0.00
 5 -1 1 0.77 0.00
 6 -1 1 0.17 0.00
 7 -1 1 0.06 0.00
 8 -1 1 -0.44 0.00
 -8 0 1 0.08 0.00
 -7 0 1 0.32 0.00
 -6 0 1 0.21 0.00
 -5 0 1 -0.09 0.00
 -4 0 1 -0.47 0.00
 -3 0 1 -5.31 0.00
 -2 0 1 -17.29 0.00
 -1 0 1 -46.18 0.00
 0 0 1 -64.10 0.00
 1 0 1 -19.42 0.00
 2 0 1 2.15 0.00
 3 0 1 3.85 0.00
 4 0 1 0.91 0.00
 5 0 1 -1.00 0.00
 6 0 1 -0.57 0.00
 7 0 1 -0.11 0.00
 8 0 1 -0.22 0.00
 -8 1 1 0.03 0.00
 -7 1 1 0.63 0.00
 -6 1 1 0.99 0.00
 -5 1 1 2.05 0.00
 -4 1 1 4.41 0.00
 -3 1 1 4.01 0.00
 -2 1 1 1.56 0.00
 -1 1 1 -7.30 0.00
 0 1 1 -8.46 0.00
 1 1 1 26.41 0.00
 2 1 1 20.48 0.00
 3 1 1 5.76 0.00
 4 1 1 0.40 0.00
 5 1 1 -1.11 0.00
 6 1 1 -0.81 0.00
 7 1 1 -0.51 0.00
 8 1 1 -0.25 0.00
 -8 2 1 -0.57 0.00
 -7 2 1 0.27 0.00
 -6 2 1 0.46 0.00
 -5 2 1 0.50 0.00
 -4 2 1 -0.48 0.00
 -3 2 1 -6.67 0.00
 -2 2 1 -12.01 0.00
 -1 2 1 -14.03 0.00
 0 2 1 -9.87 0.00
 2 2 1 1.44 0.00
 3 2 1 -6.13 0.00
 4 2 1 -2.65 0.00
 5 2 1 -0.74 0.00
 6 2 1 0.15 0.00
 7 2 1 0.03 0.00
 8 2 1 0.05 0.00
 -8 3 1 0.00 0.00
 -7 3 1 0.63 0.00
 -6 3 1 -0.25 0.00
 -5 3 1 -0.84 0.00
 -4 3 1 -0.95 0.00
 -3 3 1 -2.40 0.00
 -2 3 1 0.91 0.00
 -1 3 1 6.28 0.00
 0 3 1 7.02 0.00
 1 3 1 12.74 0.00
 2 3 1 -0.68 0.00
 3 3 1 -3.34 0.00
 4 3 1 0.48 0.00
 5 3 1 -0.51 0.00
 6 3 1 -0.71 0.00
 7 3 1 -0.36 0.00
 8 3 1 0.25 0.00
 9 3 1 -0.55 0.00
 -7 4 1 0.61 0.00
 -6 4 1 -0.42 0.00
 -5 4 1 -0.75 0.00
 -4 4 1 -0.90 0.00
 -3 4 1 -2.45 0.00
 -2 4 1 -0.63 0.00
 -1 4 1 2.20 0.00
 0 4 1 2.03 0.00
 1 4 1 5.13 0.00
 2 4 1 -0.52 0.00
 3 4 1 -0.26 0.00
 4 4 1 1.63 0.00
 5 4 1 0.01 0.00
 6 4 1 0.57 0.00
 7 4 1 0.44 0.00
 8 4 1 -0.04 0.00
 -7 5 1 0.03 0.00
 -6 5 1 -0.71 0.00
 -5 5 1 -0.12 0.00
 -4 5 1 0.25 0.00
 -3 5 1 -0.29 0.00
 -2 5 1 1.93 0.00
 -1 5 1 3.60 0.00
 0 5 1 2.06 0.00
 1 5 1 1.05 0.00
 2 5 1 -3.48 0.00
 3 5 1 -4.42 0.00
 4 5 1 -3.16 0.00
 5 5 1 -3.12 0.00
 6 5 1 -1.15 0.00
 7 5 1 -0.38 0.00
 8 5 1 -0.07 0.00
 -7 6 1 -0.47 0.00
 -6 6 1 -1.00 0.00
 -5 6 1 -0.28 0.00
 -4 6 1 0.05 0.00
 -3 6 1 -0.30 0.00
 -2 6 1 1.08 0.00
 -1 6 1 2.04 0.00
 0 6 1 1.53 0.00
 1 6 1 0.89 0.00
 2 6 1 -2.25 0.00
 3 6 1 -3.33 0.00
 4 6 1 -1.30 0.00
 5 6 1 0.25 0.00
 6 6 1 1.51 0.00
 7 6 1 0.72 0.00
 8 6 1 0.02 0.00
 -6 7 1 -0.62 0.00
 -5 7 1 -0.19 0.00
 -4 7 1 -0.50 0.00
 -3 7 1 -0.77 0.00
 -2 7 1 0.78 0.00
 -1 7 1 1.92 0.00
 0 7 1 0.85 0.00
 1 7 1 -0.69 0.00
 2 7 1 -3.22 0.00
 3 7 1 -2.52 0.00
 4 7 1 0.18 0.00
 5 7 1 1.13 0.00
 6 7 1 1.02 0.00
 7 7 1 0.29 0.00
 8 7 1 -0.05 0.00
 -5 8 1 0.06 0.00
 -4 8 1 0.06 0.00
 -3 8 1 0.48 0.00
 -2 8 1 1.32 0.00
 -1 8 1 1.14 0.00
 0 8 1 -0.90 0.00
 1 8 1 -1.84 0.00
 2 8 1 -2.85 0.00
 3 8 1 -0.92 0.00
 4 8 1 0.92 0.00
 5 8 1 1.40 0.00
 6 8 1 1.13 0.00
 7 8 1 0.51 0.00
 -5 9 1 0.29 0.00
 -4 9 1 0.41 0.00
 -3 9 1 0.62 0.00
 -2 9 1 0.71 0.00
 -1 9 1 0.63 0.00
 0 9 1 -0.60 0.00
 1 9 1 -0.67 0.00
 2 9 1 -1.06 0.00
 3 9 1 0.87 0.00
 4 9 1 1.21 0.00
 5 9 1 0.27 0.00
 6 9 1 -0.94 0.00
 7 9 1 -0.91 0.00
 -4 10 1 0.28 0.00
 -3 10 1 0.50 0.00
 -2 10 1 -0.18 0.00
 -1 10 1 -1.09 0.00
 0 10 1 -2.13 0.00
 1 10 1 -1.21 0.00
 2 10 1 -0.43 0.00
 3 10 1 1.25 0.00
 4 10 1 1.14 0.00
 5 10 1 0.73 0.00
 6 10 1 -0.05 0.00
 -3 11 1 0.44 0.00
 -2 11 1 0.04 0.00
 -1 11 1 -0.40 0.00
 0 11 1 -0.58 0.00
 1 11 1 0.39 0.00
 2 11 1 0.41 0.00
 3 11 1 0.14 0.00
 4 11 1 -0.42 0.00
 5 11 1 -0.15 0.00
 -1 12 1 -0.45 0.00
 0 12 1 -0.13 0.00
 1 12 1 0.56 0.00
 2 12 1 0.67 0.00
 3 12 1 0.33 0.00
 4 12 1 0.31 0.00
 -4 -11 2 -0.30 0.00
 -3 -11 2 0.55 0.00
 -2 -11 2 0.58 0.00
 -1 -11 2 0.96 0.00
 0 -11 2 0.25 0.00
 1 -11 2 -0.05 0.00
 2 -11 2 -0.07 0.00
 -5 -10 2 -0.25 0.00
 -4 -10 2 0.20 0.00
 -3 -10 2 0.77 0.00
 -2 -10 2 0.13 0.00
 -1 -10 2 0.31 0.00
 0 -10 2 -0.31 0.00
 1 -10 2 -0.45 0.00
 2 -10 2 -0.46 0.00
 3 -10 2 -0.13 0.00
 -6 -9 2 0.22 0.00
 -5 -9 2 -0.16 0.00
 -4 -9 2 0.43 0.00
 -3 -9 2 1.26 0.00
 -2 -9 2 0.83 0.00
 -1 -9 2 0.49 0.00
 0 -9 2 -0.46 0.00
 1 -9 2 -0.62 0.00
 2 -9 2 -0.50 0.00
 3 -9 2 -0.07 0.00
 4 -9 2 0.24 0.00
 -7 -8 2 -0.58 0.00
 -6 -8 2 0.27 0.00
 -5 -8 2 1.04 0.00
 -4 -8 2 1.40 0.00
 -3 -8 2 1.21 0.00
 -2 -8 2 0.14 0.00
 -1 -8 2 -0.69 0.00
 0 -8 2 -1.24 0.00
 1 -8 2 -0.96 0.00
 2 -8 2 -0.19 0.00
 3 -8 2 0.25 0.00
 4 -8 2 0.20 0.00
 5 -8 2 -0.43 0.00
 -7 -7 2 -0.85 0.00
 -6 -7 2 0.98 0.00
 -5 -7 2 1.57 0.00
 -4 -7 2 0.38 0.00
 -3 -7 2 -0.25 0.00
 -2 -7 2 -0.47 0.00
 -1 -7 2 -0.91 0.00
 0 -7 2 -1.23 0.00
 1 -7 2 -1.19 0.00
 2 -7 2 -0.10 0.00
 3 -7 2 0.40 0.00
 4 -7 2 0.54 0.00
 5 -7 2 0.20 0.00
 6 -7 2 0.33 0.00
 -8 -6 2 -0.48 0.00
 -7 -6 2 -0.08 0.00
 -6 -6 2 1.26 0.00
 -5 -6 2 0.78 0.00
 -4 -6 2 -0.66 0.00
 -3 -6 2 -0.86 0.00
 -2 -6 2 -1.18 0.00
 -1 -6 2 -1.84 0.00
 0 -6 2 -1.49 0.00
 1 -6 2 -0.48 0.00
 2 -6 2 1.80 0.00
 3 -6 2 1.94 0.00
 4 -6 2 0.79 0.00
 5 -6 2 -0.21 0.00
 6 -6 2 -0.44 0.00
 -8 -5 2 0.61 0.00
 -7 -5 2 1.19 0.00
 -6 -5 2 1.42 0.00
 -5 -5 2 -0.30 0.00
 -4 -5 2 -1.24 0.00
 -3 -5 2 0.49 0.00
 -2 -5 2 0.88 0.00
 -1 -5 2 -0.49 0.00
 0 -5 2 -0.74 0.00
 1 -5 2 0.09 0.00
 2 -5 2 2.33 0.00
 3 -5 2 1.66 0.00
 4 -5 2 0.15 0.00
 5 -5 2 0.06 0.00
 6 -5 2 0.08 0.00
 7 -5 2 0.31 0.00
 -8 -4 2 0.53 0.00
 -7 -4 2 1.22 0.00
 -6 -4 2 0.69 0.00
 -5 -4 2 -0.59 0.00
 -4 -4 2 1.08 0.00
 -3 -4 2 4.36 0.00
 -2 -4 2 1.54 0.00
 -1 -4 2 -3.23 0.00
 0 -4 2 -2.41 0.00
 1 -4 2 0.75 0.00
 2 -4 2 3.69 0.00
 3 -4 2 1.41 0.00
 4 -4 2 -1.40 0.00
 5 -4 2 -1.18 0.00
 6 -4 2 -0.90 0.00
 7 -4 2 -0.40 0.00
 -8 -3 2 1.00 0.00
 -7 -3 2 1.04 0.00
 -6 -3 2 0.12 0.00
 -5 -3 2 -0.20 0.00
 -4 -3 2 2.15 0.00
 -3 -3 2 2.86 0.00
 -2 -3 2 -4.95 0.00
 -1 -3 2 -8.06 0.00
 0 -3 2 -0.57 0.00
 1 -3 2 2.41 0.00
 2 -3 2 2.21 0.00
 3 -3 2 -1.52 0.00
 4 -3 2 -3.07 0.00
 5 -3 2 -1.28 0.00
 6 -3 2 -0.46 0.00
 7 -3 2 0.08 0.00
 8 -3 2 0.09 0.00
 -8 -2 2 0.43 0.00
 -7 -2 2 0.13 0.00
 -6 -2 2 -0.45 0.00
 -5 -2 2 -0.03 0.00
 -4 -2 2 1.19 0.00
 -3 -2 2 -1.96 0.00
 -2 -2 2 -12.56 0.00
 -1 -2 2 -9.66 0.00
 0 -2 2 4.30 0.00
 1 -2 2 2.43 0.00
 2 -2 2 -0.13 0.00
 3 -2 2 -2.83 0.00
 4 -2 2 -2.63 0.00
 5 -2 2 -0.09 0.00
 6 -2 2 0.78 0.00
 7 -2 2 0.95 0.00
 8 -2 2 0.75 0.00
 -8 -1 2 -0.05 0.00
 -7 -1 2 -0.34 0.00
 -6 -1 2 -1.29 0.00
 -5 -1 2 -2.59 0.00
 -4 -1 2 -4.08 0.00
 -3 -1 2 -6.37 0.00
 -2 -1 2 -7.48 0.00
 -1 -1 2 10.73 0.00
 0 -1 2 26.92 0.00
 1 -1 2 8.53 0.00
 2 -1 2 -1.55 0.00
 3 -1 2 -3.65 0.00
 4 -1 2 -1.66 0.00
 5 -1 2 0.48 0.00
 6 -1 2 0.16 0.00
 7 -1 2 -0.25 0.00
 8 -1 2 -0.03 0.00
 -8 0 2 -0.26 0.00
 -7 0 2 -0.80 0.00
 -6 0 2 -0.99 0.00
 -5 0 2 -0.88 0.00
 -4 0 2 -1.23 0.00
 -3 0 2 -0.78 0.00
 -2 0 2 0.96 0.00
 -1 0 2 14.16 0.00
 0 0 2 14.31 0.00
 1 0 2 -16.82 0.00
 2 0 2 -17.37 0.00
 3 0 2 -7.58 0.00
 4 0 2 -0.95 0.00
 5 0 2 1.44 0.00
 6 0 2 0.84 0.00
 7 0 2 0.36 0.00
 8 0 2 0.37 0.00
 -8 1 2 -0.50 0.00
 -7 1 2 -1.05 0.00
 -6 1 2 -1.19 0.00
 -5 1 2 -1.25 0.00
 -4 1 2 -0.79 0.00
 -3 1 2 4.24 0.00
 -1 1 2 25.47 0.00
 0 1 2 23.64 0.00
 1 1 2 -4.73 0.00
 2 1 2 -0.33 0.00
 3 1 2 4.51 0.00
 4 1 2 3.39 0.00
 5 1 2 2.00 0.00
 6 1 2 0.73 0.00
 7 1 2 0.43 0.00
 8 1 2 0.20 0.00
 -8 2 2 0.24 0.00
 -7 2 2 -0.13 0.00
 -6 2 2 0.11 0.00
 -5 2 2 0.42 0.00
 -4 2 2 1.37 0.00
 -3 2 2 5.32 0.00
 -2 2 2 5.88 0.00
 -1 2 2 6.93 0.00
 0 2 2 2.34 0.00
 1 2 2 -13.31 0.00
 2 2 2 0.27 0.00
 3 2 2 4.50 0.00
 4 2 2 1.74 0.00
 5 2 2 0.85 0.00
 6 2 2 -0.04 0.00
 7 2 2 -0.20 0.00
 8 2 2 -0.40 0.00
 9 2 2 0.37 0.00
 -8 3 2 -0.41 0.00
 -7 3 2 -0.51 0.00
 -6 3 2 0.60 0.00
 -5 3 2 0.96 0.00
 -4 3 2 0.63 0.00
 -3 3 2 1.24 0.00
 -2 3 2 -2.21 0.00
 -1 3 2 -3.91 0.00
 0 3 2 -5.02 0.00
 1 3 2 -12.67 0.00
 2 3 2 -2.23 0.00
 3 3 2 -1.72 0.00
 4 3 2 -2.76 0.00
 5 3 2 -0.26 0.00
 6 3 2 0.23 0.00
 7 3 2 0.61 0.00
 8 3 2 0.65 0.00
 9 3 2 1.61 0.00
 -7 4 2 -0.41 0.00
 -6 4 2 0.83 0.00
 -5 4 2 1.04 0.00
 -4 4 2 1.22 0.00
 -3 4 2 2.60 0.00
 -2 4 2 0.62 0.00
 -1 4 2 -0.59 0.00
 0 4 2 -1.17 0.00
 1 4 2 -5.43 0.00
 2 4 2 1.23 0.00
 3 4 2 1.25 0.00
 4 4 2 0.89 0.00
 5 4 2 1.74 0.00
 6 4 2 -0.43 0.00
 7 4 2 -1.04 0.00
 8 4 2 -1.05 0.00
 -7 5 2 0.59 0.00
 -6 5 2 0.91 0.00
 -5 5 2 -0.10 0.00
 -4 5 2 -0.84 0.00
 -3 5 2 -0.80 0.00
 -2 5 2 -3.06 0.00
 -1 5 2 -3.52 0.00
 0 5 2 -2.15 0.00
 1 5 2 -1.47 0.00
 2 5 2 4.58 0.00
 3 5 2 5.21 0.00
 4 5 2 3.75 0.00
 5 5 2 2.38 0.00
 6 5 2 -0.27 0.00
 7 5 2 0.02 0.00
 8 5 2 0.29 0.00
 -7 6 2 0.50 0.00
 -6 6 2 0.83 0.00
 -5 6 2 0.19 0.00
 -4 6 2 0.14 0.00
 -3 6 2 0.53 0.00
 -2 6 2 -1.47 0.00
 -1 6 2 -2.58 0.00
 0 6 2 -2.02 0.00
 1 6 2 -0.40 0.00
 2 6 2 3.89 0.00
 3 6 2 3.60 0.00
 4 6 2 0.31 0.00
 5 6 2 -1.85 0.00
 6 6 2 -2.71 0.00
 7 6 2 -0.94 0.00
 8 6 2 -0.49 0.00
 -6 7 2 0.63 0.00
 -5 7 2 0.12 0.00
 -4 7 2 -0.03 0.00
 -3 7 2 -0.27 0.00
 -2 7 2 -1.92 0.00
 -1 7 2 -1.57 0.00
 0 7 2 0.92 0.00
 1 7 2 3.06 0.00
 2 7 2 4.75 0.00
 3 7 2 2.18 0.00
 4 7 2 -1.18 0.00
 5 7 2 -1.58 0.00
 6 7 2 -0.69 0.00
 7 7 2 0.75 0.00
 8 7 2 0.52 0.00
 -6 8 2 -0.22 0.00
 -5 8 2 -0.42 0.00
 -4 8 2 -0.39 0.00
 -3 8 2 -0.60 0.00
 -2 8 2 -1.38 0.00
 -1 8 2 -0.49 0.00
 0 8 2 1.56 0.00
 1 8 2 2.02 0.00
 2 8 2 2.37 0.00
 3 8 2 -0.14 0.00
 4 8 2 -1.81 0.00
 5 8 2 -1.34 0.00
 6 8 2 -0.43 0.00
 7 8 2 0.44 0.00
 -5 9 2 -0.16 0.00
 -4 9 2 -0.50 0.00
 -3 9 2 -0.58 0.00
 -2 9 2 -0.37 0.00
 -1 9 2 0.50 0.00
 0 9 2 1.63 0.00
 1 9 2 0.73 0.00
 2 9 2 0.29 0.00
 3 9 2 -2.13 0.00
 4 9 2 -1.99 0.00
 5 9 2 -0.48 0.00
 6 9 2 0.40 0.00
 7 9 2 0.40 0.00
 -4 10 2 -0.31 0.00
 -3 10 2 -0.20 0.00
 -2 10 2 0.54 0.00
 -1 10 2 1.31 0.00
 0 10 2 1.84 0.00
 1 10 2 0.26 0.00
 2 10 2 -0.17 0.00
 3 10 2 -1.60 0.00
 4 10 2 -0.67 0.00
 5 10 2 0.18 0.00
 6 10 2 0.49 0.00
 -3 11 2 -0.14 0.00
 -2 11 2 0.49 0.00
 -1 11 2 0.50 0.00
 0 11 2 0.04 0.00
 1 11 2 -1.34 0.00
 2 11 2 -0.61 0.00
 3 11 2 -0.37 0.00
 4 11 2 0.60 0.00
 5 11 2 0.55 0.00
 -1 12 2 0.03 0.00
 0 12 2 -0.05 0.00
 1 12 2 -0.58 0.00
 2 12 2 -0.18 0.00
 3 12 2 -0.14 0.00
 4 12 2 0.11 0.00
 -3 -11 3 -0.38 0.00
 -2 -11 3 -0.34 0.00
 -1 -11 3 -0.20 0.00
 0 -11 3 0.25 0.00
 1 -11 3 0.23 0.00
 -5 -10 3 0.17 0.00
 -4 -10 3 -0.56 0.00
 -3 -10 3 -0.97 0.00
 -2 -10 3 -0.58 0.00
 -1 -10 3 -0.41 0.00
 0 -10 3 0.12 0.00
 1 -10 3 0.15 0.00
 2 -10 3 0.16 0.00
 3 -10 3 0.16 0.00
 -6 -9 3 -0.60 0.00
 -5 -9 3 -0.50 0.00
 -4 -9 3 -0.78 0.00
 -3 -9 3 -0.81 0.00
 -2 -9 3 0.11 0.00
 -1 -9 3 0.31 0.00
 0 -9 3 0.59 0.00
 1 -9 3 0.36 0.00
 2 -9 3 0.19 0.00
 3 -9 3 -0.35 0.00
 4 -9 3 -0.46 0.00
 -6 -8 3 -0.45 0.00
 -5 -8 3 -1.23 0.00
 -4 -8 3 -1.16 0.00
 -3 -8 3 -0.81 0.00
 -2 -8 3 0.24 0.00
 -1 -8 3 0.57 0.00
 0 -8 3 1.11 0.00
 1 -8 3 0.93 0.00
 2 -8 3 0.41 0.00
 3 -8 3 -0.29 0.00
 4 -8 3 -0.08 0.00
 5 -8 3 0.46 0.00
 -7 -7 3 0.13 0.00
 -6 -7 3 -1.73 0.00
 -5 -7 3 -1.57 0.00
 -4 -7 3 0.29 0.00
 -3 -7 3 0.77 0.00
 -2 -7 3 1.00 0.00
 -1 -7 3 1.03 0.00
 0 -7 3 1.32 0.00
 1 -7 3 0.72 0.00
 2 -7 3 -0.40 0.00
 3 -7 3 -0.89 0.00
 4 -7 3 -0.43 0.00
 5 -7 3 0.12 0.00
 6 -7 3 -0.24 0.00
 -7 -6 3 -0.27 0.00
 -6 -6 3 -1.27 0.00
 -5 -6 3 -0.33 0.00
 -4 -6 3 1.40 0.00
 -3 -6 3 1.30 0.00
 -2 -6 3 1.13 0.00
 -1 -6 3 1.15 0.00
 0 -6 3 0.88 0.00
 1 -6 3 -0.33 0.00
 2 -6 3 -1.91 0.00
 3 -6 3 -1.50 0.00
 4 -6 3 -0.35 0.00
 5 -6 3 0.43 0.00
 6 -6 3 0.37 0.00
 -8 -5 3 -0.80 0.00
 -7 -5 3 -1.50 0.00
 -6 -5 3 -1.30 0.00
 -5 -5 3 0.29 0.00
 -4 -5 3 0.65 0.00
 -3 -5 3 -0.96 0.00
 -2 -5 3 -0.89 0.00
 -1 -5 3 0.79 0.00
 0 -5 3 0.84 0.00
 1 -5 3 -0.92 0.00
 2 -5 3 -2.92 0.00
 3 -5 3 -1.55 0.00
 4 -5 3 0.14 0.00
 5 -5 3 0.57 0.00
 6 -5 3 0.36 0.00
 7 -5 3 -0.29 0.00
 -8 -4 3 -0.69 0.00
 -7 -4 3 -0.90 0.00
 -6 -4 3 0.06 0.00
 -5 -4 3 1.01 0.00
 -4 -4 3 -0.39 0.00
 -3 -4 3 -1.59 0.00
 -2 -4 3 1.16 0.00
 -1 -4 3 3.27 0.00
 0 -4 3 -0.13 0.00
 1 -4 3 -3.51 0.00
 2 -4 3 -3.77 0.00
 3 -4 3 0.17 0.00
 4 -4 3 2.21 0.00
 5 -4 3 1.45 0.00
 6 -4 3 0.90 0.00
 7 -4 3 0.19 0.00
 -8 -3 3 -0.94 0.00
 -7 -3 3 -0.85 0.00
 -6 -3 3 0.14 0.00
 -5 -3 3 0.38 0.00
 -4 -3 3 -1.47 0.00
 -3 -3 3 -0.47 0.00
 -2 -3 3 5.10 0.00
 -1 -3 3 5.28 0.00
 0 -3 3 -0.75 0.00
 1 -3 3 -1.65 0.00
 2 -3 3 0.01 0.00
 3 -3 3 2.55 0.00
 4 -3 3 2.30 0.00
 5 -3 3 0.13 0.00
 6 -3 3 -0.47 0.00
 7 -3 3 -0.58 0.00
 8 -3 3 -0.05 0.00
 -8 -2 3 -0.85 0.00
 -7 -2 3 -0.13 0.00
 -6 -2 3 0.91 0.00
 -5 -2 3 0.86 0.00
 -4 -2 3 -0.36 0.00
 -3 -2 3 1.83 0.00
 -2 -2 3 5.25 0.00
 -1 -2 3 -2.56 0.00
 0 -2 3 -11.20 0.00
 1 -2 3 -5.26 0.00
 2 -2 3 0.81 0.00
 3 -2 3 3.90 0.00
 4 -2 3 3.20 0.00
 5 -2 3 0.56 0.00
 6 -2 3 -0.29 0.00
 7 -2 3 -0.60 0.00
 8 -2 3 -0.44 0.00
 -8 -1 3 0.13 0.00
 -7 -1 3 0.73 0.00
 -6 -1 3 1.41 0.00
 -5 -1 3 1.64 0.00
 -4 -1 3 0.94 0.00
 -3 -1 3 1.05 0.00
 -2 -1 3 -0.06 0.00
 -1 -1 3 -10.03 0.00
 0 -1 3 -9.63 0.00
 1 -1 3 7.04 0.00
 2 -1 3 9.32 0.00
 3 -1 3 4.44 0.00
 4 -1 3 0.19 0.00
 5 -1 3 -1.79 0.00
 6 -1 3 -0.82 0.00
 7 -1 3 0.04 0.00
 8 -1 3 0.16 0.00
 -8 0 3 0.44 0.00
 -7 0 3 1.23 0.00
 -6 0 3 1.48 0.00
 -5 0 3 1.26 0.00
 -4 0 3 1.32 0.00
 -3 0 3 2.70 0.00
 -2 0 3 4.62 0.00
 -1 0 3 -0.77 0.00
 0 0 3 4.50 0.00
 1 0 3 19.56 0.00
 2 0 3 11.79 0.00
 3 0 3 2.70 0.00
 4 0 3 -0.99 0.00
 5 0 3 -1.93 0.00
 6 0 3 -0.89 0.00
 7 0 3 -0.53 0.00
 8 0 3 -0.64 0.00
 -8 1 3 0.89 0.00
 -7 1 3 1.22 0.00
 -6 1 3 0.68 0.00
 -5 1 3 -0.30 0.00
 -4 1 3 -2.39 0.00
 -3 1 3 -7.76 0.00
 -2 1 3 -14.10 0.00
 -1 1 3 -23.91 0.00
 0 1 3 -18.50 0.00
 1 1 3 -1.32 0.00
 2 1 3 -5.96 0.00
 3 1 3 -6.65 0.00
 4 1 3 -3.64 0.00
 5 1 3 -1.71 0.00
 6 1 3 -0.13 0.00
 7 1 3 0.16 0.00
 8 1 3 0.26 0.00
 -8 2 3 0.34 0.00
 -7 2 3 0.12 0.00
 -6 2 3 -0.65 0.00
 -5 2 3 -0.90 0.00
 -4 2 3 -0.73 0.00
 -3 2 3 -1.05 0.00
 -2 2 3 1.36 0.00
 -1 2 3 -0.91 0.00
 0 2 3 2.29 0.00
 1 2 3 10.89 0.00
 2 2 3 0.81 0.00
 3 2 3 -1.01 0.00
 4 2 3 -0.46 0.00
 5 2 3 -0.95 0.00
 6 2 3 -0.24 0.00
 7 2 3 -0.31 0.00
 8 2 3 -0.26 0.00
 -8 3 3 0.69 0.00
 -7 3 3 0.05 0.00
 -6 3 3 -1.08 0.00
 -5 3 3 -1.06 0.00
 -4 3 3 -1.00 0.00
 -3 3 3 -2.38 0.00
 -2 3 3 -1.37 0.00
 -1 3 3 -3.14 0.00
 0 3 3 0.05 0.00
 1 3 3 8.40 0.00
 2 3 3 1.68 0.00
 3 3 3 1.72 0.00
 4 3 3 1.38 0.00
 5 3 3 -0.22 0.00
 6 3 3 0.19 0.00
 7 3 3 -0.27 0.00
 8 3 3 -0.33 0.00
 -7 4 3 -0.55 0.00
 -6 4 3 -1.32 0.00
 -5 4 3 -0.66 0.00
 -4 4 3 -0.20 0.00
 -3 4 3 -0.65 0.00
 -2 4 3 1.22 0.00
 -1 4 3 0.48 0.00
 0 4 3 1.61 0.00
 1 4 3 4.99 0.00
 2 4 3 -2.28 0.00
 3 4 3 -2.94 0.00
 4 4 3 -2.74 0.00
 5 4 3 -1.91 0.00
 6 4 3 1.09 0.00
 7 4 3 1.46 0.00
 8 4 3 1.46 0.00
 -7 5 3 -0.67 0.00
 -6 5 3 -0.74 0.00
 -5 5 3 0.18 0.00
 -4 5 3 0.55 0.00
 -3 5 3 0.32 0.00
 -2 5 3 2.35 0.00
 -1 5 3 2.77 0.00
 0 5 3 3.38 0.00
 1 5 3 3.30 0.00
 2 5 3 -3.49 0.00
 3 5 3 -3.67 0.00
 4 5 3 -1.68 0.00
 5 5 3 0.16 0.00
 6 5 3 1.88 0.00
 7 5 3 0.21 0.00
 8 5 3 -0.17 0.00
 -7 6 3 -0.49 0.00
 -6 6 3 -0.52 0.00
 -5 6 3 0.12 0.00
 -4 6 3 0.19 0.00
 -3 6 3 0.20 0.00
 -2 6 3 2.44 0.00
 -1 6 3 2.60 0.00
 0 6 3 0.82 0.00
 1 6 3 -2.12 0.00
 2 6 3 -6.44 0.00
 3 6 3 -3.91 0.00
 4 6 3 0.21 0.00
 5 6 3 1.98 0.00
 6 6 3 2.29 0.00
 7 6 3 0.44 0.00
 8 6 3 0.55 0.00
 -6 7 3 -0.04 0.00
 -5 7 3 0.57 0.00
 -4 7 3 0.96 0.00
 -3 7 3 1.30 0.00
 -2 7 3 2.49 0.00
 -1 7 3 0.93 0.00
 0 7 3 -2.07 0.00
 1 7 3 -3.91 0.00
 2 7 3 -4.47 0.00
 3 7 3 -0.58 0.00
 4 7 3 2.36 0.00
 5 7 3 1.81 0.00
 6 7 3 0.41 0.00
 7 7 3 -1.21 0.00
 8 7 3 -0.43 0.00
 -6 8 3 0.00 0.00
 -5 8 3 0.18 0.00
 -4 8 3 0.35 0.00
 -3 8 3 0.55 0.00
 -2 8 3 0.85 0.00
 -1 8 3 -0.79 0.00
 0 8 3 -2.43 0.00
 1 8 3 -1.88 0.00
 2 8 3 -1.01 0.00
 3 8 3 1.95 0.00
 4 8 3 2.69 0.00
 5 8 3 1.02 0.00
 6 8 3 -0.17 0.00
 7 8 3 -0.83 0.00
 -5 9 3 0.28 0.00
 -4 9 3 0.55 0.00
 -3 9 3 0.15 0.00
 -2 9 3 -0.63 0.00
 -1 9 3 -1.79 0.00
 0 9 3 -2.14 0.00
 1 9 3 -0.52 0.00
 2 9 3 0.17 0.00
 3 9 3 2.17 0.00
 4 9 3 1.64 0.00
 5 9 3 0.34 0.00
 6 9 3 0.11 0.00
 7 9 3 0.01 0.00
 -4 10 3 0.14 0.00
 -3 10 3 -0.01 0.00
 -2 10 3 -0.36 0.00
 -1 10 3 -0.63 0.00
 0 10 3 -0.43 0.00
 1 10 3 1.13 0.00
 2 10 3 0.93 0.00
 3 10 3 1.84 0.00
 4 10 3 0.45 0.00
 5 10 3 -0.71 0.00
 6 10 3 -0.79 0.00
 -3 11 3 -0.18 0.00
 -2 11 3 -0.77 0.00
 -1 11 3 -0.53 0.00
 0 11 3 0.23 0.00
 1 11 3 1.51 0.00
 2 11 3 0.52 0.00
 3 11 3 0.53 0.00
 4 11 3 -0.85 0.00
 5 11 3 -1.40 0.00
 6 11 3 -1.26 0.00
 -1 12 3 0.22 0.00
 0 12 3 0.15 0.00
 1 12 3 0.58 0.00
 2 12 3 -0.18 0.00
 3 12 3 -0.08 0.00
 4 12 3 -0.47 0.00
 -2 -11 4 0.18 0.00
 -1 -11 4 -0.15 0.00
 0 -11 4 -0.22 0.00
 -4 -10 4 0.75 0.00
 -3 -10 4 0.74 0.00
 -2 -10 4 0.66 0.00
 -1 -10 4 0.03 0.00
 0 -10 4 -0.04 0.00
 1 -10 4 0.10 0.00
 2 -10 4 0.18 0.00
 -5 -9 4 0.61 0.00
 -4 -9 4 0.74 0.00
 -3 -9 4 0.18 0.00
 -2 -9 4 -0.50 0.00
 -1 -9 4 -0.74 0.00
 0 -9 4 -0.47 0.00
 1 -9 4 -0.34 0.00
 2 -9 4 -0.16 0.00
 3 -9 4 0.22 0.00
 -6 -8 4 0.97 0.00
 -5 -8 4 1.13 0.00
 -4 -8 4 0.28 0.00
 -3 -8 4 -0.15 0.00
 -2 -8 4 -0.55 0.00
 -1 -8 4 -0.48 0.00
 0 -8 4 -0.65 0.00
 1 -8 4 -0.62 0.00
 2 -8 4 -0.16 0.00
 3 -8 4 0.58 0.00
 4 -8 4 0.22 0.00
 -7 -7 4 0.07 0.00
 -6 -7 4 1.52 0.00
 -5 -7 4 1.15 0.00
 -4 -7 4 -0.33 0.00
 -3 -7 4 -0.26 0.00
 -2 -7 4 -0.61 0.00
 -1 -7 4 -0.65 0.00
 0 -7 4 -0.85 0.00
 1 -7 4 -0.01 0.00
 2 -7 4 0.91 0.00
 3 -7 4 1.10 0.00
 4 -7 4 -0.01 0.00
 5 -7 4 -0.46 0.00
 -7 -6 4 0.49 0.00
 -6 -6 4 1.20 0.00
 -5 -6 4 0.08 0.00
 -4 -6 4 -1.44 0.00
 -3 -6 4 -0.71 0.00
 -2 -6 4 -0.60 0.00
 -1 -6 4 -0.63 0.00
 0 -6 4 -0.75 0.00
 1 -6 4 0.49 0.00
 2 -6 4 1.38 0.00
 3 -6 4 0.91 0.00
 4 -6 4 -0.18 0.00
 5 -6 4 -0.55 0.00
 6 -6 4 -0.07 0.00
 -7 -5 4 1.04 0.00
 -6 -5 4 0.41 0.00
 -5 -5 4 -0.68 0.00
 -4 -5 4 -0.91 0.00
 -3 -5 4 -0.04 0.00
 -2 -5 4 -0.88 0.00
 -1 -5 4 -1.75 0.00
 0 -5 4 -0.77 0.00
 1 -5 4 1.77 0.00
 2 -5 4 2.61 0.00
 3 -5 4 0.64 0.00
 4 -5 4 -0.89 0.00
 5 -5 4 -0.92 0.00
 6 -5 4 -0.02 0.00
 7 -5 4 0.54 0.00
 -8 -4 4 0.70 0.00
 -7 -4 4 0.67 0.00
 -6 -4 4 -0.28 0.00
 -5 -4 4 -0.58 0.00
 -4 -4 4 0.13 0.00
 -3 -4 4 0.12 0.00
 -2 -4 4 -1.63 0.00
 -1 -4 4 -1.42 0.00
 0 -4 4 2.18 0.00
 1 -4 4 4.12 0.00
 2 -4 4 2.44 0.00
 3 -4 4 -1.04 0.00
 4 -4 4 -1.76 0.00
 5 -4 4 -1.00 0.00
 6 -4 4 -0.49 0.00
 7 -4 4 -0.04 0.00
 -8 -3 4 1.05 0.00
 -7 -3 4 0.88 0.00
 -6 -3 4 -0.29 0.00
 -5 -3 4 -0.46 0.00
 -4 -3 4 0.58 0.00
 -3 -3 4 -0.58 0.00
 -2 -3 4 -2.78 0.00
 -1 -3 4 -0.58 0.00
 0 -3 4 3.97 0.00
 1 -3 4 3.03 0.00
 2 -3 4 0.00 0.00
 3 -3 4 -2.39 0.00
 4 -3 4 -1.53 0.00
 5 -3 4 0.27 0.00
 6 -3 4 0.53 0.00
 7 -3 4 0.21 0.00
 -8 -2 4 0.61 0.00
 -7 -2 4 -0.17 0.00
 -6 -2 4 -1.35 0.00
 -5 -2 4 -1.33 0.00
 -4 -2 4 -0.02 0.00
 -3 -2 4 -0.48 0.00
 -2 -2 4 0.85 0.00
 -1 -2 4 7.50 0.00
 0 -2 4 9.19 0.00
 1 -2 4 0.59 0.00
 2 -2 4 -4.61 0.00
 3 -2 4 -4.91 0.00
 4 -2 4 -2.43 0.00
 5 -2 4 -0.06 0.00
 6 -2 4 0.24 0.00
 7 -2 4 0.31 0.00
 8 -2 4 0.18 0.00
 -8 -1 4 -0.13 0.00
 -7 -1 4 -1.26 0.00
 -6 -1 4 -1.76 0.00
 -5 -1 4 -0.82 0.00
 -4 -1 4 1.18 0.00
 -3 -1 4 0.86 0.00
 -2 -1 4 0.08 0.00
 -1 -1 4 1.07 0.00
 0 -1 4 -5.57 0.00
 1 -1 4 -14.48 0.00
 2 -1 4 -10.06 0.00
 3 -1 4 -3.00 0.00
 4 -1 4 0.89 0.00
 5 -1 4 2.27 0.00
 6 -1 4 1.19 0.00
 7 -1 4 0.39 0.00
 8 -1 4 0.19 0.00
 -8 0 4 -0.48 0.00
 -7 0 4 -1.07 0.00
 -6 0 4 -0.90 0.00
 -5 0 4 -0.08 0.00
 -4 0 4 1.10 0.00
 -3 0 4 0.75 0.00
 -2 0 4 0.45 0.00
 -1 0 4 3.40 0.00
 0 0 4 -1.50 0.00
 1 0 4 -7.52 0.00
 2 0 4 -1.28 0.00
 3 0 4 2.53 0.00
 4 0 4 2.73 0.00
 5 0 4 2.14 0.00
 6 0 4 0.64 0.00
 7 0 4 0.33 0.00
 8 0 4 0.54 0.00
 -8 1 4 -1.26 0.00
 -7 1 4 -1.39 0.00
 -6 1 4 -0.13 0.00
 -5 1 4 1.16 0.00
 -4 1 4 2.26 0.00
 -3 1 4 2.62 0.00
 -2 1 4 2.13 0.00
 -1 1 4 4.65 0.00
 0 1 4 -0.24 0.00
 1 1 4 -5.16 0.00
 2 1 4 1.42 0.00
 3 1 4 2.82 0.00
 4 1 4 1.94 0.00
 5 1 4 1.23 0.00
 6 1 4 -0.17 0.00
 7 1 4 -0.52 0.00
 8 1 4 -0.40 0.00
 -8 2 4 -0.52 0.00
 -7 2 4 0.23 0.00
 -6 2 4 1.29 0.00
 -5 2 4 1.30 0.00
 -4 2 4 0.91 0.00
 -3 2 4 0.54 0.00
 -2 2 4 0.22 0.00
 -1 2 4 4.76 0.00
 0 2 4 1.87 0.00
 1 2 4 -4.25 0.00
 2 2 4 -0.22 0.00
 3 2 4 0.07 0.00
 4 2 4 0.55 0.00
 5 2 4 0.61 0.00
 6 2 4 -0.30 0.00
 7 2 4 0.35 0.00
 8 2 4 0.77 0.00
 -8 3 4 -0.63 0.00
 -7 3 4 0.71 0.00
 -6 3 4 1.75 0.00
 -5 3 4 1.12 0.00
 -4 3 4 0.86 0.00
 -3 3 4 1.82 0.00
 -2 3 4 2.26 0.00
 -1 3 4 5.38 0.00
 0 3 4 1.64 0.00
 2 3 4 1.06 0.00
 3 3 4 1.68 0.00
 4 3 4 1.95 0.00
 5 3 4 1.32 0.00
 6 3 4 -0.42 0.00
 7 3 4 -0.41 0.00
 8 3 4 -0.68 0.00
 -7 4 4 1.09 0.00
 -6 4 4 1.06 0.00
 -5 4 4 -0.44 0.00
 -4 4 4 -1.08 0.00
 -3 4 4 -0.95 0.00
 -2 4 4 -1.77 0.00
 -1 4 4 -0.31 0.00
 0 4 4 -2.99 0.00
 1 4 4 -5.40 0.00
 2 4 4 1.37 0.00
 3 4 4 2.59 0.00
 4 4 4 1.80 0.00
 5 4 4 -0.13 0.00
 6 4 4 -2.17 0.00
 7 4 4 -1.01 0.00
 8 4 4 -0.58 0.00
 -7 5 4 0.53 0.00
 -6 5 4 0.53 0.00
 -5 5 4 -0.21 0.00
 -4 5 4 0.03 0.00
 -3 5 4 0.37 0.00
 -2 5 4 -1.28 0.00
 -1 5 4 -1.74 0.00
 0 5 4 -3.34 0.00
 1 5 4 -2.57 0.00
 2 5 4 3.81 0.00
 3 5 4 2.64 0.00
 4 5 4 -0.69 0.00
 5 5 4 -2.45 0.00
 6 5 4 -2.62 0.00
 7 5 4 -0.11 0.00
 8 5 4 -0.08 0.00
 -7 6 4 0.43 0.00
 -6 6 4 0.20 0.00
 -5 6 4 -0.67 0.00
 -4 6 4 -0.91 0.00
 -3 6 4 -1.40 0.00
 -2 6 4 -3.07 0.00
 -1 6 4 -1.72 0.00
 0 6 4 1.01 0.00
 1 6 4 4.12 0.00
 2 6 4 7.02 0.00
 3 6 4 2.74 0.00
 4 6 4 -1.04 0.00
 5 6 4 -1.29 0.00
 6 6 4 -0.93 0.00
 7 6 4 0.50 0.00
 8 6 4 -0.40 0.00
 -6 7 4 -0.40 0.00
 -5 7 4 -1.06 0.00
 -4 7 4 -1.16 0.00
 -3 7 4 -1.16 0.00
 -2 7 4 -1.77 0.00
 -1 7 4 0.04 0.00
 0 7 4 2.28 0.00
 1 7 4 2.94 0.00
 2 7 4 2.43 0.00
 3 7 4 -1.79 0.00
 4 7 4 -3.48 0.00
 5 7 4 -1.72 0.00
 6 7 4 -0.42 0.00
 7 7 4 0.71 0.00
 8 7 4 -0.31 0.00
 -5 8 4 -0.21 0.00
 -4 8 4 -0.63 0.00
 -3 8 4 -0.64 0.00
 -2 8 4 -0.12 0.00
 -1 8 4 2.03 0.00
 0 8 4 3.14 0.00
 1 8 4 1.69 0.00
 2 8 4 -0.01 0.00
 3 8 4 -2.86 0.00
 4 8 4 -2.45 0.00
 5 8 4 -0.13 0.00
 6 8 4 0.61 0.00
 7 8 4 0.87 0.00
 -5 9 4 -0.43 0.00
 -4 9 4 -0.31 0.00
 -3 9 4 0.42 0.00
 -2 9 4 1.22 0.00
 -1 9 4 1.78 0.00
 0 9 4 1.16 0.00
 1 9 4 -0.48 0.00
 2 9 4 -0.52 0.00
 3 9 4 -1.48 0.00
 4 9 4 -0.50 0.00
 5 9 4 0.40 0.00
 6 9 4 -0.01 0.00
 7 9 4 0.02 0.00
 -4 10 4 0.00 0.00
 -3 10 4 0.20 0.00
 -2 10 4 0.48 0.00
 -1 10 4 0.32 0.00
 0 10 4 -0.48 0.00
 1 10 4 -1.68 0.00
 2 10 4 -1.09 0.00
 3 10 4 -1.71 0.00
 4 10 4 -0.35 0.00
 5 10 4 0.65 0.00
 6 10 4 0.53 0.00
 -3 11 4 0.19 0.00
 -2 11 4 0.47 0.00
 -1 11 4 0.19 0.00
 0 11 4 -0.30 0.00
 1 11 4 -0.94 0.00
 2 11 4 -0.15 0.00
 3 11 4 -0.66 0.00
 4 11 4 0.72 0.00
 5 11 4 1.56 0.00
 6 11 4 1.18 0.00
 -1 12 4 -0.27 0.00
 0 12 4 -0.44 0.00
 1 12 4 -0.92 0.00
 2 12 4 -0.10 0.00
 3 12 4 -0.06 0.00
 4 12 4 0.70 0.00
 -3 -10 5 -0.10 0.00
 -2 -10 5 -0.13 0.00
 -1 -10 5 0.56 0.00
 0 -10 5 0.08 0.00
 1 -10 5 -0.07 0.00
 -5 -9 5 -0.29 0.00
 -4 -9 5 -0.26 0.00
 -3 -9 5 0.31 0.00
 -2 -9 5 0.20 0.00
 -1 -9 5 0.48 0.00
 0 -9 5 0.09 0.00
 1 -9 5 0.34 0.00
 2 -9 5 0.20 0.00
 3 -9 5 0.08 0.00
 -6 -8 5 -1.08 0.00
 -5 -8 5 -0.78 0.00
 -4 -8 5 0.31 0.00
 -3 -8 5 0.64 0.00
 -2 -8 5 0.48 0.00
 -1 -8 5 0.36 0.00
 0 -8 5 0.04 0.00
 1 -8 5 0.05 0.00
 2 -8 5 -0.45 0.00
 3 -8 5 -0.80 0.00
 4 -8 5 -0.22 0.00
 -6 -7 5 -1.15 0.00
 -5 -7 5 -0.80 0.00
 -4 -7 5 0.31 0.00
 -3 -7 5 0.00 0.00
 -2 -7 5 0.27 0.00
 -1 -7 5 0.46 0.00
 0 -7 5 0.47 0.00
 1 -7 5 -0.17 0.00
 2 -7 5 -0.81 0.00
 3 -7 5 -0.79 0.00
 4 -7 5 0.23 0.00
 5 -7 5 0.17 0.00
 -7 -6 5 -0.29 0.00
 -6 -6 5 -0.54 0.00
 -5 -6 5 0.54 0.00
 -4 -6 5 1.28 0.00
 -3 -6 5 -0.04 0.00
 -2 -6 5 0.30 0.00
 -1 -6 5 0.67 0.00
 0 -6 5 0.76 0.00
 1 -6 5 -0.42 0.00
 2 -6 5 -0.76 0.00
 3 -6 5 -0.31 0.00
 4 -6 5 0.74 0.00
 5 -6 5 0.60 0.00
 6 -6 5 -0.23 0.00
 -7 -5 5 -0.54 0.00
 -6 -5 5 -0.06 0.00
 -5 -5 5 0.47 0.00
 -4 -5 5 0.97 0.00
 -3 -5 5 0.79 0.00
 -2 -5 5 1.83 0.00
 -1 -5 5 1.40 0.00
 0 -5 5 -0.21 0.00
 1 -5 5 -2.29 0.00
 2 -5 5 -1.59 0.00
 3 -5 5 0.29 0.00
 4 -5 5 1.34 0.00
 5 -5 5 0.77 0.00
 6 -5 5 -0.45 0.00
 -7 -4 5 -0.45 0.00
 -6 -4 5 0.36 0.00
 -5 -4 5 0.24 0.00
 -4 -4 5 0.03 0.00
 -3 -4 5 0.15 0.00
 -2 -4 5 0.80 0.00
 -1 -4 5 -0.65 0.00
 0 -4 5 -3.13 0.00
 1 -4 5 -3.83 0.00
 2 -4 5 -1.42 0.00
 3 -4 5 0.85 0.00
 4 -4 5 1.04 0.00
 5 -4 5 0.57 0.00
 6 -4 5 0.03 0.00
 7 -4 5 0.11 0.00
 -8 -3 5 -1.03 0.00
 -7 -3 5 -0.83 0.00
 -6 -3 5 0.39 0.00
 -5 -3 5 0.45 0.00
 -4 -3 5 0.17 0.00
 -3 -3 5 0.67 0.00
 -2 -3 5 0.20 0.00
 -1 -3 5 -2.79 0.00
 0 -3 5 -4.95 0.00
 1 -3 5 -2.56 0.00
 2 -3 5 1.13 0.00
 3 -3 5 2.60 0.00
 4 -3 5 1.09 0.00
 5 -3 5 -0.30 0.00
 6 -3 5 -0.38 0.00
 7 -3 5 0.16 0.00
 -8 -2 5 -0.03 0.00
 -7 -2 5 0.70 0.00
 -6 -2 5 1.82 0.00
 -5 -2 5 1.13 0.00
 -4 -2 5 -0.75 0.00
 -3 -2 5 -1.48 0.00
 -2 -2 5 -3.19 0.00
 -1 -2 5 -4.95 0.00
 0 -2 5 -1.92 0.00
 1 -2 5 4.64 0.00
 2 -2 5 5.97 0.00
 3 -2 5 3.52 0.00
 4 -2 5 0.37 0.00
 5 -2 5 -1.10 0.00
 6 -2 5 -0.77 0.00
 7 -2 5 -0.30 0.00
 8 -2 5 -0.12 0.00
 -8 -1 5 0.01 0.00
 -7 -1 5 1.14 0.00
 -6 -1 5 1.62 0.00
 -5 -1 5 0.31 0.00
 -4 -1 5 -1.50 0.00
 -3 -1 5 -0.74 0.00
 -2 -1 5 0.28 0.00
 -1 -1 5 1.73 0.00
 0 -1 5 6.53 0.00
 1 -1 5 9.75 0.00
 2 -1 5 5.39 0.00
 3 -1 5 1.01 0.00
 4 -1 5 -1.33 0.00
 5 -1 5 -1.80 0.00
 6 -1 5 -0.68 0.00
 7 -1 5 -0.15 0.00
 8 -1 5 -0.16 0.00
 -8 0 5 0.40 0.00
 -7 0 5 0.82 0.00
 -6 0 5 0.18 0.00
 -5 0 5 -1.55 0.00
 -4 0 5 -3.34 0.00
 -3 0 5 -2.68 0.00
 -2 0 5 -1.72 0.00
 -1 0 5 -1.31 0.00
 0 0 5 2.32 0.00
 1 0 5 3.58 0.00
 2 0 5 -1.05 0.00
 3 0 5 -2.89 0.00
 4 0 5 -2.69 0.00
 5 0 5 -1.64 0.00
 6 0 5 -0.17 0.00
 7 0 5 0.07 0.00
 8 0 5 -0.14 0.00
 -8 1 5 1.42 0.00
 -7 1 5 1.28 0.00
 -6 1 5 -0.32 0.00
 -5 1 5 -1.49 0.00
 -4 1 5 -1.19 0.00
 -3 1 5 2.09 0.00
 -2 1 5 5.44 0.00
 -1 1 5 5.15 0.00
 0 1 5 6.52 0.00
 1 1 5 5.76 0.00
 2 1 5 0.90 0.00
 3 1 5 -0.63 0.00
 4 1 5 -1.63 0.00
 5 1 5 -1.41 0.00
 6 1 5 -0.13 0.00
 7 1 5 0.22 0.00
 8 1 5 -0.05 0.00
 -8 2 5 0.32 0.00
 -7 2 5 -0.90 0.00
 -6 2 5 -2.01 0.00
 -5 2 5 -1.79 0.00
 -4 2 5 -1.42 0.00
 -3 2 5 -1.16 0.00
 -2 2 5 -2.85 0.00
 -1 2 5 -6.98 0.00
 0 2 5 -3.84 0.00
 1 2 5 0.54 0.00
 2 2 5 -1.05 0.00
 3 2 5 -1.57 0.00
 4 2 5 -1.79 0.00
 5 2 5 0.09 0.00
 6 2 5 1.54 0.00
 7 2 5 0.70 0.00
 8 2 5 -0.19 0.00
 -7 3 5 -1.07 0.00
 -6 3 5 -1.61 0.00
 -5 3 5 -0.30 0.00
 -4 3 5 0.68 0.00
 -3 3 5 1.15 0.00
 -2 3 5 0.25 0.00
 -1 3 5 -2.72 0.00
 0 3 5 0.15 0.00
 1 3 5 2.27 0.00
 2 3 5 -2.12 0.00
 3 3 5 -3.44 0.00
 4 3 5 -3.23 0.00
 5 3 5 -0.92 0.00
 6 3 5 0.66 0.00
 7 3 5 0.23 0.00
 8 3 5 0.29 0.00
 -7 4 5 -1.16 0.00
 -6 4 5 -0.76 0.00
 -5 4 5 0.81 0.00
 -4 4 5 0.82 0.00
 -3 4 5 0.26 0.00
 -2 4 5 -0.33 0.00
 -1 4 5 -1.12 0.00
 0 4 5 2.79 0.00
 1 4 5 4.11 0.00
 2 4 5 -1.37 0.00
 3 4 5 -1.97 0.00
 4 4 5 -0.13 0.00
 5 4 5 2.23 0.00
 6 4 5 2.43 0.00
 7 4 5 0.23 0.00
 8 4 5 -0.12 0.00
 -7 5 5 -0.60 0.00
 -6 5 5 -0.33 0.00
 -5 5 5 0.67 0.00
 -4 5 5 0.31 0.00
 -3 5 5 0.24 0.00
 -2 5 5 0.80 0.00
 -1 5 5 0.42 0.00
 0 5 5 1.31 0.00
 1 5 5 -0.44 0.00
 2 5 5 -4.84 0.00
 3 5 5 -1.59 0.00
 4 5 5 2.66 0.00
 5 5 5 3.76 0.00
 6 5 5 2.36 0.00
 7 5 5 -0.32 0.00
 8 5 5 -0.02 0.00
 -6 6 5 0.06 0.00
 -5 6 5 0.98 0.00
 -4 6 5 0.99 0.00
 -3 6 5 1.54 0.00
 -2 6 5 2.26 0.00
 -1 6 5 0.51 0.00
 0 6 5 -1.51 0.00
 1 6 5 -3.36 0.00
 2 6 5 -4.50 0.00
 3 6 5 -0.10 0.00
 4 6 5 2.00 0.00
 5 6 5 0.51 0.00
 6 6 5 -0.44 0.00
 7 6 5 -1.27 0.00
 8 6 5 0.35 0.00
 -6 7 5 0.48 0.00
 -5 7 5 1.19 0.00
 -4 7 5 0.86 0.00
 -3 7 5 0.57 0.00
 -2 7 5 0.48 0.00
 -1 7 5 -1.27 0.00
 0 7 5 -2.50 0.00
 1 7 5 -1.95 0.00
 2 7 5 -0.70 0.00
 3 7 5 3.10 0.00
 4 7 5 3.41 0.00
 5 7 5 0.95 0.00
 6 7 5 0.31 0.00
 7 7 5 -0.18 0.00
 8 7 5 0.68 0.00
 -5 8 5 0.72 0.00
 -4 8 5 0.81 0.00
 -3 8 5 0.43 0.00
 -2 8 5 -0.34 0.00
 -1 8 5 -1.96 0.00
 0 8 5 -2.28 0.00
 1 8 5 -0.57 0.00
 2 8 5 0.69 0.00
 3 8 5 2.51 0.00
 4 8 5 1.18 0.00
 5 8 5 -1.11 0.00
 6 8 5 -0.98 0.00
 7 8 5 -0.85 0.00
 -5 9 5 0.31 0.00
 -4 9 5 -0.08 0.00
 -3 9 5 -0.64 0.00
 -2 9 5 -1.11 0.00
 -1 9 5 -1.08 0.00
 0 9 5 -0.03 0.00
 1 9 5 1.28 0.00
 2 9 5 0.85 0.00
 3 9 5 1.24 0.00
 4 9 5 -0.04 0.00
 5 9 5 -0.94 0.00
 6 9 5 -0.19 0.00
 7 9 5 -0.11 0.00
 -4 10 5 -0.13 0.00
 -3 10 5 -0.53 0.00
 -2 10 5 -1.04 0.00
 -1 10 5 -0.53 0.00
 0 10 5 0.67 0.00
 1 10 5 1.36 0.00
 2 10 5 0.50 0.00
 3 10 5 0.90 0.00
 4 10 5 -0.15 0.00
 5 10 5 -0.48 0.00
 6 10 5 0.16 0.00
 -3 11 5 0.08 0.00
 -2 11 5 0.11 0.00
 -1 11 5 0.43 0.00
 0 11 5 0.49 0.00
 1 11 5 0.28 0.00
 2 11 5 -0.17 0.00
 3 11 5 0.78 0.00
 4 11 5 -0.31 0.00
 5 11 5 -0.97 0.00
 6 11 5 -0.56 0.00
 -1 12 5 0.24 0.00
 0 12 5 0.69 0.00
 1 12 5 1.07 0.00
 2 12 5 0.40 0.00
 3 12 5 0.10 0.00
 4 12 5 -0.98 0.00
 -2 -10 6 -0.12 0.00
 -1 -10 6 -0.47 0.00
 0 -10 6 0.10 0.00
 -4 -9 6 -0.27 0.00
 -3 -9 6 -0.58 0.00
 -2 -9 6 0.02 0.00
 -1 -9 6 -0.20 0.00
 0 -9 6 0.13 0.00
 1 -9 6 -0.24 0.00
 2 -9 6 -0.09 0.00
 -5 -8 6 0.41 0.00
 -4 -8 6 -0.28 0.00
 -3 -8 6 -0.42 0.00
 -2 -8 6 -0.07 0.00
 -1 -8 6 -0.17 0.00
 0 -8 6 0.14 0.00
 1 -8 6 0.02 0.00
 2 -8 6 0.54 0.00
 3 -8 6 0.52 0.00
 4 -8 6 -0.04 0.00
 -6 -7 6 0.77 0.00
 -5 -7 6 0.33 0.00
 -4 -7 6 -0.60 0.00
 -3 -7 6 -0.20 0.00
 -2 -7 6 -0.26 0.00
 -1 -7 6 -0.54 0.00
 0 -7 6 -0.34 0.00
 1 -7 6 0.00 0.00
 2 -7 6 0.40 0.00
 3 -7 6 0.25 0.00
 4 -7 6 -0.18 0.00
 5 -7 6 0.37 0.00
 -6 -6 6 0.06 0.00
 -5 -6 6 -0.64 0.00
 -4 -6 6 -0.77 0.00
 -3 -6 6 0.42 0.00
 -2 -6 6 -0.23 0.00
 -1 -6 6 -0.52 0.00
 0 -6 6 -0.11 0.00
 1 -6 6 0.68 0.00
 2 -6 6 0.53 0.00
 3 -6 6 0.00 0.00
 4 -6 6 -0.82 0.00
 5 -6 6 -0.33 0.00
 -7 -5 6 0.26 0.00
 -6 -5 6 0.15 0.00
 -5 -5 6 -0.17 0.00
 -4 -5 6 -0.78 0.00
 -3 -5 6 -0.48 0.00
 -2 -5 6 -0.98 0.00
 -1 -5 6 0.08 0.00
 0 -5 6 1.44 0.00
 1 -5 6 2.27 0.00
 2 -5 6 0.79 0.00
 3 -5 6 -0.51 0.00
 4 -5 6 -1.29 0.00
 5 -5 6 -0.60 0.00
 6 -5 6 0.38 0.00
 -7 -4 6 0.21 0.00
 -6 -4 6 -0.55 0.00
 -5 -4 6 -0.35 0.00
 -4 -4 6 -0.40 0.00
 -3 -4 6 -0.31 0.00
 -2 -4 6 -0.33 0.00
 -1 -4 6 1.34 0.00
 0 -4 6 2.63 0.00
 1 -4 6 2.36 0.00
 2 -4 6 -0.11 0.00
 3 -4 6 -1.13 0.00
 4 -4 6 -0.94 0.00
 5 -4 6 -0.09 0.00
 6 -4 6 0.67 0.00
 -7 -3 6 0.31 0.00
 -6 -3 6 -0.64 0.00
 -5 -3 6 -0.36 0.00
 -4 -3 6 -0.09 0.00
 -3 -3 6 0.38 0.00
 -2 -3 6 1.63 0.00
 -1 -3 6 3.12 0.00
 0 -3 6 2.60 0.00
 1 -3 6 0.06 0.00
 2 -3 6 -2.44 0.00
 3 -3 6 -2.10 0.00
 4 -3 6 -0.52 0.00
 5 -3 6 0.35 0.00
 6 -3 6 0.36 0.00
 7 -3 6 -0.23 0.00
 -7 -2 6 -0.72 0.00
 -6 -2 6 -1.73 0.00
 -5 -2 6 -0.37 0.00
 -4 -2 6 1.69 0.00
 -3 -2 6 2.45 0.00
 -2 -2 6 2.66 0.00
 -1 -2 6 1.31 0.00
 0 -2 6 -1.60 0.00
 1 -2 6 -4.00 0.00
 2 -2 6 -3.31 0.00
 3 -2 6 -0.77 0.00
 4 -2 6 1.42 0.00
 5 -2 6 1.84 0.00
 6 -2 6 0.84 0.00
 7 -2 6 -0.15 0.00
 -8 -1 6 -0.04 0.00
 -7 -1 6 -0.75 0.00
 -6 -1 6 -1.05 0.00
 -5 -1 6 0.31 0.00
 -4 -1 6 1.32 0.00
 -3 -1 6 0.39 0.00
 -2 -1 6 0.03 0.00
 -1 -1 6 -1.08 0.00
 0 -1 6 -3.20 0.00
 1 -1 6 -4.44 0.00
 2 -1 6 -2.48 0.00
 3 -1 6 -0.15 0.00
 4 -1 6 1.24 0.00
 5 -1 6 0.94 0.00
 6 -1 6 -0.22 0.00
 7 -1 6 -0.41 0.00
 8 -1 6 -0.08 0.00
 -8 0 6 -0.29 0.00
 -7 0 6 -0.94 0.00
 -6 0 6 -0.13 0.00
 -5 0 6 2.12 0.00
 -4 0 6 3.24 0.00
 -3 0 6 0.94 0.00
 -2 0 6 -1.83 0.00
 -1 0 6 -4.25 0.00
 0 0 6 -5.63 0.00
 1 0 6 -4.52 0.00
 2 0 6 -0.95 0.00
 3 0 6 1.09 0.00
 4 0 6 1.84 0.00
 5 0 6 1.11 0.00
 6 0 6 -0.03 0.00
 7 0 6 -0.14 0.00
 8 0 6 0.02 0.00
 -7 1 6 -0.61 0.00
 -6 1 6 0.95 0.00
 -5 1 6 2.01 0.00
 -4 1 6 1.30 0.00
 -3 1 6 -1.70 0.00
 -2 1 6 -3.04 0.00
 -1 1 6 -1.82 0.00
 0 1 6 -1.39 0.00
 1 1 6 -1.22 0.00
 2 1 6 0.39 0.00
 3 1 6 1.48 0.00
 4 1 6 2.43 0.00
 5 1 6 1.39 0.00
 6 1 6 0.07 0.00
 7 1 6 -0.13 0.00
 8 1 6 0.16 0.00
 -7 2 6 1.10 0.00
 -6 2 6 2.07 0.00
 -5 2 6 1.62 0.00
 -4 2 6 0.42 0.00
 -3 2 6 -1.15 0.00
 -2 2 6 -0.28 0.00
 -1 2 6 1.78 0.00
 0 2 6 0.01 0.00
 1 2 6 -1.19 0.00
 2 2 6 1.40 0.00
 3 2 6 3.01 0.00
 4 2 6 2.68 0.00
 5 2 6 -0.54 0.00
 6 2 6 -2.12 0.00
 7 2 6 -1.40 0.00
 8 2 6 -0.23 0.00
 -7 3 6 1.08 0.00
 -6 3 6 1.07 0.00
 -5 3 6 -0.32 0.00
 -4 3 6 -1.48 0.00
 -3 3 6 -2.24 0.00
 -2 3 6 -0.69 0.00
 -1 3 6 1.18 0.00
 0 3 6 -1.27 0.00
 1 3 6 -1.90 0.00
 2 3 6 1.82 0.00
 3 3 6 2.98 0.00
 4 3 6 1.87 0.00
 5 3 6 -1.07 0.00
 6 3 6 -1.08 0.00
 7 3 6 0.36 0.00
 8 3 6 0.76 0.00
 -7 4 6 1.07 0.00
 -6 4 6 0.65 0.00
 -5 4 6 -0.46 0.00
 -4 4 6 -0.15 0.00
 -3 4 6 0.44 0.00
 -2 4 6 1.85 0.00
 -1 4 6 2.23 0.00
 0 4 6 -0.55 0.00
 1 4 6 -0.27 0.00
 2 4 6 3.34 0.00
 3 4 6 2.07 0.00
 4 4 6 -0.78 0.00
 5 4 6 -2.95 0.00
 6 4 6 -1.57 0.00
 7 4 6 0.33 0.00
 8 4 6 0.20 0.00
 -7 5 6 0.71 0.00
 -6 5 6 0.03 0.00
 -5 5 6 -1.26 0.00
 -4 5 6 -1.24 0.00
 -3 5 6 -1.26 0.00
 -2 5 6 -0.26 0.00
 -1 5 6 0.80 0.00
 0 5 6 0.50 0.00
 1 5 6 2.02 0.00
 2 5 6 3.76 0.00
 3 5 6 -0.60 0.00
 4 5 6 -3.93 0.00
 5 5 6 -3.74 0.00
 6 5 6 -1.10 0.00
 7 5 6 0.93 0.00
 8 5 6 0.25 0.00
 -6 6 6 -0.31 0.00
 -5 6 6 -1.05 0.00
 -4 6 6 -0.59 0.00
 -3 6 6 -0.70 0.00
 -2 6 6 -0.26 0.00
 -1 6 6 0.92 0.00
 0 6 6 1.36 0.00
 1 6 6 1.49 0.00
 2 6 6 1.15 0.00
 3 6 6 -2.28 0.00
 4 6 6 -2.34 0.00
 5 6 6 -0.02 0.00
 6 6 6 1.24 0.00
 7 6 6 1.61 0.00
 8 6 6 -0.01 0.00
 -6 7 6 -0.48 0.00
 -5 7 6 -1.12 0.00
 -4 7 6 -0.49 0.00
 -3 7 6 -0.11 0.00
 -2 7 6 0.54 0.00
 -1 7 6 1.83 0.00
 0 7 6 2.15 0.00
 1 7 6 1.03 0.00
 2 7 6 -0.18 0.00
 3 7 6 -2.70 0.00
 4 7 6 -1.83 0.00
 5 7 6 0.32 0.00
 6 7 6 0.28 0.00
 7 7 6 0.38 0.00
 8 7 6 -0.42 0.00
 -5 8 6 -0.75 0.00
 -4 8 6 -0.01 0.00
 -3 8 6 0.51 0.00
 -2 8 6 0.69 0.00
 -1 8 6 0.98 0.00
 0 8 6 0.41 0.00
 1 8 6 -1.04 0.00
 2 8 6 -1.30 0.00
 3 8 6 -1.91 0.00
 4 8 6 -0.15 0.00
 5 8 6 1.60 0.00
 6 8 6 0.80 0.00
 7 8 6 0.50 0.00
 -4 9 6 0.08 0.00
 -3 9 6 0.26 0.00
 -2 9 6 0.58 0.00
 -1 9 6 0.61 0.00
 0 9 6 -0.19 0.00
 1 9 6 -1.10 0.00
 2 9 6 -0.72 0.00
 3 9 6 -1.15 0.00
 4 9 6 0.07 0.00
 5 9 6 0.93 0.00
 6 9 6 0.04 0.00
 7 9 6 0.03 0.00
 -4 10 6 0.29 0.00
 -3 10 6 0.63 0.00
 -2 10 6 1.04 0.00
 -1 10 6 0.21 0.00
 0 10 6 -1.04 0.00
 1 10 6 -1.13 0.00
 2 10 6 -0.03 0.00
 3 10 6 -0.19 0.00
 4 10 6 0.62 0.00
 5 10 6 0.53 0.00
 6 10 6 -0.40 0.00
 -3 11 6 -0.14 0.00
 -2 11 6 -0.17 0.00
 -1 11 6 -0.66 0.00
 0 11 6 -0.54 0.00
 1 11 6 0.24 0.00
 2 11 6 0.53 0.00
 3 11 6 -0.30 0.00
 4 11 6 0.53 0.00
 5 11 6 0.66 0.00
 -1 12 6 -0.17 0.00
 0 12 6 -0.54 0.00
 1 12 6 -0.66 0.00
 2 12 6 -0.37 0.00
 3 12 6 -0.16 0.00
 4 12 6 0.73 0.00
 -3 -9 7 0.51 0.00
 -2 -9 7 0.08 0.00
 -1 -9 7 0.18 0.00
 0 -9 7 -0.06 0.00
 1 -9 7 0.18 0.00
 -4 -8 7 0.22 0.00
 -3 -8 7 0.10 0.00
 -2 -8 7 -0.35 0.00
 -1 -8 7 -0.09 0.00
 0 -8 7 0.07 0.00
 1 -8 7 0.24 0.00
 2 -8 7 -0.28 0.00
 3 -8 7 -0.17 0.00
 -5 -7 7 0.13 0.00
 -4 -7 7 0.61 0.00
 -3 -7 7 0.21 0.00
 -2 -7 7 0.17 0.00
 -1 -7 7 0.36 0.00
 0 -7 7 0.03 0.00
 1 -7 7 -0.14 0.00
 2 -7 7 -0.26 0.00
 3 -7 7 0.07 0.00
 4 -7 7 0.06 0.00
 -6 -6 7 -0.11 0.00
 -5 -6 7 0.15 0.00
 -4 -6 7 0.28 0.00
 -3 -6 7 -0.38 0.00
 -2 -6 7 0.02 0.00
 -1 -6 7 -0.10 0.00
 0 -6 7 -0.71 0.00
 1 -6 7 -0.85 0.00
 2 -6 7 -0.39 0.00
 3 -6 7 0.20 0.00
 4 -6 7 0.61 0.00
 5 -6 7 0.04 0.00
 -6 -5 7 -0.15 0.00
 -5 -5 7 0.31 0.00
 -4 -5 7 0.67 0.00
 -3 -5 7 -0.23 0.00
 -2 -5 7 -0.25 0.00
 -1 -5 7 -0.97 0.00
 0 -5 7 -1.58 0.00
 1 -5 7 -1.30 0.00
 2 -5 7 0.00 0.00
 3 -5 7 0.58 0.00
 4 -5 7 0.92 0.00
 5 -5 7 0.19 0.00
 6 -5 7 -0.29 0.00
 -7 -4 7 -0.16 0.00
 -6 -4 7 0.41 0.00
 -5 -4 7 0.28 0.00
 -4 -4 7 0.47 0.00
 -3 -4 7 0.21 0.00
 -2 -4 7 0.17 0.00
 -1 -4 7 -0.83 0.00
 0 -4 7 -1.13 0.00
 1 -4 7 -0.07 0.00
 2 -4 7 1.74 0.00
 3 -4 7 1.65 0.00
 4 -4 7 1.06 0.00
 5 -4 7 -0.16 0.00
 6 -4 7 -0.87 0.00
 -7 -3 7 0.37 0.00
 -6 -3 7 1.02 0.00
 -5 -3 7 0.32 0.00
 -4 -3 7 -0.56 0.00
 -3 -3 7 -1.74 0.00
 -2 -3 7 -2.26 0.00
 -1 -3 7 -1.81 0.00
 0 -3 7 -0.51 0.00
 1 -3 7 0.75 0.00
 2 -3 7 1.43 0.00
 3 -3 7 0.32 0.00
 4 -3 7 -0.42 0.00
 5 -3 7 -0.73 0.00
 6 -3 7 -0.53 0.00
 7 -3 7 0.24 0.00
 -7 -2 7 0.45 0.00
 -6 -2 7 1.24 0.00
 -5 -2 7 -0.13 0.00
 -4 -2 7 -1.62 0.00
 -3 -2 7 -1.73 0.00
 -2 -2 7 -0.92 0.00
 -1 -2 7 0.57 0.00
 0 -2 7 1.21 0.00
 1 -2 7 1.29 0.00
 2 -2 7 0.83 0.00
 3 -2 7 -0.73 0.00
 4 -2 7 -1.69 0.00
 5 -2 7 -1.36 0.00
 6 -2 7 -0.04 0.00
 7 -2 7 0.76 0.00
 -7 -1 7 0.77 0.00
 -6 -1 7 0.52 0.00
 -5 -1 7 -1.31 0.00
 -4 -1 7 -2.05 0.00
 -3 -1 7 -0.76 0.00
 -2 -1 7 0.21 0.00
 -1 -1 7 1.55 0.00
 0 -1 7 2.16 0.00
 1 -1 7 2.60 0.00
 2 -1 7 1.74 0.00
 3 -1 7 -0.04 0.00
 4 -1 7 -0.89 0.00
 5 -1 7 -0.44 0.00
 6 -1 7 0.54 0.00
 7 -1 7 0.48 0.00
 -7 0 7 0.86 0.00
 -6 0 7 0.07 0.00
 -5 0 7 -1.60 0.00
 -4 0 7 -1.30 0.00
 -3 0 7 1.59 0.00
 -2 0 7 3.61 0.00
 -1 0 7 4.69 0.00
 0 0 7 4.01 0.00
 1 0 7 3.36 0.00
 2 0 7 1.63 0.00
 3 0 7 -0.53 0.00
 4 0 7 -1.55 0.00
 5 0 7 -0.97 0.00
 6 0 7 0.15 0.00
 7 0 7 0.11 0.00
 8 0 7 0.04 0.00
 -7 1 7 0.00 0.00
 -6 1 7 -1.50 0.00
 -5 1 7 -2.41 0.00
 -4 1 7 -1.61 0.00
 -3 1 7 0.26 0.00
 -2 1 7 0.15 0.00
 -1 1 7 -0.69 0.00
 0 1 7 -0.95 0.00
 1 1 7 -0.08 0.00
 2 1 7 -0.91 0.00
 3 1 7 -2.24 0.00
 4 1 7 -2.19 0.00
 5 1 7 -0.55 0.00
 6 1 7 0.72 0.00
 7 1 7 0.53 0.00
 8 1 7 0.13 0.00
 -7 2 7 -0.64 0.00
 -6 2 7 -1.52 0.00
 -5 2 7 -0.96 0.00
 -4 2 7 0.99 0.00
 -3 2 7 3.38 0.00
 -2 2 7 3.34 0.00
 -1 2 7 2.24 0.00
 0 2 7 1.94 0.00
 1 2 7 1.18 0.00
 2 2 7 -1.87 0.00
 3 2 7 -3.63 0.00
 4 2 7 -2.54 0.00
 5 2 7 0.49 0.00
 6 2 7 1.58 0.00
 7 2 7 0.77 0.00
 8 2 7 -0.20 0.00
 -7 3 7 -1.01 0.00
 -6 3 7 -0.94 0.00
 -5 3 7 0.11 0.00
 -4 3 7 0.97 0.00
 -3 3 7 1.01 0.00
 -2 3 7 -0.72 0.00
 -1 3 7 -1.07 0.00
 0 3 7 1.09 0.00
 1 3 7 1.21 0.00
 2 3 7 -1.77 0.00
 3 3 7 -2.09 0.00
 4 3 7 0.13 0.00
 5 3 7 2.61 0.00
 6 3 7 1.42 0.00
 7 3 7 -0.34 0.00
 8 3 7 -0.87 0.00
 -7 4 7 -0.68 0.00
 -6 4 7 -0.22 0.00
 -5 4 7 0.54 0.00
 -4 4 7 0.73 0.00
 -3 4 7 0.65 0.00
 -2 4 7 -0.88 0.00
 -1 4 7 -1.80 0.00
 0 4 7 -1.50 0.00
 1 4 7 -2.74 0.00
 2 4 7 -4.26 0.00
 3 4 7 -1.44 0.00
 4 4 7 1.52 0.00
 5 4 7 2.61 0.00
 6 4 7 0.34 0.00
 7 4 7 -0.74 0.00
 8 4 7 -0.34 0.00
 -6 5 7 0.16 0.00
 -5 5 7 1.28 0.00
 -4 5 7 1.47 0.00
 -3 5 7 0.95 0.00
 -2 5 7 -1.07 0.00
 -1 5 7 -1.87 0.00
 0 5 7 -1.39 0.00
 1 5 7 -1.76 0.00
 2 5 7 -1.49 0.00
 3 5 7 2.39 0.00
 4 5 7 3.72 0.00
 5 5 7 2.32 0.00
 6 5 7 -0.65 0.00
 7 5 7 -1.37 0.00
 8 5 7 -0.37 0.00
 -6 6 7 0.44 0.00
 -5 6 7 0.97 0.00
 -4 6 7 0.50 0.00
 -3 6 7 -0.14 0.00
 -2 6 7 -1.76 0.00
 -1 6 7 -2.38 0.00
 0 6 7 -1.55 0.00
 1 6 7 -0.19 0.00
 2 6 7 1.18 0.00
 3 6 7 3.31 0.00
 4 6 7 1.93 0.00
 5 6 7 -0.07 0.00
 6 6 7 -1.22 0.00
 7 6 7 -1.24 0.00
 8 6 7 -0.29 0.00
 -6 7 7 0.40 0.00
 -5 7 7 0.78 0.00
 -4 7 7 -0.03 0.00
 -3 7 7 -0.57 0.00
 -2 7 7 -1.19 0.00
 -1 7 7 -1.25 0.00
 0 7 7 -0.54 0.00
 1 7 7 0.63 0.00
 2 7 7 1.13 0.00
 3 7 7 1.85 0.00
 4 7 7 0.15 0.00
 5 7 7 -1.15 0.00
 6 7 7 -1.09 0.00
 7 7 7 -1.03 0.00
 -5 8 7 0.25 0.00
 -4 8 7 -1.01 0.00
 -3 8 7 -1.35 0.00
 -2 8 7 -0.98 0.00
 -1 8 7 -0.37 0.00
 0 8 7 0.70 0.00
 1 8 7 1.75 0.00
 2 8 7 1.40 0.00
 3 8 7 1.20 0.00
 4 8 7 -0.42 0.00
 5 8 7 -1.25 0.00
 6 8 7 -0.31 0.00
 7 8 7 -0.08 0.00
 -4 9 7 0.03 0.00
 -3 9 7 0.30 0.00
 -2 9 7 0.26 0.00
 -1 9 7 0.10 0.00
 0 9 7 0.47 0.00
 1 9 7 0.67 0.00
 2 9 7 0.15 0.00
 3 9 7 0.45 0.00
 4 9 7 -0.33 0.00
 5 9 7 -0.65 0.00
 6 9 7 0.26 0.00
 7 9 7 0.08 0.00
 -3 10 7 -0.42 0.00
 -2 10 7 -0.59 0.00
 -1 10 7 0.25 0.00
 0 10 7 1.27 0.00
 1 10 7 0.93 0.00
 2 10 7 -0.03 0.00
 3 10 7 0.01 0.00
 4 10 7 -0.69 0.00
 5 10 7 -0.73 0.00
 6 10 7 0.01 0.00
 -2 11 7 -0.09 0.00
 -1 11 7 0.52 0.00
 0 11 7 0.42 0.00
 1 11 7 -0.47 0.00
 2 11 7 -0.67 0.00
 3 11 7 -0.18 0.00
 4 11 7 -0.67 0.00
 5 11 7 -0.41 0.00
 -1 12 7 0.10 0.00
 0 12 7 0.18 0.00
 1 12 7 0.05 0.00
 2 12 7 0.07 0.00
 3 12 7 0.03 0.00
 4 12 7 -0.40 0.00
 -3 -8 8 0.02 0.00
 -2 -8 8 0.44 0.00
 -1 -8 8 0.12 0.00
 0 -8 8 -0.26 0.00
 1 -8 8 -0.20 0.00
 2 -8 8 0.20 0.00
 -4 -7 8 -0.15 0.00
 -3 -7 8 -0.02 0.00
 -2 -7 8 0.06 0.00
 -1 -7 8 0.12 0.00
 0 -7 8 0.32 0.00
 1 -7 8 0.28 0.00
 2 -7 8 0.16 0.00
 3 -7 8 -0.19 0.00
 -5 -6 8 0.20 0.00
 -4 -6 8 -0.05 0.00
 -3 -6 8 0.39 0.00
 -2 -6 8 0.49 0.00
 -1 -6 8 0.60 0.00
 0 -6 8 0.73 0.00
 1 -6 8 0.37 0.00
 2 -6 8 -0.11 0.00
 3 -6 8 -0.63 0.00
 4 -6 8 -0.55 0.00
 -6 -5 8 0.09 0.00
 -5 -5 8 -0.52 0.00
 -4 -5 8 -0.67 0.00
 -3 -5 8 0.48 0.00
 -2 -5 8 0.66 0.00
 -1 -5 8 0.70 0.00
 0 -5 8 0.67 0.00
 1 -5 8 -0.06 0.00
 2 -5 8 -0.67 0.00
 3 -5 8 -0.58 0.00
 4 -5 8 -0.23 0.00
 5 -5 8 0.39 0.00
 -6 -4 8 -0.13 0.00
 -5 -4 8 -0.01 0.00
 -4 -4 8 -0.04 0.00
 -3 -4 8 0.50 0.00
 -2 -4 8 0.30 0.00
 -1 -4 8 0.29 0.00
 0 -4 8 0.10 0.00
 1 -4 8 -0.94 0.00
 2 -4 8 -1.66 0.00
 3 -4 8 -1.17 0.00
 4 -4 8 -0.69 0.00
 5 -4 8 0.13 0.00
 6 -4 8 0.42 0.00
 -6 -3 8 -1.17 0.00
 -5 -3 8 -0.32 0.00
 -4 -3 8 0.93 0.00
 -3 -3 8 1.97 0.00
 -2 -3 8 1.44 0.00
 -1 -3 8 0.37 0.00
 0 -3 8 0.09 0.00
 1 -3 8 0.06 0.00
 2 -3 8 0.27 0.00
 3 -3 8 1.11 0.00
 4 -3 8 1.24 0.00
 5 -3 8 1.20 0.00
 6 -3 8 0.67 0.00
 -7 -2 8 -0.45 0.00
 -6 -2 8 -0.85 0.00
 -5 -2 8 0.37 0.00
 -4 -2 8 1.32 0.00
 -3 -2 8 0.83 0.00
 -2 -2 8 -0.46 0.00
 -1 -2 8 -1.34 0.00
 0 -2 8 -0.68 0.00
 1 -2 8 -0.53 0.00
 2 -2 8 -0.49 0.00
 3 -2 8 0.36 0.00
 4 -2 8 0.47 0.00
 5 -2 8 -0.08 0.00
 6 -2 8 -0.74 0.00
 7 -2 8 -0.63 0.00
 -7 -1 8 -0.74 0.00
 -6 -1 8 -0.06 0.00
 -5 -1 8 2.00 0.00
 -4 -1 8 2.54 0.00
 -3 -1 8 0.67 0.00
 -2 -1 8 -1.00 0.00
 -1 -1 8 -1.86 0.00
 0 -1 8 -1.07 0.00
 1 -1 8 -1.10 0.00
 2 -1 8 -0.64 0.00
 3 -1 8 0.59 0.00
 4 -1 8 0.98 0.00
 5 -1 8 0.50 0.00
 6 -1 8 -0.57 0.00
 7 -1 8 -0.59 0.00
 -7 0 8 -0.42 0.00
 -6 0 8 0.39 0.00
 -5 0 8 1.02 0.00
 -4 0 8 -0.12 0.00
 -3 0 8 -2.26 0.00
 -2 0 8 -2.36 0.00
 -1 0 8 -1.75 0.00
 0 0 8 -0.78 0.00
 1 0 8 -1.56 0.00
 2 0 8 -0.86 0.00
 3 0 8 0.93 0.00
 4 0 8 1.41 0.00
 5 0 8 0.82 0.00
 6 0 8 -0.25 0.00
 7 0 8 0.05 0.00
 -7 1 8 0.01 0.00
 -6 1 8 1.61 0.00
 -5 1 8 2.10 0.00
 -4 1 8 1.02 0.00
 -3 1 8 -0.74 0.00
 -2 1 8 -0.95 0.00
 -1 1 8 -1.01 0.00
 0 1 8 -0.72 0.00
 1 1 8 -1.21 0.00
 2 1 8 0.32 0.00
 3 1 8 1.86 0.00
 4 1 8 1.29 0.00
 5 1 8 -0.09 0.00
 6 1 8 -1.27 0.00
 7 1 8 -0.56 0.00
 -7 2 8 0.08 0.00
 -6 2 8 1.10 0.00
 -5 2 8 0.40 0.00
 -4 2 8 -1.21 0.00
 -3 2 8 -2.64 0.00
 -2 2 8 -2.11 0.00
 -1 2 8 -1.08 0.00
 0 2 8 -0.13 0.00
 1 2 8 0.40 0.00
 2 2 8 2.63 0.00
 3 2 8 3.38 0.00
 4 2 8 1.44 0.00
 5 2 8 -0.51 0.00
 6 2 8 -0.96 0.00
 7 2 8 0.12 0.00
 8 2 8 0.44 0.00
 -7 3 8 0.71 0.00
 -6 3 8 0.94 0.00
 -5 3 8 -0.20 0.00
 -4 3 8 -1.02 0.00
 -3 3 8 -0.78 0.00
 -2 3 8 0.29 0.00
 -1 3 8 0.09 0.00
 0 3 8 -0.69 0.00
 1 3 8 -0.14 0.00
 2 3 8 2.01 0.00
 3 3 8 1.28 0.00
 4 3 8 -1.37 0.00
 5 3 8 -2.55 0.00
 6 3 8 -1.35 0.00
 7 3 8 0.00 0.00
 8 3 8 0.32 0.00
 -6 4 8 -0.13 0.00
 -5 4 8 -0.82 0.00
 -4 4 8 -1.40 0.00
 -3 4 8 -1.38 0.00
 -2 4 8 -0.03 0.00
 -1 4 8 1.31 0.00
 0 4 8 2.14 0.00
 1 4 8 2.75 0.00
 2 4 8 2.66 0.00
 3 4 8 -0.25 0.00
 4 4 8 -2.23 0.00
 5 4 8 -1.70 0.00
 6 4 8 0.51 0.00
 7 4 8 0.95 0.00
 8 4 8 0.46 0.00
 -6 5 8 -0.24 0.00
 -5 5 8 -0.85 0.00
 -4 5 8 -0.84 0.00
 -3 5 8 0.46 0.00
 -2 5 8 2.35 0.00
 -1 5 8 2.60 0.00
 0 5 8 1.86 0.00
 1 5 8 1.12 0.00
 2 5 8 -0.04 0.00
 3 5 8 -2.58 0.00
 4 5 8 -2.36 0.00
 5 5 8 -0.40 0.00
 6 5 8 1.79 0.00
 7 5 8 1.44 0.00
 8 5 8 0.49 0.00
 -6 6 8 -0.33 0.00
 -5 6 8 -0.91 0.00
 -4 6 8 -0.81 0.00
 -3 6 8 0.68 0.00
 -1 6 8 2.82 0.00
 0 6 8 1.25 0.00
 1 6 8 -0.88 0.00
 2 6 8 -2.27 0.00
 3 6 8 -2.89 0.00
 4 6 8 -0.98 0.00
 5 6 8 0.18 0.00
 6 6 8 0.76 0.00
 7 6 8 0.37 0.00
 -5 7 8 -0.34 0.00
 -4 7 8 0.50 0.00
 -3 7 8 1.25 0.00
 -2 7 8 1.35 0.00
 -1 7 8 0.31 0.00
 0 7 8 -1.06 0.00
 1 7 8 -2.06 0.00
 2 7 8 -1.91 0.00
 3 7 8 -1.33 0.00
 4 7 8 0.46 0.00
 5 7 8 1.12 0.00
 6 7 8 1.53 0.00
 7 7 8 1.42 0.00
 -5 8 8 0.06 0.00
 -4 8 8 1.20 0.00
 -3 8 8 1.46 0.00
 -2 8 8 1.01 0.00
 -1 8 8 0.16 0.00
 0 8 8 -1.07 0.00
 1 8 8 -1.62 0.00
 2 8 8 -0.91 0.00
 3 8 8 -0.20 0.00
 4 8 8 0.91 0.00
 5 8 8 0.72 0.00
 7 8 8 0.00 0.00
 -4 9 8 0.33 0.00
 -3 9 8 -0.40 0.00
 -2 9 8 -0.89 0.00
 -1 9 8 -0.90 0.00
 0 9 8 -1.09 0.00
 1 9 8 -0.56 0.00
 2 9 8 0.25 0.00
 3 9 8 0.30 0.00
 4 9 8 0.61 0.00
 5 9 8 0.31 0.00
 6 9 8 -0.32 0.00
 -3 10 8 0.05 0.00
 -2 10 8 0.24 0.00
 -1 10 8 -0.22 0.00
 0 10 8 -0.91 0.00
 1 10 8 -0.40 0.00
 2 10 8 0.20 0.00
 3 10 8 0.24 0.00
 4 10 8 0.67 0.00
 5 10 8 0.71 0.00
 6 10 8 0.27 0.00
 -2 11 8 0.01 0.00
 -1 11 8 -0.48 0.00
 0 11 8 -0.37 0.00
 1 11 8 0.36 0.00
 2 11 8 0.33 0.00
 3 11 8 -0.10 0.00
 4 11 8 -0.07 0.00
 5 11 8 -0.11 0.00
 0 12 8 0.10 0.00
 1 12 8 0.43 0.00
 2 12 8 0.49 0.00
 3 12 8 0.59 0.00
 4 12 8 0.61 0.00
 -2 -8 9 -0.20 0.00
 -1 -8 9 0.07 0.00
 0 -8 9 0.23 0.00
 -4 -7 9 -0.26 0.00
 -3 -7 9 -0.14 0.00
 -2 -7 9 -0.35 0.00
 -1 -7 9 -0.49 0.00
 0 -7 9 -0.33 0.00
 1 -7 9 -0.08 0.00
 2 -7 9 0.06 0.00
 -4 -6 9 -0.02 0.00
 -3 -6 9 -0.47 0.00
 -2 -6 9 -0.76 0.00
 -1 -6 9 -0.50 0.00
 0 -6 9 -0.16 0.00
 1 -6 9 0.21 0.00
 2 -6 9 0.39 0.00
 3 -6 9 0.67 0.00
 4 -6 9 0.30 0.00
 -5 -5 9 0.54 0.00
 -4 -5 9 0.63 0.00
 -3 -5 9 -0.39 0.00
 -2 -5 9 -0.60 0.00
 -1 -5 9 -0.20 0.00
 0 -5 9 0.10 0.00
 1 -5 9 0.68 0.00
 2 -5 9 0.72 0.00
 3 -5 9 0.45 0.00
 4 -5 9 -0.13 0.00
 -6 -4 9 0.00 0.00
 -5 -4 9 0.01 0.00
 -4 -4 9 -0.29 0.00
 -3 -4 9 -1.08 0.00
 -2 -4 9 -0.59 0.00
 -1 -4 9 0.10 0.00
 0 -4 9 0.10 0.00
 1 -4 9 0.45 0.00
 2 -4 9 0.44 0.00
 3 -4 9 0.11 0.00
 4 -4 9 -0.21 0.00
 5 -4 9 -0.44 0.00
 -6 -3 9 0.92 0.00
 -5 -3 9 0.12 0.00
 -4 -3 9 -0.95 0.00
 -3 -3 9 -1.28 0.00
 -2 -3 9 -0.03 0.00
 -1 -3 9 0.86 0.00
 0 -3 9 0.21 0.00
 1 -3 9 -0.08 0.00
 2 -3 9 -0.33 0.00
 3 -3 9 -0.94 0.00
 4 -3 9 -1.05 0.00
 5 -3 9 -0.75 0.00
 6 -3 9 -0.32 0.00
 -6 -2 9 0.50 0.00
 -5 -2 9 -0.79 0.00
 -4 -2 9 -1.53 0.00
 -3 -2 9 -0.64 0.00
 -2 -2 9 0.84 0.00
 -1 -2 9 1.16 0.00
 0 -2 9 0.04 0.00
 1 -2 9 0.05 0.00
 2 -2 9 0.21 0.00
 3 -2 9 -0.02 0.00
 4 -2 9 0.40 0.00
 5 -2 9 0.83 0.00
 6 -2 9 0.66 0.00
 -6 -1 9 -0.26 0.00
 -5 -1 9 -1.71 0.00
 -4 -1 9 -1.58 0.00
 -3 -1 9 0.49 0.00
 -2 -1 9 1.48 0.00
 -1 -1 9 0.81 0.00
 0 -1 9 -0.68 0.00
 1 -1 9 -0.38 0.00
 2 -1 9 -0.42 0.00
 3 -1 9 -1.07 0.00
 4 -1 9 -1.08 0.00
 5 -1 9 -0.31 0.00
 6 -1 9 0.70 0.00
 7 -1 9 0.72 0.00
 -6 0 9 -0.73 0.00
 -5 0 9 -0.99 0.00
 -4 0 9 -0.03 0.00
 -3 0 9 1.45 0.00
 -2 0 9 1.00 0.00
 -1 0 9 0.29 0.00
 0 0 9 -0.14 0.00
 1 0 9 0.79 0.00
 2 0 9 0.07 0.00
 3 0 9 -0.98 0.00
 4 0 9 -1.11 0.00
 5 0 9 -0.76 0.00
 6 0 9 -0.12 0.00
 7 0 9 -0.51 0.00
 -6 1 9 -1.27 0.00
 -5 1 9 -1.03 0.00
 -4 1 9 0.26 0.00
 -3 1 9 1.95 0.00
 -2 1 9 2.02 0.00
 -1 1 9 1.80 0.00
 0 1 9 1.24 0.00
 1 1 9 1.47 0.00
 2 1 9 -0.12 0.00
 3 1 9 -1.25 0.00
 4 1 9 -0.71 0.00
 5 1 9 0.40 0.00
 6 1 9 1.41 0.00
 7 1 9 0.34 0.00
 -6 2 9 -1.02 0.00
 -5 2 9 -0.09 0.00
 -4 2 9 0.58 0.00
 -3 2 9 0.85 0.00
 -2 2 9 -0.06 0.00
 -1 2 9 -0.69 0.00
 0 2 9 -1.19 0.00
 1 2 9 -1.27 0.00
 2 2 9 -2.69 0.00
 3 2 9 -2.26 0.00
 4 2 9 -0.18 0.00
 5 2 9 0.74 0.00
 6 2 9 0.80 0.00
 7 2 9 -0.32 0.00
 -6 3 9 -0.79 0.00
 -5 3 9 0.84 0.00
 -4 3 9 1.66 0.00
 -3 3 9 1.69 0.00
 -2 3 9 1.00 0.00
 -1 3 9 0.35 0.00
 0 3 9 -0.46 0.00
 1 3 9 -1.16 0.00
 2 3 9 -2.00 0.00
 3 3 9 -0.35 0.00
 4 3 9 1.74 0.00
 5 3 9 1.61 0.00
 6 3 9 0.87 0.00
 7 3 9 -0.11 0.00
 -6 4 9 0.05 0.00
 -5 4 9 0.81 0.00
 -4 4 9 0.95 0.00
 -3 4 9 0.41 0.00
 -2 4 9 -0.53 0.00
 -1 4 9 -1.36 0.00
 0 4 9 -1.46 0.00
 1 4 9 -0.88 0.00
 2 4 9 -0.18 0.00
 3 4 9 1.65 0.00
 4 4 9 2.10 0.00
 5 4 9 0.38 0.00
 6 4 9 -0.90 0.00
 7 4 9 -0.94 0.00
 -6 5 9 0.28 0.00
 -5 5 9 0.71 0.00
 -4 5 9 0.44 0.00
 -3 5 9 -1.13 0.00
 -2 5 9 -2.29 0.00
 -1 5 9 -2.44 0.00
 0 5 9 -1.57 0.00
 1 5 9 -0.16 0.00
 2 5 9 0.95 0.00
 3 5 9 1.93 0.00
 4 5 9 0.99 0.00
 5 5 9 -0.83 0.00
 6 5 9 -1.68 0.00
 7 5 9 -1.05 0.00
 -5 6 9 1.06 0.00
 -4 6 9 0.79 0.00
 -3 6 9 -1.36 0.00
 -2 6 9 -2.55 0.00
 -1 6 9 -1.96 0.00
 0 6 9 -0.16 0.00
 1 6 9 1.67 0.00
 2 6 9 2.09 0.00
 3 6 9 1.45 0.00
 4 6 9 -0.14 0.00
 5 6 9 -0.65 0.00
 6 6 9 -0.52 0.00
 7 6 9 0.11 0.00
 -5 7 9 -0.19 0.00
 -4 7 9 -0.83 0.00
 -3 7 9 -1.53 0.00
 -2 7 9 -0.97 0.00
 -1 7 9 0.21 0.00
 0 7 9 1.58 0.00
 1 7 9 2.29 0.00
 2 7 9 1.72 0.00
 3 7 9 0.77 0.00
 4 7 9 -0.41 0.00
 5 7 9 -0.69 0.00
 6 7 9 -1.21 0.00
 7 7 9 -0.98 0.00
 -4 8 9 -0.82 0.00
 -3 8 9 -1.17 0.00
 -2 8 9 -0.72 0.00
 -1 8 9 0.19 0.00
 0 8 9 1.42 0.00
 1 8 9 1.36 0.00
 2 8 9 0.34 0.00
 3 8 9 -0.51 0.00
 4 8 9 -0.98 0.00
 5 8 9 -0.28 0.00
 6 8 9 -0.05 0.00
 7 8 9 -0.18 0.00
 -4 9 9 -0.57 0.00
 -3 9 9 0.31 0.00
 -2 9 9 0.93 0.00
 -1 9 9 1.06 0.00
 0 9 9 1.31 0.00
 1 9 9 0.45 0.00
 2 9 9 -0.25 0.00
 3 9 9 -0.43 0.00
 4 9 9 -0.52 0.00
 5 9 9 -0.08 0.00
 6 9 9 0.06 0.00
 -3 10 9 0.33 0.00
 -2 10 9 0.10 0.00
 -1 10 9 0.16 0.00
 0 10 9 0.54 0.00
 1 10 9 -0.14 0.00
 2 10 9 -0.55 0.00
 3 10 9 -0.75 0.00
 4 10 9 -0.73 0.00
 5 10 9 -0.40 0.00
 6 10 9 -0.15 0.00
 -2 11 9 0.09 0.00
 -1 11 9 0.29 0.00
 0 11 9 0.19 0.00
 1 11 9 -0.35 0.00
 2 11 9 -0.17 0.00
 3 11 9 0.31 0.00
 4 11 9 0.66 0.00
 5 11 9 0.31 0.00
 0 12 9 -0.14 0.00
 1 12 9 -0.47 0.00
 2 12 9 -0.64 0.00
 3 12 9 -0.73 0.00
 -2 -7 10 0.38 0.00
 -1 -7 10 0.37 0.00
 0 -7 10 0.06 0.00
 1 -7 10 -0.09 0.00
 -3 -6 10 0.38 0.00
 -2 -6 10 0.53 0.00
 -1 -6 10 0.12 0.00
 0 -6 10 -0.21 0.00
 1 -6 10 -0.32 0.00
 2 -6 10 -0.15 0.00
 3 -6 10 -0.23 0.00
 -4 -5 10 -0.40 0.00
 -3 -5 10 0.40 0.00
 -2 -5 10 0.55 0.00
 -1 -5 10 0.03 0.00
 0 -5 10 -0.22 0.00
 1 -5 10 -0.47 0.00
 2 -5 10 -0.32 0.00
 3 -5 10 -0.36 0.00
 4 -5 10 0.00 0.00
 -5 -4 10 -0.26 0.00
 -4 -4 10 0.24 0.00
 -3 -4 10 0.93 0.00
 -2 -4 10 0.20 0.00
 -1 -4 10 -0.61 0.00
 0 -4 10 -0.21 0.00
 1 -4 10 -0.03 0.00
 2 -4 10 0.10 0.00
 3 -4 10 0.29 0.00
 4 -4 10 0.73 0.00
 5 -4 10 0.65 0.00
 -5 -3 10 0.25 0.00
 -4 -3 10 0.94 0.00
 -3 -3 10 0.67 0.00
 -2 -3 10 -0.77 0.00
 -1 -3 10 -1.38 0.00
 0 -3 10 -0.48 0.00
 1 -3 10 -0.22 0.00
 2 -3 10 -0.16 0.00
 3 -3 10 0.33 0.00
 4 -3 10 0.37 0.00
 5 -3 10 -0.07 0.00
 -6 -2 10 -0.31 0.00
 -5 -2 10 0.93 0.00
 -4 -2 10 1.43 0.00
 -3 -2 10 0.42 0.00
 -2 -2 10 -0.60 0.00
 -1 -2 10 -0.13 0.00
 0 -2 10 1.25 0.00
 1 -2 10 1.16 0.00
 2 -2 10 0.61 0.00
 3 -2 10 0.60 0.00
 4 -2 10 0.03 0.00
 5 -2 10 -0.47 0.00
 6 -2 10 -0.16 0.00
 -6 -1 10 0.42 0.00
 -5 -1 10 1.23 0.00
 -4 -1 10 0.47 0.00
 -3 -1 10 -1.28 0.00
 -2 -1 10 -1.30 0.00
 -1 -1 10 -0.05 0.00
 0 -1 10 0.89 0.00
 1 -1 10 0.27 0.00
 2 -1 10 0.10 0.00
 3 -1 10 0.62 0.00
 4 -1 10 0.45 0.00
 5 -1 10 -0.07 0.00
 6 -1 10 -0.17 0.00
 -6 0 10 0.59 0.00
 -5 0 10 0.99 0.00
 -4 0 10 0.20 0.00
 -3 0 10 -1.16 0.00
 -2 0 10 -0.88 0.00
 -1 0 10 -0.25 0.00
 0 0 10 0.24 0.00
 1 0 10 -0.03 0.00
 2 0 10 0.40 0.00
 3 0 10 0.83 0.00
 4 0 10 0.92 0.00
 5 0 10 0.56 0.00
 6 0 10 0.15 0.00
 -6 1 10 0.70 0.00
 -5 1 10 -0.09 0.00
 -4 1 10 -1.18 0.00
 -3 1 10 -2.12 0.00
 -2 1 10 -1.22 0.00
 -1 1 10 -0.42 0.00
 0 1 10 -0.15 0.00
 1 1 10 -0.55 0.00
 2 1 10 0.35 0.00
 3 1 10 0.77 0.00
 4 1 10 0.20 0.00
 5 1 10 -0.89 0.00
 6 1 10 -1.27 0.00
 7 1 10 -0.25 0.00
 -6 2 10 0.92 0.00
 -5 2 10 -0.06 0.00
 -4 2 10 -0.13 0.00
 -3 2 10 -0.24 0.00
 -2 2 10 0.43 0.00
 -1 2 10 0.71 0.00
 0 2 10 0.99 0.00
 1 2 10 1.21 0.00
 2 2 10 1.94 0.00
 3 2 10 1.00 0.00
 4 2 10 -0.34 0.00
 5 2 10 -0.69 0.00
 6 2 10 -0.53 0.00
 7 2 10 0.25 0.00
 -6 3 10 0.55 0.00
 -5 3 10 -1.13 0.00
 -4 3 10 -1.45 0.00
 -3 3 10 -1.50 0.00
 -2 3 10 -0.48 0.00
 -1 3 10 0.83 0.00
 0 3 10 1.69 0.00
 1 3 10 1.70 0.00
 2 3 10 1.24 0.00
 3 3 10 -0.48 0.00
 4 3 10 -1.36 0.00
 5 3 10 -0.57 0.00
 6 3 10 -0.06 0.00
 7 3 10 0.58 0.00
 -6 4 10 -0.06 0.00
 -5 4 10 -0.92 0.00
 -4 4 10 -0.36 0.00
 -3 4 10 0.37 0.00
 -2 4 10 0.82 0.00
 -1 4 10 0.87 0.00
 0 4 10 0.14 0.00
 1 4 10 -0.78 0.00
 2 4 10 -1.34 0.00
 3 4 10 -1.85 0.00
 4 4 10 -1.13 0.00
 5 4 10 0.63 0.00
 6 4 10 0.92 0.00
 7 4 10 0.67 0.00
 -5 5 10 -0.91 0.00
 -4 5 10 -0.59 0.00
 -3 5 10 0.75 0.00
 -2 5 10 1.41 0.00
 -1 5 10 1.55 0.00
 0 5 10 0.42 0.00
 1 5 10 -1.01 0.00
 2 5 10 -1.43 0.00
 3 5 10 -1.06 0.00
 4 5 10 -0.06 0.00
 5 5 10 1.13 0.00
 6 5 10 0.95 0.00
 7 5 10 0.51 0.00
 -5 6 10 -0.97 0.00
 -4 6 10 0.20 0.00
 -3 6 10 2.25 0.00
 -2 6 10 1.82 0.00
 -1 6 10 0.66 0.00
 0 6 10 -0.81 0.00
 1 6 10 -1.69 0.00
 2 6 10 -1.15 0.00
 3 6 10 -0.03 0.00
 4 6 10 0.80 0.00
 5 6 10 1.05 0.00
 6 6 10 0.48 0.00
 7 6 10 -0.05 0.00
 -4 7 10 1.13 0.00
 -3 7 10 1.50 0.00
 -2 7 10 0.38 0.00
 -1 7 10 -0.49 0.00
 0 7 10 -1.55 0.00
 1 7 10 -1.75 0.00
 2 7 10 -0.85 0.00
 3 7 10 -0.05 0.00
 4 7 10 0.34 0.00
 5 7 10 0.43 0.00
 6 7 10 0.47 0.00
 7 7 10 0.20 0.00
 -4 8 10 0.20 0.00
 -3 8 10 0.50 0.00
 -2 8 10 0.03 0.00
 -1 8 10 -0.62 0.00
 0 8 10 -1.46 0.00
 1 8 10 -0.85 0.00
 2 8 10 0.14 0.00
 3 8 10 0.62 0.00
 4 8 10 0.66 0.00
 5 8 10 0.17 0.00
 6 8 10 0.21 0.00
 -3 9 10 -0.37 0.00
 -2 9 10 -0.71 0.00
 -1 9 10 -0.94 0.00
 0 9 10 -1.22 0.00
 1 9 10 -0.21 0.00
 2 9 10 0.18 0.00
 3 9 10 0.25 0.00
 4 9 10 0.32 0.00
 5 9 10 0.01 0.00
 6 9 10 0.17 0.00
 -2 10 10 -0.15 0.00
 -1 10 10 -0.05 0.00
 0 10 10 -0.22 0.00
 1 10 10 0.50 0.00
 2 10 10 0.72 0.00
 3 10 10 0.91 0.00
 4 10 10 0.60 0.00
 5 10 10 0.02 0.00
 -1 11 10 0.06 0.00
 0 11 10 0.06 0.00
 1 11 10 0.51 0.00
 2 11 10 0.38 0.00
 3 11 10 0.05 0.00
 4 11 10 -0.39 0.00
 -2 -6 11 -0.20 0.00
 -1 -6 11 0.05 0.00
 0 -6 11 0.16 0.00
 1 -6 11 0.10 0.00
 -3 -5 11 -0.36 0.00
 -2 -5 11 -0.41 0.00
 -1 -5 11 -0.03 0.00
 0 -5 11 0.03 0.00
 1 -5 11 0.00 0.00
 2 -5 11 -0.13 0.00
 3 -5 11 0.15 0.00
 -4 -4 11 -0.24 0.00
 -3 -4 11 -0.53 0.00
 -2 -4 11 0.32 0.00
 -1 -4 11 0.92 0.00
 0 -4 11 0.38 0.00
 1 -4 11 0.12 0.00
 2 -4 11 0.14 0.00
 3 -4 11 0.09 0.00
 4 -4 11 -0.35 0.00
 -5 -3 11 -0.24 0.00
 -4 -3 11 -0.65 0.00
 -3 -3 11 -0.21 0.00
 -2 -3 11 0.86 0.00
 -1 -3 11 0.99 0.00
 0 -3 11 -0.03 0.00
 1 -3 11 -0.26 0.00
 2 -3 11 0.01 0.00
 3 -3 11 -0.25 0.00
 4 -3 11 -0.24 0.00
 -5 -2 11 -0.54 0.00
 -4 -2 11 -0.70 0.00
 -3 -2 11 0.15 0.00
 -2 -2 11 0.49 0.00
 -1 -2 11 -0.37 0.00
 0 -2 11 -1.43 0.00
 1 -2 11 -1.09 0.00
 2 -2 11 -0.46 0.00
 3 -2 11 -0.91 0.00
 4 -2 11 -0.49 0.00
 5 -2 11 0.07 0.00
 -5 -1 11 -1.10 0.00
 -4 -1 11 -0.29 0.00
 -3 -1 11 0.99 0.00
 -2 -1 11 0.83 0.00
 -1 -1 11 0.06 0.00
 0 -1 11 -0.35 0.00
 1 -1 11 -0.06 0.00
 2 -1 11 0.20 0.00
 3 -1 11 -0.23 0.00
 4 -1 11 0.14 0.00
 5 -1 11 0.06 0.00
 6 -1 11 -0.57 0.00
 -5 0 11 -0.52 0.00
 -4 0 11 0.45 0.00
 -3 0 11 1.42 0.00
 -2 0 11 0.68 0.00
 -1 0 11 -0.42 0.00
 0 0 11 -0.98 0.00
 1 0 11 -0.64 0.00
 2 0 11 -0.21 0.00
 3 0 11 -0.54 0.00
 4 0 11 -0.44 0.00
 5 0 11 0.14 0.00
 6 0 11 0.44 0.00
 -5 1 11 0.34 0.00
 -4 1 11 1.12 0.00
 -3 1 11 1.33 0.00
 -2 1 11 0.09 0.00
 -1 1 11 -0.61 0.00
 0 1 11 -0.52 0.00
 1 1 11 -0.21 0.00
 2 1 11 -0.37 0.00
 3 1 11 -0.34 0.00
 4 1 11 0.32 0.00
 5 1 11 0.98 0.00
 6 1 11 0.58 0.00
 -5 2 11 0.29 0.00
 -4 2 11 0.39 0.00
 -3 2 11 0.67 0.00
 -2 2 11 0.06 0.00
 -1 2 11 -0.39 0.00
 0 2 11 -0.71 0.00
 1 2 11 -0.88 0.00
 2 2 11 -0.84 0.00
 3 2 11 -0.16 0.00
 4 2 11 0.34 0.00
 5 2 11 0.43 0.00
 6 2 11 0.01 0.00
 -5 3 11 0.94 0.00
 -4 3 11 0.64 0.00
 -3 3 11 0.32 0.00
 -2 3 11 -1.04 0.00
 -1 3 11 -1.87 0.00
 0 3 11 -1.68 0.00
 1 3 11 -1.01 0.00
 2 3 11 -0.15 0.00
 3 3 11 0.55 0.00
 4 3 11 0.32 0.00
 5 3 11 -0.36 0.00
 6 3 11 -0.58 0.00
 7 3 11 -0.56 0.00
 -5 4 11 0.92 0.00
 -4 4 11 0.19 0.00
 -3 4 11 -0.16 0.00
 -2 4 11 -0.42 0.00
 -1 4 11 -0.13 0.00
 0 4 11 0.70 0.00
 1 4 11 1.26 0.00
 2 4 11 1.57 0.00
 3 4 11 1.15 0.00
 4 4 11 0.25 0.00
 5 4 11 -0.82 0.00
 6 4 11 -0.79 0.00
 7 4 11 -0.40 0.00
 -5 5 11 0.84 0.00
 -4 5 11 0.46 0.00
 -3 5 11 -0.51 0.00
 -2 5 11 -0.82 0.00
 -1 5 11 -0.41 0.00
 0 5 11 0.88 0.00
 1 5 11 1.53 0.00
 2 5 11 1.11 0.00
 3 5 11 -0.04 0.00
 4 5 11 -0.47 0.00
 5 5 11 -0.93 0.00
 6 5 11 -0.46 0.00
 7 5 11 -0.20 0.00
 -4 6 11 -1.29 0.00
 -3 6 11 -2.36 0.00
 -2 6 11 -0.84 0.00
 -1 6 11 0.34 0.00
 0 6 11 1.17 0.00
 1 6 11 1.29 0.00
 2 6 11 0.52 0.00
 3 6 11 -0.56 0.00
 4 6 11 -0.73 0.00
 5 6 11 -1.03 0.00
 6 6 11 -0.40 0.00
 -4 7 11 -1.01 0.00
 -3 7 11 -1.11 0.00
 -2 7 11 0.27 0.00
 -1 7 11 0.86 0.00
 0 7 11 1.33 0.00
 1 7 11 0.96 0.00
 2 7 11 0.02 0.00
 3 7 11 -0.50 0.00
 4 7 11 -0.38 0.00
 5 7 11 -0.46 0.00
 6 7 11 -0.02 0.00
 -3 8 11 0.27 0.00
 -2 8 11 0.71 0.00
 -1 8 11 0.92 0.00
 0 8 11 1.03 0.00
 1 8 11 0.13 0.00
 2 8 11 -0.51 0.00
 3 8 11 -0.53 0.00
 4 8 11 -0.44 0.00
 5 8 11 -0.38 0.00
 6 8 11 -0.27 0.00
 -3 9 11 0.22 0.00
 -2 9 11 0.46 0.00
 -1 9 11 0.92 0.00
 0 9 11 0.96 0.00
 1 9 11 -0.09 0.00
 2 9 11 -0.27 0.00
 3 9 11 -0.21 0.00
 4 9 11 -0.27 0.00
 5 9 11 0.01 0.00
 -2 10 11 -0.13 0.00
 -1 10 11 -0.17 0.00
 0 10 11 -0.15 0.00
 1 10 11 -0.75 0.00
 2 10 11 -0.64 0.00
 3 10 11 -0.56 0.00
 4 10 11 -0.26 0.00
 0 11 11 -0.12 0.00
 1 11 11 -0.43 0.00
 2 11 11 -0.31 0.00
 3 11 11 -0.23 0.00
 -2 -5 12 0.19 0.00
 -1 -5 12 0.01 0.00
 0 -5 12 0.05 0.00
 1 -5 12 0.18 0.00
 -3 -4 12 0.25 0.00
 -2 -4 12 -0.45 0.00
 -1 -4 12 -0.71 0.00
 0 -4 12 -0.23 0.00
 1 -4 12 -0.04 0.00
 2 -4 12 -0.22 0.00
 3 -4 12 -0.35 0.00
 -4 -3 12 0.16 0.00
 -3 -3 12 -0.27 0.00
 -2 -3 12 -0.83 0.00
 -1 -3 12 -0.50 0.00
 0 -3 12 0.46 0.00
 1 -3 12 0.52 0.00
 2 -3 12 0.00 0.00
 3 -3 12 0.11 0.00
 4 -3 12 0.28 0.00
 -4 -2 12 0.09 0.00
 -3 -2 12 -0.54 0.00
 -2 -2 12 -0.54 0.00
 -1 -2 12 0.07 0.00
 0 -2 12 0.49 0.00
 1 -2 12 0.09 0.00
 2 -2 12 -0.13 0.00
 3 -2 12 0.70 0.00
 4 -2 12 0.45 0.00
 -4 -1 12 0.36 0.00
 -3 -1 12 -0.38 0.00
 -2 -1 12 -0.20 0.00
 -1 -1 12 0.32 0.00
 0 -1 12 0.79 0.00
 1 -1 12 0.86 0.00
 2 -1 12 0.41 0.00
 3 -1 12 0.46 0.00
 4 -1 12 -0.18 0.00
 5 -1 12 -0.05 0.00
 -5 0 12 0.01 0.00
 -4 0 12 -0.88 0.00
 -3 0 12 -1.17 0.00
 -2 0 12 0.00 0.00
 -1 0 12 1.13 0.00
 0 0 12 1.15 0.00
 1 0 12 0.32 0.00
 2 0 12 -0.50 0.00
 3 0 12 0.00 0.00
 4 0 12 -0.17 0.00
 5 0 12 -0.42 0.00
 -5 1 12 0.03 0.00
 -4 1 12 -0.63 0.00
 -3 1 12 -0.67 0.00
 -2 1 12 0.17 0.00
 -1 1 12 0.62 0.00
 0 1 12 0.47 0.00
 1 1 12 0.29 0.00
 2 1 12 -0.10 0.00
 3 1 12 -0.23 0.00
 4 1 12 -0.73 0.00
 5 1 12 -0.72 0.00
 6 1 12 -0.02 0.00
 -5 2 12 -0.60 0.00
 -4 2 12 -0.94 0.00
 -3 2 12 -0.94 0.00
 -2 2 12 -0.07 0.00
 -1 2 12 0.61 0.00
 0 2 12 0.64 0.00
 1 2 12 0.49 0.00
 2 2 12 0.03 0.00
 3 2 12 -0.09 0.00
 4 2 12 -0.21 0.00
 5 2 12 -0.13 0.00
 6 2 12 0.28 0.00
 -5 3 12 -0.60 0.00
 -4 3 12 -0.24 0.00
 -3 3 12 0.38 0.00
 -2 3 12 1.54 0.00
 -1 3 12 1.63 0.00
 0 3 12 0.77 0.00
 1 3 12 0.11 0.00
 2 3 12 -0.44 0.00
 3 3 12 0.03 0.00
 4 3 12 0.64 0.00
 5 3 12 0.86 0.00
 6 3 12 0.63 0.00
 -4 4 12 0.13 0.00
 -3 4 12 0.24 0.00
 -2 4 12 0.46 0.00
 -1 4 12 -0.09 0.00
 0 4 12 -0.86 0.00
 1 4 12 -1.05 0.00
 2 4 12 -1.13 0.00
 3 4 12 -0.27 0.00
 4 4 12 0.14 0.00
 5 4 12 0.66 0.00
 6 4 12 0.74 0.00
 -4 5 12 0.00 0.00
 -3 5 12 0.54 0.00
 -2 5 12 0.37 0.00
 -1 5 12 -0.71 0.00
 0 5 12 -1.52 0.00
 1 5 12 -1.14 0.00
 2 5 12 -0.24 0.00
 3 5 12 0.95 0.00
 4 5 12 0.54 0.00
 5 5 12 0.59 0.00
 6 5 12 0.29 0.00
 -4 6 12 1.12 0.00
 -3 6 12 1.26 0.00
 -2 6 12 -0.03 0.00
 -1 6 12 -0.79 0.00
 0 6 12 -1.01 0.00
 1 6 12 -0.92 0.00
 2 6 12 -0.39 0.00
 3 6 12 0.52 0.00
 4 6 12 0.35 0.00
 5 6 12 0.87 0.00
 6 6 12 0.38 0.00
 -3 7 12 0.43 0.00
 -2 7 12 -0.86 0.00
 -1 7 12 -1.23 0.00
 0 7 12 -0.89 0.00
 1 7 12 -0.31 0.00
 2 7 12 0.36 0.00
 3 7 12 0.75 0.00
 4 7 12 0.40 0.00
 5 7 12 0.55 0.00
 6 7 12 -0.09 0.00
 -3 8 12 -0.30 0.00
 -2 8 12 -0.83 0.00
 -1 8 12 -0.93 0.00
 0 8 12 -0.39 0.00
 1 8 12 0.37 0.00
 2 8 12 0.61 0.00
 3 8 12 0.46 0.00
 4 8 12 0.34 0.00
 5 8 12 0.47 0.00
 -2 9 12 -0.24 0.00
 -1 9 12 -0.68 0.00
 0 9 12 -0.32 0.00
 1 9 12 0.39 0.00
 2 9 12 0.44 0.00
 3 9 12 0.37 0.00
 4 9 12 0.33 0.00
 5 9 12 0.06 0.00
 -1 10 12 -0.04 0.00
 0 10 12 0.24 0.00
 1 10 12 0.74 0.00
 2 10 12 0.46 0.00
 3 10 12 0.14 0.00
 4 10 12 0.03 0.00
 -1 -4 13 0.25 0.00
 0 -4 13 -0.13 0.00
 -2 -3 13 0.82 0.00
 -1 -3 13 0.44 0.00
 0 -3 13 -0.22 0.00
 1 -3 13 -0.19 0.00
 2 -3 13 0.24 0.00
 -3 -2 13 0.40 0.00
 -2 -2 13 0.21 0.00
 -1 -2 13 -0.19 0.00
 0 -2 13 -0.27 0.00
 1 -2 13 0.06 0.00
 2 -2 13 0.14 0.00
 3 -2 13 -0.36 0.00
 -4 -1 13 -0.18 0.00
 -3 -1 13 0.12 0.00
 -2 -1 13 -0.19 0.00
 -1 -1 13 -0.63 0.00
 0 -1 13 -0.92 0.00
 1 -1 13 -0.91 0.00
 2 -1 13 -0.51 0.00
 3 -1 13 -0.42 0.00
 4 -1 13 0.10 0.00
 -4 0 13 0.58 0.00
 -3 0 13 0.72 0.00
 -2 0 13 -0.18 0.00
 -1 0 13 -0.90 0.00
 0 0 13 -0.59 0.00
 1 0 13 0.00 0.00
 2 0 13 0.50 0.00
 3 0 13 0.17 0.00
 4 0 13 0.23 0.00
 -4 1 13 0.33 0.00
 -3 1 13 0.28 0.00
 -2 1 13 -0.44 0.00
 -1 1 13 -0.87 0.00
 0 1 13 -0.42 0.00
 1 1 13 -0.01 0.00
 2 1 13 0.71 0.00
 3 1 13 0.79 0.00
 4 1 13 0.85 0.00
 5 1 13 0.52 0.00
 -4 2 13 0.90 0.00
 -3 2 13 0.55 0.00
 -2 2 13 -0.34 0.00
 -1 2 13 -0.77 0.00
 0 2 13 -0.23 0.00
 1 2 13 -0.01 0.00
 2 2 13 0.36 0.00
 3 2 13 0.10 0.00
 4 2 13 0.00 0.00
 5 2 13 -0.12 0.00
 -4 3 13 0.22 0.00
 -3 3 13 -0.30 0.00
 -2 3 13 -0.92 0.00
 -1 3 13 -0.72 0.00
 0 3 13 0.03 0.00
 1 3 13 0.20 0.00
 2 3 13 0.37 0.00
 3 3 13 -0.44 0.00
 4 3 13 -0.80 0.00
 5 3 13 -0.75 0.00
 -4 4 13 -0.35 0.00
 -3 4 13 -0.55 0.00
 -2 4 13 -0.58 0.00
 -1 4 13 0.26 0.00
 0 4 13 0.91 0.00
 1 4 13 0.74 0.00
 2 4 13 0.55 0.00
 3 4 13 -0.33 0.00
 4 4 13 -0.32 0.00
 5 4 13 -0.57 0.00
 -3 5 13 -0.36 0.00
 -2 5 13 0.02 0.00
 -1 5 13 1.05 0.00
 0 5 13 1.10 0.00
 1 5 13 0.35 0.00
 2 5 13 -0.42 0.00
 3 5 13 -1.14 0.00
 4 5 13 -0.29 0.00
 5 5 13 -0.36 0.00
 -3 6 13 -0.19 0.00
 -2 6 13 0.28 0.00
 -1 6 13 0.72 0.00
 0 6 13 0.61 0.00
 1 6 13 0.64 0.00
 2 6 13 0.33 0.00
 3 6 13 -0.34 0.00
 4 6 13 -0.04 0.00
 5 6 13 -0.68 0.00
 -3 7 13 0.05 0.00
 -2 7 13 1.04 0.00
 -1 7 13 1.28 0.00
 0 7 13 0.50 0.00
 1 7 13 0.16 0.00
 2 7 13 -0.36 0.00
 3 7 13 -0.79 0.00
 4 7 13 -0.37 0.00
 5 7 13 -0.51 0.00
 -2 8 13 0.57 0.00
 -1 8 13 0.68 0.00
 0 8 13 -0.29 0.00
 1 8 13 -0.54 0.00
 2 8 13 -0.53 0.00
 3 8 13 -0.42 0.00
 4 8 13 -0.22 0.00
 -1 9 13 0.33 0.00
 0 9 13 -0.30 0.00
 1 9 13 -0.44 0.00
 2 9 13 -0.52 0.00
 3 9 13 -0.49 0.00
 4 9 13 -0.32 0.00
 1 10 13 -0.49 0.00
 2 10 13 -0.24 0.00
 -1 -2 14 0.48 0.00
 0 -2 14 0.42 0.00
 1 -2 14 0.05 0.00
 2 -2 14 -0.21 0.00
 -2 -1 14 0.15 0.00
 -1 -1 14 0.27 0.00
 0 -1 14 0.16 0.00
 1 -1 14 0.10 0.00
 2 -1 14 0.07 0.00
 3 -1 14 0.11 0.00
 -3 0 14 -0.49 0.00
 -2 0 14 0.04 0.00
 -1 0 14 0.50 0.00
 0 0 14 0.44 0.00
 1 0 14 0.53 0.00
 2 0 14 0.28 0.00
 3 0 14 0.06 0.00
 -3 1 14 0.05 0.00
 -2 1 14 0.91 0.00
 -1 1 14 1.12 0.00
 0 1 14 0.21 0.00
 1 1 14 -0.32 0.00
 2 1 14 -0.96 0.00
 3 1 14 -0.85 0.00
 4 1 14 -0.36 0.00
 -3 2 14 -0.09 0.00
 -2 2 14 0.50 0.00
 -1 2 14 0.39 0.00
 0 2 14 -0.50 0.00
 1 2 14 -0.47 0.00
 2 2 14 -0.71 0.00
 3 2 14 -0.30 0.00
 4 2 14 0.08 0.00
 -3 3 14 0.06 0.00
 -2 3 14 0.30 0.00
 -1 3 14 0.13 0.00
 0 3 14 -0.22 0.00
 1 3 14 0.20 0.00
 2 3 14 0.07 0.00
 3 3 14 0.43 0.00
 4 3 14 0.42 0.00
 -3 4 14 0.33 0.00
 -2 4 14 0.10 0.00
 -1 4 14 -0.70 0.00
 0 4 14 -0.94 0.00
 1 4 14 -0.43 0.00
 2 4 14 -0.26 0.00
 3 4 14 0.41 0.00
 4 4 14 0.40 0.00
 -3 5 14 0.20 0.00
 -2 5 14 0.07 0.00
 -1 5 14 -0.46 0.00
 0 5 14 -0.23 0.00
 1 5 14 0.18 0.00
 2 5 14 0.45 0.00
 3 5 14 0.70 0.00
 4 5 14 0.05 0.00
 -2 6 14 -0.12 0.00
 -1 6 14 -0.60 0.00
 0 6 14 -0.36 0.00
 1 6 14 -0.45 0.00
 2 6 14 -0.08 0.00
 3 6 14 0.33 0.00
 4 6 14 0.01 0.00
 -2 7 14 -0.65 0.00
 -1 7 14 -0.80 0.00
 0 7 14 -0.11 0.00
 1 7 14 -0.18 0.00
 2 7 14 0.36 0.00
 3 7 14 0.66 0.00
 4 7 14 0.26 0.00
 -1 8 14 -0.35 0.00
 0 8 14 0.63 0.00
 1 8 14 0.31 0.00
 2 8 14 0.36 0.00
 3 8 14 0.35 0.00
 1 9 14 0.19 0.00
 2 9 14 0.44 0.00
 -1 0 15 -0.29 0.00
 0 0 15 -0.40 0.00
 1 0 15 -0.68 0.00
 -1 1 15 -0.52 0.00
 0 1 15 0.30 0.00
 1 1 15 0.46 0.00
 2 1 15 0.71 0.00
 -2 2 15 -0.34 0.00
 -1 2 15 0.06 0.00
 0 2 15 0.71 0.00
 1 2 15 0.46 0.00
 2 2 15 0.68 0.00
 3 2 15 0.28 0.00
 -2 3 15 -0.19 0.00
 -1 3 15 -0.03 0.00
 0 3 15 -0.04 0.00
 1 3 15 -0.68 0.00
 2 3 15 -0.24 0.00
 3 3 15 -0.15 0.00
 -2 4 15 0.32 0.00
 -1 4 15 0.78 0.00
 0 4 15 0.63 0.00
 1 4 15 0.17 0.00
 2 4 15 0.36 0.00
 3 4 15 -0.11 0.00
 -1 5 15 0.07 0.00
 0 5 15 -0.09 0.00
 1 5 15 -0.17 0.00
 2 5 15 -0.11 0.00
 3 5 15 -0.25 0.00
 -1 6 15 0.52 0.00
 0 6 15 0.21 0.00
 1 6 15 0.18 0.00
 2 6 15 -0.26 0.00
 3 6 15 -0.48 0.00
 0 7 15 -0.30 0.00
 1 7 15 0.04 0.00
 2 7 15 -0.34 0.00
 3 1 0 -14.49 0.00
 9 1 0 0.40 0.00
 1 2 0 -16.50 0.00
 9 3 0 -0.14 0.00
 -8 4 0 0.29 0.00
 -3 11 0 -0.47 0.00
 4 12 0 -0.14 0.00
 -3 -12 1 -0.02 0.00
 4 -10 1 -0.21 0.00
 -7 -9 1 -0.22 0.00
 5 -9 1 0.28 0.00
 -8 -7 1 0.46 0.00
 0 -3 1 0.99 0.00
 -9 -2 1 -0.14 0.00
 9 1 1 -0.37 0.00
 1 2 1 13.13 0.00
 9 2 1 -0.64 0.00
 -8 4 1 0.27 0.00
 9 4 1 -0.63 0.00
 -6 8 1 -0.09 0.00
 -2 1 2 11.89 0.00
 9 1 2 0.18 0.00
 -8 4 2 -0.63 0.00
 9 4 2 -0.15 0.00
 8 8 2 0.28 0.00
 6 11 2 0.67 0.00
 -4 -11 3 -0.09 0.00
 -7 -8 3 0.68 0.00
 -8 -6 3 0.28 0.00
 9 2 3 -0.66 0.00
 9 3 3 -1.09 0.00
 9 4 3 0.33 0.00
 8 8 3 -0.07 0.00
 -2 12 3 0.04 0.00
 1 13 3 0.25 0.00
 2 13 3 0.02 0.00
 4 -9 4 0.20 0.00
 5 -8 4 -0.17 0.00
 -8 -5 4 0.57 0.00
 1 3 4 -3.90 0.00
 -6 8 4 0.18 0.00
 8 8 4 -0.07 0.00
 7 10 4 0.43 0.00
 -2 12 4 -0.10 0.00
 5 12 4 0.39 0.00
 1 13 4 -0.29 0.00
 2 13 4 0.04 0.00
 -4 -10 5 -0.52 0.00
 2 -10 5 -0.19 0.00
 -8 -4 5 -0.48 0.00
 8 8 5 0.02 0.00
 -2 12 5 0.00 0.00
 5 12 5 -0.78 0.00
 1 13 5 0.16 0.00
 2 13 5 -0.06 0.00
 7 -4 6 0.08 0.00
 -8 -2 6 -0.02 0.00
 -8 1 6 -1.03 0.00
 -5 9 6 -0.28 0.00
 6 11 6 0.10 0.00
 2 13 6 0.01 0.00
 8 7 7 -0.06 0.00
 -4 10 7 -0.39 0.00
 -3 11 7 -0.01 0.00
 -1 -9 8 0.00 0.00
 -4 -8 8 -0.26 0.00
 -5 -7 8 -0.09 0.00
 -7 -3 8 -0.57 0.00
 8 1 8 -0.12 0.00
 -2 6 8 2.73 0.00
 8 6 8 0.04 0.00
 6 8 8 0.04 0.00
 7 9 8 -0.07 0.00
 -1 12 8 -0.06 0.00
 1 -8 9 -0.05 0.00
 3 -7 9 0.21 0.00
 -5 -6 9 -0.17 0.00
 5 -5 9 -0.38 0.00
 -7 0 9 0.13 0.00
 -7 1 9 0.21 0.00
 -4 -6 10 0.03 0.00
 7 0 10 0.31 0.00
 -5 7 10 0.63 0.00
 1 12 10 0.13 0.00
 2 12 10 0.21 0.00
 5 -3 11 0.08 0.00
 -6 1 11 -0.31 0.00
 -5 6 11 0.37 0.00
 -4 8 11 0.32 0.00
 5 10 11 0.17 0.00
 -5 -1 12 0.77 0.00
 -5 4 12 -0.34 0.00
 1 11 12 0.17 0.00
 2 11 12 -0.02 0.00
 1 -4 13 -0.27 0.00
 -3 -3 13 0.49 0.00
 5 0 13 0.06 0.00
 -4 5 13 -0.16 0.00
 5 8 13 -0.32 0.00
 -2 -2 14 0.20 0.00
 4 0 14 -0.02 0.00
 5 3 14 0.27 0.00
 5 4 14 0.45 0.00
 5 5 14 0.27 0.00
 2 0 15 -0.49 0.00
 -2 1 15 -0.71 0.00
 3 1 15 0.43 0.00
 0 0 0 0.00 0.00
# SQUEEZE RESULTS (Version = 200618)
# Note: Data are Listed for all Voids in the P1 Unit Cell
# i.e. Centre of Gravity, Solvent Accessible Volume,
# Recovered number of Electrons in the Void and
# Details about the Squeezed Material
;
_platon_squeeze_void_probe_radius 1.20
_olex2_submission_special_instructions 'No special instructions were received'
loop_
_space_group_symop_operation_xyz
'x, y, z'
'-x, -y, -z'
loop_
_atom_site_label
_atom_site_type_symbol
_atom_site_fract_x
_atom_site_fract_y
_atom_site_fract_z
_atom_site_U_iso_or_equiv
_atom_site_adp_type
_atom_site_occupancy
_atom_site_site_symmetry_order
_atom_site_calc_flag
_atom_site_refinement_flags_posn
_atom_site_refinement_flags_adp
_atom_site_refinement_flags_occupancy
_atom_site_disorder_assembly
_atom_site_disorder_group
Co1 Co 0.500000 1.000000 0.000000 0.01335(12) Uani 1 2 d S T P . .
O1 O 0.6977(2) 0.82405(13) -0.00244(11) 0.0202(3) Uani 1 1 d . . . . .
O2 O 0.5967(2) 0.74735(17) -0.13006(14) 0.0386(5) Uani 1 1 d . . . . .
O3 O 0.3655(14) 0.5546(8) 0.2248(7) 0.0714(13) Uani 0.277(6) 1 d D U . A 1
O4 O 0.5347(13) 0.3408(6) 0.2785(8) 0.0550(12) Uani 0.277(6) 1 d D U . A 1
H4 H 0.514850 0.333158 0.217837 0.083 Uiso 0.277(6) 1 d R . . A 1
N1 N 0.4585(3) 0.89941(17) 0.17206(13) 0.0208(4) Uani 1 1 d . . . . .
N2 N 0.4414(3) 0.73624(17) 0.32263(13) 0.0234(4) Uani 1 1 d . . . . .
N3 N 0.3007(3) 0.8378(2) 0.33520(16) 0.0385(6) Uani 1 1 d . . . . .
N4 N 1.1140(2) 0.75546(16) -0.04160(14) 0.0189(4) Uani 1 1 d . . . . .
N5 N 1.0682(3) 0.85945(19) -0.13346(16) 0.0300(4) Uani 1 1 d . . . . .
N6 N 1.2679(2) 0.91456(16) -0.03243(14) 0.0199(4) Uani 1 1 d . . . . .
C1 C 0.5346(3) 0.7757(2) 0.22611(16) 0.0234(5) Uani 1 1 d . . . . .
H1 H 0.638257 0.723418 0.200571 0.028 Uiso 1 1 calc R . . . .
C2 C 0.3171(4) 0.9329(2) 0.24240(19) 0.0342(6) Uani 1 1 d . . . . .
H2 H 0.237816 1.016605 0.226319 0.041 Uiso 1 1 calc R . . . .
C3 C 0.4895(4) 0.6276(2) 0.51373(17) 0.0294(5) Uani 1 1 d . . . . .
H3 H 0.481342 0.714820 0.522339 0.035 Uiso 1 1 calc R . . . .
C4 C 0.4732(3) 0.6124(2) 0.40998(16) 0.0252(5) Uani 1 1 d . . . . .
C5 C 0.4819(3) 0.4847(2) 0.39381(17) 0.0269(5) Uani 1 1 d . . . . .
C6 C 0.4580(2) 0.4563(2) 0.28585(18) 0.0379(6) Uani 1 1 d D . . . .
C7 C 1.2313(3) 0.7908(2) 0.01617(17) 0.0214(4) Uani 1 1 d . . . . .
H7 H 1.281314 0.735660 0.082212 0.026 Uiso 1 1 calc R . . . .
C8 C 1.1646(3) 0.9512(2) -0.12327(19) 0.0301(5) Uani 1 1 d . . . . .
H8 H 1.162111 1.035519 -0.174946 0.036 Uiso 1 1 calc R . . . .
C9 C 1.0509(3) 0.62701(19) -0.02034(16) 0.0180(4) Uani 1 1 d . . . . .
C10 C 0.8637(3) 0.61868(19) -0.03165(16) 0.0170(4) Uani 1 1 d . . . . .
C11 C 0.8154(3) 0.4892(2) -0.01065(17) 0.0197(4) Uani 1 1 d . . . . .
H11 H 0.691005 0.480430 -0.017536 0.024 Uiso 1 1 calc R . . . .
C12 C 0.7075(3) 0.74080(19) -0.05829(16) 0.0178(4) Uani 1 1 d . . . . .
O3A O 0.4627(7) 0.5372(3) 0.1959(2) 0.0714(13) Uani 0.723(6) 1 d D U . A 2
O4A O 0.4307(7) 0.3339(3) 0.2954(3) 0.0550(12) Uani 0.723(6) 1 d D U . A 2
H4A H 0.412643 0.324759 0.235184 0.083 Uiso 0.723(6) 1 d R . . A 2
loop_
_atom_site_aniso_label
_atom_site_aniso_U_11
_atom_site_aniso_U_22
_atom_site_aniso_U_33
_atom_site_aniso_U_23
_atom_site_aniso_U_13
_atom_site_aniso_U_12
Co1 0.0177(2) 0.00920(18) 0.01226(19) -0.00065(13) -0.00182(14) -0.00272(14)
O1 0.0240(8) 0.0136(6) 0.0236(7) -0.0076(6) -0.0043(6) 0.0014(6)
O2 0.0405(10) 0.0365(9) 0.0440(10) -0.0256(8) -0.0262(8) 0.0160(8)
O3 0.171(4) 0.0365(14) 0.0126(15) -0.0049(11) -0.0141(18) -0.030(2)
O4 0.117(4) 0.0323(11) 0.0233(13) -0.0083(9) -0.012(2) -0.0273(17)
N1 0.0285(10) 0.0166(8) 0.0149(8) 0.0001(6) -0.0029(7) -0.0033(7)
N2 0.0371(11) 0.0167(8) 0.0133(8) 0.0009(7) -0.0031(7) -0.0030(8)
N3 0.0487(13) 0.0295(11) 0.0233(10) 0.0038(8) 0.0115(9) 0.0064(10)
N4 0.0202(9) 0.0113(8) 0.0239(9) -0.0015(6) -0.0048(7) -0.0025(7)
N5 0.0362(11) 0.0218(9) 0.0299(10) 0.0046(8) -0.0144(8) -0.0109(9)
N6 0.0222(9) 0.0133(8) 0.0249(9) -0.0041(7) -0.0028(7) -0.0049(7)
C1 0.0333(12) 0.0179(10) 0.0157(10) -0.0001(8) -0.0015(9) -0.0026(9)
C2 0.0426(14) 0.0241(11) 0.0246(12) 0.0033(9) 0.0040(10) 0.0056(11)
C3 0.0517(15) 0.0172(10) 0.0175(10) -0.0009(8) -0.0034(10) -0.0055(10)
C4 0.0410(13) 0.0185(10) 0.0126(9) 0.0028(8) -0.0023(9) -0.0064(10)
C5 0.0443(14) 0.0209(10) 0.0142(10) -0.0002(8) -0.0033(9) -0.0081(10)
C6 0.0700(19) 0.0243(12) 0.0179(11) 0.0007(9) -0.0075(11) -0.0108(12)
C7 0.0262(11) 0.0153(9) 0.0234(10) -0.0027(8) -0.0048(8) -0.0073(8)
C8 0.0349(13) 0.0177(10) 0.0340(13) 0.0064(9) -0.0110(10) -0.0114(10)
C9 0.0213(10) 0.0110(8) 0.0233(10) -0.0056(7) -0.0027(8) -0.0041(8)
C10 0.0189(10) 0.0133(9) 0.0195(9) -0.0053(7) -0.0020(8) -0.0019(8)
C11 0.0159(9) 0.0168(9) 0.0277(11) -0.0071(8) -0.0047(8) -0.0021(8)
C12 0.0202(10) 0.0127(9) 0.0195(10) -0.0035(7) -0.0017(8) -0.0010(8)
O3A 0.171(4) 0.0365(14) 0.0126(15) -0.0049(11) -0.0141(18) -0.030(2)
O4A 0.117(4) 0.0323(11) 0.0233(13) -0.0083(9) -0.012(2) -0.0273(17)
loop_
_atom_type_symbol
_atom_type_description
_atom_type_scat_dispersion_real
_atom_type_scat_dispersion_imag
_atom_type_scat_source
C C 0.0033 0.0016 'International Tables Vol C Tables 4.2.6.8 and 6.1.1.4'
H H 0.0000 0.0000 'International Tables Vol C Tables 4.2.6.8 and 6.1.1.4'
Co Co 0.3494 0.9721 'International Tables Vol C Tables 4.2.6.8 and 6.1.1.4'
N N 0.0061 0.0033 'International Tables Vol C Tables 4.2.6.8 and 6.1.1.4'
O O 0.0106 0.0060 'International Tables Vol C Tables 4.2.6.8 and 6.1.1.4'
loop_
_geom_angle_atom_site_label_1
_geom_angle_atom_site_label_2
_geom_angle_atom_site_label_3
_geom_angle
_geom_angle_site_symmetry_1
_geom_angle_site_symmetry_3
_geom_angle_publ_flag
O1 Co1 O1 180.0 2_675 . ?
O1 Co1 N1 95.27(6) . 2_675 ?
O1 Co1 N1 84.73(6) 2_675 2_675 ?
O1 Co1 N1 84.73(6) . . ?
O1 Co1 N1 95.27(6) 2_675 . ?
O1 Co1 N6 93.46(6) 2_675 2_775 ?
O1 Co1 N6 86.54(6) 2_675 1_455 ?
O1 Co1 N6 93.46(6) . 1_455 ?
O1 Co1 N6 86.54(6) . 2_775 ?
N1 Co1 N1 180.00(10) 2_675 . ?
N6 Co1 N1 88.16(7) 2_775 2_675 ?
N6 Co1 N1 91.84(7) 2_775 . ?
N6 Co1 N1 91.84(7) 1_455 2_675 ?
N6 Co1 N1 88.16(7) 1_455 . ?
N6 Co1 N6 180.0 2_775 1_455 ?
C12 O1 Co1 131.05(14) . . ?
C6 O4 H4 108.9 . . ?
C1 N1 Co1 127.65(14) . . ?
C1 N1 C2 103.03(17) . . ?
C2 N1 Co1 127.53(14) . . ?
N3 N2 C4 119.52(17) . . ?
C1 N2 N3 109.81(16) . . ?
C1 N2 C4 130.62(18) . . ?
C2 N3 N2 102.33(17) . . ?
N5 N4 C9 122.59(18) . . ?
C7 N4 N5 109.50(17) . . ?
C7 N4 C9 127.77(17) . . ?
C8 N5 N4 102.06(18) . . ?
C7 N6 Co1 125.82(15) . 1_655 ?
C7 N6 C8 102.33(18) . . ?
C8 N6 Co1 129.06(14) . 1_655 ?
N1 C1 N2 110.11(19) . . ?
N1 C1 H1 124.9 . . ?
N2 C1 H1 124.9 . . ?
N1 C2 H2 122.7 . . ?
N3 C2 N1 114.70(19) . . ?
N3 C2 H2 122.7 . . ?
C4 C3 H3 119.1 . . ?
C4 C3 C5 121.7(2) . 2_666 ?
C5 C3 H3 119.1 2_666 . ?
C3 C4 N2 115.98(19) . . ?
C3 C4 C5 121.00(19) . . ?
C5 C4 N2 123.00(19) . . ?
C3 C5 C6 117.1(2) 2_666 . ?
C4 C5 C3 117.3(2) . 2_666 ?
C4 C5 C6 125.62(18) . . ?
O3 C6 O4 134.8(7) . . ?
O3 C6 C5 110.4(4) . . ?
O4 C6 C5 114.8(5) . . ?
O3A C6 C5 125.5(2) . . ?
O3A C6 O4A 120.4(3) . . ?
O4A C6 C5 114.0(2) . . ?
N4 C7 H7 124.6 . . ?
N6 C7 N4 110.86(18) . . ?
N6 C7 H7 124.6 . . ?
N5 C8 N6 115.26(18) . . ?
N5 C8 H8 122.4 . . ?
N6 C8 H8 122.4 . . ?
C10 C9 N4 121.43(17) . . ?
C11 C9 N4 117.25(19) 2_765 . ?
C11 C9 C10 121.31(19) 2_765 . ?
C9 C10 C11 117.47(18) . . ?
C9 C10 C12 124.19(18) . . ?
C11 C10 C12 118.22(18) . . ?
C9 C11 C10 121.2(2) 2_765 . ?
C9 C11 H11 119.4 2_765 . ?
C10 C11 H11 119.4 . . ?
O1 C12 C10 116.44(18) . . ?
O2 C12 O1 125.47(18) . . ?
O2 C12 C10 118.03(18) . . ?
C6 O4A H4A 110.3 . . ?
loop_
_geom_bond_atom_site_label_1
_geom_bond_atom_site_label_2
_geom_bond_distance
_geom_bond_site_symmetry_2
_geom_bond_publ_flag
Co1 O1 2.1088(13) 2_675 ?
Co1 O1 2.1088(13) . ?
Co1 N1 2.1489(16) . ?
Co1 N1 2.1489(16) 2_675 ?
Co1 N6 2.1431(18) 2_775 ?
Co1 N6 2.1431(18) 1_455 ?
O1 C12 1.247(2) . ?
O2 C12 1.241(3) . ?
O3 C6 1.218(8) . ?
O4 H4 0.8200 . ?
O4 C6 1.249(5) . ?
N1 C1 1.317(2) . ?
N1 C2 1.353(3) . ?
N2 N3 1.357(3) . ?
N2 C1 1.331(3) . ?
N2 C4 1.435(2) . ?
N3 C2 1.313(3) . ?
N4 N5 1.362(2) . ?
N4 C7 1.323(3) . ?
N4 C9 1.427(3) . ?
N5 C8 1.310(3) . ?
N6 C7 1.317(3) . ?
N6 C8 1.350(3) . ?
C1 H1 0.9300 . ?
C2 H2 0.9300 . ?
C3 H3 0.9300 . ?
C3 C4 1.380(3) . ?
C3 C5 1.398(3) 2_666 ?
C4 C5 1.382(3) . ?
C5 C6 1.503(3) . ?
C6 O3A 1.209(4) . ?
C6 O4A 1.287(3) . ?
C7 H7 0.9300 . ?
C8 H8 0.9300 . ?
C9 C10 1.388(3) . ?
C9 C11 1.385(3) 2_765 ?
C10 C11 1.391(3) . ?
C10 C12 1.517(3) . ?
C11 H11 0.9300 . ?
O4A H4A 0.8163 . ?
loop_
_geom_torsion_atom_site_label_1
_geom_torsion_atom_site_label_2
_geom_torsion_atom_site_label_3
_geom_torsion_atom_site_label_4
_geom_torsion
_geom_torsion_site_symmetry_1
_geom_torsion_site_symmetry_2
_geom_torsion_site_symmetry_3
_geom_torsion_site_symmetry_4
_geom_torsion_publ_flag
Co1 O1 C12 O2 1.6(3) . . . . ?
Co1 O1 C12 C10 -175.55(12) . . . . ?
Co1 N1 C1 N2 -164.41(15) . . . . ?
Co1 N1 C2 N3 165.06(19) . . . . ?
Co1 N6 C7 N4 -162.43(13) 1_655 . . . ?
Co1 N6 C8 N5 161.71(16) 1_655 . . . ?
N2 N3 C2 N1 -0.3(3) . . . . ?
N2 C4 C5 C3 -179.0(2) . . . 2_666 ?
N2 C4 C5 C6 -0.7(4) . . . . ?
N3 N2 C1 N1 -1.4(3) . . . . ?
N3 N2 C4 C3 -50.8(3) . . . . ?
N3 N2 C4 C5 127.4(3) . . . . ?
N4 N5 C8 N6 -0.1(3) . . . . ?
N4 C9 C10 C11 179.14(18) . . . . ?
N4 C9 C10 C12 -4.8(3) . . . . ?
N5 N4 C7 N6 -0.1(2) . . . . ?
N5 N4 C9 C10 -47.0(3) . . . . ?
N5 N4 C9 C11 132.2(2) . . . 2_765 ?
C1 N1 C2 N3 -0.5(3) . . . . ?
C1 N2 N3 C2 1.0(3) . . . . ?
C1 N2 C4 C3 126.2(3) . . . . ?
C1 N2 C4 C5 -55.6(4) . . . . ?
C2 N1 C1 N2 1.1(3) . . . . ?
C3 C4 C5 C3 -0.9(4) . . . 2_666 ?
C3 C4 C5 C6 177.3(2) . . . . ?
C3 C5 C6 O3 153.7(5) 2_666 . . . ?
C3 C5 C6 O4 -26.2(5) 2_666 . . . ?
C3 C5 C6 O3A -167.3(3) 2_666 . . . ?
C3 C5 C6 O4A 12.6(3) 2_666 . . . ?
C4 N2 N3 C2 178.6(2) . . . . ?
C4 N2 C1 N1 -178.6(2) . . . . ?
C4 C5 C6 O3 -24.5(5) . . . . ?
C4 C5 C6 O4 155.6(5) . . . . ?
C4 C5 C6 O3A 14.5(3) . . . . ?
C4 C5 C6 O4A -165.6(3) . . . . ?
C5 C3 C4 N2 179.1(2) 2_666 . . . ?
C5 C3 C4 C5 0.9(4) 2_666 . . . ?
C7 N4 N5 C8 0.1(2) . . . . ?
C7 N4 C9 C10 138.0(2) . . . . ?
C7 N4 C9 C11 -42.9(3) . . . 2_765 ?
C7 N6 C8 N5 0.1(3) . . . . ?
C8 N6 C7 N4 0.0(2) . . . . ?
C9 N4 N5 C8 -175.73(18) . . . . ?
C9 N4 C7 N6 175.51(17) . . . . ?
C9 C10 C11 C9 0.0(3) . . . 2_765 ?
C9 C10 C12 O1 -48.2(3) . . . . ?
C9 C10 C12 O2 134.4(2) . . . . ?
C11 C9 C10 C11 0.0(3) 2_765 . . . ?
C11 C9 C10 C12 176.05(19) 2_765 . . . ?
C11 C10 C12 O1 127.8(2) . . . . ?
C11 C10 C12 O2 -49.6(3) . . . . ?
C12 C10 C11 C9 -176.29(18) . . . 2_765 ?
loop_
_platon_squeeze_void_nr
_platon_squeeze_void_average_x
_platon_squeeze_void_average_y
_platon_squeeze_void_average_z
_platon_squeeze_void_volume
_platon_squeeze_void_count_electrons
_platon_squeeze_void_content
1 -0.015 -0.026 0.500 321 91 ' '
loop_
_refln_index_h
_refln_index_k
_refln_index_l
_refln_F_squared_meas
_refln_F_squared_sigma
-1 0 0 341.68 9.45
-1 0 0 331.91 8.21
1 0 0 317.26 9.68
-2 0 0 428.42 10.73
-2 0 0 443.41 12.29
2 0 0 416.46 12.51
-3 0 0 190.18 5.56
-3 0 0 193.51 4.8
3 0 0 195.6 6.12
-4 0 0 118.5 3.61
-4 0 0 113.16 3.04
4 0 0 116.3 4.18
-5 0 0 136.79 4.36
-5 0 0 139.09 3.68
5 0 0 142.61 5.13
-6 0 0 19.29 1.2
-6 0 0 19.54 0.83
6 0 0 20.14 1.91
-7 0 0 1.55 0.28
-7 0 0 1.27 0.54
7 0 0 -0.09 0.91
-8 0 0 -0.1 0.48
-8 0 0 0.81 0.25
-8 1 0 13.53 0.75
-8 1 0 12.11 1.2
-7 1 0 1.9 0.31
-7 1 0 1.66 0.61
6 -1 0 1.03 0.87
-6 1 0 1.17 0.24
-6 1 0 1.05 0.45
5 -1 0 81.87 3.47
-5 1 0 90.4 3.03
-5 1 0 87.84 2.42
4 -1 0 4 0.78
-4 1 0 4.87 0.34
-4 1 0 5.25 0.55
3 -1 0 -0.21 0.4
-3 1 0 0.09 0.19
-3 1 0 0.1 0.14
2 -1 0 348.87 9.77
-2 1 0 319.6 9.25
-2 1 0 330.19 8.11
-1 1 0 5.44 0.24
-1 1 0 6.29 0.3
0 -1 0 13.2 0.44
0 1 0 13.12 0.44
-1 -1 0 7.16 0.25
-2 -1 0 92.26 2.46
-2 -1 0 97.8 2.81
2 1 0 101.45 3.25
-3 -1 0 0.18 0.09
-3 -1 0 0.28 0.18
3 1 0 0.98 0.46
-4 -1 0 16.72 0.66
-4 -1 0 18.05 0.85
4 1 0 14.15 1.19
-5 -1 0 3.48 0.5
-5 -1 0 3.37 0.35
5 1 0 3.36 0.91
-6 -1 0 4.23 0.42
-6 -1 0 4.27 0.63
6 1 0 3 1.08
-7 -1 0 1.81 0.55
-7 -1 0 1.66 0.31
7 1 0 0.84 0.98
-8 -1 0 0.36 0.21
8 1 0 -1.52 0.98
-9 2 0 10.86 1.37
-8 2 0 3.03 0.81
-7 2 0 10.52 1.16
-7 2 0 9.25 0.57
6 -2 0 66.22 2.95
-6 2 0 72.55 2.08
-6 2 0 69.01 2.73
5 -2 0 7.06 0.94
-5 2 0 7.03 0.75
-5 2 0 7 0.46
4 -2 0 39.15 1.77
-4 2 0 40.81 1.28
-4 2 0 38.52 1.57
3 -2 0 97.61 3.16
-3 2 0 94.58 3.01
-3 2 0 94.44 2.58
2 -2 0 52.35 1.63
-2 2 0 48.77 1.38
-2 2 0 42.39 1.58
1 -2 0 149.28 4.43
-1 2 0 154.26 4.37
-1 2 0 154.22 3.78
0 -2 0 7.34 0.33
-1 -2 0 1.8 0.17
1 2 0 1.43 0.34
-2 -2 0 38.75 1.12
2 2 0 40.13 1.69
-3 -2 0 105.45 2.87
3 2 0 115.97 3.93
-4 -2 0 49.48 1.73
-4 -2 0 52.19 1.54
4 2 0 52.42 2.41
-5 -2 0 5.17 0.55
-5 -2 0 6.24 0.41
5 2 0 7.83 1.18
-6 -2 0 35.02 1.28
-6 -2 0 36.43 1.54
6 2 0 34.64 2.38
-7 -2 0 31.07 1.47
-7 -2 0 29.36 1.2
7 2 0 28.29 2.4
-8 -2 0 6.76 0.56
8 2 0 4.53 1.51
-9 -2 0 6.72 0.71
-8 3 0 3.96 0.94
-7 3 0 26.24 1.67
-6 3 0 12.32 0.63
-6 3 0 10.11 1
5 -3 0 21.05 1.21
-5 3 0 25.54 1.32
-5 3 0 23.21 0.93
4 -3 0 0.34 0.3
-4 3 0 0.31 0.27
-4 3 0 0.37 0.28
3 -3 0 38.7 1.46
-3 3 0 41.04 1.57
-3 3 0 42.9 1.33
2 -3 0 422.42 12.41
-2 3 0 439.81 10.58
-2 3 0 438.73 12.13
1 -3 0 192.14 5.55
-1 3 0 189.03 4.74
0 -3 0 8 0.39
-1 -3 0 2.21 0.22
2 3 0 5.1 0.66
3 3 0 35.61 1.8
-4 -3 0 26.18 0.91
4 3 0 21.01 1.57
-5 -3 0 1.71 0.26
5 3 0 2.02 0.79
-6 -3 0 10.31 0.61
6 3 0 10.3 1.6
-7 -3 0 0.49 0.22
7 3 0 1.01 1.03
8 3 0 21.17 2.51
9 3 0 5.87 1.84
-8 4 0 1.55 0.82
-7 4 0 10.16 1.22
-6 4 0 26.86 1.09
-6 4 0 24.49 1.5
-5 4 0 0.36 0.3
-5 4 0 1.12 0.41
4 -4 0 4.23 0.41
-4 4 0 4.44 0.62
-4 4 0 5.33 0.52
3 -4 0 44.01 1.54
-3 4 0 44.78 1.45
-3 4 0 44.49 1.74
2 -4 0 28.45 1.02
-2 4 0 27.49 0.94
-2 4 0 26.34 1.16
1 -4 0 207.86 6.14
-1 4 0 211.47 5.28
0 -4 0 67.79 2.18
-1 -4 0 100.18 3.14
2 4 0 3.05 0.6
3 4 0 82.66 3.32
4 4 0 4.26 0.85
5 4 0 1.18 0.73
6 4 0 0.77 0.91
7 4 0 0.66 1.05
8 4 0 7.42 1.78
9 4 0 -0.62 1.14
-8 5 0 7.83 1.23
-7 5 0 4.35 0.92
-6 5 0 19.02 1.39
-5 5 0 1.27 0.37
-5 5 0 1.22 0.49
-4 5 0 18.79 0.93
-4 5 0 17.12 1.07
3 -5 0 1.23 0.22
-3 5 0 0.96 0.32
-3 5 0 1.07 0.32
2 -5 0 1.83 0.25
-2 5 0 2.11 0.3
-2 5 0 2.15 0.37
1 -5 0 28.39 1.07
-1 5 0 27.69 0.98
0 -5 0 11.48 0.59
-1 -5 0 6.36 0.45
2 5 0 40.18 2.01
3 5 0 33.46 1.9
4 5 0 2.5 0.75
5 5 0 75.89 3.64
6 5 0 6.94 1.38
7 5 0 16.16 2.2
8 5 0 10.99 2.06
9 5 0 -0.02 1.38
-7 6 0 13.92 1.34
-6 6 0 10.46 1.17
-5 6 0 11.24 1.04
-4 6 0 23.95 1.1
-4 6 0 22.93 1.31
3 -6 0 3.75 0.34
-3 6 0 3.69 0.45
-3 6 0 3.57 0.56
2 -6 0 7.51 0.47
-2 6 0 7.67 0.53
-2 6 0 7.46 0.64
1 -6 0 11.79 0.62
-1 6 0 11.4 0.61
0 -6 0 1.27 0.25
0 6 0 1.45 0.28
-1 -6 0 11.41 0.66
2 6 0 28.1 1.68
3 6 0 22.29 1.64
4 6 0 31.14 2.07
5 6 0 3.15 1
6 6 0 40.27 2.82
7 6 0 21.08 2.48
8 6 0 0.66 1.3
9 6 0 6.63 2.07
-7 7 0 -0.52 0.62
-6 7 0 0.31 0.58
-5 7 0 0.1 0.38
-4 7 0 1.91 0.52
-3 7 0 6.75 0.79
-3 7 0 4.71 0.53
2 -7 0 9.94 0.59
-2 7 0 10.15 0.78
-2 7 0 9.63 0.62
1 -7 0 13.85 0.73
-1 7 0 13.78 0.72
0 -7 0 5.11 0.45
0 7 0 5.23 0.54
-1 -7 0 10.7 0.68
2 7 0 42.78 2.28
3 7 0 4.45 0.92
4 7 0 4.22 1.1
5 7 0 57.8 3.28
6 7 0 12.35 1.9
7 7 0 8.81 1.81
8 7 0 7.25 1.92
-6 8 0 1.55 0.67
-5 8 0 6.49 0.96
-4 8 0 10.05 0.94
-3 8 0 87.11 3.24
-3 8 0 83.04 2.6
-2 8 0 81.14 2.46
-2 8 0 77.29 2.93
1 -8 0 4.23 0.42
-1 8 0 3.75 0.56
-1 8 0 3.15 0.44
0 -8 0 89.12 3.04
0 8 0 88.82 2.75
-1 -8 0 37.33 1.53
1 8 0 32.22 1.95
2 8 0 94 3.99
3 8 0 12.28 1.63
4 8 0 3.05 0.96
5 8 0 16.81 2.11
6 8 0 4.54 1.33
7 8 0 3.31 1.48
8 8 0 2.02 1.4
-5 9 0 -0.01 0.48
-4 9 0 3.28 0.71
-3 9 0 31.76 1.73
-2 9 0 3.9 0.53
-2 9 0 3.37 0.6
1 -9 0 15.75 0.89
-1 9 0 16.43 0.91
-1 9 0 15.42 1.01
0 -9 0 0 0.17
0 9 0 0.31 0.24
1 9 0 29.47 1.92
2 9 0 95.09 4.17
3 9 0 1.65 0.8
4 9 0 20.01 1.91
5 9 0 3.58 1.24
6 9 0 1.32 1.17
7 9 0 2.85 1.54
8 9 0 10.46 2.32
-5 10 0 0.1 0.5
-4 10 0 12.17 1.31
-3 10 0 14.1 1.19
-2 10 0 1.01 0.45
-1 10 0 9.59 0.83
-1 10 0 9.29 0.75
0 10 0 0.51 0.28
0 10 0 1.15 0.33
0 10 0 0.79 0.5
1 10 0 9.46 1.35
1 10 0 10.43 0.8
2 10 0 18.51 1.72
3 10 0 29.09 2.28
4 10 0 46.62 3.09
5 10 0 18.84 2.49
6 10 0 5.6 1.65
7 10 0 17.89 2.72
-4 11 0 15.45 1.38
-3 11 0 -0.12 0.4
-2 11 0 13.52 1.14
-1 11 0 26.1 1.52
0 11 0 31.06 1.6
0 11 0 30.87 1.47
1 11 0 34.13 2.28
1 11 0 29.71 1.48
2 11 0 3.81 1.06
3 11 0 4.38 1.16
4 11 0 13.22 2.02
5 11 0 4.61 1.4
6 11 0 9.36 2.08
-2 12 0 0.09 0.41
-1 12 0 2.76 0.61
0 12 0 10.4 0.92
0 12 0 9.8 0.97
1 12 0 30.4 1.58
1 12 0 30.18 1.53
2 12 0 1.71 0.91
2 12 0 2 0.5
3 12 0 1.47 0.96
4 12 0 -0.39 0.87
5 12 0 1.83 1.13
0 13 0 19.19 1.31
1 13 0 12.98 1.05
2 13 0 20.05 1.3
3 13 0 4.03 1.36
3 13 0 5.17 0.74
2 13 -1 7.37 1.56
5 12 -1 18.26 2.66
4 12 -1 10.93 2
3 12 -1 0.66 0.75
2 12 -1 0.77 0.3
2 12 -1 0.34 0.6
1 12 -1 28.37 1.46
1 12 -1 25.75 2.16
0 12 -1 9.03 0.89
-1 12 -1 16.79 1.28
-2 12 -1 1.63 0.58
6 11 -1 2.35 1.28
5 11 -1 1.29 1.02
4 11 -1 8.77 1.64
3 11 -1 1.38 0.88
2 11 -1 1.28 0.72
1 11 -1 0.88 0.33
1 11 -1 0.57 0.57
1 11 -1 1.55 0.35
0 11 -1 7.01 0.77
0 11 -1 8.89 0.81
-1 11 -1 29.82 1.65
-2 11 -1 9.02 1.07
-3 11 -1 0.53 0.51
7 10 -1 4.8 1.84
6 10 -1 0.48 1.04
5 10 -1 2 1.01
4 10 -1 16.23 2.15
3 10 -1 3.56 1.06
2 10 -1 14.43 1.81
1 10 -1 11.09 0.82
1 10 -1 12.87 0.87
1 10 -1 10.99 1.44
0 10 -1 12.07 0.83
0 10 -1 12.15 0.91
0 -10 1 12.46 0.88
-1 10 -1 18.4 1.2
-2 10 -1 0.53 0.41
-3 10 -1 6.31 0.91
-4 10 -1 11.44 1.32
7 9 -1 7.56 1.97
6 9 -1 12.36 1.97
5 9 -1 23.15 2.27
4 9 -1 22.39 2.07
3 9 -1 3.27 0.97
2 9 -1 88.58 4
-1 -9 1 60.48 2.38
0 9 -1 26.91 1.25
0 9 -1 29.05 1.4
0 -9 1 28.7 1.38
-1 9 -1 21.54 1.22
-1 9 -1 19.41 0.99
1 -9 1 18.94 1.05
-2 9 -1 6.05 0.77
-3 9 -1 32.77 1.75
-4 9 -1 12.14 1.17
-5 9 -1 2.11 0.77
8 8 -1 0.43 1.39
7 8 -1 3.75 1.54
6 8 -1 12.67 1.97
5 8 -1 21.04 2.02
4 8 -1 3.16 0.99
3 8 -1 6.23 1.16
2 8 -1 34.45 2.16
-2 -8 1 34.31 1.56
-1 -8 1 8.88 0.7
0 8 -1 31.97 1.3
0 8 -1 31.85 1.43
0 -8 1 31.01 1.41
-1 8 -1 36.09 1.37
-1 8 -1 34.93 1.61
1 -8 1 36.72 1.52
-2 8 -1 9.04 0.63
-2 8 -1 7.6 0.73
2 -8 1 8.79 0.63
-3 8 -1 24.14 1.42
-4 8 -1 2.16 0.58
-5 8 -1 0.21 0.48
-6 8 -1 -0.88 0.53
8 7 -1 4.79 1.8
7 7 -1 1.25 1.12
6 7 -1 9.29 1.67
5 7 -1 22.4 2.06
4 7 -1 0.41 0.68
3 7 -1 45.36 2.54
-2 -7 1 113.86 3.83
-1 -7 1 103.53 3.49
0 7 -1 14.4 0.77
0 -7 1 14.75 0.82
-1 7 -1 97.92 3.23
-1 7 -1 92.7 2.73
1 -7 1 93.76 3.16
-2 7 -1 144.91 4.66
-2 7 -1 143 3.88
2 -7 1 144.01 4.54
-3 7 -1 55.24 2.32
-3 7 -1 59.51 1.87
-4 7 -1 85.87 3.28
-5 7 -1 14.41 1.24
-6 7 -1 11.45 1.3
-7 7 -1 5.6 1.13
9 6 -1 3.98 1.77
8 6 -1 1.12 1.31
7 6 -1 19.57 2.42
6 6 -1 45.86 3.03
5 6 -1 3.02 0.96
4 6 -1 11.4 1.47
3 6 -1 74.08 3.35
-2 -6 1 42.22 1.7
-1 -6 1 11.25 0.68
0 -6 1 1.79 0.32
-1 6 -1 5.24 0.5
-1 6 -1 6.07 0.43
1 -6 1 5.25 0.44
-2 6 -1 0.34 0.26
-2 6 -1 0.45 0.22
2 -6 1 0.77 0.22
-3 6 -1 1.23 0.31
-3 6 -1 1.09 0.39
3 -6 1 1.16 0.26
-4 6 -1 0.88 0.39
-5 6 -1 -0.05 0.37
-6 6 -1 3.52 0.84
-7 6 -1 3.25 0.89
9 5 -1 -0.9 1.32
8 5 -1 11.58 2.07
7 5 -1 10.09 1.79
6 5 -1 2.44 0.98
5 5 -1 52.2 2.89
4 5 -1 18.48 1.53
3 5 -1 83.65 3.5
-2 -5 1 47.01 1.78
-1 -5 1 15.05 0.77
0 -5 1 9.55 0.57
-1 5 -1 14.27 0.62
-1 5 -1 13.91 0.76
1 -5 1 14.94 0.72
-2 5 -1 16.58 0.91
-2 5 -1 16.59 0.69
2 -5 1 16.94 0.79
-3 5 -1 1.4 0.35
-3 5 -1 1.49 0.31
3 -5 1 1.42 0.27
-4 5 -1 -0.14 0.27
-4 5 -1 0.32 0.29
4 -5 1 -0.09 0.15
-5 5 -1 -0.09 0.33
-6 5 -1 9.03 1.06
-7 5 -1 0.14 0.63
-8 5 -1 6.37 1.16
9 4 -1 5.25 1.88
8 4 -1 21.42 2.58
7 4 -1 7.52 1.57
6 4 -1 13.66 1.81
-6 -4 1 14.58 0.78
5 4 -1 6.81 1.18
-5 -4 1 6.55 0.48
4 4 -1 56.88 2.76
3 4 -1 138.27 4.98
-2 -4 1 9.46 0.57
-1 -4 1 48.35 1.71
0 -4 1 213.65 6.36
-1 4 -1 225.62 6.57
-1 4 -1 228.6 5.69
1 -4 1 229.33 6.74
-2 4 -1 19.07 0.69
2 -4 1 18.22 0.82
-3 4 -1 61.86 1.79
-3 4 -1 59.71 2.21
3 -4 1 60.66 2.1
-4 4 -1 4.38 0.45
-4 4 -1 3.89 0.59
4 -4 1 4.55 0.52
-5 4 -1 11.45 0.62
-5 4 -1 11.28 0.93
-6 4 -1 18.93 1.36
-7 4 -1 3.93 0.83
-8 4 -1 -0.02 0.73
9 3 -1 10.87 2.32
8 3 -1 16.19 2.25
-8 -3 1 19.86 1.03
7 3 -1 1.1 1.07
-7 -3 1 2.61 0.42
6 3 -1 12.82 1.65
-6 -3 1 12.68 0.7
5 3 -1 1.27 0.75
-5 -3 1 1.47 0.26
4 3 -1 19.22 1.42
-4 -3 1 21.38 0.83
3 3 -1 55.19 2.48
-3 -3 1 60.45 1.7
-2 -3 1 14.45 0.69
-1 -3 1 42.91 1.49
-1 3 -1 16.21 0.55
-1 3 -1 15.06 0.7
1 -3 1 16.62 0.7
-2 3 -1 156.92 3.92
-2 3 -1 156.37 4.64
2 -3 1 154.6 4.7
-3 3 -1 97.72 3.13
-3 3 -1 95.27 2.57
3 -3 1 94.71 3.11
-4 3 -1 10.12 0.56
-4 3 -1 10.26 0.8
4 -3 1 10.47 0.76
-5 3 -1 31.36 1.05
-5 3 -1 29.99 1.53
5 -3 1 28.83 1.46
-6 3 -1 5.84 0.83
-7 3 -1 7.54 1.04
-8 3 -1 1.57 0.78
-9 -2 1 1.71 0.39
8 2 -1 -0.54 1.02
-8 -2 1 0.45 0.25
7 2 -1 18.21 2.09
-7 -2 1 16.44 0.85
6 2 -1 4.02 1.11
-6 -2 1 2.41 0.45
-6 -2 1 2.69 0.37
5 2 -1 2.82 0.81
-5 -2 1 3.55 0.44
-5 -2 1 3.22 0.35
4 2 -1 0.19 0.43
-4 -2 1 0.15 0.17
-4 -2 1 0.22 0.12
3 2 -1 40.78 1.84
-3 -2 1 37.17 1.17
2 2 -1 224.61 6.52
-2 -2 1 190.92 5.12
-1 -2 1 112.16 3.39
-1 -2 1 112.48 2.82
0 2 -1 42.04 1.31
0 -2 1 42.77 1.39
-1 2 -1 3.45 0.28
-1 2 -1 4.03 0.19
1 -2 1 2.8 0.26
-2 2 -1 0.16 0.15
-2 2 -1 0.29 0.17
2 -2 1 0.03 0.18
-3 2 -1 91.38 2.4
-3 2 -1 89.74 2.91
3 -2 1 90.52 3.06
-4 2 -1 57.19 1.62
-4 2 -1 56.46 2.12
4 -2 1 57.9 2.31
-5 2 -1 2.56 0.51
-5 2 -1 2.25 0.27
5 -2 1 1.67 0.65
-6 2 -1 40.59 1.89
-6 2 -1 37.29 1.27
6 -2 1 41.56 2.12
-7 2 -1 14.57 1.27
-8 2 -1 13.89 1.46
-9 2 -1 24.94 1.87
-9 -1 1 6.04 0.67
-8 -1 1 5.2 0.58
7 1 -1 22.55 2.09
-7 -1 1 22.42 1.32
-7 -1 1 23.89 1.03
6 1 -1 26.99 2.01
-6 -1 1 24.84 1.02
-6 -1 1 26.08 1.29
5 1 -1 20.07 1.58
-5 -1 1 18.89 0.8
-5 -1 1 19.85 1.01
4 1 -1 135.28 4.88
-4 -1 1 142.5 4.18
-4 -1 1 142.44 3.68
3 1 -1 42.8 1.89
-3 -1 1 47.32 1.49
-3 -1 1 45.13 1.32
2 1 -1 714.93 22.17
-2 -1 1 772.77 20.93
-2 -1 1 778.74 18.99
-1 -1 1 143.17 4.28
-1 -1 1 149.24 3.6
0 1 -1 106.27 2.86
0 -1 1 98.1 3.02
-1 1 -1 96.78 2.4
-1 1 -1 97.23 2.84
1 -1 1 100.85 3
-2 1 -1 0.35 0.18
-2 1 -1 0.29 0.12
2 -1 1 0.61 0.37
-3 1 -1 9.4 0.38
-3 1 -1 9.13 0.58
3 -1 1 7.52 0.83
-4 1 -1 16.43 0.9
-4 1 -1 15.63 0.59
4 -1 1 14.69 1.22
-5 1 -1 41.11 1.75
-5 1 -1 42.09 1.27
5 -1 1 37.38 2.16
-6 1 -1 0.98 0.21
-6 1 -1 1.34 0.5
6 -1 1 1.73 0.9
-7 1 -1 2.11 0.3
-7 1 -1 2.3 0.64
7 -1 1 1.75 0.92
-8 1 -1 23.47 1.56
-9 1 -1 14.89 1.55
-9 0 1 11.92 0.79
-8 0 1 1.9 0.36
7 0 -1 0 0.87
-7 0 1 0.66 0.22
-7 0 1 0.39 0.47
6 0 -1 1.66 0.89
-6 0 1 2.13 0.54
-6 0 1 1.54 0.28
5 0 -1 8.48 1.17
-5 0 1 7.74 0.48
-5 0 1 9.31 0.73
4 0 -1 3.06 0.68
-4 0 1 3.09 0.41
-4 0 1 2.38 0.28
3 0 -1 0.58 0.38
-3 0 1 0.58 0.2
-3 0 1 0.56 0.16
2 0 -1 917.8 27.61
-2 0 1 966.62 23.92
-2 0 1 1000 26.84
-1 0 1 38.22 1.06
-1 0 1 39.71 1.2
-1 0 1 39.04 1.13
0 0 -1 289.53 8.87
0 0 1 314.93 8.99
-1 0 -1 71.08 1.71
-1 0 -1 72.26 2.05
1 0 1 66.06 2.26
-2 0 -1 118.7 2.88
2 0 1 113.53 3.8
-3 0 -1 25.37 0.78
-3 0 -1 26.38 1.07
3 0 1 26.37 1.45
-4 0 -1 32.4 1.02
-4 0 -1 33.16 1.38
4 0 1 35.14 1.9
-5 0 -1 63.66 1.85
-5 0 -1 62.01 2.35
5 0 1 67.52 3.04
-6 0 -1 18.48 1.19
-6 0 -1 17.17 0.75
6 0 1 19.36 1.83
-7 0 -1 4.23 0.44
-7 0 -1 4.48 0.72
7 0 1 4.08 1.25
-8 0 -1 1.21 0.63
-8 0 -1 1.49 0.31
-9 0 -1 6.71 1.07
-8 1 1 11.42 1.23
-8 1 1 13.1 0.77
-7 1 1 0.12 0.47
-7 1 1 0.63 0.21
6 -1 -1 3.45 1
-6 1 1 2.68 0.36
-6 1 1 2.93 0.6
5 -1 -1 102.19 3.85
-5 1 1 96.56 2.73
-5 1 1 97.93 3.26
4 -1 -1 276.69 8.47
-4 1 1 270.19 6.82
-4 1 1 269.2 7.82
3 -1 -1 169.93 5.18
-3 1 1 163.07 4.21
-3 1 1 158.41 4.76
2 -1 -1 9.98 0.63
-2 1 1 8.93 0.46
-2 1 1 9.43 0.47
1 -1 -1 786.47 22.59
-1 1 1 793.43 19.73
0 -1 -1 293.03 8.44
0 1 1 285.45 7.27
0 1 1 280.28 8.17
1 1 1 309.59 9.06
-2 -1 -1 950.58 23.5
-2 -1 -1 990.75 27.05
2 1 1 933.7 28.03
-3 -1 -1 5.69 0.29
-3 -1 -1 5.72 0.44
3 1 1 5.83 0.81
-4 -1 -1 123.15 3.18
-4 -1 -1 120.06 3.76
4 1 1 123.22 4.46
-5 -1 -1 44.57 1.38
-5 -1 -1 43.12 1.76
5 1 1 44.54 2.48
-6 -1 -1 52 1.65
-6 -1 -1 52.65 2.12
6 1 1 50.87 2.94
-7 -1 -1 20.7 1.3
-7 -1 -1 19.04 0.87
7 1 1 16.33 2
-8 -1 -1 1.6 0.56
-8 -1 -1 1.01 0.27
8 1 1 1.75 1.16
-8 2 1 0.33 0.59
-8 2 1 0.57 0.2
-7 2 1 0.38 0.19
-7 2 1 -0.63 0.46
-6 2 1 39.76 1.86
-6 2 1 42.5 1.43
5 -2 -1 9.03 1.05
-5 2 1 7.23 0.52
-5 2 1 7.97 0.73
4 -2 -1 107.25 3.83
-4 2 1 117.92 3.62
-4 2 1 115.95 3.14
3 -2 -1 125.97 3.95
-3 2 1 121.92 3.78
-3 2 1 127.67 3.35
2 -2 -1 0.23 0.18
-2 2 1 0.03 0.19
-2 2 1 0.08 0.13
1 -2 -1 547.74 15.56
-1 2 1 544.16 13.56
0 2 1 28.53 0.83
0 2 1 27.02 0.99
2 2 1 134.81 4.44
-3 -2 -1 115.49 2.98
3 2 1 114.51 4.07
-4 -2 -1 0.51 0.14
-4 -2 -1 0.42 0.23
4 2 1 -0.02 0.56
-5 -2 -1 4.86 0.36
-5 -2 -1 4.72 0.56
5 2 1 4.73 1.01
-6 -2 -1 33.93 1.21
-6 -2 -1 34.38 1.54
6 2 1 31.78 2.37
-7 -2 -1 20.28 1.2
-7 -2 -1 19.63 0.91
7 2 1 20.21 2.26
-8 -2 -1 5.23 0.75
8 2 1 3.34 1.41
-8 3 1 0.66 0.68
-7 3 1 11.68 0.68
-7 3 1 10.29 1.16
-6 3 1 10.55 0.65
-6 3 1 9.53 0.9
-5 3 1 36.34 1.64
-5 3 1 38.18 1.37
4 -3 -1 0.28 0.28
-4 3 1 0.3 0.26
-4 3 1 0.18 0.31
3 -3 -1 0.14 0.16
-3 3 1 0.1 0.18
-3 3 1 0.75 0.28
2 -3 -1 198.95 5.76
-2 3 1 199.54 5.82
-2 3 1 202.17 5.08
1 -3 -1 126.83 3.63
-1 3 1 123.24 3.21
0 -3 -1 12.74 0.49
0 3 1 12.36 0.67
0 3 1 12.45 0.52
1 3 1 23.75 1.13
2 3 1 5.92 0.73
3 3 1 33.51 1.78
4 3 1 4.93 0.97
5 3 1 3.8 1.04
6 3 1 8.6 1.43
7 3 1 0.39 1.01
8 3 1 29.21 2.78
9 3 1 6.52 1.93
-8 4 1 1.65 0.8
-7 4 1 15.28 1.31
-6 4 1 46.09 2.1
-6 4 1 44.28 1.59
-5 4 1 3.52 0.51
-5 4 1 3.97 0.65
4 -4 -1 0.45 0.17
-4 4 1 0.7 0.32
-4 4 1 0.14 0.32
3 -4 -1 11.19 0.48
-3 4 1 9.57 0.66
-3 4 1 11.11 0.67
2 -4 -1 21.62 0.74
-2 4 1 20.83 0.82
-2 4 1 19.79 0.97
1 -4 -1 135.06 3.88
-1 4 1 128.08 3.43
0 -4 -1 66.73 2.08
0 4 1 65.58 1.9
1 4 1 20.08 1.11
2 4 1 4.55 0.68
3 4 1 125.52 4.56
4 4 1 29.33 1.94
5 4 1 42.03 2.49
6 4 1 0.76 0.83
7 4 1 1.51 1.22
8 4 1 7.32 1.68
9 4 1 -0.69 1.27
-8 5 1 8.07 1.27
-7 5 1 14.98 1.36
-6 5 1 33.82 1.81
-6 5 1 34.24 1.39
-5 5 1 11.88 0.96
-5 5 1 13.71 0.86
-4 5 1 31.4 1.53
-4 5 1 33.22 1.33
3 -5 -1 14.62 0.6
-3 5 1 16.07 0.82
-3 5 1 14.4 0.88
2 -5 -1 83.15 2.52
-2 5 1 81.03 2.35
1 -5 -1 75.09 2.31
-1 5 1 72.36 2.11
0 -5 -1 88.97 2.78
0 5 1 87.84 2.52
1 5 1 2 0.48
2 5 1 71.96 2.92
3 5 1 27.37 1.73
4 5 1 1.48 0.69
5 5 1 40.22 2.57
6 5 1 5.82 1.36
7 5 1 7.37 1.54
8 5 1 0.85 1.31
9 5 1 -0.67 1.37
-7 6 1 13.58 1.47
-6 6 1 2.1 0.68
-5 6 1 11.56 0.84
-5 6 1 13 1.04
-4 6 1 21.02 1.09
-4 6 1 20.77 1.23
-3 6 1 16.69 0.87
-3 6 1 17.87 1.04
2 -6 -1 49.56 1.65
-2 6 1 51.13 1.63
-2 6 1 47.71 1.94
1 -6 -1 13.44 0.63
-1 6 1 13.09 0.67
0 -6 -1 1.94 0.28
0 6 1 1.49 0.29
1 6 1 10.49 0.93
2 6 1 26.46 1.6
3 6 1 21.17 1.55
4 6 1 34.21 2.17
5 6 1 2.29 0.95
6 6 1 47.75 3.13
7 6 1 23.74 2.36
8 6 1 -0.97 1.14
9 6 1 2.21 1.57
-7 7 1 4.11 0.93
-6 7 1 0.52 0.5
-5 7 1 7.91 0.98
-4 7 1 13 0.91
-4 7 1 15.19 1.1
-3 7 1 0.89 0.36
-3 7 1 1.14 0.37
2 -7 -1 14.34 0.67
-2 7 1 14.25 0.78
-2 7 1 13.49 0.92
1 -7 -1 6.32 0.44
-1 7 1 6.1 0.5
0 -7 -1 0.16 0.14
0 7 1 0.08 0.18
0 7 1 0.15 0.31
1 7 1 18.42 1.31
2 7 1 9.53 1.22
3 7 1 4.46 0.93
4 7 1 0.78 0.74
5 7 1 38.01 2.61
6 7 1 21.87 2.19
7 7 1 6.48 1.61
8 7 1 6.3 1.91
-6 8 1 0.39 0.59
-5 8 1 0.09 0.4
-4 8 1 2.57 0.58
-3 8 1 8.34 0.79
-3 8 1 8.3 0.73
-2 8 1 4.38 0.54
-2 8 1 3.92 0.59
1 -8 -1 18.07 0.88
-1 8 1 19.48 0.94
0 8 1 28.18 1.63
0 8 1 28.75 1.22
1 8 1 37.28 2.05
2 8 1 27.47 1.82
3 8 1 1.85 0.8
4 8 1 9.18 1.49
5 8 1 16.4 2.05
6 8 1 15.55 2.27
7 8 1 0.88 1.24
8 8 1 -1.38 1.27
-6 9 1 1.52 0.7
-5 9 1 2.62 0.69
-4 9 1 10.75 1.17
-3 9 1 26.64 1.26
-3 9 1 26.39 1.51
-2 9 1 10.58 0.88
-2 9 1 11.62 0.81
-1 9 1 39.65 1.55
0 9 1 0.43 0.26
0 9 1 0.19 0.34
1 9 1 55.99 2.75
1 9 1 54.16 2.01
2 9 1 57.38 2.94
3 9 1 12.31 1.65
4 9 1 78.57 3.97
5 9 1 12.43 1.89
6 9 1 1.6 1.18
7 9 1 4.54 1.57
8 9 1 7.45 2.11
-5 10 1 -0.15 0.53
-4 10 1 10.4 1.22
-3 10 1 11.86 1.07
-2 10 1 22.88 1.19
-2 10 1 23.24 1.42
-1 10 1 39.13 1.88
-1 10 1 39.99 1.63
0 10 1 1.76 0.41
0 10 1 1.47 0.59
1 10 1 2.82 0.49
1 10 1 1.51 0.66
2 10 1 4.15 1
3 10 1 13.17 1.72
4 10 1 33.85 2.55
5 10 1 2.02 1.13
6 10 1 0.02 0.94
7 10 1 9.3 2.07
-4 11 1 2.34 0.66
-3 11 1 3.81 0.78
-2 11 1 12.74 1.09
-1 11 1 12.39 0.99
-1 11 1 12.78 0.91
0 11 1 15.68 1.02
1 11 1 15.53 1.61
1 11 1 17.33 1.07
2 11 1 3.15 0.57
2 11 1 3.27 1.02
3 11 1 25.98 2.26
4 11 1 26.21 2.42
5 11 1 12.07 2.08
6 11 1 15.14 2.52
-2 12 1 3.54 0.7
-1 12 1 3.85 0.67
0 12 1 17.58 1.14
0 12 1 17.03 1.17
1 12 1 43.07 1.9
2 12 1 10.53 0.92
2 12 1 10.47 1.65
3 12 1 9.76 1.74
4 12 1 5.51 1.47
5 12 1 13.15 2.2
-1 13 1 1.25 0.44
0 13 1 6.08 0.8
0 13 1 3.84 0.7
1 13 1 3.46 0.51
1 13 1 1.12 0.46
2 13 1 15.94 1.16
3 13 1 -0.17 0.83
3 13 1 1.89 0.48
4 13 1 -1.44 0.82
4 12 -2 10.48 1.87
3 12 -2 2.77 1.04
2 12 -2 2.49 0.9
1 12 -2 22.87 2.02
-1 12 -2 4.58 0.81
5 11 -2 5.1 1.61
4 11 -2 13.13 2.05
3 11 -2 1.3 0.85
2 11 -2 6.31 1.31
1 11 -2 1.38 0.4
1 11 -2 1.44 0.59
-1 -11 2 0.73 0.36
0 11 -2 2.73 0.56
0 -11 2 2.08 0.5
-1 11 -2 15.12 1.17
-2 11 -2 8.7 1.11
-3 11 -2 -0.16 0.5
6 10 -2 -0.18 0.94
5 10 -2 4.99 1.4
4 10 -2 11.29 1.84
3 10 -2 5.5 1.23
2 10 -2 12.14 1.66
1 10 -2 0.39 0.24
-1 -10 2 0.4 0.27
0 10 -2 20.18 1.06
0 10 -2 19.18 1.17
0 -10 2 18.97 1.18
-1 10 -2 42.63 2
-2 10 -2 3.28 0.65
-3 10 -2 16.53 1.34
-4 10 -2 5.76 0.98
7 9 -2 -0.87 0.86
6 9 -2 -0.19 0.86
5 9 -2 2.83 1.08
4 9 -2 0.04 0.56
3 9 -2 7.68 1.33
-2 -9 2 2.36 0.52
1 9 -2 1.82 0.39
-1 -9 2 1.42 0.37
0 9 -2 2.19 0.45
0 9 -2 1.74 0.37
0 -9 2 2.16 0.43
-1 9 -2 2.61 0.5
1 -9 2 2.55 0.47
-2 9 -2 0.67 0.39
-3 9 -2 7.68 0.98
-4 9 -2 1.26 0.59
-5 9 -2 2.61 0.78
8 8 -2 4.57 1.68
7 8 -2 5.62 1.68
6 8 -2 31.94 2.66
5 8 -2 67.09 3.78
4 8 -2 11.7 1.71
3 8 -2 63.73 3.28
-2 -8 2 66.53 2.59
1 8 -2 89.15 2.96
-1 -8 2 87.04 3.16
0 8 -2 197.24 5.27
0 8 -2 189.48 5.89
0 -8 2 192.78 6.12
-1 8 -2 12.71 0.9
-1 8 -2 12.34 0.71
1 -8 2 12.42 0.82
-2 8 -2 57.23 2.31
2 -8 2 53.88 2.14
-3 8 -2 33.36 1.74
-4 8 -2 10.02 1.1
-5 8 -2 3.92 0.85
-6 8 -2 6.03 1.06
8 7 -2 1.04 1.35
7 7 -2 3.54 1.42
6 7 -2 20.83 2.5
5 7 -2 8.71 1.51
4 7 -2 5.99 1.24
3 7 -2 2.09 0.79
-2 -7 2 4.95 0.61
1 7 -2 27.86 1.19
-1 -7 2 27.64 1.31
0 7 -2 19.13 0.99
0 -7 2 20 1.04
-1 7 -2 5.54 0.45
-1 7 -2 6.71 0.62
1 -7 2 5.93 0.53
-2 7 -2 6.07 0.71
-2 7 -2 5.7 0.45
2 -7 2 5.78 0.53
-3 7 -2 2.34 0.53
3 -7 2 1.28 0.31
-4 7 -2 37.12 1.9
-5 7 -2 5.86 0.91
-6 7 -2 14.89 1.43
8 6 -2 2.04 1.45
7 6 -2 7.69 1.65
6 6 -2 61.58 3.52
5 6 -2 -0.2 0.55
4 6 -2 5.17 1.06
-3 -6 2 51.74 2.06
-2 -6 2 71.68 2.61
-1 -6 2 117 3.85
0 6 -2 52.31 1.86
0 -6 2 50.13 1.94
-1 6 -2 54.64 1.68
-1 6 -2 55.88 2.04
1 -6 2 54.25 2.02
-2 6 -2 18.8 0.77
-2 6 -2 18.9 1.05
2 -6 2 19.35 0.96
-3 6 -2 35.49 1.68
3 -6 2 36.08 1.5
-4 6 -2 28.45 1.56
-5 6 -2 18.04 1.34
-6 6 -2 19.09 1.46
-7 6 -2 5.99 1.11
9 5 -2 0.07 1.44
8 5 -2 7.7 1.85
7 5 -2 7.42 1.63
6 5 -2 4.81 1.18
5 5 -2 19.33 1.74
4 5 -2 3.92 0.92
3 5 -2 58.8 2.85
-3 -5 2 64.82 2.32
-2 -5 2 138.38 4.43
-1 -5 2 39.96 1.58
0 5 -2 127.72 3.95
0 -5 2 135.19 4.18
-1 5 -2 116.22 3.73
-1 5 -2 122.47 3.18
1 -5 2 121.28 3.84
-2 5 -2 9.2 0.48
-2 5 -2 10.78 0.71
2 -5 2 10.53 0.64
-3 5 -2 11.75 0.61
-3 5 -2 13.18 0.87
3 -5 2 11.73 0.72
-4 5 -2 2.68 0.54
4 -5 2 3.06 0.45
-5 5 -2 2.2 0.57
-6 5 -2 7.05 1.01
-7 5 -2 1.71 0.79
-8 5 -2 3.48 0.98
9 4 -2 7.14 1.91
8 4 -2 23.02 2.67
-8 -4 2 22.54 1.16
7 4 -2 12.01 1.89
-7 -4 2 10.83 0.72
6 4 -2 23.85 1.98
-6 -4 2 24.07 1.07
5 4 -2 3.43 0.9
-5 -4 2 3.56 0.4
4 4 -2 106.7 4.33
-4 -4 2 110.26 3.04
3 4 -2 65.99 2.95
-3 -4 2 69.02 1.99
-3 -4 2 69.14 2.42
-2 -4 2 17.45 0.87
-1 -4 2 2.51 0.35
0 4 -2 9.5 0.51
0 -4 2 9.11 0.55
-1 4 -2 57.26 1.62
-1 4 -2 61.57 1.99
1 -4 2 54.85 2
-2 4 -2 17.34 0.62
-2 4 -2 16.36 0.87
2 -4 2 17.85 0.86
-3 4 -2 7.89 0.66
-3 4 -2 8.9 0.5
3 -4 2 7.42 0.58
-4 4 -2 13.87 0.96
-4 4 -2 13.86 0.64
4 -4 2 13.05 0.83
-5 4 -2 3.89 0.67
5 -4 2 5.2 0.63
-6 4 -2 2.67 0.74
-7 4 -2 1.34 0.65
-8 4 -2 1.1 0.81
-9 -3 2 16.96 1.04
8 3 -2 26.64 2.57
-8 -3 2 29.77 1.33
7 3 -2 9.35 1.63
-7 -3 2 11.61 0.73
6 3 -2 19.19 1.77
-6 -3 2 19.75 0.93
5 3 -2 5.81 1.08
-5 -3 2 4.81 0.41
4 3 -2 128.44 4.72
-4 -3 2 123.02 3.39
3 3 -2 93.46 3.42
-3 -3 2 79.67 2.35
-2 -3 2 45.69 1.35
-2 -3 2 46.86 1.68
1 3 -2 0.55 0.12
-1 -3 2 0.97 0.23
0 3 -2 0.27 0.13
0 -3 2 0.4 0.15
-1 3 -2 5.86 0.42
-1 3 -2 6.78 0.3
1 -3 2 6.72 0.45
-2 3 -2 127.95 3.97
-2 3 -2 135.04 3.28
2 -3 2 128.63 4.08
-3 3 -2 20.67 0.7
-3 3 -2 18.47 0.99
3 -3 2 20.14 1
-4 3 -2 0.08 0.31
-4 3 -2 0.54 0.17
4 -3 2 0.29 0.32
-5 3 -2 73.35 1.98
-5 3 -2 68.29 2.72
5 -3 2 69.56 2.72
-6 3 -2 13.04 1.17
-7 3 -2 15.09 1.3
-8 3 -2 2.62 0.89
-9 -2 2 5.31 0.66
8 2 -2 0.25 1.08
-8 -2 2 0.94 0.29
7 2 -2 32.62 2.49
-7 -2 2 36.87 1.42
6 2 -2 8.8 1.41
-6 -2 2 10.15 0.61
5 2 -2 7.02 1.11
-5 -2 2 7.27 0.54
-5 -2 2 8.01 0.5
4 2 -2 7.49 0.99
-4 -2 2 12.52 0.56
-4 -2 2 11.55 0.56
3 2 -2 60.14 2.52
-3 -2 2 62.27 1.76
-2 -2 2 98.35 2.56
-2 -2 2 97.42 3.08
1 2 -2 158.45 4.36
-1 -2 2 159.52 3.94
-1 -2 2 157.43 4.75
0 2 -2 66.97 2
0 -2 2 67.84 2.17
-1 2 -2 0.23 0.15
-1 2 -2 0.01 0.06
1 -2 2 0.04 0.13
-2 2 -2 0.79 0.13
-2 2 -2 0.33 0.19
2 -2 2 0.69 0.25
-3 2 -2 31.1 0.87
-3 2 -2 29.93 1.28
3 -2 2 28.25 1.35
-4 2 -2 30.21 1.36
-4 2 -2 29.07 0.86
4 -2 2 23.99 1.42
-5 2 -2 0.93 0.17
-5 2 -2 1.23 0.5
5 -2 2 0.72 0.59
-6 2 -2 15.71 1.22
6 -2 2 14.52 1.32
-7 2 -2 0.07 0.51
-8 2 -2 6.2 1
-9 2 -2 18.09 1.68
-9 -1 2 0.4 0.22
-8 -1 2 0.09 0.19
7 1 -2 1.49 0.99
-7 -1 2 2.88 0.42
6 1 -2 0.55 0.78
-6 -1 2 0.36 0.18
-6 -1 2 0.67 0.37
5 1 -2 1.63 0.7
-5 -1 2 0.97 0.25
-5 -1 2 1.42 0.36
4 1 -2 9.21 1.04
-4 -1 2 9 0.55
-4 -1 2 8.85 0.48
3 1 -2 10.59 0.86
-3 -1 2 10.68 0.5
-3 -1 2 10.75 0.48
-2 -1 2 2.14 0.21
-2 -1 2 2.89 0.25
-2 -1 2 2.81 0.19
-1 -1 2 202.05 4.83
-1 -1 2 191.6 5.76
0 1 -2 681 18.85
0 -1 2 671.77 19.79
0 -1 2 672.29 16.46
-1 1 -2 3.2 0.29
1 -1 2 2.62 0.36
-2 1 -2 15.96 0.46
-2 1 -2 15.92 0.77
2 -1 2 19.1 0.98
-3 1 -2 48.72 1.86
-3 1 -2 56.33 1.4
3 -1 2 52.96 2.16
-4 1 -2 75.98 2
-4 1 -2 71.95 2.61
4 -1 2 79.87 3.07
-5 1 -2 97.11 3.34
-5 1 -2 97.59 2.57
5 -1 2 92.29 3.78
-6 1 -2 3.38 0.29
-6 1 -2 3.27 0.65
6 -1 2 1.98 0.88
-7 1 -2 -0.1 0.48
7 -1 2 0.48 0.76
-8 1 -2 26.29 1.73
-9 1 -2 12.76 1.46
-9 0 2 11.18 0.8
-8 0 2 12.97 0.8
-7 0 2 12.64 1.05
-7 0 2 12.53 0.72
6 0 -2 16.82 1.65
-6 0 2 15.9 0.79
-6 0 2 18.46 1.09
5 0 -2 73.64 3.02
-5 0 2 67.49 2.05
-5 0 2 67.44 2.38
4 0 -2 14.48 1.13
-4 0 2 17.16 0.81
-4 0 2 17.41 0.72
3 0 -2 74.67 2.7
-3 0 2 77.06 2.29
-3 0 2 73.34 2.08
-2 0 2 106.78 2.86
-2 0 2 112.32 3.29
-2 0 2 110.92 3.13
-1 0 2 107.27 3.1
-1 0 2 102.45 2.68
0 0 2 384.12 9.55
-1 0 -2 108.53 3.03
1 0 2 100.03 3.29
-2 0 -2 28.51 0.78
-2 0 -2 26.6 1.09
2 0 2 34.82 1.51
-3 0 -2 26.8 1.15
-3 0 -2 28.66 0.81
3 0 2 27.22 1.51
-4 0 -2 51.26 1.46
-4 0 -2 53.21 1.96
4 0 2 52.4 2.48
-5 0 -2 19.84 1.19
-5 0 -2 20.9 0.76
5 0 2 21.25 1.68
-6 0 -2 4.79 0.36
-6 0 -2 6.92 0.85
6 0 2 4.89 1.24
-7 0 -2 1.07 0.57
-7 0 -2 1.11 0.23
7 0 2 1.33 1.02
-8 0 -2 6.49 0.98
-9 0 -2 6.43 1.06
-9 1 2 4.29 0.51
-8 1 2 13.29 0.8
-7 1 2 2.43 0.62
-7 1 2 2.39 0.37
6 -1 -2 0.53 0.81
-6 1 2 0.04 0.4
-6 1 2 0.63 0.23
5 -1 -2 13.65 1.29
-5 1 2 13.35 0.84
-5 1 2 11.7 0.65
4 -1 -2 79.21 2.9
-4 1 2 73.13 2.18
-4 1 2 75.32 2.47
3 -1 -2 26.34 1.21
-3 1 2 25.23 0.98
-3 1 2 24.67 0.94
2 -1 -2 0.76 0.23
-2 1 2 1.86 0.29
-1 1 2 126.71 3.29
-1 1 2 130.7 3.71
0 1 2 18.36 0.71
0 1 2 17.25 0.55
1 1 2 138.13 4.32
-2 -1 -2 314.97 8.74
2 1 2 311.14 9.47
-3 -1 -2 10.66 0.64
3 1 2 8.6 0.99
-4 -1 -2 101.79 3.28
-4 -1 -2 100.43 2.68
4 1 2 106.12 4.03
-5 -1 -2 6.92 0.75
-5 -1 -2 7.23 0.4
5 1 2 7.11 1.26
-6 -1 -2 40.26 1.85
-6 -1 -2 42.39 1.36
6 1 2 39.66 2.64
-7 -1 -2 35.89 1.78
-7 -1 -2 32.4 1.22
7 1 2 33.78 2.58
-8 -1 -2 16.49 1.29
8 1 2 15.15 2.17
-9 -1 -2 -0.26 0.47
-8 2 2 0.14 0.57
-8 2 2 0.75 0.24
-7 2 2 0.25 0.19
-7 2 2 0.26 0.48
-6 2 2 8.28 0.59
-6 2 2 8.5 0.88
5 -2 -2 3.2 0.77
-5 2 2 2.42 0.4
-5 2 2 2.91 0.48
4 -2 -2 77.45 2.99
-4 2 2 88.14 2.8
-4 2 2 88.96 2.52
3 -2 -2 34.84 1.43
-3 2 2 37.12 1.28
-3 2 2 37.74 1.36
2 -2 -2 134.44 3.74
2 -2 -2 126.59 3.83
-2 2 2 130.62 3.45
-1 2 2 102.42 2.68
0 2 2 4.07 0.25
1 2 2 253.2 7.6
2 2 2 354.73 10.68
3 2 2 264.68 8.36
-4 -2 -2 6.1 0.5
4 2 2 5.18 0.95
-5 -2 -2 5.25 0.61
5 2 2 5.42 1.18
-6 -2 -2 34.56 1.57
6 2 2 32.11 2.36
-7 -2 -2 39.15 1.84
7 2 2 40.97 2.91
-8 -2 -2 17.28 1.19
8 2 2 10.77 1.96
9 2 2 0.55 1.3
-8 3 2 0.55 0.65
-7 3 2 7.28 0.57
-7 3 2 4.71 0.84
-6 3 2 0.5 0.38
-6 3 2 0.34 0.27
-5 3 2 37.1 1.42
-5 3 2 35.51 1.61
4 -3 -2 30.89 1.23
-4 3 2 29.82 1.32
-4 3 2 29.48 1.23
3 -3 -2 15.11 0.58
-3 3 2 14.38 0.77
-3 3 2 14.01 0.77
-2 3 2 389.21 9.63
-1 3 2 223.71 6.29
-1 3 2 221.25 6.24
-1 3 2 212.54 5.5
0 3 2 107.64 3.37
0 3 2 107.56 2.83
1 3 2 609.17 17.69
2 3 2 277.73 8.57
3 3 2 137.74 4.83
4 3 2 0.97 0.64
5 3 2 12.09 1.62
6 3 2 11.34 1.64
7 3 2 0.09 1
8 3 2 23.83 2.75
9 3 2 -0.44 1.28
-8 4 2 0.71 0.72
-7 4 2 6.7 0.93
-7 4 2 7.2 0.59
-6 4 2 25.81 1.5
-6 4 2 27.4 1.22
-5 4 2 4.4 0.65
-5 4 2 4.5 0.62
-4 4 2 7.51 0.72
-4 4 2 8.51 0.7
-3 4 2 0.27 0.3
-3 4 2 0.48 0.24
-2 4 2 0.24 0.2
-1 4 2 1.31 0.23
-1 4 2 1.63 0.26
0 4 2 2.9 0.3
0 4 2 3.56 0.44
1 4 2 17.92 1.03
2 4 2 1.7 0.54
3 4 2 6.87 1.03
4 4 2 2.72 0.79
5 4 2 29.17 2.09
6 4 2 0.31 0.87
7 4 2 14.47 2.1
8 4 2 5.15 1.56
9 4 2 -1.09 1.31
-8 5 2 4.75 1.05
-7 5 2 9.76 1.16
-6 5 2 33.63 1.76
-6 5 2 32.5 1.42
-5 5 2 35.28 1.71
-5 5 2 37.23 1.52
-4 5 2 39.54 1.56
-4 5 2 39.96 1.74
-3 5 2 13.23 0.85
-3 5 2 12.87 0.76
-2 5 2 40.67 1.4
-2 5 2 42.1 1.4
-1 5 2 105.3 3.34
-1 5 2 103.78 2.88
0 5 2 126.43 4.16
0 5 2 129.64 3.47
1 5 2 13.94 0.98
2 5 2 246.43 7.89
3 5 2 18.38 1.41
4 5 2 66.63 3.15
5 5 2 67.08 3.43
6 5 2 1.1 0.94
7 5 2 26.74 2.56
8 5 2 2.22 1.41
9 5 2 1.63 1.41
-7 6 2 11.06 1.31
-6 6 2 5.84 0.92
-6 6 2 6.38 0.73
-5 6 2 23.1 1.37
-5 6 2 22.56 1.21
-4 6 2 12.05 0.88
-4 6 2 10.68 0.86
-3 6 2 6.76 0.64
-3 6 2 8.96 0.73
-2 6 2 43.48 1.58
-2 6 2 43.63 1.51
-1 6 2 73.58 2.19
-1 6 2 72.22 2.56
0 6 2 2.34 0.34
0 6 2 1.86 0.43
1 6 2 4.35 0.69
2 6 2 0.31 0.41
3 6 2 15.4 1.41
4 6 2 21.94 1.79
5 6 2 4.86 1.21
6 6 2 13.13 1.95
7 6 2 12.15 1.97
8 6 2 3.19 1.58
9 6 2 0.72 1.59
-7 7 2 0.66 0.7
-6 7 2 2.63 0.71
-5 7 2 11.84 0.97
-5 7 2 12.53 1.08
-4 7 2 18.6 1.21
-4 7 2 20.26 1.14
-3 7 2 15.26 1.01
-3 7 2 16.15 0.91
-2 7 2 41.84 1.53
-1 7 2 78.35 2.4
-1 7 2 78.43 2.85
0 7 2 37.2 1.79
0 7 2 39.4 1.44
1 7 2 131.45 4.69
1 7 2 130.73 3.74
2 7 2 134.31 4.98
3 7 2 0.5 0.61
4 7 2 0.75 0.73
5 7 2 25.2 2.14
6 7 2 12.65 1.98
7 7 2 1.6 1.19
8 7 2 2.97 1.58
9 7 2 2.08 1.6
-6 8 2 2.21 0.71
-5 8 2 5.52 0.89
-4 8 2 0.17 0.43
-4 8 2 0.27 0.31
-3 8 2 26.87 1.25
-3 8 2 27.73 1.5
-2 8 2 1.07 0.35
-1 8 2 37.28 1.45
-1 8 2 37.49 1.76
0 8 2 7.43 0.59
0 8 2 8.61 1
1 8 2 22.82 1.55
1 8 2 25.85 1.18
2 8 2 29.12 1.91
3 8 2 0.72 0.7
4 8 2 1.73 0.9
5 8 2 14.35 1.95
6 8 2 22.94 2.69
7 8 2 1.99 1.39
8 8 2 2.16 1.47
-6 9 2 0.58 0.66
-5 9 2 0.01 0.45
-4 9 2 4.96 0.83
-3 9 2 9.82 0.82
-3 9 2 9.72 0.89
-2 9 2 1.19 0.38
-2 9 2 0.37 0.33
-1 9 2 1.11 0.33
0 9 2 15.31 1.26
0 9 2 17.05 0.96
1 9 2 8.26 0.7
1 9 2 8.95 1.18
2 9 2 3.51 0.93
3 9 2 0.94 0.78
4 9 2 25.19 2.21
5 9 2 13.7 2.05
6 9 2 7.51 1.64
7 9 2 7.6 1.9
8 9 2 16.46 2.85
-5 10 2 0.32 0.46
-4 10 2 6.24 0.93
-3 10 2 3.92 0.64
-3 10 2 3.03 0.62
-2 10 2 21.69 1.34
-2 10 2 20.4 1.15
-1 10 2 38.31 1.6
0 10 2 65.16 2.33
1 10 2 22.22 1.18
1 10 2 22.41 1.71
2 10 2 3.49 0.55
2 10 2 3.97 1.01
3 10 2 29.04 2.26
4 10 2 26.21 2.36
5 10 2 4.7 1.35
6 10 2 0.49 1.02
7 10 2 3.74 1.69
-4 11 2 5.22 0.95
-3 11 2 2.24 0.61
-2 11 2 16.8 1.1
-2 11 2 16.33 1.23
-1 11 2 20.82 1.18
0 11 2 50.64 2.03
1 11 2 14.38 1.7
1 11 2 13.74 0.97
2 11 2 -0.17 0.19
2 11 2 -0.24 0.61
3 11 2 19.7 1.92
4 11 2 29 2.57
5 11 2 13.41 2.22
6 11 2 9.81 2.01
-3 12 2 0.44 0.41
-2 12 2 0.66 0.34
-1 12 2 0.3 0.41
-1 12 2 0.85 0.32
0 12 2 9.29 0.94
1 12 2 10.24 1.01
2 12 2 1.38 0.89
2 12 2 2.4 0.55
3 12 2 7.44 0.88
3 12 2 7.43 1.54
4 12 2 7.68 1.69
5 12 2 19.23 2.63
6 12 2 6 1.89
-1 13 2 1.79 0.48
0 13 2 9.93 0.88
0 13 2 7.9 0.93
1 13 2 1.02 0.46
2 13 2 31.43 1.66
3 13 2 15 1.16
3 13 2 13.89 2.17
4 13 2 4.57 1.58
3 12 -3 2.87 1.17
2 12 -3 3.15 0.97
1 12 -3 27.68 2.22
5 11 -3 12.18 2.08
4 11 -3 18.98 2.5
3 11 -3 10.57 1.72
2 11 -3 25.14 2.1
-1 -11 3 2.25 0.56
0 -11 3 8.68 0.86
-1 11 -3 1.92 0.6
-2 11 -3 1.62 0.64
6 10 -3 0.56 0.95
5 10 -3 2.87 1.13
4 10 -3 0.81 0.77
3 10 -3 9.81 1.58
-2 -10 3 9.04 0.87
-1 -10 3 0.02 0.24
0 10 -3 5.42 0.71
0 -10 3 3.76 0.64
-1 10 -3 5.8 0.82
1 -10 3 6.35 0.8
-2 10 -3 2.04 0.6
-3 10 -3 19.72 1.5
-4 10 -3 3.93 0.87
7 9 -3 2.55 1.39
6 9 -3 4.46 1.33
5 9 -3 12.92 1.94
4 9 -3 4.11 1.14
3 9 -3 17.45 1.69
-3 -9 3 18 1.19
-2 -9 3 22.7 1.34
1 9 -3 4.33 0.56
-1 -9 3 5.48 0.72
0 9 -3 8.9 0.66
0 9 -3 7.78 0.73
0 -9 3 9.88 0.81
-1 9 -3 2.42 0.54
1 -9 3 2.49 0.49
-2 9 -3 21.15 1.34
-3 9 -3 26.17 1.6
-4 9 -3 2.29 0.67
-5 9 -3 1.72 0.77
7 8 -3 0.8 1.01
6 8 -3 -0.67 0.75
5 8 -3 1.8 0.88
4 8 -3 13.5 1.85
-3 -8 3 7.67 0.89
-2 -8 3 6.72 0.8
1 8 -3 3.22 0.45
-1 -8 3 3.77 0.58
0 8 -3 15.7 0.95
0 -8 3 15.27 0.98
-1 8 -3 0.3 0.3
1 -8 3 0.13 0.21
-2 8 -3 61.13 2.46
2 -8 3 59.1 2.36
-3 8 -3 36.25 1.87
-4 8 -3 4.16 0.83
-5 8 -3 0.68 0.58
-6 8 -3 18.57 1.7
8 7 -3 5.21 1.87
7 7 -3 4.7 1.39
6 7 -3 26.19 2.42
5 7 -3 39.93 2.76
4 7 -3 35.49 2.43
-3 -7 3 65.86 2.6
2 7 -3 46.15 1.63
-2 -7 3 46.05 1.96
1 7 -3 73.65 2.46
-1 -7 3 72.87 2.73
0 7 -3 0.5 0.26
0 -7 3 0.24 0.23
-1 7 -3 42.69 1.77
-1 7 -3 42.91 1.44
1 -7 3 41.58 1.78
-2 7 -3 14.04 0.98
2 -7 3 16.2 0.95
-3 7 -3 0.73 0.45
3 -7 3 1.02 0.33
-4 7 -3 4.1 0.72
-5 7 -3 1.34 0.65
-6 7 -3 19.12 1.64
8 6 -3 -0.11 1.09
7 6 -3 4.33 1.38
6 6 -3 35.07 2.66
5 6 -3 -0.32 0.58
4 6 -3 17.14 1.64
-3 -6 3 10.61 0.79
2 6 -3 22.17 0.88
-2 -6 3 21.1 1.14
1 6 -3 31.46 1.23
-1 -6 3 31.99 1.44
0 6 -3 65.62 2.29
0 -6 3 69.35 2.49
-1 6 -3 52.29 1.65
-1 6 -3 55.46 2.03
1 -6 3 54.34 2.08
-2 6 -3 1.26 0.39
-2 6 -3 1.11 0.23
2 -6 3 0.72 0.26
-3 6 -3 18.63 1.14
3 -6 3 17.69 1.01
-4 6 -3 0.65 0.48
4 -6 3 0.93 0.32
-5 6 -3 15.95 1.31
-6 6 -3 16.88 1.44
-7 6 -3 0.88 0.75
8 5 -3 0.47 1.19
7 5 -3 7.54 1.64
6 5 -3 0.62 0.8
-6 -5 3 0.64 0.24
5 5 -3 16.45 1.61
-5 -5 3 16.95 0.85
4 5 -3 2.5 0.8
-3 -5 3 0.65 0.25
2 5 -3 11.01 0.49
-2 -5 3 9.91 0.7
1 5 -3 11.75 0.58
-1 -5 3 10.95 0.73
0 5 -3 231.59 6.7
0 -5 3 233.04 7.08
-1 5 -3 171.62 4.38
-1 5 -3 170.89 5.13
1 -5 3 167.85 5.33
-2 5 -3 16.03 0.61
-2 5 -3 16.43 0.94
2 -5 3 16.01 0.9
-3 5 -3 40.67 1.8
3 -5 3 42.57 1.73
-4 5 -3 18.9 1.22
4 -5 3 19.69 1.08
-5 5 -3 41.75 2.04
-6 5 -3 21.25 1.59
-7 5 -3 -0.1 0.65
9 4 -3 1.55 1.65
8 4 -3 4.39 1.49
-8 -4 3 4.55 0.59
7 4 -3 7.5 1.53
-7 -4 3 6.53 0.66
6 4 -3 10.59 1.53
-6 -4 3 10.11 0.67
5 4 -3 0.54 0.59
-5 -4 3 0.46 0.22
4 4 -3 101.99 4.07
-4 -4 3 92.2 2.74
-3 -4 3 86.77 2.46
-3 -4 3 88.13 3.03
2 4 -3 0.15 0.09
-2 -4 3 0.34 0.18
1 4 -3 7.52 0.4
-1 -4 3 6.19 0.5
0 4 -3 84.78 2.57
0 -4 3 80.3 2.77
-1 4 -3 76.4 2.54
-1 4 -3 78.26 2.11
1 -4 3 80.09 2.69
-2 4 -3 59.43 2.09
-2 4 -3 57.81 1.54
2 -4 3 54.75 2.09
-3 4 -3 58.35 2.19
-3 4 -3 59.19 1.58
3 -4 3 54.92 2.16
-4 4 -3 8.61 0.85
4 -4 3 7.5 0.67
-5 4 -3 32.88 1.73
5 -4 3 32.22 1.56
-6 4 -3 9.56 1.14
-7 4 -3 7.48 1.1
-8 4 -3 0.82 0.7
-9 -3 3 11.14 0.85
8 3 -3 11.99 2.02
-8 -3 3 15.43 0.93
7 3 -3 21.7 2.15
-7 -3 3 24.63 1.15
6 3 -3 11.35 1.53
-6 -3 3 13.26 0.76
5 3 -3 11.26 1.41
-5 -3 3 11.16 0.63
4 3 -3 90.78 3.69
-4 -3 3 87.2 2.53
-3 -3 3 124.41 3.93
-3 -3 3 118.28 3.24
-2 -3 3 196.6 5.86
-2 -3 3 186.71 4.84
1 3 -3 8.83 0.4
-1 -3 3 9.53 0.57
-1 -3 3 8.39 0.38
0 3 -3 1.53 0.22
0 -3 3 1.23 0.25
-1 3 -3 28.52 1.07
1 -3 3 23.51 1.09
-2 3 -3 59.19 1.54
-2 3 -3 59.69 2.09
2 -3 3 60.54 2.16
-3 3 -3 14.31 0.46
-3 3 -3 12.66 0.84
3 -3 3 13.61 0.86
-4 3 -3 8.79 0.83
4 -3 3 9.14 0.78
-5 3 -3 4.71 0.75
5 -3 3 5 0.74
-6 3 -3 0.77 0.57
6 -3 3 0.6 0.44
-7 3 -3 10.27 1.25
-8 3 -3 1.33 0.82
-9 -2 3 3.32 0.55
-8 -2 3 1.43 0.38
7 2 -3 44.15 2.86
-7 -2 3 48.91 1.75
6 2 -3 14 1.66
-6 -2 3 12.27 0.71
5 2 -3 21.95 1.64
-5 -2 3 21.73 0.93
4 2 -3 12.82 1.17
-4 -2 3 14.93 0.67
-3 -2 3 60.72 2.12
-3 -2 3 61.19 1.77
-2 -2 3 228.01 6.85
-2 -2 3 231.68 5.73
1 2 -3 237.19 6.37
-1 -2 3 226.44 6.87
-1 -2 3 231.09 5.7
0 2 -3 15.59 0.62
0 -2 3 14.7 0.46
0 -2 3 13.5 0.7
-1 2 -3 53.15 1.74
1 -2 3 51.71 1.86
-2 2 -3 27.05 1.17
2 -2 3 32.05 1.31
-3 2 -3 9.39 0.29
-3 2 -3 8.93 0.68
3 -2 3 6.39 0.68
-4 2 -3 59 2.29
-4 2 -3 61.44 1.57
4 -2 3 56.79 2.42
-5 2 -3 0.25 0.46
5 -2 3 0.07 0.49
-6 2 -3 12.12 1.08
6 -2 3 14.24 1.27
-7 2 -3 0.8 0.64
-8 2 -3 4.09 0.94
-9 -1 3 3.77 0.57
-8 -1 3 6.97 0.6
7 1 -3 5.75 1.3
-7 -1 3 7.34 0.59
6 1 -3 22.06 1.79
-6 -1 3 21.38 0.96
5 1 -3 23.73 1.64
-5 -1 3 25.99 1.09
-5 -1 3 25.1 1
4 1 -3 13.76 1.08
-4 -1 3 11.31 0.57
-4 -1 3 11.08 0.59
-3 -1 3 15.23 0.57
-3 -1 3 14.44 0.7
-2 -1 3 8.95 0.5
-2 -1 3 9.36 0.43
-1 -1 3 226.1 5.67
-1 -1 3 236.3 6.8
0 1 -3 91.04 2.54
0 -1 3 87.44 2.17
0 -1 3 82.58 2.75
-1 1 -3 30.01 1.09
1 -1 3 29.32 1.19
-2 1 -3 49.45 1.75
2 -1 3 51.82 1.96
-3 1 -3 1.17 0.1
-3 1 -3 0.97 0.31
3 -1 3 0.86 0.44
-4 1 -3 60.88 2.32
-4 1 -3 65.44 1.68
4 -1 3 62.86 2.7
-5 1 -3 119.3 3
-5 1 -3 116.2 3.94
5 -1 3 108.88 4.32
-6 1 -3 2.53 0.62
6 -1 3 1.83 0.86
-7 1 -3 2.26 0.64
7 -1 3 3.8 1.02
-8 1 -3 14.08 1.38
-9 1 -3 4.26 1.02
-9 0 3 3.24 0.51
-8 0 3 2.02 0.4
-7 0 3 0.17 0.22
6 0 -3 7.09 1.19
-6 0 3 6.22 0.7
-6 0 3 7.43 0.53
5 0 -3 35.15 1.93
-5 0 3 30.72 1.18
-5 0 3 33.74 1.36
4 0 -3 16.09 1.12
-4 0 3 15.09 0.72
-4 0 3 16.41 0.76
3 0 -3 7.29 0.69
-3 0 3 7.25 0.39
-3 0 3 6.07 0.42
-2 0 3 58.38 1.73
-2 0 3 62.31 1.94
-1 0 3 36.17 1.24
-1 0 3 36.37 1.1
0 0 3 530.15 15.7
0 0 3 523.67 13.06
-1 0 -3 45.61 1.6
1 0 3 52.38 1.27
1 0 3 52.6 1.86
-2 0 -3 0.16 0.2
2 0 3 0.28 0.44
-3 0 -3 0.2 0.25
3 0 3 0.38 0.54
-4 0 -3 95.82 2.46
-4 0 -3 97.34 3.19
4 0 3 90.88 3.72
-5 0 -3 67.11 2.54
-5 0 -3 69.16 1.89
5 0 3 67.64 3.14
-6 0 -3 12.69 0.57
-6 0 -3 12.78 1.03
6 0 3 11.41 1.63
-7 0 -3 1.71 0.59
7 0 3 1.12 0.99
-8 0 -3 3.09 0.81
8 0 3 1.31 1.04
-9 0 -3 4.35 0.91
-9 1 3 4.45 0.57
-8 1 3 15.71 0.9
-7 1 3 4.27 0.51
-7 1 3 5.54 0.8
-6 1 3 9.88 0.86
-6 1 3 9.15 0.61
5 -1 -3 26.89 1.66
-5 1 3 28.37 1.24
-5 1 3 27.52 1.12
4 -1 -3 75.75 3.02
-4 1 3 83.8 2.43
-4 1 3 88.68 2.68
3 -1 -3 8.03 0.63
-3 1 3 7.27 0.55
-3 1 3 7.04 0.43
-2 1 3 21.59 0.76
-2 1 3 21.3 0.86
-1 1 3 901.73 26.16
0 1 3 353.19 8.63
0 1 3 343.32 10.07
1 1 3 20.66 0.65
1 1 3 22.82 1.13
-2 -1 -3 0.49 0.22
2 1 3 -0.13 0.46
-3 -1 -3 6.3 0.55
3 1 3 8.66 1.04
-4 -1 -3 48.04 1.88
4 1 3 50.39 2.48
-5 -1 -3 10.57 0.86
5 1 3 12.75 1.63
-6 -1 -3 11.47 0.96
6 1 3 11.67 1.63
-7 -1 -3 27.35 1.55
7 1 3 23.15 2.3
-8 -1 -3 19.54 1.41
8 1 3 21.44 2.44
-9 -1 -3 0.83 0.56
-8 2 3 3.87 0.53
-7 2 3 5.78 0.6
-7 2 3 5.37 0.82
-6 2 3 23.48 1.3
-6 2 3 22.55 1.03
5 -2 -3 0.53 0.61
-5 2 3 0.21 0.3
-5 2 3 0.42 0.28
4 -2 -3 10.94 0.94
-4 2 3 10.66 0.67
-4 2 3 12.64 0.78
3 -2 -3 0.16 0.28
-3 2 3 -0.13 0.28
-3 2 3 0.07 0.15
2 -2 -3 226.49 6.49
-2 2 3 220.08 5.71
-1 2 3 123.34 3.6
-1 2 3 124.8 3.25
0 2 3 63.99 1.72
0 2 3 61.49 2.11
1 2 3 138.92 3.56
1 2 3 140.76 4.52
2 2 3 2.55 0.67
3 2 3 136.9 4.87
-4 -2 -3 0.29 0.26
4 2 3 0.91 0.69
-5 -2 -3 0.45 0.33
5 2 3 -0.03 0.78
-6 -2 -3 3.6 0.6
6 2 3 1.45 1.06
-7 -2 -3 32.22 1.66
7 2 3 33.65 2.69
8 2 3 19.21 2.52
9 2 3 2.91 1.55
-8 3 3 3.23 0.47
-8 3 3 2.63 0.81
-7 3 3 9.47 1.05
-7 3 3 10.96 0.73
-6 3 3 3.36 0.62
-6 3 3 4.58 0.56
-5 3 3 5.89 0.67
-5 3 3 7.33 0.74
4 -3 -3 9.5 0.65
-4 3 3 8.08 0.62
-4 3 3 8.7 0.75
-3 3 3 0.28 0.3
-2 3 3 353.8 8.85
1 -3 -3 48.7 1.46
-1 3 3 45.25 1.41
-1 3 3 44.98 1.41
0 3 3 10.13 0.49
0 3 3 11.53 0.75
1 3 3 131.72 4.36
1 3 3 135.39 3.5
2 3 3 578.86 17.11
3 3 3 349.05 10.89
4 3 3 66.75 3.06
5 3 3 20.73 1.85
6 3 3 7.92 1.5
7 3 3 6.47 1.64
8 3 3 23.53 2.8
9 3 3 3.92 1.73
-8 4 3 3.84 0.5
-8 4 3 2.47 0.84
-7 4 3 8.32 1.03
-7 4 3 10.49 0.75
-6 4 3 12.89 1.06
-6 4 3 15.25 0.94
-5 4 3 6.71 0.75
-5 4 3 5.79 0.7
-4 4 3 17.92 0.99
-4 4 3 18.53 1.04
-3 4 3 132.86 3.72
-2 4 3 110.9 3.08
-1 4 3 28.88 1.09
-1 4 3 31.59 1.08
0 4 3 46.87 1.74
0 4 3 44.78 1.42
1 4 3 97.05 3.32
1 4 3 91.91 2.63
2 4 3 253.39 8.02
3 4 3 145.69 5.18
4 4 3 47.61 2.51
5 4 3 59.77 3.12
6 4 3 2.67 1.21
7 4 3 30.4 2.7
8 4 3 6.46 1.68
9 4 3 -0.55 1.16
-8 5 3 4.02 1.01
-7 5 3 3.03 0.72
-7 5 3 4.22 0.57
-6 5 3 1.33 0.44
-6 5 3 0.78 0.44
-5 5 3 6.53 0.78
-5 5 3 6.87 0.75
-4 5 3 20.64 1.13
-4 5 3 19.96 1.12
-3 5 3 19.52 1.01
-2 5 3 21.87 0.97
-1 5 3 2.28 0.36
-1 5 3 2.49 0.34
0 5 3 0.12 0.17
0 5 3 0.29 0.31
1 5 3 31.91 1.19
1 5 3 34.43 1.63
2 5 3 28.05 1.64
3 5 3 0.62 0.57
4 5 3 12.96 1.57
5 5 3 21.01 1.89
6 5 3 6.36 1.38
7 5 3 30.21 2.74
8 5 3 1.72 1.31
9 5 3 2.52 1.6
-7 6 3 8.87 1.19
-6 6 3 1.81 0.62
-6 6 3 2.5 0.58
-5 6 3 33.6 1.55
-5 6 3 35.1 1.76
-4 6 3 23.98 1.32
-4 6 3 25.25 1.28
-3 6 3 21.22 1.05
-2 6 3 47.59 1.66
-1 6 3 90.53 3.07
-1 6 3 95.13 2.71
0 6 3 101.68 2.85
0 6 3 93.62 3.39
1 6 3 199.34 6.49
1 6 3 198.56 5.3
2 6 3 1.84 0.66
3 6 3 0.58 0.59
4 6 3 44.54 2.57
5 6 3 10.04 1.58
6 6 3 45.97 3.02
7 6 3 10.44 2
8 6 3 -0.63 1.06
9 6 3 2.95 1.76
-7 7 3 0.09 0.62
-6 7 3 3.24 0.66
-6 7 3 2.51 0.73
-5 7 3 14.03 1.11
-5 7 3 15.06 1.07
-4 7 3 22.7 1.34
-4 7 3 21.38 1.21
-3 7 3 3.62 0.61
-3 7 3 4.24 0.58
-2 7 3 10.01 0.72
-1 7 3 20.11 0.93
-1 7 3 19.04 1.06
0 7 3 23.32 1.06
0 7 3 26.38 1.39
1 7 3 212.57 6.84
1 7 3 200.74 5.55
2 7 3 68.99 3.05
3 7 3 25.4 1.9
4 7 3 3.43 1.01
5 7 3 20.78 2.07
6 7 3 10.92 1.89
7 7 3 0.01 1.03
8 7 3 -0.43 1.25
9 7 3 -0.74 1.53
-6 8 3 5.72 1.01
-5 8 3 12.12 1.09
-5 8 3 11.3 1.22
-4 8 3 7.8 0.91
-4 8 3 7.58 0.84
-3 8 3 57.46 2.02
-3 8 3 51.52 2.28
-2 8 3 26.26 1.22
-1 8 3 8.02 0.65
0 8 3 14.14 0.84
0 8 3 13.4 1.09
1 8 3 59.1 2.66
1 8 3 57.73 2.04
2 8 3 17.97 1.53
3 8 3 4.79 1.07
4 8 3 8.71 1.47
5 8 3 7.03 1.45
6 8 3 23.5 2.34
7 8 3 5.98 1.65
8 8 3 -0.55 1.17
-6 9 3 3.6 0.86
-5 9 3 -0.09 0.43
-4 9 3 15.01 1.1
-4 9 3 14.82 1.18
-3 9 3 29.1 1.39
-3 9 3 26.39 1.53
-2 9 3 9.81 0.79
-1 9 3 22.46 1.13
0 9 3 10.28 1.15
0 9 3 9.66 0.73
1 9 3 8.89 1.2
1 9 3 7.95 0.66
2 9 3 1.03 0.34
2 9 3 -0.18 0.59
3 9 3 0.53 0.76
4 9 3 10.51 1.62
5 9 3 0.9 0.93
6 9 3 0.43 0.99
7 9 3 5.46 1.68
8 9 3 8.04 2.04
-5 10 3 -0.44 0.37
-4 10 3 2.33 0.6
-3 10 3 0.01 0.4
-3 10 3 0.23 0.3
-2 10 3 2.23 0.53
-1 10 3 3.04 0.54
0 10 3 32.14 1.46
1 10 3 6.4 1.13
1 10 3 6.37 0.71
2 10 3 0.77 0.75
2 10 3 2.13 0.47
3 10 3 27.99 2.26
4 10 3 25.51 2.33
5 10 3 13.01 2.01
6 10 3 0.65 1.17
7 10 3 10.28 2.11
-4 11 3 4.07 0.8
-3 11 3 4.38 0.79
-3 11 3 3.88 0.72
-2 11 3 -0.69 0.34
-2 11 3 1.18 0.41
-1 11 3 4.35 0.67
0 11 3 43.08 1.84
1 11 3 1.52 0.45
2 11 3 0.05 0.63
2 11 3 0.18 0.26
3 11 3 1.73 0.99
4 11 3 3.59 1.21
5 11 3 5.84 1.55
6 11 3 5.5 1.69
7 11 3 -1.08 1.28
-3 12 3 12.53 1.18
-2 12 3 0.64 0.31
-2 12 3 -0.52 0.42
-1 12 3 6.78 0.88
0 12 3 31.56 1.59
1 12 3 21.48 1.29
2 12 3 15.63 1.98
2 12 3 15.23 1.08
3 12 3 9.13 0.98
3 12 3 9.29 1.71
4 12 3 6.27 1.59
5 12 3 18.75 2.56
6 12 3 6.29 1.96
-1 13 3 1.62 0.59
-1 13 3 3.58 0.63
0 13 3 5.26 0.82
1 13 3 0.81 0.46
2 13 3 9.88 1.02
3 13 3 4.21 0.75
3 13 3 2.99 1.32
4 13 3 3.55 0.67
4 13 3 3.32 1.43
4 11 -4 7.03 1.54
3 11 -4 9.17 1.62
-2 -11 4 21.82 1.46
-1 -11 4 5.99 0.88
0 -11 4 24.83 1.53
-1 11 -4 8.27 1.05
-2 11 -4 10.16 1.21
5 10 -4 14.97 2.21
4 10 -4 7.47 1.55
3 10 -4 19.97 1.94
-3 -10 4 20.28 1.36
-2 -10 4 15.7 1.19
-1 -10 4 6.67 0.87
0 -10 4 11.04 0.96
-1 10 -4 0.73 0.48
1 -10 4 3.06 0.6
-2 10 -4 -0.21 0.43
-3 10 -4 4.12 0.86
6 9 -4 7.19 1.64
5 9 -4 5.03 1.3
4 9 -4 3.16 1.04
-3 -9 4 14.21 1.09
-2 -9 4 14.54 1.08
-1 -9 4 35.57 1.79
0 9 -4 19.12 1.14
0 -9 4 17.8 1.18
-1 9 -4 1.72 0.51
1 -9 4 1.78 0.48
-2 9 -4 17.49 1.27
2 -9 4 18.15 1.16
-3 9 -4 28.53 1.74
-4 9 -4 11.21 1.34
7 8 -4 7.32 1.83
6 8 -4 17.09 2.37
5 8 -4 2.39 0.96
4 8 -4 -0.18 0.42
-3 -8 4 24.03 1.41
-2 -8 4 0.07 0.23
1 8 -4 0.01 0.23
-1 -8 4 0.49 0.29
0 8 -4 2.61 0.48
0 -8 4 2.36 0.5
-1 8 -4 23.85 1.32
1 -8 4 24.58 1.35
-2 8 -4 13.09 1.01
2 -8 4 12.08 0.9
-3 8 -4 25.35 1.53
-4 8 -4 4.18 0.81
-5 8 -4 -0.78 0.46
8 7 -4 0.21 1.26
7 7 -4 1.92 1.13
6 7 -4 6.03 1.4
5 7 -4 3.2 1
4 7 -4 2.25 0.79
-4 -7 4 2.21 0.5
-3 -7 4 13.14 0.98
-2 -7 4 28.62 1.46
1 7 -4 59.95 2.09
-1 -7 4 58.27 2.38
0 7 -4 18.77 1.01
0 -7 4 18.53 1.11
-1 7 -4 28.66 1.4
1 -7 4 29.21 1.44
-2 7 -4 34.28 1.67
2 -7 4 35.52 1.64
-3 7 -4 10.16 0.98
3 -7 4 11.21 0.84
-4 7 -4 3.44 0.72
-5 7 -4 0.97 0.65
-6 7 -4 9.69 1.34
8 6 -4 -0.34 1.11
7 6 -4 8.69 1.7
6 6 -4 25.65 2.3
5 6 -4 2.05 0.9
4 6 -4 18.54 1.66
-4 -6 4 17.24 1.09
-3 -6 4 19.5 1.15
-2 -6 4 27.02 1.36
1 6 -4 4.5 0.43
-1 -6 4 4.91 0.61
0 6 -4 25.23 1.14
0 -6 4 24.43 1.25
-1 6 -4 34.78 1.15
-1 6 -4 30.63 1.42
1 -6 4 33.54 1.52
-2 6 -4 22.91 1.25
2 -6 4 20.73 1.15
-3 6 -4 24.21 1.4
3 -6 4 23.63 1.26
-4 6 -4 0.94 0.52
4 -6 4 1.02 0.36
-5 6 -4 9.03 1.12
-6 6 -4 1.75 0.71
-7 6 -4 0.56 0.79
8 5 -4 7.35 1.84
7 5 -4 9.75 1.79
-7 -5 4 9.32 0.73
6 5 -4 0.73 0.7
-6 -5 4 0.82 0.28
5 5 -4 62.15 3.26
-5 -5 4 54.69 1.92
-4 -5 4 54.58 2.24
-4 -5 4 56.1 1.82
-3 -5 4 30.51 1.45
2 5 -4 7.2 0.4
-2 -5 4 6.76 0.61
1 5 -4 1.09 0.24
-1 -5 4 0.87 0.28
0 5 -4 118.3 3.6
0 -5 4 114.83 3.89
-1 5 -4 111.64 3.54
1 -5 4 109.55 3.72
-2 5 -4 52.95 2.08
2 -5 4 54.59 2.14
-3 5 -4 5.97 0.76
3 -5 4 7.18 0.65
-4 5 -4 3.45 0.7
4 -5 4 3.35 0.55
-5 5 -4 42.84 2.16
5 -5 4 45.33 2.01
-6 5 -4 12.65 1.36
-7 5 -4 0.02 0.63
8 4 -4 1.89 1.26
-8 -4 4 3.27 0.52
7 4 -4 -0.2 0.68
-7 -4 4 0.25 0.23
6 4 -4 0.65 0.77
-6 -4 4 0.37 0.22
5 4 -4 -0.23 0.48
-5 -4 4 0.9 0.25
-4 -4 4 53.71 2.16
-4 -4 4 56.37 1.79
-3 -4 4 22.34 0.88
-3 -4 4 21.63 1.12
2 4 -4 58.36 1.7
-2 -4 4 56.76 1.7
-2 -4 4 57.87 2.18
1 4 -4 0.65 0.18
-1 -4 4 0.38 0.2
0 4 -4 51.72 1.76
0 -4 4 51.76 1.97
-1 4 -4 13.33 0.77
1 -4 4 14.55 0.85
-2 4 -4 59.61 2.2
-2 4 -4 60.96 1.57
2 -4 4 60.53 2.29
-3 4 -4 9.3 0.78
3 -4 4 8.27 0.7
-4 4 -4 6.8 0.82
4 -4 4 5.43 0.69
-5 4 -4 72.53 2.91
5 -4 4 69.95 2.81
-6 4 -4 21.3 1.56
-7 4 -4 32.52 2.02
-8 4 -4 0.41 0.81
8 3 -4 8.96 1.81
-8 -3 4 9.17 0.75
7 3 -4 5.06 1.31
-7 -3 4 4.88 0.61
6 3 -4 0.95 0.75
-6 -3 4 0.45 0.22
5 3 -4 15.45 1.5
-5 -3 4 17.1 0.83
4 3 -4 58.22 2.85
-4 -3 4 61.04 2.27
-4 -3 4 63.1 1.9
-3 -3 4 64.84 2.35
-3 -3 4 64.96 1.91
-2 -3 4 100.25 3.37
-2 -3 4 103.6 2.74
1 3 -4 174.56 4.97
-1 -3 4 177.93 4.44
-1 -3 4 177.04 5.48
0 3 -4 208.95 6.08
0 -3 4 218.26 6.53
-1 3 -4 73.31 2.35
1 -3 4 69.21 2.51
-2 3 -4 327.38 9.41
2 -3 4 327.84 9.83
-3 3 -4 27.76 1.35
3 -3 4 28.73 1.39
-4 3 -4 14.86 1.04
4 -3 4 14.22 1
-5 3 -4 17.64 1.23
5 -3 4 18.12 1.23
-6 3 -4 8.75 1.07
6 -3 4 9.76 0.97
-7 3 -4 17.71 1.52
-8 3 -4 6.6 1.17
-9 -2 4 0.67 0.31
-8 -2 4 0.94 0.33
7 2 -4 27.88 2.27
-7 -2 4 27.85 1.25
6 2 -4 7.38 1.26
-6 -2 4 6.4 0.53
5 2 -4 33.48 2.04
-5 -2 4 31.85 1.23
4 2 -4 2.59 0.68
-4 -2 4 2.12 0.31
-3 -2 4 12.03 0.7
-3 -2 4 12.09 0.57
-2 -2 4 77.72 2.15
-2 -2 4 79.44 2.65
1 2 -4 137.35 3.77
-1 -2 4 131.97 3.41
-1 -2 4 133.79 4.21
0 2 -4 15.71 0.68
0 -2 4 14.82 0.79
0 -2 4 16.25 0.51
-1 2 -4 0.87 0.25
1 -2 4 0.86 0.25
-2 2 -4 16.03 0.87
2 -2 4 14.62 0.9
-3 2 -4 4.09 0.55
3 -2 4 4.13 0.63
-4 2 -4 22.61 1.26
4 -2 4 19.44 1.26
-5 2 -4 10.22 0.97
5 -2 4 13.16 1.16
-6 2 -4 0.13 0.51
6 -2 4 1.13 0.59
-7 2 -4 2.2 0.74
7 -2 4 1.72 0.68
-8 2 -4 1.87 0.8
-9 -1 4 1.66 0.41
-8 -1 4 11.08 0.77
7 1 -4 13.46 1.75
-7 -1 4 13.15 0.79
6 1 -4 34.8 2.22
-6 -1 4 35.56 1.36
5 1 -4 72.71 3.18
-5 -1 4 73.25 2.24
4 1 -4 61.73 2.72
-4 -1 4 63.92 1.93
-4 -1 4 65.87 1.98
-3 -1 4 13.41 0.69
-3 -1 4 13.02 0.59
-3 -1 4 12.47 0.47
-2 -1 4 33.99 1.27
-2 -1 4 31.6 1.04
-1 -1 4 207.23 5.13
-1 -1 4 205.31 6.17
0 1 -4 47.92 1.51
0 -1 4 46.69 1.27
0 -1 4 47.74 1.72
-1 1 -4 171.35 5.01
1 -1 4 176.12 4.19
1 -1 4 170.95 5.35
-2 1 -4 0.91 0.28
2 -1 4 0.67 0.35
-3 1 -4 20.52 1.08
3 -1 4 20.36 1.27
-4 1 -4 42.11 1.77
4 -1 4 38.88 2.04
-5 1 -4 54.49 2.29
5 -1 4 58.02 2.72
-6 1 -4 0.92 0.52
6 -1 4 1.75 0.79
-7 1 -4 1.38 0.65
7 -1 4 1.68 0.82
-8 1 -4 14.83 1.42
-9 1 -4 0.75 0.76
-9 0 4 6.8 0.76
-8 0 4 6.61 0.69
-7 0 4 3.38 0.48
6 0 -4 8.14 1.25
-6 0 4 9.73 0.63
5 0 -4 47.81 2.35
-5 0 4 50.6 1.77
-5 0 4 47.83 1.64
4 0 -4 49.46 2.16
-4 0 4 47.24 1.57
-4 0 4 47.36 1.6
-3 0 4 29.67 1.09
-3 0 4 32.37 1.05
-3 0 4 29.42 1.16
-2 0 4 11.08 0.57
-2 0 4 10.95 0.55
-1 0 4 5.65 0.42
-1 0 4 4.17 0.33
0 0 4 345.54 8.47
0 0 4 349.34 10.14
-1 0 -4 192.89 5.61
1 0 4 200.13 6.04
-2 0 -4 2.52 0.37
2 0 4 3.46 0.62
2 0 4 3.23 0.16
-3 0 -4 7.29 0.61
3 0 4 6.41 0.92
-4 0 -4 96.02 3.28
4 0 4 98.25 3.84
-5 0 -4 39.04 1.82
5 0 4 40.2 2.37
-6 0 -4 30.55 1.66
6 0 4 27.89 2.14
-7 0 -4 9.94 1.13
7 0 4 8.22 1.5
-8 0 -4 2.49 0.74
8 0 4 2.61 1.12
-9 0 -4 0.86 0.66
-8 1 4 3.02 0.47
-7 1 4 1.37 0.34
-6 1 4 0.16 0.23
-6 1 4 0.17 0.34
5 -1 -4 8.81 1.08
-5 1 4 9.2 0.67
-5 1 4 9.15 0.64
4 -1 -4 109.7 3.8
-4 1 4 107.79 3.11
-4 1 4 108.69 3.33
-3 1 4 4.31 0.33
-3 1 4 4.33 0.48
-2 1 4 0.38 0.24
-2 1 4 0.15 0.09
-1 1 4 118.39 3.58
-1 1 4 118.55 3.16
0 1 4 86 2.26
0 1 4 83.83 2.74
1 1 4 112.02 3.7
1 1 4 111.46 2.83
2 1 4 -0.42 0.38
-3 -1 -4 6 0.53
3 1 4 7.56 1.03
-4 -1 -4 24.49 1.22
4 1 4 23.16 1.73
-5 -1 -4 4.72 0.71
5 1 4 5.2 1.26
-6 -1 -4 14.17 1.11
6 1 4 14.48 1.86
-7 -1 -4 40.77 2
7 1 4 39.68 2.81
-8 -1 -4 12.15 1.18
8 1 4 11.34 1.86
-9 -1 -4 0.36 0.55
-8 2 4 0.91 0.31
-7 2 4 2.32 0.4
-6 2 4 29.3 1.27
-6 2 4 28.3 1.42
-5 2 4 8.58 0.73
-5 2 4 8.12 0.68
4 -2 -4 19.77 1.12
-4 2 4 18.41 0.97
-4 2 4 17.22 0.88
3 -2 -4 5.05 0.52
-3 2 4 4 0.52
-2 2 4 164.56 4.74
-2 2 4 161.91 4.34
-1 2 4 80.91 2.41
-1 2 4 76.1 2.22
0 2 4 170.62 4.35
0 2 4 172.58 5.22
1 2 4 22.71 1.22
1 2 4 20.67 0.73
2 2 4 10.25 1.01
3 2 4 34.04 1.91
4 2 4 8.81 1.26
-5 -2 -4 1.25 0.41
5 2 4 1.55 1.05
-6 -2 -4 0.14 0.39
6 2 4 0.83 1.11
-7 -2 -4 12.95 1.03
7 2 4 12.54 1.87
8 2 4 4.56 1.55
9 2 4 3.1 1.58
-8 3 4 6.09 0.66
-7 3 4 29.42 1.31
-7 3 4 28.89 1.63
-6 3 4 11.05 0.81
-6 3 4 9.43 0.86
-5 3 4 51.91 1.92
-5 3 4 53.25 2.05
-4 3 4 5.84 0.65
-4 3 4 5.3 0.57
3 -3 -4 17.79 0.72
-3 3 4 16.96 0.96
2 -3 -4 136.04 4.05
-2 3 4 143.04 3.82
-1 3 4 6.53 0.45
-1 3 4 7.89 0.37
0 3 4 1.58 0.23
0 3 4 2.42 0.46
1 3 4 0.91 0.44
1 3 4 0.3 0.14
2 3 4 72.17 2.9
3 3 4 80.03 3.32
4 3 4 83.82 3.66
5 3 4 25.32 2.19
6 3 4 10.64 1.86
7 3 4 8.46 1.75
8 3 4 10.37 2.01
9 3 4 11.76 2.31
-8 4 4 1.28 0.34
-7 4 4 4.88 0.62
-7 4 4 4.34 0.79
-6 4 4 24.64 1.4
-6 4 4 24.45 1.27
-5 4 4 0.51 0.46
-5 4 4 0.12 0.29
-4 4 4 7.44 0.64
-4 4 4 6.96 0.73
-3 4 4 50.77 1.8
-2 4 4 34.17 1.28
-1 4 4 22.13 0.91
-1 4 4 24.01 0.88
0 4 4 0.52 0.17
0 4 4 0.55 0.38
1 4 4 10.25 0.93
2 4 4 83 3.27
3 4 4 53.81 2.57
4 4 4 131.7 5.08
5 4 4 50.82 2.92
6 4 4 1.93 1.14
7 4 4 39.11 2.93
8 4 4 1.6 1.41
9 4 4 1.55 1.57
-8 5 4 1.12 0.77
-7 5 4 5.25 0.69
-7 5 4 5.14 0.9
-6 5 4 3.62 0.7
-6 5 4 2.86 0.59
-5 5 4 1.02 0.42
-5 5 4 0.54 0.45
-4 5 4 2.18 0.56
-4 5 4 2.81 0.5
-3 5 4 59.71 2.06
-2 5 4 151.36 4.16
-1 5 4 130.32 3.56
-1 5 4 128.56 3.97
0 5 4 28.4 1.39
0 5 4 30.2 1.11
1 5 4 4.42 0.73
1 5 4 5.17 0.41
2 5 4 92.3 3.58
3 5 4 12.37 1.28
4 5 4 72.67 3.4
5 5 4 17.86 1.84
6 5 4 6.24 1.41
7 5 4 24.86 2.75
8 5 4 4.94 1.62
9 5 4 10.02 2.2
-7 6 4 5.32 0.72
-7 6 4 3.93 0.9
-6 6 4 0.29 0.47
-6 6 4 0 0.42
-5 6 4 5.73 0.76
-5 6 4 4.72 0.73
-4 6 4 2.82 0.62
-4 6 4 2.79 0.51
-3 6 4 18.21 1.05
-2 6 4 10.82 0.72
-1 6 4 48.9 1.83
-1 6 4 49.65 1.67
0 6 4 37.19 1.36
0 6 4 37.71 1.7
1 6 4 182.26 6.02
1 6 4 182.16 4.91
2 6 4 41.41 2.16
3 6 4 17.32 1.51
4 6 4 50.32 2.79
5 6 4 6.31 1.37
6 6 4 33.27 2.61
7 6 4 3.41 1.38
8 6 4 -1.37 1.02
9 6 4 4.42 1.83
-7 7 4 0.24 0.52
-6 7 4 1.98 0.63
-6 7 4 1.73 0.63
-5 7 4 10.54 1.04
-5 7 4 10.24 0.95
-4 7 4 25.06 1.41
-4 7 4 24.82 1.35
-3 7 4 14.31 0.97
-2 7 4 0.54 0.32
-1 7 4 2.97 0.44
-1 7 4 4.41 0.61
0 7 4 1.09 0.3
0 7 4 0.76 0.46
1 7 4 39.24 1.51
1 7 4 43.11 2.08
2 7 4 28.44 1.84
3 7 4 24.14 1.88
4 7 4 4.4 1.2
5 7 4 57.01 3.29
6 7 4 26.95 2.52
7 7 4 0.19 1.01
8 7 4 1.87 1.46
9 7 4 -1.66 1.24
-6 8 4 2 0.65
-5 8 4 11.75 1.09
-5 8 4 8.3 0.96
-4 8 4 16.8 1.17
-4 8 4 17.3 1.21
-3 8 4 89.28 2.9
-2 8 4 38.92 1.6
-1 8 4 7.14 0.62
0 8 4 63.68 2.63
0 8 4 61.72 2.13
1 8 4 72.38 3.11
1 8 4 74.99 2.44
2 8 4 47.36 2.5
2 8 4 43.97 1.73
3 8 4 31.14 2.2
4 8 4 0.85 0.8
5 8 4 7.87 1.51
6 8 4 15.37 2.13
7 8 4 1.7 1.28
8 8 4 0.24 1.31
-6 9 4 1.24 0.69
-5 9 4 0.15 0.55
-5 9 4 0.37 0.46
-4 9 4 18.74 1.32
-4 9 4 16.48 1.21
-3 9 4 34.19 1.58
-2 9 4 34.81 1.55
-1 9 4 63.24 2.22
0 9 4 16.56 0.98
0 9 4 16.81 1.34
1 9 4 37.62 1.56
1 9 4 34.42 2.06
2 9 4 17.34 1.02
2 9 4 19.41 1.69
3 9 4 21.82 1.93
4 9 4 29.02 2.39
5 9 4 10.45 1.84
6 9 4 -0.48 0.91
7 9 4 3.05 1.55
8 9 4 8.25 2.15
-5 10 4 0.82 0.58
-4 10 4 1.69 0.64
-4 10 4 1.74 0.54
-3 10 4 -0.64 0.38
-3 10 4 0.58 0.3
-2 10 4 4.77 0.72
-1 10 4 1.41 0.45
0 10 4 28.36 1.38
1 10 4 0.05 0.25
1 10 4 -0.22 0.59
2 10 4 14.68 0.99
2 10 4 15.03 1.75
3 10 4 17.85 2.06
4 10 4 6.83 1.53
5 10 4 0.38 0.95
6 10 4 0.75 1.18
7 10 4 1.82 1.5
-4 11 4 6.09 0.95
-3 11 4 1.41 0.45
-3 11 4 0.42 0.55
-2 11 4 -0.31 0.39
-1 11 4 2.59 0.55
0 11 4 27.42 1.42
1 11 4 1.6 0.46
2 11 4 3.87 1.1
2 11 4 2.35 0.48
3 11 4 7.57 0.86
3 11 4 7.68 1.52
4 11 4 10.2 1.72
5 11 4 2.24 1.33
6 11 4 22.19 2.91
7 11 4 -0.21 1.16
-3 12 4 15.64 1.28
-3 12 4 13.26 1.42
-2 12 4 1.5 0.43
-2 12 4 -0.01 0.47
-1 12 4 0.97 0.52
0 12 4 2.89 0.57
1 12 4 6.13 0.82
2 12 4 12.85 0.98
3 12 4 3.62 1.28
3 12 4 5.47 0.76
4 12 4 1.32 1.14
4 12 4 1.43 0.45
5 12 4 4.57 1.65
6 12 4 4.79 1.9
-1 13 4 9 1.08
0 13 4 8 0.97
1 13 4 3.61 0.69
2 13 4 19.65 1.29
3 13 4 3.57 0.69
4 13 4 1.44 0.49
4 13 4 -1.57 0.98
3 11 -5 3.56 1.01
-3 -11 5 1.38 0.52
-2 -11 5 4.01 0.76
-1 -11 5 -0.02 0.32
0 -11 5 3.79 0.75
5 10 -5 8.72 1.81
4 10 -5 4.82 1.23
-3 -10 5 22.45 1.53
-2 -10 5 9.93 1
-1 -10 5 15.67 1.21
0 -10 5 16.55 1.23
-1 10 -5 16.76 1.27
1 -10 5 18.24 1.27
-2 10 -5 6.81 1.02
-3 10 -5 13.91 1.38
6 9 -5 16.44 2.5
5 9 -5 8.2 1.61
4 9 -5 11.56 1.73
-3 -9 5 11.61 1.04
-2 -9 5 2.52 0.55
-1 -9 5 18.9 1.28
0 -9 5 11.67 0.96
-1 9 -5 3.23 0.65
1 -9 5 2.39 0.54
-2 9 -5 11.35 1.09
2 -9 5 8.41 0.85
-3 9 -5 5.94 0.98
-4 9 -5 0.21 0.57
7 8 -5 6.29 1.71
6 8 -5 12.57 1.98
5 8 -5 9.76 1.64
-4 -8 5 15.96 1.2
-3 -8 5 41.5 2.05
-2 -8 5 24.26 1.43
-1 -8 5 45.21 2.09
0 8 -5 13.98 0.98
0 -8 5 14.72 1.05
-1 8 -5 1.73 0.49
1 -8 5 1.13 0.41
-2 8 -5 3.5 0.69
2 -8 5 4.36 0.68
-3 8 -5 8.71 1.07
3 -8 5 9.42 0.86
-4 8 -5 0.63 0.56
-5 8 -5 1.55 0.77
7 7 -5 13.76 2.2
6 7 -5 12.24 1.91
5 7 -5 0.2 0.62
-4 -7 5 0.81 0.37
-3 -7 5 2.31 0.54
-2 -7 5 18.07 1.15
-1 -7 5 47.09 2.09
0 7 -5 11.38 0.81
0 -7 5 12.58 0.93
-1 7 -5 10.59 0.86
1 -7 5 9.82 0.81
-2 7 -5 7.12 0.85
2 -7 5 7.58 0.73
-3 7 -5 9.26 1.04
3 -7 5 9.15 0.81
-4 7 -5 6.72 0.97
-5 7 -5 4.11 0.95
-6 7 -5 2.81 0.92
8 6 -5 -1.34 0.83
7 6 -5 19.5 2.46
6 6 -5 21.3 2.07
5 6 -5 1.23 0.71
-4 -6 5 3.17 0.58
-3 -6 5 -0.06 0.18
-2 -6 5 26.62 1.4
1 6 -5 0.28 0.26
-1 -6 5 0.47 0.26
0 6 -5 12.99 0.83
0 -6 5 14.14 0.93
-1 6 -5 0.29 0.32
1 -6 5 0.16 0.22
-2 6 -5 2.31 0.52
2 -6 5 1.93 0.42
-3 6 -5 27.87 1.56
3 -6 5 27.93 1.47
-4 6 -5 4.04 0.79
4 -6 5 4.81 0.7
-5 6 -5 20.53 1.57
-6 6 -5 -0.41 0.62
8 5 -5 4.97 1.65
-8 -5 5 4.63 0.63
7 5 -5 8.63 1.63
-7 -5 5 11.27 0.81
6 5 -5 3.48 1.06
-6 -5 5 4.9 0.6
5 5 -5 10.4 1.56
-5 -5 5 12.99 0.75
-4 -5 5 13.41 0.74
-4 -5 5 14.82 0.99
-3 -5 5 21.89 1.21
-3 -5 5 22.51 0.92
-2 -5 5 20.89 1.16
1 5 -5 5 0.46
-1 -5 5 5.4 0.55
0 5 -5 22.52 1.05
0 -5 5 22.49 1.19
-1 5 -5 31.31 1.37
1 -5 5 28.39 1.42
-2 5 -5 30.17 1.46
2 -5 5 29.81 1.48
-3 5 -5 2.9 0.58
3 -5 5 2.42 0.49
-4 5 -5 14.1 1.16
4 -5 5 11.83 0.94
-5 5 -5 18.88 1.41
5 -5 5 20.02 1.25
-6 5 -5 1.29 0.65
-7 5 -5 -0.4 0.59
8 4 -5 12.73 2.15
-8 -4 5 14.97 0.97
7 4 -5 10.3 1.71
-7 -4 5 10.16 0.75
6 4 -5 2.78 0.95
-6 -4 5 2.54 0.42
5 4 -5 1.44 0.74
-5 -4 5 2.62 0.4
-4 -4 5 125.12 3.51
-4 -4 5 125.34 4.26
-3 -4 5 177.1 4.65
-3 -4 5 175.23 5.65
-2 -4 5 5.48 0.36
-2 -4 5 4.72 0.59
1 4 -5 24.22 0.93
-1 -4 5 22.91 1.17
0 4 -5 30.95 1.22
0 -4 5 28.8 1.37
-1 4 -5 70.94 2.46
1 -4 5 72.46 2.67
-2 4 -5 82.95 2.92
2 -4 5 85.53 3.08
-3 4 -5 1.05 0.43
3 -4 5 1.21 0.39
-4 4 -5 6.26 0.83
4 -4 5 6.72 0.81
-5 4 -5 18.29 1.35
5 -4 5 21.1 1.3
-6 4 -5 13.13 1.31
-7 4 -5 39.49 2.33
-8 -3 5 6.07 0.71
7 3 -5 0.42 0.86
-7 -3 5 1.32 0.33
6 3 -5 6.54 1.29
-6 -3 5 7.34 0.58
5 3 -5 0.42 0.56
-5 -3 5 0.23 0.18
-4 -3 5 7.57 0.63
-4 -3 5 8.39 0.53
-3 -3 5 3.91 0.52
-3 -3 5 3.23 0.34
-2 -3 5 0.93 0.17
-2 -3 5 1.05 0.3
1 3 -5 -0.01 0.15
-1 -3 5 0.15 0.09
-1 -3 5 0.04 0.16
0 3 -5 13.08 0.68
0 -3 5 11.66 0.76
-1 3 -5 22.76 1.06
1 -3 5 23.19 1.16
-2 3 -5 161.29 5.04
2 -3 5 167.74 5.35
-3 3 -5 5.08 0.66
3 -3 5 4.77 0.66
-4 3 -5 24.13 1.38
4 -3 5 24.73 1.4
-5 3 -5 5.44 0.83
5 -3 5 6.82 0.9
-6 3 -5 13.26 1.22
6 -3 5 13.14 1.14
-7 3 -5 19.67 1.55
-8 3 -5 10.08 1.34
-8 -2 5 0.85 0.33
7 2 -5 4.27 1.22
-7 -2 5 6.28 0.67
6 2 -5 4.22 1.07
-6 -2 5 4.31 0.5
5 2 -5 20.45 1.63
-5 -2 5 20.88 0.94
-4 -2 5 4.1 0.42
-4 -2 5 4.86 0.47
-3 -2 5 8.16 0.59
-3 -2 5 7.77 0.47
-2 -2 5 33.8 1.36
-2 -2 5 29.86 1.03
-1 -2 5 258.74 6.31
-1 -2 5 250.86 7.68
0 2 -5 73.26 2.28
0 -2 5 71.25 1.89
0 -2 5 73.84 2.57
-1 2 -5 209.43 6.12
1 -2 5 211.44 6.53
-2 2 -5 44.9 1.79
2 -2 5 48.84 1.97
-3 2 -5 44.75 1.86
3 -2 5 46.78 2.03
-4 2 -5 116.18 3.97
4 -2 5 115.77 4.21
-5 2 -5 2.54 0.61
5 -2 5 1.04 0.58
-6 2 -5 9.95 1.11
6 -2 5 11.69 1.2
-7 2 -5 0.34 0.59
7 -2 5 0.44 0.54
-8 2 -5 5.98 1.06
-8 -1 5 4.33 0.58
-7 -1 5 0.17 0.21
6 1 -5 30.14 2.04
-6 -1 5 26.79 1.18
5 1 -5 41.6 2.25
-5 -1 5 40.47 1.46
-4 -1 5 29.44 1.26
-4 -1 5 29.42 1.11
-3 -1 5 3.3 0.36
-3 -1 5 3.55 0.37
-3 -1 5 3.37 0.2
-2 -1 5 26.19 0.91
-2 -1 5 24.23 1.08
-1 -1 5 118 3.75
-1 -1 5 117.13 3.05
0 -1 5 120.61 3.9
0 -1 5 122.01 3.07
-1 1 -5 26.97 1.07
1 -1 5 22.49 1.16
1 -1 5 25.42 0.69
-2 1 -5 6.48 0.56
2 -1 5 6.9 0.68
-3 1 -5 26.24 1.24
3 -1 5 23.34 1.42
-4 1 -5 35.98 1.64
4 -1 5 34.65 1.89
-5 1 -5 81.99 3.13
5 -1 5 89.35 3.63
-6 1 -5 4.48 0.83
6 -1 5 4.16 1
-7 1 -5 1.58 0.64
7 -1 5 2.19 0.87
-8 1 -5 8.38 1.18
-8 0 5 7.33 0.76
-7 0 5 5.86 0.64
6 0 -5 28.93 1.96
-6 0 5 26.69 1.17
5 0 -5 82.52 3.38
-5 0 5 81.04 2.48
4 0 -5 58.07 2.54
-4 0 5 60.72 1.94
-4 0 5 63.52 1.96
-3 0 5 109.48 3.47
-3 0 5 111.34 3.06
-3 0 5 108.11 3.18
-2 0 5 35.52 1.32
-2 0 5 33.39 1.2
-1 0 5 22.17 0.96
-1 0 5 21.81 0.85
0 0 5 230.14 5.77
0 0 5 233.66 6.97
1 0 5 26.25 0.81
1 0 5 26.68 1.25
-2 0 -5 10.48 0.68
2 0 5 10.53 0.37
2 0 5 10.23 0.86
-3 0 -5 6.39 0.69
3 0 5 7.57 0.3
3 0 5 9.02 1.04
-4 0 -5 20.94 1.2
4 0 5 23.17 1.61
-5 0 -5 13.14 1.05
5 0 5 17.3 1.64
-6 0 -5 13.3 1.17
6 0 5 11.13 1.5
-7 0 -5 19.49 1.47
7 0 5 19.97 1.95
-8 0 -5 2.96 0.8
8 0 5 2.89 1.1
-9 0 -5 0.49 0.66
-8 1 5 8.7 0.7
-7 1 5 3.36 0.51
-6 1 5 1.31 0.33
5 -1 -5 11.36 1.19
-5 1 5 9.76 0.69
-5 1 5 10.28 0.7
4 -1 -5 58.26 2.4
-4 1 5 55.61 1.93
-4 1 5 61.44 1.98
-3 1 5 1.52 0.23
-3 1 5 1.92 0.44
-2 1 5 72.41 2.31
-2 1 5 70.53 2.15
-1 1 5 101.1 2.83
-1 1 5 104.67 3.23
0 1 5 1.29 0.26
0 1 5 1.13 0.28
1 1 5 46.1 1.93
1 1 5 50.74 1.38
2 1 5 8.1 0.91
2 1 5 8.2 0.36
-3 -1 -5 2.03 0.38
3 1 5 1.19 0.7
-4 -1 -5 1.16 0.39
4 1 5 1.36 0.78
-5 -1 -5 1.02 0.44
5 1 5 0.91 0.83
-6 -1 -5 1.15 0.52
6 1 5 0.43 1
-7 -1 -5 32.81 1.78
7 1 5 33.34 2.49
-8 -1 -5 6.69 1.03
8 1 5 5.25 1.4
9 1 5 1.17 1.09
-8 2 5 1.64 0.38
-7 2 5 1.67 0.37
-6 2 5 5.23 0.67
-6 2 5 5.98 0.65
-5 2 5 14.42 0.85
-5 2 5 15.6 0.97
4 -2 -5 7.43 0.78
-4 2 5 6.6 0.52
-4 2 5 5.37 0.64
-3 2 5 2.92 0.47
-3 2 5 2.42 0.22
-2 2 5 85.87 2.58
-2 2 5 80.56 2.48
-1 2 5 9.67 0.51
0 2 5 253.46 6.49
0 2 5 265 7.75
1 2 5 270.21 8.2
1 2 5 264.58 6.62
2 2 5 268.94 6.76
2 2 5 276.65 8.6
3 2 5 362.74 11.36
4 2 5 13.63 1.68
5 2 5 9.3 1.49
6 2 5 21.58 2.38
7 2 5 31.34 2.54
8 2 5 1.43 1.23
9 2 5 2.89 1.56
-8 3 5 4.97 0.62
-7 3 5 14.82 0.95
-6 3 5 0.49 0.37
-6 3 5 1.72 0.48
-5 3 5 71.03 2.59
-5 3 5 74.3 2.51
-4 3 5 0.88 0.28
-4 3 5 1.02 0.49
3 -3 -5 4.17 0.43
-3 3 5 5.03 0.64
-2 3 5 38.15 1.24
-2 3 5 40.82 1.47
-1 3 5 38.46 1.38
-1 3 5 43.69 1.42
0 3 5 34.64 1.19
0 3 5 36.91 1.49
1 3 5 48.17 2.1
1 3 5 50.71 1.51
2 3 5 0.06 0.53
2 3 5 0.53 0.17
3 3 5 6.8 1.08
4 3 5 2.58 1.07
5 3 5 -0.02 0.88
6 3 5 7.89 1.56
7 3 5 0.6 1.17
8 3 5 0.8 1.32
9 3 5 4.03 1.66
-8 4 5 4.14 0.58
-7 4 5 8.66 1.04
-7 4 5 8.85 0.85
-6 4 5 44.53 2.03
-6 4 5 48.68 1.93
-5 4 5 8.34 0.75
-5 4 5 9.17 0.92
-4 4 5 3.75 0.53
-4 4 5 2.46 0.56
-3 4 5 90 2.84
-2 4 5 10.18 0.69
-1 4 5 25.22 1.04
-1 4 5 26.72 0.98
0 4 5 17.42 0.8
0 4 5 22.84 1.14
1 4 5 3.5 0.69
1 4 5 3.36 0.36
2 4 5 3.3 0.8
2 4 5 4.17 0.37
3 4 5 0.2 0.65
4 4 5 27.5 2.05
5 4 5 19.87 1.97
6 4 5 23.75 2.38
7 4 5 32.69 2.74
8 4 5 3.26 1.6
9 4 5 4.47 1.91
-7 5 5 4.96 0.87
-7 5 5 5.36 0.7
-6 5 5 7.97 0.88
-6 5 5 9.19 1
-5 5 5 0.44 0.49
-5 5 5 1.53 0.44
-4 5 5 0.49 0.45
-4 5 5 0.59 0.32
-3 5 5 0.66 0.4
-2 5 5 31.3 1.28
-1 5 5 95.23 3.05
-1 5 5 101.54 2.87
0 5 5 99.3 3.47
0 5 5 102.79 2.88
1 5 5 21.93 1.42
1 5 5 22.17 0.93
2 5 5 1.23 0.7
2 5 5 1.57 0.3
3 5 5 12.85 1.53
4 5 5 80.76 3.78
5 5 5 6.3 1.37
6 5 5 23.87 2.28
7 5 5 6.21 1.62
8 5 5 4.54 1.62
9 5 5 11.94 2.44
-7 6 5 5.52 0.78
-7 6 5 3.32 0.8
-6 6 5 2.06 0.61
-6 6 5 3.53 0.7
-5 6 5 1.78 0.6
-5 6 5 2.2 0.53
-4 6 5 0.69 0.33
-4 6 5 -0.18 0.46
-3 6 5 0.42 0.44
-2 6 5 7.89 0.67
-1 6 5 46.26 1.7
-1 6 5 43.78 1.61
0 6 5 41.74 1.87
0 6 5 38.97 1.44
1 6 5 198.88 6.48
1 6 5 193.1 5.24
2 6 5 0.79 0.66
2 6 5 0.42 0.23
3 6 5 94.59 3.97
4 6 5 130.39 5.25
5 6 5 4.04 1.19
6 6 5 51.93 3.39
7 6 5 2.48 1.34
8 6 5 1.87 1.54
9 6 5 2.4 1.59
-7 7 5 0.68 0.67
-7 7 5 1.92 0.6
-6 7 5 3.03 0.72
-6 7 5 2.7 0.71
-5 7 5 1.16 0.59
-5 7 5 1.32 0.46
-4 7 5 20.75 1.28
-4 7 5 19.45 1.26
-3 7 5 12.81 0.97
-2 7 5 10.46 0.83
-1 7 5 1.47 0.4
0 7 5 3.76 0.48
0 7 5 3.46 0.73
1 7 5 19.65 1.49
1 7 5 21.27 1.01
2 7 5 7.63 0.61
2 7 5 6.98 1.1
3 7 5 13.77 1.7
4 7 5 3.54 1.09
5 7 5 52.52 3.26
6 7 5 25.79 2.42
7 7 5 1.22 1.33
8 7 5 7.17 2.02
-6 8 5 1.88 0.7
-6 8 5 1.28 0.6
-5 8 5 2.29 0.57
-5 8 5 1.25 0.61
-4 8 5 8.92 0.95
-4 8 5 12.38 0.99
-3 8 5 82.01 2.8
-2 8 5 50.74 1.94
-1 8 5 2.6 0.5
0 8 5 14.62 0.87
0 8 5 14.75 1.24
1 8 5 29.09 1.83
1 8 5 28.26 1.27
2 8 5 50.74 1.9
2 8 5 52.1 2.68
3 8 5 21.28 1.89
4 8 5 6.7 1.47
5 8 5 12.29 1.87
6 8 5 12.37 1.99
7 8 5 8.72 1.89
8 8 5 -0.65 1.41
-5 9 5 2.47 0.66
-5 9 5 1.84 0.72
-4 9 5 5.73 0.86
-4 9 5 6.55 0.9
-3 9 5 17.25 1.12
-2 9 5 6.1 0.72
-1 9 5 38.38 1.62
0 9 5 2.94 0.53
1 9 5 7.2 1.12
1 9 5 7.12 0.72
2 9 5 16.04 1.6
2 9 5 17.75 1.02
3 9 5 4.82 0.63
3 9 5 4.68 1.23
4 9 5 15.33 1.98
5 9 5 9.16 1.67
6 9 5 -0.37 1.07
7 9 5 1.4 1.3
8 9 5 6.91 1.99
-5 10 5 3.59 0.89
-5 10 5 5.07 0.94
-4 10 5 7.47 1
-4 10 5 8.74 1.05
-3 10 5 6.74 0.84
-2 10 5 18.9 1.21
-1 10 5 33.87 1.59
0 10 5 133.07 4.05
1 10 5 15.84 1.5
1 10 5 16.52 1.05
2 10 5 4.76 1.11
2 10 5 5.29 0.7
3 10 5 48.63 1.99
3 10 5 45 2.86
4 10 5 40.62 2.91
5 10 5 11.35 1.9
6 10 5 -0.67 1.13
7 10 5 0.32 1.4
-4 11 5 9.97 1.2
-4 11 5 7.85 1.07
-3 11 5 1.01 0.36
-3 11 5 -0.63 0.41
-2 11 5 -0.5 0.39
-1 11 5 6.06 0.81
0 11 5 16.79 1.08
1 11 5 -0.19 0.3
2 11 5 2.01 0.95
2 11 5 1.99 0.49
3 11 5 1.74 0.44
3 11 5 1.02 0.99
4 11 5 6.13 1.52
4 11 5 7.77 0.91
5 11 5 1.85 1.19
6 11 5 6.29 1.85
7 11 5 -0.22 1.47
-3 12 5 14.44 1.21
-3 12 5 11.09 1.22
-2 12 5 0.26 0.53
-1 12 5 4.59 0.77
0 12 5 0.03 0.34
1 12 5 0.65 0.38
2 12 5 2.72 0.59
3 12 5 1.1 1.03
3 12 5 1.02 0.44
4 12 5 0.03 0.3
4 12 5 -0.77 0.91
5 12 5 6.16 1.74
6 12 5 1.83 1.41
-1 13 5 7.81 1.07
0 13 5 4.34 0.77
1 13 5 2.52 0.61
2 13 5 25.54 1.49
3 13 5 11.56 1.18
4 13 5 -1.04 1.09
4 13 5 1.39 0.49
-1 -11 6 19.53 1.47
-3 -10 6 3.33 0.72
-2 -10 6 0.51 0.44
-1 -10 6 7.15 0.98
0 -10 6 0.85 0.44
1 -10 6 5.55 0.85
-2 10 -6 1.12 0.66
5 9 -6 2.5 1.08
-4 -9 6 17.01 1.33
-3 -9 6 12.73 1.15
-2 -9 6 4.42 0.79
-1 -9 6 10.33 0.99
0 -9 6 1.51 0.48
-1 9 -6 4.07 0.79
1 -9 6 3.27 0.67
-2 9 -6 14.48 1.29
2 -9 6 15.24 1.16
-3 9 -6 5.9 1.02
6 8 -6 7.28 1.68
5 8 -6 1.95 0.91
-4 -8 6 17.53 1.28
-3 -8 6 29.6 1.7
-2 -8 6 28.61 1.63
-1 -8 6 39.56 1.99
0 -8 6 27.89 1.58
-1 8 -6 14.38 1.11
1 -8 6 15.28 1.13
-2 8 -6 28.71 1.68
2 -8 6 28.54 1.62
-3 8 -6 6.56 1.02
3 -8 6 7.05 0.91
-4 8 -6 -1.01 0.49
-5 8 -6 -0.14 0.68
7 7 -6 12.31 2.13
6 7 -6 15.1 2.14
5 7 -6 5.25 1.22
-4 -7 6 21.95 1.4
-3 -7 6 0.85 0.41
-2 -7 6 35.47 1.81
-1 -7 6 46.24 2.13
0 7 -6 1.01 0.4
0 -7 6 0.78 0.35
-1 7 -6 30.45 1.54
1 -7 6 27.47 1.55
-2 7 -6 14.26 1.15
2 -7 6 15.99 1.11
-3 7 -6 0.76 0.55
-4 7 -6 1.44 0.67
4 -7 6 2.48 0.56
-5 7 -6 3.53 0.92
7 6 -6 11.4 1.95
6 6 -6 21.52 2.17
5 6 -6 12.06 1.76
-4 -6 6 4.27 0.7
-3 -6 6 0.52 0.31
-2 -6 6 14.46 1.02
-1 -6 6 2.82 0.53
0 6 -6 54.77 2.07
0 -6 6 53.78 2.32
-1 6 -6 1.94 0.5
1 -6 6 1.72 0.44
-2 6 -6 0.28 0.42
2 -6 6 0.13 0.23
-3 6 -6 -0.02 0.41
3 -6 6 0.49 0.33
-4 6 -6 1.93 0.65
4 -6 6 1.31 0.45
-5 6 -6 29.88 1.92
-6 6 -6 0 0.69
8 5 -6 5.9 1.67
7 5 -6 10.7 1.79
-7 -5 6 11.32 0.84
6 5 -6 0.23 0.65
-6 -5 6 0.3 0.22
5 5 -6 26.8 2.13
-5 -5 6 27.12 1.19
-4 -5 6 0.44 0.21
-4 -5 6 0.62 0.31
-3 -5 6 1.72 0.29
-3 -5 6 1.66 0.41
-2 -5 6 0.03 0.19
1 5 -6 0.67 0.29
-1 -5 6 0.54 0.28
0 5 -6 20.07 1
0 -5 6 17.69 1.1
-1 5 -6 3.92 0.58
1 -5 6 4.65 0.64
-2 5 -6 6.27 0.78
2 -5 6 6.01 0.78
-3 5 -6 0.64 0.48
3 -5 6 0.62 0.31
-4 5 -6 40.08 1.99
4 -5 6 37.27 1.89
-5 5 -6 50.74 2.46
5 -5 6 51.24 2.35
-6 5 -6 12.8 1.42
-7 5 -6 2.93 0.94
8 4 -6 10.35 1.95
-8 -4 6 12.19 0.92
7 4 -6 4.72 1.37
-7 -4 6 3.93 0.58
6 4 -6 2.93 1.01
-6 -4 6 2.07 0.42
5 4 -6 0.94 0.63
-5 -4 6 0.27 0.21
-4 -4 6 27.16 1.43
-4 -4 6 28.93 1.15
-3 -4 6 71.76 2.78
-3 -4 6 76.32 2.24
-2 -4 6 1.99 0.27
-2 -4 6 2.58 0.46
1 4 -6 39.1 1.35
-1 -4 6 37.11 1.18
-1 -4 6 36.03 1.67
0 4 -6 17.88 0.94
0 -4 6 20.5 1.13
-1 4 -6 13.43 0.87
1 -4 6 12.3 0.89
-2 4 -6 20.04 1.18
2 -4 6 20.88 1.21
-3 4 -6 -0.08 0.41
3 -4 6 0.17 0.29
-4 4 -6 4.79 0.76
4 -4 6 4.25 0.69
-5 4 -6 0.61 0.53
5 -4 6 1.37 0.48
-6 4 -6 0.55 0.63
6 -4 6 1.61 0.5
-7 4 -6 14.93 1.46
-8 -3 6 17.39 1.09
7 3 -6 11.26 1.74
-7 -3 6 9.66 0.76
6 3 -6 -0.13 0.5
-6 -3 6 0.63 0.27
5 3 -6 5.31 1.04
-5 -3 6 6.09 0.51
-4 -3 6 11.21 0.64
-4 -3 6 10.61 0.8
-3 -3 6 28.32 1.07
-3 -3 6 28.34 1.37
-2 -3 6 112.25 2.98
-2 -3 6 106.68 3.71
1 3 -6 37.81 1.26
-1 -3 6 35.47 1.58
-1 -3 6 36.75 1.14
0 3 -6 1.41 0.31
0 -3 6 2.18 0.18
-1 3 -6 3.59 0.5
1 -3 6 4.45 0.6
-2 3 -6 34.41 1.55
2 -3 6 33.26 1.61
-3 3 -6 23.55 1.3
3 -3 6 21.13 1.3
-4 3 -6 18.84 1.25
4 -3 6 17.35 1.24
-5 3 -6 1.63 0.59
5 -3 6 1.91 0.57
-6 3 -6 1.81 0.65
6 -3 6 3.21 0.71
-7 3 -6 4.45 0.92
-8 3 -6 9.19 1.39
-8 -2 6 1.92 0.42
7 2 -6 5.34 1.29
-7 -2 6 5.19 0.61
6 2 -6 0.86 0.73
-6 -2 6 0.86 0.28
5 2 -6 7.62 1.19
-5 -2 6 7.4 0.57
-4 -2 6 0.91 0.29
-4 -2 6 0.97 0.27
-3 -2 6 -0.12 0.14
-3 -2 6 0 0.16
-2 -2 6 32.6 1.09
-2 -2 6 31.45 1.4
-1 -2 6 33.18 1.43
-1 -2 6 32.31 1.03
0 2 -6 1.24 0.27
0 -2 6 1.27 0.16
0 -2 6 1.14 0.31
-1 2 -6 192.51 5.72
1 -2 6 196.47 4.72
1 -2 6 191.51 6.13
-2 2 -6 18.43 1.03
2 -2 6 17.06 1.08
-3 2 -6 154.77 4.91
3 -2 6 154.62 5.23
-4 2 -6 139.01 4.63
4 -2 6 138.68 4.92
-5 2 -6 5.34 0.84
5 -2 6 4.59 0.88
-6 2 -6 23.56 1.55
6 -2 6 24.38 1.7
-7 2 -6 2.5 0.79
7 -2 6 3.89 0.88
-8 2 -6 14.57 1.6
-8 -1 6 5.3 0.68
-7 -1 6 0.69 0.29
6 1 -6 4.34 1.02
-6 -1 6 4.46 0.55
5 1 -6 6.76 1.08
-5 -1 6 8.78 0.6
-4 -1 6 16.27 0.89
-4 -1 6 15.63 0.78
-3 -1 6 0.97 0.26
-3 -1 6 1.22 0.28
-2 -1 6 4.86 0.4
-2 -1 6 4.48 0.44
-1 -1 6 1.01 0.26
-1 -1 6 1.51 0.24
0 -1 6 10.02 0.43
0 -1 6 9.14 0.68
-1 1 -6 26.28 1.11
1 -1 6 27.01 0.76
1 -1 6 26.05 1.3
-2 1 -6 -0.07 0.3
2 -1 6 -0.08 0.26
-3 1 -6 44.09 1.83
3 -1 6 43.74 2.07
-4 1 -6 45.3 2.01
4 -1 6 45.3 2.25
-5 1 -6 127.05 4.47
5 -1 6 133.01 4.94
-6 1 -6 1.46 0.6
6 -1 6 3.52 0.93
-7 1 -6 3.57 0.85
7 -1 6 4.6 1.07
-8 1 -6 14.35 1.4
8 -1 6 17.48 1.7
-8 0 6 0.7 0.32
-7 0 6 0.98 0.3
-6 0 6 3.92 0.5
5 0 -6 18.81 1.41
-5 0 6 18.78 0.93
-4 0 6 39.7 1.45
-4 0 6 39.43 1.54
-3 0 6 58.81 1.9
-3 0 6 60.41 2.11
-2 0 6 46.23 1.57
-2 0 6 48.4 1.76
-1 0 6 29.53 1.09
-1 0 6 32.18 1.3
0 0 6 225.38 6.76
0 0 6 216.06 5.55
1 0 6 69.95 1.91
1 0 6 71.95 2.62
-2 0 -6 1.32 0.34
2 0 6 1.55 0.19
2 0 6 1.56 0.48
-3 0 -6 1.53 0.41
3 0 6 1.23 0.61
3 0 6 1.61 0.15
-4 0 -6 17.74 1.17
4 0 6 19.89 1.57
-5 0 -6 0.49 0.45
5 0 6 0.65 0.81
-6 0 -6 3.38 0.71
6 0 6 5.57 1.2
-7 0 -6 19.54 1.4
7 0 6 15.15 1.82
-8 0 -6 0.69 0.57
8 0 6 2.02 0.97
-8 1 6 4.48 0.61
-7 1 6 12.42 0.84
-6 1 6 17.15 0.95
5 -1 -6 23.77 1.54
-5 1 6 26.07 1.19
4 -1 -6 80.06 3.1
-4 1 6 82.39 2.58
-4 1 6 81.42 2.56
-3 1 6 30.85 1.21
-3 1 6 31.6 1.32
-2 1 6 114.29 3.59
-1 1 6 419.73 12
-1 1 6 402.48 10.22
0 1 6 144.11 3.79
0 1 6 143.48 4.56
1 1 6 241.75 7.46
1 1 6 239.81 5.99
2 1 6 113.87 2.91
2 1 6 113.08 4.04
3 1 6 43.2 2.23
3 1 6 47.79 1.32
-4 -1 -6 35.24 1.59
4 1 6 34.58 2.11
-5 -1 -6 0.77 0.46
5 1 6 0.4 0.8
-6 -1 -6 0.22 0.41
6 1 6 0.19 0.9
-7 -1 -6 18.61 1.39
7 1 6 20.97 2.13
-8 -1 -6 1.72 0.67
8 1 6 2.76 1.2
9 1 6 0.84 1.06
-8 2 6 1.76 0.43
-7 2 6 2.84 0.48
-6 2 6 19.71 1.1
-5 2 6 13.25 0.94
-5 2 6 13.55 0.81
4 -2 -6 0.83 0.38
-4 2 6 1.56 0.3
-4 2 6 0.88 0.43
-3 2 6 4.01 0.58
-3 2 6 3.95 0.31
-2 2 6 25.54 1
-2 2 6 26.39 1.14
-1 2 6 60.94 2.07
-1 2 6 60.68 1.93
0 2 6 1.83 0.29
0 2 6 2.39 0.41
1 2 6 10.75 0.53
1 2 6 11.2 0.91
2 2 6 36.31 1.15
2 2 6 38.46 1.9
3 2 6 150.59 3.96
3 2 6 156.09 5.51
4 2 6 14.62 1.71
5 2 6 0.94 1.01
6 2 6 6.38 1.39
7 2 6 19.26 2.3
8 2 6 -0.63 0.98
9 2 6 3.69 1.53
-8 3 6 6.32 0.73
-7 3 6 6.28 0.73
-6 3 6 1.08 0.4
-6 3 6 0.36 0.36
-5 3 6 30.9 1.43
-5 3 6 32.07 1.52
-4 3 6 0.34 0.49
-3 3 6 95.93 2.85
-3 3 6 92.63 2.94
-2 3 6 136.88 4.13
-2 3 6 140.94 3.93
-1 3 6 14.94 0.7
-1 3 6 14.59 0.77
0 3 6 1.8 0.4
0 3 6 2.63 0.37
1 3 6 28.96 1.03
1 3 6 30.65 1.57
2 3 6 212.6 5.41
2 3 6 210.12 6.97
3 3 6 37.91 2.23
3 3 6 36.5 1.25
4 3 6 27.9 2.08
5 3 6 10 1.63
6 3 6 46.13 3.1
7 3 6 11.14 1.98
8 3 6 7.67 1.83
9 3 6 2.84 1.56
-8 4 6 6.09 0.72
-7 4 6 1.7 0.48
-6 4 6 32.08 1.55
-6 4 6 31.83 1.6
-5 4 6 -0.2 0.23
-5 4 6 -0.12 0.47
-4 4 6 3.83 0.69
-3 4 6 148.99 4.32
-2 4 6 23.56 1.13
-2 4 6 24.58 0.83
-1 4 6 9.43 0.63
-1 4 6 9.15 0.52
0 4 6 1.37 0.41
0 4 6 1.07 0.26
1 4 6 13.68 1.12
1 4 6 13.89 0.68
2 4 6 28.34 1.81
2 4 6 27.91 1.06
3 4 6 0.17 0.71
3 4 6 0.26 0.19
4 4 6 1.6 0.97
5 4 6 0.06 0.89
6 4 6 1.66 1.15
7 4 6 11.57 2.08
8 4 6 2.28 1.42
9 4 6 1.95 1.49
-7 5 6 8.02 1.05
-7 5 6 8.35 0.89
-6 5 6 14.15 1.07
-6 5 6 14.12 1.08
-5 5 6 10.01 0.84
-5 5 6 9.98 0.98
-4 5 6 9.66 0.94
-3 5 6 6.65 0.79
-2 5 6 4.31 0.58
-1 5 6 12.29 0.77
-1 5 6 11.96 0.64
0 5 6 38.17 1.75
0 5 6 42 1.45
1 5 6 25.44 1.58
1 5 6 26.52 1.06
2 5 6 2.7 0.37
2 5 6 3.52 0.85
3 5 6 0.08 0.16
3 5 6 0.67 0.86
4 5 6 1.64 1.05
5 5 6 2.05 1.21
6 5 6 6.23 1.47
7 5 6 -0.65 0.99
8 5 6 4.06 1.53
9 5 6 10.03 2.37
-7 6 6 3.01 0.68
-7 6 6 2.54 0.73
-6 6 6 4.61 0.78
-6 6 6 4.86 0.82
-5 6 6 17.78 1.26
-5 6 6 16.96 1.16
-4 6 6 12.7 1.13
-3 6 6 0.18 0.43
-2 6 6 9.53 0.8
-1 6 6 1.13 0.37
-1 6 6 1.04 0.31
0 6 6 39.48 1.48
0 6 6 40.39 1.88
1 6 6 90.18 3.52
1 6 6 87.99 2.69
2 6 6 3.65 0.98
2 6 6 2.89 0.41
3 6 6 38.62 1.49
3 6 6 39.69 2.46
4 6 6 42.09 2.75
5 6 6 29.63 2.41
6 6 6 74.83 4.09
7 6 6 1.49 1.38
8 6 6 2.9 1.67
9 6 6 3.75 1.87
-6 7 6 1.14 0.64
-6 7 6 1.85 0.61
-5 7 6 9.55 0.89
-5 7 6 9.05 1.04
-4 7 6 23.76 1.43
-3 7 6 6.35 0.77
-2 7 6 3.54 0.56
-1 7 6 3.25 0.55
0 7 6 98.79 2.97
0 7 6 96.59 3.58
1 7 6 42.48 1.63
1 7 6 43.89 2.27
2 7 6 51.88 1.82
2 7 6 45.66 2.54
3 7 6 49.55 2.81
3 7 6 49.36 1.83
4 7 6 6.26 1.32
5 7 6 93.11 4.5
6 7 6 23.6 2.7
7 7 6 0.56 1.14
8 7 6 1.08 1.38
-6 8 6 0.11 0.61
-6 8 6 -0.82 0.37
-5 8 6 0.36 0.37
-5 8 6 0.43 0.54
-4 8 6 0.6 0.32
-4 8 6 0.39 0.49
-3 8 6 18.35 1.21
-2 8 6 21.07 1.17
-1 8 6 2.48 0.49
0 8 6 11.94 1.23
0 8 6 11.57 0.82
1 8 6 0.77 0.33
1 8 6 1.17 0.76
2 8 6 10.98 0.77
2 8 6 14.65 1.64
3 8 6 4.64 0.61
3 8 6 4.71 1.14
4 8 6 5.56 1.29
5 8 6 10.43 1.84
6 8 6 21.38 2.53
7 8 6 19.36 2.69
8 8 6 3.2 1.72
-5 9 6 0.83 0.47
-5 9 6 0.16 0.61
-4 9 6 5.54 0.91
-4 9 6 7.89 0.97
-3 9 6 13.4 1.05
-2 9 6 16.38 1.08
-1 9 6 76.72 2.65
0 9 6 7.81 0.81
1 9 6 10.8 0.83
1 9 6 10.7 1.35
2 9 6 22.8 1.19
2 9 6 22.9 1.88
3 9 6 7.85 0.84
3 9 6 7.76 1.41
4 9 6 17.24 2.12
5 9 6 2.09 1.15
6 9 6 1.57 1.3
7 9 6 -0.06 1.21
8 9 6 9.5 2.22
-5 10 6 2.23 0.83
-5 10 6 3.63 0.8
-4 10 6 0.87 0.39
-4 10 6 1.14 0.65
-3 10 6 -0.57 0.46
-2 10 6 3.97 0.72
-1 10 6 4.44 0.68
0 10 6 46.13 1.91
1 10 6 6.02 0.74
2 10 6 2.22 0.96
2 10 6 0.51 0.31
3 10 6 38.4 2.64
3 10 6 37.24 1.69
4 10 6 51.07 2.11
4 10 6 51.34 3.27
5 10 6 10.63 1.96
6 10 6 -0.66 1.02
7 10 6 -0.3 1.43
-4 11 6 16.57 1.34
-4 11 6 17.04 1.44
-3 11 6 4.82 0.89
-2 11 6 3.97 0.75
-1 11 6 36.01 1.74
0 11 6 26.69 1.42
1 11 6 7.72 0.85
2 11 6 18.18 1.14
2 11 6 18.12 1.83
3 11 6 16.05 2.07
3 11 6 13.76 1
4 11 6 26.44 1.47
4 11 6 24.05 2.45
5 11 6 10.34 1.94
6 11 6 17.03 2.65
7 11 6 -1.19 1.36
-3 12 6 13.88 1.21
-3 12 6 13.07 1.33
-2 12 6 3.25 0.76
-1 12 6 26.14 1.56
0 12 6 3.03 0.62
1 12 6 5.05 0.77
2 12 6 4.78 0.74
3 12 6 1.57 0.46
3 12 6 0.15 0.99
4 12 6 0.45 0.32
4 12 6 -0.53 1.01
5 12 6 3.97 0.72
5 12 6 1.72 1.48
6 12 6 0.27 1.46
-1 13 6 3.56 0.79
0 13 6 -0.25 0.36
1 13 6 0.01 0.35
2 13 6 5.66 0.86
3 13 6 1.46 0.53
4 13 6 -0.11 1.15
4 13 6 -0.09 0.33
-3 -10 7 9.01 1.21
-2 -10 7 7.16 1.02
-1 -10 7 13.75 1.21
0 -10 7 6.61 0.99
1 -10 7 21.98 1.56
5 9 -7 1.65 0.89
-4 -9 7 9.3 1.19
-3 -9 7 2.28 0.65
-2 -9 7 5.55 0.87
-1 -9 7 4.92 0.81
0 -9 7 1.41 0.49
1 -9 7 2.73 0.65
-2 9 -7 8.3 1.12
2 -9 7 10.03 1
-3 9 -7 4.75 0.98
5 8 -7 2.77 0.94
-4 -8 7 7.24 0.99
-3 -8 7 7.17 0.97
-2 -8 7 15.86 1.23
-1 -8 7 6.95 0.95
0 -8 7 4.76 0.77
1 -8 7 5.69 0.84
-2 8 -7 24.15 1.6
2 -8 7 27.35 1.63
-3 8 -7 13.72 1.44
3 -8 7 15.46 1.21
-4 8 -7 0.98 0.75
6 7 -7 3.75 1.25
5 7 -7 4.35 1.09
-5 -7 7 3.23 0.67
-4 -7 7 13.87 1.16
-3 -7 7 3.3 0.65
-2 -7 7 55.58 2.5
-1 -7 7 30.95 1.72
0 -7 7 0.93 0.4
-1 7 -7 22.17 1.35
1 -7 7 22.03 1.41
-2 7 -7 22.73 1.46
2 -7 7 23.15 1.43
-3 7 -7 2.5 0.69
3 -7 7 2.53 0.59
-4 7 -7 1.95 0.73
4 -7 7 3.23 0.66
-5 7 -7 1.26 0.77
7 6 -7 7.74 1.65
6 6 -7 8.85 1.62
-5 -6 7 21.29 1.39
-4 -6 7 18.39 1.29
-3 -6 7 24.68 1.47
-2 -6 7 42.69 2.05
-1 -6 7 8.12 0.79
0 6 -7 108.56 3.52
0 -6 7 102.24 3.89
-1 6 -7 67.15 2.59
1 -6 7 69.64 2.82
-2 6 -7 33.92 1.75
2 -6 7 36.62 1.84
-3 6 -7 10.3 1.13
3 -6 7 11.12 0.98
-4 6 -7 9.55 1.13
4 -6 7 11.63 1.03
-5 6 -7 28.32 1.95
-6 6 -7 7.78 1.23
7 5 -7 4.26 1.25
-7 -5 7 4.37 0.62
6 5 -7 0.68 0.77
-6 -5 7 0.03 0.22
-5 -5 7 44.98 2.12
-5 -5 7 43.87 1.68
-4 -5 7 18.61 1.21
-4 -5 7 17 0.87
-3 -5 7 15.81 1.1
-3 -5 7 15.62 0.78
-2 -5 7 1.74 0.44
-1 -5 7 1.12 0.37
0 5 -7 6.1 0.63
0 -5 7 5.68 0.76
-1 5 -7 20.87 1.19
1 -5 7 21.04 1.29
-2 5 -7 1.5 0.51
2 -5 7 0.95 0.4
-3 5 -7 50.08 2.28
3 -5 7 52.72 2.36
-4 5 -7 3.37 0.73
4 -5 7 3.62 0.7
-5 5 -7 9.6 1.23
5 -5 7 11.28 1.04
-6 5 -7 11.46 1.44
7 4 -7 0.7 0.9
-7 -4 7 1.43 0.39
6 4 -7 9.19 1.56
-6 -4 7 7.49 0.75
-5 -4 7 0.05 0.26
-5 -4 7 0.08 0.2
-4 -4 7 26.71 1.42
-4 -4 7 23.15 1.04
-3 -4 7 19.09 1.15
-3 -4 7 18.44 0.85
-2 -4 7 11.38 0.58
-2 -4 7 10.82 0.84
-1 -4 7 11.5 0.86
-1 -4 7 10.84 0.52
0 4 -7 8.74 0.68
0 -4 7 9.35 0.78
-1 4 -7 42.14 1.74
1 -4 7 41.58 1.94
-2 4 -7 8.34 0.88
2 -4 7 7.45 0.89
-3 4 -7 0.17 0.41
3 -4 7 0.82 0.43
-4 4 -7 10.38 1.12
4 -4 7 10.85 0.97
-5 4 -7 2.82 0.73
5 -4 7 5.28 0.83
-6 4 -7 5.83 0.99
6 -4 7 6.82 0.98
-7 4 -7 20.45 1.77
-8 -3 7 9.53 0.96
7 3 -7 4.96 1.31
-7 -3 7 4.96 0.64
6 3 -7 8.03 1.43
-6 -3 7 7.1 0.62
-5 -3 7 14.03 0.8
-5 -3 7 14.44 0.98
-4 -3 7 5.16 0.68
-4 -3 7 4.39 0.47
-3 -3 7 1.05 0.25
-3 -3 7 0.74 0.3
-2 -3 7 49.23 1.56
-2 -3 7 51.36 2.1
-1 -3 7 92.67 2.54
-1 -3 7 95.57 3.36
0 3 -7 23.73 1.05
0 -3 7 22.7 1.25
0 -3 7 22.15 0.75
-1 3 -7 26.45 1.26
1 -3 7 26.3 1.41
-2 3 -7 9.74 0.85
2 -3 7 11.17 0.89
-3 3 -7 22.01 1.34
3 -3 7 23.91 1.41
-4 3 -7 21.36 1.37
4 -3 7 22.7 1.44
-5 3 -7 -0.24 0.43
5 -3 7 -0.17 0.28
-6 3 -7 1.82 0.65
6 -3 7 0.88 0.47
-7 3 -7 -0.18 0.65
7 -3 7 0.39 0.45
-8 -2 7 1.07 0.34
-7 -2 7 6.81 0.74
6 2 -7 21.88 1.86
-6 -2 7 21.31 1.09
5 2 -7 22.89 1.73
-5 -2 7 19.15 1.12
-5 -2 7 21.91 1.01
-4 -2 7 0.18 0.19
-4 -2 7 0.27 0.23
-3 -2 7 0.36 0.23
-3 -2 7 0.29 0.18
-2 -2 7 40.94 1.71
-2 -2 7 38.6 1.29
-1 -2 7 35.77 1.14
-1 -2 7 36.72 1.61
0 -2 7 1.05 0.15
0 -2 7 1.02 0.32
-1 2 -7 4.52 0.55
1 -2 7 4.4 0.22
1 -2 7 5.16 0.67
-2 2 -7 10.41 0.84
2 -2 7 9.1 0.82
-3 2 -7 82.54 2.99
3 -2 7 81.12 3.24
-4 2 -7 52.8 2.29
4 -2 7 54.27 2.49
-5 2 -7 4.5 0.79
5 -2 7 4.79 0.91
-6 2 -7 2.79 0.77
6 -2 7 3.48 0.81
-7 2 -7 0.65 0.66
7 -2 7 0.43 0.52
-8 2 -7 3.02 0.91
-8 -1 7 4.87 0.68
-7 -1 7 0.42 0.26
6 1 -7 11.6 1.51
-6 -1 7 15.06 0.87
5 1 -7 9.26 1.24
-5 -1 7 8.36 0.63
-4 -1 7 0.42 0.26
-4 -1 7 0.6 0.25
-3 -1 7 4.56 0.49
-3 -1 7 4.51 0.47
-2 -1 7 45.58 1.8
-2 -1 7 43.64 1.44
-1 -1 7 10.2 0.53
-1 -1 7 9.62 0.69
0 -1 7 41.22 1.81
0 -1 7 46.05 1.3
-1 1 -7 4.04 0.46
1 -1 7 4.44 0.25
1 -1 7 4.5 0.61
-2 1 -7 0.5 0.34
2 -1 7 0.03 0.28
-3 1 -7 26.58 1.4
3 -1 7 30.61 1.67
-4 1 -7 14.91 1.16
4 -1 7 15.19 1.33
-5 1 -7 124.46 4.47
5 -1 7 131.85 4.95
-6 1 -7 9.09 1.12
6 -1 7 7.61 1.22
-7 1 -7 16.06 1.44
7 -1 7 17.57 1.61
-8 1 -7 26.12 1.9
8 -1 7 30.58 2.24
-8 0 7 1.85 0.45
-7 0 7 1.98 0.43
-6 0 7 1.58 0.38
5 0 -7 4.19 0.82
-5 0 7 3.28 0.46
-4 0 7 0.08 0.26
-4 0 7 0.19 0.18
-3 0 7 19.86 1
-3 0 7 21.48 0.97
-2 0 7 38 1.53
-2 0 7 37.35 1.38
-1 0 7 0.1 0.24
-1 0 7 0.16 0.18
0 0 7 184.53 5.75
0 0 7 178.95 4.67
1 0 7 23.16 0.81
1 0 7 20.43 1.18
2 0 7 38.41 1.12
2 0 7 39.67 1.88
-3 0 -7 39.74 1.68
3 0 7 36.12 1.95
-4 0 -7 42.49 1.86
4 0 7 36.51 2.14
-5 0 -7 2.17 0.64
5 0 7 3.37 0.96
-6 0 -7 8.24 0.99
6 0 7 8.46 1.33
-7 0 -7 23.34 1.62
7 0 7 22.01 1.92
-8 0 -7 0.81 0.65
8 0 7 1.98 0.87
-8 1 7 2.11 0.48
-7 1 7 2.52 0.45
-6 1 7 0.43 0.29
-5 1 7 6 0.68
-4 1 7 9.37 0.74
-4 1 7 9.97 0.62
-3 1 7 0.43 0.18
-3 1 7 0.02 0.35
-2 1 7 1.55 0.42
-2 1 7 1.69 0.3
-1 1 7 68.18 2.41
-1 1 7 69.32 2.14
0 1 7 12.17 0.68
0 1 7 12.26 0.79
1 1 7 66.53 2.56
1 1 7 65.22 1.9
2 1 7 87.46 3.38
2 1 7 91.03 2.39
3 1 7 56.41 2.63
3 1 7 55.36 1.54
4 1 7 23.33 1.73
-5 -1 -7 1.1 0.52
5 1 7 1.62 0.87
-6 -1 -7 5.04 0.78
6 1 7 4.87 1.18
-7 -1 -7 12.84 1.19
7 1 7 12 1.75
8 1 7 1.96 1.1
-8 2 7 3.84 0.61
-7 2 7 6.37 0.74
-6 2 7 19.96 1.14
-5 2 7 55.86 2.08
-4 2 7 36.37 1.57
-3 2 7 62.85 2.2
-3 2 7 64.23 2.14
-2 2 7 140.89 4.38
-2 2 7 142.99 4.02
-1 2 7 18.98 0.97
-1 2 7 19.06 0.92
0 2 7 138.35 4.58
0 2 7 147.67 3.87
1 2 7 2.65 0.32
1 2 7 1.57 0.47
2 2 7 25.53 0.87
2 2 7 21.7 1.45
3 2 7 140.12 3.53
3 2 7 127.72 4.93
4 2 7 3.79 1.02
4 2 7 4.54 0.36
5 2 7 1.68 1.03
6 2 7 23.99 2.12
7 2 7 3.59 1.33
8 2 7 0.21 1.06
9 2 7 1.49 1.2
-8 3 7 4 0.61
-7 3 7 11.62 0.89
-6 3 7 1.65 0.48
-5 3 7 19.26 1.23
-5 3 7 20.86 1.08
-4 3 7 2.38 0.58
-3 3 7 50.7 1.67
-3 3 7 49.33 1.94
-2 3 7 65.95 2.27
-2 3 7 69.14 2.22
-1 3 7 52.84 1.85
-1 3 7 50.04 1.76
0 3 7 1.65 0.4
0 3 7 1.81 0.36
1 3 7 8.51 0.53
1 3 7 9.06 0.91
2 3 7 108.89 4.14
2 3 7 111.36 3.01
3 3 7 42.84 1.4
3 3 7 44.56 2.45
4 3 7 13.61 0.69
4 3 7 17.84 1.9
5 3 7 4.09 1.21
6 3 7 53.67 3.23
7 3 7 6.99 1.56
8 3 7 8.85 1.81
9 3 7 6.54 1.83
-7 4 7 3.87 0.67
-6 4 7 25.74 1.45
-5 4 7 10.65 0.82
-5 4 7 12.09 1.02
-4 4 7 0.31 0.53
-3 4 7 70.11 2.46
-2 4 7 29.15 1.32
-2 4 7 28.32 1.03
-1 4 7 57.38 2.02
-1 4 7 59.77 1.97
0 4 7 1.66 0.43
0 4 7 1.27 0.31
1 4 7 10.35 0.59
1 4 7 11.34 1.05
2 4 7 14.11 0.7
2 4 7 14.59 1.38
3 4 7 41.69 1.43
3 4 7 40.05 2.36
4 4 7 6.81 1.33
5 4 7 1.65 1.07
6 4 7 2.14 1.17
7 4 7 9.44 1.94
8 4 7 7.15 1.76
9 4 7 3.25 1.6
-7 5 7 15.25 1.11
-6 5 7 8.63 0.97
-6 5 7 7.04 0.95
-5 5 7 1.05 0.38
-5 5 7 0.56 0.51
-4 5 7 16.41 1.15
-3 5 7 8.89 0.89
-2 5 7 38.99 1.62
-1 5 7 41.01 1.5
-1 5 7 41.1 1.57
0 5 7 41.89 1.79
0 5 7 39.37 1.49
1 5 7 56.73 1.84
1 5 7 55.51 2.49
2 5 7 33.66 1.99
2 5 7 29.11 1.18
3 5 7 41.72 1.51
3 5 7 41.67 2.53
4 5 7 17.7 2.05
5 5 7 0.66 1.11
6 5 7 1.61 1.17
7 5 7 0.07 1.23
8 5 7 4.53 1.76
9 5 7 9.24 2.23
-7 6 7 7.21 0.97
-6 6 7 5.09 0.82
-6 6 7 8.14 1.04
-5 6 7 17.24 1.15
-5 6 7 17.41 1.31
-4 6 7 45.44 1.98
-3 6 7 11.46 1.05
-2 6 7 2.29 0.52
-1 6 7 0.68 0.35
-1 6 7 1.12 0.28
0 6 7 2.2 0.41
0 6 7 2.23 0.6
1 6 7 17.79 1.45
1 6 7 19.6 0.95
2 6 7 14.29 0.8
2 6 7 15.67 1.54
3 6 7 4.83 1.2
3 6 7 4.35 0.54
4 6 7 1.06 1.05
5 6 7 0.28 0.95
6 6 7 5.52 1.47
7 6 7 -0.35 1.03
8 6 7 0.34 1.45
-6 7 7 0.41 0.45
-6 7 7 0.24 0.59
-5 7 7 7.06 0.95
-5 7 7 7.47 0.92
-4 7 7 47.39 2.07
-3 7 7 26.8 1.47
-2 7 7 0.59 0.41
-1 7 7 0.64 0.38
0 7 7 40.07 1.93
0 7 7 40.36 1.59
1 7 7 23.86 1.66
1 7 7 22.39 1.09
2 7 7 100.65 3.1
2 7 7 102.81 4.21
3 7 7 28.84 2.15
3 7 7 29.13 1.29
4 7 7 0.64 0.3
4 7 7 -0.42 0.83
5 7 7 148.29 6.26
6 7 7 43.63 3.15
7 7 7 21.92 2.8
8 7 7 8.76 2.11
-6 8 7 -0.12 0.44
-6 8 7 -0.29 0.59
-5 8 7 1.29 0.7
-5 8 7 0.94 0.41
-4 8 7 0.14 0.55
-3 8 7 18.68 1.27
-2 8 7 3.86 0.69
-1 8 7 0.24 0.33
0 8 7 17.4 1.02
1 8 7 5.5 0.65
1 8 7 3.43 0.95
2 8 7 24.6 1.95
2 8 7 23.9 1.2
3 8 7 11.53 1.66
3 8 7 7.71 0.78
4 8 7 -0.15 0.21
4 8 7 0.36 0.97
5 8 7 -0.42 1.06
6 8 7 1.76 1.21
7 8 7 8.09 1.9
8 8 7 0.32 1.49
-5 9 7 -0.8 0.59
-5 9 7 0.68 0.42
-4 9 7 1.67 0.71
-3 9 7 0.27 0.46
-2 9 7 -0.04 0.38
-1 9 7 61.37 2.3
0 9 7 10.69 0.87
1 9 7 25.11 1.88
1 9 7 25.01 1.28
2 9 7 47.93 2.78
2 9 7 48.88 1.93
3 9 7 18.31 2.05
3 9 7 22 1.18
4 9 7 61.47 3.54
4 9 7 56.8 2.22
5 9 7 22.66 2.56
6 9 7 0.71 1.24
7 9 7 1.24 1.34
8 9 7 20.94 3.14
-4 10 7 4.33 0.74
-4 10 7 2.98 0.83
-3 10 7 -1.06 0.48
-2 10 7 2.17 0.59
-1 10 7 2.53 0.61
0 10 7 28.37 1.43
1 10 7 0.22 0.34
2 10 7 6.4 1.32
2 10 7 8.04 0.86
3 10 7 10.12 1.65
3 10 7 8.25 0.86
4 10 7 27.23 1.44
4 10 7 28.71 2.55
5 10 7 9.15 1.77
5 10 7 11.27 0.91
6 10 7 0.2 1.27
7 10 7 0.29 1.3
-3 11 7 0.1 0.61
-2 11 7 1.81 0.66
-1 11 7 26.82 1.5
0 11 7 11.21 0.94
1 11 7 3.15 0.64
2 11 7 3.97 0.65
3 11 7 5.17 1.38
3 11 7 5.46 0.72
4 11 7 11.54 0.98
4 11 7 10.25 1.89
5 11 7 8.32 1.77
5 11 7 8.2 0.94
6 11 7 12.05 2.37
-2 12 7 5.69 0.97
-1 12 7 31.84 1.76
0 12 7 12.8 1.1
1 12 7 24.68 1.45
2 12 7 27.65 1.52
3 12 7 16.81 1.19
4 12 7 1.38 1.2
4 12 7 2.24 0.56
5 12 7 11.88 1.03
5 12 7 9.47 1.98
-1 13 7 10.01 1.15
0 13 7 7.9 1.02
1 13 7 10.24 1.13
2 13 7 18.56 1.32
3 13 7 10.02 1.1
4 13 7 2.99 0.65
-3 -9 8 5.03 0.92
-2 -9 8 10.61 1.26
-1 -9 8 2.03 0.62
0 -9 8 7.36 1.05
1 -9 8 7.97 1.08
2 -9 8 17.97 1.41
5 8 -8 2.27 0.87
-5 -8 8 1.21 0.55
-4 -8 8 0.75 0.49
-3 -8 8 3.72 0.74
-2 -8 8 9.12 1.14
-1 -8 8 0.15 0.32
0 -8 8 0.4 0.36
1 -8 8 1.34 0.48
-2 8 -8 13.77 1.25
2 -8 8 11.61 1.12
-3 8 -8 8.91 1.24
3 -8 8 7.84 1.07
6 7 -8 5.77 1.41
-5 -7 8 8.34 1.07
-4 -7 8 4.08 0.77
-3 -7 8 1.84 0.57
-2 -7 8 40.24 2.09
-1 -7 8 36.19 1.95
0 -7 8 1.09 0.42
1 -7 8 18.81 1.35
-2 7 -8 21.63 1.47
2 -7 8 20.22 1.4
-3 7 -8 9.75 1.15
3 -7 8 11.88 1.06
-4 7 -8 18.28 1.53
4 -7 8 17.52 1.35
6 6 -8 3.92 1.19
-5 -6 8 9.06 0.94
-4 -6 8 -0.14 0.24
-3 -6 8 7.14 0.91
-2 -6 8 11.54 1.02
-1 -6 8 1.25 0.46
0 -6 8 21.68 1.41
-1 6 -8 4.85 0.74
1 -6 8 5.85 0.84
-2 6 -8 4.89 0.8
2 -6 8 5.47 0.86
-3 6 -8 9.4 1.14
3 -6 8 9.93 0.99
-4 6 -8 8.84 1.13
4 -6 8 9.14 1.14
-5 6 -8 11.36 1.38
5 -6 8 11.25 1.11
7 5 -8 1.13 1.02
-7 -5 8 1.08 0.37
6 5 -8 0.38 0.66
-6 -5 8 0.21 0.26
-5 -5 8 29.18 1.69
-5 -5 8 30.79 1.34
-4 -5 8 30.53 1.68
-4 -5 8 30.4 1.27
-3 -5 8 92.99 2.73
-3 -5 8 88.33 3.49
-2 -5 8 34.67 1.79
-1 -5 8 27.59 1.55
0 -5 8 58.72 2.52
-1 5 -8 121.31 4.06
1 -5 8 125.74 4.49
-2 5 -8 26.64 1.52
2 -5 8 30.71 1.7
-3 5 -8 0.22 0.43
3 -5 8 0.11 0.33
-4 5 -8 8.11 1.04
4 -5 8 8.14 1.05
-5 5 -8 2.4 0.83
5 -5 8 5 0.84
-6 5 -8 12.19 1.41
7 4 -8 0.8 0.9
-7 -4 8 0.95 0.37
6 4 -8 5.37 1.27
-6 -4 8 5.53 0.66
-5 -4 8 0.66 0.36
-5 -4 8 0.34 0.22
-4 -4 8 38.38 1.88
-4 -4 8 38.94 1.48
-3 -4 8 39.32 1.91
-3 -4 8 41.91 1.47
-2 -4 8 1.49 0.26
-2 -4 8 1.38 0.42
-1 -4 8 0.56 0.16
-1 -4 8 0.61 0.31
0 4 -8 3.98 0.52
0 -4 8 2.95 0.55
-1 4 -8 46.61 1.94
1 -4 8 49.01 2.22
-2 4 -8 4.6 0.68
2 -4 8 4.87 0.75
-3 4 -8 4.92 0.74
3 -4 8 3.64 0.68
-4 4 -8 0.45 0.53
4 -4 8 -0.31 0.28
-5 4 -8 0.04 0.48
5 -4 8 0.66 0.45
-6 4 -8 2.52 0.81
6 -4 8 3.4 0.75
7 3 -8 3.17 1.19
-7 -3 8 4.41 0.63
6 3 -8 1.76 0.8
-6 -3 8 1.68 0.38
-5 -3 8 18.72 0.98
-5 -3 8 20.1 1.23
-4 -3 8 20.97 1.24
-4 -3 8 20.32 0.97
-3 -3 8 1.91 0.44
-3 -3 8 1.36 0.26
-2 -3 8 6.94 0.69
-2 -3 8 6.86 0.46
-1 -3 8 0.49 0.26
-1 -3 8 0.12 0.11
0 3 -8 5.04 0.51
0 -3 8 3.39 0.59
0 -3 8 4.15 0.28
-1 3 -8 17.22 1.03
1 -3 8 20.24 1.24
-2 3 -8 5.41 0.72
2 -3 8 4.2 0.69
-3 3 -8 21.04 1.34
3 -3 8 22.28 1.45
-4 3 -8 7.44 0.97
4 -3 8 7.7 1.03
-5 3 -8 -0.54 0.4
5 -3 8 0.35 0.43
-6 3 -8 8.04 1.17
6 -3 8 9.47 1.25
-7 3 -8 0.92 0.71
7 -3 8 2.46 0.71
-7 -2 8 3.15 0.56
6 2 -8 14.69 1.78
-6 -2 8 12.06 0.83
-5 -2 8 33.05 1.38
-5 -2 8 33.77 1.63
-4 -2 8 13.02 0.91
-4 -2 8 13.82 0.76
-3 -2 8 -0.03 0.15
-3 -2 8 0.14 0.2
-2 -2 8 14.69 0.97
-2 -2 8 15.85 0.71
-1 -2 8 27.49 1.4
-1 -2 8 27.8 0.96
0 -2 8 29.65 1.53
0 -2 8 31.8 0.98
-1 2 -8 7.46 0.65
1 -2 8 10.26 0.84
-2 2 -8 12.04 0.91
2 -2 8 13.34 1.05
-3 2 -8 34.15 1.66
3 -2 8 31.49 1.8
-4 2 -8 32.06 1.71
4 -2 8 27.91 1.73
-5 2 -8 17.47 1.39
5 -2 8 18.08 1.43
-6 2 -8 13.08 1.3
6 -2 8 14.06 1.35
-7 2 -8 2.74 0.85
7 -2 8 3.12 0.83
-7 -1 8 0.33 0.29
-6 -1 8 24.71 1.2
-5 -1 8 22.62 1.21
-5 -1 8 22.99 1.08
-4 -1 8 13.8 0.78
-4 -1 8 16.5 0.96
-3 -1 8 4.91 0.49
-3 -1 8 4.95 0.6
-2 -1 8 31.96 1.48
-2 -1 8 32.17 1.18
-1 -1 8 68.3 2.03
-1 -1 8 72.46 2.65
0 -1 8 166.36 4.31
0 -1 8 172.56 5.55
1 -1 8 1.03 0.39
1 -1 8 1.24 0.17
-2 1 -8 0.54 0.31
2 -1 8 -0.01 0.33
-3 1 -8 0.62 0.43
3 -1 8 -0.12 0.36
-4 1 -8 2.19 0.59
4 -1 8 1.66 0.62
-5 1 -8 28.19 1.61
5 -1 8 26.4 1.82
-6 1 -8 3.24 0.72
6 -1 8 2.3 0.81
-7 1 -8 0.09 0.49
7 -1 8 1.6 0.7
-8 1 -8 3.49 0.92
8 -1 8 3.38 0.96
-8 0 8 0.45 0.27
-7 0 8 5.55 0.69
-6 0 8 8.57 0.69
5 0 -8 3.21 0.73
-5 0 8 2.57 0.45
-4 0 8 3.67 0.49
-4 0 8 3.05 0.46
-3 0 8 4.48 0.54
-3 0 8 3.98 0.53
-2 0 8 0.13 0.32
-2 0 8 0.19 0.18
-1 0 8 9.8 0.67
-1 0 8 9.71 0.72
0 0 8 65.24 1.95
0 0 8 65.03 2.5
1 0 8 2.33 0.33
1 0 8 1.54 0.47
2 0 8 11.26 1
2 0 8 11.75 0.52
3 0 8 21.45 1.48
-4 0 -8 95.96 3.45
4 0 8 98.2 3.98
-5 0 -8 6.84 0.87
5 0 8 7.64 1.25
-6 0 -8 23.92 1.54
6 0 8 27.5 2.02
-7 0 -8 30.43 1.89
7 0 8 31.68 2.29
-8 0 -8 5.53 1.02
8 0 8 7.04 1.39
-7 1 8 6.74 0.74
-6 1 8 9.6 0.76
-5 1 8 0.87 0.39
-4 1 8 9.67 0.81
-4 1 8 8.57 0.61
-3 1 8 1.38 0.3
-3 1 8 0.77 0.42
-2 1 8 0.1 0.41
-2 1 8 0.34 0.2
-1 1 8 54.4 2.09
-1 1 8 55.42 1.86
0 1 8 1.43 0.37
0 1 8 1.08 0.36
1 1 8 5.93 0.52
1 1 8 6.63 0.8
2 1 8 42.75 2.1
2 1 8 45.45 1.38
3 1 8 35.23 1.09
3 1 8 33.56 1.97
4 1 8 37.95 2.23
5 1 8 3.38 0.97
6 1 8 8.26 1.4
7 1 8 9.85 1.67
8 1 8 3.01 1.14
-7 2 8 0.7 0.34
-6 2 8 4.05 0.6
-5 2 8 3.05 0.57
-4 2 8 0.31 0.42
-3 2 8 25.19 1.09
-3 2 8 24.84 1.28
-2 2 8 15.11 0.81
-2 2 8 16.64 1
-1 2 8 2.73 0.42
-1 2 8 3.39 0.56
0 2 8 51.13 1.73
0 2 8 51.71 2.07
1 2 8 6.98 0.52
1 2 8 5.61 0.8
2 2 8 41.83 2.15
2 2 8 45.36 1.41
3 2 8 70.83 1.99
3 2 8 68.77 3.14
4 2 8 6.75 1.18
5 2 8 8.78 1.41
6 2 8 44.73 2.91
7 2 8 8.61 1.63
8 2 8 2.72 1.35
-7 3 8 8.59 0.92
-6 3 8 4.96 0.72
-5 3 8 15.72 1.12
-4 3 8 17.36 1.16
-3 3 8 93.12 3.06
-3 3 8 95.83 3.02
-2 3 8 89.58 2.94
-2 3 8 91.95 2.92
-1 3 8 86.45 2.94
-1 3 8 88.01 2.73
0 3 8 2.59 0.42
0 3 8 3.54 0.53
1 3 8 36.98 1.31
1 3 8 35.1 1.75
2 3 8 134.19 3.62
2 3 8 135.12 4.87
3 3 8 15.65 1.47
3 3 8 15.66 0.71
4 3 8 0.01 0.74
4 3 8 0.49 0.19
5 3 8 10.75 1.69
6 3 8 26.07 2.28
7 3 8 1.97 1.09
8 3 8 10.53 1.99
-7 4 8 4.73 0.75
-6 4 8 37.55 1.79
-5 4 8 0.91 0.59
-5 4 8 1.32 0.36
-4 4 8 2.21 0.62
-3 4 8 53 2.12
-2 4 8 36.55 1.34
-2 4 8 36.76 1.59
-1 4 8 79.37 2.66
-1 4 8 78.02 2.52
0 4 8 26.7 1.36
0 4 8 27.79 1.16
1 4 8 26.58 1.54
1 4 8 28.59 1.13
2 4 8 37.53 1.32
2 4 8 36.66 2.06
3 4 8 27.35 1.08
3 4 8 25.91 1.91
4 4 8 0.81 0.91
4 4 8 1.46 0.3
5 4 8 20.26 1.98
5 4 8 20.9 0.97
6 4 8 0.6 1
7 4 8 2.9 1.37
8 4 8 6.97 1.86
-7 5 8 10.36 1.09
-6 5 8 3.27 0.75
-5 5 8 1.34 0.39
-5 5 8 1.15 0.61
-4 5 8 1 0.62
-3 5 8 6.17 0.87
-2 5 8 11.78 1.05
-1 5 8 5.7 0.49
-1 5 8 6.09 0.7
0 5 8 33.96 1.58
0 5 8 32.18 1.35
1 5 8 6.87 0.58
1 5 8 7.43 1.01
2 5 8 10.54 0.67
2 5 8 10.85 1.3
3 5 8 56.49 2.94
3 5 8 57.22 1.9
4 5 8 39.94 1.49
4 5 8 37.56 2.55
5 5 8 41.48 1.56
5 5 8 36.13 2.67
6 5 8 9.44 1.73
7 5 8 0.94 1.14
8 5 8 4.47 1.72
-6 6 8 5.21 0.93
-6 6 8 4.6 0.77
-5 6 8 23.1 1.36
-5 6 8 23.1 1.52
-4 6 8 38.72 1.91
-3 6 8 25.91 1.43
-1 6 8 23.69 1.22
0 6 8 72.28 2.39
0 6 8 73.98 2.79
1 6 8 58.71 2.69
1 6 8 62.36 2.06
2 6 8 4.14 1.02
2 6 8 3.78 0.48
3 6 8 23.32 1.1
3 6 8 29.64 2.21
4 6 8 22.27 1.09
4 6 8 23.68 2.1
5 6 8 27.58 2.49
5 6 8 26.91 1.25
6 6 8 12.97 2.09
7 6 8 1.09 1.32
8 6 8 -0.18 1.21
-6 7 8 0.2 0.39
-6 7 8 0 0.56
-5 7 8 3.75 0.66
-5 7 8 2.28 0.79
-4 7 8 24.75 1.57
-3 7 8 21.12 1.32
-2 7 8 7.22 0.85
-1 7 8 1.94 0.49
0 7 8 -0.19 0.27
0 7 8 -0.13 0.46
1 7 8 14.88 0.88
1 7 8 14.37 1.36
2 7 8 0.98 0.87
2 7 8 1.16 0.34
3 7 8 9.39 1.5
3 7 8 9.99 0.72
4 7 8 56.99 2.1
4 7 8 60.48 3.4
5 7 8 6.06 0.69
5 7 8 3.38 1.28
6 7 8 0.46 1.17
7 7 8 -0.13 1.12
8 7 8 -1.5 1.36
-5 8 8 2.92 0.62
-5 8 8 1.49 0.7
-4 8 8 6.27 0.97
-3 8 8 35.91 1.78
-2 8 8 33.09 1.59
-1 8 8 10.41 0.91
0 8 8 19.07 1.09
1 8 8 75.98 3.34
1 8 8 75.87 2.56
2 8 8 126.65 3.82
2 8 8 125.68 5
3 8 8 14.46 1.8
3 8 8 13.72 0.89
4 8 8 37.29 2.66
4 8 8 35.78 1.59
5 8 8 0.83 0.34
5 8 8 0.52 0.99
7 8 8 16.35 2.48
8 8 8 2.65 1.59
-5 9 8 -0.66 0.68
-5 9 8 0.87 0.42
-4 9 8 5.08 0.9
-3 9 8 -0.02 0.57
-2 9 8 4.49 0.77
-1 9 8 12.08 1.01
0 9 8 7.89 0.84
1 9 8 5.75 0.74
2 9 8 11.96 1.59
2 9 8 9.58 0.8
3 9 8 6.96 1.46
3 9 8 6.63 0.76
4 9 8 40.19 1.75
4 9 8 39.3 2.92
5 9 8 11.36 2.03
5 9 8 13.42 0.98
6 9 8 0.46 1.23
7 9 8 0.98 1.36
-4 10 8 5.65 0.98
-3 10 8 -0.29 0.57
-2 10 8 2.9 0.67
-1 10 8 -0.01 0.45
0 10 8 20.97 1.28
1 10 8 6.01 0.75
2 10 8 4.86 0.72
2 10 8 4.66 1.19
3 10 8 9.02 1.57
3 10 8 7.07 0.8
4 10 8 17.73 2.31
4 10 8 20.28 1.22
5 10 8 5.74 1.69
5 10 8 7.16 0.85
6 10 8 -0.04 1.31
6 10 8 2.3 0.51
7 10 8 2.43 1.51
-3 11 8 -0.03 0.62
-2 11 8 0.7 0.6
-1 11 8 26.41 1.57
0 11 8 11.93 1.01
1 11 8 3.21 0.6
2 11 8 2.48 0.54
3 11 8 3.1 1.28
3 11 8 2.72 0.59
4 11 8 7.6 0.88
4 11 8 6.82 1.56
5 11 8 5.73 1.71
5 11 8 4.23 0.72
6 11 8 8.32 1
6 11 8 7.61 1.92
-2 12 8 2.22 0.79
-1 12 8 12.3 1.26
0 12 8 4.77 0.79
1 12 8 9.14 1.01
2 12 8 14.76 1.14
3 12 8 10.72 1.08
4 12 8 0.93 1.25
4 12 8 2.71 0.64
5 12 8 6.23 1.68
5 12 8 6.97 0.9
0 13 8 2.23 0.64
1 13 8 6.37 0.9
2 13 8 16.32 1.26
3 13 8 7.96 1.01
4 13 8 6.49 0.89
-2 -9 9 14.28 1.31
-1 -9 9 1.23 0.55
0 -9 9 9.98 1.25
-4 -8 9 -0.06 0.33
-3 -8 9 11.36 1.34
-2 -8 9 15.2 1.33
-1 -8 9 3.01 0.7
0 -8 9 4.4 0.84
1 -8 9 3.72 0.76
2 -8 9 14.55 1.3
-5 -7 9 1.62 0.53
-4 -7 9 0.43 0.38
-3 -7 9 -0.05 0.34
-2 -7 9 4.88 0.83
-1 -7 9 9.02 1.13
0 -7 9 0.65 0.4
1 -7 9 8.24 1.09
-2 7 -9 6.18 1.05
2 -7 9 8.95 1.1
-3 7 -9 6.39 1.02
3 -7 9 6.99 1.02
-4 7 -9 18.46 1.63
4 -7 9 21.74 1.55
6 6 -9 12.1 1.91
-5 -6 9 15.47 1.28
-4 -6 9 3.48 0.7
-3 -6 9 17.3 1.31
-2 -6 9 6.74 0.93
-1 -6 9 0.3 0.34
0 -6 9 25.48 1.6
1 -6 9 1.57 0.5
-2 6 -9 1.91 0.6
2 -6 9 1.34 0.49
-3 6 -9 0.23 0.54
3 -6 9 0.74 0.41
-4 6 -9 4.86 0.94
4 -6 9 5.55 0.94
-5 6 -9 12.07 1.41
5 -6 9 11.48 1.17
6 5 -9 0.59 0.66
-6 -5 9 0.19 0.26
-5 -5 9 2.2 0.57
-5 -5 9 3.66 0.53
-4 -5 9 5.52 0.59
-4 -5 9 4.62 0.76
-3 -5 9 19.27 0.93
-3 -5 9 20.96 1.36
-2 -5 9 1.85 0.49
-1 -5 9 13.02 1.06
0 -5 9 27.84 1.63
-1 5 -9 73.22 2.76
1 -5 9 73.59 3.1
-2 5 -9 19.33 1.3
2 -5 9 19.41 1.37
-3 5 -9 3.18 0.7
3 -5 9 1.82 0.58
-4 5 -9 15.37 1.36
4 -5 9 13.63 1.23
-5 5 -9 7.3 1.18
5 -5 9 9.05 1.19
7 4 -9 1.58 0.97
6 4 -9 8.94 1.54
-6 -4 9 8.54 0.85
-5 -4 9 2.33 0.58
-5 -4 9 1.5 0.38
-4 -4 9 25.55 1.52
-4 -4 9 26.37 1.17
-3 -4 9 49.31 1.69
-3 -4 9 47.61 2.23
-2 -4 9 12.1 0.99
-2 -4 9 11.54 0.63
-1 -4 9 23.05 0.88
-1 -4 9 22.5 1.39
0 -4 9 25.16 1.5
-1 4 -9 37.4 1.66
1 -4 9 36.35 1.91
-2 4 -9 20.82 1.29
2 -4 9 19.06 1.36
-3 4 -9 49.24 2.25
3 -4 9 47.44 2.37
-4 4 -9 7.83 1.05
4 -4 9 9.07 1.15
-5 4 -9 1.02 0.65
5 -4 9 1.21 0.55
-6 4 -9 -0.26 0.64
6 -4 9 0.98 0.53
-7 -3 9 8.64 0.89
6 3 -9 3.4 1.01
-6 -3 9 4.18 0.58
-5 -3 9 16.62 1.17
-5 -3 9 16.73 0.94
-4 -3 9 27.51 1.19
-4 -3 9 27.82 1.53
-3 -3 9 20.3 0.93
-3 -3 9 19.64 1.25
-2 -3 9 63.09 1.97
-2 -3 9 65.13 2.64
-1 -3 9 6.19 0.78
-1 -3 9 5.87 0.39
0 -3 9 10.96 0.94
-1 3 -9 6.81 0.66
1 -3 9 6.04 0.84
-2 3 -9 18.37 1.17
2 -3 9 19.6 1.33
-3 3 -9 77.92 3.02
3 -3 9 77.16 3.25
-4 3 -9 10.06 1.15
4 -3 9 12.3 1.16
-5 3 -9 1 0.62
5 -3 9 1.05 0.49
-6 3 -9 5.14 1.05
6 -3 9 6.4 1.07
-7 3 -9 2.64 0.9
7 -3 9 4.15 0.87
-7 -2 9 1.35 0.39
-6 -2 9 3.78 0.56
-5 -2 9 12.29 0.94
-5 -2 9 11.81 0.79
-4 -2 9 2.48 0.52
-4 -2 9 3.02 0.44
-3 -2 9 4.45 0.65
-3 -2 9 3.71 0.44
-2 -2 9 2.39 0.51
-2 -2 9 2.43 0.33
-1 -2 9 1.09 0.36
-1 -2 9 1.18 0.22
0 -2 9 0.39 0.13
0 -2 9 0.29 0.28
1 -2 9 5.78 0.82
-2 2 -9 11.9 0.9
2 -2 9 10.07 0.99
-3 2 -9 1.01 0.47
3 -2 9 1.19 0.49
-4 2 -9 1.4 0.56
4 -2 9 0.85 0.53
-5 2 -9 0.78 0.51
5 -2 9 0.89 0.53
-6 2 -9 3.79 0.88
6 -2 9 3.77 0.87
-7 2 -9 2.29 0.75
7 -2 9 3.12 0.83
-7 -1 9 0.76 0.35
-6 -1 9 12.47 0.86
-5 -1 9 25.88 1.19
-5 -1 9 22.59 1.28
-4 -1 9 15.55 0.85
-4 -1 9 15.3 0.99
-3 -1 9 26.52 1.38
-3 -1 9 28.09 1.14
-2 -1 9 22.25 1.22
-2 -1 9 21.7 0.94
-1 -1 9 27.84 1.43
-1 -1 9 28.49 1.04
0 -1 9 145.55 4.92
0 -1 9 143.04 3.75
1 -1 9 38.7 1.18
2 -1 9 111.24 4.14
-3 1 -9 32.01 1.57
-4 1 -9 3.41 0.65
4 -1 9 4.32 0.82
-5 1 -9 54.1 2.45
5 -1 9 54.79 2.81
-6 1 -9 3.96 0.84
6 -1 9 2.94 0.87
-7 1 -9 2.93 0.78
7 -1 9 6.18 1.15
-7 0 9 4.28 0.63
-6 0 9 9.92 0.79
-5 0 9 23.66 1.16
-5 0 9 20.6 1.25
-4 0 9 4.87 0.61
-4 0 9 7.3 0.71
-3 0 9 10.17 0.76
-3 0 9 9.87 0.74
-2 0 9 0.09 0.3
-2 0 9 0.01 0.16
-1 0 9 8.33 0.7
-1 0 9 7.42 0.63
0 0 9 39.94 1.79
0 0 9 35.66 1.31
1 0 9 1.79 0.34
1 0 9 1.63 0.46
2 0 9 -0.07 0.31
3 0 9 9.98 1.17
4 0 9 2.7 0.74
-5 0 -9 10.7 1.04
5 0 9 9.89 1.43
-6 0 -9 1.76 0.58
6 0 9 0.68 0.62
7 0 9 1.54 0.83
8 0 9 0.91 0.88
-7 1 9 2.28 0.5
-6 1 9 5.9 0.69
-5 1 9 10.58 0.85
-4 1 9 19.44 1.02
-4 1 9 19.82 1.12
-3 1 9 0.12 0.19
-3 1 9 -0.05 0.4
-2 1 9 0.09 0.17
-2 1 9 0.06 0.38
-1 1 9 68.72 2.21
-1 1 9 65.55 2.52
0 1 9 8.24 0.68
0 1 9 7 0.71
1 1 9 21.4 1.31
1 1 9 20.83 0.95
2 1 9 28.04 1.66
2 1 9 31.08 1.11
3 1 9 46.3 2.36
4 1 9 42.63 2.39
5 1 9 27.17 2.05
6 1 9 38.78 2.59
7 1 9 13 1.83
8 1 9 16.42 2.15
-7 2 9 1.68 0.44
-6 2 9 5.57 0.71
-5 2 9 7.39 0.83
-4 2 9 1.6 0.53
-3 2 9 2.49 0.59
-3 2 9 2.75 0.41
-2 2 9 4.82 0.48
-2 2 9 5.89 0.74
-1 2 9 0.66 0.45
-1 2 9 0.43 0.25
0 2 9 7.69 0.71
0 2 9 5.97 0.73
1 2 9 0.17 0.34
1 2 9 0.68 0.36
2 2 9 0.71 0.5
2 2 9 2 0.36
3 2 9 48.65 1.53
3 2 9 51.37 2.55
4 2 9 0.37 0.64
5 2 9 11.19 1.58
6 2 9 54.97 3.22
7 2 9 16.07 2.06
8 2 9 10.71 1.84
-7 3 9 7.14 0.85
-6 3 9 0.06 0.35
-5 3 9 0.53 0.53
-4 3 9 0.55 0.49
-3 3 9 11.21 1.05
-2 3 9 32.89 1.38
-2 3 9 34.6 1.59
-1 3 9 33.61 1.47
-1 3 9 34.23 1.48
0 3 9 6.4 0.67
0 3 9 5.25 0.65
1 3 9 8.35 0.65
1 3 9 8.8 0.87
2 3 9 51.98 2.51
2 3 9 56.11 1.75
3 3 9 5.02 0.44
3 3 9 3.01 0.87
4 3 9 0.64 0.23
4 3 9 0.66 0.73
5 3 9 1.89 0.95
6 3 9 12.96 1.95
7 3 9 2.72 1.17
8 3 9 5.7 1.52
-7 4 9 4.1 0.72
-6 4 9 28.53 1.61
-5 4 9 2.73 0.68
-4 4 9 4.92 0.84
-3 4 9 29.84 1.53
-2 4 9 36.65 1.44
-2 4 9 38.78 1.69
-1 4 9 64.54 2.25
-1 4 9 63.74 2.33
0 4 9 33.46 1.36
0 4 9 32.12 1.54
1 4 9 107.74 3.9
1 4 9 103.34 3.07
2 4 9 107.36 3.07
2 4 9 107.01 4.17
3 4 9 48.43 2.64
3 4 9 52.08 1.69
4 4 9 16.49 0.82
4 4 9 16.7 1.93
5 4 9 27.33 2.22
6 4 9 -0.45 0.81
7 4 9 7.74 1.64
8 4 9 4.64 1.54
-6 5 9 8.77 1.09
-5 5 9 17.91 1.32
-5 5 9 20.41 1.18
-4 5 9 34.79 1.8
-3 5 9 5.33 0.87
-2 5 9 19.92 1.26
-1 5 9 23.17 1.08
-1 5 9 21.82 1.19
0 5 9 42.23 1.86
0 5 9 42.53 1.66
1 5 9 18.16 1.34
1 5 9 17.72 0.93
2 5 9 9.39 1.27
2 5 9 8.13 0.62
3 5 9 5.42 1.12
3 5 9 6.2 0.54
4 5 9 53.26 1.83
4 5 9 52.44 2.99
5 5 9 51.1 3.21
5 5 9 55.09 1.9
6 5 9 7.56 1.61
7 5 9 0.79 1.15
8 5 9 1.85 1.31
-6 6 9 0.36 0.64
-5 6 9 2.9 0.79
-5 6 9 3.76 0.62
-4 6 9 8.79 1.09
-3 6 9 0.8 0.54
-2 6 9 7.72 0.86
-1 6 9 2.58 0.55
0 6 9 21.44 1.14
0 6 9 24.61 1.34
1 6 9 13.89 0.87
1 6 9 12.88 1.28
2 6 9 0.11 0.27
2 6 9 -0.42 0.69
3 6 9 2.02 0.99
3 6 9 3.19 0.48
4 6 9 22.85 2.14
4 6 9 19.57 1.02
5 6 9 42.88 2.95
5 6 9 37.7 1.57
6 6 9 17.41 2.37
6 6 9 16.5 0.97
7 6 9 8.04 1.74
8 6 9 3 1.58
-6 7 9 1.82 0.59
-6 7 9 2.99 0.89
-5 7 9 8.85 1.17
-5 7 9 9.9 0.9
-4 7 9 20.05 1.49
-3 7 9 31.43 1.67
-2 7 9 24.16 1.41
-1 7 9 55.47 2.12
0 7 9 111.44 3.9
0 7 9 107.67 3.39
1 7 9 20.97 1.57
1 7 9 22.73 1.16
2 7 9 78.22 3.54
2 7 9 78.87 2.59
3 7 9 3.88 0.55
3 7 9 4.39 1.2
4 7 9 0.57 1.03
4 7 9 0.85 0.33
5 7 9 22.26 2.25
5 7 9 23.56 1.21
6 7 9 1.62 0.4
6 7 9 0.94 1.22
7 7 9 3.05 1.53
8 7 9 1.56 1.45
-5 8 9 5.11 0.8
-5 8 9 3.34 0.84
-4 8 9 -0.3 0.62
-3 8 9 13.56 1.17
-2 8 9 12.34 1.14
-1 8 9 5.54 0.8
0 8 9 -0.22 0.31
1 8 9 5.84 1.02
1 8 9 4.5 0.62
2 8 9 23.72 1.91
2 8 9 22.82 1.21
3 8 9 2.37 1.08
3 8 9 1.48 0.42
4 8 9 22.79 1.21
4 8 9 21.34 2.12
5 8 9 3.55 1.31
5 8 9 5.26 0.69
6 8 9 -0.74 1.1
6 8 9 0.46 0.32
7 8 9 0.88 1.46
7 8 9 1.43 0.38
-5 9 9 2.24 0.9
-5 9 9 2.91 0.6
-4 9 9 7.88 1.17
-3 9 9 5.14 0.89
-2 9 9 7.52 0.92
-1 9 9 23.37 1.36
0 9 9 3.67 0.65
1 9 9 0.88 0.42
2 9 9 0.01 0.28
2 9 9 0.21 0.83
3 9 9 5.65 0.73
3 9 9 4.29 1.27
4 9 9 18.16 2.28
4 9 9 17.75 1.11
5 9 9 9.25 1.88
5 9 9 9.56 0.82
6 9 9 1.09 0.4
6 9 9 0.48 1.23
7 9 9 0.18 1.4
7 9 9 1.09 0.38
-4 10 9 1.97 0.88
-3 10 9 2.24 0.75
-2 10 9 18.28 1.31
-1 10 9 0.35 0.51
0 10 9 28.83 1.54
1 10 9 14.59 1.07
2 10 9 0.04 0.34
3 10 9 34.45 2.58
3 10 9 35.74 1.69
4 10 9 25.59 1.39
4 10 9 26.32 2.48
5 10 9 12.7 0.98
5 10 9 14.6 2.18
6 10 9 2.32 0.56
6 10 9 3.4 1.49
7 10 9 2.89 1.62
7 10 9 6.88 0.87
-3 11 9 -0.38 0.6
-2 11 9 0.27 0.6
-1 11 9 4.32 0.8
0 11 9 2.16 0.62
1 11 9 0.55 0.41
2 11 9 1.38 0.51
3 11 9 0.08 1
3 11 9 0.71 0.39
4 11 9 2.34 1.33
5 11 9 0.14 1.19
5 11 9 0.01 0.31
6 11 9 0.91 0.43
6 11 9 1.58 1.57
-2 12 9 2.52 0.82
-1 12 9 5.29 0.98
0 12 9 3.72 0.78
1 12 9 6.1 0.86
2 12 9 8.59 0.97
3 12 9 14.23 1.14
4 12 9 3.28 1.42
4 12 9 4.99 0.81
5 12 9 7.41 1.91
5 12 9 5.83 0.87
0 13 9 1.58 0.7
1 13 9 5.3 0.87
2 13 9 7.45 0.99
3 13 9 1.2 0.51
-2 -8 10 7.67 1.13
-1 -8 10 9.18 1.24
0 -8 10 8.09 1.19
1 -8 10 5.39 0.97
-4 -7 10 0.43 0.41
-3 -7 10 0.72 0.46
-2 -7 10 7.75 1.08
-1 -7 10 12.21 1.17
0 -7 10 0.36 0.37
1 -7 10 2.81 0.71
2 -7 10 0.77 0.44
-3 7 -10 5.52 1.01
3 -7 10 6.23 1.03
-5 -6 10 1.49 0.54
-4 -6 10 0.02 0.35
-3 -6 10 6.52 0.97
-2 -6 10 3.72 0.76
-1 -6 10 0.17 0.32
0 -6 10 34.79 2
1 -6 10 10.04 1.02
2 -6 10 0.29 0.36
-3 6 -10 2.26 0.74
3 -6 10 3.21 0.77
-4 6 -10 1.52 0.76
4 -6 10 1.42 0.56
-5 -5 10 3.97 0.77
-5 -5 10 5.18 0.63
-4 -5 10 10.75 1.04
-4 -5 10 9.61 0.7
-3 -5 10 7.13 0.96
-3 -5 10 8.65 0.62
-2 -5 10 0.77 0.43
-1 -5 10 0.36 0.37
0 -5 10 4.72 0.8
1 -5 10 31.59 1.87
-2 5 -10 4.54 0.76
2 -5 10 2.72 0.65
-3 5 -10 0.23 0.49
3 -5 10 0.75 0.45
-4 5 -10 4.08 0.89
4 -5 10 5.79 0.98
-5 5 -10 10.07 1.31
5 -5 10 13.61 1.31
6 4 -10 8.34 1.47
-6 -4 10 11.09 0.84
-5 -4 10 -0.31 0.27
-5 -4 10 0.12 0.21
-4 -4 10 23.9 1.13
-4 -4 10 23.58 1.5
-3 -4 10 13.36 0.76
-3 -4 10 14 1.11
-2 -4 10 2.83 0.6
-2 -4 10 3.24 0.39
-1 -4 10 14.46 1.13
0 -4 10 32.51 1.81
-1 4 -10 17.27 1.07
1 -4 10 17.77 1.3
-2 4 -10 6.03 0.82
2 -4 10 7.07 1.02
-3 4 -10 29.79 1.69
3 -4 10 27.86 1.78
-4 4 -10 8.73 1.1
4 -4 10 12.48 1.22
-5 4 -10 7.2 1.13
5 -4 10 7.42 1.11
6 3 -10 0.8 0.63
-6 -3 10 0.78 0.3
-5 -3 10 3.22 0.66
-5 -3 10 3.8 0.52
-4 -3 10 3.13 0.64
-4 -3 10 1.97 0.36
-3 -3 10 -0.1 0.27
-3 -3 10 0.52 0.23
-2 -3 10 29.46 1.12
-2 -3 10 27.12 1.55
-1 -3 10 24.11 0.93
-1 -3 10 25.64 1.49
0 -3 10 26.4 1.56
1 -3 10 0.01 0.28
-2 3 -10 9.17 0.86
2 -3 10 9.13 1.11
-3 3 -10 55.18 2.37
3 -3 10 53 2.62
-4 3 -10 30.75 1.75
4 -3 10 31.42 1.95
-5 3 -10 8.01 1.12
5 -3 10 8.28 1.18
-6 3 -10 6.19 1.06
6 -3 10 4.77 0.96
-6 -2 10 14.33 0.96
-5 -2 10 21.78 1.11
-5 -2 10 19.61 1.28
-4 -2 10 18.63 0.96
-4 -2 10 18.33 1.19
-3 -2 10 47.68 1.66
-3 -2 10 46.48 2.13
-2 -2 10 72.78 2.92
-2 -2 10 72.84 2.21
-1 -2 10 106.36 3.9
-1 -2 10 105.6 2.92
0 -2 10 82.76 3.29
1 -2 10 11.63 1.04
2 -2 10 30.19 1.77
-3 2 -10 38.12 1.86
3 -2 10 40.49 2.14
-4 2 -10 14.79 1.18
4 -2 10 16.92 1.42
-5 2 -10 4.93 0.87
5 -2 10 5.28 0.99
-6 2 -10 1.9 0.71
6 -2 10 2.27 0.74
-7 2 -10 2.72 0.8
7 -2 10 3.56 0.86
-7 -1 10 3.23 0.58
-6 -1 10 7.14 0.77
-5 -1 10 0.59 0.29
-5 -1 10 -0.17 0.21
-4 -1 10 0.59 0.28
-4 -1 10 0.65 0.32
-3 -1 10 3.61 0.61
-3 -1 10 3.54 0.46
-2 -1 10 0.67 0.33
-2 -1 10 0.42 0.22
-1 -1 10 1.61 0.45
-1 -1 10 1.95 0.32
0 -1 10 7.08 0.44
0 -1 10 6.73 0.87
1 -1 10 48.76 2.28
2 -1 10 4.04 0.72
3 -1 10 1.36 0.54
-4 1 -10 1.72 0.53
4 -1 10 2.23 0.66
-5 1 -10 3.97 0.73
5 -1 10 4.51 0.96
-6 1 -10 1.4 0.59
6 -1 10 2.65 0.82
-7 1 -10 1.01 0.56
7 -1 10 1.39 0.72
-7 0 10 12.57 0.96
-6 0 10 11.72 0.88
-5 0 10 10.38 0.77
-4 0 10 20.45 1.07
-4 0 10 18.69 1.11
-3 0 10 62.08 2.14
-3 0 10 65.08 2.51
-2 0 10 23.99 1.28
-2 0 10 23.4 1.1
-1 0 10 54.55 2.3
-1 0 10 56.12 1.85
0 0 10 52.72 2.24
0 0 10 47.2 1.64
1 0 10 91.5 3.53
1 0 10 92.56 2.58
2 0 10 91.03 3.63
3 0 10 27.37 1.74
4 0 10 58.68 2.9
5 0 10 0.69 0.57
6 0 10 10.05 1.5
7 0 10 7.51 1.39
-7 1 10 1.81 0.45
-6 1 10 5.08 0.67
-5 1 10 6.5 0.76
-4 1 10 36.74 1.64
-4 1 10 37.85 1.63
-3 1 10 10.62 0.88
-3 1 10 9.4 0.73
-2 1 10 0.38 0.25
-2 1 10 0.77 0.42
-1 1 10 24.2 1.2
-1 1 10 24.33 1.32
0 1 10 1.21 0.45
0 1 10 1.08 0.39
1 1 10 15.57 1.14
1 1 10 16.28 0.87
2 1 10 5.69 0.86
3 1 10 5.36 0.99
4 1 10 1.23 0.68
5 1 10 8.22 1.3
6 1 10 6.21 1.29
7 1 10 2.08 0.91
-7 2 10 0.73 0.39
-6 2 10 2.23 0.54
-5 2 10 13 1.01
-4 2 10 20.93 1.29
-3 2 10 18.34 1.23
-3 2 10 19.59 1.03
-2 2 10 20.55 1.08
-2 2 10 18.12 1.2
-1 2 10 0.72 0.51
-1 2 10 0.79 0.31
0 2 10 21.09 1.11
0 2 10 19.3 1.19
1 2 10 7.72 0.71
1 2 10 7.44 0.96
2 2 10 5.76 0.91
2 2 10 6.97 0.61
3 2 10 5.59 1.03
4 2 10 12.1 1.52
5 2 10 3.62 1.08
6 2 10 20.8 2.02
7 2 10 14.05 1.94
8 2 10 7.47 1.53
-7 3 10 5.29 0.75
-6 3 10 1.55 0.55
-5 3 10 1.53 0.59
-4 3 10 0 0.55
-3 3 10 2.01 0.59
-2 3 10 6.1 0.54
-2 3 10 7.17 0.84
-1 3 10 13.64 0.89
-1 3 10 13.62 1.06
0 3 10 0.17 0.42
0 3 10 0.54 0.34
1 3 10 13.22 1.06
1 3 10 13.65 0.88
2 3 10 83.74 3.54
2 3 10 89.85 2.61
3 3 10 8.28 1.25
3 3 10 8.16 0.6
4 3 10 0.14 0.61
5 3 10 19.26 1.91
6 3 10 12.38 1.85
7 3 10 13.52 1.96
8 3 10 11.88 1.94
-6 4 10 22.92 1.43
-5 4 10 0.4 0.57
-4 4 10 -0.19 0.56
-3 4 10 2.51 0.67
-2 4 10 10.15 0.99
-1 4 10 1.89 0.39
-1 4 10 1.8 0.6
0 4 10 0.56 0.33
0 4 10 0.26 0.41
1 4 10 13.26 0.86
1 4 10 14.21 1.15
2 4 10 30.95 1.27
2 4 10 33.31 1.93
3 4 10 36.86 1.36
3 4 10 35.84 2.26
4 4 10 17.66 1.93
4 4 10 15.85 0.81
5 4 10 20.57 1.94
6 4 10 0.39 0.97
7 4 10 4.81 1.46
8 4 10 2.13 1.34
-6 5 10 -0.09 0.59
-5 5 10 10.75 1.17
-4 5 10 8.48 1.1
-3 5 10 0.66 0.63
-2 5 10 24.39 1.4
-1 5 10 5.34 0.77
-1 5 10 5.54 0.55
0 5 10 31.71 1.56
0 5 10 31.18 1.4
1 5 10 13.29 1.16
1 5 10 14.45 0.91
2 5 10 0.74 0.61
2 5 10 1.27 0.38
3 5 10 0.98 0.74
3 5 10 0.55 0.28
4 5 10 37.22 2.48
4 5 10 37.04 1.44
5 5 10 24.53 2.17
6 5 10 13.75 1.98
7 5 10 1.77 1.23
8 5 10 2.49 1.49
-6 6 10 1.05 0.7
-5 6 10 23.17 1.62
-4 6 10 34.65 1.89
-3 6 10 27.99 1.61
-2 6 10 11.95 1.04
-1 6 10 23.9 1.35
0 6 10 67.13 2.37
0 6 10 66.56 2.64
1 6 10 93.66 2.98
1 6 10 96.1 3.71
2 6 10 6.53 1.12
2 6 10 8.92 0.68
3 6 10 -0.13 0.66
3 6 10 0.23 0.25
4 6 10 15.35 1.89
4 6 10 17.91 0.97
5 6 10 11.27 1.77
5 6 10 11.61 0.79
6 6 10 13.61 2.07
7 6 10 9.41 1.86
8 6 10 3.38 1.51
-5 7 10 0.31 0.63
-4 7 10 3.82 0.91
-3 7 10 -0.27 0.5
-2 7 10 1.79 0.64
-1 7 10 0.5 0.45
0 7 10 17.18 1.12
1 7 10 27.57 1.73
1 7 10 25.59 1.29
2 7 10 42.74 2.48
2 7 10 45.8 1.77
3 7 10 7.19 0.75
3 7 10 5.4 1.24
4 7 10 0.77 0.35
4 7 10 0.49 0.95
5 7 10 15.38 2.07
5 7 10 18.45 1.05
6 7 10 10.39 1.93
6 7 10 11.2 0.84
7 7 10 6.65 1.85
-5 8 10 6.27 1.12
-5 8 10 9.2 0.88
-4 8 10 2.05 0.82
-3 8 10 4.14 0.9
-2 8 10 10.93 1.16
-1 8 10 13.02 1.04
0 8 10 0.8 0.45
1 8 10 30.79 1.89
1 8 10 30.65 1.49
2 8 10 16.2 1
2 8 10 16.13 1.62
3 8 10 5.55 1.31
3 8 10 6.7 0.77
4 8 10 60.9 2.24
4 8 10 55.12 3.38
5 8 10 0.01 1.03
5 8 10 0.31 0.31
6 8 10 6.18 0.76
6 8 10 5.25 1.67
7 8 10 6.14 1.87
-4 9 10 14.81 1.55
-3 9 10 6.12 1.05
-2 9 10 13.39 1.32
-1 9 10 54.79 2.3
0 9 10 4.53 0.74
1 9 10 12.59 1
2 9 10 0.08 0.76
2 9 10 0.17 0.35
3 9 10 4.66 1.3
3 9 10 5.88 0.74
4 9 10 6.71 1.48
4 9 10 6.43 0.77
5 9 10 4.68 0.7
5 9 10 1.51 1.31
6 9 10 0.53 0.35
6 9 10 -0.34 1.03
7 9 10 0.09 1.38
7 9 10 1.59 0.48
-3 10 10 1.65 0.82
-2 10 10 18.99 1.46
-1 10 10 -0.25 0.5
0 10 10 18.23 1.24
1 10 10 -0.09 0.38
2 10 10 7.48 0.89
3 10 10 10.78 1.75
3 10 10 7.84 0.89
4 10 10 10.1 1.02
4 10 10 11.93 1.93
5 10 10 3.38 1.51
5 10 10 5.28 0.76
6 10 10 0.49 0.41
6 10 10 -0.77 1.26
-2 11 10 2.66 0.83
-1 11 10 22.05 1.54
0 11 10 10.01 1.14
1 11 10 1.49 0.55
2 11 10 16.15 1.15
3 11 10 11.96 1
4 11 10 9.47 1.88
4 11 10 8.77 0.97
5 11 10 1.46 0.52
5 11 10 1.64 1.28
-1 12 10 0.71 0.69
0 12 10 0.43 0.55
1 12 10 0.34 0.52
2 12 10 3.48 0.68
3 12 10 6.13 0.92
4 12 10 1.21 0.48
-2 -7 11 3.32 0.76
-1 -7 11 25.91 1.83
0 -7 11 5.94 1
1 -7 11 8.29 1.19
-4 -6 11 0.44 0.45
-3 -6 11 2.67 0.69
-2 -6 11 1.86 0.63
-1 -6 11 0.74 0.45
0 -6 11 43.07 2.39
1 -6 11 14.48 1.3
2 -6 11 3.27 0.77
-3 6 -11 7.17 1.1
3 -6 11 7.06 1.11
-5 -5 11 0.74 0.3
-5 -5 11 0.17 0.39
-4 -5 11 4.36 0.56
-4 -5 11 5.1 0.88
-3 -5 11 5.09 0.88
-2 -5 11 0.71 0.44
-1 -5 11 0.3 0.36
0 -5 11 0.09 0.36
1 -5 11 6.11 0.98
2 -5 11 1.42 0.56
-3 5 -11 0.74 0.52
3 -5 11 1.24 0.6
-4 5 -11 -0.01 0.51
4 -5 11 0.41 0.48
-5 -4 11 -0.16 0.28
-5 -4 11 0.33 0.27
-4 -4 11 15.06 1.23
-4 -4 11 14.08 0.88
-3 -4 11 9.53 0.66
-3 -4 11 9.15 1.11
-2 -4 11 0.53 0.37
-1 -4 11 1.5 0.52
0 -4 11 16 1.29
1 -4 11 5.97 0.94
-2 4 -11 8.62 0.93
2 -4 11 7.64 1.14
-3 4 -11 16.41 1.27
3 -4 11 18.51 1.49
-4 4 -11 5.95 0.97
4 -4 11 6.87 1.13
-5 4 -11 11.62 1.37
5 -4 11 16.57 1.51
6 3 -11 2.11 0.76
-6 -3 11 0.71 0.35
-5 -3 11 23.77 1.21
-5 -3 11 21.38 1.45
-4 -3 11 10.42 0.73
-4 -3 11 9.03 0.93
-3 -3 11 0.98 0.27
-3 -3 11 0.44 0.34
-2 -3 11 12.59 1.08
-2 -3 11 14.13 0.73
-1 -3 11 11.8 1.04
0 -3 11 24.98 1.58
1 -3 11 0.2 0.34
2 -3 11 4.55 0.84
-3 3 -11 9.6 0.96
3 -3 11 9.47 1.23
-4 3 -11 9.78 1.13
4 -3 11 10.97 1.38
-5 3 -11 6.4 1.02
5 -3 11 5.49 1.04
-6 -2 11 0.71 0.31
-5 -2 11 2.82 0.6
-5 -2 11 2.26 0.44
-4 -2 11 0.81 0.29
-4 -2 11 0.84 0.39
-3 -2 11 0.69 0.25
-3 -2 11 0.29 0.31
-2 -2 11 2.25 0.57
-2 -2 11 1.81 0.31
-1 -2 11 39.3 1.37
-1 -2 11 43.91 2.09
0 -2 11 27.48 1.63
1 -2 11 11.79 1.07
2 -2 11 23.85 1.6
3 -2 11 24.52 1.72
-4 2 -11 20.96 1.38
4 -2 11 20 1.6
-5 2 -11 14.17 1.29
5 -2 11 13.78 1.38
-6 2 -11 4.65 0.92
6 -2 11 6.13 1.12
-6 -1 11 21.8 1.23
-5 -1 11 15.88 0.98
-4 -1 11 5.34 0.6
-4 -1 11 6.08 0.79
-3 -1 11 16.96 1.15
-3 -1 11 17.32 0.9
-2 -1 11 48.65 1.67
-2 -1 11 48.49 2.19
-1 -1 11 103.66 3.84
-1 -1 11 100.29 2.88
0 -1 11 47.86 2.29
1 -1 11 6.72 0.97
2 -1 11 39.8 2.13
3 -1 11 9.54 1.19
4 -1 11 10.97 1.45
5 -1 11 20.81 1.7
6 -1 11 0.8 0.58
-6 0 11 11.53 0.88
-5 0 11 2.82 0.5
-4 0 11 0.3 0.27
-4 0 11 -0.03 0.26
-3 0 11 0.59 0.32
-3 0 11 0.7 0.32
-2 0 11 4.37 0.53
-2 0 11 5.45 0.72
-1 0 11 13.71 0.8
-1 0 11 11.32 0.95
0 0 11 3.06 0.43
0 0 11 3.56 0.62
1 0 11 2.07 0.54
2 0 11 1.82 0.61
3 0 11 11.65 1.37
4 0 11 50.04 2.64
5 0 11 0.3 0.55
6 0 11 7.64 1.33
7 0 11 4.46 1.14
-6 1 11 6.9 0.77
-5 1 11 2.68 0.56
-4 1 11 31.46 1.47
-3 1 11 6.6 0.76
-3 1 11 5.7 0.69
-2 1 11 16.76 1.07
-2 1 11 17.19 1.04
-1 1 11 33.81 1.48
-1 1 11 35.38 1.73
0 1 11 0.69 0.45
0 1 11 1.46 0.47
1 1 11 4.32 0.54
1 1 11 4.02 0.74
2 1 11 0.18 0.41
3 1 11 7.66 1.12
4 1 11 -0.21 0.53
5 1 11 7.21 1.23
6 1 11 5.38 1.2
7 1 11 5.08 1.29
-6 2 11 0.89 0.45
-5 2 11 4.49 0.69
-4 2 11 19.12 1.25
-3 2 11 43.42 1.86
-3 2 11 43.47 1.88
-2 2 11 83.84 2.86
-2 2 11 83.8 3.06
-1 2 11 6.9 0.82
-1 2 11 6.73 0.69
0 2 11 48.93 2.18
0 2 11 49.25 1.87
1 2 11 61.39 2.06
1 2 11 57.78 2.61
2 2 11 55.41 2.61
3 2 11 44.11 2.4
4 2 11 1.22 0.73
5 2 11 0.53 0.62
6 2 11 3.24 1.05
7 2 11 8.77 1.54
-6 3 11 0.48 0.47
-5 3 11 0.25 0.44
-4 3 11 5.07 0.88
-3 3 11 10.28 1.05
-2 3 11 7.09 0.62
-2 3 11 5.97 0.82
-1 3 11 3.71 0.69
-1 3 11 3.51 0.56
0 3 11 12.26 0.97
0 3 11 12.23 0.95
1 3 11 10.23 0.87
1 3 11 9.6 0.96
2 3 11 73.4 2.34
2 3 11 73.77 3.19
3 3 11 1.04 0.65
4 3 11 0.22 0.58
5 3 11 1.95 0.9
6 3 11 0.51 0.87
7 3 11 9.36 1.64
-6 4 11 15.66 1.22
-5 4 11 -0.4 0.45
-4 4 11 2.09 0.68
-3 4 11 5.92 0.92
-2 4 11 5.7 0.88
-1 4 11 0.65 0.31
-1 4 11 -0.18 0.44
0 4 11 0.24 0.47
0 4 11 0.84 0.37
1 4 11 -0.13 0.38
1 4 11 0.51 0.44
2 4 11 7.34 0.71
2 4 11 7.53 1.11
3 4 11 4.58 0.96
3 4 11 5.37 0.58
4 4 11 30.22 2.22
5 4 11 33.5 2.47
6 4 11 2.54 1.1
7 4 11 18.15 2.37
-6 5 11 0.98 0.64
-5 5 11 11.57 1.23
-4 5 11 6.36 0.94
-3 5 11 0.26 0.62
-2 5 11 2.17 0.66
-1 5 11 1.95 0.59
0 5 11 21.21 1.25
0 5 11 22.99 1.32
1 5 11 7.31 0.75
1 5 11 7.69 1
2 5 11 -0.03 0.33
2 5 11 0.1 0.57
3 5 11 2.53 0.83
3 5 11 2.93 0.49
4 5 11 20.01 1.9
4 5 11 19.07 0.97
5 5 11 7.99 1.44
6 5 11 9.04 1.72
7 5 11 0.75 1.08
-5 6 11 2.04 0.87
-4 6 11 4.3 0.86
-3 6 11 17.22 1.41
-2 6 11 0.69 0.61
-1 6 11 13.01 1.04
0 6 11 45.49 1.9
0 6 11 47.89 2.07
1 6 11 56.46 2.6
1 6 11 58.07 2.13
2 6 11 8.97 0.83
2 6 11 8.74 1.22
3 6 11 4.5 1.09
3 6 11 2.92 0.5
4 6 11 18.26 1
4 6 11 19.1 1.93
5 6 11 8.25 1.61
6 6 11 7.69 1.58
7 6 11 4.62 1.48
-5 7 11 3.7 0.91
-4 7 11 10.6 1.21
-3 7 11 16.74 1.35
-2 7 11 5.01 0.86
-1 7 11 3.52 0.75
0 7 11 18.67 1.21
1 7 11 17.52 1.35
1 7 11 16.5 1.09
2 7 11 43.46 1.78
2 7 11 46.13 2.51
3 7 11 26.1 2
3 7 11 24.77 1.25
4 7 11 1.07 0.38
4 7 11 0.7 0.96
5 7 11 10.15 1.72
5 7 11 8.78 0.76
6 7 11 8.56 1.69
7 7 11 6.81 1.83
-4 8 11 1.33 0.74
-3 8 11 0.63 0.63
-2 8 11 4.19 0.87
-1 8 11 0.55 0.51
0 8 11 0.67 0.52
1 8 11 11.52 0.97
2 8 11 3.85 0.65
2 8 11 4.81 1.04
3 8 11 6.09 1.3
3 8 11 6.36 0.75
4 8 11 33.14 1.52
4 8 11 29.26 2.38
5 8 11 0.55 0.97
5 8 11 0.42 0.36
6 8 11 9.68 0.85
6 8 11 11.57 2.01
7 8 11 12.33 2.23
-4 9 11 7.28 1.18
-3 9 11 1.57 0.86
-2 9 11 4.06 0.87
-1 9 11 13.11 1.13
0 9 11 8.85 1.02
1 9 11 19.71 1.25
2 9 11 4.94 1.12
2 9 11 3.52 0.67
3 9 11 28.11 2.26
3 9 11 26.29 1.39
4 9 11 11.4 0.93
4 9 11 10.19 1.76
5 9 11 22.04 1.3
5 9 11 21.89 2.57
6 9 11 4.9 1.55
6 9 11 5.22 0.77
-3 10 11 5.85 1.11
-2 10 11 25.02 1.66
-1 10 11 3.82 0.8
0 10 11 51.19 2.25
1 10 11 8.5 1.03
2 10 11 2.06 0.58
3 10 11 4.19 0.72
3 10 11 4.69 1.24
4 10 11 1.09 0.48
4 10 11 0.49 1.03
5 10 11 -0.61 0.95
5 10 11 -0.21 0.32
6 10 11 0.67 0.41
6 10 11 -0.97 1.26
-2 11 11 0.25 0.72
-1 11 11 17.22 1.45
0 11 11 10.67 1.19
1 11 11 0.57 0.5
2 11 11 9.77 1.09
3 11 11 7.2 0.9
4 11 11 7.34 1.66
4 11 11 8.22 1
5 11 11 -0.14 0.34
5 11 11 -0.49 1.16
0 12 11 3.37 0.82
1 12 11 1.14 0.6
2 12 11 3.67 0.73
3 12 11 8.35 1.01
4 12 11 8.91 1.09
-2 -6 12 0.81 0.48
-1 -6 12 -0.25 0.3
0 -6 12 17.95 1.51
1 -6 12 4.11 0.88
-3 -5 12 3.84 0.81
-2 -5 12 0.78 0.45
-1 -5 12 11.66 1.15
0 -5 12 11.79 1.18
1 -5 12 25 1.79
2 -5 12 24.68 1.81
3 -5 12 2.08 0.72
-4 -4 12 5.8 0.91
-4 -4 12 5.49 0.63
-3 -4 12 1.4 0.54
-2 -4 12 0.42 0.38
-1 -4 12 0.54 0.41
0 -4 12 1.54 0.55
1 -4 12 0.4 0.4
2 -4 12 0.62 0.51
3 -4 12 3.22 0.83
-4 4 -12 2.07 0.65
4 -4 12 2.04 0.7
-5 -3 12 11.74 1.12
-5 -3 12 13.84 0.93
-4 -3 12 5.61 0.63
-4 -3 12 6.73 0.97
-3 -3 12 0.96 0.26
-3 -3 12 0.65 0.38
-2 -3 12 6.87 0.94
-1 -3 12 10.61 1.02
0 -3 12 7.56 1.06
1 -3 12 0.01 0.31
2 -3 12 4.68 0.89
3 -3 12 2.57 0.72
4 -3 12 6.52 1.13
5 -3 12 0.85 0.54
-5 -2 12 8.54 0.74
-5 -2 12 7.46 0.99
-4 -2 12 3.97 0.54
-4 -2 12 4.15 0.74
-3 -2 12 7.3 0.59
-3 -2 12 8.83 1.05
-2 -2 12 0.36 0.34
-2 -2 12 0.73 0.23
-1 -2 12 15.25 1.21
0 -2 12 3.48 0.75
1 -2 12 4.94 0.87
2 -2 12 13.73 1.26
3 -2 12 5.2 0.97
4 -2 12 5.7 1.07
5 -2 12 3.92 0.96
-5 -1 12 1.37 0.38
-4 -1 12 0.72 0.28
-4 -1 12 0.05 0.26
-3 -1 12 0.23 0.3
-3 -1 12 0.35 0.22
-2 -1 12 4.42 0.5
-2 -1 12 3.6 0.66
-1 -1 12 24.3 1.51
-1 -1 12 24.08 1
0 -1 12 22.2 1.49
1 -1 12 29.2 1.79
2 -1 12 61.39 2.91
3 -1 12 20.88 1.58
4 -1 12 18.69 1.57
5 -1 12 35.84 2.36
6 -1 12 6.16 1.18
-6 0 12 8.17 0.86
-5 0 12 11.08 0.84
-4 0 12 4.02 0.67
-4 0 12 5.68 0.66
-3 0 12 3.27 0.61
-3 0 12 3.19 0.5
-2 0 12 10.88 0.92
-2 0 12 11.57 0.78
-1 0 12 24.96 1.49
-1 0 12 25.47 1.11
0 0 12 9.07 0.91
1 0 12 18.48 1.35
2 0 12 0.44 0.39
3 0 12 3.39 0.81
4 0 12 44.67 2.54
5 0 12 9.23 1.41
6 0 12 11.1 1.59
-6 1 12 7.64 0.85
-5 1 12 7.75 0.84
-4 1 12 18.98 1.13
-3 1 12 1.71 0.44
-3 1 12 2.44 0.54
-2 1 12 15.66 1.04
-2 1 12 17.03 1.12
-1 1 12 39.83 1.98
-1 1 12 43.06 1.7
0 1 12 22.93 1.16
0 1 12 23.41 1.45
1 1 12 16.25 1.25
2 1 12 0.06 0.35
3 1 12 1.75 0.62
4 1 12 1.6 0.66
5 1 12 9.06 1.38
6 1 12 1.2 0.7
-6 2 12 2.72 0.6
-5 2 12 4.2 0.71
-4 2 12 -0.37 0.4
-3 2 12 4.17 0.7
-2 2 12 22.62 1.34
-2 2 12 19.63 1.2
-1 2 12 1.41 0.44
-1 2 12 0.93 0.54
0 2 12 16.4 1.18
0 2 12 15.59 1.07
1 2 12 5.48 0.7
1 2 12 5.43 0.86
2 2 12 16.91 1.38
3 2 12 24.82 1.77
4 2 12 1.6 0.66
5 2 12 4.93 1.14
6 2 12 4.63 1.16
7 2 12 8.72 1.57
-6 3 12 3.95 0.75
-5 3 12 4.43 0.79
-4 3 12 6.22 0.89
-3 3 12 38.49 1.9
-2 3 12 62.77 2.45
-2 3 12 62.04 2.45
-1 3 12 38.79 1.81
-1 3 12 37.46 1.75
0 3 12 1.2 0.44
0 3 12 0.48 0.5
1 3 12 13.72 0.98
1 3 12 15.09 1.18
2 3 12 101.22 4.05
3 3 12 20.77 1.67
4 3 12 15.4 1.56
5 3 12 1.81 0.82
6 3 12 0.74 0.7
7 3 12 5.53 1.32
-5 4 12 0.95 0.6
-4 4 12 0.65 0.67
-3 4 12 13.65 1.3
-2 4 12 20.24 1.4
-1 4 12 1.88 0.44
-1 4 12 2.56 0.74
0 4 12 0.53 0.34
0 4 12 0.05 0.46
1 4 12 1.04 0.48
1 4 12 0.7 0.48
2 4 12 0.56 0.44
2 4 12 -0.01 0.41
3 4 12 0.39 0.61
4 4 12 9.2 1.37
5 4 12 3.24 1.01
6 4 12 2.27 1.07
7 4 12 4.77 1.43
-5 5 12 9.44 1.21
-4 5 12 10.87 1.24
-3 5 12 2.33 0.71
-2 5 12 6.74 1
-1 5 12 4.06 0.8
0 5 12 16.08 1.12
0 5 12 15.27 1.15
1 5 12 24.09 1.53
1 5 12 23.1 1.26
2 5 12 -0.47 0.36
2 5 12 0.27 0.49
3 5 12 0.53 0.58
3 5 12 0.22 0.36
4 5 12 25.76 2.09
5 5 12 5.78 1.31
6 5 12 17.82 2.28
7 5 12 1.44 1.03
-5 6 12 1.29 0.82
-4 6 12 6.02 1.06
-3 6 12 1.58 0.76
-2 6 12 5.77 0.98
-1 6 12 -0.09 0.54
0 6 12 4.17 0.74
1 6 12 16.73 1.12
1 6 12 18.29 1.36
2 6 12 1.94 0.7
2 6 12 1.11 0.44
3 6 12 1.31 0.79
3 6 12 0.09 0.33
4 6 12 3.81 0.56
4 6 12 3.29 0.98
5 6 12 1.25 0.9
6 6 12 4.74 1.29
7 6 12 1.64 1.13
-4 7 12 8.21 1.2
-3 7 12 3.62 0.92
-2 7 12 1.5 0.67
-1 7 12 5.52 0.9
0 7 12 12.55 1.02
1 7 12 11.5 1
1 7 12 12.1 1.13
2 7 12 26.78 1.88
2 7 12 28.72 1.42
3 7 12 34.31 1.55
3 7 12 34.05 2.31
4 7 12 3.7 0.59
4 7 12 5.34 1.23
5 7 12 8.22 1.61
6 7 12 5.99 1.57
7 7 12 3.87 1.51
-4 8 12 4.2 1.06
-3 8 12 5.95 1.03
-2 8 12 15.11 1.44
-1 8 12 14.37 1.2
0 8 12 0.82 0.59
1 8 12 10.91 1.04
2 8 12 7.87 1.21
2 8 12 7.62 0.86
3 8 12 11.69 0.94
3 8 12 13.97 1.7
4 8 12 31.69 1.5
4 8 12 28.34 2.41
5 8 12 -0.04 0.33
5 8 12 0.41 0.97
6 8 12 4.69 1.5
-3 9 12 1.61 0.87
-2 9 12 3.52 0.84
-1 9 12 6.86 1.05
0 9 12 0.46 0.49
1 9 12 0.03 0.43
2 9 12 0.33 0.47
3 9 12 14.27 1.81
3 9 12 16.41 1.14
4 9 12 2.99 1.19
4 9 12 2.64 0.59
5 9 12 16.27 1.14
5 9 12 18.1 2.27
6 9 12 4.67 0.82
6 9 12 5.43 1.64
-2 10 12 8.96 1.27
-1 10 12 -0.29 0.54
0 10 12 28.34 1.66
1 10 12 7.77 0.97
2 10 12 5.81 0.87
3 10 12 13.25 1.09
4 10 12 4.25 0.74
4 10 12 5.25 1.42
5 10 12 0.11 0.43
5 10 12 0.05 1.12
-1 11 12 20.97 1.63
0 11 12 10.68 1.26
1 11 12 1.62 0.63
2 11 12 29.4 1.66
3 11 12 12.24 1.07
4 11 12 16.31 2.28
4 11 12 16.53 1.24
1 12 12 0.65 0.62
2 12 12 -0.18 0.52
-2 -5 13 -0.04 0.33
-1 -5 13 1.49 0.61
0 -5 13 -0.09 0.34
1 -5 13 5.04 1
-3 -4 13 4.08 0.84
-2 -4 13 2.01 0.61
-1 -4 13 6.19 1.05
0 -4 13 12.37 1.24
1 -4 13 7.31 1.13
2 -4 13 7.1 1.15
3 -4 13 8.85 1.31
-4 -3 13 2.37 0.63
-4 -3 13 2.95 0.45
-3 -3 13 0.27 0.4
-2 -3 13 3.7 0.78
-1 -3 13 5.46 0.89
0 -3 13 2.44 0.66
1 -3 13 0.54 0.42
2 -3 13 1.73 0.68
3 -3 13 1.41 0.62
4 -3 13 4.41 1
-4 -2 13 1.21 0.5
-4 -2 13 2.54 0.45
-3 -2 13 3.78 0.75
-3 -2 13 4.08 0.52
-2 -2 13 2.78 0.66
-1 -2 13 11.58 1.11
0 -2 13 0.13 0.36
1 -2 13 1.05 0.51
2 -2 13 4.26 0.86
3 -2 13 7.64 1.23
4 -2 13 2.66 0.77
5 -2 13 1.01 0.64
-5 -1 13 4.38 0.62
-4 -1 13 3.42 0.68
-4 -1 13 3.07 0.51
-3 -1 13 2.62 0.63
-3 -1 13 2.72 0.43
-2 -1 13 10.6 1.02
-2 -1 13 10.71 0.69
-1 -1 13 3.51 0.71
0 -1 13 1.26 0.49
1 -1 13 2.81 0.71
2 -1 13 17.97 1.47
3 -1 13 14.47 1.42
4 -1 13 5.71 1.07
5 -1 13 9.49 1.4
-5 0 13 1.63 0.42
-4 0 13 2.82 0.51
-3 0 13 1.12 0.33
-3 0 13 0.6 0.36
-2 0 13 8.26 1.01
-2 0 13 8.58 0.68
-1 0 13 8.64 0.65
-1 0 13 9.39 0.95
0 0 13 4.96 0.84
1 0 13 31.81 1.93
2 0 13 2.11 0.68
3 0 13 2.31 0.7
4 0 13 22.06 1.76
5 0 13 3.99 1.01
6 0 13 15.29 1.89
-5 1 13 2.57 0.54
-4 1 13 16.09 1.09
-3 1 13 1.05 0.42
-3 1 13 2.64 0.55
-2 1 13 3.11 0.59
-2 1 13 2.9 0.55
-1 1 13 10.37 0.84
-1 1 13 11.66 1.02
0 1 13 44.73 2.24
1 1 13 67.89 3.04
2 1 13 30.38 1.9
3 1 13 17.75 1.5
4 1 13 2.97 0.8
5 1 13 17.84 1.65
6 1 13 4.8 1.12
-5 2 13 13.84 1.12
-4 2 13 8.04 0.91
-3 2 13 9.11 0.97
-2 2 13 6.83 0.84
-2 2 13 8.59 0.95
-1 2 13 2 0.49
-1 2 13 2.31 0.62
0 2 13 16.94 1.26
0 2 13 15.82 1.08
1 2 13 5.06 0.86
2 2 13 6.42 1.01
3 2 13 1.44 0.64
4 2 13 0.12 0.42
5 2 13 0.88 0.67
6 2 13 7.5 1.43
-5 3 13 2.59 0.65
-4 3 13 0.84 0.6
-3 3 13 7.11 0.99
-2 3 13 4.95 0.89
-1 3 13 27.05 1.49
-1 3 13 24.63 1.47
0 3 13 -0.12 0.48
0 3 13 0.07 0.3
1 3 13 1.37 0.54
1 3 13 2.57 0.65
2 3 13 34.83 2.04
3 3 13 4.36 0.91
4 3 13 12.65 1.59
5 3 13 6.26 1.24
6 3 13 5.17 1.2
-5 4 13 4.76 0.87
-4 4 13 1.1 0.65
-3 4 13 15.66 1.29
-2 4 13 33.6 1.76
-1 4 13 31.94 1.71
-1 4 13 33.63 1.68
0 4 13 27.33 1.52
0 4 13 27.97 1.6
1 4 13 16.87 1.16
1 4 13 17.8 1.34
2 4 13 3.79 0.77
3 4 13 13.15 1.56
4 4 13 24.65 1.93
5 4 13 8.83 1.47
6 4 13 4.47 1.17
-4 5 13 5.65 1.05
-3 5 13 2.2 0.83
-2 5 13 8.8 1.07
-1 5 13 7.18 0.94
0 5 13 29.18 1.56
0 5 13 22.36 1.39
1 5 13 15.21 1.11
1 5 13 14.72 1.21
2 5 13 -0.03 0.4
2 5 13 0.76 0.52
3 5 13 1.08 0.64
4 5 13 11.29 1.54
5 5 13 2.52 0.95
6 5 13 4.56 1.26
-4 6 13 4.06 1
-3 6 13 9.93 1.27
-2 6 13 -0.12 0.58
-1 6 13 0.43 0.64
0 6 13 9.52 1.05
1 6 13 11.8 1.04
1 6 13 13.8 1.16
2 6 13 -0.58 0.37
2 6 13 -0.15 0.38
3 6 13 3 0.89
3 6 13 2.36 0.57
4 6 13 1.44 0.74
5 6 13 5.75 1.35
6 6 13 2.5 1.09
-4 7 13 4.9 1.11
-3 7 13 2.25 0.83
-2 7 13 1.44 0.76
-1 7 13 0.07 0.61
0 7 13 2.23 0.64
1 7 13 -0.11 0.48
2 7 13 3.42 0.67
2 7 13 5.65 1.03
3 7 13 17.96 1.7
3 7 13 19.21 1.17
4 7 13 0.56 0.76
4 7 13 0.35 0.42
5 7 13 9.75 1.62
6 7 13 6.62 1.5
-3 8 13 2.96 1.02
-2 8 13 9.8 1.28
-1 8 13 6.29 0.98
0 8 13 0.8 0.55
1 8 13 7.01 0.94
2 8 13 3.06 0.82
2 8 13 3.9 0.74
3 8 13 7.32 0.88
3 8 13 8.01 1.35
4 8 13 23.84 2.15
4 8 13 20.27 1.24
5 8 13 0.66 0.88
6 8 13 7.19 1.62
-2 9 13 6.81 1.13
-1 9 13 13.09 1.35
0 9 13 8.49 1.11
1 9 13 1.32 0.59
2 9 13 0.16 0.48
3 9 13 7.64 1.35
3 9 13 7.39 0.89
4 9 13 0.25 0.43
4 9 13 0.99 0.94
5 9 13 2.48 0.61
5 9 13 3.69 1.23
-1 10 13 -0.89 0.65
0 10 13 11.96 1.28
1 10 13 5.94 0.98
2 10 13 13.29 1.14
3 10 13 29.45 1.63
4 10 13 30.68 2.55
4 10 13 25.98 1.54
0 11 13 -0.49 0.63
1 11 13 1.25 0.72
2 11 13 3.63 0.84
3 11 13 1.6 0.65
-1 -4 14 2.71 0.75
0 -4 14 1.17 0.53
1 -4 14 0.72 0.54
-2 -3 14 5.53 0.96
-1 -3 14 11.49 1.18
0 -3 14 9.19 1.27
1 -3 14 14.92 1.43
2 -3 14 11.07 1.47
-3 -2 14 1.52 0.58
-2 -2 14 0.72 0.46
-1 -2 14 3.46 0.73
0 -2 14 0.06 0.38
1 -2 14 1.33 0.59
2 -2 14 1.23 0.59
3 -2 14 6.45 1.15
-4 -1 14 2.26 0.44
-3 -1 14 2.27 0.42
-3 -1 14 2.59 0.65
-2 -1 14 20.91 1.51
-1 -1 14 4.68 0.85
0 -1 14 0 0.37
1 -1 14 1.03 0.53
2 -1 14 1.1 0.58
3 -1 14 3.7 0.89
4 -1 14 2.16 0.82
-4 0 14 2.08 0.44
-3 0 14 3.14 0.5
-3 0 14 2.96 0.66
-2 0 14 12.37 1.11
-2 0 14 12.96 0.82
-1 0 14 3.03 0.67
0 0 14 3.73 0.78
1 0 14 10.32 1.26
2 0 14 0.46 0.46
3 0 14 0.79 0.57
4 0 14 8.46 1.32
5 0 14 0.6 0.59
-4 1 14 3.5 0.59
-3 1 14 4.3 0.65
-2 1 14 2.35 0.48
-2 1 14 2.45 0.6
-1 1 14 0.79 0.41
0 1 14 8.91 1.13
1 1 14 16.94 1.41
2 1 14 21.72 1.67
3 1 14 28.31 1.96
4 1 14 6 1.12
5 1 14 23.17 1.98
-4 2 14 1.9 0.55
-3 2 14 19.86 1.29
-2 2 14 10.73 1.06
-2 2 14 10.43 0.94
-1 2 14 1.93 0.55
-1 2 14 2.67 0.63
0 2 14 12.86 1.14
1 2 14 17.52 1.38
2 2 14 30.64 1.96
3 2 14 10.73 1.39
4 2 14 1.4 0.64
5 2 14 1.02 0.63
-4 3 14 5.92 0.92
-3 3 14 13.81 1.19
-2 3 14 1.92 0.7
-1 3 14 12.35 1.04
-1 3 14 11.89 1.17
0 3 14 1.01 0.59
0 3 14 0.53 0.39
1 3 14 5.7 0.89
2 3 14 30.79 1.98
3 3 14 3.6 0.85
4 3 14 9.86 1.4
5 3 14 5.12 1.16
6 3 14 19.97 1.94
-4 4 14 4.42 0.88
-3 4 14 3.15 0.87
-2 4 14 4.67 0.94
-1 4 14 5.54 0.93
0 4 14 10.03 1.08
0 4 14 10.02 1
1 4 14 15.18 1.26
1 4 14 13.11 1.12
2 4 14 0.29 0.45
3 4 14 2.03 0.69
4 4 14 5.15 1.11
5 4 14 3.98 1.07
6 4 14 2.4 0.95
-4 5 14 9.86 1.31
-3 5 14 0.64 0.75
-2 5 14 5.33 1.01
-1 5 14 14.64 1.36
0 5 14 43.48 2.08
0 5 14 48.24 2.45
1 5 14 33.07 1.94
1 5 14 33.22 1.69
2 5 14 1.91 0.65
3 5 14 2.91 0.8
4 5 14 12.57 1.61
5 5 14 8.46 1.5
6 5 14 7.67 1.47
-3 6 14 7.64 1.14
-2 6 14 1.17 0.8
-1 6 14 9.69 1.16
0 6 14 25.35 1.59
1 6 14 23.68 1.45
1 6 14 24.53 1.61
2 6 14 7.41 1.13
2 6 14 6.24 0.84
3 6 14 15.85 1.51
4 6 14 6.29 1.29
5 6 14 10.34 1.63
-3 7 14 3.51 1.01
-2 7 14 2.64 0.94
-1 7 14 2.56 0.87
0 7 14 2.76 0.73
1 7 14 1.51 0.67
2 7 14 2.27 0.71
2 7 14 0.81 0.54
3 7 14 5.78 0.82
3 7 14 5.51 1.11
4 7 14 0.22 0.65
5 7 14 5.94 1.41
-2 8 14 2.96 0.91
-1 8 14 5.1 1.04
0 8 14 -0.36 0.59
1 8 14 -0.93 0.47
2 8 14 0.03 0.49
3 8 14 1 0.68
3 8 14 1.24 0.59
4 8 14 3.07 1.03
5 8 14 1.36 0.95
-1 9 14 10.7 1.29
0 9 14 15.99 1.36
1 9 14 11.22 1.23
2 9 14 20.02 1.36
3 9 14 22.3 1.45
4 9 14 3.02 1.06
4 9 14 0.98 0.57
0 10 14 1.41 0.72
1 10 14 0.02 0.63
2 10 14 0.18 0.61
3 10 14 5.18 0.86
-1 -2 15 8.29 1.19
0 -2 15 1.79 0.66
1 -2 15 4.22 0.92
2 -2 15 6.77 1.18
-2 -1 15 8.95 1.18
-1 -1 15 3.85 0.81
0 -1 15 1.13 0.53
1 -1 15 0.02 0.37
2 -1 15 2.32 0.72
3 -1 15 3.35 0.85
-3 0 15 5.54 0.64
-2 0 15 7.4 1.04
-1 0 15 6.12 0.94
0 0 15 10.44 1.3
1 0 15 15.44 1.42
2 0 15 1.32 0.62
3 0 15 1.22 0.6
-3 1 15 5.63 0.7
-2 1 15 0.47 0.39
-2 1 15 1.43 0.41
-1 1 15 0.43 0.39
0 1 15 1.28 0.54
1 1 15 1.36 0.6
2 1 15 0.18 0.41
3 1 15 0.54 0.48
4 1 15 5.93 1.13
-3 2 15 14.73 1.12
-2 2 15 8.92 0.98
-1 2 15 0.21 0.36
0 2 15 12.39 1.18
1 2 15 13.44 1.28
2 2 15 51.2 2.75
3 2 15 40.04 2.43
4 2 15 29.13 2.13
-3 3 15 6.36 0.95
-2 3 15 1.9 0.67
-1 3 15 13.72 1.25
-1 3 15 8.77 1.19
0 3 15 5.52 0.89
1 3 15 0.56 0.41
2 3 15 11.29 1.38
3 3 15 4.11 0.94
4 3 15 2.4 0.74
5 3 15 1.55 0.72
-3 4 15 8.59 1.19
-2 4 15 13.03 1.3
-1 4 15 1.91 0.77
0 4 15 11.38 1.08
0 4 15 10.36 1.14
1 4 15 17 1.39
2 4 15 1.95 0.68
3 4 15 9.33 1.34
4 4 15 3.03 0.82
5 4 15 3.54 0.95
-3 5 15 0.86 0.76
-2 5 15 -0.03 0.64
-1 5 15 -0.47 0.64
0 5 15 15.72 1.32
1 5 15 16.26 1.31
1 5 15 19.74 1.45
2 5 15 3.08 0.75
3 5 15 3.01 0.83
4 5 15 3.57 0.93
-2 6 15 -0.3 0.63
-1 6 15 2.61 0.88
0 6 15 19.54 1.5
1 6 15 15.29 1.37
2 6 15 10.27 1.3
3 6 15 17.21 1.63
4 6 15 8.27 1.38
5 6 15 23.65 2.15
-2 7 15 1.88 0.85
-1 7 15 6.28 1.07
0 7 15 12.42 1.3
1 7 15 0.04 0.64
2 7 15 3.09 0.77
2 7 15 2.8 0.79
3 7 15 3.42 0.93
4 7 15 1.85 0.86
-1 8 15 19.79 1.68
0 8 15 7.06 1.16
1 8 15 12.74 1.34
2 8 15 7.63 1.04
3 8 15 2.7 0.81
3 8 15 0.25 0.58
4 8 15 9.53 1.51
0 9 15 -1.18 0.66
1 9 15 -0.29 0.65
2 9 15 0.65 0.64
3 9 15 3.39 0.79
-1 0 16 0.81 0.49
0 0 16 2.01 0.67
1 0 16 4.08 0.92
-1 1 16 3.97 0.81
0 1 16 24.21 1.74
1 1 16 17.16 1.51
2 1 16 8.72 1.3
-1 2 16 0.84 0.44
0 2 16 0.42 0.42
1 2 16 0.39 0.44
2 2 16 0.54 0.48
3 2 16 0.92 0.59
-2 3 16 4.16 0.8
0 3 16 0.66 0.44
1 3 16 1.66 0.58
2 3 16 6.74 1.13
3 3 16 5.25 1.05
-2 4 16 7.53 1.12
-1 4 16 3.49 0.86
1 4 16 9.62 1.24
2 4 16 3.72 0.8
3 4 16 29.13 2.11
-1 5 16 -0.58 0.69
0 5 16 2.98 0.85
1 5 16 2.35 0.67
2 5 16 2.12 0.65
3 5 16 1.58 0.59
-1 6 16 1.29 0.82
0 6 16 3.65 0.97
2 6 16 6.01 1.02
3 6 16 3.23 0.82
0 7 16 13.42 1.45
1 7 16 1.93 0.85
3 7 16 5.74 1.08
loop_
_platon_missing_refln_index_h
_platon_missing_refln_index_k
_platon_missing_refln_index_l
_platon_missing_refln_theta
3 1 0 8.580
1 2 0 4.667
0 -3 1 6.893
1 2 1 4.518
-2 1 2 7.118
1 3 4 7.921
