#------------------------------------------------------------------------------
#$Date: 2022-01-06 23:12:42 +0200 (Thu, 06 Jan 2022) $
#$Revision: 271828 $
#$URL: file:///home/coder/svn-repositories/cod/cif/7/24/39/7243955.cif $
#------------------------------------------------------------------------------
#
# This file is available in the Crystallography Open Database (COD),
# http://www.crystallography.net/
#
# All data on this site have been placed in the public domain by the
# contributors.
#
data_7243955
loop_
_publ_author_name
'Shapiro, Nicole M.'
'Bosch, Eric'
'Unruh, Daniel K.'
'Krueger, Herman R.'
'Groeneman, Ryan H.'
_publ_section_title
;
 Iodoperchlorobenzene acts as a dual halogen-bond donor to template a [2 +
 2] cycloaddition reaction within an organic co-crystal
;
_journal_issue                   47
_journal_name_full               CrystEngComm
_journal_page_first              8265
_journal_page_last               8268
_journal_paper_doi               10.1039/D1CE01194D
_journal_volume                  23
_journal_year                    2021
_chemical_formula_moiety         'C6 Cl5 I, C12 H10 N2'
_chemical_formula_sum            'C18 H10 Cl5 I N2'
_chemical_formula_weight         558.43
_space_group_crystal_system      triclinic
_space_group_IT_number           2
_space_group_name_Hall           '-P 1'
_space_group_name_H-M_alt        'P -1'
_atom_sites_solution_hydrogens   geom
_atom_sites_solution_primary     dual
_audit_creation_date             2021-06-22
_audit_creation_method
;
Olex2 1.3-ac4
(compiled 2020.03.28 svn.rd84adfe8 for Rigaku Oxford Diffraction, GUI svn.r6032)
;
_audit_update_record
;
2021-08-31 deposited with the CCDC.	2021-11-22 downloaded from the CCDC.
;
_cell_angle_alpha                111.056(2)
_cell_angle_beta                 93.327(2)
_cell_angle_gamma                93.491(2)
_cell_formula_units_Z            1
_cell_length_a                   3.97460(10)
_cell_length_b                   10.7984(2)
_cell_length_c                   12.4426(3)
_cell_measurement_reflns_used    9040
_cell_measurement_temperature    290.00(10)
_cell_measurement_theta_max      77.1690
_cell_measurement_theta_min      3.7930
_cell_volume                     495.61(2)
_computing_cell_refinement       'CrysAlisPro 1.171.41.104a (Rigaku OD, 2021)'
_computing_data_collection       'CrysAlisPro 1.171.41.104a (Rigaku OD, 2021)'
_computing_data_reduction        'CrysAlisPro 1.171.41.104a (Rigaku OD, 2021)'
_computing_molecular_graphics    'Olex2 1.3-ac4 (Dolomanov et al., 2009)'
_computing_publication_material  'Olex2 1.3-ac4 (Dolomanov et al., 2009)'
_computing_structure_refinement  'XL  (Sheldrick, 2008)'
_computing_structure_solution    'SHELXT 2018/2 (Sheldrick, 2018)'
_diffrn_ambient_environment      air
_diffrn_ambient_temperature      290.00(10)
_diffrn_detector                 'Hybrid Pixel Array Detector'
_diffrn_detector_area_resol_mean 10.0000
_diffrn_detector_type            HyPix
_diffrn_measured_fraction_theta_full 0.992
_diffrn_measured_fraction_theta_max 0.938
_diffrn_measurement_details
;
List of Runs (angles in degrees, time in seconds):

  # Type    Start    End  Width  t~exp~   \w     \q     \k     \f   Frames
#--------------------------------------------------------------------------
  1  \w     26.00 121.00   0.50    0.11    --   48.16  77.00-120.00  190
  2  \w     95.00 178.00   0.50    0.44    --  107.78  38.00-120.00  166
  3  \w     95.00 178.00   0.50    0.44    --  107.78  38.00 -90.00  166
  4  \w     26.00 121.00   0.50    0.11    --   48.16  77.00  60.00  190
  5  \w    101.00 178.00   0.50    0.44    --  107.78  86.00 131.00  154
  6  \w    -21.00  75.00   0.50    0.11    --   48.16 -86.00  13.00  192
  7  \w     35.00 112.00   0.50    0.44    --  107.78-125.00-120.00  154
  8  \w     35.00 106.00   0.50    0.44    --  107.78 -99.00 -60.00  142
  9  \w     35.00 106.00   0.50    0.44    --  107.78 -99.00   0.00  142
 10  \w     35.00 106.00   0.50    0.44    --  107.78 -99.00  30.00  142
 11  \w     35.00 106.00   0.50    0.44    --  107.78 -99.00 150.00  142
 12  \w     35.00 135.00   0.50    0.44    --  107.78 -86.00  13.00  200
 13  \w     35.00 107.00   0.50    0.44    --  107.78 -77.00 -90.00  144
 14  \w     35.00 107.00   0.50    0.44    --  107.78 -77.00-150.00  144
 15  \w     35.00  68.00   0.50    0.44    --  107.78 -57.00  60.00   66
 16  \w     35.00  68.00   0.50    0.44    --  107.78 -57.00  90.00   66
 17  \w     35.00  68.00   0.50    0.44    --  107.78 -57.00 150.00   66
 18  \w    -25.00  45.00   0.50    0.11    --   48.16 -38.00 120.00  140
 19  \w    -41.00  25.00   0.50    0.11    --  -48.16  38.00  30.00  132
 20  \w    -64.00 -19.00   0.50    0.44    --  -91.75  57.00 -60.00   90
 21  \w    -64.00 -19.00   0.50    0.44    --  -91.75  57.00 -30.00   90
 22  \w    -64.00 -19.00   0.50    0.44    --  -91.75  57.00   0.00   90
 23  \w    -64.00 -19.00   0.50    0.44    --  -91.75  57.00  60.00   90
 24  \w    -75.00  25.00   0.50    0.11    --  -48.16  86.00 131.00  200
 25  \w    -75.00  25.00   0.50    0.11    --  -48.16  86.00 131.00  200
 26  \w   -118.00 -19.00   0.50    0.44    --  -91.75  86.00 131.00  198
 27  \w   -121.00 -25.00   0.50    0.11    --  -48.16 -77.00 150.00  192
 28  \w   -121.00 -25.00   0.50    0.11    --  -48.16 -77.00  60.00  192
 29  \w   -121.00 -35.00   0.50    0.11    --  -48.16 -38.00 150.00  172
 30  \w   -120.00 -33.00   0.50    0.11    --  -48.16 -57.00 -30.00  174
 31  \w   -121.00 -25.00   0.50    0.11    --  -48.16 -77.00 -60.00  192
 32  \w   -120.00 -33.00   0.50    0.11    --  -48.16 -57.00-120.00  174
 33  \w   -163.00 -95.00   0.50    0.44    --  -91.75 -77.00-150.00  136
 34  \w   -163.00 -69.00   0.50    0.44    --  -91.75 -77.00 -90.00  188
 35  \w   -163.00 -69.00   0.50    0.44    --  -91.75 -77.00 -60.00  188
 36  \w   -163.00 -71.00   0.50    0.44    --  -91.75 -71.00 -29.55  184
 37  \w   -163.00 -70.00   0.50    0.44    --  -91.75 -74.00  18.60  186
 38  \w   -163.00 -74.00   0.50    0.44    --  -91.75 -63.00  55.76  178
 39  \w   -163.00 -74.00   0.50    0.44    --  -91.75 -63.00 150.58  178
 40  \w   -165.00 -78.00   0.50    0.44    --  -91.75 -38.00 150.00  174
 41  \w   -163.00 -77.00   0.50    0.44    --  -91.75 -57.00 120.00  172
 42  \w   -163.00 -77.00   0.50    0.44    --  -91.75 -57.00  90.00  172
 43  \w   -163.00 -69.00   0.50    0.44    --  -91.75 -77.00  60.00  188
 44  \w   -163.00 -77.00   0.50    0.44    --  -91.75 -57.00-150.00  172
 45  \w   -121.00 -73.00   0.50    0.11    --  -48.16-125.00-180.00   96
 46  \w   -163.00 -79.00   0.50    0.44    --  -91.75 -86.00  13.00  168
;
_diffrn_measurement_device       'four-circle diffractometer'
_diffrn_measurement_device_type  'XtaLAB Synergy, Dualflex, HyPix'
_diffrn_measurement_method       '\w scans'
_diffrn_orient_matrix_type
'CrysAlisPro convention (1999,Acta A55,543-557)'
_diffrn_orient_matrix_UB_11      -0.1215638000
_diffrn_orient_matrix_UB_12      -0.1482098000
_diffrn_orient_matrix_UB_13      -0.0331434000
_diffrn_orient_matrix_UB_21      0.1697837000
_diffrn_orient_matrix_UB_22      -0.0335060000
_diffrn_orient_matrix_UB_23      -0.1140904000
_diffrn_orient_matrix_UB_31      0.3291054000
_diffrn_orient_matrix_UB_32      -0.0215147000
_diffrn_orient_matrix_UB_33      0.0601453000
_diffrn_radiation_monochromator  mirror
_diffrn_radiation_probe          x-ray
_diffrn_radiation_type           'Cu K\a'
_diffrn_radiation_wavelength     1.54184
_diffrn_reflns_av_R_equivalents  0.0525
_diffrn_reflns_av_unetI/netI     0.0291
_diffrn_reflns_Laue_measured_fraction_full 0.992
_diffrn_reflns_Laue_measured_fraction_max 0.938
_diffrn_reflns_limit_h_max       5
_diffrn_reflns_limit_h_min       -4
_diffrn_reflns_limit_k_max       13
_diffrn_reflns_limit_k_min       -13
_diffrn_reflns_limit_l_max       15
_diffrn_reflns_limit_l_min       -15
_diffrn_reflns_number            11021
_diffrn_reflns_point_group_measured_fraction_full 0.992
_diffrn_reflns_point_group_measured_fraction_max 0.938
_diffrn_reflns_theta_full        67.684
_diffrn_reflns_theta_max         77.065
_diffrn_reflns_theta_min         3.821
_diffrn_source                   'micro-focus sealed X-ray tube'
_diffrn_source_type              'PhotonJet (Cu) X-ray Source'
_exptl_absorpt_coefficient_mu    18.940
_exptl_absorpt_correction_T_max  0.661
_exptl_absorpt_correction_T_min  0.236
_exptl_absorpt_correction_type   gaussian
_exptl_absorpt_process_details
;
CrysAlisPro 1.171.41.104a (Rigaku Oxford Diffraction, 2021)
Numerical absorption correction based on gaussian integration over
a multifaceted crystal model
Empirical absorption correction using spherical harmonics,
implemented in SCALE3 ABSPACK scaling algorithm.
;
_exptl_crystal_colour            'clear colourless'
_exptl_crystal_colour_lustre     clear
_exptl_crystal_colour_primary    colourless
_exptl_crystal_density_diffrn    1.871
_exptl_crystal_description       irregular
_exptl_crystal_F_000             270
_exptl_crystal_recrystallization_method
'Re-crystallisation from solvent: Toluene'
_exptl_crystal_size_max          0.138
_exptl_crystal_size_mid          0.106
_exptl_crystal_size_min          0.066
_refine_diff_density_max         0.312
_refine_diff_density_min         -0.352
_refine_diff_density_rms         0.064
_refine_ls_extinction_coef       0.0037(5)
_refine_ls_extinction_expression Fc^*^=kFc[1+0.001xFc^2^\l^3^/sin(2\q)]^-1/4^
_refine_ls_extinction_method     'SHELXL-2018/3 (Sheldrick 2018)'
_refine_ls_goodness_of_fit_ref   1.056
_refine_ls_hydrogen_treatment    constr
_refine_ls_matrix_type           full
_refine_ls_number_parameters     128
_refine_ls_number_reflns         1952
_refine_ls_number_restraints     0
_refine_ls_restrained_S_all      1.056
_refine_ls_R_factor_all          0.0298
_refine_ls_R_factor_gt           0.0281
_refine_ls_shift/su_max          0.001
_refine_ls_shift/su_mean         0.000
_refine_ls_structure_factor_coef Fsqd
_refine_ls_weighting_details
'w=1/[\s^2^(Fo^2^)+(0.0403P)^2^+0.1238P] where P=(Fo^2^+2Fc^2^)/3'
_refine_ls_weighting_scheme      calc
_refine_ls_wR_factor_gt          0.0724
_refine_ls_wR_factor_ref         0.0740
_reflns_Friedel_coverage         0.000
_reflns_number_gt                1836
_reflns_number_total             1952
_reflns_threshold_expression     'I > 2\s(I)'
_cod_data_source_file            d1ce01194d2.cif
_cod_data_source_block           C6ICl5_BPE
_cod_depositor_comments
'Adding full bibliography for 7243952--7243955.cif.'
_cod_database_code               7243955
_shelx_shelxl_version_number     2018/3
_chemical_oxdiff_formula         'C18  H10  I1  Cl5  N2  '
_chemical_oxdiff_usercomment     'C6Cl5I + BPE'
_shelx_space_group_comment
;
The symmetry employed for this shelxl refinement is uniquely defined
by the following loop, which should always be used as a source of
symmetry information in preference to the above space-group names.
They are only intended as comments.
;
_shelx_estimated_absorpt_t_max   0.368
_shelx_estimated_absorpt_t_min   0.180
_reflns_odcompleteness_completeness 99.32
_reflns_odcompleteness_iscentric 1
_reflns_odcompleteness_theta     66.97
_olex2_refinement_description
;
1. Fixed Uiso
 At 1.2 times of:
  All C(H) groups
2. Others
 Fixed Sof: I1(0.5) Cl1(0.5)
3.a Aromatic/amide H refined with riding coordinates:
 C4(H4), C5(H5), C7(H7), C8(H8), C9(H9)
;
_shelx_res_file
;
TITL gro21_18_autored_a.res in P-1
    gro21_18_autored.res
    created by SHELXL-2018/3 at 15:12:45 on 22-Jun-2021
REM Old TITL gro21_18_autored in P-1
REM SHELXT solution in P-1: R1 0.122, Rweak 0.018, Alpha 0.042
REM <I/s> 0.000 for 0 systematic absences, Orientation as input
REM Formula found by SHELXT: C10 Cl2 Br
CELL 1.54184 3.9746 10.7984 12.4426 111.056 93.327 93.491
ZERR 1 0.0001 0.0002 0.0003 0.002 0.002 0.002
LATT 1
SFAC C H Cl I N
UNIT 18 10 5 1 2

L.S. 10
PLAN  2
SIZE 0.066 0.106 0.138
TEMP 17
CONF
BOND
list 4
fmap 2 53
MORE -1
ACTA
BOND $H
REM <olex2.extras>
REM <HklSrc "%.\\gro21_18_autored.hkl">
REM </olex2.extras>

WGHT    0.040300    0.123800
EXTI    0.003723
FVAR       0.68317
PART 2
I1    4    1.185509    0.718732    0.785440    10.50000    0.05218    0.03988 =
         0.03450    0.00122    0.00101    0.00649
PART 1
CL1   3    1.194754    0.735604    0.804448    10.50000    0.05433    0.04649 =
         0.03794   -0.01295   -0.00022    0.01159
PART 0
CL2   3    1.269549    1.015671    0.775013    11.00000    0.06141    0.09006 =
         0.04200    0.02855    0.00712   -0.00381
CL3   3    1.100242    1.272242    0.967379    11.00000    0.08527    0.06898 =
         0.05954    0.03148   -0.00068   -0.00508
C1    1    1.078004    0.883607    0.911909    11.00000    0.03771    0.06244 =
         0.03381    0.01151   -0.00357   -0.00060
C2    1    1.120490    1.006386    0.899607    11.00000    0.03874    0.06703 =
         0.03628    0.02030   -0.00386   -0.00465
C3    1    1.042144    1.122189    0.986177    11.00000    0.04144    0.06173 =
         0.03824    0.01833   -0.00580   -0.00369

N1    5    0.639324    0.540619    0.362073    11.00000    0.07365    0.03641 =
         0.06166    0.01178    0.01249    0.00936
C4    1    0.729367    0.629248    0.467979    11.00000    0.06217    0.04450 =
         0.06003    0.02220    0.00692    0.01409
AFIX  43
H4    2    0.840235    0.599756    0.520988    11.00000   -1.20000
AFIX   0
C5    1    0.668719    0.761840    0.504004    11.00000    0.05611    0.03906 =
         0.04345    0.01187    0.00441    0.00807
AFIX  43
H5    2    0.737967    0.819199    0.579036    11.00000   -1.20000
AFIX   0
C6    1    0.502141    0.808750    0.426395    11.00000    0.04266    0.03639 =
         0.04352    0.01425    0.00960    0.00547
C7    1    0.404361    0.716487    0.316815    11.00000    0.06221    0.04499 =
         0.04691    0.01445   -0.00175    0.00167
AFIX  43
H7    2    0.289726    0.742267    0.262063    11.00000   -1.20000
AFIX   0
C8    1    0.478170    0.586178    0.289488    11.00000    0.08177    0.03953 =
         0.05289    0.00641    0.00390   -0.00219
AFIX  43
H8    2    0.410485    0.526250    0.215245    11.00000   -1.20000
AFIX   0
C9    1    0.427486    0.948301    0.455899    11.00000    0.04397    0.04027 =
         0.04289    0.01639    0.00741    0.00922
AFIX  43
H9    2    0.262947    0.965481    0.408090    11.00000   -1.20000
AFIX   0
HKLF 4




REM  gro21_18_autored_a.res in P-1
REM wR2 = 0.074040, GooF = S = 1.05598, Restrained GooF = 1.05598 for all data
REM R1 = 0.028064 for 1836 Fo > 4sig(Fo) and 0.029833 for all 1952 data
REM 128 parameters refined using 0 restraints

END

WGHT      0.0403      0.1239

REM Highest difference peak  0.312,  deepest hole -0.352,  1-sigma level  0.064
Q1    1   1.0564  0.8020  0.8163  11.00000  0.05    0.31
Q2    1   1.2869  0.9460  0.7738  11.00000  0.05    0.31
;
_shelx_res_checksum              22738
_shelx_hkl_file
;
   0   0  -1  190.37    8.23
   0   0   1  188.83    8.26
   0   0  -2  239.37   11.70
   0   0  -2  249.45   12.20
   0   0  -2  228.75   10.45
   0   0  -3  330.75   17.14
   0   0  -3  334.15   14.70
   0   0  -3  316.29   16.32
   0   0   3  359.19   17.71
   0   0  -4 2092.65   80.61
   0   0  -4 2013.42   81.56
   0   0   4 1987.12   81.99
   0   0  -4 1925.20   86.59
   0   0   4 1930.00   79.42
   0   0   5 1011.51   49.59
   0   0   5 1071.86   46.46
   0   0  -5 1051.02   47.56
   0   0  -5 1084.34   49.46
   0   0   5 1146.29   48.66
   0   0   6   21.53    2.93
   0   0   6   21.26    2.61
   0   0   6   27.67    2.81
   0   0   6   21.21    2.46
   0   0  -6   28.56    5.05
   0   0  -6   17.49    5.93
   0   0  -7  818.05   54.26
   0   0   7  901.15   38.87
   0   0   7  967.54   38.10
   0   0   7  884.69   37.47
   0   0   7  913.57   37.75
   0   0  -7  898.64   36.87
   0   0  -7  927.03   45.42
   0   0   7  885.82   43.35
   0   0   8   32.56    4.28
   0   0   8   34.75    4.05
   0   0  -8   32.74    3.41
   0   0  -8   40.21    4.99
   0   0  -8   37.53    8.06
   0   0  -8   32.76    6.36
   0   0   8   36.07    3.96
   0   0   8   39.72    4.59
   0   0   8   33.13    3.93
   0   0   9  550.49   26.63
   0   0   9  520.81   25.08
   0   0   9  546.53   25.57
   0   0   9  532.85   26.24
   0   0  -9  521.14   25.26
   0   0  -9  536.33   24.08
   0   0  -9  530.89   33.47
   0   0  -9  595.02   28.05
   0   0  10  174.09   11.11
   0   0  10  152.52   11.24
   0   0  10  157.58   11.17
   0   0 -10  155.00   10.74
   0   0 -10  158.93    9.61
   0   0 -10  135.14   15.06
   0   0 -10  147.53   19.28
   0   0 -10  158.72   12.21
   0   0  11   97.63    7.94
   0   0  11   97.96    8.41
   0   0  11  113.99    8.77
   0   0 -11   95.60    6.72
   0   0 -11   84.99    7.69
   0   0 -11   88.79   14.31
   0   0 -11   82.39    8.45
   0   0 -11   83.41   16.49
   0   0 -12  140.64    9.89
   0   0  12  146.92    9.70
   0   0 -12  134.75   10.43
   0   0  12  145.70    9.78
   0   0  13    2.79    1.11
   0   0 -13    4.55    1.42
   0   0  13    2.76    1.83
   0   0 -14   40.17    4.33
   0   0 -14   39.18    3.35
   0  -1  14    7.49    1.55
   0   1 -14    6.23    1.54
   0   1 -14    7.72    2.03
   0   1 -13   21.06    3.18
   0  -1  13   16.88    2.91
   0  -1  13   25.57    3.60
   0  -1  12    2.58    1.15
   0  -1  12    1.27    1.26
   0  -1  12    1.89    1.28
   0   1 -12    3.25    1.23
   0   1 -12    2.54    1.53
   0  -1  12    2.58    1.56
   0   1 -11   17.29    3.56
   0   1 -11   28.32    9.25
   0  -1  11   25.34    3.79
   0  -1  11   23.51    4.00
   0  -1  11   19.42    3.47
   0   1 -11   21.73    3.09
   0   1 -11   20.12    3.63
   0   1 -11   23.54    5.98
   0  -1  11   19.31    3.88
   0  -1  10    6.66    2.51
   0  -1  10    5.59    1.92
   0  -1  10    7.30    2.11
   0  -1  10    5.50    1.86
   0  -1  10    8.50    2.28
   0   1 -10    7.41    1.77
   0   1 -10    4.71    3.08
   0   1 -10    3.20    2.01
   0  -1   9   30.82    4.27
   0  -1   9   38.55    4.68
   0  -1   9   41.63    5.08
   0  -1   9   45.15    4.79
   0  -1   9   43.63    5.27
   0  -1   9   48.70    5.06
   0   1  -9   43.96    4.23
   0   1  -9   35.40    8.40
   0   1  -9   33.88    7.12
   0   1  -9   44.95    5.34
   0  -1   8  605.06   27.34
   0  -1   8  606.57   27.96
   0  -1   8  634.60   27.20
   0  -1   8  562.50   26.48
   0   1  -8  607.80   26.13
   0   1  -8  617.97   35.42
   0  -1   8  588.65   27.53
   0  -1   7  211.78   12.09
   0  -1   7  244.64   13.06
   0  -1   7  247.39   17.68
   0  -1   7  218.60   12.47
   0  -1   7  236.45   11.98
   0   1  -7  239.30   19.34
   0   1  -7  243.91   18.03
   0   1  -7  221.05   22.73
   0  -1   6   19.13    2.53
   0  -1   6   22.05    2.90
   0  -1   6   23.63    2.62
   0  -1   6   22.06    2.52
   0   1  -6   29.97    3.80
   0   1  -6   23.39    4.69
   0   1  -6   28.77    5.50
   0   1  -6   23.81    6.62
   0  -1   6   23.72    3.12
   0   1  -5   15.17    3.32
   0  -1   4  959.82   37.92
   0   1  -4 1001.03   42.75
   0   1  -4  965.52   40.10
   0  -1   4  972.95   45.01
   0  -1   4  991.09   43.73
   0   1  -3 2609.14  101.46
   0  -1   3 2522.59   99.19
   0   1  -3 2382.54   96.12
   0   1  -3 2632.71   98.13
   0  -1   3 2460.57   99.84
   0  -1   2 1193.56   47.68
   0  -1   2 1196.70   48.89
   0   1  -2 1160.57   47.61
   0   1  -2 1165.39   47.07
   0   1  -2 1242.96   49.37
   0   1  -1 1251.28   50.74
   0   1  -1 1268.57   48.87
   0  -1   1 1364.62   50.41
   0  -1   0  307.51   14.17
   0   1   0  317.25   14.77
   0   1   0  315.37   13.75
   0   1   1   41.68    4.66
   0   1   1   48.02    3.42
   0  -1  -1   40.18    2.99
   0  -1  -1   41.92    3.86
   0  -1  -2  599.21   24.34
   0   1   2  580.90   25.58
   0  -1  -2  581.84   24.83
   0  -1  -2  559.65   26.28
   0   1   3  530.63   25.29
   0  -1  -3  518.53   23.85
   0  -1  -3  524.86   25.73
   0  -1  -4 1580.13   67.24
   0  -1  -4 1669.69   70.33
   0   1   4 1585.15   69.60
   0  -1  -5   58.99    6.61
   0  -1  -5   63.66    8.15
   0   1   6  977.27   50.93
   0   1   6  986.53   41.88
   0   1   6 1010.59   40.65
   0   1   6 1018.39   41.45
   0   1   6 1021.08   40.68
   0   1   6  938.72   40.35
   0  -1  -6  995.58   39.83
   0  -1  -6 1069.58   47.21
   0  -1  -6 1044.72   51.16
   0   1   6 1167.36   52.43
   0   1   7   49.53    4.16
   0   1   7   58.69    5.52
   0   1   7   60.32    5.35
   0   1   7   56.99    4.84
   0   1   7   48.92    4.53
   0   1   7   51.02    4.58
   0  -1  -7   46.59    4.63
   0  -1  -7   55.15    4.17
   0  -1  -7   54.51    7.58
   0  -1  -7   40.10   11.14
   0   1   8  741.41   33.42
   0   1   8  694.98   31.16
   0   1   8  767.48   33.40
   0   1   8  766.76   32.11
   0  -1  -8  761.12   32.39
   0  -1  -8  702.37   30.48
   0  -1  -8  682.08   38.89
   0  -1  -8  663.60   43.74
   0   1   8  766.21   41.20
   0   1   9  557.04   26.69
   0   1   9  552.39   25.88
   0  -1  -9  542.56   26.18
   0  -1  -9  550.94   24.19
   0  -1  -9  516.40   38.70
   0   1   9  561.10   27.14
   0   1  10    6.18    2.24
   0   1  10    5.21    1.97
   0   1  10    6.71    2.18
   0   1  10    5.41    1.79
   0  -1 -10    9.93    2.59
   0  -1 -10    5.13    3.35
   0  -1 -10    9.41    3.00
   0   1  11   71.81    6.88
   0  -1 -11   77.79    6.98
   0   1  11   75.48    7.01
   0  -1 -11   73.91    7.92
   0   1  11   78.81    6.80
   0   1  11   74.64    6.79
   0  -1 -12   37.52    4.31
   0   1  12   44.52    4.57
   0  -1 -12   34.64    4.96
   0   1  12   42.47    4.35
   0  -1 -13  112.53    7.23
   0  -1 -13  111.26    7.50
   0   1  14    2.34    0.90
   0  -1 -14    4.96    1.31
   0  -2  15   17.51    2.54
   0  -2  14   11.21    2.06
   0   2 -14    8.95    1.82
   0   2 -14   12.54    2.51
   0   2 -13  117.42    7.56
   0   2 -13  103.15    8.27
   0  -2  13  122.56    8.90
   0  -2  13  129.86    9.25
   0   2 -13  138.20   10.42
   0   2 -12   70.76    6.86
   0   2 -12   77.90    6.18
   0  -2  12   82.36    7.43
   0  -2  12   64.64    6.80
   0  -2  12   74.52    6.91
   0  -2  12   79.38    7.51
   0  -2  11   35.59    4.27
   0  -2  11   39.11    5.16
   0  -2  11   46.17    5.36
   0  -2  11   37.46    4.83
   0  -2  11   33.14    4.95
   0   2 -11   34.56    4.13
   0   2 -11   31.74    7.28
   0   2 -11   29.07    9.18
   0  -2  10  296.36   16.39
   0  -2  10  297.25   17.74
   0  -2  10  357.30   18.32
   0  -2  10  321.22   17.44
   0  -2  10  312.58   16.98
   0  -2  10  321.20   18.23
   0   2 -10  298.35   15.91
   0   2 -10  271.56   24.33
   0   2 -10  238.68   29.30
   0  -2   9    9.44    2.42
   0  -2   9    6.77    2.00
   0  -2   9    8.31    2.23
   0  -2   9    7.76    2.14
   0   2  -9    8.76    2.02
   0   2  -9    8.84    3.53
   0  -2   9    6.06    2.10
   0  -2   8  364.13   17.41
   0  -2   8  340.94   17.22
   0  -2   8  377.28   26.04
   0  -2   8  358.02   17.68
   0  -2   8  351.37   18.38
   0  -2   8  336.50   17.83
   0  -2   8  357.25   18.24
   0   2  -8  340.83   24.63
   0  -2   7   88.21    6.19
   0  -2   7   95.87    6.36
   0   2  -7   84.51   10.32
   0  -2   7   90.24    6.89
   0  -2   7   97.10    6.95
   0  -2   7   80.81    6.46
   0   2  -6  700.88   30.49
   0   2  -6  662.48   33.52
   0   2  -6  702.81   39.11
   0  -2   6  579.15   25.65
   0   2  -5  846.67   43.76
   0   2  -5  854.85   40.12
   0   2  -5  832.84   37.60
   0  -2   5  811.26   42.69
   0  -2   5  871.05   42.08
   0  -2   4    1.19    1.64
   0   2  -4    0.72    0.90
   0   2  -4    2.25    1.60
   0   2  -4    0.61    1.54
   0  -2   3  329.58   17.53
   0  -2   3  348.75   19.52
   0   2  -3  320.05   16.96
   0   2  -3  319.65   17.22
   0  -2   3  307.25   18.08
   0  -2   3  309.71   19.04
   0  -2   2  131.67    9.97
   0   2  -2  138.91    9.49
   0  -2   2  133.89    9.62
   0   2  -2  143.50    8.35
   0  -2   2  122.06    8.63
   0  -2   1  449.65   21.66
   0  -2   1  476.44   22.44
   0   2  -1  417.85   20.34
   0  -2   1  464.84   21.25
   0  -2   0 1109.25   44.88
   0  -2   0  980.48   43.14
   0   2   0 1138.38   45.71
   0  -2   0 1036.90   42.68
   0   2   0 1068.29   43.67
   0   2   1  158.35   11.90
   0  -2  -1  145.79   10.19
   0  -2  -1  144.66   10.56
   0   2   1  149.68    8.78
   0   2   1  166.19   10.69
   0   2   2   38.05    4.29
   0  -2  -2   40.71    6.22
   0  -2  -2   40.01    3.81
   0  -2  -2   38.07    5.10
   0   2   3   19.25    3.53
   0  -2  -3   20.36    3.99
   0  -2  -3   19.92    3.00
   0   2   4 1411.03   55.11
   0   2   4 1402.50   55.09
   0  -2  -4 1683.33   61.50
   0  -2  -4 1715.26   66.62
   0   2   4 1608.87   64.55
   0  -2  -4 1698.38   74.67
   0   2   5  248.30   13.26
   0   2   5  270.46   13.14
   0   2   5  244.92   13.29
   0   2   5  262.02   12.81
   0   2   5  235.79   11.99
   0  -2  -5  265.78   12.73
   0  -2  -5  276.84   20.08
   0  -2  -5  287.66   16.60
   0   2   5  266.92   19.21
   0  -2  -6    3.69    3.61
   0   2   6    2.02    1.62
   0   2   6    3.53    1.14
   0   2   6    2.88    1.18
   0   2   6    2.55    0.99
   0  -2  -6    5.15    3.07
   0  -2  -6    1.92    0.98
   0  -2  -6    1.78    1.16
   0   2   6    3.43    2.58
   0   2   7  114.07    7.43
   0   2   7   98.18    7.35
   0   2   7   98.10    7.37
   0   2   7   85.47    6.59
   0  -2  -7  101.38    7.29
   0  -2  -7  102.59   10.39
   0  -2  -7   96.11   13.32
   0  -2  -7   84.19   16.39
   0   2   8   26.42    4.01
   0   2   8   27.14    3.28
   0   2   8   23.32    3.26
   0   2   8   26.39    3.77
   0   2   8   29.09    3.60
   0  -2  -8   22.90    3.42
   0  -2  -8   28.05    8.04
   0   2   8   39.64    7.95
   0   2   9   31.90    3.39
   0   2   9   34.12    4.78
   0   2   9   39.17    4.71
   0   2   9   32.88    3.78
   0   2   9   37.16    4.79
   0   2   9   26.78    3.71
   0  -2  -9   32.09    4.29
   0  -2  -9   41.62   10.18
   0  -2  -9   40.52    6.08
   0   2  10    3.41    1.49
   0   2  10    8.91    2.32
   0   2  10    5.80    2.05
   0  -2 -10   10.99    3.27
   0  -2 -10    8.16    5.31
   0  -2 -10    6.96    3.93
   0  -2 -10    4.80    2.05
   0   2  10    6.34    1.85
   0  -2 -11   73.67    6.62
   0   2  11   76.35    6.22
   0  -2 -11   81.01    8.34
   0   2  11   80.05    6.91
   0  -2 -12   40.89    5.13
   0   2  12   43.32    4.12
   0  -2 -12   39.03    4.07
   0  -2 -13    1.28    0.95
   0  -3  15   41.04    4.30
   0  -3  15   36.90    3.95
   0  -3  14    8.26    1.87
   0   3 -14    7.79    1.51
   0  -3  14    9.37    2.61
   0   3 -14    7.78    1.86
   0   3 -13  202.51   11.49
   0  -3  13  214.12   13.08
   0  -3  13  202.95   12.55
   0   3 -13  200.16   13.29
   0  -3  13  225.56   13.24
   0  -3  12   32.45    4.68
   0  -3  12   32.01    4.44
   0  -3  12   28.11    4.36
   0   3 -12   26.34    3.63
   0  -3  12   30.84    4.68
   0   3 -12   35.28    5.38
   0   3 -11  351.71   18.64
   0  -3  11  367.75   19.80
   0  -3  11  366.98   20.24
   0  -3  11  377.11   21.09
   0   3 -11  343.02   28.87
   0  -3  11  414.88   21.28
   0  -3  10    3.26    2.04
   0  -3  10    4.95    1.90
   0  -3  10    5.78    2.13
   0  -3  10    5.64    1.80
   0   3 -10    3.16    1.39
   0   3 -10    6.42    3.24
   0   3 -10    5.86    3.82
   0  -3   9  663.78   39.99
   0  -3   9  589.68   27.72
   0  -3   9  562.32   27.39
   0  -3   9  587.45   26.49
   0  -3   9  552.20   27.46
   0  -3   9  557.65   26.22
   0   3  -9  525.06   35.65
   0   3  -9  480.03   39.91
   0   3  -8  459.07   20.72
   0  -3   8  496.35   22.62
   0  -3   8  480.21   22.35
   0   3  -8  499.86   31.77
   0  -3   8  505.92   23.82
   0  -3   8  520.04   23.80
   0  -3   7  275.07   14.80
   0  -3   7  274.46   14.75
   0  -3   7  275.94   14.09
   0  -3   7  284.11   14.03
   0   3  -7  279.49   13.00
   0   3  -7  306.84   21.59
   0   3  -7  287.35   18.44
   0  -3   7  332.65   24.22
   0  -3   6  372.96   17.21
   0   3  -6  380.89   24.41
   0   3  -6  392.61   22.14
   0  -3   6  408.71   26.72
   0  -3   6  387.54   18.25
   0  -3   5  109.49   12.10
   0   3  -5   98.11    9.04
   0   3  -5   93.70    9.63
   0  -3   5   86.05    9.93
   0   3  -4 4353.36  165.09
   0  -3   4 3886.93  164.90
   0  -3   4 4621.44  169.33
   0   3  -4 4108.09  165.00
   0  -3   4 4096.69  167.32
   0  -3   4 4325.23  168.87
   0  -3   3  162.78   13.25
   0   3  -3  143.95    7.18
   0   3  -3  162.15   11.93
   0  -3   3  158.93   12.60
   0  -3   3  165.42   14.96
   0   3  -3  149.09    9.60
   0  -3   3  162.41   11.61
   0  -3   2  831.23   38.73
   0   3  -2  735.47   37.31
   0  -3   2  914.86   39.87
   0   3  -2  781.56   34.15
   0  -3   2  836.14   37.42
   0  -3   1  576.70   29.96
   0  -3   1  578.97   29.73
   0  -3   1  661.65   25.52
   0  -3   1  621.08   29.51
   0   3   0 1535.01   63.68
   0  -3   0 1319.59   59.32
   0   3   0 1535.58   61.37
   0  -3   0 1488.21   60.15
   0  -3   0 1493.48   62.80
   0   3   1 2206.00   87.11
   0  -3  -1 2148.84   87.66
   0  -3  -1 2202.26   88.42
   0   3   1 1977.07   83.47
   0  -3  -2  442.62   25.24
   0   3   2  429.14   22.50
   0  -3  -2  450.30   25.06
   0  -3  -3 2073.40   83.70
   0  -3  -3 1961.67   88.78
   0  -3  -3 1842.18   78.38
   0   3   3 1839.90   79.40
   0   3   4  127.96    7.97
   0   3   4  135.26    8.24
   0   3   4  120.70    7.26
   0   3   4  136.43    8.59
   0  -3  -4  140.18    7.73
   0  -3  -4  141.79   13.86
   0  -3  -4  138.69   10.04
   0  -3  -4  122.02   16.24
   0   3   4  138.57   12.43
   0   3   5  273.47   13.57
   0   3   5  252.14   13.26
   0   3   5  234.07   12.40
   0   3   5  259.76   13.75
   0   3   5  242.22   12.08
   0  -3  -5  260.09   12.81
   0  -3  -5  216.41   19.69
   0  -3  -5  230.82   15.39
   0  -3  -5  226.32   25.02
   0   3   5  230.19   18.97
   0   3   6   83.86    6.65
   0   3   6   92.73    7.17
   0   3   6   92.81    6.62
   0   3   6   91.72    7.18
   0   3   6   82.02    6.04
   0   3   6   98.65    7.76
   0  -3  -6   83.60    6.43
   0  -3  -6  106.82   13.87
   0  -3  -6   77.97   15.51
   0   3   6   76.96   10.80
   0   3   7  220.77   12.70
   0   3   7  223.14   13.16
   0   3   7  211.15   12.06
   0  -3  -7  223.42   12.85
   0  -3  -7  201.00   21.41
   0   3   7  234.77   12.91
   0   3   7  239.07   13.72
   0   3   8  419.98   20.32
   0   3   8  412.80   20.83
   0   3   8  392.45   20.55
   0   3   8  428.82   20.33
   0  -3  -8  422.48   20.97
   0  -3  -8  461.88   35.61
   0   3   8  459.33   33.38
   0  -3  -9   19.96    4.55
   0   3   9   18.08    2.71
   0   3   9   18.16    2.82
   0   3   9   20.60    3.51
   0  -3  -9   15.66    5.92
   0  -3  -9   11.46    2.75
   0   3   9   19.26    3.02
   0  -3 -10   60.46    5.83
   0   3  10   60.16    5.93
   0  -3 -10   54.76    7.18
   0  -3 -11    5.75    1.88
   0   3  11    9.13    2.02
   0  -3 -11    6.26    1.67
   0  -3 -11    9.89    3.01
   0  -3 -12   71.89    5.09
   0   3  12   77.62    5.17
   0  -3 -12   85.11    6.81
   0  -3 -13   21.29    2.59
   0  -4  15    0.20    0.58
   0   4 -15    0.32    0.44
   0  -4  15    0.80    1.04
   0  -4  15   -0.26    0.97
   0  -4  14    1.85    1.10
   0   4 -14    3.11    1.07
   0   4 -14    2.81    1.23
   0  -4  14    2.90    1.68
   0  -4  13   55.55    5.49
   0  -4  13   50.32    5.55
   0  -4  13   57.11    5.98
   0  -4  13   68.06    6.50
   0   4 -13   50.50    5.26
   0   4 -13   65.36    5.49
   0  -4  13   46.57    7.03
   0   4 -13   51.36    5.57
   0   4 -12  100.38    7.99
   0  -4  12  117.49    9.43
   0  -4  12  112.17    9.68
   0  -4  12  105.15    8.72
   0  -4  12  119.27    9.24
   0   4 -12  105.39    9.00
   0  -4  11  167.36   11.47
   0  -4  11  152.45   11.76
   0  -4  11  149.89   10.72
   0   4 -11  150.94   10.12
   0   4 -11  135.21   17.22
   0   4 -11  113.71   17.22
   0   4 -11  130.02   10.75
   0  -4  10   41.65    5.33
   0  -4  10   42.93    5.57
   0  -4  10   40.11    4.96
   0  -4  10   39.62    4.84
   0   4 -10   45.93    9.01
   0   4 -10   41.44    5.44
   0  -4   9   20.98    6.56
   0  -4   9   18.30    3.40
   0  -4   9   13.13    2.95
   0  -4   9   14.90    3.08
   0  -4   9   12.71    2.62
   0  -4   9   16.16    2.83
   0   4  -9   12.86    1.99
   0   4  -9   12.25    4.61
   0   4  -9   14.81    5.30
   0   4  -9   15.88    3.09
   0  -4   8  154.17   17.47
   0  -4   8  129.24    9.34
   0  -4   8  131.55    9.18
   0  -4   8  123.00    9.28
   0  -4   8  136.80    8.84
   0  -4   8  120.52    8.25
   0   4  -8  113.44    7.29
   0   4  -8  130.42   14.56
   0   4  -8  140.38   12.90
   0   4  -8  103.75   14.14
   0  -4   7 1150.38   47.53
   0   4  -7 1142.24   58.73
   0  -4   7 1132.55   47.17
   0   4  -7 1262.07   55.94
   0   4  -7 1206.27   58.58
   0  -4   7 1149.85   48.65
   0  -4   7 1180.21   48.51
   0  -4   7 1235.13   49.17
   0  -4   6   43.47    8.08
   0   4  -6   60.44    8.35
   0  -4   6   57.25    5.17
   0  -4   6   57.05    5.07
   0  -4   6   57.60    4.51
   0  -4   6   58.91    9.67
   0  -4   6   50.37    4.25
   0   4  -6   44.62    6.94
   0  -4   6   77.00   11.11
   0  -4   5  486.99   29.86
   0  -4   5  576.50   34.25
   0   4  -5  589.14   30.94
   0  -4   5  547.58   32.98
   0   4  -5  517.84   27.95
   0   4  -4   57.17    7.11
   0   4  -4   47.64    6.91
   0  -4   4   45.87    6.83
   0  -4   4   65.39    8.66
   0  -4   3  866.33   41.30
   0  -4   3  877.66   41.38
   0  -4   3  875.49   43.08
   0   4  -3  784.18   40.01
   0  -4   3  915.33   43.36
   0   4  -3  780.96   34.71
   0  -4   2  681.54   34.31
   0  -4   2  660.34   33.94
   0  -4   2  779.52   36.77
   0  -4   2  734.40   41.43
   0  -4   1  904.68   35.44
   0  -4   1  906.32   47.84
   0  -4   1  946.48   41.70
   0   4  -1  878.30   40.30
   0  -4   1  790.19   38.28
   0  -4   1  824.58   41.15
   0   4  -1  889.18   42.08
   0   4  -1  965.48   41.76
   0  -4   1  800.73   40.01
   0   4   0 2634.47  104.50
   0  -4   0 2690.49  105.31
   0  -4   0 2313.59  102.12
   0  -4   0 2371.50   99.48
   0   4   0 2607.26  102.85
   0  -4  -1   46.65    5.77
   0   4   1   68.66    9.08
   0   4   1   65.68    8.13
   0  -4  -1   57.56    7.30
   0  -4  -1   60.63    8.19
   0  -4  -1   50.18    7.08
   0  -4  -2  670.96   37.25
   0  -4  -2  651.22   37.46
   0   4   2  678.57   33.49
   0   4   2  685.82   28.80
   0  -4  -2  697.59   37.64
   0   4   2  650.49   28.81
   0   4   2  764.90   40.07
   0   4   3    1.28    0.68
   0   4   3    1.86    0.88
   0  -4  -3    1.73    0.75
   0  -4  -3    0.97    1.54
   0   4   3    2.64    1.82
   0   4   4  838.97   35.44
   0   4   4  868.81   36.07
   0   4   4  868.32   36.42
   0   4   4  815.28   34.50
   0  -4  -4  846.07   35.10
   0  -4  -4  894.70   48.20
   0   4   4  807.73   42.75
   0  -4  -4  832.62   51.30
   0  -4  -5  420.48   36.21
   0   4   5  448.07   29.51
   0   4   5  499.92   22.90
   0   4   5  502.80   23.12
   0   4   5  486.65   21.88
   0   4   5  484.93   23.42
   0   4   5  472.90   21.51
   0  -4  -5  502.03   22.42
   0  -4  -5  486.91   34.07
   0   4   5  516.72   36.25
   0  -4  -6  131.52    8.93
   0   4   6  127.71    9.39
   0   4   6  143.00    8.87
   0  -4  -6  144.11   17.62
   0   4   6  134.11    9.27
   0   4   6  142.22    9.56
   0   4   7  287.31   15.59
   0   4   7  246.89   14.46
   0  -4  -7  256.99   14.51
   0  -4  -7  269.54   26.25
   0   4   7  319.95   27.08
   0   4   7  263.70   15.15
   0   4   8   20.88    3.32
   0  -4  -8   27.57    7.81
   0  -4  -8   22.03    3.43
   0   4   8   25.69    3.86
   0   4   8   21.75    3.25
   0  -4  -9  299.52   15.49
   0   4   9  261.32   15.22
   0   4   9  268.04   14.47
   0  -4  -9  267.74   16.42
   0   4   9  271.14   14.13
   0   4   9  303.63   15.96
   0  -4 -10    9.31    2.47
   0  -4 -10    8.19    1.93
   0  -4 -11  118.91    7.23
   0  -4 -11  110.08    7.94
   0  -4 -12   42.87    3.97
   0   5 -15    0.45    0.51
   0  -5  15    0.52    1.14
   0  -5  14   23.27    3.20
   0   5 -14   20.24    2.68
   0   5 -14   17.83    2.65
   0  -5  14   21.78    3.99
   0  -5  14   29.08    4.35
   0   5 -13    0.29    0.81
   0  -5  13    1.48    1.02
   0  -5  13    0.41    1.62
   0  -5  13    1.60    0.85
   0  -5  13    0.51    1.81
   0   5 -12   17.39    3.19
   0  -5  12   31.78    4.42
   0  -5  12   24.90    3.53
   0  -5  12   34.50    4.90
   0  -5  12   19.69    4.53
   0  -5  12   24.15    5.16
   0  -5  12   31.82    4.98
   0  -5  11   18.60    3.22
   0  -5  11   20.46    3.89
   0  -5  11   22.76    3.76
   0  -5  11   20.02    3.53
   0   5 -11   17.48    2.46
   0   5 -11   28.04    7.28
   0   5 -11   16.06    5.77
   0  -5  11   17.58    3.95
   0   5 -10   27.94    3.29
   0  -5  10   30.36    4.41
   0  -5  10   36.59    5.42
   0  -5  10   34.09    4.43
   0   5 -10   24.25    6.93
   0   5 -10   41.33    8.73
   0  -5  10   31.75    4.88
   0  -5  10   30.42    4.77
   0  -5  10   34.11    4.36
   0   5  -9  171.50   10.07
   0  -5   9  183.56   11.74
   0  -5   9  159.34   10.96
   0  -5   9  165.81   12.48
   0   5  -9  187.45   19.47
   0   5  -9  191.49   16.59
   0  -5   9  194.49   12.75
   0  -5   9  173.98   11.29
   0  -5   9  212.26   13.19
   0  -5   8   10.05    2.50
   0  -5   8    9.97    2.23
   0  -5   8    7.96    2.31
   0  -5   8    7.31    1.97
   0   5  -8    9.85    1.87
   0   5  -8   12.68    4.69
   0  -5   8    9.08    2.02
   0   5  -8    5.68    3.03
   0  -5   8    5.65    2.27
   0  -5   7   68.42    5.68
   0  -5   7   79.82   12.84
   0  -5   7   71.43    5.71
   0   5  -7   82.91   10.56
   0  -5   7   75.95    6.62
   0  -5   7   73.35    5.85
   0  -5   7   58.34    6.00
   0  -5   6   56.91   11.06
   0  -5   6   72.05    6.17
   0  -5   6   70.39    6.08
   0  -5   6   51.35    9.22
   0  -5   6   65.23    5.34
   0  -5   6   63.71    5.46
   0  -5   6   63.23    5.25
   0   5  -6   75.67    9.92
   0   5  -6   72.76    9.73
   0  -5   6   88.72   12.79
   0  -5   5  372.60   30.61
   0  -5   5  372.27   17.86
   0  -5   5  401.01   26.60
   0  -5   5  419.78   27.51
   0  -5   5  386.57   18.54
   0  -5   5  398.09   18.64
   0   5  -5  358.37   23.91
   0   5  -5  425.28   26.04
   0  -5   5  404.91   28.89
   0  -5   5  454.55   29.87
   0  -5   4  926.20   47.29
   0   5  -4  798.40   42.22
   0  -5   4  876.01   35.14
   0  -5   4  849.24   43.67
   0  -5   4  895.03   35.11
   0   5  -3  472.80   28.69
   0  -5   3  479.53   30.67
   0  -5   3  471.61   28.29
   0  -5   3  527.44   29.46
   0   5  -3  481.55   23.89
   0  -5   2  199.09   15.23
   0   5  -2  181.80   13.72
   0  -5   1  326.74   21.69
   0   5  -1  304.71   21.66
   0  -5   1  283.83   16.65
   0   5  -1  364.79   21.12
   0  -5   1  322.70   21.01
   0  -5   0  208.17   10.81
   0   5   0  260.71   18.35
   0   5   0  206.29   16.67
   0  -5   0  239.75   18.04
   0  -5   0  244.51   18.93
   0   5   0  218.68   14.55
   0  -5   0  233.46   14.51
   0   5   1  423.02   19.22
   0   5   1  404.66   23.31
   0  -5  -1  400.64   24.97
   0  -5  -1  448.67   30.26
   0   5   1  378.76   24.97
   0  -5  -1  371.43   25.97
   0  -5  -1  433.90   29.03
   0  -5  -1  429.25   20.53
   0   5   1  434.96   19.15
   0   5   2    1.74    1.01
   0  -5  -2    2.23    1.48
   0   5   2    1.16    0.66
   0   5   2    0.78    0.66
   0  -5  -2    1.09    1.73
   0   5   2    3.20    1.61
   0  -5  -2    0.96    1.09
   0   5   2    2.71    1.02
   0  -5  -2    4.43    2.79
   0  -5  -2    2.71    2.04
   0  -5  -2    1.97    0.89
   0   5   2    0.75    1.47
   0  -5  -2    3.88    1.66
   0   5   3  144.14    9.33
   0  -5  -3  132.36   16.10
   0   5   3  138.74   12.43
   0  -5  -3  137.90   14.70
   0   5   3  135.69   12.69
   0  -5  -3  150.61   16.61
   0   5   3  151.20    8.70
   0   5   3  148.95    9.23
   0  -5  -3  143.91    9.84
   0   5   3  140.69    8.45
   0  -5  -3  145.07    8.52
   0  -5  -4   91.33   14.16
   0   5   4   93.10   10.23
   0   5   4   78.69    5.73
   0  -5  -4   83.52    6.21
   0   5   4   86.03    6.45
   0  -5  -4   82.62    7.42
   0  -5  -5  215.56   11.85
   0   5   5  215.57   12.81
   0  -5  -5  191.87   21.28
   0   5   5  201.07   12.35
   0   5   5  216.32   12.20
   0  -5  -5  185.15   12.92
   0  -5  -6  110.35    8.08
   0   5   6  111.32    8.64
   0  -5  -6  110.30   16.09
   0   5   6  117.40    8.57
   0   5   6  113.39    8.47
   0  -5  -6  128.01    9.96
   0   5   7   98.48    7.82
   0   5   7   84.41    7.09
   0  -5  -7   85.82    8.40
   0   5   7  101.39    7.87
   0  -5  -7   90.60    7.17
   0  -5  -7  112.42   16.08
   0  -5  -7   94.51   13.75
   0   5   7  103.11   14.82
   0  -5  -8  127.35    8.78
   0   5   8  127.22    8.62
   0   5   8  140.34    9.42
   0  -5  -8  118.47    9.95
   0  -5  -8  155.84   13.16
   0   5   8  130.76    8.94
   0  -5  -9    1.29    0.82
   0  -5  -9    0.40    1.27
   0   5   9    0.86    0.69
   0   5   9    0.94    0.65
   0   5   9    0.58    0.80
   0   5  10   53.12    4.37
   0  -5 -10   45.86    4.76
   0  -5 -10   50.55    6.00
   0  -5 -11    5.29    1.67
   0  -6  15   46.42    4.25
   0  -6  15   32.75    3.84
   0  -6  14   -0.29    0.80
   0  -6  14   -0.31    0.70
   0   6 -14    0.64    0.64
   0   6 -14    0.43    0.64
   0  -6  14    0.37    1.37
   0  -6  14    1.13    1.64
   0   6 -13  164.86   10.51
   0  -6  13  173.94   11.71
   0  -6  13  196.13   12.73
   0  -6  13  201.39   12.57
   0  -6  13  197.22   12.43
   0  -6  13  167.33   12.64
   0  -6  13  177.23   12.94
   0   6 -12  126.95    9.44
   0  -6  12  142.57   11.64
   0  -6  12  147.40   10.73
   0  -6  12  148.90   11.21
   0  -6  12  159.86   11.67
   0  -6  12  139.77   11.67
   0  -6  11   12.13    3.40
   0  -6  11   20.11    3.89
   0  -6  11   15.43    3.22
   0  -6  11   12.84    2.96
   0   6 -11   14.02    2.37
   0   6 -11   12.89    4.87
   0   6 -11   11.32    4.85
   0  -6  11   12.27    3.80
   0  -6  11   10.88    3.50
   0  -6  10   65.91    7.09
   0  -6  10   52.33    6.53
   0  -6  10   56.89    6.21
   0  -6  10   47.61    6.58
   0  -6  10   56.80    5.93
   0   6 -10   51.99    4.89
   0   6 -10   44.45    9.34
   0  -6  10   45.68    6.29
   0  -6  10   60.24    7.22
   0  -6   9  298.28   18.17
   0  -6   9  366.54   19.28
   0  -6   9  284.51   16.71
   0  -6   9  313.85   19.08
   0   6  -9  308.70   15.78
   0   6  -9  287.91   24.07
   0  -6   9  315.21   18.42
   0  -6   9  337.95   19.18
   0  -6   8  833.30   38.09
   0  -6   8  942.40   38.82
   0  -6   8  810.57   38.84
   0  -6   8  804.70   36.46
   0  -6   8  799.80   36.28
   0   6  -8  724.83   45.92
   0   6  -8  849.92   47.03
   0  -6   8  918.38   38.47
   0  -6   8  814.62   37.93
   0  -6   7   74.82    7.04
   0  -6   7   72.46   13.37
   0  -6   7   73.89   11.79
   0  -6   7   86.99    7.04
   0  -6   7   82.58    7.43
   0  -6   7   93.65    7.73
   0  -6   7   84.16    8.08
   0  -6   7   69.80    6.31
   0  -6   7   82.60    6.77
   0   6  -7   84.14   11.38
   0   6  -7   58.19    9.54
   0  -6   7  109.71   14.39
   0  -6   6  292.20   23.65
   0  -6   6  259.31   14.88
   0  -6   6  274.02   14.78
   0  -6   6  264.89   23.00
   0   6  -6  229.05   11.64
   0   6  -6  253.13   20.65
   0  -6   6  266.91   14.18
   0  -6   6  257.21   25.70
   0  -6   5  230.00   24.17
   0  -6   5  252.02   14.14
   0  -6   5  268.71   20.96
   0  -6   5  271.89   14.87
   0  -6   5  244.90   13.76
   0  -6   5  232.11   12.57
   0  -6   5  260.23   21.81
   0   6  -5  240.44   11.91
   0  -6   5  292.15   25.28
   0   6  -5  253.15   19.21
   0   6  -5  219.88   19.30
   0  -6   5  275.28   14.50
   0  -6   5  243.30   20.51
   0  -6   4  420.11   19.80
   0   6  -4  384.72   17.51
   0  -6   4  378.75   26.60
   0  -6   4  345.19   17.42
   0   6  -4  406.00   27.18
   0  -6   4  407.97   29.50
   0  -6   4  438.37   19.97
   0  -6   4  407.36   19.38
   0  -6   4  352.22   24.44
   0  -6   3  165.94   13.76
   0  -6   3  174.69   10.59
   0   6  -3  190.88   14.62
   0  -6   3  158.33   15.59
   0  -6   3  177.15   10.88
   0  -6   3  168.62   17.09
   0  -6   3  169.16    9.25
   0  -6   3  173.12   14.38
   0   6  -3  182.76    9.66
   0  -6   2  134.95   13.78
   0   6  -2  156.58   13.18
   0   6  -2  136.46    8.18
   0   6  -2  134.19   14.00
   0  -6   2  129.71    7.18
   0  -6   2  136.97    7.70
   0   6  -2  164.69   13.17
   0  -6   2  149.57   11.83
   0  -6   1  688.44   42.49
   0   6  -1  597.43   26.18
   0   6  -1  615.34   26.40
   0   6  -1  758.18   36.49
   0  -6   1  683.47   37.19
   0  -6   1  619.59   25.88
   0  -6   1  664.92   28.96
   0   6  -1  618.37   36.61
   0  -6   1  579.65   36.13
   0  -6   1  630.11   26.29
   0   6   0  206.17   14.87
   0  -6   0  217.34   21.52
   0   6   0  211.00   10.92
   0   6   0  205.50   11.03
   0  -6   0  243.41   19.50
   0  -6   0  205.52   10.39
   0   6   0  209.36   11.30
   0  -6   0  211.75   18.77
   0   6   0  189.93   17.36
   0  -6   0  211.51   10.62
   0   6   1  247.61   13.11
   0   6   1  257.78   17.45
   0  -6  -1  245.27   22.73
   0   6   1  243.40   13.10
   0  -6  -1  254.87   12.50
   0  -6  -1  271.05   23.01
   0   6   1  239.35   19.38
   0  -6  -1  226.77   20.63
   0   6   1  251.27   12.09
   0   6   1  248.95   13.06
   0  -6  -1  269.46   14.74
   0   6   2  136.38    8.60
   0  -6  -2  141.10    9.97
   0   6   2  123.93    7.69
   0   6   2  140.12    8.87
   0   6   2  134.65   11.78
   0  -6  -2  134.43    8.11
   0   6   2  120.95    8.15
   0  -6  -2  131.04   16.58
   0  -6  -2  109.44   14.63
   0   6   2  126.49   13.14
   0   6   2  165.32   17.34
   0   6   3  149.09    9.04
   0   6   3  158.73    9.91
   0  -6  -3  157.35   11.08
   0   6   3  146.63    9.09
   0   6   3  146.50    9.73
   0  -6  -3  160.29   19.03
   0  -6  -3  147.16   16.94
   0   6   3  157.17   18.21
   0  -6  -4  877.11   36.45
   0   6   4  799.62   35.43
   0   6   4  834.86   37.29
   0  -6  -4  976.10   40.07
   0   6   4  853.44   36.47
   0  -6  -4  857.92   53.72
   0  -6  -5   27.04    3.51
   0  -6  -5   26.93    4.66
   0   6   5   29.55    3.71
   0   6   6   13.10    2.61
   0  -6  -6   17.30    3.61
   0   6   6   24.49    3.35
   0  -6  -6   15.57    2.70
   0  -6  -6   14.08    5.64
   0   6   6   20.65    6.48
   0   6   6   17.28    3.02
   0   6   7    5.57    1.79
   0   6   7    7.81    1.99
   0   6   7    6.62    1.84
   0  -6  -7    6.73    2.33
   0  -6  -8   96.24    6.72
   0   6   8  108.52    7.31
   0  -6  -8   91.98    7.98
   0   6   8   95.81    6.69
   0   6   8  102.08    7.03
   0  -6  -9   49.80    5.87
   0   6   9   54.76    4.25
   0  -6  -9   37.20    4.29
   0   6   9   39.53    3.31
   0   6   9   41.96    3.50
   0  -6 -10    1.06    1.26
   0  -7  15   19.62    2.39
   0  -7  15   15.79    2.30
   0  -7  14    4.92    1.46
   0  -7  14    5.35    1.47
   0   7 -14    3.85    1.20
   0   7 -14    6.02    1.36
   0  -7  14    3.91    1.56
   0  -7  14    3.47    1.75
   0   7 -13   20.29    2.94
   0  -7  13   34.51    4.34
   0  -7  13   36.25    4.45
   0  -7  13   29.79    3.85
   0  -7  13   24.65    4.28
   0   7 -12   32.01    3.96
   0   7 -12   35.54    3.58
   0  -7  12   36.52    4.79
   0  -7  12   49.33    5.54
   0  -7  12   39.74    4.95
   0  -7  12   27.88    4.81
   0  -7  12   34.77    5.50
   0  -7  11   74.17    7.46
   0  -7  11   79.60    7.34
   0  -7  11   73.16    7.25
   0  -7  11   60.14    7.65
   0  -7  11   70.81    7.02
   0   7 -11   55.89    5.18
   0   7 -11   54.09   11.17
   0  -7  11   60.02    7.42
   0  -7  11   68.94    7.44
   0  -7  10   68.49    7.20
   0  -7  10   55.64    6.25
   0  -7  10   57.26    6.16
   0  -7  10   55.84    7.42
   0  -7  10   63.00    6.69
   0   7 -10   42.62    4.59
   0   7 -10   50.65    8.93
   0   7 -10   36.43    8.15
   0  -7  10   59.87    7.14
   0  -7  10   58.59    6.68
   0  -7   9  387.21   21.29
   0  -7   9  374.83   20.19
   0  -7   9  419.70   22.98
   0  -7   9  375.08   19.87
   0   7  -9  334.76   17.88
   0  -7   9  369.82   19.55
   0   7  -9  346.90   27.47
   0   7  -9  324.74   27.42
   0  -7   9  376.33   21.18
   0  -7   9  383.17   20.48
   0  -7   8  123.70   10.03
   0  -7   8  119.86    9.53
   0  -7   8  139.16   10.87
   0   7  -8  136.83    7.90
   0  -7   8  146.48   10.15
   0  -7   8  140.34   11.85
   0   7  -8  106.57   14.21
   0  -7   8  139.68    9.96
   0   7  -8  126.71   15.36
   0  -7   8  154.95   11.23
   0  -7   8  150.70   10.40
   0  -7   7   82.34    7.98
   0  -7   7   94.76    8.11
   0  -7   7   58.34   10.56
   0  -7   7   95.05    8.24
   0  -7   7   95.76    7.66
   0  -7   7   95.83    7.69
   0  -7   7  103.42   15.01
   0   7  -7   92.86   12.53
   0   7  -7   74.20   11.10
   0  -7   7   95.21    7.90
   0  -7   7   99.17    8.35
   0  -7   6   58.46    5.94
   0  -7   6   61.11   12.15
   0  -7   6   63.97    6.58
   0  -7   6   59.62    5.99
   0  -7   6   53.20    9.31
   0  -7   6   48.13    5.08
   0  -7   6   53.47    5.81
   0  -7   6   45.82    9.57
   0   7  -6   51.24    4.19
   0  -7   6   61.80    6.08
   0   7  -6   73.69   10.96
   0   7  -6   42.58    8.06
   0  -7   6   58.72   11.35
   0  -7   6   43.86    8.07
   0  -7   5  320.29   30.35
   0  -7   5  334.81   17.23
   0  -7   5  330.69   23.82
   0  -7   5  331.93   17.40
   0  -7   5  294.41   16.04
   0  -7   5  290.72   24.65
   0  -7   5  288.52   15.44
   0   7  -5  325.48   15.15
   0  -7   5  316.28   27.54
   0   7  -5  299.22   22.24
   0  -7   5  345.60   17.55
   0   7  -5  348.80   25.73
   0  -7   5  278.17   21.87
   0  -7   4  741.97   32.06
   0  -7   4  685.72   37.63
   0  -7   4  694.58   31.76
   0   7  -4  714.95   30.14
   0  -7   4  623.71   36.15
   0  -7   4  721.53   44.17
   0   7  -4  693.93   37.90
   0  -7   4  769.65   32.51
   0  -7   4  703.57   41.99
   0  -7   4  679.52   30.03
   0  -7   3    8.24    2.59
   0  -7   3    8.37    2.25
   0  -7   3    8.99    1.76
   0   7  -3    9.97    3.36
   0  -7   3    6.51    3.01
   0   7  -3    9.90    1.93
   0   7  -3    5.58    3.34
   0  -7   3    6.17    3.42
   0  -7   3    9.07    2.44
   0  -7   3    5.09    4.29
   0  -7   2  395.11   33.57
   0   7  -2  407.69   18.27
   0   7  -2  430.39   18.57
   0  -7   2  394.92   20.42
   0  -7   2  436.52   29.45
   0   7  -2  491.55   28.01
   0   7  -2  429.30   19.74
   0  -7   2  432.08   30.79
   0   7  -2  449.56   30.28
   0  -7   2  399.11   18.23
   0  -7   2  418.30   19.04
   0  -7   1   31.99    8.53
   0   7  -1   37.21    5.67
   0   7  -1   29.11    3.08
   0   7  -1   30.84    3.28
   0   7  -1   30.63    6.20
   0  -7   1   20.12    6.01
   0  -7   1   30.61    3.02
   0   7  -1   29.33    6.68
   0  -7   1   32.15    7.55
   0  -7   1   30.94    3.27
   0   7   0  782.72   41.11
   0  -7   0  808.06   52.05
   0  -7   0  886.30   38.01
   0   7   0  862.94   35.73
   0   7   0  862.63   35.98
   0  -7   0  874.63   49.09
   0  -7   0  811.59   34.95
   0   7   0  883.53   36.48
   0  -7   0  826.30   48.97
   0   7   0  832.94   46.71
   0  -7   0  861.79   38.39
   0  -7   0  888.44   35.59
   0  -7  -1  669.61   30.04
   0   7   1  658.02   28.70
   0  -7  -1  671.53   31.21
   0   7   1  626.47   28.77
   0  -7  -1  754.94   43.85
   0   7   1  652.57   28.96
   0  -7  -1  633.95   27.80
   0   7   1  591.51   37.85
   0  -7  -1  582.84   40.38
   0  -7  -1  691.95   28.22
   0   7   2  288.27   15.49
   0   7   2  295.63   15.40
   0   7   2  276.93   14.21
   0  -7  -2  310.87   17.60
   0   7   2  302.71   14.47
   0   7   2  274.33   15.02
   0  -7  -2  308.30   14.82
   0  -7  -2  305.18   26.37
   0   7   2  263.82   21.25
   0  -7  -2  327.11   14.94
   0   7   3   34.15    4.24
   0  -7  -3   38.50    5.30
   0   7   3   35.93    4.22
   0   7   3   43.26    4.08
   0   7   3   32.45    3.75
   0  -7  -3   35.68    3.84
   0  -7  -3   37.58    8.42
   0  -7  -3   37.50    8.92
   0  -7  -3   43.67    4.05
   0   7   4    4.17    1.67
   0   7   4    3.52    1.34
   0  -7  -4    5.14    2.30
   0   7   4    5.90    1.82
   0  -7  -4    5.05    1.51
   0  -7  -4    1.70    1.92
   0  -7  -4    7.51    3.79
   0   7   4   10.75    4.58
   0   7   4    4.00    1.20
   0  -7  -5  186.61   10.89
   0  -7  -5  211.14   22.80
   0  -7  -5  194.98   20.59
   0  -7  -5  189.54   13.29
   0   7   5  209.76   11.51
   0  -7  -6    8.90    1.84
   0   7   6    8.48    1.95
   0  -7  -6    7.97    2.34
   0   7   6    6.23    1.78
   0   7   6   10.71    2.03
   0   7   7  148.45    9.13
   0  -7  -7  143.27   10.27
   0   7   7  152.06    8.99
   0   7   7  148.81    8.94
   0  -7  -7  179.42   12.44
   0  -7  -8   75.18    6.22
   0   7   8   90.08    5.51
   0   7   8   87.78    5.62
   0   8 -14   12.11    1.79
   0  -8  14   13.50    2.32
   0  -8  14   10.01    2.06
   0  -8  14   14.11    2.23
   0  -8  14   11.28    1.92
   0  -8  13   28.72    3.76
   0  -8  13   32.63    3.73
   0  -8  13   24.08    3.11
   0  -8  13   27.23    3.77
   0  -8  13   28.44    4.01
   0   8 -12    2.30    0.92
   0  -8  12    7.05    2.12
   0  -8  12    1.79    1.28
   0  -8  12    1.28    1.14
   0  -8  12    3.34    1.88
   0  -8  12    1.47    1.38
   0  -8  12    2.70    1.53
   0   8 -11   -0.26    0.65
   0  -8  11    1.60    1.19
   0  -8  11    1.09    1.00
   0  -8  11    1.21    1.11
   0  -8  11    0.46    1.38
   0  -8  11    3.99    1.80
   0  -8  10    8.71    2.28
   0  -8  10   10.42    2.70
   0  -8  10    9.54    2.49
   0   8 -10    7.41    1.84
   0   8 -10   11.94    4.26
   0   8 -10    6.44    3.26
   0  -8  10    6.65    2.53
   0  -8  10    6.81    2.32
   0  -8   9   15.85    3.25
   0   8  -9   16.44    2.20
   0  -8   9   15.25    2.94
   0  -8   9   19.40    3.67
   0  -8   9   16.85    3.33
   0   8  -9   16.50    2.77
   0  -8   9   18.62    3.41
   0   8  -9   11.40    4.33
   0   8  -9   18.91    5.53
   0  -8   9   19.07    3.83
   0  -8   8   64.24    6.91
   0   8  -8   50.02    4.56
   0  -8   8   65.29   10.87
   0  -8   8   63.06    6.69
   0  -8   8   68.86    6.20
   0  -8   8   70.80    6.65
   0  -8   8   75.99    6.91
   0   8  -8   55.54    9.52
   0   8  -8   63.09   10.72
   0  -8   8   70.83    7.11
   0  -8   7  117.11   10.15
   0  -8   7  129.76    9.90
   0  -8   7  120.79    8.62
   0  -8   7  124.08    9.59
   0  -8   7  126.20    9.37
   0  -8   7  120.11   17.03
   0   8  -7  121.15    7.34
   0   8  -7  112.88   14.97
   0   8  -7   95.83   13.02
   0  -8   7  147.78   10.19
   0  -8   7  133.82    9.99
   0  -8   6  127.26   20.06
   0  -8   6  116.44    9.99
   0  -8   6  128.32    9.53
   0  -8   6  103.19    7.79
   0  -8   6  119.31    9.18
   0  -8   6  114.01   15.71
   0   8  -6  123.75    7.56
   0   8  -6  134.73   15.85
   0  -8   6  118.05   15.97
   0   8  -6  107.28   13.06
   0  -8   6  126.50    9.44
   0  -8   6  113.61    9.27
   0  -8   5    8.76    2.47
   0  -8   5    8.02    2.25
   0  -8   5    8.27    4.11
   0  -8   5    5.48    1.57
   0   8  -5    4.69    1.41
   0  -8   5    9.88    2.32
   0  -8   5    3.00    2.40
   0   8  -5    6.44    3.85
   0  -8   5   -1.99    3.88
   0  -8   5   13.15    3.14
   0  -8   4   69.71    6.67
   0  -8   4   63.81    8.18
   0  -8   4   64.38    6.33
   0  -8   4   72.45   11.79
   0  -8   4   68.53    5.74
   0   8  -4   74.21    5.76
   0   8  -4   77.43    9.95
   0   8  -4   57.62   10.23
   0  -8   4   75.02    6.95
   0  -8   4   94.77   13.40
   0  -8   4   85.37   15.52
   0  -8   3  161.10   10.06
   0  -8   3  173.41   11.49
   0  -8   3  214.02   20.36
   0   8  -3  186.85   10.59
   0   8  -3  183.64   18.93
   0   8  -3  162.03   14.87
   0  -8   3  175.08   19.34
   0  -8   3  197.81   23.40
   0  -8   3  190.67   12.78
   0  -8   2   20.79    3.79
   0   8  -2   19.55    4.30
   0  -8   2   12.79    6.55
   0   8  -2   18.27    2.33
   0   8  -2   19.96    2.50
   0  -8   2   20.32    3.32
   0  -8   2   16.84    5.51
   0   8  -2   27.48    3.38
   0   8  -2   15.99    5.05
   0  -8   2   16.52    5.42
   0  -8   2   17.72    2.31
   0   8  -2   19.01    4.73
   0  -8   2   21.09    2.81
   0  -8   1  225.59   25.74
   0  -8   1  285.56   16.72
   0   8  -1  274.38   13.95
   0   8  -1  292.34   14.33
   0  -8   1  282.94   24.84
   0   8  -1  300.02   24.69
   0  -8   1  306.70   17.09
   0  -8   1  277.14   13.67
   0  -8   1  289.23   14.51
   0  -8   0   90.22    7.72
   0   8   0   74.28    5.79
   0   8   0   78.87    6.10
   0  -8   0   90.65   13.26
   0   8   0   83.10    6.48
   0  -8   0   74.49    5.45
   0  -8   0   66.20   11.25
   0   8   0   80.74   11.17
   0  -8   0   73.47    5.74
   0   8   1   12.53    2.17
   0  -8  -1    9.09    2.64
   0   8   1   12.76    2.31
   0   8   1   13.80    2.42
   0  -8  -1   15.62    5.32
   0  -8  -1   13.52    2.18
   0   8   1    6.22    1.81
   0   8   1   11.53    3.94
   0  -8  -1   11.77    2.00
   0  -8  -1    9.55    2.41
   0  -8  -2   18.43    3.69
   0   8   2   16.70    2.30
   0   8   2   18.01    2.81
   0   8   2   17.23    2.80
   0  -8  -2   18.89    5.94
   0   8   2   18.45    2.75
   0  -8  -2   16.66    2.40
   0  -8  -2   10.22    4.40
   0  -8  -2   14.37    3.14
   0   8   2   20.72    6.06
   0   8   3   36.02    4.12
   0   8   3   39.68    3.71
   0  -8  -3   40.10    5.39
   0   8   3   37.09    4.27
   0  -8  -3   34.98    8.16
   0   8   3   34.03    3.72
   0  -8  -3   31.47    4.73
   0  -8  -3   43.42    9.04
   0   8   3   48.59    9.49
   0   8   4  262.28   13.76
   0  -8  -4  271.65   16.30
   0  -8  -4  312.41   17.46
   0   8   4  317.95   14.78
   0   8   4  329.34   15.84
   0   8   4  308.61   15.81
   0   8   5    2.68    1.13
   0  -8  -5    0.39    1.07
   0   8   5    1.09    0.74
   0   8   5    2.01    1.02
   0  -8  -6   76.37    6.56
   0  -8  -6   84.03    7.88
   0   8   7   13.56    1.86
   0  -8  -7   11.48    2.73
   0  -8  -7    8.86    1.89
   0   8   7   12.45    1.74
   0  -8  -8   81.44    5.80
   0   9 -14    3.52    0.88
   0  -9  14    3.68    1.05
   0   9 -13    5.66    1.13
   0   9 -13    5.09    1.25
   0  -9  13    5.14    1.53
   0  -9  13    6.49    1.40
   0   9 -12  105.96    6.51
   0   9 -12  103.75    6.94
   0  -9  12  110.65    7.37
   0  -9  12  105.04    7.71
   0  -9  12   88.67    7.38
   0  -9  12  110.60    8.12
   0   9 -11    1.91    0.86
   0  -9  11    2.45    1.25
   0  -9  11    3.17    1.04
   0  -9  11    2.97    1.72
   0   9 -10   16.97    2.71
   0  -9  10   18.50    3.31
   0  -9  10   18.40    2.82
   0  -9  10   18.00    3.07
   0  -9  10   22.94    3.78
   0  -9   9   95.25    8.34
   0   9  -9   91.91    6.20
   0  -9   9   95.37    7.14
   0  -9   9   98.52    7.94
   0  -9   9   97.61    8.19
   0   9  -9  100.07    7.34
   0  -9   9  106.15    8.46
   0   9  -9   98.35   12.70
   0   9  -9  124.16   14.59
   0  -9   9  103.18    8.75
   0  -9   8  148.01   11.56
   0   9  -8  147.48    9.04
   0  -9   8  158.20   10.84
   0  -9   8  175.22   11.41
   0   9  -8  163.00   10.14
   0   9  -8  151.87   16.06
   0  -9   8  167.06   11.22
   0   9  -8  146.56   17.20
   0  -9   8  168.63   11.63
   0  -9   7   15.77    3.69
   0   9  -7   15.97    2.51
   0  -9   7   19.31    3.44
   0  -9   7   12.95    2.81
   0  -9   7   19.95    3.35
   0  -9   7   14.60    5.52
   0   9  -7   16.36    2.31
   0  -9   7   20.37    3.46
   0   9  -7   19.91    5.32
   0   9  -7   16.42    5.37
   0  -9   7   13.84    3.09
   0  -9   6   67.90    6.77
   0  -9   6   53.68    5.87
   0  -9   6   72.47   12.28
   0   9  -6   70.94    5.49
   0   9  -6   67.92   11.52
   0   9  -6   56.46    8.91
   0  -9   6   67.71    6.71
   0  -9   6   67.84    7.36
   0  -9   5  201.38   12.64
   0  -9   5  213.28   22.53
   0   9  -5  195.56   11.29
   0  -9   5  197.26   20.76
   0   9  -5  190.16   17.08
   0  -9   5  217.08   13.50
   0  -9   5  213.58   13.57
   0  -9   4   72.12    6.84
   0  -9   4   80.59   13.11
   0  -9   4   79.19    6.37
   0   9  -4   70.01    5.94
   0   9  -4   88.95   13.11
   0  -9   4   75.03    7.23
   0  -9   4   85.65    8.36
   0  -9   3   27.71    4.06
   0  -9   3   35.18    8.66
   0  -9   3   27.21    3.58
   0   9  -3   33.91    3.89
   0  -9   3   43.73    9.07
   0   9  -3   42.66    8.58
   0  -9   3   34.95    5.21
   0  -9   2   29.04    4.65
   0   9  -2   30.34    3.11
   0   9  -2   29.63    3.16
   0  -9   2   33.74    8.01
   0   9  -2   31.21    3.81
   0  -9   2   43.43    9.00
   0   9  -2   28.19    6.86
   0  -9   2   30.71    4.60
   0  -9   2   28.21    3.51
   0  -9   1   24.55    4.26
   0   9  -1   31.96    3.68
   0   9  -1   29.23    3.26
   0  -9   1   35.73    4.54
   0   9  -1   27.10    3.22
   0  -9   1   39.71    8.68
   0  -9   1   33.55    4.86
   0   9  -1   28.97    6.75
   0  -9   1   20.28    6.20
   0   9  -1   43.85    7.79
   0  -9   1   29.51    3.45
   0  -9   0  198.90   12.69
   0   9   0  180.05   10.64
   0  -9   0  213.10   13.68
   0   9   0  185.03   10.62
   0   9   0  199.69   11.06
   0  -9   0  183.37   12.26
   0  -9   0  192.65   20.86
   0   9   0  200.54   11.50
   0   9   0  203.11   18.28
   0  -9   0  187.27   12.99
   0   9   0  215.26   19.25
   0  -9   0  189.05   10.72
   0  -9  -1    0.69    1.17
   0   9   1    0.89    0.62
   0  -9  -1    1.80    1.61
   0   9   1    0.26    0.59
   0   9   1    2.77    1.08
   0  -9  -1    5.81    3.27
   0   9   1    1.41    1.06
   0  -9  -1    1.73    1.38
   0   9   1    2.48    1.98
   0   9   2   77.68    5.89
   0   9   2   69.34    5.86
   0  -9  -2   70.82    6.99
   0   9   2   79.41    6.00
   0  -9  -2   78.15    7.47
   0   9   3   22.25    2.67
   0  -9  -3   25.19    3.73
   0   9   3   25.16    3.12
   0  -9  -3   25.00    3.90
   0   9   3   24.79    3.30
   0  -9  -4   54.05    5.20
   0  -9  -4   63.01    5.95
   0   9   4   65.51    5.10
   0   9   4   59.75    5.04
   0   9   5   70.54    5.07
   0   9   5   74.27    5.06
   0  -9  -5   55.50    5.31
   0   9   5   55.71    4.95
   0  -9  -6    2.33    0.98
   0  -9  -6    5.68    1.58
   0  10 -13   35.60    2.90
   0  10 -12   15.06    2.04
   0  10 -12   12.48    1.83
   0 -10  12   12.68    2.22
   0 -10  12   16.81    2.59
   0  10 -11   27.57    3.05
   0  10 -11   33.91    3.34
   0 -10  11   29.36    4.08
   0 -10  11   29.98    3.69
   0 -10  11   28.79    3.71
   0  10 -10    0.24    0.61
   0 -10  10    0.34    0.78
   0 -10  10    0.66    1.05
   0  10  -9  104.85    6.54
   0  10  -9  112.02    7.62
   0 -10   9  115.10    8.50
   0 -10   9   98.50    8.39
   0 -10   9  102.07    8.23
   0  10  -8   67.23    5.28
   0 -10   8   83.56    7.05
   0 -10   8   67.08    6.52
   0 -10   8   64.16    6.94
   0  10  -7   15.98    2.54
   0 -10   7   23.08    3.82
   0  10  -7   21.22    2.60
   0  10  -7   23.06    3.23
   0 -10   7   17.65    6.04
   0 -10   7   23.82    3.74
   0  10  -7   30.94    7.31
   0 -10   7   20.26    3.51
   0 -10   7   19.86    4.02
   0  10  -6  139.37    8.95
   0 -10   6  152.96   10.84
   0  10  -6  135.38    8.62
   0 -10   6  158.12   18.68
   0 -10   6  148.99   10.55
   0 -10   6  147.94   11.41
   0  10  -5    1.07    0.74
   0 -10   5    0.83    0.93
   0 -10   5    0.86    1.27
   0  10  -5    0.28    0.69
   0  10  -4  133.51    8.82
   0 -10   4  142.19   18.25
   0  10  -4  152.89   17.39
   0 -10   4  141.91   11.12
   0  10  -3  147.22    9.44
   0  10  -3  161.97    9.80
   0 -10   3  157.46   18.40
   0 -10   3  156.27    9.70
   0  10  -3  149.93   16.58
   0 -10   3  159.95   11.82
   0  10  -2  119.98    7.93
   0 -10   2  118.73    7.89
   0  10  -2  122.28    8.18
   0  10  -2  126.82   14.51
   0 -10   2  118.46    9.45
   0 -10   2  107.73    9.26
   0  10  -1   46.18    4.57
   0  10  -1   51.60    4.27
   0  10  -1   44.75    3.95
   0 -10   1   55.35    6.11
   0  10  -1   45.67    4.32
   0 -10   1   52.25    5.68
   0  10   0    6.50    1.59
   0  10   0   10.81    1.89
   0  10   0    3.84    1.24
   0  10   0    5.53    1.35
   0 -10   0    8.68    2.43
   0 -10   0    5.14    1.83
   0  10   1  134.38    8.05
   0 -10  -1  115.99    8.90
   0  10   1  135.54    7.88
   0 -10  -1  135.73    9.84
   0  10   1  124.16    7.95
   0  10   2    1.95    0.92
   0 -10  -2    2.68    1.17
   0  10   2    2.07    0.88
   0 -10  -2    1.03    1.16
   0  10   2    2.86    0.95
   0 -10  -3   96.95    7.52
   0  10   3  107.86    6.55
   0  10   3  108.87    6.67
   0  10   4   45.86    3.52
   0 -10  -4   43.36    4.10
   0  10   4   46.15    3.59
   0  11 -12   13.69    1.56
   0 -11  12   10.96    1.74
   0 -11  12   13.32    1.96
   0  11 -11   10.30    1.62
   0 -11  11   14.58    2.54
   0 -11  11   10.78    1.89
   0 -11  11   10.76    1.93
   0  11 -10    0.78    0.66
   0 -11  10    1.32    0.94
   0 -11  10    1.32    0.79
   0  11  -9   11.79    1.76
   0 -11   9   13.50    2.40
   0 -11   9   13.23    2.50
   0 -11   8   10.74    2.37
   0  11  -8   10.34    1.76
   0  11  -8   11.48    2.03
   0 -11   8   10.74    2.31
   0 -11   8   11.24    2.80
   0 -11   7   42.17    4.77
   0  11  -7   39.35    3.62
   0  11  -7   42.17    4.16
   0 -11   7   51.45    5.41
   0  11  -7   46.41    4.07
   0 -11   7   50.56    5.12
   0 -11   7   46.58    5.60
   0 -11   6    0.35    0.89
   0  11  -6    0.86    0.73
   0  11  -6    1.18    0.88
   0  11  -6    0.93    0.78
   0 -11   5   99.70    8.71
   0  11  -5   88.37    6.28
   0  11  -5   96.17    6.52
   0  11  -5   96.86    6.61
   0  11  -4    7.02    1.46
   0  11  -4    6.27    1.50
   0 -11   4    4.01    1.69
   0 -11   4    5.38    2.15
   0  11  -3   13.64    2.21
   0 -11   3   17.75    3.05
   0 -11   3   19.09    3.45
   0  11  -3   13.53    2.23
   0  11  -2    7.77    1.57
   0 -11   2    9.82    2.35
   0 -11   2   13.82    2.90
   0  11  -1   20.55    2.66
   0 -11   1   25.87    3.51
   0 -11   1   21.56    3.43
   0  11  -1   20.29    2.44
   0 -11   0  102.01    7.72
   0  11   0  108.88    6.07
   0  11   0  103.61    6.53
   0  11   0  114.65    6.27
   0 -11   0  100.06    7.30
   0 -11   0   97.85    6.91
   0  11   1    1.78    0.69
   0 -11  -1    2.70    1.05
   0 -11  -1    1.33    0.85
   0  11   1    4.20    0.95
   0  11   1    2.02    0.77
   0  11   2   53.94    3.66
   0  11   2   54.75    3.57
   0 -11  -2   51.71    4.40
   0 -11  -2   42.01    3.68
   0 -12  10    5.86    1.32
   0 -12  10    5.25    1.25
   0 -12   9   51.54    4.59
   0 -12   9   49.20    4.24
   0 -12   9   55.72    4.56
   0  12  -9   54.82    3.54
   0  12  -9   51.56    3.83
   0 -12   9   60.62    4.61
   0 -12   9   53.63    4.88
   0 -12   8   14.49    2.60
   0 -12   8   13.53    2.24
   0  12  -8   11.56    1.60
   0  12  -8   12.30    1.79
   0 -12   8   13.37    2.20
   0 -12   8   13.42    2.44
   0 -12   7    4.83    1.41
   0  12  -7    2.76    0.89
   0  12  -7    4.08    0.91
   0  12  -7    2.63    0.86
   0 -12   7    3.29    1.28
   0 -12   7    2.05    1.20
   0 -12   6    3.16    1.19
   0  12  -6    2.51    0.87
   0  12  -6    3.36    0.96
   0  12  -6    2.43    0.88
   0 -12   6    3.17    1.20
   0 -12   6    2.41    1.15
   0  12  -5   32.83    3.04
   0 -12   4   33.95    3.89
   0  12  -4   43.86    3.63
   0  12  -4   43.56    3.56
   0 -12   3   13.04    2.25
   0  12  -3   11.86    1.79
   0 -12   3   14.59    2.48
   0  12  -3   13.11    1.76
   0  12  -2   16.27    1.83
   0 -12   2   11.18    2.08
   0 -12   2   11.76    2.02
   0 -12   2   15.25    2.41
   0 -12   1   12.80    1.89
   0  12  -1   13.37    1.70
   0 -12   1   14.17    2.26
   0 -12   1    9.79    1.76
   0 -12   1    7.52    1.50
   0 -12   0   24.73    2.73
   0  12   0   27.71    2.27
   0 -13   8   26.98    2.75
   0 -13   8   32.07    2.89
   0 -13   7    6.75    1.48
   0  13  -7    6.02    0.96
   0 -13   7    6.54    1.26
   0 -13   7    7.90    1.38
   0 -13   7    4.36    1.15
   0  13  -6    7.84    1.14
   0 -13   6    8.14    1.78
   0 -13   6    7.60    1.43
   0  13  -5   24.58    2.06
   0 -13   5   23.47    2.83
   0 -13   5   24.20    2.48
   0 -13   5   24.63    2.58
   0  13  -4    0.41    0.33
   0 -13   4    0.17    0.71
   0 -13   4    0.77    0.52
   0 -13   4    0.32    0.44
   0 -13   3   18.40    2.10
   0 -13   3   18.60    2.07
   0 -13   2    0.32    0.44
   1 -13   2   32.24    2.41
   1 -13   3    0.65    0.71
   1 -13   3    0.53    0.54
   1 -13   3    0.48    0.59
   1 -13   4   23.12    2.58
   1 -13   4   25.43    2.57
   1 -13   4   17.86    2.27
   1 -13   5    1.07    0.78
   1 -13   6   39.08    3.40
   1 -13   7    4.89    1.21
   1 -13   7    6.39    1.33
   1 -13   7    2.80    0.84
   1 -13   8    1.59    0.68
   1 -13   8    2.13    0.75
  -1  12   0   24.16    2.10
   1 -12   0   20.05    2.09
   1 -12   1   10.72    1.75
  -1  12  -1   11.18    1.55
   1 -12   1   10.50    1.80
   1 -12   1   11.47    1.72
  -1  12  -2   28.68    2.73
  -1  12  -2   23.92    2.36
   1 -12   2   26.07    3.20
   1 -12   2   29.09    3.36
   1 -12   3   15.30    2.63
   1 -12   3   13.20    2.09
  -1  12  -3   12.03    1.72
  -1  12  -3   17.50    2.12
   1 -12   3   13.75    1.94
   1 -12   3   13.00    2.42
   1 -12   3   13.14    2.39
   1 -12   4   15.22    2.80
   1 -12   4   17.32    2.52
  -1  12  -4   14.17    1.94
   1 -12   4   12.99    2.19
  -1  12  -4   14.49    1.98
   1 -12   4   15.57    2.28
   1 -12   4   13.13    2.59
   1 -12   5   33.52    4.12
   1 -12   5   31.76    3.50
  -1  12  -5   26.44    2.76
  -1  12  -5   26.85    2.68
   1 -12   5   30.15    3.29
   1 -12   5   26.18    3.73
   1 -12   5   26.88    3.17
   1 -12   6   10.50    1.98
  -1  12  -6    8.25    1.47
  -1  12  -6   11.51    1.60
   1 -12   6    9.45    1.78
   1 -12   6    7.98    1.86
   1 -12   6    8.90    2.13
   1 -12   7    3.74    1.66
   1 -12   7    6.39    1.59
  -1  12  -7    5.08    1.11
  -1  12  -7    5.36    1.23
  -1  12  -7    3.93    0.83
   1 -12   7    5.49    1.49
   1 -12   7    5.29    1.62
   1 -12   7    4.97    1.77
  -1  12  -8    0.91    0.46
   1 -12   8    0.89    0.71
   1 -12   8    1.63    1.00
   1 -12   8    1.49    0.97
  -1  12  -9   17.97    2.03
   1 -12   9   20.04    2.51
   1 -12   9   21.87    2.85
   1 -12  10   27.22    2.95
  -1  12 -10   20.98    2.05
  -1  11   2    6.16    1.07
  -1  11   2    5.16    1.01
  -1  11   1   66.65    4.38
  -1  11   1   70.47    4.42
  -1  11   1   73.16    4.76
   1 -11  -1   67.43    4.85
   1 -11  -1   67.09    4.66
  -1  11   0    6.57    1.43
   1 -11   0    4.88    1.47
  -1  11   0    5.53    1.10
   1 -11   0    4.93    1.39
   1 -11   0    5.64    1.38
   1 -11   1  129.70    8.92
   1 -11   1  124.80    8.51
  -1  11  -1  138.16    7.81
   1 -11   1  140.12    9.29
   1 -11   1  130.86    8.01
   1 -11   1  138.06    8.32
   1 -11   2   10.88    2.17
   1 -11   2   16.25    2.76
  -1  11  -2   14.67    2.31
   1 -11   2   13.33    2.32
   1 -11   2   14.77    3.00
   1 -11   3   26.46    3.34
   1 -11   3   23.75    3.39
  -1  11  -3   18.88    2.69
   1 -11   3   15.89    2.71
   1 -11   3   16.91    3.37
  -1  11  -4   12.79    2.18
   1 -11   4   12.02    2.84
   1 -11   4   12.36    2.46
   1 -11   4   16.04    2.59
   1 -11   5   41.41    4.61
   1 -11   5   28.01    3.95
  -1  11  -5   33.69    3.49
   1 -11   5   30.92    3.96
   1 -11   5   27.93    4.53
   1 -11   6   65.56    6.72
   1 -11   6   54.61    5.74
   1 -11   6   70.90    6.31
  -1  11  -6   68.69    5.02
   1 -11   6   66.61    6.09
   1 -11   6   73.49    6.90
   1 -11   7    2.62    1.39
   1 -11   7    2.27    1.54
   1 -11   7    4.95    1.96
  -1  11  -7    2.21    0.82
   1 -11   7    3.91    1.52
   1 -11   7    3.17    1.73
   1 -11   8   45.61    5.13
   1 -11   8   51.88    5.06
  -1  11  -8   43.70    3.75
   1 -11   8   41.32    4.58
   1 -11   8   45.39    5.09
   1 -11   8   46.92    5.27
   1 -11   8   39.60    4.52
  -1  11  -9    0.73    0.52
   1 -11   9    0.29    0.80
   1 -11   9    0.57    1.01
  -1  11  -9    1.04    0.74
   1 -11   9    2.26    1.36
  -1  11 -10    9.44    1.58
   1 -11  10    6.46    1.77
   1 -11  10    9.53    2.28
  -1  11 -11   22.73    2.22
   1 -11  11   20.80    2.80
   1 -11  11   18.88    2.72
   1 -11  11   21.37    2.73
   1 -11  12   17.92    2.10
  -1  10   4    8.83    1.42
  -1  10   4    8.25    1.40
  -1  10   3   69.13    4.94
  -1  10   3   73.67    5.13
   1 -10  -3   67.67    4.64
   1 -10  -3   69.01    4.80
  -1  10   2  124.86    7.35
   1 -10  -2  105.67    7.49
  -1  10   2  120.40    7.34
  -1  10   2  117.27    7.13
   1 -10  -2  113.10    7.05
   1 -10  -2  119.27    7.35
   1 -10  -1   12.85    2.51
  -1  10   1    9.38    1.59
   1 -10  -1   10.62    2.28
  -1  10   1   15.34    2.27
  -1  10   1   12.60    2.06
   1 -10  -1   14.71    2.36
  -1  10   1   11.04    2.11
   1 -10  -1   13.12    2.16
   1 -10  -1    7.27    1.92
   1 -10   0  110.37    8.26
   1 -10   0  110.31    8.48
  -1  10   0  103.65    6.83
   1 -10   0  110.20    8.21
  -1  10   0  106.84    6.86
  -1  10   0  114.19    7.70
   1 -10   0   91.42    7.17
   1 -10   0  102.12    7.13
   1 -10   0  116.54    7.81
   1 -10   1    0.73    1.00
  -1  10  -1   -0.42    0.75
  -1  10  -1   -0.20    0.45
   1 -10   1    2.06    1.54
   1 -10   1   -0.32    0.80
   1 -10   1    0.89    0.89
   1 -10   2   56.84    6.07
   1 -10   2   67.56   11.63
   1 -10   2   75.45   13.36
   1 -10   2   64.60    7.01
  -1  10  -2   73.74    6.07
  -1  10  -2   81.05   12.16
   1 -10   2   70.99    6.36
   1 -10   2   73.68    6.24
   1 -10   3   71.82    6.97
   1 -10   3   75.64   12.54
   1 -10   3  108.25   16.43
   1 -10   3   78.32    7.85
  -1  10  -3   78.05    6.46
  -1  10  -3   86.12   12.78
   1 -10   3   80.40    7.05
   1 -10   3   92.94    7.17
  -1  10  -4   70.19   10.11
   1 -10   4   76.82    6.58
   1 -10   4   78.29   12.77
   1 -10   4   72.20    6.99
  -1  10  -4   74.68    6.05
  -1  10  -4   68.48    9.96
   1 -10   4   72.32    6.83
   1 -10   4   78.52    8.00
  -1  10  -5  145.50    8.82
   1 -10   5  156.23   11.52
   1 -10   5  123.48    9.91
   1 -10   5  144.68   10.12
  -1  10  -5  108.00   15.42
  -1  10  -5  125.41   14.20
   1 -10   5  126.85    9.29
   1 -10   5  122.07   16.93
   1 -10   6    0.49    1.57
   1 -10   6   -0.40    1.26
   1 -10   6    0.83    1.14
  -1  10  -6    1.22    0.91
  -1  10  -6    1.39    1.56
   1 -10   6    1.59    1.19
   1 -10   6    4.37    2.12
   1 -10   6    3.91    1.96
   1 -10   7  159.24   10.77
   1 -10   7  154.55   11.38
  -1  10  -7  136.58    8.34
   1 -10   7  170.48   11.08
   1 -10   7  152.70   11.58
   1 -10   8    1.13    1.41
   1 -10   8    3.14    1.54
   1 -10   8    2.18    1.77
   1 -10   8    3.82    1.44
   1 -10   8    3.49    1.58
  -1  10  -9   91.27    5.90
   1 -10   9  105.75    8.22
   1 -10   9  101.51    7.44
   1 -10   9   91.64    7.63
   1 -10   9   97.29    8.67
   1 -10   9   86.03    6.87
   1 -10   9   87.49    7.52
  -1  10 -10   45.85    4.21
   1 -10  10   55.51    5.96
   1 -10  10   48.72    5.00
   1 -10  10   53.49    4.96
   1 -10  10   46.78    5.13
  -1  10 -11    3.05    0.96
   1 -10  11    7.17    2.08
   1 -10  11    2.75    1.33
   1 -10  11    3.45    1.28
   1 -10  11    3.27    1.35
  -1  10 -12    6.86    1.18
   1 -10  12   10.94    1.97
   1 -10  12    9.84    1.73
   1 -10  12    9.54    1.71
   1 -10  12    6.84    1.60
   1 -10  12    9.17    2.21
  -1   9   6   46.26    3.55
  -1   9   5   -0.21    0.67
   1  -9  -5    0.78    0.55
   1  -9  -5   -0.17    0.54
  -1   9   5    0.39    0.58
   1  -9  -4   74.12    5.44
  -1   9   4   69.27    5.61
  -1   9   4   68.21    5.44
   1  -9  -4   75.57    5.39
   1  -9  -3   30.35    3.47
  -1   9   3   23.58    2.94
  -1   9   3   30.96    3.60
   1  -9  -3   22.29    3.38
  -1   9   3   30.33    3.55
   1  -9  -3   32.29    3.59
  -1   9   2   74.92    6.02
   1  -9  -2   75.74    6.67
  -1   9   2   69.00    4.95
  -1   9   2   86.79    6.52
  -1   9   2   66.36    5.74
   1  -9  -2   80.43    6.08
   1  -9  -2   62.36    5.50
   1  -9  -2   73.30    6.02
   1  -9  -1   33.74    4.43
   1  -9  -1   34.40    4.51
  -1   9   1   33.72    3.85
   1  -9  -1   35.20    4.50
  -1   9   1   37.00    4.05
   1  -9  -1   45.61    9.32
  -1   9   1   35.80    4.08
   1  -9  -1   36.67    4.03
  -1   9   1   37.37    7.92
   1  -9  -1   32.07    3.97
  -1   9   1   35.68    7.84
   1  -9  -1   34.68    4.05
   1  -9   0    2.55    1.92
   1  -9   0    1.69    1.90
   1  -9   0    1.97    1.26
  -1   9   0    2.98    1.15
  -1   9   0    0.54    0.75
   1  -9   0    7.47    3.76
   1  -9   0    3.74    1.49
  -1   9   0    2.24    1.14
   1  -9   0    2.89    1.31
  -1   9   0    4.15    2.70
   1  -9   0    1.02    1.02
  -1   9   0    2.52    2.01
   1  -9   1  197.50   12.82
  -1   9  -1  193.83   11.01
  -1   9  -1  194.28   10.92
   1  -9   1  212.63   22.22
  -1   9  -1  207.57   21.97
   1  -9   1  217.31   11.87
   1  -9   1  195.71   12.38
   1  -9   1  204.15   12.07
   1  -9   2    8.78    2.13
   1  -9   2    6.00    3.39
  -1   9  -2   12.89    4.20
  -1   9  -2    7.44    1.95
  -1   9  -2    8.85    4.08
   1  -9   2    7.22    2.08
   1  -9   2    6.63    1.72
   1  -9   2   11.10    2.72
  -1   9  -2    9.53    1.72
   1  -9   3   52.43    6.63
   1  -9   3   37.08    4.82
   1  -9   3   45.46    5.46
   1  -9   3   53.16   10.25
  -1   9  -3   39.80    4.51
   1  -9   3   46.91    5.39
   1  -9   3   45.24    4.87
   1  -9   4   40.43    5.20
   1  -9   4   47.39    6.15
   1  -9   4   46.44    5.45
   1  -9   4   41.67    9.16
  -1   9  -4   44.24    4.59
  -1   9  -4   44.67    9.31
   1  -9   4   38.84    4.96
   1  -9   4   39.68    4.64
  -1   9  -5  199.25   11.70
   1  -9   5  209.88   13.76
   1  -9   5  224.23   13.77
  -1   9  -5  221.04   22.20
   1  -9   5  203.51   12.48
   1  -9   5  219.16   23.18
   1  -9   6  129.03    9.63
   1  -9   6  106.15    8.32
   1  -9   6  115.84   16.13
   1  -9   6  115.28    9.32
  -1   9  -6  110.48    7.48
  -1   9  -6  109.44   15.08
   1  -9   6  119.99    9.41
  -1   9  -6   96.26   13.71
   1  -9   6   98.48    9.57
   1  -9   6  102.29    9.45
   1  -9   7   23.84    4.33
   1  -9   7   24.96    4.68
  -1   9  -7   26.05    2.95
  -1   9  -7   24.85    6.65
   1  -9   7   30.50    4.42
   1  -9   7    4.16    3.41
   1  -9   7   24.42    4.49
   1  -9   7   23.75    7.19
   1  -9   7   20.81    3.74
   1  -9   8    5.70    2.68
   1  -9   8    3.83    1.93
   1  -9   8    7.47    2.34
  -1   9  -8    5.23    2.95
  -1   9  -8    3.87    2.52
   1  -9   8    5.80    3.78
   1  -9   8    4.37    2.19
   1  -9   8    5.12    1.89
   1  -9   8    3.53    1.58
   1  -9   9   32.38    4.41
   1  -9   9   33.76    4.72
   1  -9   9   24.41    4.52
   1  -9   9   25.21    4.01
   1  -9   9   27.99    3.80
   1  -9   9   24.76    4.51
   1  -9   9   29.15    4.42
   1  -9   9   23.56    4.03
   1  -9  10   35.29    5.31
   1  -9  10   35.41    4.88
   1  -9  10   34.36    4.77
   1  -9  10   40.93    4.94
  -1   9 -10   34.83    3.80
   1  -9  11   27.60    4.14
   1  -9  11   28.81    4.54
   1  -9  11   26.89    3.99
   1  -9  11   35.18    4.20
  -1   9 -11   23.37    2.86
   1  -9  12    3.67    1.71
   1  -9  12    0.93    1.22
   1  -9  12    1.69    1.01
   1  -9  12    2.84    1.33
   1  -9  13   40.52    4.10
   1  -9  13   32.05    4.11
   1  -9  13   39.87    3.63
  -1   9 -13   35.64    3.28
   1  -9  14    3.67    1.12
   1  -8  -8   33.87    2.99
   1  -8  -7   50.29    3.86
  -1   8   7   51.69    4.06
   1  -8  -7   54.20    5.06
  -1   8   7   56.48    4.04
   1  -8  -6   17.07    2.39
   1  -8  -6   16.43    3.12
   1  -8  -6   15.33    2.21
   1  -8  -5  100.68    7.66
  -1   8   5  108.17    7.75
  -1   8   5  121.88    8.29
   1  -8  -5  122.31    7.95
   1  -8  -5  126.10    7.80
   1  -8  -5  116.94    9.56
   1  -8  -4    6.48    1.87
  -1   8   4    9.03    2.04
  -1   8   4    6.65    1.97
   1  -8  -4   10.74    2.16
  -1   8   4    7.60    1.58
   1  -8  -4    8.17    1.94
   1  -8  -4    8.14    2.49
  -1   8   3  289.56   15.94
   1  -8  -3  346.42   27.79
   1  -8  -3  304.25   15.59
  -1   8   3  259.18   14.71
   1  -8  -3  264.20   15.81
  -1   8   3  297.82   15.86
   1  -8  -3  323.04   15.85
   1  -8  -2   90.96    8.39
   1  -8  -2   88.89    7.97
  -1   8   2   95.14    7.41
  -1   8   2  102.10    7.80
   1  -8  -2   77.51   13.50
   1  -8  -2  107.66    7.70
  -1   8   2   93.49    7.32
  -1   8   2   93.54   12.93
   1  -8  -2  110.32    7.75
   1  -8  -1   70.56    6.90
   1  -8  -1   74.43   12.62
  -1   8   1   49.24    8.48
  -1   8   1   64.61    5.91
   1  -8  -1   61.81    6.41
  -1   8   1   70.13    6.11
   1  -8  -1   74.49   12.57
   1  -8  -1   76.33    6.22
  -1   8   1   65.63   10.97
   1  -8  -1   74.14    6.23
  -1   8   0   24.42    3.30
   1  -8   0   22.68    3.79
  -1   8   0   24.55    3.36
   1  -8   0   39.71    8.51
   1  -8   0   27.08    3.48
  -1   8   0   30.76    7.45
   1  -8   0   27.51    3.61
  -1   8   0   21.15    6.03
   1  -8   1  350.06   31.73
   1  -8   1  282.42   17.09
  -1   8  -1  245.94   21.29
   1  -8   1  277.83   16.23
  -1   8  -1  271.94   14.44
  -1   8  -1  284.44   14.50
   1  -8   1  269.00   24.73
   1  -8   1  299.83   15.05
   1  -8   1  283.22   15.87
  -1   8  -1  317.42   26.70
  -1   8  -1  283.37   23.82
   1  -8   1  300.62   15.33
   1  -8   2  379.19   19.29
   1  -8   2  399.52   21.84
   1  -8   2  351.29   28.86
   1  -8   2  400.70   20.18
  -1   8  -2  347.03   17.25
   1  -8   2  387.60   21.03
   1  -8   2  389.24   35.11
   1  -8   2  363.57   19.36
   1  -8   2  362.86   17.99
  -1   8  -2  346.99   30.03
  -1   8  -2  381.29   26.77
   1  -8   2  367.93   18.46
   1  -8   3    5.76    1.68
   1  -8   3    8.23    4.09
   1  -8   3    2.02    1.44
   1  -8   3    5.54    2.41
   1  -8   3   -2.02    3.22
   1  -8   3    5.73    1.60
  -1   8  -3    4.25    3.19
   1  -8   3    0.78    1.17
   1  -8   3    3.48    2.31
   1  -8   3    5.55    2.05
   1  -8   4  198.33   13.49
   1  -8   4  189.71   20.75
   1  -8   4  183.77   12.23
  -1   8  -4  179.77   19.93
   1  -8   4  191.40   12.35
   1  -8   4  166.97   10.86
   1  -8   5    3.86    1.54
   1  -8   5    1.51    1.71
   1  -8   5    2.48    1.86
  -1   8  -5    4.22    2.75
   1  -8   5    1.73    1.46
   1  -8   5    5.32    2.25
   1  -8   5    8.57    4.83
   1  -8   6   14.56    5.48
   1  -8   6    9.74    2.20
   1  -8   6   10.81    2.78
   1  -8   6    8.83    2.64
  -1   8  -6    8.81    1.85
  -1   8  -6    5.47    3.10
   1  -8   6   10.98    2.89
   1  -8   6    8.63    2.60
   1  -8   6    6.08    2.51
   1  -8   7  160.90   11.78
   1  -8   7  161.91   12.72
  -1   8  -7  175.62   18.92
  -1   8  -7  153.70   17.94
   1  -8   7  159.36   22.33
   1  -8   7  167.50   12.91
   1  -8   7  192.04   21.47
   1  -8   7  189.20   12.60
   1  -8   8   92.28    8.47
   1  -8   8   76.64    8.42
   1  -8   8   75.07    7.48
   1  -8   8   85.89    8.90
  -1   8  -8   82.02   11.89
   1  -8   8   90.55    8.43
   1  -8   8  108.32    8.76
   1  -8   8   69.87   13.68
   1  -8   8   85.50    8.46
   1  -8   9   57.47    7.44
   1  -8   9   54.73    6.46
   1  -8   9   70.92    6.99
   1  -8   9   55.83    5.94
   1  -8   9   46.85    5.50
   1  -8   9   52.43    6.43
   1  -8   9   59.47    7.29
   1  -8   9   50.14    6.73
   1  -8  10    3.20    1.64
   1  -8  10    7.81    3.32
   1  -8  10    6.19    2.28
   1  -8  10    2.87    2.30
   1  -8  10    8.25    2.98
  -1   8 -10    5.11    1.46
   1  -8  11   55.00    7.03
   1  -8  11   47.58    5.76
   1  -8  11   47.13    5.60
   1  -8  11   39.16    5.52
   1  -8  11   42.32    6.06
  -1   8 -11   38.27    3.83
   1  -8  12    0.37    1.11
   1  -8  12    2.25    1.61
   1  -8  12    2.42    1.64
   1  -8  13   15.48    2.54
  -1   8 -13   11.02    1.94
   1  -8  13   13.91    3.07
   1  -8  13   13.19    2.83
   1  -8  14    9.09    1.96
   1  -8  14   11.25    2.14
   1  -7  -9   49.13    4.35
   1  -7  -8   18.57    2.40
  -1   7   8   18.95    2.20
  -1   7   8   22.64    2.42
  -1   7   8   16.79    2.26
   1  -7  -8   17.75    3.21
   1  -7  -7  102.22    7.13
  -1   7   7  105.45    6.81
  -1   7   7   94.03    6.73
  -1   7   7  100.44    7.27
   1  -7  -7  116.84    9.55
   1  -7  -6  276.78   14.85
   1  -7  -6  299.56   18.16
  -1   7   6  300.89   14.45
   1  -7  -6  237.20   14.48
  -1   7   6  280.38   14.75
  -1   7   5   20.17    2.95
   1  -7  -5   23.28    3.58
   1  -7  -5   18.21    3.11
  -1   7   5   27.31    3.89
   1  -7  -4  263.90   14.22
  -1   7   4  228.96   12.77
  -1   7   4  245.49   14.50
   1  -7  -4  233.16   16.54
  -1   7   4  252.85   12.93
  -1   7   4  249.74   14.12
   1  -7  -4  214.66   13.88
  -1   7   3    1.88    1.12
  -1   7   3    1.40    0.84
   1  -7  -3    0.77    1.23
  -1   7   3    1.06    1.05
   1  -7  -3    1.66    1.06
   1  -7  -3    0.55    1.65
  -1   7   3   -1.10    0.05
  -1   7   2  191.74   18.85
   1  -7  -2  244.17   14.21
   1  -7  -2  251.11   23.55
   1  -7  -2  239.50   14.30
  -1   7   2  258.25   14.17
  -1   7   2  250.78   14.14
   1  -7  -2  253.83   13.74
   1  -7  -2  220.06   13.36
  -1   7   2  267.21   25.17
  -1   7   1   94.22    7.35
   1  -7  -1   96.67    7.90
  -1   7   1  106.15    7.72
   1  -7  -1   97.10   13.63
   1  -7  -1   94.31    7.18
   1  -7  -1   88.65    7.30
  -1   7   1   81.28   10.84
   1  -7  -1  109.12    8.55
   1  -7   0  363.56   19.75
   1  -7   0  337.11   30.91
  -1   7   0  351.38   25.41
   1  -7   0  354.71   18.92
  -1   7   0  349.97   17.96
  -1   7   0  351.88   17.89
   1  -7   0  354.97   27.82
   1  -7   0  371.72   17.90
   1  -7   0  339.66   18.51
   1  -7   0  400.73   18.16
   1  -7   0  399.27   18.36
  -1   7   0  391.54   29.45
   1  -7   1  853.75   37.93
   1  -7   1  819.51   35.12
   1  -7   1  857.08   37.38
   1  -7   1  860.19   54.46
   1  -7   1  791.74   35.51
  -1   7  -1  752.59   33.77
  -1   7  -1  759.38   33.70
   1  -7   1  769.26   46.42
   1  -7   1  750.08   33.73
   1  -7   1  795.35   35.42
   1  -7   1  828.29   34.37
  -1   7  -1  876.98   47.38
   1  -7   1  852.07   34.43
   1  -7   2    0.45    1.35
   1  -7   2    5.35    1.75
   1  -7   2    0.93    1.38
   1  -7   2    5.59    4.69
  -1   7  -2    1.59    0.89
   1  -7   2    2.54    1.47
   1  -7   2    6.99    3.21
   1  -7   2    1.32    1.03
   1  -7   2    3.23    1.22
   1  -7   2    1.43    0.99
   1  -7   2    2.12    1.12
  -1   7  -2    1.03    2.00
   1  -7   3  180.11   12.27
   1  -7   3  176.44   12.49
   1  -7   3  164.21   21.64
   1  -7   3  183.72   11.71
   1  -7   3  167.40   17.74
   1  -7   3  159.73    9.85
  -1   7  -3  221.10   20.54
   1  -7   3  201.13   12.11
  -1   7  -3  188.08   16.16
   1  -7   3  161.08   10.10
   1  -7   3  182.16   10.45
   1  -7   4   64.56    6.60
   1  -7   4   64.52    6.03
   1  -7   4   51.59    6.32
   1  -7   4   63.91    6.33
   1  -7   4   42.10    8.87
  -1   7  -4   47.12    9.41
   1  -7   4   59.15    6.03
   1  -7   4   50.56    4.86
   1  -7   4   50.20    4.83
   1  -7   5  799.92   40.31
   1  -7   5  804.34   56.79
   1  -7   5  862.43   52.41
   1  -7   5  922.70   41.54
   1  -7   5  888.40   37.42
  -1   7  -5  823.05   50.10
   1  -7   5  999.34   40.36
   1  -7   5  928.40   39.46
   1  -7   5  874.62   40.38
   1  -7   6  279.34   26.75
   1  -7   6  316.58   17.34
   1  -7   6  309.13   18.50
   1  -7   6  312.85   17.36
  -1   7  -6  304.59   25.17
   1  -7   6  308.56   17.17
   1  -7   6  281.89   17.61
   1  -7   6  283.25   16.76
   1  -7   7   64.35    7.38
   1  -7   7   68.34    7.06
  -1   7  -7   62.51   10.32
   1  -7   7   63.95    6.83
   1  -7   7   55.13   11.59
   1  -7   7   64.65    6.61
   1  -7   8   86.57    8.89
   1  -7   8   63.78    6.35
   1  -7   8   74.37    7.89
   1  -7   8   86.72    8.58
   1  -7   8   75.07    7.15
   1  -7   8   82.60    7.73
  -1   7  -8  101.67   12.60
   1  -7   8   61.84   11.79
   1  -7   8   71.78    7.09
   1  -7   9  172.22   10.52
   1  -7   9  162.02   13.28
   1  -7   9  200.03   11.75
   1  -7   9  197.15   12.56
   1  -7   9  170.56   12.15
  -1   7  -9  132.72   17.38
   1  -7   9  135.58   11.90
   1  -7   9  161.17   13.51
   1  -7   9  164.46   12.78
  -1   7 -10  307.12   16.39
   1  -7  10  356.39   18.46
   1  -7  10  351.52   21.11
   1  -7  10  333.61   19.35
   1  -7  10  385.07   20.06
   1  -7  10  340.44   20.47
   1  -7  10  333.02   21.18
  -1   7 -10  293.55   26.83
   1  -7  11   34.80    5.88
   1  -7  11   34.45    5.58
   1  -7  11   39.26    6.12
   1  -7  11   38.97    5.29
   1  -7  11   45.98    5.62
   1  -7  11   41.31    4.83
   1  -7  12   18.02    3.90
   1  -7  12   16.29    3.97
   1  -7  12   26.41    4.09
   1  -7  12   23.12    3.29
   1  -7  12   28.31    4.90
   1  -7  13   13.21    3.30
   1  -7  13   18.78    3.49
   1  -7  13   24.34    4.09
   1  -7  13   21.76    3.40
  -1   7 -13   19.69    2.78
   1  -7  14   34.32    4.03
   1  -7  14   29.60    3.92
  -1   7 -14   31.78    2.90
   1  -7  15    8.81    1.47
   1  -6 -10   60.66    5.18
  -1   6   9    0.61    0.68
  -1   6   9    0.36    0.50
  -1   6   9    1.62    0.62
   1  -6  -9    1.49    0.83
   1  -6  -9    1.98    1.73
   1  -6  -8   87.78    6.80
  -1   6   8   95.28    6.81
  -1   6   8   83.97    6.15
   1  -6  -8   99.14    9.45
  -1   6   8   84.09    6.52
   1  -6  -7   59.70    5.85
  -1   6   7   63.03    5.66
  -1   6   7   77.72    6.22
   1  -6  -7   69.14    8.56
  -1   6   7   68.10    6.21
   1  -6  -6   93.12    7.70
  -1   6   6   93.81    7.23
  -1   6   6   84.51    7.21
   1  -6  -6   87.76   14.65
  -1   6   6  102.07   14.87
  -1   6   6   85.18    7.56
  -1   6   5    7.46    1.91
   1  -6  -5    7.29    2.22
   1  -6  -5   10.97    5.06
   1  -6  -5    6.12    2.88
  -1   6   5    9.78    3.90
  -1   6   4    6.40    2.03
  -1   6   4    7.03    1.72
   1  -6  -4    3.02    1.66
  -1   6   4    8.07    2.16
   1  -6  -4    5.97    1.37
   1  -6  -4    6.97    3.93
  -1   6   4    8.19    3.49
   1  -6  -3  611.01   26.14
   1  -6  -3  580.28   28.30
  -1   6   3  683.61   28.98
  -1   6   3  588.52   26.64
   1  -6  -3  637.91   43.59
  -1   6   3  623.59   28.78
  -1   6   2  137.57   14.36
   1  -6  -2  119.52   14.36
  -1   6   2  148.75    9.45
   1  -6  -2  121.21    9.04
  -1   6   2  123.21    7.54
   1  -6  -2  143.12    9.06
   1  -6  -2  118.74    7.49
  -1   6   2  136.03    9.16
   1  -6  -2  124.32    8.68
   1  -6  -2  122.92   16.78
   1  -6  -2  139.18    8.44
  -1   6   2  147.91   17.74
   1  -6  -1   60.35    5.79
  -1   6   1   68.83    5.85
  -1   6   1   74.27    5.97
   1  -6  -1   64.27    4.83
   1  -6  -1   78.06    5.92
   1  -6  -1   61.05    5.68
  -1   6   1   72.61   11.70
   1  -6  -1   73.28    5.57
  -1   6   0  193.99   16.78
   1  -6   0  216.83   21.42
  -1   6   0  183.95   11.29
   1  -6   0  219.82   12.54
  -1   6   0  200.01   11.46
   1  -6   0  230.28   19.74
   1  -6   0  214.93   11.54
   1  -6   0  232.64   11.18
   1  -6   0  221.05   12.45
   1  -6   0  227.81   11.48
  -1   6   0  215.24   20.00
   1  -6   1  308.97   15.56
  -1   6  -1  263.59   13.83
  -1   6  -1  256.48   13.69
   1  -6   1  284.83   14.03
   1  -6   1  301.31   25.97
   1  -6   1  295.80   22.30
  -1   6  -1  320.73   23.52
   1  -6   1  282.66   13.89
   1  -6   1  308.05   14.43
   1  -6   2  855.59   36.11
   1  -6   2  775.28   44.29
   1  -6   2  744.63   48.77
   1  -6   2  776.03   33.94
   1  -6   2  931.33   36.55
  -1   6  -2  811.70   43.73
   1  -6   2  813.09   33.91
   1  -6   2  813.93   34.21
   1  -6   3  107.64    8.11
   1  -6   3  115.31   13.27
   1  -6   3   99.12    6.61
   1  -6   3  112.05    8.02
  -1   6  -3   94.90   10.62
   1  -6   3  100.47    6.78
   1  -6   4  163.48   19.88
   1  -6   4  204.37   11.91
  -1   6  -4  185.58   17.93
   1  -6   4  195.43   11.54
   1  -6   4  210.15   19.44
   1  -6   4  171.97    9.91
   1  -6   5   27.16    6.91
   1  -6   5   27.19    3.18
  -1   6  -5   36.57    7.46
   1  -6   5   38.13    4.32
   1  -6   5   37.14    8.80
   1  -6   6  227.02   12.41
   1  -6   6  225.75   13.14
   1  -6   6  248.02   15.23
   1  -6   6  233.14   22.39
   1  -6   6  255.82   14.16
  -1   6  -6  252.94   21.34
   1  -6   6  254.96   14.22
   1  -6   6  284.23   15.46
   1  -6   6  275.66   16.06
   1  -6   7  153.21   10.83
   1  -6   7  206.14   14.08
   1  -6   7  217.13   12.37
   1  -6   7  197.37   11.02
  -1   6  -7  198.63   18.13
  -1   6  -7  189.48   18.80
   1  -6   7  167.64   11.52
   1  -6   7  169.29   19.48
   1  -6   8   23.18    4.13
   1  -6   8   26.90    4.86
   1  -6   8   35.53    5.32
   1  -6   8   32.69    4.32
   1  -6   8   30.01    4.21
   1  -6   8   33.05    4.02
  -1   6  -8   38.75    7.26
  -1   6  -8   19.56    6.33
   1  -6   8   23.42    6.31
   1  -6   9  412.97   20.42
   1  -6   9  304.38   20.09
   1  -6   9  398.58   22.46
   1  -6   9  362.36   22.41
  -1   6  -9  354.03   29.48
   1  -6   9  422.54   20.48
   1  -6   9  364.50   21.99
   1  -6   9  414.20   21.08
   1  -6   9  430.33   21.29
  -1   6 -10  118.79    8.05
   1  -6  10  137.28   12.02
   1  -6  10  120.08   11.07
   1  -6  10  120.03   11.08
   1  -6  10  143.22   10.26
   1  -6  10  136.87   10.44
   1  -6  10  144.85   10.66
  -1   6 -10  115.38   15.82
   1  -6  11   37.97    6.75
   1  -6  11   48.68    6.80
   1  -6  11   52.92    5.89
   1  -6  11   45.38    5.65
   1  -6  11   47.81    5.93
  -1   6 -11   70.82   13.07
  -1   6 -11   49.37    9.70
   1  -6  12    8.65    2.50
   1  -6  12    9.78    2.35
   1  -6  12    4.81    2.77
   1  -6  12    4.01    2.43
  -1   6 -13   70.19    5.80
   1  -6  13   80.68    7.02
   1  -6  13   88.80    6.88
   1  -6  13   82.13    7.74
   1  -6  13   70.80    7.56
   1  -6  13   71.61    7.84
  -1   6 -14   65.01    4.56
   1  -6  14   67.75    6.38
   1  -6  14   52.79    5.60
   1  -6  14   63.94    4.86
   1  -6  14   72.27    6.17
   1  -6  15    0.17    0.73
   1  -6  15    1.07    0.81
   1  -5 -11   19.44    2.40
   1  -5 -11   14.59    2.46
  -1   5  10   17.22    2.42
   1  -5 -10   21.50    2.74
  -1   5   9   84.70    6.31
  -1   5   9   80.16    5.80
  -1   5   9   99.32    7.16
   1  -5  -9  100.16    7.30
   1  -5  -8   66.97    6.10
  -1   5   8   61.40    5.42
   1  -5  -8   55.67    5.78
  -1   5   8   69.49    6.18
   1  -5  -8   64.94    8.39
  -1   5   8   53.38    5.47
   1  -5  -7   95.45   10.23
  -1   5   7   91.54    7.73
  -1   5   7   98.04    7.69
  -1   5   7   77.52    6.87
   1  -5  -7   83.19    7.46
   1  -5  -7   86.68    7.41
   1  -5  -7   97.70   15.19
  -1   5   7   83.11   13.38
  -1   5   6  162.02   11.28
   1  -5  -6  166.47   10.79
   1  -5  -6  142.84    8.63
   1  -5  -6  173.66   11.33
  -1   5   6  156.98   10.46
  -1   5   6  166.49   10.85
   1  -5  -6  119.76   18.21
  -1   5   6  134.56   16.65
   1  -5  -6  148.03   19.19
   1  -5  -5  157.10   12.92
  -1   5   5  146.33   16.65
   1  -5  -5  145.72   18.27
  -1   5   5  158.44    9.99
   1  -5  -5  135.20   10.13
  -1   5   5  169.66   10.86
   1  -5  -5  157.25   10.26
   1  -5  -5  139.62    8.39
   1  -5  -5  142.15   18.69
  -1   5   5  168.12   20.19
  -1   5   4  209.91   12.65
  -1   5   4  187.16   11.26
   1  -5  -4  203.56   12.45
   1  -5  -4  192.12   10.33
   1  -5  -4  218.62   12.15
   1  -5  -4  215.45   22.32
  -1   5   4  191.74   18.58
   1  -5  -4  174.02   19.68
  -1   5   3  191.98   17.68
   1  -5  -3  165.53   15.52
   1  -5  -3  161.29   17.27
  -1   5   3  175.57   11.13
   1  -5  -3  181.48    9.54
   1  -5  -3  218.79   11.48
   1  -5  -3  182.03   11.26
  -1   5   3  171.38   10.05
  -1   5   3  191.67   11.39
   1  -5  -3  153.36   14.09
   1  -5  -3  210.46   20.91
  -1   5   3  180.07   20.26
  -1   5   2  487.62   29.95
   1  -5  -2  439.29   28.82
   1  -5  -2  448.43   29.97
   1  -5  -2  490.05   20.83
  -1   5   2  443.00   20.87
  -1   5   2  461.91   22.39
   1  -5  -2  472.07   22.45
   1  -5  -2  581.26   36.67
  -1   5   2  478.22   34.29
   1  -5  -2  547.31   21.62
  -1   5   1    8.07    3.07
   1  -5  -1   18.48    2.15
   1  -5  -1   18.63    2.62
   1  -5  -1   11.28    2.22
   1  -5  -1   13.57    4.80
   1  -5  -1   15.38    3.44
  -1   5   1   17.47    5.44
   1  -5  -1   18.32    2.28
   1  -5   0  656.50   27.20
   1  -5   0  679.19   28.08
  -1   5   0  639.18   38.48
   1  -5   0  648.07   27.31
   1  -5   0  666.33   39.02
   1  -5   1   35.40    6.24
   1  -5   1   30.58    2.83
  -1   5  -1   24.33    5.76
   1  -5   1   28.61    3.00
   1  -5   1   29.77    2.83
   1  -5   1   32.58    4.22
   1  -5   1   22.25    6.11
   1  -5   2    5.59    2.85
   1  -5   2    5.78    3.19
  -1   5  -2    3.11    2.33
   1  -5   2    4.22    1.05
   1  -5   2    6.15    1.31
   1  -5   2    4.72    1.34
   1  -5   3   72.09    9.67
   1  -5   3   64.02    4.70
   1  -5   3   66.16    5.29
   1  -5   3   65.07    4.52
  -1   5  -3   57.94    7.84
   1  -5   4  372.67   17.11
   1  -5   4  364.19   24.74
   1  -5   4  348.16   27.10
   1  -5   4  372.26   17.01
  -1   5  -4  357.87   24.46
  -1   5  -4  346.91   20.36
   1  -5   4  328.47   15.99
   1  -5   4  321.44   15.43
   1  -5   5  625.18   27.25
   1  -5   5  615.13   26.69
   1  -5   5  614.68   36.38
   1  -5   5  664.55   27.27
   1  -5   5  614.46   27.00
  -1   5  -5  635.41   35.78
   1  -5   5  558.35   25.39
   1  -5   6  102.05    6.78
   1  -5   6   92.59    6.13
   1  -5   6  113.72    7.67
  -1   5  -6  117.15   12.54
   1  -5   6   91.08   12.63
   1  -5   7    5.47    2.77
   1  -5   7    7.31    1.43
   1  -5   7    8.47    1.87
  -1   5  -7    3.43    2.59
  -1   5  -7    4.56    2.31
   1  -5   7    9.51    2.67
   1  -5   7    9.30    2.61
   1  -5   7    9.35    2.10
   1  -5   7    7.91    2.00
   1  -5   8    4.40    1.54
  -1   5  -8    6.38    3.53
   1  -5   8    4.38    1.75
   1  -5   8    7.58    2.62
   1  -5   8    6.08    2.50
   1  -5   8    4.65    1.72
   1  -5   8    4.66    1.72
   1  -5   9   61.67    6.26
   1  -5   9   65.09    7.69
   1  -5   9   59.71    7.40
   1  -5   9   67.24    6.62
   1  -5   9   62.88    6.24
   1  -5   9   65.75    6.62
  -1   5  -9   56.71   10.94
   1  -5  10   99.36   10.02
   1  -5  10   92.86    9.88
   1  -5  10  104.36    8.70
   1  -5  10  101.97    8.77
   1  -5  10  102.11    8.68
  -1   5 -10   93.30   13.55
  -1   5 -10   97.91   15.46
   1  -5  11   19.14    4.39
   1  -5  11   11.80    3.62
   1  -5  11   14.90    3.87
  -1   5 -11   16.69    6.30
  -1   5 -11   17.09    5.59
   1  -5  11   21.52    3.77
   1  -5  11   18.43    3.41
  -1   5 -12    7.49    2.01
   1  -5  12    9.15    3.04
   1  -5  12    7.06    2.83
   1  -5  12    6.94    2.77
   1  -5  12    9.94    2.64
   1  -5  12    7.84    2.20
  -1   5 -13    0.98    0.96
   1  -5  13    0.88    1.65
   1  -5  13    0.37    0.92
   1  -5  13    0.35    0.79
  -1   5 -14    5.65    1.54
   1  -5  14    4.24    1.78
   1  -5  14    5.28    1.54
   1  -5  15   21.78    2.61
   1  -4 -12    6.89    1.75
   1  -4 -12    8.48    1.63
   1  -4 -11   68.32    6.89
  -1   4  11   74.12    5.38
   1  -4 -10  158.32   10.05
   1  -4 -10  163.93   12.68
  -1   4  10  162.06   10.16
  -1   4   9    6.62    1.99
  -1   4   9    4.76    1.48
  -1   4   9    0.93    0.71
   1  -4  -9    3.06    1.44
  -1   4   9    1.77    0.99
   1  -4  -9    4.56    1.63
   1  -4  -9    3.17    2.47
  -1   4   8  259.09   25.80
   1  -4  -8  342.23   32.91
  -1   4   8  329.39   17.67
  -1   4   8  328.28   16.64
   1  -4  -8  295.56   17.12
  -1   4   8  347.36   18.16
  -1   4   8  303.46   16.56
   1  -4  -8  349.63   17.95
   1  -4  -8  316.91   15.42
   1  -4  -8  325.42   29.97
  -1   4   8  366.94   29.02
  -1   4   7   44.89    5.39
  -1   4   7   47.37    4.64
   1  -4  -7   40.60    4.93
  -1   4   7   52.16    5.54
  -1   4   7   39.55    4.74
   1  -4  -7   47.28    5.22
   1  -4  -7   35.51    3.72
   1  -4  -7   41.72    9.90
   1  -4  -7   47.98   11.63
  -1   4   7   43.85    9.31
  -1   4   6  540.80   39.19
   1  -4  -6  544.41   45.22
   1  -4  -6  623.12   32.05
  -1   4   6  599.49   26.69
  -1   4   6  638.85   29.41
  -1   4   6  627.75   28.53
   1  -4  -6  564.21   27.65
  -1   4   6  625.92   28.69
   1  -4  -6  612.10   28.22
   1  -4  -6  615.48   26.31
   1  -4  -6  593.35   41.76
  -1   4   6  685.27   45.16
   1  -4  -5  124.68   10.69
  -1   4   5  125.37   14.95
  -1   4   5  117.98    8.99
   1  -4  -5  123.31    8.59
   1  -4  -5  134.55    7.63
   1  -4  -5  109.79    8.27
  -1   4   5  118.66    8.59
  -1   4   5  124.78    9.02
   1  -4  -5  134.65   16.58
  -1   4   5  117.40   17.05
  -1   4   4  468.75   31.13
   1  -4  -4  491.69   21.40
   1  -4  -4  524.98   23.09
   1  -4  -4  484.55   22.73
  -1   4   4  460.92   22.48
  -1   4   4  489.61   23.50
   1  -4  -4  523.10   34.56
  -1   4   4  576.18   38.41
   1  -4  -3 1056.27   40.90
   1  -4  -3  986.87   39.31
  -1   4   3  910.68   40.13
   1  -4  -3 1003.79   40.99
   1  -4  -3 1075.89   54.08
   1  -4  -3  905.57   46.31
   1  -4  -3  951.70   54.01
  -1   4   3  960.04   49.52
  -1   4   2  142.72   16.38
   1  -4  -2  181.72   17.13
  -1   4   2  171.83   14.67
   1  -4  -2  169.57   14.60
   1  -4  -2  168.17   16.33
   1  -4  -2  172.63    9.57
   1  -4  -2  170.13    8.66
  -1   4   1  322.80   24.20
   1  -4  -1  350.44   24.42
  -1   4   1  323.23   20.88
   1  -4   0   98.96    7.56
   1  -4   0  111.40   11.85
  -1   4  -1 2180.85   96.98
   1  -4   1 2287.54   98.27
   1  -4   1 2364.76   95.44
   1  -4   2  933.47   45.30
  -1   4  -3  418.34   24.73
  -1   4  -3  474.60   20.76
   1  -4   3  426.41   28.56
   1  -4   3  486.73   26.97
  -1   4  -4  365.28   23.03
  -1   4  -4  327.45   19.50
   1  -4   4  370.92   22.87
  -1   4  -5   79.23    9.40
   1  -4   5   90.77    6.12
  -1   4  -5   92.83    9.17
   1  -4   5   91.40   11.12
   1  -4   5   84.66    5.96
   1  -4   5   85.09    5.84
   1  -4   5   89.50   10.25
   1  -4   6  634.01   27.47
  -1   4  -6  728.15   35.87
  -1   4  -6  717.32   38.64
  -1   4  -6  634.27   35.47
   1  -4   6  579.87   35.03
   1  -4   6  639.84   27.74
   1  -4   6  623.25   27.75
   1  -4   7   43.74    4.41
  -1   4  -7   49.26    6.69
   1  -4   7   38.21    6.24
   1  -4   7   46.96    5.25
   1  -4   7   42.45    4.45
   1  -4   7   42.00    4.39
   1  -4   8  516.11   24.33
  -1   4  -8  498.78   34.30
   1  -4   8  543.69   25.06
  -1   4  -8  512.20   35.44
   1  -4   8  516.63   24.22
   1  -4   8  493.11   24.20
   1  -4   8  511.27   24.24
   1  -4   8  483.26   25.56
   1  -4   9  146.40   10.27
   1  -4   9  138.08   11.30
   1  -4   9  141.79   10.20
   1  -4   9  149.37   10.41
   1  -4   9  140.44    9.17
   1  -4   9  148.59   10.42
  -1   4  -9  128.59   17.90
  -1   4  -9  153.88   17.06
   1  -4  10   79.87    7.54
   1  -4  10   78.29    7.32
   1  -4  10   79.46    8.55
   1  -4  10   69.35    6.18
  -1   4 -10   86.65   14.50
  -1   4 -10   69.42   11.20
   1  -4  11   48.56    6.66
   1  -4  11   50.31    5.88
   1  -4  11   51.81    5.96
  -1   4 -11   34.79    7.89
  -1   4 -12   62.02    5.53
   1  -4  12   60.49    6.36
  -1   4 -13  139.46    8.41
   1  -4  13  145.77   10.84
   1  -4  13  150.17   10.04
   1  -4  14    7.97    2.12
   1  -4  14    7.38    2.18
   1  -4  14    5.11    2.07
   1  -4  14    7.16    1.70
  -1   4 -14    5.40    1.49
   1  -4  15    1.26    0.84
   1  -4  15    2.30    1.02
   1  -3 -12   33.80    3.39
   1  -3 -12   36.88    4.57
  -1   3  12   36.48    3.38
   1  -3 -11   71.43    5.92
   1  -3 -11   61.17    6.98
  -1   3  10   17.29    2.49
  -1   3  10   18.77    3.29
  -1   3  10   24.04    3.35
   1  -3 -10   19.48    3.09
   1  -3 -10   15.72    2.97
   1  -3 -10   12.36    3.81
  -1   3   9   94.36    7.40
  -1   3   9   85.81    7.15
  -1   3   9   86.09    6.53
  -1   3   9   96.57    8.15
   1  -3  -9   87.54    7.64
   1  -3  -9   85.14    6.31
   1  -3  -9   69.31   12.77
   1  -3  -9   94.28    9.88
   1  -3  -9  102.38   18.10
  -1   3   8    0.80    1.10
  -1   3   8   -0.43    1.09
  -1   3   8    1.31    0.91
   1  -3  -8   -0.25    0.76
   1  -3  -8    3.28    2.61
   1  -3  -8   -0.38    1.13
   1  -3  -8    5.12    4.08
  -1   3   8    1.65    1.86
   1  -3  -8   -0.64    2.15
  -1   3   7  342.48   29.94
  -1   3   7  379.78   20.34
  -1   3   7  406.51   19.38
  -1   3   7  406.47   20.73
  -1   3   7  368.43   19.54
   1  -3  -7  404.63   20.02
   1  -3  -7  384.70   18.29
   1  -3  -7  385.31   31.75
   1  -3  -7  361.46   26.43
  -1   3   7  416.88   32.39
   1  -3  -6  174.20   12.91
  -1   3   6  186.11   19.09
  -1   3   6  172.66   10.17
  -1   3   6  174.77   11.49
  -1   3   6  167.98   11.07
  -1   3   6  163.57   11.05
   1  -3  -6  176.32   10.83
   1  -3  -6  175.41    9.67
   1  -3  -6  165.82   18.49
   1  -3  -6  168.84   15.75
  -1   3   6  162.05   19.92
  -1   3   5   77.35   10.93
   1  -3  -5   71.09   14.40
  -1   3   5   78.88    5.71
  -1   3   5   81.59    6.72
  -1   3   5   57.71    5.86
   1  -3  -5   85.01    6.37
   1  -3  -5   84.83    5.58
   1  -3  -5   86.96   11.96
   1  -3  -5   74.88    9.57
  -1   3   5   92.88   13.98
   1  -3  -4   93.22    8.66
  -1   3   4   94.67    6.21
   1  -3  -4  113.84    6.48
   1  -3  -4  109.15    7.17
  -1   3   4  101.00    7.24
   1  -3  -4  112.99   11.19
   1  -3  -4  123.42   13.45
  -1   3   4  103.44   14.35
   1  -3  -3  215.06   17.67
  -1   3   3  204.96   16.14
   1  -3  -3  211.67   11.10
   1  -3  -2 2210.41   93.51
   1  -3  -2 2326.83  102.42
   1  -3  -2 2315.14   97.34
   1  -3  -1  435.88   21.39
  -1   3   1  391.02   26.13
   1  -3  -1  399.37   20.95
   1  -3  -1  404.80   23.45
   1  -3  -1  384.89   24.95
   1  -3  -1  455.87   25.98
  -1   3   0 1140.50   55.95
   1  -3   0 1207.71   50.52
   1  -3   0 1205.84   50.50
   1  -3   1  539.23   26.25
  -1   3  -1  557.09   29.88
   1  -3   1  540.04   26.24
   1  -3   1  606.75   28.45
   1  -3   2  519.05   26.24
   1  -3   3  531.16   29.85
   1  -3   3  565.64   28.06
   1  -3   4    6.12    2.44
  -1   3  -4   11.64    3.16
   1  -3   4    6.56    2.68
  -1   3  -4    8.41    2.53
  -1   3  -5 2777.67  106.01
   1  -3   5 2408.63  105.58
  -1   3  -5 2515.43  107.20
   1  -3   6   41.78    3.93
   1  -3   6   40.33    3.78
   1  -3   6   45.97    4.10
   1  -3   6   41.21    3.94
  -1   3  -6   41.88    5.50
  -1   3  -6   43.92    7.28
   1  -3   6   41.00    5.81
   1  -3   7  346.73   17.16
   1  -3   7  366.55   17.40
   1  -3   7  323.68   16.98
   1  -3   7  348.16   17.36
   1  -3   7  360.38   17.02
  -1   3  -7  372.81   25.43
  -1   3  -7  357.37   27.93
   1  -3   8  172.79   11.83
   1  -3   8  167.90   10.51
   1  -3   8  159.29   10.35
   1  -3   8  153.98   10.22
   1  -3   8  158.43   10.45
   1  -3   8  164.79   10.16
  -1   3  -8  188.25   19.56
  -1   3  -8  142.60   15.49
   1  -3   8  171.10   13.13
   1  -3   9  421.89   25.07
   1  -3   9  413.49   21.63
   1  -3   9  420.24   23.39
   1  -3   9  434.24   21.84
   1  -3   9  455.23   21.62
  -1   3  -9  443.09   34.66
  -1   3  -9  454.78   31.04
  -1   3  -9  359.53   34.31
   1  -3  10  274.63   15.44
   1  -3  10  247.40   18.28
  -1   3 -10  248.35   22.38
   1  -3  10  267.69   15.78
   1  -3  10  252.49   17.03
  -1   3 -11    2.36    1.11
   1  -3  11    1.33    1.12
  -1   3 -12  135.29    8.35
   1  -3  12  136.71   10.05
   1  -3  12  126.03   10.77
   1  -3  12  112.94   11.15
   1  -3  12  126.60   11.54
   1  -3  13    8.05    2.68
   1  -3  13    5.86    2.21
  -1   3 -13    5.60    1.69
   1  -3  13    5.84    1.95
  -1   3 -14   78.53    5.82
   1  -3  14   74.46    5.98
   1  -3  14   82.88    6.04
   1  -3  14   79.93    7.00
   1  -3  14   73.76    6.54
   1  -2 -13   32.84    2.98
   1  -2 -13   36.42    3.75
   1  -2 -12   32.02    3.56
  -1   2  12   27.60    3.36
   1  -2 -12   34.15    4.69
   1  -2 -11   79.04    5.68
   1  -2 -11   85.97    7.08
  -1   2  11   89.73    7.38
   1  -2 -11   80.04    8.67
  -1   2  11   87.42    6.98
   1  -2 -10   82.94    6.22
   1  -2 -10   76.61    7.16
   1  -2 -10   86.44    9.20
  -1   2  10   86.95    7.36
  -1   2   9   21.77    3.42
  -1   2   9   24.04    3.75
  -1   2   9   27.39    3.30
   1  -2  -9   23.08    3.16
   1  -2  -9   21.06    6.63
   1  -2  -9   18.17    3.39
   1  -2  -9   33.33    7.02
   1  -2  -9   10.71    6.09
   1  -2  -9   21.98    4.82
  -1   2   8   18.71    3.19
  -1   2   8   19.99    3.37
  -1   2   8   14.28    2.64
  -1   2   8   17.99    3.62
   1  -2  -8   15.98    3.10
   1  -2  -8   29.60    6.45
   1  -2  -8   26.63    7.10
  -1   2   8   11.18    4.81
   1  -2  -8   22.01    4.49
  -1   2   7  180.85   11.35
  -1   2   7  171.07   11.66
  -1   2   7  195.57   12.52
  -1   2   7  178.01   11.39
   1  -2  -7  206.01   10.77
   1  -2  -7  205.61   17.96
   1  -2  -7  167.59   18.48
   1  -2  -7  190.76   13.73
  -1   2   7  192.13   20.11
  -1   2   6  249.59   21.46
   1  -2  -6  268.41   28.90
  -1   2   6  245.09   13.24
  -1   2   6  231.53   14.03
  -1   2   6  232.68   13.53
   1  -2  -6  243.83   12.29
   1  -2  -6  247.51   21.38
   1  -2  -6  254.21   19.46
  -1   2   6  281.33   25.21
   1  -2  -5    1.80    2.04
  -1   2   5    4.49    1.29
   1  -2  -5    5.23    1.27
  -1   2   5    5.83    1.74
   1  -2  -5    6.06    2.57
   1  -2  -5    4.60    2.75
  -1   2   5    3.84    2.89
   1  -2  -4  459.41   34.05
   1  -2  -4  408.89   21.10
   1  -2  -4  432.60   18.22
  -1   2   4  382.12   19.37
  -1   2   4  398.76   29.13
   1  -2  -4  422.80   26.03
   1  -2  -4  453.16   25.08
   1  -2  -3  713.83   32.28
   1  -2  -3  745.06   32.46
   1  -2  -3  727.53   33.61
   1  -2  -3  699.30   36.47
   1  -2  -3  748.13   35.87
  -1   2   2    6.57    1.58
   1  -2  -2    4.59    1.55
   1  -2  -2    6.11    1.73
   1  -2  -2    5.97    3.72
  -1   2   2    4.11    1.84
   1  -2  -2    9.29    2.76
   1  -2  -2    3.99    2.04
   1  -2  -1  129.49    8.57
  -1   2   1  141.52   12.63
   1  -2  -1  133.17    8.65
  -1   2   1  127.61    7.77
  -1   2   1  128.48    9.88
   1  -2  -1  131.25   10.12
   1  -2  -1  151.82   11.35
   1  -2   0  356.06   17.33
   1  -2   0  346.90   17.24
  -1   2   0  350.19   16.88
   1  -2   0  340.89   19.29
   1  -2   1  499.48   23.63
   1  -2   1  517.88   23.78
   1  -2   1  522.89   26.72
   1  -2   1  545.47   24.15
   1  -2   2  702.60   31.47
   1  -2   2  723.03   31.58
   1  -2   2  785.13   34.79
   1  -2   2  704.40   31.41
   1  -2   4   20.99    3.16
   1  -2   4   23.89    3.31
  -1   2  -4   25.66    4.01
   1  -2   4   24.59    4.14
  -1   2  -5  148.12    9.63
  -1   2  -5  154.78   12.66
   1  -2   5  134.72   10.55
   1  -2   6  518.38   22.95
   1  -2   6  525.45   22.94
   1  -2   6  533.99   22.96
   1  -2   6  510.32   23.03
   1  -2   6  510.37   22.90
  -1   2  -6  542.68   29.91
   1  -2   6  517.23   25.03
  -1   2  -6  549.37   34.44
   1  -2   7  138.98    9.09
   1  -2   7  164.08    9.64
   1  -2   7  149.28    9.39
   1  -2   7  153.50    9.53
   1  -2   7  160.67    9.61
  -1   2  -7  164.58   14.66
  -1   2  -7  172.97   16.86
  -1   2  -7  168.65   18.79
   1  -2   8    9.10    2.60
   1  -2   8    5.90    1.71
  -1   2  -8    5.14    2.91
  -1   2  -8   14.13    4.12
  -1   2  -8    6.75    3.81
   1  -2   8    9.31    2.13
   1  -2   8    7.18    1.93
   1  -2   9   54.29    5.70
   1  -2   9   54.08    5.73
   1  -2   9   58.78    6.86
  -1   2  -9   62.28    9.37
  -1   2  -9   49.83   12.06
   1  -2  10    5.81    1.82
  -1   2 -10    2.99    1.27
   1  -2  10    0.70    2.49
   1  -2  10    0.54    1.94
  -1   2 -10    6.62    4.31
   1  -2  10    6.32    2.23
   1  -2  11  200.72   14.30
  -1   2 -11  176.83   22.04
   1  -2  12   14.26    3.81
   1  -2  12    8.60    2.78
  -1   2 -12   13.63    2.78
   1  -2  13   43.97    5.83
  -1   2 -13   48.65    4.87
   1  -2  14   25.32    2.94
   1  -2  14   26.04    3.60
  -1   2 -14   33.51    3.23
   1  -1 -14   52.90    4.25
   1  -1 -13    1.08    1.28
   1  -1 -13    2.26    1.39
  -1   1  13    2.12    0.92
  -1   1  12  181.10   10.72
   1  -1 -12  164.71    8.98
  -1   1  12  158.33   10.29
   1  -1 -12  148.36   11.50
  -1   1  11   37.64    4.67
  -1   1  11   30.68    3.54
   1  -1 -11   24.19    3.20
  -1   1  11   32.00    4.39
   1  -1 -11   24.40    4.80
  -1   1  10  163.60   11.87
  -1   1  10  173.15   11.77
  -1   1  10  169.56   10.19
   1  -1 -10  159.24   19.04
   1  -1 -10  155.52   16.65
   1  -1 -10  154.58   12.92
  -1   1   9   12.07    2.85
  -1   1   9   13.64    2.50
  -1   1   9    8.75    2.39
  -1   1   9   13.56    2.33
   1  -1  -9   11.25    2.20
   1  -1  -9   10.54    4.51
   1  -1  -9   20.28    5.56
   1  -1  -9    6.52    3.09
  -1   1   8  745.34   34.85
  -1   1   8  766.02   32.55
  -1   1   8  771.52   32.35
  -1   1   8  753.06   34.01
  -1   1   8  728.33   33.57
  -1   1   8  742.85   31.92
   1  -1  -8  771.65   32.35
   1  -1  -8  665.74   44.13
   1  -1  -8  725.81   42.88
  -1   1   8  637.83   46.41
   1  -1  -8  766.94   36.48
  -1   1   7  730.41   44.94
   1  -1  -7  775.51   35.94
  -1   1   7  788.53   33.47
  -1   1   7  793.14   34.02
  -1   1   7  758.32   32.15
  -1   1   7  753.08   31.86
   1  -1  -7  726.57   33.07
   1  -1  -7  786.06   32.43
   1  -1  -7  688.77   43.40
   1  -1  -7  760.18   42.41
  -1   1   7  794.39   47.62
  -1   1   6   47.14    4.70
  -1   1   6   45.84    3.80
  -1   1   6   35.58    4.08
   1  -1  -6   49.36    4.49
   1  -1  -6   41.46    3.12
   1  -1  -6   49.47    4.11
   1  -1  -6   29.77    6.11
   1  -1  -6   56.77    8.66
  -1   1   6   42.71    8.99
  -1   1   5  951.26   40.81
   1  -1  -5  982.47   40.32
   1  -1  -5 1051.25   40.02
  -1   1   5  951.38   41.65
  -1   1   5 1003.13   53.17
  -1   1   5 1008.10   47.34
   1  -1  -5  965.74   48.07
   1  -1  -5 1019.87   48.27
  -1   1   4   10.46    3.23
   1  -1  -4   10.46    1.97
   1  -1  -4   10.49    2.02
  -1   1   4    8.49    2.73
   1  -1  -4    9.58    2.96
   1  -1  -4   10.74    3.25
  -1   1   3 2713.74  107.15
   1  -1  -3 2581.19  103.82
   1  -1  -3 2590.93  115.68
  -1   1   3 2653.04  106.69
  -1   1   3 2428.39  110.56
   1  -1  -3 2692.90  102.58
   1  -1  -3 2697.03  102.59
   1  -1  -3 2683.63  106.42
   1  -1  -3 2634.01  106.95
   1  -1  -2 1325.35   53.42
  -1   1   2 1404.56   55.00
   1  -1  -2 1233.61   51.50
   1  -1  -2 1271.56   51.41
   1  -1  -2 1246.29   53.67
   1  -1  -2 1240.62   54.30
   1  -1  -1 1002.42   41.57
  -1   1   1  999.08   41.52
   1  -1  -1  908.47   40.87
   1  -1  -1  977.56   39.71
   1  -1  -1  940.74   39.60
   1  -1   0   86.62    6.18
   1  -1   0   93.81    6.34
   1  -1   1 1300.17   50.92
   1  -1   1 1264.75   49.23
   1  -1   2 2973.56  112.19
   1  -1   2 2678.97  109.49
   1  -1   2 2717.07  109.48
   1  -1   2 3127.93  110.64
   1  -1   3   67.60    5.40
   1  -1   3   73.46    5.51
   1  -1   3   64.58    6.17
   1  -1   4  648.64   28.33
   1  -1   4  577.84   26.36
   1  -1   4  607.95   26.59
  -1   1  -4  577.55   24.86
  -1   1  -4  663.31   29.89
  -1   1  -5  581.02   30.26
  -1   1  -5  553.35   28.16
  -1   1  -5  485.42   32.27
   1  -1   6   42.86    4.15
   1  -1   6   52.49    4.33
   1  -1   6   49.58    4.24
   1  -1   6   43.65    4.07
  -1   1  -6   55.45    7.03
  -1   1  -6   54.60    8.05
  -1   1  -6   54.23   10.08
   1  -1   7   18.86    2.91
   1  -1   7   25.14    3.23
   1  -1   7   26.84    4.00
  -1   1  -7   26.22    5.14
  -1   1  -7   30.16    6.79
   1  -1   7   22.68    3.15
   1  -1   7   27.24    3.25
   1  -1   8   46.11    4.94
   1  -1   8   32.49    3.91
  -1   1  -8   41.33    6.80
  -1   1  -8   31.98    9.58
   1  -1   9  789.16   36.49
  -1   1  -9  715.68   48.11
   1  -1   9  771.75   33.38
   1  -1   9  718.11   34.23
   1  -1  10    3.18    1.44
   1  -1  10    2.01    2.00
   1  -1  10    3.24    2.02
  -1   1 -10    1.71    1.93
  -1   1 -10    4.79    3.81
   1  -1  11   23.75    4.02
  -1   1 -11   22.21    3.73
   1  -1  11   27.49    4.77
   1  -1  11   30.64    3.52
   1  -1  12   16.20    2.94
  -1   1 -12   12.10    2.67
   1  -1  12   10.68    2.99
   1  -1  12   14.04    3.24
   1  -1  13   23.31    3.14
   1  -1  13   20.17    3.28
   1  -1  13   21.67    3.80
  -1   1 -13   22.08    3.04
   1  -1  14    7.07    1.57
   1   0 -14    3.74    1.57
   1   0 -14    2.98    0.96
  -1   0  13   40.61    4.21
   1   0 -13   39.65    3.40
   1   0 -13   36.26    3.84
  -1   0  13   40.33    3.90
   1   0 -13   41.83    5.30
   1   0 -13   37.09    4.42
  -1   0  12   -0.37    1.03
  -1   0  12    0.35    0.89
  -1   0  12    0.52    0.72
   1   0 -12    0.66    0.98
   1   0 -12    0.46    1.47
  -1   0  11  192.52   12.81
  -1   0  11  202.45   13.09
  -1   0  11  201.35   11.65
   1   0 -11  173.68   11.92
   1   0 -11  185.02   11.22
   1   0 -11  176.14   18.09
   1   0 -11  204.99   14.50
   1   0 -11  179.00   24.04
  -1   0  10   96.74    8.68
  -1   0  10   90.65    7.32
  -1   0  10  106.58    8.81
  -1   0  10   87.19    7.10
   1   0 -10   81.71    7.48
   1   0 -10   95.97    7.27
   1   0 -10   79.99   12.94
   1   0 -10  104.68   13.53
   1   0 -10   85.11   17.86
   1   0 -10   78.16    8.81
  -1   0   9   56.34    6.40
  -1   0   9   55.68    5.40
  -1   0   9   60.19    6.39
  -1   0   9   61.03    5.42
  -1   0   9   54.42    4.88
   1   0  -9   49.20    5.51
   1   0  -9   57.05    5.35
   1   0  -9   50.11    9.46
   1   0  -9   54.23   10.35
   1   0  -9   32.96   11.44
   1   0  -9   50.79    6.63
  -1   0   8  557.52   28.52
  -1   0   8  603.73   26.69
  -1   0   8  609.73   28.45
  -1   0   8  564.79   26.83
  -1   0   8  578.78   25.58
   1   0  -8  628.53   26.62
   1   0  -8  565.46   26.89
   1   0  -8  594.54   36.97
   1   0  -8  625.15   29.77
  -1   0   7  121.41    7.98
  -1   0   7  109.01    7.28
  -1   0   7  101.33    8.05
  -1   0   7  104.60    6.53
   1   0  -7  102.17    7.37
   1   0  -7  106.85    6.10
   1   0  -7  104.92    7.04
   1   0  -7  126.67   13.39
  -1   0   7  136.49   14.87
  -1   0   6 1476.53   68.44
  -1   0   6 1489.21   56.98
  -1   0   6 1442.13   58.04
  -1   0   6 1384.72   56.35
   1   0  -6 1368.96   54.97
   1   0  -6 1393.19   56.58
   1   0  -6 1522.09   56.48
   1   0  -6 1336.52   64.87
   1   0  -6 1528.71   66.52
  -1   0   6 1570.50   70.64
  -1   0   6 1433.23   67.55
  -1   0   6 1350.80   58.28
   1   0  -5   45.29    4.07
  -1   0   5   30.18    6.53
  -1   0   5   40.35    6.98
   1   0  -5   43.91    3.99
  -1   0   5   44.10    6.96
   1   0  -5   36.22    5.82
   1   0  -5   35.00    5.92
  -1   0   4 1197.97   55.16
  -1   0   4 1008.79   54.13
   1   0  -4 1199.82   47.04
   1   0  -4 1170.80   46.94
  -1   0   4 1178.94   52.35
   1   0  -4 1014.16   59.20
   1   0  -4 1126.52   50.37
   1   0  -4 1224.98   52.49
  -1   0   3  670.56   33.27
   1   0  -3  610.82   26.03
   1   0  -3  589.75   25.88
   1   0  -3  570.96   35.30
  -1   0   3  620.29   29.40
   1   0  -3  566.59   27.36
   1   0  -2  474.19   21.27
   1   0  -2  494.50   21.37
   1   0  -2  477.54   22.54
  -1   0   2  513.75   23.34
   1   0  -2  429.91   27.54
   1   0  -2  465.34   21.24
  -1   0   2  448.16   23.12
   1   0  -1   54.68    4.49
   1   0  -1   55.84    4.53
  -1   0   1   58.02    7.09
   1   0  -1   50.82    5.10
  -1   0   1   52.41    4.70
  -1   0   1   49.42    5.06
   1   0  -1   57.47    3.77
   1   0  -1   51.32    4.97
  -1   0   0  166.50   10.03
   1   0   0  165.84    9.30
   1   0   0  162.17    9.23
   1   0   1 8820.59  349.08
   1   0   1 8730.26  349.12
  -1   0  -1 9485.73  347.62
  -1   0  -1 9650.45  350.48
   1   0   1 9999.00  351.24
   1   0   1 9502.71  351.72
   1   0   2 1575.48   63.41
  -1   0  -2 1461.15   60.34
   1   0   2 1504.45   60.15
   1   0   2 1551.06   60.29
  -1   0  -3  388.77   19.41
  -1   0  -3  419.35   20.89
   1   0   3  423.06   19.00
   1   0   3  416.13   18.96
  -1   0  -4  181.57   12.92
  -1   0  -4  180.67   11.26
   1   0   4  186.87    9.98
   1   0   4  170.20    9.80
   1   0   5 1098.62   43.24
   1   0   5 1048.34   43.07
  -1   0  -5 1162.12   47.44
  -1   0  -5 1073.04   56.45
   1   0   5 1046.73   43.42
   1   0   6 1034.93   43.06
  -1   0  -6 1150.35   49.55
  -1   0  -6 1015.72   60.26
   1   0   6 1097.80   45.17
   1   0   7   60.07    5.52
  -1   0  -7   46.24    8.51
   1   0   7   66.00    5.71
   1   0   8  482.66   22.51
   1   0   8  441.42   22.36
  -1   0  -8  463.40   33.52
   1   0   8  487.68   23.09
   1   0   8  414.03   21.80
   1   0   8  471.89   24.61
   1   0   9    1.93    1.38
   1   0   9    2.23    1.19
  -1   0 -10  271.99   33.54
   1   0  10  349.14   17.87
  -1   0 -10  312.60   17.56
   1   0  10  344.82   18.34
   1   0  10  347.22   20.27
  -1   0 -10  316.57   29.84
   1   0  10  294.20   19.54
   1   0  11  130.12    8.78
  -1   0 -11  120.81    8.96
   1   0  11  111.00    9.98
   1   0  11  123.98    9.41
  -1   0 -12   33.90    4.06
   1   0  12   33.40    4.12
   1   0  12   33.81    4.69
  -1   0 -13   48.88    4.22
   1   0  13   56.32    4.81
   1   0  13   52.37    5.17
  -1  -1  14    4.91    1.32
   1   1 -14    3.72    1.05
   1   1 -14    2.35    1.33
  -1  -1  13   11.09    2.36
  -1  -1  13   12.90    2.19
  -1  -1  13   13.53    2.20
   1   1 -13   10.26    2.15
   1   1 -13    8.53    2.35
   1   1 -13   10.88    2.87
   1   1 -12   20.89    3.26
   1   1 -12   12.98    2.44
  -1  -1  12   17.14    2.88
  -1  -1  12   17.89    3.15
  -1  -1  12   17.21    3.43
   1   1 -12   14.98    3.49
   1   1 -12   18.09    4.20
  -1  -1  11    3.35    1.46
  -1  -1  11    1.79    1.34
  -1  -1  11    5.68    2.20
  -1  -1  11    2.44    1.31
   1   1 -11    4.49    1.50
   1   1 -11    3.98    2.59
   1   1 -11    4.53    2.95
   1   1 -11    4.91    1.76
   1   1 -11    9.03    5.09
   1   1 -11    5.29    2.53
  -1  -1  10   66.54    7.16
  -1  -1  10   70.50    7.36
  -1  -1  10   83.14    7.00
  -1  -1  10   70.27    5.90
  -1  -1  10   76.59    6.57
   1   1 -10   63.95    5.97
   1   1 -10   68.15    6.58
   1   1 -10   72.54   11.83
   1   1 -10   80.05   11.92
   1   1 -10   62.78    7.65
  -1  -1   9    3.24    1.81
  -1  -1   9    5.95    2.25
  -1  -1   9    3.18    1.39
  -1  -1   9    4.28    1.36
   1   1  -9    3.08    1.39
   1   1  -9    2.59    2.07
   1   1  -9    3.45    1.56
   1   1  -9    3.75    3.15
   1   1  -9    4.33    4.23
   1   1  -9    6.05    2.35
  -1  -1   8  219.37   14.04
  -1  -1   8  252.28   20.32
  -1  -1   8  241.85   13.51
  -1  -1   8  236.86   14.23
  -1  -1   8  227.41   12.93
  -1  -1   8  220.40   11.78
   1   1  -8  221.53   11.01
   1   1  -8  224.35   12.68
   1   1  -8  225.62   12.37
   1   1  -8  213.08   20.02
   1   1  -8  246.43   20.60
   1   1  -8  181.53   23.83
  -1  -1   8  193.13   21.05
   1   1  -8  228.17   14.53
  -1  -1   7  153.44   16.23
  -1  -1   7  184.34   17.27
  -1  -1   7  161.43   10.84
  -1  -1   7  159.07    9.78
  -1  -1   7  150.96   10.43
  -1  -1   7  144.28    9.35
  -1  -1   7  141.09    8.30
   1   1  -7  151.95    8.06
   1   1  -7  165.84    9.24
   1   1  -7  180.84   16.17
  -1  -1   7  167.63   17.39
  -1  -1   7  157.84   13.90
  -1  -1   6  172.77   10.18
  -1  -1   6  177.43   10.23
  -1  -1   6  189.92   11.40
   1   1  -6  186.51    9.06
   1   1  -6  205.06   10.08
   1   1  -6  185.90   15.65
  -1  -1   6  175.88   15.81
  -1  -1   6  190.13   18.01
  -1  -1   6  174.33   11.20
  -1  -1   5    5.89    2.77
   1   1  -5   10.21    1.96
   1   1  -5   10.24    1.94
  -1  -1   5    8.04    4.25
  -1  -1   5    5.56    2.62
   1   1  -5   12.81    5.21
   1   1  -5   12.38    3.17
   1   1  -5    9.60    2.78
   1   1  -4  510.18   23.21
   1   1  -4  512.76   23.19
  -1  -1   4  538.51   27.44
   1   1  -4  511.56   33.48
   1   1  -4  490.75   24.91
   1   1  -4  555.44   26.62
  -1  -1   3   63.59    9.11
  -1  -1   3   55.15    5.69
   1   1  -3   51.20    8.11
   1   1  -3   43.02    4.28
   1   1  -3   41.65    5.36
   1   1  -3   37.36    4.81
  -1  -1   3   34.79    5.58
   1   1  -2 4587.86  175.71
   1   1  -2 4580.17  175.73
  -1  -1   2 4956.20  176.78
   1   1  -2 4493.67  173.88
  -1  -1   2 4983.15  180.63
   1   1  -2 4482.69  177.25
   1   1  -1  933.93   40.12
   1   1  -1  951.98   40.13
  -1  -1   1 1037.85   46.49
   1   1  -1  948.08   40.89
  -1  -1   1 1031.82   43.75
   1   1  -1  943.17   40.24
  -1  -1   1 1021.42   39.38
  -1  -1   0  744.57   33.66
   1   1   0  694.50   30.53
  -1  -1   0  748.51   28.58
   1   1   0  726.02   35.29
  -1  -1   0  699.18   28.69
  -1  -1  -1   14.81    2.18
  -1  -1  -1   17.56    3.44
  -1  -1  -1   20.49    1.53
   1   1   1   20.81    3.94
   1   1   2  722.21   33.95
  -1  -1  -2  715.55   29.99
  -1  -1  -2  638.91   26.27
   1   1   3   67.79    8.11
  -1  -1  -3   71.69    6.88
  -1  -1  -3   52.19    4.01
   1   1   3   56.58    4.87
   1   1   3   61.87    5.06
  -1  -1  -4  209.22   14.80
  -1  -1  -4  192.64   10.75
   1   1   4  200.65   10.73
   1   1   4  195.93   10.69
   1   1   5  284.85   14.60
   1   1   5  305.29   14.25
  -1  -1  -5  348.24   21.94
   1   1   5  305.76   14.10
   1   1   5  338.42   15.61
   1   1   6    4.06    1.25
   1   1   6    4.44    1.50
   1   1   6    4.72    1.16
   1   1   6    2.99    0.95
  -1  -1  -6    6.78    4.27
   1   1   7  315.63   16.01
   1   1   7  329.01   17.85
   1   1   7  278.09   14.36
  -1  -1  -7  323.24   25.30
   1   1   7  296.35   14.48
   1   1   7  344.40   16.88
   1   1   8    5.01    1.16
   1   1   8    5.66    1.86
   1   1   8    2.45    1.26
  -1  -1  -8    5.61    3.16
  -1  -1  -8    3.03    1.41
  -1  -1  -8    4.81    3.83
   1   1   8    4.75    2.05
   1   1   9  405.34   20.53
  -1  -1  -9  366.82   19.40
   1   1   9  399.79   22.40
   1   1   9  402.10   20.34
  -1  -1  -9  364.57   32.04
  -1  -1  -9  308.87   36.84
   1   1  10  228.62   14.23
  -1  -1 -10  239.02   14.03
  -1  -1 -10  246.19   25.31
   1   1  10  258.92   14.52
   1   1  11    1.24    1.10
   1   1  11    1.31    1.64
  -1  -1 -11    3.10    1.40
   1   1  11    4.21    1.73
   1   1  12   17.02    3.26
  -1  -1 -12   21.46    2.76
  -1  -1 -13   29.59    3.57
  -1  -2  15    0.31    0.67
   1   2 -15    0.15    0.57
   1   2 -14   58.83    4.28
   1   2 -14   56.17    4.58
  -1  -2  14   63.48    4.64
  -1  -2  14   67.96    5.35
   1   2 -14   56.68    5.64
  -1  -2  13   21.50    3.01
   1   2 -13   12.07    2.17
   1   2 -13   15.63    2.66
   1   2 -13   16.93    2.99
   1   2 -13   15.79    3.60
  -1  -2  12  243.21   13.74
  -1  -2  12  223.55   13.20
   1   2 -12  197.73   12.79
   1   2 -12  232.55   12.80
  -1  -2  12  204.79   12.77
   1   2 -12  232.54   15.97
   1   2 -12  209.42   13.83
  -1  -2  11  149.10   11.11
  -1  -2  11  150.57   10.88
  -1  -2  11  143.71    9.74
  -1  -2  11  180.32   11.21
   1   2 -11  149.67   10.45
   1   2 -11  161.90   10.40
   1   2 -11  155.68   17.88
   1   2 -11  181.02   14.01
   1   2 -11  134.01   11.17
  -1  -2  10    0.47    0.92
  -1  -2  10   -0.41    0.92
  -1  -2  10    0.61    0.69
   1   2 -10    0.34    0.93
   1   2 -10    2.76    2.20
   1   2 -10    0.36    0.91
   1   2 -10    1.96    1.56
   1   2 -10    2.13    4.15
  -1  -2   9  196.35   13.27
  -1  -2   9  206.89   13.12
  -1  -2   9  202.21   12.63
  -1  -2   9  203.28   11.39
   1   2  -9  197.79   10.42
   1   2  -9  204.45   11.95
   1   2  -9  198.19   11.99
   1   2  -9  165.49   18.68
   1   2  -9  196.20   24.35
   1   2  -9  200.38   13.44
  -1  -2   8    9.13    4.86
  -1  -2   8   12.44    2.61
  -1  -2   8   12.94    2.65
  -1  -2   8   11.29    2.04
   1   2  -8    8.73    1.61
   1   2  -8   11.20    2.20
   1   2  -8   10.19    4.25
   1   2  -8    8.76    5.24
   1   2  -8   10.61    2.67
   1   2  -7  654.16   44.00
  -1  -2   7  656.03   30.70
  -1  -2   7  694.04   30.06
  -1  -2   7  643.21   29.69
  -1  -2   7  654.71   28.06
  -1  -2   7  642.77   28.02
   1   2  -7  666.15   27.75
   1   2  -7  689.92   28.88
   1   2  -7  656.44   36.69
   1   2  -7  756.24   39.96
   1   2  -7  723.69   36.70
  -1  -2   7  740.19   44.82
  -1  -2   6  163.48   17.70
   1   2  -6  165.79    9.95
   1   2  -6  167.57    9.99
  -1  -2   6  140.88   12.00
   1   2  -6  152.77    8.12
   1   2  -6  149.49   12.96
   1   2  -6  169.03   13.44
  -1  -2   6  157.81    9.49
  -1  -2   6  146.73    9.47
  -1  -2   6  168.95   15.27
   1   2  -6  137.22   16.76
   1   2  -5  302.05   15.93
   1   2  -5  307.25   16.04
  -1  -2   5  356.81   26.45
  -1  -2   5  332.25   20.64
   1   2  -5  282.07   17.91
   1   2  -5  324.05   20.61
   1   2  -4 1499.61   61.52
   1   2  -4 1522.69   61.59
  -1  -2   4 1522.25   64.90
   1   2  -4 1517.60   70.82
  -1  -2   4 1555.49   69.09
   1   2  -4 1507.28   65.37
   1   2  -3  138.82   10.57
   1   2  -3  142.45   10.83
  -1  -2   3  140.75   12.58
   1   2  -3  146.56    9.40
  -1  -2   3  157.26   16.54
   1   2  -3  136.22    9.19
   1   2  -2 1823.56   71.47
   1   2  -2 1796.01   71.45
  -1  -2   2 1962.23   77.87
   1   2  -2 1764.37   71.55
   1   2  -2 1664.44   72.38
  -1  -2   2 1740.83   70.34
  -1  -2   2 1792.53   71.50
  -1  -2   1  385.11   18.60
   1   2  -1  385.05   19.19
   1   2  -1  368.58   19.08
  -1  -2   1  413.41   24.83
   1   2  -1  382.60   17.56
  -1  -2   1  418.28   22.99
   1   2  -1  364.32   19.41
  -1  -2   0  695.40   29.86
  -1  -2   0  632.79   29.35
  -1  -2   0  700.12   34.12
   1   2   0  689.67   30.17
   1   2   0  677.07   30.45
   1   2   0  706.30   30.65
  -1  -2  -1  447.40   22.71
  -1  -2  -1  473.82   26.01
   1   2   1  483.11   22.65
   1   2   1  477.29   22.59
  -1  -2  -2   48.18    5.74
   1   2   2   51.52    5.07
   1   2   2   48.25    4.95
  -1  -2  -3   13.57    3.41
   1   2   4   13.45    1.98
   1   2   4   12.96    2.06
   1   2   4   18.35    2.33
  -1  -2  -4   16.30    4.10
   1   2   4   12.70    2.21
   1   2   4   12.20    2.16
   1   2   5 1216.46   47.52
   1   2   5 1102.82   47.05
  -1  -2  -5 1118.60   46.23
  -1  -2  -5 1214.13   57.38
   1   2   5 1212.75   47.17
   1   2   5 1191.87   48.01
   1   2   6  182.34   10.35
   1   2   6  184.88   11.42
   1   2   6  194.97   10.81
   1   2   6  161.63   10.36
   1   2   6  191.83   12.26
  -1  -2  -6  184.59   10.14
  -1  -2  -6  180.27   17.65
   1   2   6  207.25   12.56
   1   2   7   16.11    2.52
   1   2   7   13.57    2.31
   1   2   7   12.14    2.70
   1   2   7   13.46    3.08
   1   2   7   11.68    2.40
  -1  -2  -7   17.45    2.68
  -1  -2  -7   22.06    6.05
   1   2   7   10.54    2.65
   1   2   8   42.18    4.15
   1   2   8   34.60    4.40
  -1  -2  -8   41.23    4.49
  -1  -2  -8   42.06    9.08
   1   2   8   42.73    4.17
   1   2   8   40.82    4.96
   1   2   9    6.49    1.37
   1   2   9    5.13    1.99
   1   2   9    2.09    1.96
  -1  -2  -9    1.64    1.85
  -1  -2  -9    2.54    1.30
   1   2   9    5.27    1.90
  -1  -2 -10   40.80    4.44
   1   2  10   49.30    5.21
   1   2  11   -0.36    1.48
  -1  -2 -11   -0.24    0.72
  -1  -2 -11    0.81    1.58
  -1  -2 -12   36.29    4.17
   1   2  12   31.19    3.57
  -1  -3  15   64.26    4.76
   1   3 -15   62.83    4.48
   1   3 -14   32.70    3.14
   1   3 -14   20.51    2.78
  -1  -3  14   32.51    3.39
  -1  -3  14   29.14    3.58
   1   3 -14   32.77    4.06
  -1  -3  13    1.36    1.08
  -1  -3  13    1.17    1.24
  -1  -3  13    1.59    1.01
   1   3 -13    0.81    0.91
   1   3 -13    2.28    1.16
   1   3 -13    3.61    2.10
  -1  -3  12  193.15   12.83
  -1  -3  12  191.79   12.14
  -1  -3  12  164.90   10.46
  -1  -3  12  176.42   11.47
   1   3 -12  160.66   10.72
   1   3 -12  181.57   11.06
  -1  -3  12  147.52    9.73
   1   3 -12  154.88   11.06
   1   3 -12  171.16   13.25
  -1  -3  11   31.97    4.20
  -1  -3  11   40.24    5.19
  -1  -3  11   46.09    5.89
  -1  -3  11   38.39    4.38
   1   3 -11   30.83    4.12
   1   3 -11   28.51    4.16
   1   3 -11   29.71    7.41
   1   3 -11   38.87    8.52
   1   3 -11   35.20    9.43
   1   3 -11   29.26    4.59
   1   3 -11   36.52    5.85
  -1  -3  10  546.33   37.81
  -1  -3  10  468.12   24.27
  -1  -3  10  517.25   26.36
  -1  -3  10  513.26   25.51
  -1  -3  10  512.24   25.09
  -1  -3  10  479.57   22.92
   1   3 -10  454.57   21.38
   1   3 -10  452.40   23.22
   1   3 -10  511.20   23.62
   1   3 -10  487.46   35.35
   1   3 -10  504.64   26.82
   1   3 -10  475.45   24.62
   1   3  -9   14.35    3.07
   1   3  -9   19.06    4.06
  -1  -3   9   15.73    3.34
  -1  -3   9   15.90    5.71
  -1  -3   9   18.39    3.37
  -1  -3   9   17.44    3.32
  -1  -3   9   16.82    3.55
  -1  -3   9   20.21    2.97
   1   3  -9   23.86    3.38
   1   3  -9   21.87    2.73
   1   3  -9   26.16    6.95
  -1  -3   9   14.73    5.91
   1   3  -8  812.66   34.26
   1   3  -8  701.21   31.80
  -1  -3   8  852.84   50.12
  -1  -3   8  705.90   32.46
  -1  -3   8  692.85   31.84
  -1  -3   8  676.13   31.86
  -1  -3   8  676.30   32.87
  -1  -3   8  665.52   29.85
  -1  -3   8  678.96   29.77
   1   3  -8  680.18   29.30
   1   3  -8  642.44   39.05
   1   3  -8  745.89   39.45
  -1  -3   8  768.53   48.93
  -1  -3   7  382.62   20.11
  -1  -3   7  434.36   21.71
  -1  -3   7  421.81   20.74
  -1  -3   7  388.35   18.35
   1   3  -7  417.82   18.50
   1   3  -7  448.61   19.63
   1   3  -7  401.38   25.94
  -1  -3   7  390.69   20.62
   1   3  -6  473.12   23.30
   1   3  -6  470.15   23.24
   1   3  -6  454.11   20.21
   1   3  -6  480.10   20.90
  -1  -3   6  443.82   21.67
  -1  -3   6  471.62   22.56
  -1  -3   6  452.59   22.85
   1   3  -6  471.33   29.01
   1   3  -6  424.83   30.87
  -1  -3   5  606.67   27.32
  -1  -3   5  666.19   28.51
   1   3  -5  611.65   25.90
  -1  -3   5  610.01   36.96
   1   3  -5  675.44   33.87
   1   3  -5  619.61   33.65
   1   3  -5  606.02   29.49
   1   3  -5  614.49   29.55
  -1  -3   4  550.29   34.11
   1   3  -4  552.06   30.43
   1   3  -4  555.48   30.25
   1   3  -4  619.68   28.40
   1   3  -4  599.89   28.25
   1   3  -3 2116.69   90.90
  -1  -3   3 2396.41   98.84
   1   3  -3 2325.37   90.86
   1   3  -3 2265.85   90.69
  -1  -3   3 2192.18   92.04
   1   3  -2  292.03   18.26
   1   3  -2  296.08   16.15
  -1  -3   2  286.18   20.88
   1   3  -2  321.51   17.70
   1   3  -2  306.74   17.47
  -1  -3   2  307.99   17.82
   1   3  -1  662.31   32.21
   1   3  -1  660.49   27.78
  -1  -3   1  624.01   34.62
  -1  -3   1  720.95   38.35
   1   3  -1  665.25   36.10
  -1  -3   1  713.93   32.08
  -1  -3   0  171.43   11.82
  -1  -3   0  175.15   14.63
   1   3   0  190.74   12.16
  -1  -3   0  165.48   14.79
   1   3   0  184.24   12.48
   1   3   0  176.03   12.25
  -1  -3   0  172.23   11.89
  -1  -3  -1  779.62   37.05
   1   3   1  743.32   34.03
   1   3   1  763.73   35.82
   1   3   1  806.11   36.10
   1   3   1  795.14   41.30
   1   3   2 1983.30   77.96
   1   3   2 1953.95   77.82
   1   3   2 2180.12   90.71
  -1  -3  -2 2175.62   89.73
  -1  -3  -2 2084.97   85.44
   1   3   2 2037.20   82.12
   1   3   2 2042.66   82.14
   1   3   3  198.26   10.83
   1   3   3  204.41   10.78
   1   3   3  196.31   10.71
   1   3   3  208.06   18.75
  -1  -3  -3  192.29   15.88
   1   3   3  219.14   13.25
   1   3   3  205.61   12.96
   1   3   4 1128.79   45.16
   1   3   4 1136.13   45.01
   1   3   4 1104.63   45.06
  -1  -3  -4 1067.27   53.96
   1   3   4 1044.28   46.02
   1   3   4 1055.00   46.08
   1   3   5   15.77    2.56
   1   3   5   14.60    2.54
   1   3   5   15.28    2.70
   1   3   5   18.11    3.20
   1   3   5   13.66    2.37
  -1  -3  -5   18.06    5.25
  -1  -3  -5   11.98    5.48
   1   3   6  317.36   15.70
   1   3   6  305.29   15.61
   1   3   6  264.97   15.00
   1   3   6  292.03   16.94
  -1  -3  -6  276.16   14.25
  -1  -3  -6  284.92   24.45
  -1  -3  -6  257.78   28.86
   1   3   6  314.67   17.67
   1   3   7   81.57    6.45
   1   3   7   68.48    6.07
   1   3   7   71.90    7.27
  -1  -3  -7   66.64    5.59
  -1  -3  -7   62.11   11.21
   1   3   7   63.38    7.04
  -1  -3  -7   55.60   13.55
   1   3   8  155.39    9.58
   1   3   8  164.08   10.83
   1   3   8  147.61    9.53
  -1  -3  -8  140.26    9.20
  -1  -3  -8  125.60   16.84
  -1  -3  -8  131.28   21.05
  -1  -3  -9  235.54   12.89
   1   3   9  232.80   15.51
   1   3   9  233.20   12.33
   1   3   9  220.42   12.17
   1   3   9  276.66   14.65
  -1  -3 -11   64.43    6.28
   1   3  11   56.27    5.17
  -1  -3 -11   48.86    5.60
  -1  -4  15    9.89    1.67
  -1  -4  15   10.59    2.10
  -1  -4  14   -0.31    1.37
  -1  -4  14    1.78    0.95
  -1  -4  14   -0.25    0.91
   1   4 -14   -0.21    0.80
   1   4 -14   -0.19    0.59
   1   4 -14    0.88    1.05
  -1  -4  13    7.07    2.06
  -1  -4  13    6.84    2.15
  -1  -4  13    5.73    1.69
  -1  -4  13    3.08    1.40
   1   4 -13    3.41    1.29
   1   4 -13    3.42    1.34
   1   4 -13    7.52    2.36
   1   4 -12   82.64    7.19
   1   4 -12  108.50    8.03
  -1  -4  12  100.61    7.65
  -1  -4  12  104.27    9.24
  -1  -4  12  117.47    9.29
   1   4 -12   96.41    9.16
  -1  -4  11  104.51    9.18
  -1  -4  11  106.04    9.58
  -1  -4  11   88.64    8.39
  -1  -4  11   96.16    7.51
   1   4 -11   85.62    6.24
   1   4 -11   88.98    7.54
   1   4 -11   80.39    7.11
   1   4 -11   68.20   12.39
   1   4 -11  100.94    9.39
   1   4 -10   82.08    6.17
  -1  -4  10   79.47    6.82
  -1  -4  10   85.51    8.63
  -1  -4  10   91.95    8.50
  -1  -4  10   97.27    8.61
   1   4 -10   85.04    7.44
   1   4 -10   86.97    8.60
   1   4  -9   24.88    4.48
   1   4  -9   26.73    3.88
  -1  -4   9   20.45    3.17
  -1  -4   9   22.97    4.02
  -1  -4   9   23.23    4.07
  -1  -4   9   28.10    4.82
  -1  -4   9   26.59    3.42
  -1  -4   9   25.84    3.48
   1   4  -9   26.79    3.20
   1   4  -9   33.58    6.75
   1   4  -9   24.57    6.11
  -1  -4   9   22.56    7.72
   1   4  -8   22.08    4.09
   1   4  -8   25.92    3.70
  -1  -4   8   21.02    6.89
  -1  -4   8   28.14    3.85
  -1  -4   8   32.72    4.86
  -1  -4   8   21.45    3.72
  -1  -4   8   32.95    4.61
  -1  -4   8   26.83    3.25
   1   4  -8   26.50    3.55
   1   4  -8   27.71    3.22
   1   4  -8   27.24    6.20
   1   4  -8   27.03    6.57
  -1  -4   8   25.35    8.28
  -1  -4   7  106.33    8.87
  -1  -4   7   94.74    7.74
  -1  -4   7  105.82    8.54
  -1  -4   7   91.55    6.33
   1   4  -7   94.88    6.57
   1   4  -7   94.27   12.43
   1   4  -7  114.07    9.30
   1   4  -7   86.33    8.33
  -1  -4   6  843.22   36.31
   1   4  -6  838.53   35.32
  -1  -4   6  971.81   39.97
  -1  -4   6  903.33   38.65
  -1  -4   6  933.86   39.92
  -1  -4   6  866.36   36.12
   1   4  -6  898.88   36.80
  -1  -4   6  907.97   51.90
   1   4  -6  920.61   47.77
   1   4  -6  970.42   47.33
   1   4  -6  984.34   42.22
   1   4  -6  966.49   42.01
   1   4  -5    6.44    1.24
  -1  -4   5    5.67    1.89
   1   4  -5    6.53    1.46
   1   4  -5    5.62    2.72
   1   4  -5    6.66    2.82
   1   4  -5   10.48    2.92
   1   4  -5    6.62    2.25
   1   4  -4  140.10    8.14
   1   4  -4  146.98   12.69
  -1  -4   4  159.16   16.67
  -1  -4   4  149.12    9.64
  -1  -4   4  167.76   13.90
  -1  -4   3   -1.03    2.31
   1   4  -3   -0.51    1.42
   1   4  -3    0.75    1.46
  -1  -4   3    1.20    2.69
  -1  -4   3    0.68    1.33
   1   4  -2  843.36   40.67
  -1  -4   2  797.19   42.65
   1   4  -2  724.28   34.66
  -1  -4   2  854.24   39.25
  -1  -4   1  485.04   30.68
   1   4  -1  505.54   21.15
  -1  -4   1  516.48   27.46
   1   4   0  426.16   19.28
   1   4   0  420.61   28.92
  -1  -4   0  475.73   25.54
  -1  -4   0  490.24   30.05
   1   4   0  461.50   25.31
  -1  -4   0  503.92   31.04
   1   4   1  715.28   31.35
  -1  -4  -1  806.31   32.90
   1   4   1  741.75   31.25
   1   4   1  754.89   31.66
   1   4   1  815.67   43.34
   1   4   1  757.31   31.55
  -1  -4  -1  841.23   40.27
  -1  -4  -1  804.74   43.80
   1   4   1  725.03   35.83
   1   4   1  830.95   38.47
   1   4   1  854.69   38.62
  -1  -4  -2   39.84    4.16
   1   4   2   39.33    3.69
   1   4   2   36.18    3.63
   1   4   2   34.32    3.56
   1   4   2   37.13    3.46
   1   4   2   41.69    8.35
  -1  -4  -2   36.65    6.65
   1   4   2   49.89    6.22
   1   4   2   38.37    5.70
   1   4   3  373.06   17.38
   1   4   3  351.78   16.38
  -1  -4  -3  354.52   25.13
  -1  -4  -3  340.43   26.89
   1   4   3  375.40   21.00
   1   4   3  364.55   20.88
   1   4   4    1.49    0.95
   1   4   4    2.57    1.12
   1   4   4    0.56    0.71
   1   4   4    0.76    1.13
  -1  -4  -4    3.31    2.16
  -1  -4  -4    1.53    1.72
   1   4   5  485.85   24.11
   1   4   5  484.73   22.55
   1   4   5  473.22   22.64
  -1  -4  -5  446.14   34.63
  -1  -4  -5  410.67   31.70
   1   4   5  469.78   22.63
   1   4   6  290.30   15.52
   1   4   6  289.00   15.40
   1   4   6  304.14   16.03
   1   4   6  278.33   16.84
  -1  -4  -6  280.74   27.48
  -1  -4  -6  244.27   24.30
  -1  -4  -6  212.77   26.97
   1   4   6  266.95   17.28
   1   4   7  122.25    9.03
   1   4   7  130.27    9.07
   1   4   7  150.85   10.10
   1   4   7  140.83   10.77
  -1  -4  -7  125.50   18.40
  -1  -4  -7  137.92   17.20
   1   4   7  131.14   10.74
   1   4   8   61.08    5.55
   1   4   8   64.82    5.63
   1   4   9   20.17    2.60
  -1  -4  -9   17.01    3.65
   1   4   9   18.78    3.67
  -1  -4 -10  153.11   10.48
   1   4  10  135.72    9.47
  -1  -4 -11    1.26    0.98
   1   4  11    1.55    0.86
  -1  -4 -11    1.03    1.16
  -1  -5  15   41.57    3.97
  -1  -5  14   10.50    1.87
  -1  -5  14   13.31    2.47
  -1  -5  14   13.85    2.09
  -1  -5  14   17.58    2.65
   1   5 -14   14.12    2.11
  -1  -5  14   13.27    2.67
   1   5 -14   13.84    2.39
  -1  -5  13   18.10    3.42
  -1  -5  13   21.58    3.60
  -1  -5  13   19.12    3.06
  -1  -5  13   18.29    2.84
  -1  -5  13   22.85    3.54
   1   5 -13   19.18    2.77
   1   5 -13   12.23    2.15
   1   5 -13   15.55    3.13
  -1  -5  12    4.22    1.83
  -1  -5  12    2.09    1.49
  -1  -5  12    3.71    1.52
   1   5 -12    1.95    0.95
   1   5 -12    2.54    1.23
   1   5 -12    3.17    1.77
  -1  -5  11  149.64   11.00
  -1  -5  11  137.97   11.01
  -1  -5  11  114.00    8.94
   1   5 -11  127.90    8.23
   1   5 -11  114.16   15.84
   1   5 -11  128.72   10.68
  -1  -5  10   10.88    3.22
  -1  -5  10   12.54    3.12
  -1  -5  10    8.43    2.17
  -1  -5  10   12.65    2.49
   1   5 -10   11.13    2.18
   1   5 -10    6.37    1.99
   1   5 -10   11.65    4.17
   1   5 -10   14.31    4.88
   1   5 -10   20.25    6.11
   1   5 -10    9.41    2.87
  -1  -5   9   11.38    2.98
  -1  -5   9    9.77    2.21
   1   5  -9   14.50    2.45
   1   5  -9    8.34    2.19
   1   5  -9   11.91    4.26
   1   5  -9    9.49    4.06
   1   5  -9    9.93    2.90
  -1  -5   8  176.69   20.52
  -1  -5   8  164.46   11.92
  -1  -5   8  161.26    9.67
   1   5  -8  149.55    9.62
  -1  -5   8  155.19    9.00
   1   5  -8  138.70   16.65
   1   5  -8  168.71   11.83
   1   5  -7   21.53    3.59
   1   5  -7   20.85    2.37
  -1  -5   7   19.84    3.61
  -1  -5   7   18.87    2.66
   1   5  -7   18.73    2.73
   1   5  -7   26.59    6.76
  -1  -5   7   17.37    2.45
   1   5  -7   18.34    5.35
  -1  -5   7   22.15    7.82
   1   5  -7   22.57    4.48
   1   5  -7   25.19    4.60
   1   5  -6  171.52    9.15
  -1  -5   6  162.92   11.42
  -1  -5   6  182.34   12.28
  -1  -5   6  172.71    9.71
   1   5  -6  178.97   10.12
   1   5  -6  162.93    8.66
   1   5  -6  188.71   17.67
   1   5  -6  196.71   17.10
  -1  -5   6  156.44    9.46
   1   5  -6  213.60   15.37
   1   5  -6  203.24   15.07
  -1  -5   6  211.88   22.77
  -1  -5   5   39.59    3.91
   1   5  -5   36.96    3.43
  -1  -5   5   41.38    5.04
  -1  -5   5   35.78    7.22
   1   5  -5   40.64    3.40
   1   5  -5   33.85    3.64
  -1  -5   5   36.24    3.77
   1   5  -5   36.47    6.47
   1   5  -5   45.01    8.01
  -1  -5   5   41.49    9.74
  -1  -5   4  474.17   23.40
   1   5  -4  456.74   20.97
   1   5  -4  476.58   20.57
  -1  -5   4  527.70   31.04
   1   5  -4  450.14   26.67
  -1  -5   4  475.63   21.68
  -1  -5   4  480.14   21.55
   1   5  -4  477.65   20.78
   1   5  -3  550.91   23.11
  -1  -5   3  511.53   23.47
   1   5  -3  531.42   34.26
  -1  -5   3  538.29   31.09
   1   5  -3  539.61   22.91
   1   5  -3  535.02   23.01
   1   5  -3  539.77   32.15
   1   5  -3  492.64   26.91
  -1  -5   3  543.14   36.78
   1   5  -2  151.27    7.90
  -1  -5   2  146.62   13.31
   1   5  -2  150.55    8.46
   1   5  -2  159.84   14.42
   1   5  -2  156.30    9.91
  -1  -5   2  145.07    8.96
   1   5  -1   61.22    4.43
   1   5  -1   59.60    9.53
  -1  -5   1   60.11    8.15
   1   5  -1   77.67    9.17
   1   5  -1   60.39    4.29
  -1  -5   1   63.61    5.39
   1   5  -1   57.67    4.59
   1   5   0  146.69    8.08
  -1  -5   0  139.73    9.20
   1   5   0  152.18    8.30
   1   5   0  134.15    8.05
   1   5   0  120.13   14.34
  -1  -5   0  147.32   13.36
   1   5   0  150.58    8.51
   1   5   0  125.36   12.29
  -1  -5   0  112.62   15.09
   1   5   1  540.34   23.97
  -1  -5  -1  600.17   26.29
   1   5   1  532.53   23.68
   1   5   1  536.44   24.20
  -1  -5  -1  591.18   33.20
   1   5   1  565.91   36.28
   1   5   1  532.56   24.02
  -1  -5  -1  563.97   33.30
   1   5   1  496.20   28.61
  -1  -5  -1  537.29   36.19
   1   5   1  632.19   32.55
   1   5   1  615.56   32.20
   1   5   2  197.18   10.98
  -1  -5  -2  197.68   12.24
   1   5   2  187.26   10.63
   1   5   2  206.69   10.33
   1   5   2  189.51   11.01
   1   5   2  206.64   20.36
   1   5   2  188.06   10.51
  -1  -5  -2  178.23   17.56
   1   5   2  230.15   16.78
  -1  -5  -2  169.90   18.17
   1   5   2  196.57   15.69
  -1  -5  -3    5.59    3.16
   1   5   3    8.30    1.89
  -1  -5  -3    6.98    2.28
   1   5   3    5.16    1.55
   1   5   3    6.06    1.53
  -1  -5  -3    9.54    3.81
   1   5   3    7.22    2.46
   1   5   3    3.94    1.83
   1   5   4   70.42    6.23
   1   5   4   57.89    6.34
   1   5   4   68.84    5.11
  -1  -5  -4   58.27   10.85
  -1  -5  -4   68.64    6.92
   1   5   4   76.21    6.23
   1   5   5    2.12    1.33
   1   5   5    3.34    1.42
  -1  -5  -5    4.05    1.97
   1   5   5    2.68    1.26
   1   5   5    4.84    2.05
  -1  -5  -5    4.35    2.83
  -1  -5  -5    5.65    3.67
   1   5   6  128.49    8.98
  -1  -5  -6  114.12    9.87
   1   5   6  113.21    8.59
   1   5   6  119.98    8.71
   1   5   6  128.35   10.07
  -1  -5  -6  137.28   16.99
  -1  -5  -6  104.05   17.62
   1   5   6  116.11   10.55
   1   5   7   33.06    4.05
   1   5   7   41.11    4.54
   1   5   7   37.95    4.27
  -1  -5  -7   24.77    4.51
   1   5   7   31.72    5.00
   1   5   8   18.02    2.72
  -1  -5  -8   16.63    3.51
   1   5   8   23.10    2.98
  -1  -5  -9   61.73    7.19
  -1  -5  -9   60.01    6.22
   1   5   9   53.02    5.48
  -1  -5 -10    2.33    1.21
   1   5  10    1.66    0.98
  -1  -5 -10    1.90    1.51
  -1  -6  14   63.81    4.90
  -1  -6  14   68.74    5.58
  -1  -6  14   66.10    5.83
  -1  -6  14   64.89    5.48
   1   6 -13    2.19    0.81
  -1  -6  13    2.62    1.23
  -1  -6  13    0.33    1.29
  -1  -6  13    3.37    1.64
  -1  -6  13    2.83    1.01
  -1  -6  12  165.30   10.60
  -1  -6  12  209.96   13.36
  -1  -6  12  184.85   11.02
   1   6 -12  166.39    9.36
   1   6 -12  122.34    8.70
   1   6 -12  156.01   10.09
  -1  -6  12  172.33   11.63
   1   6 -12  155.15   11.03
   1   6 -11  145.76   11.06
  -1  -6  11  167.69   19.69
  -1  -6  11  178.36   12.67
  -1  -6  11  136.38   10.28
  -1  -6  11  157.65   10.38
  -1  -6  11  153.35   10.49
   1   6 -11  155.58    9.45
   1   6 -11  143.96    9.91
   1   6 -11  124.01   15.72
   1   6 -11  166.33   17.85
   1   6 -11  152.80   16.36
  -1  -6  11  139.70   10.71
  -1  -6  10   27.22    4.77
  -1  -6  10   17.57    3.41
  -1  -6  10   22.14    3.36
  -1  -6  10   25.76    3.81
   1   6 -10   26.24    3.46
   1   6 -10   18.02    3.16
   1   6 -10   21.64    5.97
   1   6 -10   18.38    5.59
   1   6 -10   32.80    7.59
   1   6 -10   22.47    4.05
   1   6  -9   83.31    7.97
  -1  -6   9   73.92   13.44
  -1  -6   9   76.65    8.08
  -1  -6   9   80.54    8.18
  -1  -6   9   75.18    7.30
  -1  -6   9   70.51    6.39
   1   6  -9   77.65    6.34
   1   6  -9   78.56    6.52
   1   6  -9   62.42   11.23
  -1  -6   9   89.46   15.46
  -1  -6   8  395.81   21.44
   1   6  -8  436.45   21.99
   1   6  -8  404.27   18.10
  -1  -6   8  432.45   34.33
  -1  -6   8  422.76   22.66
  -1  -6   8  372.12   20.92
  -1  -6   8  411.32   22.34
  -1  -6   8  388.52   19.66
   1   6  -8  411.51   19.73
   1   6  -8  424.34   31.18
   1   6  -8  377.05   28.81
  -1  -6   8  397.46   19.24
   1   6  -8  405.71   24.92
  -1  -6   8  438.33   36.63
   1   6  -8  428.77   25.37
  -1  -6   7  862.65   58.66
  -1  -6   7  955.85   40.13
   1   6  -7  910.17   38.20
  -1  -6   7  897.41   41.08
  -1  -6   7  959.21   42.76
  -1  -6   7 1005.05   42.92
  -1  -6   7  957.60   39.71
   1   6  -7  959.20   39.64
  -1  -6   7 1036.61   61.46
   1   6  -7  976.49   53.14
   1   6  -7  809.06   49.05
  -1  -6   7  914.60   39.33
   1   6  -7  950.15   46.82
  -1  -6   7  914.72   58.65
   1   6  -7  993.16   47.28
   1   6  -6  107.74    8.55
  -1  -6   6  102.50    7.52
   1   6  -6   97.79    6.45
  -1  -6   6   94.68    8.50
  -1  -6   6   83.15    7.48
  -1  -6   6  101.12    8.74
  -1  -6   6   71.35   11.70
   1   6  -6  103.05    6.31
  -1  -6   6  100.20   15.85
   1   6  -6  106.87   13.39
  -1  -6   6   89.38    6.91
   1   6  -6   83.53   11.12
   1   6  -6  128.93   12.24
   1   6  -6  114.71   11.61
  -1  -6   6  107.89   16.19
  -1  -6   5  136.24   10.21
  -1  -6   5  149.66   15.95
   1   6  -5  142.66    8.74
   1   6  -5  141.32    8.10
  -1  -6   5  123.46   17.14
   1   6  -5  144.66   13.65
  -1  -6   5  141.79    9.11
  -1  -6   5  143.82    9.19
   1   6  -5  143.97    8.37
  -1  -6   4  246.65   14.61
   1   6  -4  267.96   22.91
  -1  -6   4  253.69   20.51
   1   6  -4  238.42   12.40
   1   6  -4  229.86   11.96
   1   6  -4  260.53   21.12
   1   6  -4  227.77   16.77
  -1  -6   4  235.47   13.23
  -1  -6   4  224.88   22.69
  -1  -6   4  235.77   12.98
   1   6  -4  242.43   12.28
  -1  -6   3  692.95   30.61
   1   6  -3  700.19   29.85
  -1  -6   3  672.54   31.79
  -1  -6   3  660.57   31.93
   1   6  -3  733.14   28.77
  -1  -6   3  698.41   39.41
   1   6  -3  697.59   29.66
   1   6  -3  722.97   29.69
   1   6  -3  632.86   32.97
   1   6  -3  716.68   40.22
  -1  -6   3  720.83   31.27
  -1  -6   3  649.71   43.14
  -1  -6   3  670.53   44.22
   1   6  -2  342.15   15.44
   1   6  -2  342.16   26.09
  -1  -6   2  357.64   24.28
   1   6  -2  337.07   16.16
   1   6  -2  317.55   15.52
  -1  -6   2  345.22   17.97
   1   6  -2  346.18   24.53
  -1  -6   2  322.32   27.28
  -1  -6   2  323.68   16.96
   1   6  -2  342.29   15.12
   1   6  -1  136.29    7.98
   1   6  -1  152.90   16.41
  -1  -6   1  137.00   13.90
   1   6  -1  122.28   13.22
  -1  -6   1  132.91    9.20
   1   6  -1  130.30    7.62
   1   6  -1  139.18    8.32
   1   6   0  489.91   21.96
  -1  -6   0  479.22   23.97
   1   6   0  500.33   22.24
   1   6   0  507.37   22.35
   1   6   0  554.19   35.96
  -1  -6   0  488.73   31.11
   1   6   0  514.20   22.59
   1   6   0  464.56   29.09
  -1  -6   0  504.72   35.98
  -1  -6   0  425.41   28.63
  -1  -6  -1    4.15    2.34
   1   6   1    1.52    0.91
  -1  -6  -1    5.49    2.03
   1   6   1    2.80    1.02
   1   6   1    3.25    1.30
   1   6   1    6.76    4.03
  -1  -6  -1    5.20    2.62
   1   6   1    2.37    1.11
  -1  -6  -1    2.95    3.32
   1   6   1    2.61    1.70
   1   6   1    5.22    2.40
  -1  -6  -2  206.33   20.35
   1   6   2  228.73   12.51
   1   6   2  221.58   11.65
  -1  -6  -2  233.63   14.50
   1   6   2  237.55   12.87
  -1  -6  -2  232.34   20.68
   1   6   2  219.25   12.21
  -1  -6  -2  239.70   24.32
   1   6   2  237.92   17.89
   1   6   2  258.20   18.46
  -1  -6  -2  171.00   20.07
  -1  -6  -3   89.86   13.44
   1   6   3   93.83    7.27
  -1  -6  -3  104.41    9.02
   1   6   3   99.55    7.16
   1   6   3   95.14    7.53
   1   6   3   98.83    6.85
  -1  -6  -3  111.93   14.24
   1   6   3   92.98    8.09
  -1  -6  -3  100.65   14.16
  -1  -6  -3   91.11   15.15
  -1  -6  -3   72.53   11.97
   1   6   4  106.33    8.77
   1   6   4   92.14    6.48
  -1  -6  -4  108.93   14.75
  -1  -6  -4   89.70   15.58
  -1  -6  -4  113.44    9.74
   1   6   4  105.02    7.56
   1   6   5  363.84   20.22
   1   6   5  397.84   19.67
  -1  -6  -5  358.44   30.38
  -1  -6  -5  330.34   32.29
  -1  -6  -5  392.31   21.81
   1   6   5  389.34   19.12
   1   6   6    0.33    0.75
   1   6   6   -0.51    1.53
  -1  -6  -6   -0.48    1.21
   1   6   6    0.32    0.71
   1   6   6   -0.39    1.24
   1   6   7   69.34    5.67
  -1  -6  -7   62.74    6.85
   1   6   7   68.91    5.56
   1   6   7   48.16    5.81
   1   6   8    0.39    0.58
   1   6   8    0.80    0.55
  -1  -6  -9   75.33    5.95
   1   7 -14   24.10    2.60
  -1  -7  14   23.86    2.67
  -1  -7  14   30.19    3.27
  -1  -7  14   22.90    2.88
   1   7 -13    0.44    0.56
   1   7 -13    2.31    0.77
  -1  -7  13    1.09    0.82
  -1  -7  13    1.13    1.27
  -1  -7  13    1.94    1.03
  -1  -7  12   10.89    2.58
  -1  -7  12    8.81    2.49
  -1  -7  12    9.20    2.28
   1   7 -12    3.15    1.21
   1   7 -12    6.21    1.71
  -1  -7  12    6.91    2.21
   1   7 -12    4.40    1.85
   1   7 -11   48.14    4.60
   1   7 -11   43.67    4.65
  -1  -7  11   52.66    5.35
  -1  -7  11   47.92    5.46
  -1  -7  11   58.38    6.68
  -1  -7  11   38.72    4.48
  -1  -7  11   42.00    5.59
   1   7 -11   46.39    5.31
  -1  -7  10   77.73    8.09
  -1  -7  10   63.64    6.21
  -1  -7  10   81.58    7.94
  -1  -7  10   75.92    6.65
   1   7 -10   79.23    6.28
   1   7 -10   62.99    5.87
   1   7 -10   79.63   11.45
   1   7 -10   67.38   10.77
   1   7 -10   76.11    7.34
  -1  -7   9   22.81    7.48
  -1  -7   9   27.18    4.55
  -1  -7   9   25.33    4.65
  -1  -7   9   25.75    3.79
  -1  -7   9   25.46    3.62
   1   7  -9   29.69    3.71
   1   7  -9   24.45    3.42
  -1  -7   9   27.52    3.52
   1   7  -9   24.70    6.30
   1   7  -9   24.49    3.98
  -1  -7   8  203.68   14.02
   1   7  -8  210.53   13.41
   1   7  -8  214.61   11.03
  -1  -7   8  201.49   14.15
  -1  -7   8  197.98   12.66
  -1  -7   8  204.79   14.01
  -1  -7   8  216.75   12.66
   1   7  -8  226.02   12.43
   1   7  -8  247.66   22.66
   1   7  -8  216.02   19.98
  -1  -7   8  212.02   12.17
   1   7  -8  191.69   16.38
   1   7  -8  193.88   16.52
  -1  -7   8  211.57   24.36
  -1  -7   7   79.59    8.00
   1   7  -7   80.71    7.37
  -1  -7   7   72.49   12.69
  -1  -7   7   79.65    6.76
   1   7  -7   74.89    5.56
  -1  -7   7   72.08    7.60
  -1  -7   7   67.19    6.43
  -1  -7   7   76.30    7.54
  -1  -7   7   73.00    6.30
   1   7  -7   76.87    5.35
   1   7  -7  100.52   13.68
   1   7  -7   63.55    9.58
  -1  -7   7   74.54    6.25
  -1  -7   7   45.45   11.82
   1   7  -7   74.34    9.79
   1   7  -7   83.92   10.37
  -1  -7   6  183.03   23.55
  -1  -7   6  147.08    9.88
   1   7  -6  154.76    8.98
  -1  -7   6  143.26   17.36
  -1  -7   6  145.89   11.14
  -1  -7   6  144.92   11.12
  -1  -7   6  150.72   10.19
   1   7  -6  156.44   18.24
  -1  -7   6  143.32   17.12
   1   7  -6  153.14    9.52
   1   7  -6  147.75    8.65
   1   7  -6  160.06   15.02
  -1  -7   6  148.51    9.78
   1   7  -6  174.44   15.45
   1   7  -6  164.56   15.18
  -1  -7   6  132.27   18.17
   1   7  -5   22.63    3.65
  -1  -7   5   29.07    7.03
  -1  -7   5   25.62    3.51
   1   7  -5   22.87    2.93
  -1  -7   5   20.96    3.87
  -1  -7   5   14.87    5.11
   1   7  -5   20.78    2.72
   1   7  -5   25.42    3.16
  -1  -7   5   28.68    8.11
   1   7  -5   18.65    4.37
  -1  -7   5   24.31    3.54
   1   7  -5   31.53    7.28
  -1  -7   5   23.88    7.00
  -1  -7   4  280.95   15.75
   1   7  -4  307.53   15.01
  -1  -7   4  299.10   17.42
  -1  -7   4  294.63   17.31
  -1  -7   4  294.07   24.34
   1   7  -4  292.92   14.94
   1   7  -4  311.03   14.92
   1   7  -4  314.56   24.85
  -1  -7   4  292.03   16.15
  -1  -7   4  257.23   26.37
  -1  -7   4  286.93   26.85
  -1  -7   3  209.45   14.07
  -1  -7   3  234.32   14.64
   1   7  -3  247.21   11.78
   1   7  -3  237.76   22.00
  -1  -7   3  233.64   20.88
   1   7  -3  239.20   12.46
   1   7  -3  250.38   12.83
  -1  -7   3  238.22   14.11
   1   7  -3  230.19   20.73
  -1  -7   3  213.01   23.48
  -1  -7   3  238.07   13.69
   1   7  -2   12.20    1.83
  -1  -7   2   11.59    2.59
   1   7  -2   13.09    2.30
   1   7  -2   12.47    1.99
   1   7  -2   12.92    5.07
  -1  -7   2   16.45    4.81
   1   7  -2   14.18    2.14
   1   7  -2   13.74    2.36
   1   7  -2   16.16    4.72
  -1  -7   2    9.98    4.28
  -1  -7   1  240.93   26.18
   1   7  -1  232.02   11.51
  -1  -7   1  204.02   13.21
   1   7  -1  219.78   12.00
   1   7  -1  212.51   11.62
   1   7  -1  226.96   21.93
  -1  -7   1  207.54   19.59
   1   7  -1  228.21   19.38
  -1  -7   1  184.83   21.69
  -1  -7   1  190.69   20.75
  -1  -7   0   23.43    4.16
   1   7   0   33.86    3.59
  -1  -7   0   37.25    4.91
   1   7   0   30.81    3.55
   1   7   0   34.20    3.72
   1   7   0   25.34    7.53
  -1  -7   0   28.98    6.63
   1   7   0   27.85    3.52
  -1  -7   0   21.25    7.46
   1   7   0   27.98    5.78
   1   7   0   46.47    7.72
   1   7   0   37.58    6.96
  -1  -7  -1  460.85   23.06
   1   7   1  471.84   21.42
  -1  -7  -1  452.59   23.92
   1   7   1  447.10   20.89
   1   7   1  466.89   21.66
  -1  -7  -1  458.14   32.27
   1   7   1  443.57   21.43
  -1  -7  -1  405.95   35.08
   1   7   1  491.80   30.15
   1   7   1  450.36   29.34
  -1  -7  -2  678.08   31.63
   1   7   2  648.42   28.78
   1   7   2  611.72   27.35
   1   7   2  695.61   29.33
  -1  -7  -2  601.35   39.84
   1   7   2  643.54   30.15
   1   7   2  627.60   28.41
  -1  -7  -2  604.77   45.23
   1   7   2  661.83   36.35
   1   7   2  634.55   35.95
   1   7   3  194.02   11.95
   1   7   3  208.55   12.94
  -1  -7  -3  177.20   19.27
  -1  -7  -3  202.07   22.89
   1   7   3  215.82   12.07
  -1  -7  -3  202.69   13.71
   1   7   3  179.57   10.78
   1   7   4   26.47    4.05
  -1  -7  -4   29.83    4.71
   1   7   4   30.28    3.83
  -1  -7  -4   28.56    8.12
  -1  -7  -5   39.85    5.44
   1   7   5   34.17    4.35
   1   7   6  165.28    9.74
   1   7   6  145.89   10.79
  -1  -7  -6  156.73   11.08
   1   7   6  162.13    9.54
  -1  -7  -7    0.32    1.09
   1   7   7   -0.20    0.50
   1   7   7   -0.41    0.69
   1   7   8   47.90    4.20
  -1  -7  -8   51.55    4.57
   1   8 -14    0.63    0.45
  -1  -8  14    0.35    0.48
   1   8 -13   16.57    2.16
   1   8 -13   13.39    1.80
  -1  -8  13   15.11    2.40
  -1  -8  13   15.20    2.44
   1   8 -12   30.89    3.21
   1   8 -12   23.16    3.01
  -1  -8  12   29.44    3.75
  -1  -8  12   29.74    4.11
  -1  -8  12   31.28    4.02
   1   8 -11    1.26    0.80
   1   8 -11    1.29    0.97
  -1  -8  11    0.70    0.96
  -1  -8  11    0.89    0.82
  -1  -8  11    3.13    1.59
  -1  -8  11    0.86    0.97
   1   8 -10    6.52    1.77
   1   8 -10    9.01    1.96
  -1  -8  10    9.01    2.10
  -1  -8  10    3.84    1.82
  -1  -8  10    5.64    2.20
  -1  -8   9   -0.42    1.26
   1   8  -9    0.20    0.38
  -1  -8   9    0.45    1.12
  -1  -8   9    0.97    1.10
  -1  -8   9    0.33    0.74
   1   8  -9   -0.54    0.81
   1   8  -9    1.20    0.96
   1   8  -9    2.66    2.12
   1   8  -9    2.25    1.79
  -1  -8   9    0.59    0.75
  -1  -8   8   60.60   12.80
   1   8  -8   49.75    5.43
  -1  -8   8   65.34   11.37
   1   8  -8   44.07    4.11
  -1  -8   8   57.29    6.63
  -1  -8   8   43.59    5.65
  -1  -8   8   38.85    4.65
   1   8  -8   50.34    4.61
   1   8  -8   54.67    9.90
   1   8  -8   59.67    9.16
  -1  -8   8   53.84    5.17
   1   8  -8   48.95    7.58
   1   8  -8   43.76    7.20
  -1  -8   8   43.78    9.84
  -1  -8   7   67.12    7.51
  -1  -8   7   46.53    5.27
   1   8  -7   52.21    4.64
  -1  -8   7   59.80    6.71
  -1  -8   7   53.33    6.15
  -1  -8   7   53.20    5.27
   1   8  -7   54.79    5.25
   1   8  -7   54.87    4.50
   1   8  -7   52.88    8.27
  -1  -8   7   34.89    9.47
  -1  -8   7   48.54    5.17
   1   8  -7   62.24    8.85
   1   8  -7   54.74    8.34
  -1  -8   7   63.64   11.65
  -1  -8   6   17.35    4.03
   1   8  -6   19.98    2.83
  -1  -8   6   14.03    2.80
  -1  -8   6   18.20    3.53
  -1  -8   6   16.23    3.59
  -1  -8   6   15.70    5.38
   1   8  -6   16.78    2.84
   1   8  -6   24.28    2.91
  -1  -8   6   17.04    6.43
  -1  -8   6   16.05    2.99
   1   8  -6   18.79    5.70
   1   8  -6   20.83    5.17
   1   8  -6   23.81    5.52
  -1  -8   6   21.94    6.64
  -1  -8   5    9.42    2.95
  -1  -8   5    3.50    2.28
  -1  -8   5    1.83    1.31
   1   8  -5    4.37    1.35
  -1  -8   5    4.37    1.91
  -1  -8   5    2.82    1.76
   1   8  -5    3.97    2.59
  -1  -8   5    2.75    2.19
   1   8  -5    1.96    1.10
   1   8  -5    3.35    1.24
  -1  -8   5   -1.84    0.12
  -1  -8   5    5.91    1.86
   1   8  -5    7.85    3.61
  -1  -8   5    4.49    2.92
  -1  -8   4   -0.51    1.63
  -1  -8   4    1.01    1.14
  -1  -8   4    0.75    1.04
   1   8  -4    0.28    0.83
  -1  -8   4    0.47    1.29
  -1  -8   4    0.87    1.20
   1   8  -4    1.34    1.51
   1   8  -4    1.32    0.89
   1   8  -4    0.27    0.92
   1   8  -4    1.27    1.43
  -1  -8   4    1.79    2.86
  -1  -8   4    2.84    2.26
  -1  -8   3  165.17   11.54
  -1  -8   3  162.49   12.13
  -1  -8   3  163.79   11.85
   1   8  -3  174.42    9.47
   1   8  -3  166.64   18.81
  -1  -8   3  169.54   18.89
   1   8  -3  177.20   10.05
   1   8  -3  183.94   10.67
   1   8  -3  187.75   18.18
  -1  -8   3  190.23   12.42
  -1  -8   3  149.41   20.09
  -1  -8   3  189.44   13.27
  -1  -8   2  119.15    9.78
   1   8  -2   97.07    6.44
  -1  -8   2  104.89    8.60
   1   8  -2  104.96    7.43
  -1  -8   2   96.46    8.98
   1   8  -2  114.87    7.18
  -1  -8   2   94.22    8.59
   1   8  -2  114.12   14.87
  -1  -8   2   74.16   12.23
   1   8  -2  100.84    7.40
  -1  -8   2   99.91   16.16
   1   8  -2  119.12   13.71
  -1  -8   2   99.06    8.80
   1   8  -2  117.45   13.30
   1   8  -2  117.46   13.30
  -1  -8   1    0.46    1.36
  -1  -8   1    2.17    1.29
   1   8  -1    0.70    0.59
   1   8  -1    0.28    0.85
   1   8  -1    2.07    0.92
   1   8  -1    1.52    1.08
  -1  -8   0  214.52   26.11
   1   8   0  336.70   15.99
  -1  -8   0  325.26   18.34
   1   8   0  316.78   16.02
   1   8   0  334.35   16.32
  -1  -8   0  300.79   26.15
   1   8   0  320.63   16.47
  -1  -8   0  236.11   27.48
  -1  -8   0  304.25   18.62
   1   8   0  357.23   24.68
   1   8   0  343.45   24.83
   1   8   1    2.39    1.17
  -1  -8  -1    6.49    3.27
   1   8   1    1.78    1.01
   1   8   1    2.48    1.08
  -1  -8  -1    2.77    1.95
   1   8   1    4.67    1.30
   1   8   1    2.84    1.85
   1   8   1    5.69    2.62
   1   8   2   21.21    3.18
   1   8   2   23.92    3.62
  -1  -8  -2   28.30    6.85
   1   8   2   20.57    2.96
  -1  -8  -2   23.28    7.32
   1   8   2   28.46    3.51
  -1  -8  -2   15.21    3.42
   1   8   3    2.49    0.89
  -1  -8  -3    0.89    1.33
   1   8   3    1.72    1.07
   1   8   3    0.66    1.05
   1   8   3    1.21    1.08
  -1  -8  -4   27.03    4.22
   1   8   4   33.18    3.80
   1   8   4   32.10    3.80
   1   8   4   35.45    3.94
  -1  -8  -5   76.87    6.92
   1   8   5   77.72    5.73
   1   8   5   80.30    7.21
  -1  -8  -6   -0.28    1.15
   1   8   6    0.72    0.67
   1   8   6    1.49    0.73
  -1  -8  -6    0.27    0.79
   1   8   6    0.76    0.91
   1   8   7   22.00    2.55
  -1  -8  -7   23.53    2.78
   1   9 -13    3.35    0.85
   1   9 -13    4.04    0.93
  -1  -9  13    5.78    1.29
  -1  -9  13    4.49    1.18
   1   9 -12   17.41    2.25
   1   9 -12   17.92    2.20
  -1  -9  12   23.68    3.04
  -1  -9  12   23.69    3.23
  -1  -9  12   20.46    2.89
   1   9 -11  143.57    8.28
   1   9 -11  123.44    7.76
  -1  -9  11  128.66    8.33
  -1  -9  11  147.72    9.32
  -1  -9  11  130.43    9.52
  -1  -9  11  132.52    9.04
   1   9 -10    2.58    1.23
   1   9 -10    1.74    0.88
  -1  -9  10    0.86    0.80
  -1  -9  10    1.41    1.32
  -1  -9  10    1.62    1.21
   1   9  -9    7.39    1.49
  -1  -9   9    6.45    2.06
  -1  -9   9    3.94    1.93
  -1  -9   9    4.00    1.49
   1   9  -9    6.58    1.52
  -1  -9   9    5.99    1.62
  -1  -9   9    9.80    2.77
  -1  -9   8   67.65   13.44
  -1  -9   8   52.98    9.68
   1   9  -8   58.32    4.79
  -1  -9   8   62.25    6.70
  -1  -9   8   58.62    6.14
  -1  -9   8   53.54    5.39
   1   9  -8   64.87    5.53
   1   9  -8   55.01    4.35
   1   9  -8   66.84   10.87
  -1  -9   8   53.50    5.32
   1   9  -8   64.94    8.83
   1   9  -8   65.90    8.90
  -1  -9   7  134.60   21.05
  -1  -9   7  135.34    9.92
   1   9  -7  150.21    8.98
  -1  -9   7  141.65   11.13
  -1  -9   7  148.65   10.68
  -1  -9   7  140.96    9.64
   1   9  -7  140.25    9.24
   1   9  -7  155.68    8.77
  -1  -9   7  133.90   18.70
   1   9  -7  137.51   16.68
  -1  -9   7  139.96    9.75
   1   9  -7  146.30   14.50
   1   9  -7  176.39   15.72
  -1  -9   6   75.15   15.41
  -1  -9   6   71.20    6.75
   1   9  -6   68.76    5.68
  -1  -9   6   67.47    7.36
  -1  -9   6   64.67    6.65
  -1  -9   6   80.23   12.59
   1   9  -6   68.62    5.81
   1   9  -6   74.76    5.75
  -1  -9   6   94.94   15.36
   1   9  -6   74.79   11.67
  -1  -9   6   69.29    6.54
   1   9  -6  115.42   12.57
   1   9  -6   80.37   10.59
  -1  -9   5   38.61    4.85
   1   9  -5   40.82    4.27
  -1  -9   5   35.47    5.38
  -1  -9   5   27.75    4.38
  -1  -9   5   34.96    8.49
   1   9  -5   45.53    4.35
   1   9  -5   42.23    4.26
  -1  -9   5   40.42    4.92
  -1  -9   5   43.48   10.54
   1   9  -5   35.82    7.90
   1   9  -5   50.98    8.42
   1   9  -5   47.79    8.16
  -1  -9   4  212.12   27.27
  -1  -9   4  254.20   14.80
   1   9  -4  256.31   13.33
  -1  -9   4  227.47   15.38
  -1  -9   4  227.05   14.33
  -1  -9   4  252.15   23.80
   1   9  -4  253.33   12.82
   1   9  -4  237.31   13.10
  -1  -9   4  207.41   24.64
   1   9  -4  214.97   21.29
   1   9  -4  235.70   20.47
   1   9  -4  229.27   20.48
  -1  -9   3   23.70    8.08
  -1  -9   3   18.01    3.48
   1   9  -3   16.62    2.76
   1   9  -3   19.58    2.47
  -1  -9   3   20.24    3.56
  -1  -9   3   17.41    3.81
  -1  -9   3   22.36    6.34
   1   9  -3   24.88    2.86
   1   9  -3   18.43    2.89
  -1  -9   3   18.79    6.73
  -1  -9   3   20.22    3.68
   1   9  -3   19.18    5.45
   1   9  -3   21.77    5.53
   1   9  -3   20.67    5.39
  -1  -9   2   90.03   15.59
   1   9  -2   83.32    5.70
  -1  -9   2   85.73    7.84
   1   9  -2   88.81    6.58
  -1  -9   2   76.89    7.89
  -1  -9   2   60.85    6.57
   1   9  -2   92.08    6.22
  -1  -9   2   89.58   12.89
   1   9  -2   79.05   10.93
  -1  -9   2   67.19   12.98
  -1  -9   2   92.18    8.20
   1   9  -2   82.48   11.09
   1   9  -2   86.76   11.35
  -1  -9   1   11.35    5.24
   1   9  -1   14.41    2.17
  -1  -9   1   12.80    2.97
   1   9  -1   12.47    2.22
  -1  -9   1   10.27    2.43
  -1  -9   1   11.95    3.02
   1   9  -1   11.08    2.06
  -1  -9   1   10.79    4.31
   1   9  -1    9.46    2.12
  -1  -9   1    3.69    2.96
  -1  -9   1    7.96    2.56
   1   9  -1   13.53    4.25
   1   9  -1    8.32    3.34
  -1  -9   0   85.32    7.44
   1   9   0   74.50    5.80
  -1  -9   0   80.25    7.72
   1   9   0   81.85    6.05
   1   9   0   81.39    6.25
  -1  -9   0   90.18   12.59
   1   9   0   85.54    6.51
  -1  -9   0   80.46    7.92
   1   9   0   86.10   10.60
   1   9   0   68.05    9.52
   1   9   1   51.37    4.67
   1   9   1   51.01    4.69
   1   9   1   53.75    4.67
  -1  -9  -1   41.14    5.42
   1   9   1   54.31    4.25
  -1  -9  -1   47.48    5.06
  -1  -9  -2    5.63    2.18
   1   9   2    5.77    1.47
   1   9   2    3.95    1.20
   1   9   2    4.66    1.41
  -1  -9  -3   52.52    5.78
   1   9   3   62.94    5.09
  -1  -9  -4    3.64    1.42
   1   9   4    5.92    1.34
   1   9   4    5.04    1.86
   1   9   4    5.29    1.31
  -1  -9  -5   37.68    3.87
   1   9   5   40.20    3.13
   1   9   5   33.19    3.64
  -1  -9  -5   29.47    3.31
   1   9   6   46.27    3.44
   1  10 -12   15.84    1.89
  -1 -10  12   14.07    2.14
  -1 -10  12   12.78    2.03
   1  10 -11   29.43    2.94
  -1 -10  11   22.98    2.81
  -1 -10  11   29.01    3.44
  -1 -10  11   27.55    3.42
  -1 -10  11   27.67    3.05
  -1 -10  10   52.08    4.62
  -1 -10  10   52.07    5.29
  -1 -10  10   52.73    4.74
   1  10  -9    3.86    1.01
  -1 -10   9    2.24    1.14
  -1 -10   9    1.79    1.34
  -1 -10   9    2.69    1.18
   1  10  -9    2.39    1.18
  -1 -10   9    3.82    1.29
  -1 -10   9    2.50    1.61
   1  10  -8  117.99    7.11
  -1 -10   8   99.91    8.53
  -1 -10   8   97.71    7.52
  -1 -10   8  112.89    7.99
   1  10  -8  109.09    7.45
   1  10  -8  113.85    6.57
  -1 -10   8  108.81    7.76
  -1 -10   8  126.54    9.79
  -1 -10   7   66.65    6.23
   1  10  -7   70.96    5.47
  -1 -10   7   59.49    6.44
  -1 -10   7   56.68    5.49
  -1 -10   7   71.47    6.06
   1  10  -7   68.32    5.47
   1  10  -7   72.05    5.22
  -1 -10   7   60.82    5.78
  -1 -10   7   72.08    7.57
   1  10  -6    0.24    0.87
   1  10  -6    0.72    0.66
  -1 -10   6    1.81    1.35
   1  10  -6    1.77    0.99
  -1 -10   6    1.04    0.96
  -1 -10   6    2.77    1.10
  -1 -10   6   -0.43    1.08
   1  10  -5   72.11    5.62
   1  10  -5   67.87    5.18
  -1 -10   5   65.24    6.39
   1  10  -5   60.90    5.26
  -1 -10   5   65.40    6.34
  -1 -10   5   66.70    7.00
  -1 -10   5   58.16    5.51
   1  10  -4    5.31    1.23
   1  10  -4    5.59    1.63
  -1 -10   4    9.71    2.56
  -1 -10   4    5.47    1.93
  -1 -10   4    5.75    2.00
   1  10  -3  105.38    7.34
  -1 -10   3  103.61    8.53
   1  10  -3  103.29    7.14
  -1 -10   3  111.38    9.28
  -1 -10   3  100.64    8.92
  -1 -10   2   96.39    8.22
   1  10  -2  100.65    6.86
  -1 -10   2   91.84    8.34
  -1 -10   2   89.19    8.41
   1  10  -2  105.55    6.44
   1  10  -1   44.42    3.87
   1  10  -1   39.59    3.46
  -1 -10   1   33.88    4.63
   1  10  -1   39.80    3.77
   1  10  -1   41.62    4.15
  -1 -10   1   35.98    4.84
  -1 -10   1   38.89    4.89
  -1 -10   0   37.55    4.89
   1  10   0   42.45    3.82
   1  10   0   41.28    3.63
  -1 -10   0   38.19    4.83
   1  10   0   43.17    3.63
   1  10   0   45.44    4.08
  -1 -10   0   37.81    4.90
  -1 -10   0   42.42    4.59
   1  10   1   13.58    1.98
   1  10   1   14.95    2.09
  -1 -10  -1   11.16    2.61
  -1 -10  -1   13.48    2.78
   1  10   1   14.71    2.14
  -1 -10  -2   97.42    7.53
   1  10   2  117.49    6.57
  -1 -10  -2   96.47    7.46
   1  10   2  116.36    6.71
  -1 -10  -3    1.67    0.89
   1  10   3    0.57    0.48
  -1 -10  -3    1.13    0.89
  -1 -10  -3    1.30    0.85
   1  10   3    0.92    0.65
   1  10   3    1.63    1.22
  -1 -10  -4   79.81    5.40
   1  10   4   64.45    4.86
  -1 -11  12   10.52    1.63
  -1 -11  11   33.62    3.24
   1  11 -10    0.16    0.44
  -1 -11  10    0.70    0.59
   1  11  -9    8.88    1.35
  -1 -11   9    6.87    1.75
  -1 -11   9    7.92    1.59
   1  11  -9    8.14    1.51
  -1 -11   9    7.82    1.60
  -1 -11   9   12.06    2.29
   1  11  -8    2.57    0.95
  -1 -11   8    1.96    1.10
  -1 -11   8    2.57    1.06
   1  11  -8    1.85    0.79
   1  11  -8    1.90    0.67
  -1 -11   8    1.89    1.00
  -1 -11   8    4.35    1.81
  -1 -11   7   25.10    3.41
   1  11  -7   24.59    2.77
  -1 -11   7   28.93    3.71
  -1 -11   7   25.78    3.16
   1  11  -7   23.87    2.69
   1  11  -7   28.66    2.80
  -1 -11   7   24.44    3.26
  -1 -11   7   31.19    4.29
  -1 -11   6   18.38    3.10
  -1 -11   6   19.19    2.78
   1  11  -6   13.03    1.93
   1  11  -6   18.93    2.35
  -1 -11   6   15.66    2.66
   1  11  -6   14.45    2.18
  -1 -11   5    4.63    1.72
  -1 -11   5    6.98    1.80
   1  11  -5    5.05    1.32
   1  11  -5    5.49    1.36
  -1 -11   5    5.85    1.81
  -1 -11   5    6.21    2.20
  -1 -11   4   62.54    5.95
  -1 -11   4   69.43    6.17
   1  11  -4   71.73    5.21
   1  11  -4   67.33    5.15
  -1 -11   4   67.09    6.01
  -1 -11   4   67.93    6.58
  -1 -11   3    0.32    0.81
  -1 -11   3   -0.32    0.81
   1  11  -3    0.78    0.66
   1  11  -3    0.64    0.59
  -1 -11   3   -0.32    0.80
  -1 -11   3   -0.35    1.23
  -1 -11   2   18.62    2.97
  -1 -11   2   20.03    3.08
   1  11  -2   18.57    2.24
  -1 -11   2   15.96    2.85
  -1 -11   2   17.26    2.95
  -1 -11   1    6.72    1.79
   1  11  -1    8.21    1.27
  -1 -11   1    4.88    1.57
   1  11  -1    7.08    1.24
   1  11  -1    6.87    1.39
  -1 -11   1    9.09    1.94
  -1 -11   1    8.79    1.84
   1  11   0   24.07    2.44
  -1 -11   0   25.46    3.16
   1  11   0   26.24    2.35
  -1 -11   0   21.66    2.98
   1  11   1   49.41    3.34
  -1 -11  -1   51.07    4.35
   1  11   1   45.14    3.07
   1  11   2    1.89    0.91
  -1 -12  10    1.95    0.88
  -1 -12   8   38.33    3.23
  -1 -12   8   38.38    3.93
  -1 -12   8   38.07    3.27
   1  12  -8   39.84    2.91
  -1 -12   7   11.28    1.78
  -1 -12   7   10.91    2.18
   1  12  -7   14.40    1.57
  -1 -12   7    9.22    1.73
   1  12  -7   11.16    1.52
  -1 -12   6   10.92    1.78
  -1 -12   6    9.60    2.23
   1  12  -6   12.29    1.62
  -1 -12   6   11.50    1.89
  -1 -12   6   13.33    2.07
   1  12  -6   10.77    1.55
  -1 -12   5    1.12    0.82
  -1 -12   5    2.37    1.29
  -1 -12   5    1.27    0.71
  -1 -12   5    1.76    0.93
   1  12  -5    1.58    0.69
  -1 -12   4   38.18    4.09
  -1 -12   4   33.20    3.48
   1  12  -4   37.48    3.03
   1  12  -4   44.13    3.31
  -1 -12   3   32.88    3.54
  -1 -12   3   27.15    3.04
  -1 -12   3   33.72    3.41
   1  12  -3   37.18    2.75
   1  12  -3   29.69    2.69
  -1 -12   2    2.76    0.98
  -1 -12   2    4.16    1.21
   1  12  -2    3.53    0.83
  -1 -12   1    6.62    1.36
  -1 -12   1    8.25    1.43
  -1 -13   6    7.15    1.31
  -1 -13   5    6.32    1.21
  -2  12  -2    2.28    0.64
   2 -12   2    0.29    0.59
   2 -12   2    1.62    0.81
   2 -12   2    0.99    0.55
  -2  12  -3   25.11    2.25
  -2  12  -3   21.67    2.08
   2 -12   3   24.92    2.91
   2 -12   3   22.96    2.71
   2 -12   3   31.13    3.06
   2 -12   4   17.28    2.56
   2 -12   4   18.11    2.43
   2 -12   4   18.16    2.47
  -2  12  -4   16.57    1.80
   2 -12   5   22.73    2.89
   2 -12   5   24.45    2.89
  -2  12  -5   17.85    1.80
   2 -12   6   10.70    1.92
   2 -12   6   12.05    1.84
   2 -12   6    6.50    1.57
   2 -12   6    7.08    1.43
   2 -12   7    1.95    0.94
   2 -12   7    1.45    0.85
   2 -12   7    1.57    0.84
   2 -12   8    3.95    0.95
   2 -12   8    6.05    1.32
  -2  11   1   14.23    1.66
   2 -11  -1   16.52    2.00
  -2  11   0   54.90    4.02
   2 -11   0   54.93    4.28
   2 -11   0   53.90    4.08
   2 -11   0   53.30    4.14
   2 -11   1    4.69    1.29
   2 -11   1    5.12    1.47
   2 -11   1    6.07    1.52
   2 -11   1    5.77    1.68
   2 -11   2  113.48    7.34
   2 -11   2  103.24    7.67
   2 -11   2  123.84    8.09
   2 -11   2  105.92    7.92
  -2  11  -2  108.49    6.82
   2 -11   3    3.26    1.18
   2 -11   3    7.07    1.94
   2 -11   3    4.11    1.60
   2 -11   3    5.36    2.00
  -2  11  -3    5.10    1.29
   2 -11   4   25.31    3.16
  -2  11  -4   21.51    2.59
   2 -11   4   19.09    3.45
   2 -11   4   17.14    3.15
   2 -11   4   21.69    2.94
   2 -11   4   21.47    3.43
  -2  11  -5   11.17    1.74
   2 -11   5   12.99    2.38
  -2  11  -6   32.06    2.87
   2 -11   6   32.32    4.25
   2 -11   6   29.88    3.97
   2 -11   6   37.55    4.42
   2 -11   7   45.08    4.82
   2 -11   7   42.52    4.59
   2 -11   7   56.02    5.62
   2 -11   7   46.95    4.67
   2 -11   8   -0.65    1.00
   2 -11   8   -0.23    0.98
   2 -11   8    0.31    1.11
  -2  11  -9   28.07    2.61
   2 -11   9   30.17    3.67
   2 -11  10    1.96    0.99
   2 -11  10    1.94    1.09
   2 -11  11    4.81    1.12
  -2  10   3    3.31    0.86
   2 -10  -3    3.42    1.03
   2 -10  -3    4.01    0.99
  -2  10   3    3.28    0.84
  -2  10   2   65.80    4.49
  -2  10   2   60.91    4.44
  -2  10   2   64.07    4.50
   2 -10  -2   65.20    4.83
   2 -10  -2   60.49    4.78
   2 -10  -1   84.20    5.96
   2 -10  -1   87.52    6.04
  -2  10   1   77.19    5.46
  -2  10   1   83.30    5.38
  -2  10   1   82.74    5.81
   2 -10  -1   78.76    5.92
   2 -10  -1   88.02    6.28
   2 -10   0   18.33    2.81
  -2  10   0   16.96    2.57
  -2  10   0   16.59    2.27
   2 -10   0   16.53    2.91
   2 -10   0   19.36    3.06
   2 -10   0   19.75    3.27
   2 -10   1   80.65    7.13
  -2  10  -1   67.78    4.97
  -2  10  -1   67.41    5.73
   2 -10   1   73.85    6.13
   2 -10   1   82.95    7.12
   2 -10   1   78.66    6.91
   2 -10   2    0.92    0.85
   2 -10   2    0.26    0.84
   2 -10   2    1.19    1.10
   2 -10   2    0.41    1.13
   2 -10   2    2.59    1.69
   2 -10   3   80.48    7.65
   2 -10   3   92.46    7.22
   2 -10   3   83.98    8.13
   2 -10   4   15.23    2.56
   2 -10   4   22.89    4.06
   2 -10   4   20.99    3.94
  -2  10  -4   19.27    2.83
   2 -10   5   24.95    3.86
   2 -10   5   24.13    4.44
   2 -10   5   26.49    3.61
   2 -10   5   28.56    3.45
  -2  10  -5   20.78    2.89
   2 -10   6   69.92    5.77
   2 -10   6   69.39    7.17
   2 -10   6   65.86    6.76
   2 -10   6   70.54    7.48
   2 -10   6   62.12    6.53
   2 -10   6   63.03    7.03
  -2  10  -6   62.20    4.93
   2 -10   7   12.70    2.47
   2 -10   7   14.77    3.23
   2 -10   7   18.56    3.40
   2 -10   7   14.00    3.04
   2 -10   7   19.36    3.87
   2 -10   7   15.15    3.01
   2 -10   7   19.26    3.61
   2 -10   8   50.39    5.91
   2 -10   8   43.95    4.94
   2 -10   8   49.16    5.58
   2 -10   8   45.60    4.84
   2 -10   8   45.48    5.13
   2 -10   8   46.52    5.06
   2 -10   9    6.88    2.08
   2 -10   9   11.34    2.78
  -2  10 -10   66.44    4.51
   2 -10  10   64.24    6.15
   2 -10  10   76.34    6.04
   2 -10  10   75.62    6.00
   2 -10  11   14.95    2.53
   2 -10  11   14.64    2.30
   2 -10  12    0.49    0.64
  -2   9   5   40.30    3.31
  -2   9   5   45.77    3.56
   2  -9  -5   42.72    3.42
   2  -9  -5   40.34    3.37
  -2   9   4    1.44    0.84
   2  -9  -4    2.66    1.03
   2  -9  -4    1.20    0.78
  -2   9   4    0.99    0.64
  -2   9   3   74.86    5.81
  -2   9   3   76.85    5.40
   2  -9  -3   69.15    5.68
  -2   9   3   82.28    5.93
   2  -9  -3   84.63    6.16
  -2   9   2    6.09    1.62
   2  -9  -2    5.11    1.58
  -2   9   2    3.64    1.42
   2  -9  -2    7.14    1.73
  -2   9   2    3.98    1.38
   2  -9  -1   97.31    8.08
   2  -9  -1  112.54    8.44
  -2   9   1  106.93    7.53
  -2   9   1  109.41    7.72
   2  -9  -1  108.35    8.60
   2  -9  -1  122.23    8.18
   2  -9  -1  125.90    8.54
   2  -9   0   21.51    3.68
   2  -9   0   18.87    3.55
  -2   9   0   17.95    2.79
  -2   9   0   16.11    2.54
   2  -9   0   21.82    3.89
   2  -9   0   21.36    3.21
   2  -9   0   22.95    3.44
   2  -9   1    3.74    1.58
   2  -9   1    3.51    2.19
  -2   9  -1    0.81    0.86
   2  -9   1    4.86    1.55
   2  -9   1    0.91    1.09
   2  -9   1    3.73    1.74
   2  -9   2   70.35    7.55
  -2   9  -2   71.95    5.48
   2  -9   2   62.67    5.71
  -2   9  -2   62.13   11.35
  -2   9  -2   65.07   10.57
   2  -9   2   74.83    8.01
   2  -9   2   57.36   12.47
   2  -9   3    0.57    1.57
   2  -9   3    2.15    2.42
   2  -9   3    2.13    1.33
   2  -9   3    2.09    0.89
  -2   9  -3    4.66    3.03
   2  -9   3   -0.42    1.16
   2  -9   3   -0.53    1.46
   2  -9   3    0.55    1.86
   2  -9   3    0.32    0.81
  -2   9  -4   49.39    9.24
   2  -9   4   35.12    4.44
  -2   9  -4   44.19    9.33
   2  -9   4   35.26    4.24
   2  -9   4   25.99    4.93
   2  -9   4   34.91    5.05
   2  -9   4   28.03    5.15
   2  -9   4   37.70    4.43
   2  -9   5   31.47    4.84
   2  -9   5   36.14    5.49
   2  -9   5   32.26    5.35
   2  -9   5   31.24    4.87
  -2   9  -5   30.88    7.68
   2  -9   5   29.18    5.10
   2  -9   5   31.07    9.42
   2  -9   5   33.12    4.27
   2  -9   5   26.77    3.94
   2  -9   6  130.88    9.26
   2  -9   6  109.69   10.34
   2  -9   6  113.80   10.44
   2  -9   6  117.38    9.99
   2  -9   6  134.17   10.71
   2  -9   6  110.71   10.05
   2  -9   7   93.72    7.58
   2  -9   7   85.63    8.52
   2  -9   7   85.07    8.39
   2  -9   7   78.78    8.16
   2  -9   7   81.88    8.17
   2  -9   8    2.54    1.42
   2  -9   8    3.97    1.80
   2  -9   8    3.61    1.81
   2  -9   8    3.39    1.72
   2  -9   8    6.31    2.27
   2  -9   8    3.01    1.88
   2  -9   9   10.10    2.31
   2  -9   9   10.93    2.86
   2  -9   9   11.37    2.95
   2  -9   9    9.29    3.03
   2  -9  10    0.38    1.47
   2  -9  10    1.23    1.60
  -2   9 -10    0.74    0.59
   2  -9  11   11.10    2.14
   2  -9  11    9.52    2.60
   2  -9  11   12.84    2.69
   2  -8  -6   27.06    2.85
  -2   8   6   24.44    2.71
  -2   8   6   25.55    2.87
   2  -8  -6   31.20    3.07
   2  -8  -5   37.41    3.78
  -2   8   5   35.80    3.76
  -2   8   5   37.22    3.94
   2  -8  -5   38.24    3.90
   2  -8  -4  125.91    8.60
  -2   8   4  119.38    7.66
  -2   8   4  138.64    8.93
  -2   8   4  135.07    9.06
   2  -8  -4  147.35    9.10
   2  -8  -3   40.59    4.53
  -2   8   3   38.69    4.53
   2  -8  -3   49.47    5.02
  -2   8   3   43.02    4.83
   2  -8  -2  172.32   11.36
  -2   8   2  142.50   10.22
  -2   8   2  145.09   10.30
   2  -8  -2  164.20   10.53
   2  -8  -2  169.66   11.07
   2  -8  -2  167.92   10.82
   2  -8  -2  178.19   10.94
   2  -8  -1   75.85    7.45
  -2   8   1   64.39   10.48
   2  -8  -1   68.39   12.45
  -2   8   1   60.20    6.08
  -2   8   1   62.90    6.10
   2  -8  -1   74.90   11.37
   2  -8  -1   69.60    6.31
   2  -8  -1   79.99    7.45
   2  -8  -1   74.00    7.06
   2  -8  -1   67.30    5.76
   2  -8  -1   71.10    6.51
  -2   8   1   75.73   12.84
   2  -8   0   76.99    7.94
  -2   8   0   64.63   10.65
   2  -8   0   85.86   14.67
  -2   8   0   76.45    6.63
  -2   8   0   66.31    6.05
   2  -8   0   83.42   12.05
   2  -8   0   73.70    6.51
   2  -8   0   73.16    6.24
  -2   8   0   85.12   13.33
   2  -8   0   66.96    7.30
   2  -8   1   18.96    3.40
   2  -8   1   17.28    3.62
  -2   8  -1   14.96    2.72
  -2   8  -1   14.20    2.47
   2  -8   1   18.47    5.59
   2  -8   1   17.94    2.90
  -2   8  -1   25.10    6.88
   2  -8   1   17.57    3.01
   2  -8   1    9.83    3.13
  -2   8  -1   17.13    5.38
   2  -8   1    6.13    4.03
   2  -8   2  171.09   12.95
   2  -8   2  169.54   13.26
   2  -8   2  169.28   12.98
   2  -8   2  190.96   12.47
   2  -8   2  165.99   13.09
  -2   8  -2  180.71   18.96
  -2   8  -2  144.63    9.86
   2  -8   2  169.73   10.84
   2  -8   2  167.41   17.98
  -2   8  -2  176.42   18.69
   2  -8   2  164.70   10.40
   2  -8   2  178.35   11.12
   2  -8   3  436.86   24.78
   2  -8   3  451.14   22.00
   2  -8   3  348.65   29.65
   2  -8   3  460.38   22.06
   2  -8   3  420.62   20.99
  -2   8  -3  436.83   34.81
   2  -8   3  438.01   21.37
   2  -8   3  425.94   24.08
   2  -8   3  502.55   24.41
   2  -8   3  486.06   25.28
   2  -8   3  407.49   24.12
   2  -8   4    1.44    0.99
   2  -8   4   -0.38    0.73
   2  -8   4    1.07    0.98
   2  -8   4    2.53    2.13
   2  -8   4    2.68    2.18
   2  -8   4    1.68    2.10
   2  -8   5  132.18   11.68
   2  -8   5  141.83   20.71
   2  -8   5  136.90    9.96
   2  -8   5  169.94   10.95
   2  -8   5  145.90    9.63
  -2   8  -5  140.26   17.27
   2  -8   5  163.45   12.67
   2  -8   5  146.13   11.79
   2  -8   6    8.53    3.10
   2  -8   6   10.79    5.45
   2  -8   6    9.59    2.34
   2  -8   6   10.21    2.49
   2  -8   6   11.00    2.46
  -2   8  -6   18.51    5.80
   2  -8   6   10.57    3.00
   2  -8   6   11.91    3.34
   2  -8   6   13.07    3.25
   2  -8   6    6.36    2.71
   2  -8   7   21.18    4.04
   2  -8   7   18.30    3.92
  -2   8  -7   31.51    7.79
   2  -8   7   25.30    3.89
   2  -8   7   16.94    3.90
   2  -8   7   20.00    7.17
   2  -8   8   62.83    6.12
   2  -8   8   54.99    6.89
   2  -8   8   41.14    5.35
   2  -8   8   36.97    5.06
   2  -8   8   40.99    5.50
   2  -8   9   29.81    4.71
   2  -8   9   19.91    4.14
   2  -8   9   23.82    3.48
   2  -8   9   26.89    4.78
   2  -8   9   21.13    3.55
   2  -8  10   15.10    3.46
   2  -8  10   27.45    4.69
   2  -8  11    1.18    1.47
   2  -8  13    3.51    1.42
   2  -8  13    1.44    0.96
   2  -7  -8   34.58    3.00
  -2   7   8   36.65    3.00
   2  -7  -8   37.91    3.11
  -2   7   7    6.72    1.58
   2  -7  -7    7.14    1.53
  -2   7   7    6.44    1.39
   2  -7  -6   91.76    6.73
  -2   7   6   86.48    6.89
  -2   7   6   88.91    6.61
   2  -7  -6   91.45    7.60
   2  -7  -5  172.94   10.72
   2  -7  -5  171.72    9.74
  -2   7   5  168.04   11.22
   2  -7  -5  171.93   11.80
  -2   7   4    4.46    1.74
  -2   7   4    7.60    2.31
   2  -7  -4    6.30    1.55
   2  -7  -4    7.79    2.07
   2  -7  -4    5.66    2.20
  -2   7   3  153.43   10.96
   2  -7  -3  176.40   18.07
   2  -7  -3  152.58   10.39
   2  -7  -3  156.33    9.72
  -2   7   3  160.87   11.04
  -2   7   3  161.65   20.27
   2  -7  -2    0.36    1.15
   2  -7  -2    0.38    0.96
   2  -7  -2    0.81    1.21
  -2   7   2    2.62    2.09
   2  -7  -2    2.94    2.34
  -2   7   2    0.39    1.09
  -2   7   2   -0.39    0.99
   2  -7  -2    2.59    2.06
   2  -7  -2    0.30    1.00
   2  -7  -2    0.36    1.06
   2  -7  -2   -0.56    1.04
   2  -7  -1  381.63   20.19
   2  -7  -1  404.04   32.56
  -2   7   1  318.08   27.19
  -2   7   1  354.71   19.07
  -2   7   1  328.20   18.58
   2  -7  -1  356.48   28.05
   2  -7  -1  371.33   19.00
   2  -7  -1  373.02   17.93
  -2   7   1  356.30   32.08
   2  -7  -1  359.30   19.39
   2  -7  -1  385.73   20.02
  -2   7   0   50.39    5.27
   2  -7   0   51.20    4.80
  -2   7   0   39.80    9.89
   2  -7   0   47.81    6.17
   2  -7   0   35.12    9.05
   2  -7   0   62.78    5.90
   2  -7   0   55.06    6.09
   2  -7   0   54.26    9.41
  -2   7  -1  194.28   21.55
   2  -7   1  188.17   10.98
   2  -7   1  216.93   12.33
   2  -7   1  191.29   13.45
   2  -7   1  192.72   13.12
   2  -7   1  189.99   13.25
   2  -7   1  166.51   17.67
  -2   7  -2  420.98   32.50
   2  -7   2  438.41   20.66
   2  -7   2  470.77   21.94
   2  -7   2  427.15   23.21
   2  -7   2  497.03   23.53
   2  -7   2  415.87   23.31
   2  -7   2  392.37   23.24
   2  -7   2  453.20   32.09
  -2   7  -3   88.22   12.76
   2  -7   3  108.11    8.11
   2  -7   3  107.78    7.69
   2  -7   3  101.51    9.22
   2  -7   3  102.41    8.96
   2  -7   3  118.66    9.99
   2  -7   3  114.21    8.10
   2  -7   3  102.86   13.87
   2  -7   4   34.45    5.43
   2  -7   4   42.45    4.79
   2  -7   4   40.62    4.33
  -2   7  -4   46.29    9.79
   2  -7   4   45.21    4.82
   2  -7   4   44.19    5.79
   2  -7   4   43.22    5.86
   2  -7   4   42.24    4.70
   2  -7   4   49.25    9.38
   2  -7   5   52.55    6.71
   2  -7   5   63.67   12.86
   2  -7   5   53.85    5.17
  -2   7  -5   46.50    9.51
   2  -7   5   59.14    6.80
   2  -7   5   59.94    5.84
   2  -7   5   67.57    6.10
   2  -7   6  341.41   20.76
   2  -7   6  394.29   34.58
   2  -7   6  362.75   18.08
  -2   7  -6  432.78   31.92
   2  -7   6  385.85   21.82
   2  -7   6  341.49   20.43
   2  -7   6  343.34   20.36
   2  -7   6  369.37   19.29
   2  -7   6  385.58   19.39
   2  -7   6  391.38   21.51
   2  -7   7   91.29    8.71
   2  -7   7  106.71   16.09
   2  -7   7  108.59    8.46
   2  -7   7  107.39    9.74
  -2   7  -7   92.04   14.65
   2  -7   7   94.11    8.66
   2  -7   7  113.64   10.30
   2  -7   7  109.18   10.22
   2  -7   7  100.80    9.54
   2  -7   7   98.39    8.73
   2  -7   7   94.55    7.04
   2  -7   8   16.74    4.09
   2  -7   8   24.35    4.44
   2  -7   8   19.99    3.52
   2  -7   8   20.08    4.33
   2  -7   8   14.19    3.05
   2  -7   8   21.96    4.66
   2  -7   8   28.35    4.12
   2  -7   9   70.86    8.13
   2  -7   9   64.62    7.17
   2  -7   9   61.76    7.62
   2  -7   9   68.96    6.02
   2  -7   9   68.74    6.79
   2  -7   9   73.51    8.09
   2  -7  10   86.32    8.88
   2  -7  10   73.56    7.31
   2  -7  10   87.89    8.80
   2  -7  10   88.87    8.78
   2  -7  11  170.04   13.11
   2  -7  11  186.42   13.25
   2  -7  12   12.90    2.91
   2  -7  12    9.16    2.58
   2  -7  13    6.97    1.84
   2  -6  -9   27.24    2.74
   2  -6  -9   38.29    3.77
  -2   6   8    0.46    0.58
  -2   6   8   -0.20    0.63
  -2   6   8   -0.18    0.46
   2  -6  -8    0.23    0.62
   2  -6  -8   -0.72    1.15
   2  -6  -7   88.09    6.80
   2  -6  -7   93.86    6.02
  -2   6   7   91.63    7.16
  -2   6   7   87.41    6.38
  -2   6   7   73.36    6.16
   2  -6  -7   90.62    8.58
   2  -6  -6   31.55    3.50
   2  -6  -6   31.89    5.38
  -2   6   6   33.48    4.22
  -2   6   6   31.28    3.71
   2  -6  -5  115.46    7.83
  -2   6   5  119.37    9.47
  -2   6   5  105.72   14.14
   2  -6  -5  118.00   10.96
  -2   6   5  110.30    7.95
   2  -6  -4   19.35    2.89
  -2   6   4   23.75    4.12
   2  -6  -4   20.94    4.37
  -2   6   4   15.05    5.16
  -2   6   4   17.95    2.78
  -2   6   4   19.49    3.57
  -2   6   3   45.97    5.44
   2  -6  -3   49.15    4.74
   2  -6  -3   40.77    4.84
  -2   6   3   38.96    8.87
   2  -6  -3   54.59    4.69
  -2   6   3   49.91   11.78
   2  -6  -2  235.38   12.51
  -2   6   2  235.04   25.67
  -2   6   2  223.28   14.06
   2  -6  -2  247.23   13.23
   2  -6  -2  238.54   14.18
   2  -6  -2  244.09   22.86
  -2   6   2  220.13   21.39
   2  -6  -2  244.34   13.95
   2  -6  -2  229.10   13.39
   2  -6  -2  231.34   21.24
   2  -6  -1   19.46    5.44
   2  -6  -1   24.14    4.12
   2  -6  -1   35.04    8.47
   2  -6  -1   38.01    4.11
   2  -6  -1   37.32    3.73
  -2   6   1   40.13    9.90
   2  -6  -1   27.59    4.03
   2  -6  -1   31.13    4.28
   2  -6   0   92.67   11.88
   2  -6   0   88.63    8.03
   2  -6   0   98.54   14.65
   2  -6   0  104.79    7.32
  -2   6   0   97.49   15.41
   2  -6   0   93.69    6.57
   2  -6   0  105.11    9.56
   2  -6   0   88.33    7.69
   2  -6   0  106.54    7.78
   2  -6   1    5.62    2.19
  -2   6  -1    1.22    1.95
  -2   6  -1    3.00    2.93
   2  -6   1    5.64    1.53
   2  -6   1    4.29    1.48
   2  -6   1    3.29    2.15
   2  -6   1    4.40    1.55
   2  -6   1    7.59    2.49
   2  -6   1    5.68    1.88
   2  -6   1    4.41    1.82
   2  -6   1    4.12    1.62
   2  -6   2   47.98    5.88
   2  -6   2   61.11    5.00
  -2   6  -2   53.29   10.35
   2  -6   2   77.34    6.06
   2  -6   2   72.36    5.99
   2  -6   2   57.00    6.15
   2  -6   2   64.12    6.58
   2  -6   2   63.05    7.01
   2  -6   2   65.36    7.16
   2  -6   2   55.59    5.92
   2  -6   2   58.91    9.66
   2  -6   3  450.79   22.39
   2  -6   3  480.82   22.10
   2  -6   3  491.48   32.49
   2  -6   3  472.58   21.97
   2  -6   3  496.13   24.33
   2  -6   3  528.21   25.93
   2  -6   3  491.58   25.65
   2  -6   4   42.49    4.37
   2  -6   4   44.99    5.40
   2  -6   4   44.33    7.95
   2  -6   4   46.96    4.78
   2  -6   4   46.08    4.22
   2  -6   4   51.03    5.82
   2  -6   4   28.23    4.46
   2  -6   4   45.31    5.93
   2  -6   4   38.43    5.39
   2  -6   4   34.40    9.02
   2  -6   5   60.98    6.90
   2  -6   5   86.80   14.11
   2  -6   5   77.17    5.83
   2  -6   5   80.89    6.81
   2  -6   5   72.93    6.18
   2  -6   5   82.12    7.69
  -2   6  -5   89.74   12.66
   2  -6   5   86.64    8.45
   2  -6   5   76.64    7.98
   2  -6   5   64.94    6.90
   2  -6   6   -0.46    1.36
   2  -6   6    1.69    1.91
   2  -6   6    0.76    0.75
   2  -6   6   -0.34    0.93
   2  -6   6    1.61    1.81
   2  -6   6    0.44    1.20
   2  -6   6    1.93    1.96
   2  -6   6    1.76    1.57
   2  -6   6    0.48    1.87
   2  -6   6    1.09    2.12
   2  -6   7  151.86   11.40
   2  -6   7  145.96   18.14
   2  -6   7  161.64    9.57
  -2   6  -7  206.74   22.11
   2  -6   7  180.71   12.89
   2  -6   7  179.95   11.32
   2  -6   7  177.75   13.42
   2  -6   7  155.10   11.21
   2  -6   7  179.86   13.61
   2  -6   7  162.01   11.47
   2  -6   7  167.75   12.39
   2  -6   8  109.11    7.95
   2  -6   8  113.45   10.02
   2  -6   8  111.56    8.61
   2  -6   8  129.84   10.67
   2  -6   8   89.68    9.65
   2  -6   8   98.49    9.02
   2  -6   8  109.59   10.51
   2  -6   8   78.62    7.42
  -2   6  -9   16.30    6.53
   2  -6   9   14.00    3.74
   2  -6   9   17.60    4.23
   2  -6   9   15.47    4.08
   2  -6   9   21.63    3.36
   2  -6  10   66.86    6.45
   2  -6  10   91.23    9.04
   2  -6  10   77.36    6.68
   2  -6  10   69.80    7.93
   2  -6  11   30.72    5.06
   2  -6  11   34.59    5.37
   2  -6  12   14.02    3.33
   2  -6  13    1.64    1.27
   2  -6  13    4.06    1.73
   2  -6  13    5.58    1.92
   2  -5 -10   15.01    2.64
  -2   5  10   14.81    1.88
   2  -5  -9   28.99    2.69
  -2   5   9   30.54    3.35
   2  -5  -9   35.15    4.86
  -2   5   9   26.48    3.04
   2  -5  -8  193.01   10.23
  -2   5   8  202.11   11.47
  -2   5   8  181.06   10.50
   2  -5  -8  189.86   14.39
  -2   5   8  181.51   11.30
   2  -5  -7  129.50    8.54
  -2   5   7  141.06    9.70
  -2   5   7  139.42    9.46
   2  -5  -7  150.23   11.13
   2  -5  -7  138.44   12.50
  -2   5   7  141.93   10.24
  -2   5   6  105.92    9.13
   2  -5  -6  103.49    7.53
  -2   5   6   86.88   13.78
   2  -5  -6  123.52   11.63
  -2   5   6  111.38    8.53
  -2   5   6  117.48    8.99
  -2   5   6  133.46   18.30
   2  -5  -5   54.09    5.16
   2  -5  -5   60.41    6.13
  -2   5   5   55.60   10.27
   2  -5  -5   80.72    9.09
  -2   5   5   57.90    5.83
  -2   5   5   57.56    6.29
  -2   5   5   77.06   13.90
   2  -5  -4  165.14   10.08
   2  -5  -4  171.33   11.11
   2  -5  -4  158.98   12.99
  -2   5   4  159.25   10.43
  -2   5   3   54.89    5.26
   2  -5  -3   54.21    5.09
   2  -5  -3   69.91    6.28
   2  -5  -3   55.33    5.40
   2  -5  -3   57.33    6.67
   2  -5  -3   52.46    9.16
   2  -5  -3   59.13    5.41
   2  -5  -3   62.32    4.81
  -2   5   3   60.27   13.26
  -2   5   2  122.14    8.29
   2  -5  -2  126.36    9.13
   2  -5  -2  136.17   15.80
   2  -5  -2  143.29    8.80
   2  -5  -2  143.83    9.48
   2  -5  -2  139.05    8.05
  -2   5   2  137.05   18.93
   2  -5  -2  130.19    9.12
   2  -5  -2  133.25    8.77
   2  -5  -1  402.46   28.33
   2  -5  -1  431.01   21.71
   2  -5  -1  413.72   30.95
   2  -5  -1  445.26   21.21
   2  -5  -1  485.27   20.82
   2  -5  -1  433.36   19.54
   2  -5  -1  425.95   20.96
   2  -5  -1  418.51   21.16
   2  -5  -1  440.28   20.64
   2  -5   0    4.22    1.19
  -2   5   0    3.06    2.99
   2  -5   0    7.37    2.94
   2  -5   0    3.62    1.59
  -2   5   0    3.28    2.14
   2  -5   0    2.65    2.59
   2  -5   0    4.39    1.31
   2  -5   0    5.33    1.64
   2  -5   0    3.85    1.42
   2  -5   0    3.32    2.07
   2  -5   0    5.59    1.75
   2  -5   0    5.88    2.21
   2  -5   1  415.99   27.06
   2  -5   1  350.99   19.08
   2  -5   1  365.44   29.37
   2  -5   1  381.83   18.38
   2  -5   1  402.89   18.24
   2  -5   1  378.85   18.13
   2  -5   1  357.08   16.90
   2  -5   1  335.01   18.57
   2  -5   1  398.74   20.95
   2  -5   1  374.25   18.66
   2  -5   1  374.46   20.51
   2  -5   2   36.33    6.46
   2  -5   2   37.01    3.51
   2  -5   2   37.88    3.91
   2  -5   2   29.30    7.66
   2  -5   2   34.70    4.01
   2  -5   2   38.41    4.57
   2  -5   2   37.12    4.39
   2  -5   2   33.21    4.77
   2  -5   3  131.01    9.93
   2  -5   3  133.95   17.14
  -2   5  -3  155.77   16.64
   2  -5   3  136.61    8.82
   2  -5   3  157.12    8.44
   2  -5   3  128.04   12.89
   2  -5   3  141.77   10.73
   2  -5   3  142.48    9.85
   2  -5   4   42.57    5.24
   2  -5   4   52.23   10.50
   2  -5   4   49.85    4.21
   2  -5   4   54.34    5.06
  -2   5  -4   48.25    8.31
   2  -5   4   52.09    5.52
   2  -5   4   53.33    6.32
   2  -5   4   57.98    6.42
   2  -5   4   52.83    5.53
   2  -5   4   41.81    4.09
   2  -5   5  165.91   11.66
   2  -5   5  189.29   11.02
   2  -5   5  187.55   10.53
   2  -5   5  182.22    9.92
   2  -5   5  172.15   11.81
   2  -5   5  150.99   19.01
  -2   5  -5  186.00   18.59
   2  -5   5  190.48   12.80
   2  -5   5  171.50   11.54
   2  -5   5  199.25   13.52
   2  -5   5  196.92   13.39
   2  -5   5  179.01   12.01
   2  -5   5  169.90   11.54
   2  -5   6  243.72   14.74
   2  -5   6  232.70   23.22
   2  -5   6  244.34   12.62
   2  -5   6  245.88   14.58
   2  -5   6  306.96   17.03
   2  -5   6  278.21   17.02
   2  -5   6  232.89   14.97
   2  -5   6  245.51   14.62
   2  -5   6  245.50   15.36
   2  -5   6  261.13   13.91
   2  -5   7   11.08    2.26
   2  -5   7   11.55    2.40
   2  -5   7   10.91    1.90
   2  -5   7   13.21    3.05
   2  -5   7   12.96    2.73
   2  -5   7   11.39    2.41
   2  -5   7   11.92    3.65
  -2   5  -7   22.94    6.69
   2  -5   7   18.40    3.93
   2  -5   7   11.65    4.40
  -2   5  -8    9.24    4.26
   2  -5   8    4.22    2.56
   2  -5   8    7.54    2.02
   2  -5   8    6.76    2.17
  -2   5  -9    1.94    2.19
   2  -5   9    1.17    1.08
   2  -5   9    1.23    2.18
   2  -5   9    1.86    2.09
   2  -5   9    1.12    1.03
   2  -5  10   51.61    7.11
   2  -5  10   58.48    7.67
   2  -5  10   62.99    6.09
   2  -5  10   57.73    5.39
   2  -5  10   54.72    7.21
   2  -5  11   43.82    6.18
   2  -5  11   51.12    6.71
   2  -5  12    1.30    1.62
   2  -5  12    0.84    1.70
  -2   5 -13    3.41    1.20
   2  -5  13    1.59    1.56
   2  -5  13    0.28    0.99
   2  -5  13    2.12    1.45
   2  -5  14    2.18    0.97
  -2   4  11   10.13    1.50
   2  -4 -11   10.69    2.24
   2  -4 -10  124.41    6.96
   2  -4 -10  128.05    8.03
   2  -4 -10  142.01   10.35
  -2   4  10  131.49    8.09
   2  -4  -9   71.30    5.16
   2  -4  -9   73.83    7.56
   2  -4  -9   69.84    7.89
  -2   4   9   63.48    5.50
  -2   4   9   77.87    6.30
   2  -4  -8    1.58    0.94
   2  -4  -8    4.56    2.41
   2  -4  -8    3.76    2.34
  -2   4   8    1.14    0.96
  -2   4   8    0.38    0.87
  -2   4   8    1.19    1.01
  -2   4   7  174.65   12.65
   2  -4  -7  194.83   11.41
   2  -4  -7  196.73   12.52
  -2   4   7  222.12   13.40
  -2   4   7  189.95   12.32
   2  -4  -7  184.85   20.62
  -2   4   7  202.33   21.04
   2  -4  -7  191.92   15.24
   2  -4  -6   27.75    5.53
  -2   4   6   22.00    6.49
  -2   4   6   31.57    4.46
  -2   4   6   26.33    4.30
   2  -4  -6   31.15    3.78
   2  -4  -6   34.22    4.47
   2  -4  -6   27.79    7.46
  -2   4   6   26.19    7.96
   2  -4  -5  470.18   27.65
  -2   4   5  500.78   25.04
   2  -4  -5  520.22   23.60
   2  -4  -5  546.27   25.09
   2  -4  -5  475.15   36.21
  -2   4   5  471.81   40.48
   2  -4  -4  164.40   15.42
   2  -4  -4  149.95   12.17
  -2   4   4  140.67   10.17
   2  -4  -4  151.84    9.44
   2  -4  -4  179.62   19.10
  -2   4   4  162.92   21.11
   2  -4  -3  302.98   15.07
   2  -4  -3  315.23   16.16
   2  -4  -3  275.23   22.45
  -2   4   3  259.02   22.62
   2  -4  -3  273.79   17.53
   2  -4  -3  299.29   15.26
   2  -4  -3  299.10   14.01
  -2   4   2  699.84   41.31
   2  -4  -2  760.29   42.32
   2  -4  -2  752.80   31.45
   2  -4  -2  795.75   32.48
  -2   4   2  677.02   31.51
   2  -4  -2  711.59   30.02
  -2   4   2  743.40   49.59
   2  -4  -1  262.02   13.16
   2  -4  -1  254.44   13.62
  -2   4   1  243.92   20.06
   2  -4  -1  265.32   21.88
   2  -4  -1  258.09   19.36
   2  -4  -1  233.81   17.69
   2  -4  -1  254.24   12.17
   2  -4  -1  242.63   17.84
   2  -4   0  406.59   19.39
  -2   4   0  417.26   27.52
   2  -4   0  421.10   29.31
   2  -4   0  412.88   25.47
   2  -4   0  423.91   24.80
   2  -4   0  398.42   17.82
   2  -4   0  415.50   24.71
  -2   4   0  384.12   30.68
   2  -4   1   13.73    2.24
   2  -4   1   18.62    3.93
   2  -4   1   12.53    4.99
   2  -4   1   13.83    2.36
   2  -4   1   12.12    1.81
   2  -4   1   17.37    4.10
   2  -4   1    8.33    2.97
   2  -4   1   18.57    2.49
  -2   4  -2 1062.55   57.10
   2  -4   2 1088.06   44.19
   2  -4   2 1168.61   45.12
   2  -4   3  425.41   25.82
   2  -4   3  414.34   18.75
   2  -4   3  434.83   25.85
   2  -4   3  450.15   19.98
   2  -4   3  405.21   30.25
   2  -4   4  240.90   21.70
   2  -4   4  243.14   12.47
   2  -4   4  240.23   11.77
   2  -4   4  228.97   13.52
   2  -4   5  172.49    9.08
   2  -4   5  161.74   10.66
   2  -4   5  170.07   11.67
   2  -4   5  145.13   16.71
   2  -4   5  160.27   10.92
   2  -4   5  158.56    9.34
  -2   4  -5  193.60   17.38
   2  -4   5  178.22   12.74
   2  -4   5  171.46   10.67
   2  -4   5  173.76   11.12
   2  -4   5  180.27   12.32
   2  -4   5  154.83   10.36
   2  -4   6   95.43    8.41
   2  -4   6  103.24   12.75
   2  -4   6   82.55    6.23
   2  -4   6   92.61    8.08
   2  -4   6   87.12    6.54
   2  -4   6   88.71    5.75
   2  -4   6   87.55    6.93
   2  -4   6   91.88    8.30
   2  -4   6   86.96    7.47
   2  -4   6   86.70    8.71
   2  -4   6   85.12    8.76
   2  -4   6   81.53    6.94
   2  -4   7  440.78   20.74
   2  -4   7  392.79   19.81
   2  -4   7  417.54   22.85
   2  -4   7  413.10   20.72
  -2   4  -7  484.09   34.30
   2  -4   7  469.74   23.68
   2  -4   7  436.72   24.49
   2  -4   7  486.74   25.20
   2  -4   7  408.51   20.58
   2  -4   8   11.52    2.41
   2  -4   8    9.18    2.04
  -2   4  -8   13.54    5.40
  -2   4  -8    5.45    3.09
   2  -4   8    9.17    2.88
   2  -4   8    7.29    2.12
   2  -4   8    1.86    2.53
   2  -4   8    7.37    2.80
   2  -4   8    9.08    3.35
   2  -4   9  153.18   10.87
   2  -4   9  164.33   10.73
   2  -4   9  153.23   12.63
  -2   4  -9  211.74   23.42
   2  -4   9  176.29   13.92
   2  -4   9  163.74   13.84
   2  -4   9  171.49   12.59
   2  -4  10   41.17    6.30
   2  -4  10   64.76    6.91
   2  -4  10   57.27    7.67
   2  -4  10   60.31    7.72
   2  -4  10   46.89    5.20
   2  -4  11   59.66    7.40
   2  -4  11   61.15    7.45
   2  -4  11   65.14    5.87
   2  -4  12   24.77    4.19
   2  -4  12   26.98    4.37
   2  -4  12   22.42    3.99
   2  -4  13   10.09    2.07
   2  -4  13    9.97    2.33
   2  -4  13    6.55    2.08
   2  -4  14   67.05    4.60
   2  -3 -12    1.03    0.83
   2  -3 -11   25.46    2.42
   2  -3 -11   23.59    2.76
  -2   3  11   20.66    2.75
   2  -3 -11   30.24    3.92
   2  -3 -10   12.83    2.10
   2  -3 -10   19.52    3.79
   2  -3 -10   16.36    2.85
  -2   3  10   18.03    3.04
  -2   3  10   18.70    2.49
  -2   3   9   14.25    2.75
  -2   3   9   19.85    3.51
  -2   3   9   13.01    2.17
   2  -3  -9   17.08    2.67
   2  -3  -9   11.69    2.57
   2  -3  -9   19.53    4.33
   2  -3  -9   10.18    3.35
   2  -3  -8  128.81    9.54
   2  -3  -8  145.23    9.08
  -2   3   8  142.67   10.56
  -2   3   8  117.38    8.79
   2  -3  -8  127.44   11.93
  -2   3   8  138.47    9.01
  -2   3   8  116.63    9.53
   2  -3  -7   15.10    3.94
  -2   3   7   13.87    5.23
  -2   3   7   11.55    2.33
  -2   3   7   13.84    3.16
  -2   3   7   13.30    2.85
   2  -3  -7   11.61    2.41
   2  -3  -7   20.54    6.20
   2  -3  -7   12.91    2.75
  -2   3   7   22.91    7.17
   2  -3  -6  176.44   14.24
  -2   3   6  189.65   11.16
  -2   3   6  170.74   12.65
   2  -3  -6  199.81   12.22
   2  -3  -6  202.98   11.42
   2  -3  -6  190.55   10.10
   2  -3  -6  184.36   19.39
  -2   3   6  170.35   21.99
   2  -3  -5   84.75    6.55
   2  -3  -5   85.15    7.06
   2  -3  -5   80.67    5.70
  -2   3   5   87.79   12.54
   2  -3  -5   75.96    8.57
   2  -3  -5   92.95   12.72
  -2   3   5   79.82   14.63
  -2   3   4  167.61   11.38
   2  -3  -4  188.63   10.47
   2  -3  -4  185.33   11.12
   2  -3  -4  175.20    9.44
   2  -3  -4  161.96   15.37
   2  -3  -4  172.30   12.97
   2  -3  -4  188.20   18.59
   2  -3  -4  194.69   14.81
   2  -3  -4  166.04    8.99
   2  -3  -4  197.04   14.92
  -2   3   3    3.02    1.37
  -2   3   3    9.09    3.78
   2  -3  -3    4.54    2.71
   2  -3  -3    3.10    2.02
   2  -3  -3    5.20    2.20
   2  -3  -3    6.49    2.64
   2  -3  -3    4.00    1.03
   2  -3  -3    6.15    1.35
   2  -3  -3    4.16    1.30
   2  -3  -2  130.10    7.49
   2  -3  -2  141.15    8.90
  -2   3   2  149.63   14.37
   2  -3  -2  133.82   13.92
   2  -3  -2  131.23    7.21
  -2   3   2  152.03   18.37
   2  -3  -1 1075.49   44.92
   2  -3  -1 1153.78   44.42
   2  -3  -1 1121.94   45.74
  -2   3   1 1108.87   54.39
   2  -3  -1 1205.19   56.94
   2  -3  -1 1067.77   51.04
  -2   3   1 1154.55   61.39
   2  -3  -1 1102.68   51.45
   2  -3  -1 1100.58   43.93
   2  -3  -1 1149.11   51.59
   2  -3   0  158.39    9.04
   2  -3   0  178.09    9.93
  -2   3   0  159.45   14.45
   2  -3   0  182.70   16.50
   2  -3   0  157.34   11.67
   2  -3   0  166.36   13.19
   2  -3   0  166.10    8.41
   2  -3   0  165.49   13.19
   2  -3   1  379.05   26.59
   2  -3   1  399.00   17.96
   2  -3   1  368.15   17.46
   2  -3   1  380.32   16.70
   2  -3   1  390.66   22.74
   2  -3   1  424.15   23.37
  -2   3  -1  357.39   22.65
   2  -3   2   67.81    7.99
   2  -3   2   63.17    4.37
   2  -3   2   71.72    8.22
   2  -3   3  282.93   13.16
   2  -3   3  316.57   23.23
   2  -3   4  233.36   16.62
   2  -3   4  227.41   11.03
   2  -3   4  237.00   16.74
   2  -3   4  213.15   18.98
   2  -3   5    8.01    3.40
   2  -3   5    9.31    1.59
   2  -3   5    9.14    1.65
   2  -3   5   12.67    3.29
   2  -3   5   11.31    3.20
   2  -3   5    8.91    1.50
   2  -3   5   12.25    3.14
   2  -3   5   12.01    2.62
   2  -3   6  491.10   21.73
   2  -3   6  485.64   23.03
   2  -3   6  583.53   26.34
   2  -3   6  479.49   22.91
  -2   3  -6  591.40   35.72
   2  -3   6  497.53   31.73
   2  -3   6  528.30   24.40
   2  -3   6  523.65   24.00
   2  -3   6  587.83   28.42
   2  -3   6  580.29   27.55
   2  -3   7   28.76    3.61
   2  -3   7   24.05    3.28
  -2   3  -7   25.15    6.12
  -2   3  -7   27.00    7.44
   2  -3   7   25.45    3.54
   2  -3   7   26.73    5.17
   2  -3   7   26.83    4.48
   2  -3   7   28.10    4.93
   2  -3   8  182.29   11.88
   2  -3   8  186.10   11.75
   2  -3   8  197.20   14.09
   2  -3   8  217.19   14.36
  -2   3  -8  186.86   21.96
   2  -3   8  182.17   14.24
   2  -3   8  198.51   15.17
   2  -3   9   71.10    6.65
   2  -3   9   85.39    8.85
   2  -3   9   74.54    7.91
   2  -3   9   66.23    8.20
   2  -3   9   68.32    8.65
   2  -3  10  114.09    8.86
   2  -3  10  124.89   10.24
   2  -3  10  121.37   11.25
   2  -3  10  123.42   11.15
   2  -3  11  120.41    8.77
   2  -3  11  122.26   10.44
   2  -3  11  110.30   10.20
   2  -3  12    2.72    1.91
   2  -3  12    3.47    1.69
  -2   3 -12    3.73    1.52
   2  -3  13   38.98    4.38
   2  -2 -12   42.93    3.58
  -2   2  12   45.67    3.90
   2  -2 -12   55.42    5.05
   2  -2 -12   42.62    4.67
  -2   2  11   29.72    3.31
   2  -2 -11   30.45    3.14
   2  -2 -11   25.91    3.29
   2  -2 -11   32.79    4.90
   2  -2 -11   30.06    4.64
   2  -2 -10  138.45    9.47
   2  -2 -10  139.41    8.87
  -2   2  10  139.99   10.10
   2  -2 -10  148.48   12.19
   2  -2 -10  143.97   12.06
   2  -2  -9   44.22    5.10
   2  -2  -9   46.54    4.80
  -2   2   9   46.86    5.73
  -2   2   9   38.13    4.02
   2  -2  -9   50.86    7.09
  -2   2   9   41.33    4.87
  -2   2   9   48.67    5.21
  -2   2   8   44.92    5.12
  -2   2   8   43.98    5.74
  -2   2   8   39.45    4.63
   2  -2  -8   45.52    4.80
   2  -2  -8   37.37    3.61
   2  -2  -8   41.10    4.92
   2  -2  -8   34.88    8.01
  -2   2   8   57.16   10.84
   2  -2  -7    3.79    2.47
  -2   2   7   -1.51    2.42
  -2   2   7    7.66    2.06
  -2   2   7    7.29    2.63
   2  -2  -7    4.99    1.58
   2  -2  -7    4.50    1.27
   2  -2  -7    5.85    1.98
   2  -2  -7    7.93    3.65
  -2   2   7    6.82    3.85
  -2   2   6  296.25   26.01
   2  -2  -6  289.70   19.71
  -2   2   6  324.33   17.24
  -2   2   6  323.27   18.77
   2  -2  -6  344.21   16.94
   2  -2  -6  347.64   15.74
   2  -2  -6  348.23   17.64
   2  -2  -6  298.37   25.37
   2  -2  -6  358.15   27.22
  -2   2   6  278.75   28.69
  -2   2   5  298.16   23.96
   2  -2  -5  250.75   17.06
  -2   2   5  281.14   15.04
  -2   2   5  251.53   15.97
   2  -2  -5  294.42   14.60
   2  -2  -5  281.32   13.57
   2  -2  -5  289.62   15.26
   2  -2  -5  245.35   21.58
   2  -2  -5  286.21   18.44
   2  -2  -5  301.33   18.72
   2  -2  -4    4.20    1.79
   2  -2  -4    3.59    1.79
   2  -2  -4    2.93    0.83
   2  -2  -4    2.46    0.91
  -2   2   4    2.49    1.08
   2  -2  -4    2.88    1.88
   2  -2  -4    2.29    1.08
  -2   2   4    4.10    2.31
   2  -2  -3  315.80   19.31
   2  -2  -3  293.67   13.55
   2  -2  -3  315.03   19.30
   2  -2  -3  321.62   15.60
   2  -2  -3  325.46   14.37
  -2   2   3  286.54   14.99
   2  -2  -3  292.72   21.34
  -2   2   3  288.90   21.79
   2  -2  -3  321.23   21.86
   2  -2  -2  176.29    9.56
   2  -2  -2  175.44    9.07
   2  -2  -2  174.09    9.99
   2  -2  -2  171.95    8.53
   2  -2  -2  171.30   13.08
   2  -2  -2  172.86   13.10
  -2   2   2  159.07   14.63
   2  -2  -2  180.82   15.73
   2  -2  -1   94.70    6.18
   2  -2  -1  105.17    9.63
   2  -2  -1   91.57    5.47
   2  -2  -1  100.72    9.47
   2  -2  -1  112.60    8.26
   2  -2  -1  109.27   11.87
   2  -2   0  106.62    6.47
   2  -2   0  102.96    6.06
   2  -2   0  107.56    5.90
   2  -2   0  121.57   10.29
   2  -2   0  106.05    9.66
  -2   2   0  102.95   11.29
  -2   2   0   98.50   10.17
   2  -2   0  111.76   11.87
   2  -2   1  246.49   13.26
   2  -2   1  244.48   12.01
  -2   2  -1  266.48   19.57
   2  -2   2   96.34    5.63
   2  -2   2  106.66    9.80
   2  -2   2  102.48    9.61
   2  -2   2   94.37   11.31
   2  -2   3  188.99   13.94
   2  -2   3  181.97    9.06
   2  -2   3  199.79   14.28
   2  -2   3  174.65   15.77
   2  -2   4  143.43    8.35
   2  -2   4  169.51   13.18
   2  -2   4  171.61    8.31
   2  -2   4  170.46   13.17
   2  -2   4  149.86   14.73
   2  -2   5    9.66    2.49
   2  -2   5    7.63    1.56
   2  -2   5   10.44    1.52
  -2   2  -5   11.35    3.44
   2  -2   5   10.72    2.69
   2  -2   6  115.59    7.79
   2  -2   6  119.19    9.79
   2  -2   6  109.20    9.58
  -2   2  -6  151.70   15.07
  -2   2  -6   92.55   15.05
   2  -2   6  120.60    9.61
   2  -2   6  101.05    7.41
   2  -2   6  133.36    9.78
   2  -2   7  355.07   20.33
   2  -2   7  317.72   19.98
   2  -2   7  377.74   20.13
  -2   2  -7  336.42   31.54
   2  -2   7  315.71   17.26
   2  -2   7  356.59   19.97
   2  -2   8    8.06    2.66
   2  -2   8   12.31    3.57
   2  -2   8    7.98    3.16
   2  -2   8    9.05    2.79
   2  -2   8    7.69    2.13
   2  -2   9    3.43    2.33
   2  -2   9    2.92    2.08
   2  -2   9    5.30    2.31
  -2   2  -9    2.25    2.54
   2  -2   9    6.65    2.12
   2  -2  10    1.07    1.48
   2  -2  10    0.56    1.41
   2  -2  10    1.78    1.50
   2  -2  10    1.17    0.98
   2  -2  11    8.00    2.18
   2  -2  11   11.25    2.73
   2  -2  11    8.01    2.84
   2  -2  11    4.27    2.35
  -2   2 -11   10.93    2.39
   2  -2  12   29.44    4.33
   2  -2  13    0.51    1.15
   2  -1 -13   49.56    4.30
   2  -1 -13   51.42    4.41
   2  -1 -12    0.52    0.56
   2  -1 -12    0.35    1.24
   2  -1 -12    0.36    1.15
   2  -1 -12    1.38    0.83
  -2   1  12    0.22    0.60
  -2   1  12    0.24    0.55
   2  -1 -11  127.44    8.67
   2  -1 -11  133.22    8.42
  -2   1  11  132.62    9.46
   2  -1 -11  127.65   10.92
   2  -1 -11  147.36   11.20
  -2   1  11  143.56    9.25
   2  -1 -10    8.18    1.97
   2  -1 -10   12.10    3.51
   2  -1 -10   11.40    3.40
   2  -1 -10   10.64    2.41
  -2   1  10    9.82    2.47
   2  -1  -9  215.35   12.29
   2  -1  -9  205.72   10.43
   2  -1  -9  195.04   12.39
   2  -1  -9  187.61   15.05
  -2   1   9  159.71   21.33
   2  -1  -9  177.59   14.50
   2  -1  -9  172.41   19.38
  -2   1   9  168.92   11.74
  -2   1   9  220.00   13.33
   2  -1  -8   18.86    4.46
  -2   1   8   16.39    3.33
  -2   1   8   23.27    4.25
  -2   1   8   20.70    3.25
   2  -1  -8   19.65    2.65
   2  -1  -8   19.68    3.14
   2  -1  -8   25.98    6.76
   2  -1  -8   19.46    3.29
  -2   1   8   27.29    7.29
   2  -1  -7  551.47   29.53
  -2   1   7  529.32   37.92
  -2   1   7  551.83   26.49
  -2   1   7  543.20   27.69
   2  -1  -7  557.02   23.81
   2  -1  -7  556.63   25.71
   2  -1  -7  424.89   32.77
   2  -1  -7  571.87   37.29
  -2   1   7  484.56   38.75
   2  -1  -6  623.44   31.68
  -2   1   6  622.70   40.30
   2  -1  -6  616.71   31.26
  -2   1   6  593.00   28.62
  -2   1   6  638.04   30.25
   2  -1  -6  644.61   26.52
   2  -1  -6  617.29   28.06
   2  -1  -6  524.27   35.22
   2  -1  -6  644.78   39.63
  -2   1   6  571.26   42.14
  -2   1   5    3.06    1.49
   2  -1  -5    5.70    2.04
   2  -1  -5    3.98    1.70
   2  -1  -5    5.51    1.37
   2  -1  -5    2.61    1.70
   2  -1  -5    2.84    1.40
   2  -1  -5    2.46    1.92
  -2   1   5    4.27    2.95
  -2   1   4  571.26   26.32
   2  -1  -4  604.02   30.12
   2  -1  -4  567.99   23.54
   2  -1  -4  614.29   30.21
  -2   1   4  545.10   33.67
   2  -1  -4  547.62   25.34
   2  -1  -4  597.51   25.34
   2  -1  -4  591.26   24.48
   2  -1  -4  483.85   30.53
   2  -1  -4  594.32   34.86
  -2   1   4  594.88   34.25
  -2   1   3    0.83    0.99
   2  -1  -3    0.13    0.39
   2  -1  -3    0.42    0.63
   2  -1  -3   -0.17    0.58
   2  -1  -3    2.71    1.36
   2  -1  -3    0.54    0.86
   2  -1  -3    1.08    0.86
   2  -1  -3    1.05    0.51
  -2   1   2 1661.48   72.29
   2  -1  -2 1808.10   74.42
   2  -1  -2 1620.20   63.13
   2  -1  -2 1677.69   69.96
   2  -1  -2 1630.20   63.06
   2  -1  -2 1775.12   70.26
   2  -1  -2 1590.44   64.13
   2  -1  -1  568.53   31.81
  -2   1   1  592.06   29.78
   2  -1  -1  546.97   22.56
   2  -1  -1  548.95   28.43
   2  -1  -1  536.11   22.49
   2  -1  -1  557.33   28.57
   2  -1  -1  550.01   22.92
  -2   1   0  163.90   12.35
   2  -1   0  160.83   14.02
   2  -1   0  143.93    7.40
   2  -1   0  156.77   11.84
   2  -1   0  138.22    7.30
  -2   1   0  144.53   14.94
   2  -1   0  160.77   11.96
  -2   1  -1  302.17   17.88
   2  -1   1  293.06   12.73
   2  -1   1  281.86   12.64
   2  -1   2  717.47   39.33
   2  -1   2  764.27   30.56
   2  -1   2  796.27   37.17
   2  -1   2  755.42   30.48
   2  -1   2  802.96   37.16
   2  -1   2  729.42   36.46
  -2   1  -3 2124.45   82.82
   2  -1   3 1912.69   79.85
   2  -1   3 1834.12   72.42
   2  -1   3 1937.23   79.89
  -2   1  -4   67.78    9.01
   2  -1   4   51.60    6.63
   2  -1   4   54.64    3.77
   2  -1   4   54.09    6.74
   2  -1   4   49.56    4.23
   2  -1   5  370.55   19.58
   2  -1   5  318.87   19.85
   2  -1   5  318.45   19.90
   2  -1   5  310.41   16.24
   2  -1   6   97.05    7.30
   2  -1   6  119.47    8.85
   2  -1   6  116.23    9.49
   2  -1   6   84.83    8.17
  -2   1  -6   85.10   15.02
   2  -1   7  152.94   11.01
   2  -1   7  117.42    8.80
   2  -1   7  142.02   11.30
   2  -1   7  127.37   10.70
   2  -1   7  113.95    9.97
   2  -1   7  146.71   11.17
  -2   1  -7  128.43   19.70
   2  -1   8    8.01    2.27
   2  -1   8   16.09    3.88
   2  -1   8   13.21    3.31
   2  -1   8   14.93    3.60
   2  -1   8   10.78    3.14
   2  -1   9    4.81    1.87
   2  -1   9    4.95    2.50
  -2   1  -9    2.49    2.81
   2  -1   9    1.09    1.85
   2  -1   9    8.83    2.65
   2  -1  10  282.53   16.14
   2  -1  10  213.17   14.69
   2  -1  10  235.69   15.70
  -2   1 -10  299.95   14.97
   2  -1  11    2.35    1.98
   2  -1  11    0.29    1.05
   2  -1  12   27.66    4.09
   2  -1  13   11.45    2.01
  -2   0  13    2.55    0.94
  -2   0  13    1.36    0.74
   2   0 -13    1.77    0.69
   2   0 -13    0.73    1.03
   2   0 -13    1.94    1.33
   2   0 -12   21.39    2.79
   2   0 -12   23.44    2.86
  -2   0  12   24.16    3.27
   2   0 -12   25.00    4.11
   2   0 -12   21.89    3.92
  -2   0  11    1.11    0.93
  -2   0  11    0.39    0.99
   2   0 -11    1.14    0.96
   2   0 -11    0.89    0.82
   2   0 -11    1.01    1.70
   2   0 -11    1.09    1.62
  -2   0  10  162.38   11.16
  -2   0  10  151.22   11.38
   2   0 -10  153.64   10.00
   2   0 -10  141.65    8.19
   2   0 -10  133.41    9.69
   2   0 -10  161.27   17.72
   2   0 -10  141.51   12.42
   2   0 -10  145.97   12.25
  -2   0   9   35.22    4.99
  -2   0   9   28.68    4.85
   2   0  -9   27.30    3.19
   2   0  -9   36.46    4.47
   2   0  -9   27.07    7.08
   2   0  -9   31.55    5.66
   2   0  -9   24.08    5.20
  -2   0   9   28.87    7.97
   2   0  -8   25.23    3.58
   2   0  -8   29.92    3.24
   2   0  -8   29.61    5.30
   2   0  -8   22.18    4.89
   2   0  -8   32.91    7.94
   2   0  -8   21.03    3.47
  -2   0   8   28.50    4.49
  -2   0   7  220.01   12.30
  -2   0   7  205.90   13.52
  -2   0   7  181.36   20.80
  -2   0   7  239.99   21.44
   2   0  -7  214.48   11.36
   2   0  -7  227.93   12.78
   2   0  -7  167.90   16.92
   2   0  -7  228.66   15.92
  -2   0   7  247.25   22.86
   2   0  -7  206.16   14.96
  -2   0   6   60.58    5.20
  -2   0   6   58.22    6.23
   2   0  -6   65.89    7.12
  -2   0   6   49.00   10.54
   2   0  -6   76.53    7.63
   2   0  -6   64.75    5.56
   2   0  -6   64.15    4.96
   2   0  -6   59.46    5.39
   2   0  -6   65.64    8.90
   2   0  -6   75.64    7.89
  -2   0   6   65.50   10.64
  -2   0   5  968.72   49.49
  -2   0   5  910.39   40.50
   2   0  -5  919.30   36.87
   2   0  -5  965.98   38.97
   2   0  -5  971.04   38.06
   2   0  -5  888.15   38.67
   2   0  -5  782.46   43.51
   2   0  -5 1014.27   50.64
   2   0  -5  967.27   43.71
   2   0  -5  932.67   36.86
  -2   0   5  936.18   51.90
   2   0  -5 1026.00   44.14
  -2   0   4  140.43   13.61
  -2   0   4  141.11    9.63
   2   0  -4  145.20    7.48
   2   0  -4  146.24    8.09
   2   0  -4  140.68   14.14
   2   0  -4  145.94    7.42
   2   0  -4  164.69   12.15
  -2   0   4  156.76   17.01
   2   0  -4  154.91   11.90
   2   0  -3  657.13   26.85
   2   0  -3  658.86   27.93
  -2   0   3  664.66   34.59
   2   0  -3  653.08   36.33
   2   0  -3  660.40   26.77
  -2   0   3  674.26   40.95
   2   0  -3  695.60   33.10
   2   0  -3  679.30   32.98
   2   0  -2  122.10    6.43
   2   0  -2  126.88    6.84
   2   0  -2  117.29    6.44
  -2   0   2  106.31   10.07
   2   0  -2  115.05    6.26
   2   0  -2  110.25   10.00
   2   0  -2  142.45   11.01
   2   0  -1  445.78   19.13
  -2   0   1  497.24   24.62
  -2   0   1  425.77   24.42
   2   0  -1  448.98   19.05
   2   0  -1  510.01   25.62
   2   0  -1  501.50   25.41
   2   0  -1  451.85   19.24
  -2   0   0  364.92   18.91
   2   0   0  328.23   14.68
  -2   0   0  333.41   20.29
  -2   0   0  333.20   25.09
   2   0   1  528.16   22.31
   2   0   1  481.91   30.14
  -2   0  -1  595.54   26.47
   2   0   1  528.22   22.33
  -2   0  -1  560.09   29.88
   2   0   1  529.27   22.21
   2   0   1  606.93   28.97
   2   0   1  570.73   28.52
   2   0   2 1916.54   72.59
   2   0   2 1764.74   82.33
  -2   0  -2 2032.67   76.56
   2   0   2 1846.64   72.51
  -2   0  -2 2026.88   83.52
   2   0   2 1842.36   72.41
   2   0   2 1895.78   79.70
   2   0   2 1968.79   80.06
   2   0   3  424.77   18.99
   2   0   3  447.54   18.61
   2   0   3  424.84   18.52
  -2   0  -3  515.81   30.09
   2   0   3  446.92   24.72
   2   0   3  432.29   18.47
   2   0   3  439.02   24.55
   2   0   3  456.13   28.00
   2   0   4  241.35   11.64
   2   0   4  230.41   10.80
  -2   0  -4  235.31   20.48
   2   0   4  231.14   15.72
   2   0   4  227.65   10.74
   2   0   4  230.31   15.83
   2   0   5   13.32    2.96
   2   0   5   12.01    2.99
   2   0   5   16.15    2.20
   2   0   5   11.13    2.21
   2   0   5   15.65    3.03
   2   0   5   11.75    2.81
   2   0   5   17.81    3.43
   2   0   6  254.87   15.26
   2   0   6  201.39   12.59
   2   0   6  250.15   14.90
   2   0   6  218.85   11.61
   2   0   6  219.74   14.77
  -2   0  -6  248.96   27.55
   2   0   6  250.58   15.46
   2   0   7  706.64   35.34
   2   0   7  795.04   36.10
  -2   0  -7  626.57   52.75
   2   0   7  743.68   35.71
   2   0   7  790.07   35.38
   2   0   7  662.22   32.41
   2   0   8   42.50    6.00
  -2   0  -8   57.04   12.48
   2   0   9  179.45   12.89
   2   0  10    4.71    2.58
   2   0  11  211.11   13.72
   2   0  12   43.42    4.68
  -2  -1  13    1.49    0.70
   2   1 -13    0.80    1.17
   2   1 -13    1.38    0.67
   2   1 -12   27.18    3.24
   2   1 -12   20.26    2.73
  -2  -1  12   26.83    3.72
   2   1 -12   25.38    4.26
  -2  -1  12   25.84    3.58
  -2  -1  11    3.49    1.32
  -2  -1  11    0.42    0.95
  -2  -1  11    2.11    1.43
   2   1 -11    3.87    1.34
   2   1 -11    4.04    2.05
  -2  -1  10   19.72    3.08
  -2  -1  10   23.20    4.06
  -2  -1  10   18.69    3.79
   2   1 -10   26.69    3.67
   2   1 -10   17.79    2.52
   2   1 -10   20.27    6.15
   2   1 -10   17.96    3.12
   2   1 -10   16.96    4.09
   2   1  -9   68.73    5.47
   2   1  -9   78.32    6.71
   2   1  -9   64.41    8.32
   2   1  -9   62.21    7.76
  -2  -1   9   72.97    7.54
  -2  -1   9   69.19    6.16
   2   1  -8    7.75    2.80
   2   1  -8    6.72    3.09
  -2  -1   8   10.49    4.78
  -2  -1   8    8.12    2.02
  -2  -1   8    5.33    1.85
  -2  -1   8    8.13    2.48
  -2  -1   8    6.12    2.31
   2   1  -8    5.89    1.58
   2   1  -8    6.58    1.87
  -2  -1   8    4.50    2.94
  -2  -1   7  219.66   12.59
  -2  -1   7  202.96   13.78
  -2  -1   7  197.47   12.14
  -2  -1   7  210.92   20.46
  -2  -1   7  200.23   21.57
   2   1  -7  231.65   11.72
   2   1  -7  215.38   12.22
   2   1  -7  218.65   12.49
   2   1  -7  237.15   21.66
   2   1  -7  215.57   15.21
   2   1  -7  209.15   14.57
  -2  -1   6   58.84    5.24
  -2  -1   6   52.19    5.95
  -2  -1   6   38.84    4.57
   2   1  -6   65.02    7.34
  -2  -1   6   48.17    9.82
  -2  -1   6   58.67   11.02
   2   1  -6   58.66    6.98
   2   1  -6   55.26    4.58
   2   1  -6   52.47    4.76
   2   1  -6   55.36    5.05
   2   1  -6   50.73    9.20
   2   1  -6   57.73    6.85
   2   1  -6   59.14    6.56
  -2  -1   6   60.95    9.78
  -2  -1   5    5.40    2.68
  -2  -1   5    2.63    1.32
  -2  -1   5    1.01    0.80
  -2  -1   5    0.38    1.06
   2   1  -5    2.93    0.85
   2   1  -5    2.45    1.21
   2   1  -5    0.81    0.73
   2   1  -5    1.00    1.59
   2   1  -5    2.83    1.69
   2   1  -5    1.76    0.70
   2   1  -5    1.70    1.28
  -2  -1   4   24.24    5.11
  -2  -1   4   22.74    2.82
   2   1  -4   22.51    2.26
   2   1  -4   21.17    2.69
   2   1  -4   22.25    2.30
   2   1  -4   25.40    5.73
   2   1  -4   22.04    4.21
   2   1  -4   24.26    4.40
   2   1  -4   26.47    2.38
  -2  -1   3  783.10   37.04
  -2  -1   3  719.03   32.20
   2   1  -3  735.94   30.40
   2   1  -3  732.67   29.92
   2   1  -3  722.93   29.80
  -2  -1   3  699.37   38.80
   2   1  -3  692.32   38.25
   2   1  -3  790.98   36.59
   2   1  -3  795.47   36.67
   2   1  -3  759.47   29.80
  -2  -1   2   67.66    6.91
   2   1  -2   61.28    4.33
   2   1  -2   58.64    4.09
   2   1  -2   60.61    4.08
  -2  -1   2   62.47    8.47
   2   1  -2   67.54    7.50
   2   1  -2   64.52    7.34
  -2  -1   1  686.36   31.57
   2   1  -1  694.84   28.23
  -2  -1   1  705.39   37.52
   2   1  -1  721.71   35.09
  -2  -1   1  668.84   41.62
   2   1  -1  699.49   34.82
   2   1  -1  695.80   28.30
   2   1   0   57.02    4.32
  -2  -1   0   48.90    8.13
  -2  -1   0   54.89   10.01
   2   1   1  112.22    6.30
   2   1   1  108.51    6.31
   2   1   1  116.44   13.36
  -2  -1  -1  120.77   12.92
   2   1   1  116.38   10.44
   2   1   1  117.14   10.45
   2   1   1  111.72    6.22
   2   1   2    4.56    1.09
   2   1   2    8.04    3.40
   2   1   2    6.10    1.21
   2   1   2    5.07    1.32
   2   1   2    7.84    2.73
   2   1   2    7.91    1.30
   2   1   2    7.84    2.64
   2   1   3  331.43   15.61
   2   1   3  320.84   14.80
   2   1   3  349.95   15.78
   2   1   3  327.62   25.12
   2   1   3  335.02   14.91
  -2  -1  -3  381.15   27.24
   2   1   3  325.60   14.71
   2   1   3  362.15   21.09
   2   1   3  340.06   20.73
   2   1   4   57.70    4.62
   2   1   4   54.31    3.80
   2   1   4   51.43    4.46
   2   1   4   58.14    6.02
   2   1   4   49.48    3.76
   2   1   4   66.37    7.23
   2   1   4   52.13    3.69
   2   1   4   64.90    7.14
   2   1   4   64.69    6.52
   2   1   5  108.75    7.18
   2   1   5  111.53    7.36
   2   1   5  113.78    9.30
  -2  -1  -5  121.79   16.71
   2   1   5  115.91    9.61
   2   1   6   36.81    5.28
   2   1   6   39.93    4.02
   2   1   6   37.56    3.80
  -2  -1  -7   94.03   15.89
  -2  -1  -7   84.50   17.35
   2   1   7   77.51    8.31
   2   1   7   82.40    8.62
   2   1   7   72.39    7.90
  -2  -1  -8   61.12   13.53
  -2  -1  -8  102.18   19.65
   2   1   9    0.47    1.17
   2   1  10  123.78   10.06
   2   1  10  108.23    8.40
   2   1  11   53.45    5.65
   2   1  12    1.07    1.03
   2   2 -14   -0.21    0.82
   2   2 -13   73.03    6.93
  -2  -2  13   83.88    6.42
   2   2 -13   75.22    5.38
  -2  -2  12   28.15    3.31
  -2  -2  12   28.98    4.06
  -2  -2  12   19.87    3.18
   2   2 -12   22.79    3.90
   2   2 -12   23.75    4.54
  -2  -2  11  144.44   10.73
  -2  -2  11  141.40    9.35
  -2  -2  11  139.65    8.87
   2   2 -11  135.83    9.34
   2   2 -11  142.89    8.07
   2   2 -11  112.25    8.15
  -2  -2  11  131.92   10.28
   2   2 -11  136.80   11.81
   2   2 -11  139.29   11.09
  -2  -2  10  299.07   15.77
  -2  -2  10  257.18   16.11
  -2  -2  10  224.20   13.84
  -2  -2  10  213.26   15.23
   2   2 -10  238.32   12.56
   2   2 -10  218.21   13.05
   2   2 -10  260.76   24.65
   2   2 -10  225.74   16.48
   2   2 -10  254.14   16.30
   2   2  -9   54.27    6.77
  -2  -2   9   50.63    6.37
  -2  -2   9   53.02    5.88
  -2  -2   9   50.58    5.49
  -2  -2   9   60.41   10.93
  -2  -2   9   39.63    5.80
   2   2  -9   59.06    5.01
   2   2  -9   46.50    4.84
   2   2  -9   52.55    5.47
   2   2  -9   50.54   10.09
  -2  -2   9   58.20   11.40
   2   2  -8  144.20   11.57
  -2  -2   8  147.39   10.40
  -2  -2   8  136.11   11.41
  -2  -2   8  149.46   10.33
  -2  -2   8  140.34   11.52
   2   2  -8  167.58    9.45
   2   2  -8  136.49    9.12
   2   2  -8  163.04   10.35
   2   2  -8  183.15   19.37
  -2  -2   8  126.49   18.21
  -2  -2   7    9.41    2.32
  -2  -2   7    5.52    1.71
  -2  -2   7    7.17    2.48
  -2  -2   7   -1.73    0.22
   2   2  -7    8.75    1.88
   2   2  -7    7.81    2.06
   2   2  -7    3.81    2.49
   2   2  -7    8.72    2.74
   2   2  -7    6.57    2.90
  -2  -2   7    7.37    3.92
   2   2  -6  988.63   45.39
  -2  -2   6 1032.12   52.83
   2   2  -6  988.18   44.33
  -2  -2   6  967.76   42.24
  -2  -2   6  963.26   42.93
  -2  -2   6  911.20   43.97
   2   2  -6  977.53   39.69
   2   2  -6 1017.86   41.18
   2   2  -6 1035.87   39.97
   2   2  -6 1064.70   42.19
   2   2  -6  991.37   53.68
  -2  -2   6  969.27   60.25
   2   2  -6 1057.29   47.31
   2   2  -6 1076.59   47.48
   2   2  -6 1000.95   39.66
  -2  -2   5    5.82    1.73
   2   2  -5    9.21    1.46
   2   2  -5    8.61    1.46
   2   2  -5   10.34    1.81
   2   2  -5    6.16    1.57
   2   2  -5    4.96    2.52
   2   2  -5    8.73    2.83
   2   2  -5   11.19    3.22
  -2  -2   4   20.40    2.96
  -2  -2   4   21.18    3.40
   2   2  -4   19.67    2.14
   2   2  -4   20.85    2.57
   2   2  -4   16.29    2.29
   2   2  -4   16.62    2.06
   2   2  -4   21.38    5.05
  -2  -2   4    9.63    4.06
   2   2  -4   21.06    4.30
   2   2  -4   16.68    3.87
  -2  -2   4   27.81    8.06
  -2  -2   3  734.88   35.83
   2   2  -3  747.08   30.55
   2   2  -3  738.16   30.96
   2   2  -3  743.53   30.59
  -2  -2   3  731.55   32.21
  -2  -2   3  711.74   42.00
   2   2  -3  767.51   39.02
   2   2  -3  857.95   38.32
   2   2  -3  847.67   38.28
   2   2  -2   98.62    5.83
  -2  -2   2  107.46   12.93
   2   2  -2   93.62    5.87
   2   2  -2   93.72    5.77
   2   2  -2  117.59   10.66
   2   2  -2   99.80    9.84
  -2  -2   1 1024.95   57.89
   2   2  -1 1056.12   41.88
   2   2   0    1.33    0.62
   2   2   0    1.47    0.66
   2   2   0    1.28    1.25
   2   2   0    1.91    1.44
   2   2   1  674.26   27.39
   2   2   1  633.26   26.70
   2   2   1  595.31   39.65
   2   2   1  628.29   26.78
  -2  -2  -1  612.99   38.30
   2   2   1  705.26   34.67
   2   2   1  666.26   34.16
   2   2   2  176.72    9.05
   2   2   2  184.06    9.90
   2   2   2  150.25   17.42
   2   2   2  160.96    8.91
  -2  -2  -2  183.22   18.73
   2   2   2  188.07   14.52
   2   2   2  179.20   14.36
   2   2   3  193.15   12.62
   2   2   3  177.59   10.27
   2   2   3  179.02    9.27
   2   2   3  191.22   10.49
   2   2   3  180.44   19.17
   2   2   3  186.84    9.50
  -2  -2  -3  197.11   20.75
   2   2   3  175.65    9.14
   2   2   3  194.79   14.83
   2   2   3  187.52   14.73
   2   2   4   35.54    5.27
   2   2   4   31.01    3.63
   2   2   4   31.70    3.68
   2   2   4   32.25    4.75
   2   2   4   33.27    3.00
  -2  -2  -4   39.50    9.50
   2   2   4   40.23    5.67
   2   2   4   36.15    5.40
   2   2   5   92.57    6.94
   2   2   5   92.23    8.52
   2   2   5   87.18    8.81
   2   2   5   87.09    8.27
   2   2   5   94.28    6.94
   2   2   6  421.74   20.49
   2   2   6  430.50   20.42
   2   2   7   60.65    7.34
   2   2   7   55.06    5.22
   2   2   7   65.96    5.44
   2   2   8   17.05    2.60
   2   2   8   21.95    4.30
   2   2   9    5.49    2.14
  -2  -2 -10   11.95    2.94
   2   2  10    9.11    2.75
   2   2  10   11.40    2.30
   2   2  11   30.18    3.76
   2   3 -14   62.99    4.16
   2   3 -13   27.40    4.01
  -2  -3  13   33.41    3.38
  -2  -3  12    3.03    1.33
  -2  -3  12    2.34    1.14
   2   3 -12    1.88    0.78
   2   3 -12    2.36    1.92
  -2  -3  12    2.80    1.14
   2   3 -11   43.08    4.85
   2   3 -11   43.41    4.13
   2   3 -11   47.32    6.52
   2   3 -11   49.64    6.14
  -2  -3  11   49.97    5.33
  -2  -3  11   43.17    5.20
  -2  -3  10   36.80    4.96
  -2  -3  10   34.78    4.66
   2   3 -10   25.53    4.84
   2   3 -10   32.68    5.80
   2   3 -10   38.53    4.03
   2   3 -10   42.13    4.87
   2   3 -10   43.50    9.20
  -2  -3  10   44.23   10.26
  -2  -3   9  353.33   20.99
  -2  -3   9  375.49   32.17
  -2  -3   9  347.62   19.58
  -2  -3   9  378.12   19.85
   2   3  -9  342.59   21.62
   2   3  -9  344.00   20.48
   2   3  -9  373.11   18.00
   2   3  -9  387.58   19.34
   2   3  -9  364.89   30.38
  -2  -3   9  352.35   33.59
   2   3  -8   33.31    3.73
   2   3  -8   25.00    3.71
   2   3  -8   25.60    4.72
   2   3  -8   24.00    4.75
   2   3  -8   35.65    8.10
  -2  -3   8   27.99    4.21
  -2  -3   8   29.91    4.39
  -2  -3   8   22.95    4.41
  -2  -3   7  225.66   15.60
  -2  -3   7  226.48   14.02
  -2  -3   7  231.63   14.59
   2   3  -7  236.75   15.41
   2   3  -7  242.45   16.24
   2   3  -7  264.90   13.29
   2   3  -7  251.48   13.78
   2   3  -7  217.60   21.57
  -2  -3   7  250.12   27.58
   2   3  -7  249.17   17.18
   2   3  -7  239.68   17.06
   2   3  -7  239.71   11.39
   2   3  -6  272.53   14.53
   2   3  -6  264.94   16.42
   2   3  -6  284.67   13.10
   2   3  -6  301.53   14.43
   2   3  -6  272.83   12.99
   2   3  -6  291.13   14.81
  -2  -3   6  258.48   15.22
  -2  -3   6  253.39   16.66
  -2  -3   6  272.92   16.26
   2   3  -6  259.85   22.74
   2   3  -6  301.30   19.55
   2   3  -6  288.27   19.34
   2   3  -5  236.83   11.86
   2   3  -5  250.81   11.96
   2   3  -5  247.45   12.97
  -2  -3   5  232.40   13.93
  -2  -3   5  249.42   15.11
  -2  -3   5  245.44   23.11
   2   3  -5  280.74   21.51
   2   3  -5  291.80   18.96
   2   3  -5  250.83   17.83
   2   3  -4  873.15   35.15
   2   3  -4  848.86   35.75
   2   3  -4  892.01   35.22
   2   3  -4  865.41   35.55
  -2  -3   4  841.20   37.56
  -2  -3   4  837.86   38.38
  -2  -3   4  789.85   48.90
   2   3  -4  951.45   47.13
   2   3  -4  843.37   44.32
  -2  -3   4  821.29   53.58
  -2  -3   3  516.17   24.11
   2   3  -3  498.45   21.91
   2   3  -3  506.10   21.68
   2   3  -3  531.23   30.98
   2   3  -3  490.64   27.62
  -2  -3   3  485.45   34.36
   2   3  -3  492.33   21.54
  -2  -3   2  961.31   39.42
   2   3  -2  886.85   36.65
   2   3  -2  916.81   36.80
   2   3  -2  782.38   50.99
   2   3  -2  966.87   46.39
  -2  -3   2  927.64   51.88
   2   3  -2  883.20   36.67
   2   3  -1   79.05    5.07
  -2  -3   1   86.70   12.45
  -2  -3   1   58.64   11.60
   2   3   0  624.99   25.70
   2   3   0  577.50   25.24
   2   3   0  634.95   26.08
   2   3   0  580.79   25.29
   2   3   0  500.88   37.76
  -2  -3   0  549.33   37.37
  -2  -3   0  577.37   41.27
   2   3   1    7.50    1.71
   2   3   1    7.34    1.50
   2   3   1    5.52    3.82
   2   3   1    6.48    1.43
  -2  -3  -1    3.87    3.26
   2   3   1    9.09    3.20
   2   3   1    6.81    2.96
   2   3   2  300.47   16.84
   2   3   2  262.71   16.84
  -2  -3  -2  303.44   15.57
   2   3   2  320.62   15.28
   2   3   2  284.68   13.94
   2   3   2  326.92   15.68
   2   3   2  303.92   17.10
   2   3   2  275.00   26.20
   2   3   2  286.59   14.18
  -2  -3  -2  323.82   27.55
   2   3   2  289.39   20.42
   2   3   2  290.07   20.42
   2   3   3  838.52   37.74
  -2  -3  -3  870.88   36.52
   2   3   3  819.51   33.97
   2   3   3  904.04   36.32
   2   3   3  792.64   51.30
   2   3   3  816.48   34.24
  -2  -3  -3  842.28   53.20
   2   3   3  806.84   41.91
   2   3   3  851.25   42.37
   2   3   3  804.96   33.76
   2   3   4   41.19    5.93
   2   3   4   52.06    5.15
   2   3   4   50.74    5.01
   2   3   4   46.18    3.87
  -2  -3  -4   57.36   12.10
   2   3   4   46.28    5.53
   2   3   5  404.56   23.86
   2   3   5  420.17   21.00
   2   3   5  443.47   21.12
  -2  -3  -5  402.31   37.55
   2   3   5  419.22   22.38
   2   3   6    2.01    1.20
   2   3   6    3.68    1.36
   2   3   6    3.71    2.32
  -2  -3  -6    2.21    2.49
  -2  -3  -6    7.27    4.73
   2   3   7  197.82   11.71
   2   3   7  188.98   14.05
   2   3   7  213.58   12.11
  -2  -3  -7  237.25   27.51
  -2  -3  -7  191.45   25.86
   2   3   8   40.35    5.54
  -2  -3  -8   45.69    5.79
   2   3   8   41.85    6.14
   2   3   9   89.78    7.31
  -2  -3  -9   71.38    7.31
  -2  -3 -10   69.83    6.69
   2   3  10   79.90    6.80
   2   3  11    6.85    1.47
   2   4 -14   -0.22    0.85
  -2  -4  14    0.20    0.96
  -2  -4  13    1.50    0.84
  -2  -4  13    1.00    0.93
  -2  -4  13    1.15    0.91
   2   4 -13    0.34    1.68
  -2  -4  12    0.34    0.76
  -2  -4  12    0.40    1.00
   2   4 -12    0.90    1.52
   2   4 -12    0.54    0.68
   2   4 -12    0.38    0.68
   2   4 -11   45.40    4.23
   2   4 -11   34.73    4.23
  -2  -4  11   34.70    4.33
   2   4 -11   43.35    6.25
  -2  -4  11   44.47    5.44
  -2  -4  11   40.02    5.50
  -2  -4  11   35.39    4.80
  -2  -4  10   54.20    6.20
  -2  -4  10   46.34    6.38
  -2  -4  10   52.86    6.06
  -2  -4  10   42.86   10.70
   2   4 -10   51.52    4.96
   2   4 -10   49.30    5.32
   2   4 -10   46.00    9.34
   2   4 -10   45.51    6.61
   2   4  -9   21.88    4.42
  -2  -4   9   18.24    3.73
  -2  -4   9   25.55    4.15
  -2  -4   9   17.56    4.06
  -2  -4   9   12.35    5.31
  -2  -4   9   14.97    3.32
   2   4  -9   21.41    3.15
   2   4  -9   26.87    3.77
   2   4  -9   34.63    8.00
  -2  -4   9   19.40    8.09
  -2  -4   8   12.42    3.10
  -2  -4   8   16.42    3.45
  -2  -4   8   13.97    3.72
   2   4  -8   19.44    2.97
   2   4  -8   17.67    2.98
   2   4  -8   17.92    5.63
   2   4  -8   14.07    3.53
   2   4  -7   25.92    4.66
  -2  -4   7   23.75    4.13
  -2  -4   7   19.23    3.60
  -2  -4   7   17.51    3.96
   2   4  -7   19.67    2.42
   2   4  -7   22.02    3.12
   2   4  -7   21.28    2.43
   2   4  -7   23.65    3.31
   2   4  -7   22.39    6.00
   2   4  -7   19.29    5.85
   2   4  -7   26.54    5.12
   2   4  -7   24.96    4.96
  -2  -4   7   26.84    8.74
   2   4  -6  215.23   10.64
  -2  -4   6  195.15   12.85
  -2  -4   6  213.78   13.84
   2   4  -6  205.83   10.42
   2   4  -6  178.53   10.93
  -2  -4   6  184.83   21.89
   2   4  -6  198.17   18.49
   2   4  -6  189.50   13.87
   2   4  -5  178.07    9.60
  -2  -4   5  163.93   11.60
  -2  -4   5  166.64   12.01
   2   4  -5  176.62   10.72
   2   4  -5  162.57    9.25
   2   4  -5  188.40   10.39
   2   4  -5  162.25    9.52
   2   4  -5  202.82   19.04
   2   4  -5  183.50   15.86
   2   4  -5  175.93   10.73
   2   4  -4    0.60    1.36
   2   4  -4    3.00    1.06
  -2  -4   4    1.69    1.35
  -2  -4   4    1.22    1.37
   2   4  -4    1.73    0.92
   2   4  -4    2.32    0.92
  -2  -4   4    1.82    2.89
   2   4  -4    0.71    0.80
   2   4  -4    2.14    2.41
  -2  -4   4    1.56    3.04
   2   4  -4    2.18    1.56
   2   4  -4    0.97    1.45
   2   4  -3   33.88    3.93
   2   4  -3   20.11    2.61
   2   4  -3   19.87    2.66
   2   4  -3   22.31    2.79
   2   4  -3   20.80    5.41
  -2  -4   3   15.90    5.70
   2   4  -3   19.44    4.92
   2   4  -3   27.06    5.85
   2   4  -2   62.26    4.98
  -2  -4   2   68.63    6.57
   2   4  -2   63.68    4.86
   2   4  -2   65.52    5.11
  -2  -4   2   55.30   10.95
   2   4  -2   71.41    9.80
   2   4  -2   75.84    9.77
   2   4  -2   69.77    9.37
   2   4  -1  351.76   15.85
   2   4  -1  316.51   15.56
   2   4  -1  340.34   16.15
   2   4  -1  315.68   17.94
  -2  -4   1  310.12   27.43
   2   4  -1  352.09   22.94
   2   4  -1  299.83   16.38
   2   4   0  261.86   14.89
   2   4   0  291.49   14.48
   2   4   0  276.74   14.10
   2   4   0  312.44   15.09
   2   4   0  320.04   16.98
   2   4   0  284.47   14.41
  -2  -4   0  268.97   25.37
  -2  -4   0  284.19   28.70
   2   4   1  125.25    8.74
  -2  -4  -1  117.61    8.48
   2   4   1  131.89    8.33
   2   4   1  120.70    7.67
   2   4   1  131.04    8.53
   2   4   1  119.75    7.88
  -2  -4  -1  112.27   18.26
  -2  -4  -1  119.52   16.57
   2   4   1  116.10   16.55
   2   4   1  137.02    9.96
   2   4   2  174.58   11.98
  -2  -4  -2  193.29   12.15
   2   4   2  206.36   11.57
   2   4   2  189.63   10.32
   2   4   2  157.12   20.34
   2   4   2  206.25   10.88
  -2  -4  -2  167.19   21.15
   2   4   2  182.72   16.28
  -2  -4  -2  167.23   21.55
   2   4   2  192.52   16.62
  -2  -4  -3   72.07    6.92
   2   4   3   58.50    4.73
   2   4   3   79.11    6.55
   2   4   3   68.37    5.35
  -2  -4  -3   80.49   14.50
   2   4   3   73.66    9.06
   2   4   3   68.19    8.75
  -2  -4  -3   73.08   14.03
   2   4   4  169.98   10.85
  -2  -4  -4  162.21   11.61
   2   4   4  169.45   10.69
   2   4   4  148.91   12.11
  -2  -4  -4  172.25   22.90
   2   4   4  142.17   12.65
   2   4   5    1.06    0.89
  -2  -4  -5    3.66    1.93
   2   4   5    4.53    1.62
   2   4   5    1.08    1.72
  -2  -4  -5    4.26    3.39
  -2  -4  -5    8.90    5.01
   2   4   5    1.26    2.01
   2   4   6  153.13   12.10
  -2  -4  -6  159.96   11.99
   2   4   6  167.48   10.47
  -2  -4  -6  137.38   20.93
   2   4   6  148.51   10.09
   2   4   7   87.08    8.26
   2   4   7   85.78    6.64
  -2  -4  -7   80.37    8.15
   2   4   7   90.50    6.84
   2   4   8   69.04    6.86
  -2  -4  -8   69.62    7.03
   2   4   8   62.22    4.93
   2   4   8   56.87    6.77
  -2  -4  -9   17.27    3.23
   2   4   9   19.80    2.88
   2   4  10    8.12    1.73
   2   5 -14   62.43    4.91
   2   5 -13   15.80    2.17
   2   5 -13   16.70    1.91
  -2  -5  13   21.62    2.78
  -2  -5  13   18.31    2.71
  -2  -5  13   22.44    3.01
   2   5 -13   19.68    3.12
   2   5 -12   26.18    3.17
   2   5 -12   21.21    2.65
  -2  -5  12   29.89    4.20
  -2  -5  12   28.08    3.89
  -2  -5  12   24.35    3.72
   2   5 -11    1.83    1.03
   2   5 -11    3.18    1.35
  -2  -5  11    3.44    1.61
  -2  -5  11    3.55    1.88
  -2  -5  11    2.62    1.64
   2   5 -11    3.43    2.28
  -2  -5  10  257.12   27.14
  -2  -5  10  275.88   16.35
  -2  -5  10  211.06   15.38
  -2  -5  10  251.74   15.93
   2   5 -10  267.58   14.05
   2   5 -10  241.48   13.89
   2   5 -10  237.01   22.25
   2   5 -10  264.90   16.77
   2   5  -9   12.73    3.38
  -2  -5   9   21.55    7.02
  -2  -5   9    8.67    2.38
  -2  -5   9   11.48    3.06
  -2  -5   9   11.25    3.00
  -2  -5   9    7.80    2.65
  -2  -5   9   12.73    2.36
   2   5  -9   13.47    2.56
   2   5  -9   11.19    2.31
   2   5  -9    7.85    3.64
  -2  -5   9   14.57    6.22
  -2  -5   8   17.07    3.48
  -2  -5   8   10.75    2.91
  -2  -5   8   13.07    3.37
   2   5  -8   16.35    2.17
   2   5  -8   16.05    2.79
   2   5  -8   11.68    2.36
   2   5  -8   21.33    5.85
   2   5  -8    8.55    4.57
  -2  -5   8   21.06    7.52
  -2  -5   7   57.23    6.68
  -2  -5   7   41.13    5.95
  -2  -5   7   62.34    7.22
   2   5  -7   58.82    4.72
   2   5  -7   68.58    4.83
   2   5  -7   54.82    5.03
   2   5  -7   43.12    8.17
   2   5  -7   68.78   11.60
  -2  -5   7   68.99   13.70
  -2  -5   6  105.36    9.50
   2   5  -6  119.46    7.44
   2   5  -6  111.57    8.13
   2   5  -6  116.24    7.21
   2   5  -6  107.49    7.20
  -2  -5   6  113.75   17.69
   2   5  -6  115.92   15.38
   2   5  -6   92.80   11.44
   2   5  -6  110.13    9.48
   2   5  -6  113.60   10.14
   2   5  -5  246.74   15.95
   2   5  -5  240.86   12.48
  -2  -5   5  222.09   14.43
  -2  -5   5  215.09   14.75
   2   5  -5  229.09   12.86
   2   5  -5  234.55   12.21
  -2  -5   5  202.61   23.56
   2   5  -5  239.46   22.28
   2   5  -5  242.30   19.86
   2   5  -5  261.67   20.54
   2   5  -4    8.85    1.89
  -2  -5   4    6.97    2.35
  -2  -5   4    3.44    1.69
   2   5  -4    6.23    1.63
   2   5  -4    7.29    1.71
   2   5  -4   10.09    4.10
   2   5  -4    6.05    2.79
   2   5  -4    3.70    2.42
  -2  -5   4    6.63    4.18
   2   5  -4    8.40    4.64
   2   5  -3  282.58   17.80
   2   5  -3  304.06   14.30
   2   5  -3  300.43   15.31
   2   5  -3  304.17   15.08
   2   5  -3  318.74   15.51
   2   5  -3  276.37   23.71
  -2  -5   3  247.92   25.92
   2   5  -3  328.19   23.98
   2   5  -3  340.35   24.30
  -2  -5   2  210.51   14.23
   2   5  -2  242.59   12.69
   2   5  -2  270.35   15.05
   2   5  -2  220.89   12.01
   2   5  -2  258.10   13.29
   2   5  -2  251.63   20.86
  -2  -5   2  197.17   22.71
   2   5  -2  255.71   12.39
   2   5  -1    0.94    0.75
   2   5  -1    2.12    1.04
   2   5  -1    2.05    1.46
   2   5  -1    3.25    2.59
   2   5  -1    1.82    1.45
  -2  -5   1   -1.62    2.58
   2   5  -1    1.06    2.07
   2   5  -1    3.18    2.67
   2   5   0   36.45    4.02
   2   5   0   21.42    7.05
   2   5   0   33.52    4.73
   2   5   0   30.10    3.67
  -2  -5   0   31.62    3.94
   2   5   0   32.46    3.68
   2   5   0   35.69    3.86
  -2  -5  -1   93.28    7.80
   2   5   1   97.72    7.29
   2   5   1  114.16    7.44
   2   5   1  111.92    7.74
   2   5   1  105.14    7.67
  -2  -5  -1   85.56   15.25
  -2  -5  -1   88.39   16.11
  -2  -5  -2  306.50   17.98
   2   5   2  349.27   17.28
   2   5   2  335.00   16.21
   2   5   2  316.03   17.15
   2   5   2  342.96   16.87
  -2  -5  -2  282.05   30.33
  -2  -5  -2  314.38   32.20
   2   5   2  357.47   24.80
   2   5   2  356.01   24.90
   2   5   3   48.14    6.97
  -2  -5  -3   49.08    5.95
   2   5   3   47.42    5.05
   2   5   3   46.29    6.27
   2   5   3   56.10    4.91
  -2  -5  -3   57.86   12.25
  -2  -5  -3   54.73   12.01
  -2  -5  -4   11.60    2.93
   2   5   4    7.16    1.96
  -2  -5  -4   12.17    5.61
   2   5   4   11.90    3.51
   2   5   4    5.73    2.58
  -2  -5  -4   18.69    7.03
  -2  -5  -4   18.23    6.85
   2   5   5   42.84    4.80
  -2  -5  -5   41.69    5.72
   2   5   5   40.34    4.61
   2   5   5   43.86    5.93
  -2  -5  -5   60.69   12.80
   2   5   5   53.93    7.26
   2   5   6   37.04    4.14
  -2  -5  -6   29.86    4.79
   2   5   6   35.57    4.06
   2   5   6   30.28    4.75
  -2  -5  -7   73.72    7.04
   2   5   7   68.89    5.35
   2   5   7   64.15    6.46
  -2  -5  -8    5.60    1.87
   2   5   8    5.13    1.17
   2   5   8    5.27    1.95
   2   5   9    7.01    1.66
   2   6 -13   62.12    4.48
   2   6 -13   68.44    4.38
   2   6 -13   76.28    5.95
  -2  -6  13   63.44    5.07
  -2  -6  13   80.52    5.77
   2   6 -12    0.80    0.63
   2   6 -12    0.62    0.62
   2   6 -12    0.36    1.35
  -2  -6  12   -0.65    1.17
  -2  -6  12    0.73    0.92
  -2  -6  12    1.22    0.91
   2   6 -11   76.40    5.96
   2   6 -11   78.30    5.94
  -2  -6  11   78.61    7.53
  -2  -6  11   69.32    6.87
  -2  -6  11   74.21    7.09
   2   6 -11   76.94    7.68
   2   6 -10   86.65    6.80
   2   6 -10   89.97    6.76
  -2  -6  10   97.57    7.14
   2   6 -10   83.51    8.48
  -2  -6  10   87.83    8.19
  -2  -6  10   95.66    8.69
  -2  -6  10   97.58    8.53
  -2  -6   9   22.05    4.09
  -2  -6   9   19.37    3.88
  -2  -6   9   15.33    3.68
  -2  -6   9   23.06    7.25
   2   6  -9   22.90    3.33
   2   6  -9   24.49    3.24
   2   6  -9   21.82    5.70
   2   6  -9   37.27    8.28
   2   6  -9   30.37    5.00
   2   6  -8   57.72    7.24
  -2  -6   8   55.48    6.77
  -2  -6   8   60.81    7.02
  -2  -6   8   61.39    7.01
   2   6  -8   64.72    5.02
   2   6  -8   62.38    5.34
   2   6  -8   74.68   12.02
   2   6  -8   74.57    9.52
   2   6  -8   86.44   10.22
   2   6  -7  266.42   16.82
  -2  -6   7  217.20   15.35
  -2  -6   7  195.68   14.99
  -2  -6   7  254.81   16.24
   2   6  -7  273.67   13.31
   2   6  -7  271.90   14.25
   2   6  -7  258.77   12.91
  -2  -6   7  187.51   24.89
  -2  -6   7  255.03   28.82
   2   6  -6  656.33   33.20
   2   6  -6  684.06   29.53
  -2  -6   6  624.51   32.42
   2   6  -6  667.48   30.13
   2   6  -6  705.73   29.47
  -2  -6   6  594.44   47.13
   2   6  -6  671.96   43.70
   2   6  -6  737.06   40.65
   2   6  -6  726.90   40.40
   2   6  -5   72.71    5.74
  -2  -6   5   48.30    6.29
   2   6  -5   42.49   11.17
   2   6  -5   58.03    5.38
   2   6  -5   69.51    5.56
  -2  -6   5   64.76   12.89
   2   6  -5   78.57   10.82
   2   6  -5   61.36    9.75
   2   6  -4   95.20    7.01
  -2  -6   4   86.46    8.33
   2   6  -4   86.04    6.57
   2   6  -4   93.17    6.88
   2   6  -4   92.48    7.63
  -2  -6   4   68.67   13.92
   2   6  -4  114.38   13.49
   2   6  -4   96.99   12.39
   2   6  -3   77.69    5.26
   2   6  -3   73.80    6.00
   2   6  -3   77.05    6.87
   2   6  -3   67.35    5.35
   2   6  -3   73.48    6.03
  -2  -6   3   50.47   11.94
  -2  -6   3   53.39    5.52
   2   6  -3   74.45   10.94
   2   6  -3   80.07   11.44
  -2  -6   3   44.08   12.10
  -2  -6   2  303.21   16.98
   2   6  -2  371.42   16.67
   2   6  -2  356.10   17.45
  -2  -6   2  334.01   19.79
   2   6  -2  355.47   17.05
   2   6  -2  294.70   29.58
   2   6  -2  372.37   17.79
   2   6  -2  372.19   26.39
  -2  -6   2  326.57   31.30
  -2  -6   2  314.50   18.01
   2   6  -2  372.16   27.00
   2   6  -2  415.45   28.26
   2   6  -1  333.98   16.57
   2   6  -1  326.65   30.04
   2   6  -1  334.79   16.90
  -2  -6   1  291.53   16.64
   2   6  -1  321.28   16.01
   2   6  -1  346.93   16.84
   2   6  -1  358.85   26.34
   2   6  -1  344.11   25.84
   2   6   0   39.75    4.30
   2   6   0   37.26    9.48
   2   6   0   38.18    4.27
  -2  -6   0   28.77    9.02
  -2  -6   0   30.23    4.18
   2   6   0   44.63    4.35
   2   6   0   41.41    4.30
   2   6   1  254.20   13.86
   2   6   1  210.15   24.73
   2   6   1  242.21   13.92
  -2  -6  -1  238.25   14.82
   2   6   1  252.14   13.78
   2   6   1  275.09   13.74
  -2  -6  -2    5.05    2.23
   2   6   2    0.96    0.96
   2   6   2    3.63    1.28
   2   6   2    3.79    1.60
   2   6   2    4.05    1.38
  -2  -6  -2    6.10    3.97
   2   6   2    0.98    1.10
   2   6   2    7.79    3.11
  -2  -6  -3  234.55   14.73
   2   6   3  242.43   13.45
   2   6   3  199.35   14.71
   2   6   3  239.17   12.39
  -2  -6  -3  226.37   27.17
   2   6   3  207.77   16.02
  -2  -6  -3  230.63   24.39
   2   6   4   47.51    6.07
   2   6   4   56.67    5.52
   2   6   4   48.65    6.98
  -2  -6  -4   51.29    6.11
   2   6   5   60.90    6.65
   2   6   5   72.07    6.05
   2   6   5   67.22    7.64
  -2  -6  -5   72.05    7.00
   2   6   5   71.73    5.97
   2   6   6   58.83    6.18
  -2  -6  -6   66.67    6.41
   2   6   6   77.10    5.69
   2   6   6   75.13    5.69
  -2  -6  -7    1.13    1.05
   2   6   7    0.30    0.95
   2   6   7    0.33    0.99
  -2  -6  -8   35.84    4.01
   2   6   8   18.92    2.13
   2   7 -13   12.77    1.58
  -2  -7  13   11.64    1.99
   2   7 -13   11.04    1.99
   2   7 -12    1.81    0.82
   2   7 -12    1.12    0.63
  -2  -7  12    3.19    1.27
  -2  -7  12    0.32    0.81
  -2  -7  12    1.88    0.96
   2   7 -11    0.92    0.78
   2   7 -11    0.78    0.58
  -2  -7  11   -0.23    0.84
   2   7 -11    0.37    1.24
  -2  -7  11    0.36    1.07
  -2  -7  11    3.48    1.57
  -2  -7  11    0.31    0.71
   2   7 -10   40.25    4.21
   2   7 -10   38.24    3.67
  -2  -7  10   44.61    4.44
   2   7 -10   38.70    5.24
  -2  -7  10   40.12    5.25
  -2  -7  10   32.77    4.51
  -2  -7  10   45.75    5.46
  -2  -7   9   45.89    5.71
  -2  -7   9   31.24    4.66
   2   7  -9   35.48    3.58
   2   7  -9   43.97    3.63
  -2  -7   9   38.71    5.11
   2   7  -9   35.39    5.26
  -2  -7   8    8.25    2.65
  -2  -7   8    6.76    2.67
   2   7  -8   10.23    4.72
   2   7  -8   11.92    2.39
   2   7  -8   14.76    2.03
  -2  -7   8   12.37    5.28
   2   7  -8    9.46    1.78
  -2  -7   8   13.29    6.13
   2   7  -7   57.59    5.03
  -2  -7   7   60.26    6.85
  -2  -7   7   49.71    6.25
   2   7  -7   52.15   10.94
   2   7  -7   63.32    5.58
   2   7  -7   61.47    4.93
  -2  -7   7   47.45   11.12
   2   7  -7   75.18   11.83
  -2  -7   7   35.23    9.86
   2   7  -6   42.10    5.84
   2   7  -6   33.45    3.79
   2   7  -6   33.15    3.94
   2   7  -6   33.82    3.72
  -2  -7   6   28.44    4.77
   2   7  -6   36.41    8.14
  -2  -7   6   25.81    8.76
   2   7  -6   44.91    7.91
   2   7  -6   38.48    7.34
   2   7  -5  149.21    9.00
  -2  -7   5  115.65   10.32
  -2  -7   5  111.28   10.40
   2   7  -5  121.47    8.40
   2   7  -5  138.31    8.66
  -2  -7   5  116.49   18.84
   2   7  -5  141.57   15.01
   2   7  -5  133.73   15.23
  -2  -7   5  176.63   22.37
   2   7  -4   28.19    3.58
  -2  -7   4   18.17    4.07
  -2  -7   4   22.79    4.15
   2   7  -4   22.65    7.66
   2   7  -4   26.61    3.26
   2   7  -4   28.34    3.56
  -2  -7   4   25.64    8.37
   2   7  -4   40.78    7.83
   2   7  -4   33.79    7.14
  -2  -7   3  122.71    8.87
   2   7  -3  146.72    8.06
  -2  -7   3  117.50   10.95
   2   7  -3  143.05   19.32
   2   7  -3  153.78   10.22
   2   7  -3  132.96    8.08
   2   7  -3  140.44    9.05
  -2  -7   3  127.11    9.42
  -2  -7   3  130.50   19.80
  -2  -7   2   92.13    7.44
   2   7  -2   89.68    6.40
   2   7  -2  105.10    7.44
  -2  -7   2   90.88    9.20
   2   7  -2   91.68    6.84
   2   7  -2   85.38   14.87
  -2  -7   2   88.17   16.18
   2   7  -2  100.69   13.00
   2   7  -2  113.73   13.54
  -2  -7   2   90.86   16.69
  -2  -7   1    8.40    2.26
   2   7  -1    9.98    1.96
   2   7  -1   16.96    2.68
  -2  -7   1   15.93    3.99
   2   7  -1   10.79    4.98
   2   7  -1   12.54    2.32
   2   7  -1   12.11    2.42
  -2  -7   1   14.24    6.08
  -2  -7   1   11.92    2.93
   2   7  -1   15.14    4.75
   2   7  -1   15.14    4.75
   2   7   0   76.70    6.33
   2   7   0   57.79   11.81
   2   7   0   75.19    6.29
  -2  -7   0   68.07    6.73
   2   7   0   74.03    5.93
   2   7   0   67.55    5.77
  -2  -7  -1   32.23    4.48
   2   7   1   35.11    3.89
   2   7   1   28.41    3.38
   2   7   1   30.73    3.92
   2   7   1   30.55    3.78
  -2  -7  -1   36.99    9.89
   2   7   1   25.76    5.92
   2   7   2  189.33   10.67
   2   7   2  165.81   12.50
  -2  -7  -2  170.96   11.98
   2   7   2  199.42   11.27
   2   7   2  175.60    9.72
   2   7   2  200.89   11.57
   2   7   3  184.46   11.10
   2   7   3  172.66   12.41
  -2  -7  -3  172.80   11.88
   2   7   3  206.49   11.29
   2   7   3  158.73   12.99
   2   7   3  183.17    9.84
  -2  -7  -4   24.98    3.77
   2   7   4   24.16    3.14
   2   7   4   19.57    3.97
   2   7   4   21.12    3.63
   2   7   5   21.19    2.75
   2   7   5   18.81    3.13
   2   7   5   17.49    3.44
  -2  -7  -5   16.83    3.02
  -2  -7  -6   23.77    3.02
   2   7   7   49.54    4.22
   2   8 -12   12.89    1.78
  -2  -8  12   14.40    2.49
   2   8 -11   17.49    2.36
  -2  -8  11   17.29    3.07
  -2  -8  11   17.64    2.39
  -2  -8  10   10.59    1.99
  -2  -8  10   10.06    2.49
  -2  -8  10    5.92    1.68
   2   8 -10    8.65    2.36
  -2  -8   9   14.82    3.10
  -2  -8   9   15.88    3.26
  -2  -8   9   16.41    2.93
   2   8  -9   16.44    2.07
   2   8  -9   14.61    2.42
   2   8  -8    0.38    0.47
   2   8  -8    0.83    0.82
   2   8  -8    0.43    0.49
  -2  -8   8    0.48    1.43
  -2  -8   8    0.45    1.24
  -2  -8   8    1.38    1.37
  -2  -8   8    0.37    1.03
  -2  -8   7   45.32    9.62
   2   8  -7   47.14    4.35
  -2  -8   7   42.75    5.84
  -2  -8   7   39.07    5.06
  -2  -8   7   38.49    5.60
   2   8  -7   45.02    4.47
   2   8  -7   48.19    4.24
   2   8  -7   50.74    9.42
  -2  -8   7   46.64   10.85
  -2  -8   7   41.54   10.11
  -2  -8   6   48.77    9.87
   2   8  -6   58.91    5.00
  -2  -8   6   41.28    5.85
  -2  -8   6   45.78    5.58
  -2  -8   6   44.75    6.03
   2   8  -6   43.26    9.55
   2   8  -6   48.72    4.66
   2   8  -6   51.44    4.62
   2   8  -6   31.99    7.57
  -2  -8   6   35.87    9.69
   2   8  -6   62.75    9.60
   2   8  -6   61.70    9.30
  -2  -8   6   29.12    8.65
   2   8  -5   12.57    2.34
  -2  -8   5   10.71    3.13
   2   8  -5    6.58    3.73
   2   8  -5   14.24    2.34
   2   8  -5   14.00    2.36
   2   8  -5   19.37    5.65
  -2  -8   5   10.08    5.10
  -2  -8   5    9.68    2.14
   2   8  -5   14.62    4.59
   2   8  -5   15.74    4.76
  -2  -8   4    4.04    1.49
   2   8  -4    3.24    1.37
  -2  -8   4    6.27    2.63
  -2  -8   4    2.60    1.86
   2   8  -4    8.39    4.23
   2   8  -4    3.40    1.09
   2   8  -4    3.51    1.24
   2   8  -4    1.22    1.38
  -2  -8   4    6.12    3.98
  -2  -8   4    1.00    0.99
   2   8  -4    6.95    3.20
   2   8  -4    8.11    3.45
  -2  -8   4    1.96    2.21
  -2  -8   3   12.19    2.55
  -2  -8   3   13.18    3.44
  -2  -8   3   10.02    3.23
   2   8  -3    8.51    4.31
   2   8  -3   10.59    2.17
  -2  -8   3   10.27    5.19
  -2  -8   3   11.52    2.65
   2   8  -3   16.49    4.99
   2   8  -3   17.67    5.16
  -2  -8   2  124.17    9.45
   2   8  -2  153.12    9.40
  -2  -8   2  127.27   11.19
   2   8  -2  152.31   19.12
  -2  -8   2  136.31   10.24
  -2  -8   2  140.27   20.14
   2   8  -2  176.29   16.89
   2   8  -2  169.40   16.59
  -2  -8   1   10.60    2.44
   2   8  -1   16.38    2.55
   2   8  -1    9.34    1.84
  -2  -8   1   10.57    3.06
   2   8  -1   12.00    5.13
   2   8  -1   13.32    2.33
   2   8  -1   14.28    2.55
  -2  -8   1   10.25    5.18
  -2  -8   1   16.68    3.29
  -2  -8   1    2.13    2.43
  -2  -8   0   13.94    3.61
   2   8   0   12.19    2.26
   2   8   0   10.59    2.14
  -2  -8   0   11.49    2.61
   2   8   0   10.28    1.97
   2   8   0   14.54    2.30
  -2  -8   0   17.08    3.43
   2   8   1  140.52    8.78
   2   8   1  121.14    9.86
  -2  -8  -1  106.95    9.51
  -2  -8  -1  134.69    9.56
   2   8   1  132.23    8.35
   2   8   1  129.54    7.71
   2   8   1  136.65    8.47
   2   8   2    2.63    1.59
   2   8   2    4.00    1.42
   2   8   2    4.16    1.18
  -2  -8  -2    2.84    1.59
  -2  -8  -2    3.11    1.56
   2   8   2    3.91    1.24
   2   8   3   30.32    3.32
   2   8   3   24.57    3.63
   2   8   3   22.90    2.86
  -2  -8  -3   19.82    3.26
  -2  -8  -3   23.62    3.70
   2   8   3   19.68    3.92
   2   8   4   -0.25    0.85
  -2  -8  -4    1.83    1.14
  -2  -8  -4    0.26    0.92
   2   8   4    0.19    0.42
   2   8   4    1.40    1.18
   2   8   6    8.84    1.50
   2   9 -12    7.88    1.24
  -2  -9  12    8.01    1.52
  -2  -9  11   18.32    2.19
  -2  -9  11   17.43    2.65
   2   9 -10  119.39    6.99
  -2  -9  10  112.35    7.16
  -2  -9  10  102.81    7.70
   2   9  -9    2.49    0.81
   2   9  -9    2.57    1.03
  -2  -9   9    2.71    1.62
   2   9  -8   21.02    2.53
   2   9  -8   16.96    2.49
   2   9  -8   19.02    2.24
  -2  -9   8   17.36    3.17
   2   9  -7    0.46    0.73
   2   9  -7    1.02    0.69
  -2  -9   7    1.63    1.30
   2   9  -7    1.34    0.80
  -2  -9   7    1.87    1.67
   2   9  -6   70.34    5.33
   2   9  -6   76.23    5.60
  -2  -9   6   65.53    6.95
   2   9  -6   76.00    5.73
  -2  -9   6   71.96    7.87
   2   9  -5   90.63    6.32
   2   9  -5   77.96    5.35
   2   9  -5   80.16    5.96
  -2  -9   5   69.80    6.41
  -2  -9   5   65.75    7.12
  -2  -9   5   61.79    5.66
  -2  -9   5   98.75    9.13
  -2  -9   4   20.25    3.10
   2   9  -4   20.39    2.90
  -2  -9   4   24.35    3.40
  -2  -9   4   23.78    4.80
   2   9  -3   86.38    6.41
  -2  -9   3   76.75    6.47
   2   9  -3   87.36    6.33
  -2  -9   3   77.91    8.17
  -2  -9   3   72.42    7.49
   2   9  -2   27.01    2.73
  -2  -9   2   21.83    3.34
   2   9  -2   24.89    3.07
  -2  -9   2   27.83    4.47
  -2  -9   2   21.15    3.53
  -2  -9   2   28.79    4.55
  -2  -9   1   85.47    7.96
   2   9  -1  108.00    7.15
  -2  -9   1   88.46    7.84
  -2  -9   1   95.57    7.45
   2   9  -1  103.94    6.71
  -2  -9   0   16.04    3.00
   2   9   0   18.11    2.51
   2   9   0   17.25    3.18
   2   9   0   22.15    2.74
  -2  -9   0   16.24    3.18
  -2  -9   0   19.12    2.94
   2   9   0   18.10    2.25
  -2  -9  -1   70.47    5.98
   2   9   1   83.56    5.44
  -2  -9  -1   54.29    5.72
   2   9   1   90.18    5.81
   2   9   1   82.72    6.63
   2   9   1   82.01    5.37
  -2  -9  -1   71.87    6.48
   2   9   1   71.82    6.97
   2   9   2   15.67    2.63
   2   9   2   21.74    2.51
  -2  -9  -2   16.98    2.87
  -2  -9  -2   20.27    2.74
  -2  -9  -3    1.17    0.79
   2   9   3    1.20    0.84
  -2  -9  -3    1.17    0.88
   2   9   3    0.82    1.16
   2  10 -11    1.30    0.49
  -2 -10  11    0.93    0.67
   2  10 -10    8.06    1.29
  -2 -10  10    8.03    1.46
  -2 -10  10    7.73    1.56
  -2 -10  10    9.61    1.90
   2  10  -9   24.34    2.51
  -2 -10   9   35.20    3.96
  -2 -10   9   26.29    3.27
   2  10  -9   28.05    2.41
  -2 -10   9   28.11    3.46
   2  10  -8    6.27    1.13
   2  10  -8    6.20    1.27
  -2 -10   8    6.54    1.67
  -2 -10   8    7.46    2.08
   2  10  -8    8.34    1.43
  -2 -10   8    7.39    2.19
   2  10  -7   35.79    3.08
   2  10  -7   36.36    3.18
  -2 -10   7   33.61    4.43
  -2 -10   7   27.56    3.73
   2  10  -6   53.14    4.21
  -2 -10   6   43.73    5.24
  -2 -10   6   50.10    5.10
   2  10  -6   54.63    4.34
   2  10  -5    2.05    0.90
  -2 -10   5    0.63    0.80
  -2 -10   5   -0.39    0.98
  -2 -10   5    1.15    0.90
   2  10  -5    1.24    0.66
   2  10  -4   44.09    3.91
  -2 -10   4   35.88    4.87
  -2 -10   4   31.82    4.09
  -2 -10   4   42.36    4.14
  -2 -10   4   36.99    3.81
   2  10  -3    4.83    1.29
  -2 -10   3    2.65    1.46
  -2 -10   3    6.20    2.15
  -2 -10   3    4.77    1.44
  -2 -10   3    4.33    1.31
   2  10  -3    6.34    1.37
  -2 -10   2   86.56    6.24
   2  10  -2   81.55    5.48
  -2 -10   2   89.87    7.55
   2  10  -2   98.91    6.07
  -2 -10   2   83.85    6.42
   2  10  -2   77.49    6.60
  -2 -10   1    6.80    2.15
   2  10  -1    7.93    1.92
   2  10  -1   10.51    1.66
  -2 -10   1    8.25    1.75
   2  10  -1    9.15    1.41
  -2 -10   1    6.60    1.94
   2  10  -1    6.88    1.96
  -2 -10   0    4.80    1.60
   2  10   0    3.70    1.25
   2  10   0    5.42    1.08
  -2 -10   0    5.17    1.36
   2  10   0    4.19    1.49
   2  10   1    9.37    2.13
  -2 -10  -1   10.48    2.08
   2  10   1    9.24    1.52
  -2 -11   8    2.13    0.94
   2  11  -8    3.31    0.76
  -2 -11   8    3.58    1.21
   2  11  -7    1.22    0.53
  -2 -11   7    1.20    0.85
   2  11  -7    1.66    0.61
  -2 -11   7    0.74    1.08
   2  11  -6   35.79    2.92
   2  11  -6   32.07    2.74
  -2 -11   6   31.38    3.66
   2  11  -5    3.84    0.95
  -2 -11   5    7.07    1.85
  -2 -11   5    3.72    1.62
   2  11  -4    1.49    0.59
  -2 -11   4    2.33    1.05
   2  11  -4    2.16    0.76
  -2 -11   4    0.48    0.54
  -2 -11   4    1.25    1.22
   2  11  -3    8.73    1.27
  -2 -11   3    8.34    1.85
   2  11  -3    6.16    1.28
  -2 -11   3    7.86    1.49
  -2 -11   3    5.42    1.68
  -2 -11   2    0.22    0.86
  -2 -11   2    1.34    0.82
   2  11  -2    1.20    0.57
   2  11  -1    9.15    1.56
   2  11   0    2.18    0.78
  -2 -12   7    5.93    1.17
  -2 -12   6    4.10    1.04
  -2 -12   5    9.38    1.50
   3 -11   2    1.42    0.69
   3 -11   2    0.85    0.58
   3 -11   3   59.30    4.26
   3 -11   3   61.01    4.17
   3 -11   4   -0.15    0.42
   3 -11   4    0.16    0.70
   3 -11   5   11.90    1.50
   3 -11   6    4.04    1.01
   3 -11   6    3.52    0.99
   3 -11   6    3.62    0.89
   3 -11   7    8.57    1.29
   3 -10   0   28.37    2.74
   3 -10   0   28.62    2.57
   3 -10   0   28.45    2.70
  -3  10   0   24.69    2.55
   3 -10   1   14.63    2.22
   3 -10   1   14.67    2.27
   3 -10   1   15.26    2.05
  -3  10  -1   16.63    2.10
   3 -10   2   29.95    3.61
   3 -10   2   30.98    3.53
   3 -10   2   26.54    2.86
   3 -10   3    2.41    1.28
   3 -10   3    0.28    1.05
   3 -10   3    1.52    0.91
   3 -10   3   -0.95    0.80
   3 -10   4   47.47    4.75
   3 -10   4   45.35    4.55
  -3  10  -4   38.34    3.38
   3 -10   5    3.89    1.37
  -3  10  -5    4.03    0.92
   3 -10   6   13.69    2.36
   3 -10   6   12.40    2.23
   3 -10   7   26.56    2.77
   3 -10   7   21.87    2.67
   3 -10   9    7.18    1.25
  -3   9   3    2.75    0.77
   3  -9  -3    2.24    0.69
  -3   9   2   44.85    3.42
  -3   9   2   45.83    3.62
  -3   9   2   47.20    3.68
   3  -9  -2   44.45    3.77
   3  -9  -1   -0.20    0.65
   3  -9  -1   -0.21    0.90
   3  -9  -1   -0.55    0.77
  -3   9   1    0.15    0.46
  -3   9   1   -0.18    0.51
  -3   9   0   57.69    4.67
   3  -9   0   80.17    6.30
   3  -9   0   80.37    6.08
   3  -9   0   64.61    5.22
  -3   9  -1   16.11    2.22
   3  -9   1   16.01    2.47
   3  -9   1   21.43    3.38
   3  -9   1   19.97    3.35
   3  -9   1   20.73    2.62
   3  -9   1   16.79    2.43
   3  -9   2    7.62    1.82
   3  -9   2   13.37    2.89
   3  -9   2   16.88    3.26
   3  -9   2   12.20    2.36
   3  -9   2   14.42    2.41
   3  -9   3   13.30    2.29
   3  -9   3   13.53    3.00
   3  -9   3   16.22    3.19
   3  -9   3   12.76    2.23
   3  -9   4    2.75    1.09
   3  -9   4    0.83    1.41
   3  -9   4    2.86    1.45
   3  -9   5   37.10    3.83
   3  -9   5   49.60    5.40
   3  -9   5   48.49    5.55
   3  -9   6    0.36    1.09
   3  -9   6    1.44    1.35
   3  -9   6    2.19    1.42
   3  -9   6   -0.38    1.42
   3  -9   7   18.39    3.27
   3  -9   7   18.94    2.95
   3  -9   7   15.32    2.76
   3  -9   7   19.51    3.32
   3  -9   8   38.48    4.38
   3  -9   9    0.69    0.86
   3  -9   9    0.83    0.88
   3  -9  10    2.70    1.21
  -3   8   4   29.40    3.01
   3  -8  -4   30.76    2.93
   3  -8  -4   31.12    3.05
  -3   8   4   36.27    3.33
  -3   8   3   96.80    6.66
   3  -8  -3   90.76    6.21
   3  -8  -3  106.60    6.66
  -3   8   3   99.72    6.69
   3  -8  -2   31.14    3.62
  -3   8   2   25.77    3.29
   3  -8  -2   29.30    3.32
  -3   8   2   30.12    3.48
   3  -8  -2   29.01    3.34
  -3   8   1   73.52    6.11
  -3   8   1   83.15    6.61
   3  -8  -1   99.74    7.78
   3  -8  -1   94.33    7.15
   3  -8  -1   78.55    6.38
   3  -8  -1   91.76    6.26
  -3   8   0   13.57    2.24
  -3   8   0   12.18    2.38
   3  -8   0   15.49    3.16
   3  -8   0   14.50    3.06
   3  -8   0    9.69    2.11
   3  -8   0   12.24    2.22
   3  -8   0   10.76    2.23
  -3   8  -1   53.74    5.11
   3  -8   1   61.15    6.74
   3  -8   1   70.92    6.36
   3  -8   1   66.67    6.76
   3  -8   1   50.27    5.10
   3  -8   1   57.17    5.22
  -3   8  -2    1.82    1.17
   3  -8   2    2.41    1.36
   3  -8   2    4.17    2.15
   3  -8   2    0.98    1.35
   3  -8   2    0.84    1.00
   3  -8   3   58.81    5.48
   3  -8   3   63.79    7.18
   3  -8   3   64.63    6.97
   3  -8   3   57.38    6.68
   3  -8   3   61.55    5.45
   3  -8   4  149.24    9.96
   3  -8   4  168.82   10.21
   3  -8   4  185.09   13.04
   3  -8   4  179.72   12.60
   3  -8   5   -0.27    0.81
   3  -8   5   -0.47    1.29
   3  -8   5   -0.47    1.42
   3  -8   5    0.48    1.43
   3  -8   6   49.54    4.76
   3  -8   6   61.49    6.53
   3  -8   6   67.17    6.94
   3  -8   6   71.97    7.00
   3  -8   7   -0.43    1.53
   3  -8   7    0.42    1.41
   3  -8   7    0.37    1.34
   3  -8   7    0.44    1.50
   3  -8   7    1.07    1.21
   3  -8   8   47.80    5.42
   3  -8   8   44.30    5.57
   3  -8   8   54.66    5.72
   3  -8   8   50.87    4.85
   3  -8   9   15.65    3.09
   3  -8   9    8.64    2.21
   3  -8  10   10.29    2.30
   3  -8  10    6.13    1.57
   3  -7  -6    3.05    0.88
   3  -7  -6    2.19    0.71
  -3   7   6    3.34    0.96
  -3   7   6    3.29    0.88
   3  -7  -5   85.78    5.77
  -3   7   5   99.39    6.68
   3  -7  -5   90.54    6.11
  -3   7   4   44.27    4.57
  -3   7   4   38.17    4.20
   3  -7  -4   37.09    3.82
   3  -7  -4   38.95    3.99
  -3   7   3    7.57    2.11
  -3   7   3    6.52    1.95
   3  -7  -3    4.95    1.59
   3  -7  -3    5.01    1.53
   3  -7  -3    3.72    1.45
   3  -7  -2   63.24    5.97
   3  -7  -2   61.43    5.49
  -3   7   2   61.65    5.86
  -3   7   2   49.09    5.46
   3  -7  -2   55.58    5.23
   3  -7  -2   58.87    4.88
   3  -7  -2   59.21    5.39
   3  -7  -1    2.09    1.18
   3  -7  -1    2.18    1.22
   3  -7  -1    2.19    1.43
   3  -7  -1    2.46    1.46
   3  -7  -1    1.24    1.16
   3  -7  -1    2.79    1.16
   3  -7   0  143.95    9.58
   3  -7   0  137.31    9.06
   3  -7   0  147.67   11.13
   3  -7   0  175.08   11.00
   3  -7   0  150.95   10.90
   3  -7   0  141.96    9.67
   3  -7   1   41.58    5.74
   3  -7   1   34.96    5.06
   3  -7   1   45.15    4.46
   3  -7   1   32.02    4.15
   3  -7   2   85.15    8.31
   3  -7   2   84.53    8.04
   3  -7   2   83.10    8.12
   3  -7   2   76.71    6.36
   3  -7   2   73.62    6.51
   3  -7   3  172.44   11.20
   3  -7   3  209.44   14.73
   3  -7   3  182.95   13.95
   3  -7   3  188.64   13.37
   3  -7   4   72.89    6.40
   3  -7   4   77.87    6.21
   3  -7   4   77.63    8.04
   3  -7   4   67.76    7.96
   3  -7   5   38.20    4.18
   3  -7   5   36.88    5.36
   3  -7   5   50.99    6.43
   3  -7   5   45.58    6.50
   3  -7   5   39.78    5.49
   3  -7   6    7.08    1.77
   3  -7   6    6.89    2.44
   3  -7   6    7.61    2.48
   3  -7   6    9.39    3.36
   3  -7   6    3.55    2.30
   3  -7   7   85.22    6.26
   3  -7   7   90.85    7.70
   3  -7   7  108.46    9.00
   3  -7   7  105.06    9.12
   3  -7   7  100.00    8.21
   3  -7   8   14.17    3.26
   3  -7   8   15.12    2.75
   3  -7   8   14.17    3.09
   3  -7   9   10.44    2.51
   3  -7   9   11.45    2.39
   3  -7  10   14.39    2.83
   3  -7  11   12.52    2.34
  -3   6   7    3.68    1.06
   3  -6  -7    4.22    1.04
   3  -6  -7    4.77    1.05
  -3   6   7    3.47    0.91
   3  -6  -6   36.34    3.57
  -3   6   6   39.39    3.91
  -3   6   6   39.42    4.29
   3  -6  -5    0.99    0.84
   3  -6  -5    0.73    0.78
  -3   6   5    1.35    1.08
   3  -6  -4   40.10    4.23
   3  -6  -4   48.01    4.66
  -3   6   4   35.08    4.59
  -3   6   4   35.06    4.70
   3  -6  -3   33.78    4.11
   3  -6  -3   34.80    4.16
   3  -6  -3   39.63    4.54
   3  -6  -3   37.96    4.39
   3  -6  -3   35.96    3.65
   3  -6  -2   56.18    5.60
   3  -6  -2   69.50    6.60
   3  -6  -2   72.12    6.28
   3  -6  -2   58.89    5.18
   3  -6  -2   70.56    6.21
  -3   6   2   73.46   13.81
  -3   6   1   74.56   12.21
   3  -6  -1   75.33   12.83
   3  -6  -1   70.87    5.86
  -3   6   1  100.24   16.22
   3  -6  -1   72.88    6.45
   3  -6  -1   73.28    6.53
   3  -6  -1   72.60    7.26
   3  -6  -1   91.24    7.43
   3  -6  -1   78.69    7.17
  -3   6   0    4.56    2.99
   3  -6   0   10.11    2.29
   3  -6   0    7.41    2.09
   3  -6   0    9.77    2.14
  -3   6   0    9.81    4.95
   3  -6   0   12.00    2.96
   3  -6   0    6.52    2.54
   3  -6   0   12.99    2.88
   3  -6   1  174.08   10.36
   3  -6   1  165.98   10.61
  -3   6  -1  152.03   18.39
   3  -6   1  169.37   21.26
   3  -6   1  175.98   12.63
   3  -6   1  160.54   11.90
   3  -6   2   22.28    3.17
   3  -6   2   22.16    3.43
   3  -6   2   27.86    4.48
   3  -6   2   33.44    5.83
   3  -6   2   24.35    4.36
   3  -6   2   27.84    4.63
   3  -6   2   31.91    5.41
  -3   6  -2   34.92    8.44
   3  -6   2   32.66    8.98
   3  -6   3   21.20    3.06
   3  -6   3   20.38    3.99
   3  -6   3   26.17    5.01
  -3   6  -3   19.46    6.37
   3  -6   3   27.41    8.29
   3  -6   3   17.77    3.03
   3  -6   4  142.01    9.07
   3  -6   4  133.20   10.89
   3  -6   4  139.88   11.79
  -3   6  -4  159.11   18.96
   3  -6   4  126.37   18.22
   3  -6   4  123.12    8.81
   3  -6   5    3.91    1.37
  -3   6  -5   -1.68    0.08
   3  -6   5    7.39    4.16
   3  -6   5    0.98    1.56
   3  -6   5    2.92    1.74
   3  -6   5    2.79    2.09
   3  -6   6    9.85    2.09
   3  -6   6   15.22    3.31
   3  -6   6   12.85    2.99
   3  -6   7    1.16    1.51
   3  -6   7    0.22    0.75
   3  -6   7    0.40    1.12
   3  -6   7   -0.37    1.37
   3  -6   7    0.46    1.36
   3  -6   8   75.73    7.55
   3  -6   8   66.34    6.02
   3  -6   8   78.63    7.00
   3  -6   9   41.91    4.46
   3  -6   9   40.67    4.82
   3  -6  10    8.09    2.11
   3  -6  11   12.76    2.47
   3  -5  -8   23.01    2.41
   3  -5  -8   21.56    2.21
  -3   5   8   23.28    2.61
  -3   5   8   17.17    2.11
   3  -5  -7  111.65    6.94
   3  -5  -7  117.83    7.22
  -3   5   7  109.93    7.83
  -3   5   7  124.81    7.34
  -3   5   7  101.95    7.00
  -3   5   6   39.61    4.10
  -3   5   6   45.89    4.83
   3  -5  -6   48.83    4.48
   3  -5  -6   40.72    4.10
  -3   5   5  137.94    9.15
  -3   5   5  139.79    9.99
   3  -5  -5  141.67    9.14
   3  -5  -5  138.59    9.06
  -3   5   4    4.67    1.62
   3  -5  -4    6.62    1.89
   3  -5  -4    7.62    1.97
   3  -5  -4    5.97    1.40
   3  -5  -3  127.65    9.02
   3  -5  -3  123.19    8.85
   3  -5  -3  115.69    7.73
  -3   5   3  154.76   20.92
  -3   5   3  118.96   15.84
   3  -5  -3  132.41    9.37
   3  -5  -2   36.10    4.39
   3  -5  -2   36.72    3.84
  -3   5   2   40.97   11.22
   3  -5  -2   34.50    4.78
   3  -5  -2   36.12    4.51
   3  -5  -2   34.37    4.37
  -3   5   2   52.34    9.92
   3  -5  -2   43.97    9.30
  -3   5   1  162.79   18.80
   3  -5  -1  189.94   20.83
   3  -5  -1  183.78   11.54
   3  -5  -1  178.19   11.36
   3  -5  -1  171.50   12.03
   3  -5  -1  188.22   11.92
   3  -5  -1  157.99   11.29
   3  -5  -1  178.12   10.37
   3  -5  -1  175.78   10.99
  -3   5   0  104.94   14.74
   3  -5   0  112.38   17.08
   3  -5   0  141.25    8.67
  -3   5   0  113.33   19.04
   3  -5   0  129.66    8.91
   3  -5   0  138.33    9.67
   3  -5   0  123.93   10.16
   3  -5   0  130.31    9.89
   3  -5   0  125.15    9.82
   3  -5   1    2.76    1.29
   3  -5   1    6.19    2.29
   3  -5   1    3.75    1.98
   3  -5   1    5.10    1.61
   3  -5   2  132.47    8.93
   3  -5   2  113.24   10.45
   3  -5   2  128.42   10.31
   3  -5   2  125.96   10.07
   3  -5   3   10.32    2.10
  -3   5  -3   12.11    5.17
   3  -5   3    9.04    2.90
  -3   5  -3   16.84    5.73
   3  -5   3    7.34    4.15
   3  -5   3   15.99    3.50
   3  -5   3    9.07    2.77
   3  -5   3   16.68    4.40
   3  -5   3    8.31    2.61
   3  -5   3   11.93    3.32
   3  -5   4  129.10    8.41
  -3   5  -4  136.48   17.33
   3  -5   4  125.28   17.64
   3  -5   4  118.27   10.08
   3  -5   4  134.04   12.35
   3  -5   4  135.09   11.33
   3  -5   4  121.22   10.12
   3  -5   5   29.47    3.51
   3  -5   5   22.51    4.24
   3  -5   5   25.45    4.38
   3  -5   5   44.38    5.38
   3  -5   5   31.27    4.69
  -3   5  -5   33.61    8.34
   3  -5   5   31.53    8.44
   3  -5   6   55.05    6.01
   3  -5   6   51.51    4.70
   3  -5   6   61.67    6.43
   3  -5   6   59.76    6.72
   3  -5   6   51.47    6.78
   3  -5   6   61.53    6.61
   3  -5   7  115.28    9.11
   3  -5   7   91.84    6.42
   3  -5   7  110.79    8.14
   3  -5   7  122.79   11.61
   3  -5   7  124.97   10.50
   3  -5   7  108.29    8.56
   3  -5   8    2.39    1.26
   3  -5   8    2.05    1.91
   3  -5   8    3.36    1.88
   3  -5   8    4.04    1.61
   3  -5   9   12.76    3.42
   3  -5   9   10.63    2.67
   3  -5  10   -0.32    1.40
   3  -5  11   24.12    3.14
   3  -5  11   21.13    3.11
   3  -4  -9  114.09    6.28
   3  -4  -9  104.56    7.22
  -3   4   9   94.64    6.03
  -3   4   9  120.24    6.69
   3  -4  -8   30.01    3.16
   3  -4  -8   23.83    2.79
   3  -4  -8   27.24    4.17
  -3   4   8   29.35    3.52
  -3   4   8   33.17    3.63
  -3   4   8   26.92    2.85
  -3   4   7    5.63    2.00
   3  -4  -7    6.65    1.70
  -3   4   7    5.09    1.70
  -3   4   7    5.44    1.69
   3  -4  -7    7.36    1.70
   3  -4  -7   12.45    3.04
   3  -4  -6  108.93    7.49
   3  -4  -6   89.96    6.95
  -3   4   6   93.69    7.76
  -3   4   6   90.57    7.72
   3  -4  -6   90.86    8.85
   3  -4  -5    0.32    0.95
  -3   4   5    0.39    0.77
   3  -4  -5   -0.32    0.87
   3  -4  -5    1.61    1.71
   3  -4  -4  185.78   11.45
   3  -4  -4  183.01   10.13
  -3   4   4  174.21   23.58
   3  -4  -4  195.81   11.60
   3  -4  -4  167.86   12.91
  -3   4   4  167.79   19.23
  -3   4   3   67.06   11.35
  -3   4   3   64.19    6.51
   3  -4  -3   73.86    6.53
   3  -4  -3   78.31    6.62
   3  -4  -3   75.87    6.94
   3  -4  -3   72.17    6.43
   3  -4  -3   79.91    6.37
   3  -4  -3   71.30    5.59
  -3   4   2   93.40   14.02
  -3   4   2   92.45    7.83
   3  -4  -2  104.37    7.92
   3  -4  -2   99.04    7.85
   3  -4  -2   91.64   11.57
   3  -4  -2  101.49    6.99
   3  -4  -2  102.11   12.15
  -3   4   2   99.02   17.93
   3  -4  -2  103.40    8.49
   3  -4  -2  104.77    8.24
   3  -4  -2  109.94    8.16
   3  -4  -1  231.00   19.78
   3  -4  -1  208.40   11.68
   3  -4  -1  201.67   12.26
   3  -4  -1  218.79   19.23
   3  -4  -1  236.43   13.29
  -3   4   1  219.70   21.77
   3  -4  -1  206.54   22.64
   3  -4  -1  213.12   12.69
   3  -4  -1  230.58   14.09
   3  -4  -1  217.86   13.48
   3  -4  -1  227.43   13.47
   3  -4   0   78.60   10.99
   3  -4   0   72.57    5.82
   3  -4   0   63.83   10.05
  -3   4   0   57.04   13.28
   3  -4   0   79.98    6.33
  -3   4   0   76.71   12.72
   3  -4   0   75.65   12.74
   3  -4   0   76.36    6.63
   3  -4   0   71.34    6.15
   3  -4   0   79.76    7.41
   3  -4   0   78.52    7.20
   3  -4   0   73.69    6.97
   3  -4   1  307.32   18.85
   3  -4   1  335.41   18.82
   3  -4   1  328.05   18.80
   3  -4   1  343.03   20.89
   3  -4   1  335.19   18.49
   3  -4   1  330.65   30.00
   3  -4   1  334.83   25.12
   3  -4   1  334.49   16.43
   3  -4   1  355.76   25.64
   3  -4   2    0.43    1.46
   3  -4   2    1.79    1.51
  -3   4  -2    2.71    2.16
   3  -4   2    1.08    1.73
   3  -4   2    3.25    2.11
  -3   4  -2    3.65    2.91
   3  -4   3  325.01   19.25
   3  -4   3  367.28   21.86
   3  -4   3  373.18   19.79
   3  -4   3  345.56   19.58
   3  -4   3  348.63   20.19
  -3   4  -3  340.17   28.49
   3  -4   3  312.91   30.06
   3  -4   3  321.67   25.33
   3  -4   3  364.99   17.24
   3  -4   3  325.50   25.42
  -3   4  -3  331.23   31.03
   3  -4   4  122.56    9.84
   3  -4   4  102.66    9.89
   3  -4   4  123.45   10.00
   3  -4   4  113.03    9.61
   3  -4   4  119.50    9.75
  -3   4  -4  151.95   17.07
   3  -4   4  125.36    8.01
  -3   4  -4  130.12   16.89
   3  -4   5  104.35    8.71
   3  -4   5   97.07    9.37
   3  -4   5   98.40    9.01
   3  -4   5  104.81    8.93
   3  -4   5   91.98    6.74
   3  -4   6   57.06    6.13
   3  -4   6   64.53    6.37
   3  -4   6   52.78    7.49
   3  -4   6   82.40    8.18
   3  -4   6   58.01    6.84
   3  -4   6   68.94    6.80
   3  -4   6   70.76    7.87
   3  -4   6   58.39    4.87
   3  -4   7   23.84    3.64
   3  -4   7   26.63    4.26
   3  -4   7   35.19    5.95
   3  -4   7   30.61    4.81
   3  -4   7   25.47    4.04
   3  -4   7   29.25    5.17
   3  -4   8  160.28   12.69
   3  -4   8  156.86   10.14
   3  -4   8  152.28    9.60
   3  -4   8  171.88   12.91
   3  -4   8  159.04   11.35
   3  -4   9    0.80    1.35
   3  -4   9    5.71    2.57
   3  -4  10   62.28    6.03
   3  -4  11   12.02    2.33
   3  -3 -10   15.66    1.85
  -3   3  10   21.21    2.37
   3  -3  -9    0.20    0.50
   3  -3  -9    1.44    1.34
  -3   3   9    0.88    0.70
  -3   3   9    0.78    0.83
  -3   3   8   11.24    2.33
   3  -3  -8   14.55    2.37
  -3   3   8   11.95    2.08
  -3   3   8    6.80    2.11
   3  -3  -8   12.01    2.03
   3  -3  -8   13.84    3.39
   3  -3  -7   71.97    5.81
   3  -3  -7   66.59    5.80
   3  -3  -7   68.55    7.73
  -3   3   7   65.24    6.56
  -3   3   7   56.62    5.76
  -3   3   6    9.80    2.68
   3  -3  -6   10.00    2.23
   3  -3  -6    8.06    2.92
   3  -3  -5   51.23    5.08
  -3   3   5   40.27    5.48
   3  -3  -5   39.97    5.99
  -3   3   5   36.64    8.41
   3  -3  -5   43.43    3.82
  -3   3   5   43.34   10.78
   3  -3  -4   27.07    3.73
   3  -3  -4   22.35    3.30
  -3   3   4   22.92    4.08
   3  -3  -4   12.23    3.57
  -3   3   4   35.36    8.01
   3  -3  -4   21.16    2.76
   3  -3  -4   20.44    4.97
   3  -3  -4   19.47    4.85
   3  -3  -3  138.68    9.38
   3  -3  -3  157.66   10.05
   3  -3  -3  134.07   14.34
   3  -3  -3  147.27    8.79
   3  -3  -3  159.56   15.37
   3  -3  -3  152.55   10.48
   3  -3  -3  158.64   10.20
   3  -3  -3  153.24    9.62
   3  -3  -3  125.02   10.97
  -3   3   3  119.36   16.07
  -3   3   2    7.77    3.86
   3  -3  -2    3.61    1.48
   3  -3  -2    2.40    1.15
  -3   3   2    6.42    5.39
   3  -3  -2    1.15    0.92
   3  -3  -2    2.34    1.41
   3  -3  -2    4.25    1.90
   3  -3  -2    1.81    1.42
  -3   3   1  130.43   15.28
   3  -3  -1  120.65    8.53
   3  -3  -1  117.28   13.33
   3  -3  -1  120.29    7.63
   3  -3  -1  115.81    7.92
   3  -3  -1  128.65   13.93
   3  -3  -1  105.94    7.46
   3  -3  -1  107.23    8.90
   3  -3  -1  116.40    8.90
   3  -3  -1  111.46    8.55
   3  -3   0  341.17   24.80
   3  -3   0  332.20   15.96
   3  -3   0  318.35   24.19
  -3   3   0  311.56   31.54
   3  -3   0  329.17   18.05
   3  -3   0  318.53   17.80
   3  -3   0  317.74   18.01
   3  -3   0  331.34   17.73
  -3   3   0  316.42   25.57
   3  -3   0  318.80   17.00
  -3   3  -1   27.19    6.45
   3  -3   1   20.20    3.51
   3  -3   1   27.59    4.24
   3  -3   1   26.27    4.67
   3  -3   1   24.69    3.91
   3  -3   2  111.59    7.38
   3  -3   2   99.05    8.82
  -3   3  -2  122.30   14.08
   3  -3   2  104.70    8.83
   3  -3   2   99.78    9.59
   3  -3   2  121.66    9.71
   3  -3   2  100.83    8.54
   3  -3   3    4.30    1.28
   3  -3   3    5.78    2.18
   3  -3   3    2.90    1.75
   3  -3   3    2.71    2.52
   3  -3   4   87.27   11.97
   3  -3   4  115.08    7.52
   3  -3   4  112.08   12.80
   3  -3   4  106.95    9.72
   3  -3   4  112.25    8.99
   3  -3   4  122.91   10.29
   3  -3   4  120.13    9.33
   3  -3   5   91.56    6.28
   3  -3   5   77.77    7.23
   3  -3   5   78.47    8.56
   3  -3   5   93.23    9.06
   3  -3   5   88.48    7.87
   3  -3   5   83.22    7.69
   3  -3   6   12.95    2.10
   3  -3   6   17.31    3.24
   3  -3   6   21.50    3.24
   3  -3   6   15.50    3.29
   3  -3   6   18.08    4.41
   3  -3   6   17.70    3.31
   3  -3   6   16.78    3.98
   3  -3   7   81.16    7.74
   3  -3   7   81.31    6.97
   3  -3   7   84.14    8.64
   3  -3   7   74.79    6.67
   3  -3   7   95.74    9.21
   3  -3   8    0.88    1.41
   3  -3   8   -0.49    1.23
   3  -3   8    1.06    1.69
   3  -3   9   83.48    7.53
   3  -3   9   92.31    8.50
   3  -3  10    7.92    2.35
   3  -3  11   13.83    2.43
  -3   2  10    7.54    1.66
   3  -2 -10    6.79    2.11
   3  -2 -10    5.38    1.30
   3  -2  -9  132.60    8.05
   3  -2  -9  112.19    9.64
  -3   2   9  139.77    9.24
  -3   2   9  102.11    7.68
   3  -2  -8   10.92    3.28
   3  -2  -8   11.05    2.82
  -3   2   8   10.13    2.54
  -3   2   8   12.43    2.25
  -3   2   8    8.27    2.41
   3  -2  -7   30.15    3.38
   3  -2  -7   24.04    3.23
   3  -2  -7   27.21    4.93
   3  -2  -7   22.41    4.24
   3  -2  -6    7.90    3.01
  -3   2   6    8.98    4.15
  -3   2   6   10.45    2.94
   3  -2  -6   10.30    2.05
   3  -2  -6    8.63    2.15
   3  -2  -6    9.34    2.06
  -3   2   5  309.27   27.25
   3  -2  -5  281.35   19.16
   3  -2  -5  282.61   15.65
   3  -2  -5  316.05   16.73
   3  -2  -5  328.07   16.06
  -3   2   5  319.14   18.90
   3  -2  -5  335.78   16.69
   3  -2  -5  332.59   15.11
   3  -2  -4  188.19   16.18
   3  -2  -4  174.16    9.73
   3  -2  -4  187.66   16.18
   3  -2  -4  161.97   12.95
  -3   2   4  164.30   18.49
   3  -2  -4  172.68   10.98
   3  -2  -4  184.98   10.59
   3  -2  -3    3.79    2.15
   3  -2  -3    8.51    3.20
   3  -2  -3    5.70    1.44
   3  -2  -3    4.47    1.62
   3  -2  -3    6.47    2.07
  -3   2   3    7.53    3.47
   3  -2  -3    4.91    1.46
   3  -2  -3    7.39    1.93
   3  -2  -2  143.28   10.35
   3  -2  -2  148.95   10.41
   3  -2  -2  164.42   10.27
   3  -2  -2  157.70   15.42
   3  -2  -2  164.29    9.19
   3  -2  -2  177.47   16.20
   3  -2  -2  149.51    9.83
   3  -2  -2  156.58    9.54
   3  -2  -1   23.87    2.94
   3  -2  -1   23.42    5.56
   3  -2  -1   33.05    6.72
   3  -2  -1   18.93    3.04
   3  -2  -1   21.58    2.95
   3  -2  -1   24.49    3.72
   3  -2  -1   22.69    3.45
   3  -2  -1   24.03    3.71
  -3   2   1   28.55    6.94
   3  -2   0  131.31   14.54
   3  -2   0  150.75    8.77
   3  -2   0  165.54   15.86
   3  -2   0  143.28    9.35
   3  -2   0  158.37   10.59
   3  -2   0  161.41   10.55
   3  -2   0  148.49   10.03
   3  -2   0  118.76    9.41
  -3   2   0  147.30   15.18
   3  -2   0  123.63   10.65
   3  -2   1   58.33    6.70
   3  -2   1   68.30    7.34
   3  -2   1   76.18    6.74
   3  -2   1   56.56    6.12
   3  -2   1   68.38    7.09
   3  -2   2  116.20   13.19
   3  -2   2  112.53    7.27
   3  -2   2  133.80   14.13
  -3   2  -2  133.25   18.95
   3  -2   2  102.51    8.47
   3  -2   2  106.80    9.27
   3  -2   2  112.58    8.86
   3  -2   2  103.74    8.47
   3  -2   2  103.83    8.81
   3  -2   2   95.55    8.82
   3  -2   2  100.63    8.83
   3  -2   3   46.60    5.38
   3  -2   3   44.09    5.75
   3  -2   3   35.15    4.85
   3  -2   3   50.23    6.45
   3  -2   3   47.23    5.45
   3  -2   3   48.42    4.37
   3  -2   3   58.84    8.87
   3  -2   3   44.54    7.75
  -3   2  -3   49.57   11.73
   3  -2   4   -0.39    1.17
   3  -2   4    0.39    1.23
   3  -2   4    0.24    0.54
   3  -2   5   87.29    7.08
   3  -2   5   71.38    6.82
   3  -2   5   84.03    8.83
   3  -2   5   85.19    7.36
   3  -2   5   69.47    9.42
   3  -2   5   71.36    5.46
   3  -2   5   65.00    9.43
   3  -2   5   81.01    7.20
   3  -2   6    3.25    1.63
   3  -2   6    0.96    1.72
   3  -2   6    3.91    1.96
   3  -2   6    4.45    1.69
   3  -2   7   43.75    5.61
   3  -2   7   47.89    6.36
   3  -2   7   33.82    5.02
   3  -2   8   87.35    8.48
   3  -2   8   64.25    7.07
   3  -2   9    2.24    2.02
   3  -2   9    2.87    1.90
   3  -2  10    6.01    1.97
   3  -2  11    2.50    1.23
   3  -1 -11    1.65    0.68
  -3   1  10   70.08    5.16
   3  -1 -10   76.70    5.91
   3  -1 -10   58.92    4.91
   3  -1 -10   52.40    6.06
   3  -1 -10   68.92    6.17
  -3   1  10   71.26    6.13
   3  -1  -9    2.10    0.81
  -3   1   9    1.58    1.26
   3  -1  -9    2.40    1.87
   3  -1  -9    2.13    1.60
  -3   1   9    2.91    1.27
   3  -1  -8  142.10    9.19
   3  -1  -8  136.80    8.26
  -3   1   8  115.92    8.37
   3  -1  -8  119.01   10.87
   3  -1  -8  137.77   10.99
  -3   1   8  141.03    9.63
  -3   1   7   13.41    2.82
  -3   1   7   11.23    3.09
   3  -1  -7   17.39    2.71
   3  -1  -7   16.54    2.89
   3  -1  -7   15.45    4.05
   3  -1  -7   14.16    3.57
  -3   1   7   11.96    5.12
   3  -1  -6  252.41   13.91
   3  -1  -6  260.12   13.19
  -3   1   6  218.83   15.43
  -3   1   6  230.21   14.31
  -3   1   6  242.70   22.95
   3  -1  -6  216.81   16.23
   3  -1  -6  208.81   15.35
   3  -1  -5  290.98   20.99
   3  -1  -5  277.78   13.41
   3  -1  -5  315.48   21.65
   3  -1  -5  262.56   14.78
   3  -1  -5  285.27   14.51
  -3   1   5  246.59   15.45
   3  -1  -5  285.51   15.00
  -3   1   5  248.25   23.86
   3  -1  -5  234.52   17.19
   3  -1  -4   16.42    4.51
   3  -1  -4   13.63    4.00
   3  -1  -4   11.07    1.95
   3  -1  -4   14.96    2.51
   3  -1  -4   16.38    2.85
  -3   1   4   16.47    3.14
   3  -1  -4   11.54    2.64
   3  -1  -3  354.33   24.26
   3  -1  -3  330.74   15.69
   3  -1  -3  344.95   24.19
   3  -1  -3  316.80   16.71
   3  -1  -3  314.85   16.19
  -3   1   3  311.73   17.81
   3  -1  -3  346.49   16.89
  -3   1   3  303.51   25.02
   3  -1  -2   -0.94    1.84
   3  -1  -2    1.88    1.50
   3  -1  -2    0.45    0.67
   3  -1  -2    0.52    0.72
   3  -1  -2    0.29    0.87
   3  -1  -2    0.62    1.21
   3  -1  -2    0.36    1.21
  -3   1   2    1.01    1.14
   3  -1  -1  691.33   30.69
   3  -1  -1  708.23   30.44
   3  -1  -1  653.93   33.36
   3  -1  -1  736.82   32.32
   3  -1  -1  709.26   32.13
   3  -1  -1  705.64   31.50
   3  -1  -1  728.12   40.36
   3  -1  -1  695.74   29.87
   3  -1  -1  744.03   40.67
   3  -1   0   95.10    6.48
   3  -1   0   91.71    7.57
   3  -1   0   94.67    7.42
   3  -1   0   82.74    7.17
   3  -1   0   82.50    8.49
   3  -1   0   81.26    8.06
   3  -1   1   36.21    4.85
   3  -1   1   36.58    4.55
   3  -1   1   34.48    4.34
   3  -1   1   43.69    7.79
   3  -1   1   42.50    3.95
   3  -1   1   33.59    7.09
  -3   1  -1   37.93   10.34
   3  -1   1   33.71    5.03
   3  -1   2  111.70   12.94
   3  -1   2  109.87    7.26
   3  -1   2  109.27   12.90
  -3   1  -2  127.42   19.26
   3  -1   2  113.48    8.62
   3  -1   2  109.27    9.07
   3  -1   2  111.80    9.53
   3  -1   2  114.96    9.78
   3  -1   3  270.95   21.16
   3  -1   3  248.84   12.78
   3  -1   3  239.19   20.36
  -3   1  -3  291.05   31.63
   3  -1   3  248.81   15.75
   3  -1   3  259.31   14.58
   3  -1   3  223.79   14.47
   3  -1   3  237.77   14.20
   3  -1   3  256.61   17.04
   3  -1   3  250.66   14.60
   3  -1   4  623.05   36.13
   3  -1   4  607.01   26.20
   3  -1   4  571.76   35.37
   3  -1   4  645.97   28.36
   3  -1   4  558.82   28.47
   3  -1   4  578.68   27.95
   3  -1   4  626.89   28.74
   3  -1   4  612.06   30.54
   3  -1   5   58.68    5.57
   3  -1   5   61.55    5.80
   3  -1   5   62.94    6.11
   3  -1   5   54.57    4.50
   3  -1   5   60.05    6.40
   3  -1   5   63.30    6.30
   3  -1   6  148.03   11.19
  -3   1  -6  162.81   24.33
   3  -1   6  155.11   12.46
   3  -1   6  146.89   12.65
   3  -1   7   26.56    4.41
   3  -1   7   20.40    4.29
   3  -1   8   93.53    8.47
   3  -1   9   18.89    3.60
   3  -1   9   16.23    3.28
   3  -1  10   13.27    2.59
   3  -1  10   12.02    2.55
   3  -1  11   39.07    3.60
  -3   0  11    5.74    1.60
  -3   0  11   11.75    1.87
   3   0 -10    2.64    0.88
   3   0 -10    2.18    1.06
   3   0 -10    0.39    1.16
  -3   0  10    2.60    1.22
   3   0  -9   58.24    5.38
   3   0  -9   60.81    4.86
   3   0  -9   57.19    6.05
  -3   0   9   63.52    6.13
   3   0  -9   54.07    6.60
   3   0  -8    7.50    1.81
   3   0  -8    5.18    1.69
  -3   0   8    6.03    2.35
  -3   0   8    4.54    1.87
   3   0  -8    7.88    2.92
   3   0  -8    9.37    2.92
   3   0  -7   30.40    3.99
   3   0  -7   27.59    3.47
  -3   0   7   27.30    4.97
  -3   0   7   29.28    4.50
   3   0  -7   17.80    4.40
   3   0  -7   32.24    5.34
   3   0  -6   47.21    3.92
  -3   0   6   40.85    9.95
   3   0  -6   50.59    5.16
   3   0  -6   47.53    4.63
  -3   0   6   42.60    5.57
   3   0  -6   44.14    4.73
   3   0  -6   39.23    6.23
   3   0  -6   34.64    5.74
  -3   0   6   53.98   10.24
   3   0  -5   49.52    7.65
   3   0  -5   50.25    4.18
   3   0  -5   51.55    7.81
   3   0  -5   42.35    4.78
   3   0  -5   51.56    4.86
  -3   0   5   35.88    5.25
   3   0  -5   42.64    4.83
  -3   0   5   46.24    8.73
   3   0  -4  348.57   24.03
   3   0  -4  325.53   15.34
   3   0  -4  310.09   22.99
  -3   0   4  333.95   28.88
  -3   0   4  325.29   18.66
   3   0  -4  310.23   16.46
   3   0  -4  337.94   17.29
  -3   0   4  327.71   25.23
   3   0  -4  276.61   18.78
   3   0  -3   30.40    4.75
   3   0  -3   21.22    6.76
   3   0  -3   33.03    5.03
   3   0  -3   41.09    3.86
   3   0  -3   37.28    4.49
   3   0  -3   39.49    4.33
   3   0  -3   31.96    3.38
   3   0  -3   45.24    7.77
   3   0  -3   40.25    7.35
   3   0  -3   34.19    3.94
   3   0  -3   34.48    3.87
   3   0  -2   95.31    6.37
   3   0  -2   80.24    6.30
   3   0  -2   85.86    6.44
   3   0  -2   85.08    7.21
   3   0  -2   92.00    7.07
   3   0  -2   79.43   10.81
   3   0  -2   97.67    6.39
   3   0  -2  104.54   12.09
   3   0  -1   35.38    7.75
   3   0  -1   22.62    4.22
   3   0  -1   35.64    3.54
   3   0  -1   30.12    3.40
   3   0  -1   28.58    4.00
   3   0  -1   30.27    3.89
   3   0  -1   22.37    5.69
   3   0  -1   30.50    3.29
   3   0  -1   23.18    5.76
   3   0   0  174.77    9.79
   3   0   0  180.94   11.04
   3   0   0  160.00   10.90
   3   0   0  158.67   16.74
   3   0   1  203.34   13.53
   3   0   1  246.62   12.30
   3   0   1  225.13   13.40
   3   0   1  223.26   13.34
   3   0   1  233.37   13.39
   3   0   1  234.93   12.07
   3   0   1  216.44   19.38
  -3   0  -1  260.74   28.94
   3   0   1  229.87   19.69
   3   0   1  205.50   14.97
   3   0   2  172.88   16.52
   3   0   2  172.52    9.63
   3   0   2  173.94   16.53
  -3   0  -2  170.57   24.12
   3   0   2  168.87   10.94
   3   0   2  162.73   10.66
   3   0   2  140.77   11.19
   3   0   2  160.95   12.37
   3   0   3  432.82   29.04
   3   0   3  444.88   20.02
   3   0   3  420.17   28.84
  -3   0  -3  505.85   44.13
   3   0   3  418.77   21.44
   3   0   3  438.23   25.04
   3   0   3  428.61   21.83
   3   0   3  436.37   23.60
   3   0   3  449.58   22.34
   3   0   3  418.19   23.58
   3   0   4   57.30    8.53
   3   0   4   62.28    4.95
   3   0   4   59.40    8.69
  -3   0  -4   67.64   16.38
   3   0   4   70.43    6.89
   3   0   4   63.29    6.33
   3   0   4   61.95    7.40
   3   0   4   63.33    5.93
   3   0   5  150.25   11.00
   3   0   5  135.91   10.62
   3   0   5  137.72   12.09
   3   0   6    2.72    1.84
   3   0   6    4.57    2.50
   3   0   6    2.80    1.90
   3   0   7   34.72    5.10
   3   0   7   38.77    5.76
   3   0   7   33.23    5.58
   3   0   8  149.17   11.10
   3   0   9   10.21    2.54
   3   0   9    5.87    1.91
   3   0  10   35.98    4.05
   3   0  10   40.13    4.01
   3   1 -12    0.61    0.97
   3   1 -12    0.78    0.51
   3   1 -11   36.97    3.45
   3   1 -11   32.37    2.77
  -3  -1  11   35.14    4.04
  -3  -1  11   36.67    4.00
   3   1 -10    2.10    1.22
  -3  -1  10    2.30    1.22
   3   1 -10    0.86    1.28
   3   1 -10    1.74    0.84
   3   1 -10    1.03    1.01
   3   1  -9   46.06    4.81
   3   1  -9   49.74    4.51
  -3  -1   9   46.52    5.60
   3   1  -9   46.70    6.26
   3   1  -8   48.91    5.05
   3   1  -8   50.91    4.79
   3   1  -8   43.11    5.43
  -3  -1   8   43.87    5.61
   3   1  -8   49.86    6.79
   3   1  -7   -0.29    0.73
   3   1  -7    0.34    0.93
   3   1  -7   -0.45    1.68
  -3  -1   7    0.49    1.36
   3   1  -7    1.82    1.68
  -3  -1   7    2.78    2.21
   3   1  -6   63.12    8.66
   3   1  -6   70.66    5.13
   3   1  -6   79.82    9.68
  -3  -1   6   57.63   11.76
  -3  -1   6   80.23   13.44
  -3  -1   6   62.26    7.27
   3   1  -6   70.01    7.38
   3   1  -6   73.49    6.42
   3   1  -6   68.69    5.88
   3   1  -6   68.83    6.25
  -3  -1   6   79.42   11.57
   3   1  -5   16.95    4.08
   3   1  -5   18.91    2.52
  -3  -1   5    9.18    2.99
   3   1  -5   17.66    2.89
   3   1  -5   19.42    4.81
   3   1  -5   15.40    2.32
   3   1  -5   23.87    5.31
  -3  -1   5   16.51    6.23
   3   1  -5   18.81    3.23
   3   1  -5   18.26    3.63
   3   1  -4   32.24    5.40
   3   1  -4   29.85    3.33
   3   1  -4   32.75    3.72
   3   1  -4   31.33    3.72
   3   1  -4   33.09    4.35
   3   1  -4   44.01    7.71
   3   1  -4   30.58    3.40
   3   1  -4   35.22    6.80
   3   1  -3   20.07    2.68
  -3  -1   3   19.71    3.63
   3   1  -3   15.94    6.04
   3   1  -3   24.97    2.99
   3   1  -3   24.12    3.14
   3   1  -3   20.17    3.38
   3   1  -3   21.64    2.81
   3   1  -3   21.38    5.20
  -3  -1   3   31.40    9.17
   3   1  -3   22.44    5.66
   3   1  -2  135.50   11.65
   3   1  -2  181.10    9.91
  -3  -1   2  154.69   11.74
   3   1  -2  156.02    9.66
   3   1  -2  169.33    9.53
   3   1  -2  182.15   16.72
   3   1  -2  189.77   17.00
   3   1  -2  178.16   11.11
   3   1  -2  179.66   12.43
   3   1  -1  181.03   13.84
   3   1  -1  162.58   19.96
   3   1  -1  226.99   11.31
   3   1  -1  187.36   10.71
   3   1  -1  181.39   11.81
   3   1  -1  203.48   10.84
   3   1  -1  197.00   17.91
   3   1  -1  198.72   18.08
   3   1   0   11.27    2.65
   3   1   0    9.18    4.25
   3   1   0   14.45    2.38
   3   1   0    9.88    1.84
   3   1   0   14.44    2.33
   3   1   0   11.59    2.64
   3   1   0   19.35    5.28
   3   1   0   13.52    2.19
   3   1   0   14.31    4.77
   3   1   1   30.56    5.08
   3   1   1   23.34    6.67
   3   1   1   23.40    3.10
   3   1   1   36.21    3.69
   3   1   1   33.14    4.33
   3   1   1   42.42    7.55
   3   1   1   31.15    3.44
   3   1   1   33.97    7.05
  -3  -1  -1   22.68    9.28
   3   1   2   27.15    4.39
   3   1   2   19.82    6.01
   3   1   2   17.81    2.68
   3   1   2   17.18    3.22
   3   1   2   17.60    4.87
   3   1   2   21.40    2.76
   3   1   2   21.59    5.36
  -3  -1  -2   34.36   11.76
   3   1   3   62.50    9.49
   3   1   3   63.60    5.03
   3   1   3   75.85   10.06
  -3  -1  -3   64.22   16.02
   3   1   3   55.21    5.73
   3   1   3   63.25    7.85
   3   1   3   69.10    7.53
   3   1   3   53.62    6.43
   3   1   4   29.35    3.91
   3   1   4   29.17    3.08
  -3  -1  -4   21.44   10.51
   3   1   4   25.66    4.39
   3   1   5   32.20    5.49
  -3  -1  -5   33.40   10.91
   3   1   5   25.11    4.46
   3   1   6   31.86    4.82
   3   1   6   36.49    5.62
   3   1   6   19.05    4.07
   3   1   7    2.62    2.13
   3   1   7    1.84    1.47
   3   1   8   35.10    5.08
   3   1   8   38.12    5.02
   3   1   9   31.87    4.07
   3   1   9   30.88    3.94
   3   1  10    4.11    1.15
   3   1  10    1.27    0.77
   3   2 -12   56.16    4.95
  -3  -2  12   53.20    4.47
   3   2 -12   51.35    3.68
  -3  -2  11   15.13    2.82
  -3  -2  11   16.97    2.73
   3   2 -11   15.47    3.21
   3   2 -11   14.63    2.17
   3   2 -11   20.45    2.20
   3   2 -10   39.69    4.10
   3   2 -10   40.04    3.78
  -3  -2  10   46.46    5.34
  -3  -2  10   38.65    4.98
   3   2  -9  141.62    9.22
   3   2  -9  147.62    9.01
   3   2  -9  143.61    9.77
  -3  -2   9  138.26   10.91
  -3  -2   9  137.85   11.20
   3   2  -8   44.74    4.68
   3   2  -8   48.70    4.72
   3   2  -8   41.85    5.07
  -3  -2   8   44.01    5.95
  -3  -2   8   34.26    4.19
  -3  -2   8   35.24    5.56
   3   2  -7  140.25    7.76
  -3  -2   7  125.61   11.03
  -3  -2   7  121.52    9.17
   3   2  -7  142.73   10.35
   3   2  -7  124.88    8.86
   3   2  -7  147.81    9.29
   3   2  -7  129.80    8.99
   3   2  -7  131.14    7.58
  -3  -2   7  125.91   17.89
   3   2  -6    1.25    1.99
   3   2  -6    1.08    0.77
  -3  -2   6   -0.39    1.07
  -3  -2   6    0.55    1.52
   3   2  -6    0.44    1.10
   3   2  -6    0.30    0.67
   3   2  -6    0.34    1.52
   3   2  -6    0.91    1.03
   3   2  -6    4.53    2.28
   3   2  -6    0.85    0.72
   3   2  -5  584.32   32.80
   3   2  -5  671.41   28.32
  -3  -2   5  633.15   32.68
  -3  -2   5  635.18   30.88
   3   2  -5  672.76   31.61
   3   2  -5  610.61   28.40
   3   2  -5  665.98   29.32
   3   2  -5  648.17   29.97
   3   2  -5  710.33   28.39
  -3  -2   5  637.16   49.54
   3   2  -5  676.33   38.43
   3   2  -5  679.77   38.71
   3   2  -4    4.14    2.50
   3   2  -4    7.12    1.68
  -3  -2   4    6.95    2.52
   3   2  -4    3.90    3.12
   3   2  -4    7.41    1.74
   3   2  -4    6.36    1.77
   3   2  -4    6.79    2.32
   3   2  -4    6.06    2.80
   3   2  -4    5.23    1.44
   3   2  -4    8.10    3.23
   3   2  -3   76.16    5.85
  -3  -2   3   65.03    7.35
   3   2  -3   76.66    6.06
   3   2  -3   74.90    5.87
   3   2  -3   67.04    6.47
   3   2  -3   85.12    5.96
  -3  -2   3   51.70   13.36
   3   2  -3   75.62   10.35
   3   2  -3   79.95   10.95
   3   2  -2  192.53   13.07
   3   2  -2  190.86   10.69
   3   2  -2  162.82   10.27
   3   2  -2  192.46   10.77
   3   2  -2  180.15   11.66
   3   2  -2  196.24   10.66
   3   2  -2  204.34   18.27
   3   2  -2  202.80   18.23
   3   2  -1   96.67    6.51
   3   2  -1   65.30   12.56
   3   2   0  315.49   18.17
   3   2   0  273.59   28.07
   3   2   0  319.56   19.85
   3   2   0  340.44   16.54
   3   2   0  328.79   16.56
   3   2   0  335.56   17.92
   3   2   0  357.61   16.54
   3   2   0  322.69   25.32
   3   2   0  326.69   25.25
   3   2   1    5.57    2.24
   3   2   1    9.96    3.07
   3   2   1    7.08    4.00
   3   2   1    9.56    1.98
   3   2   1    9.17    1.97
   3   2   1    7.95    2.32
   3   2   1   15.15    4.73
   3   2   1    6.36    1.67
  -3  -2  -1    4.91    6.20
   3   2   1   13.03    4.25
   3   2   2  159.48   12.48
   3   2   2  174.33   13.24
   3   2   2  161.74   19.85
   3   2   2  185.30   10.34
   3   2   2  166.31   10.01
   3   2   2  180.61   11.42
   3   2   2  149.82   16.08
   3   2   2  177.82   10.07
  -3  -2  -2  146.40   24.94
   3   2   2  175.48   17.13
   3   2   3   52.88    6.90
   3   2   3   47.67    6.54
   3   2   3   52.34    5.80
   3   2   3   55.59    4.73
   3   2   3   54.52    5.59
   3   2   3   48.55    6.99
   3   2   3   65.71    9.32
   3   2   3   52.66    4.56
  -3  -2  -3   71.98   17.20
   3   2   3   50.42    8.20
   3   2   4   74.12    5.35
  -3  -2  -4   92.77   18.44
   3   2   4   77.12    7.68
   3   2   4   85.19    8.60
   3   2   4   85.10    9.04
   3   2   4   85.85    9.03
   3   2   4   85.14    6.74
   3   2   5   58.22    7.10
   3   2   5   67.16    7.16
   3   2   5   63.42    7.49
   3   2   6   62.87    7.00
   3   2   6   64.61    7.08
   3   2   7  116.97    9.95
   3   2   7  117.52    9.53
   3   2   8   10.26    2.42
   3   2   8   10.54    2.61
   3   2   9   12.80    2.24
   3   2   9   16.44    2.59
   3   3 -12   29.25    3.43
   3   3 -12   27.37    3.39
  -3  -3  12   34.38    3.49
   3   3 -12   23.69    2.28
  -3  -3  11    6.88    2.03
   3   3 -11    9.57    2.40
  -3  -3  11    4.09    1.33
   3   3 -11    5.76    1.28
   3   3 -11    3.98    1.08
   3   3 -10    6.08    1.50
   3   3 -10    5.95    1.50
   3   3 -10   10.73    2.82
  -3  -3  10    6.55    1.66
  -3  -3  10    7.48    2.40
  -3  -3   9   24.71    3.56
  -3  -3   9   21.58    3.37
  -3  -3   9   23.85    4.28
   3   3  -9   21.69    3.18
   3   3  -9   20.32    2.87
   3   3  -9   21.60    3.05
   3   3  -9   23.89    4.45
  -3  -3   9   14.32    3.20
   3   3  -8  229.29   13.17
   3   3  -8  267.40   14.12
   3   3  -8  282.23   15.03
   3   3  -8  246.03   16.79
  -3  -3   8  260.88   14.71
  -3  -3   8  250.81   16.74
  -3  -3   8  240.33   14.55
   3   3  -7    0.82    0.76
  -3  -3   7   -1.27    1.35
  -3  -3   7    0.37    0.84
  -3  -3   7   -0.58    1.45
   3   3  -7    2.36    1.60
   3   3  -7    0.27    0.67
   3   3  -7    0.20    0.55
   3   3  -7   -1.20    2.35
   3   3  -6   21.34    4.84
   3   3  -6   32.94    3.46
  -3  -3   6   28.44    4.50
  -3  -3   6   23.01    3.71
  -3  -3   6   33.57    5.78
   3   3  -6   39.81    5.05
   3   3  -6   28.90    3.29
   3   3  -6   32.00    4.02
   3   3  -6   31.54    4.28
   3   3  -6   28.64    3.28
   3   3  -6   34.06    6.58
   3   3  -6   39.07    7.05
   3   3  -5   49.58    6.90
   3   3  -5   59.18    5.00
  -3  -3   5   50.19    5.72
  -3  -3   5   57.37    6.79
   3   3  -5   59.00    6.40
   3   3  -5   56.31    5.30
   3   3  -5   56.30    4.96
   3   3  -5   56.23    6.00
   3   3  -5   57.81    4.91
   3   3  -5   65.14    9.55
   3   3  -5   59.75    9.16
   3   3  -4   88.62    6.50
  -3  -3   4   82.82    7.51
  -3  -3   4   70.76    7.91
   3   3  -4   85.76    6.75
   3   3  -4   98.41    6.89
   3   3  -4   79.12    7.31
   3   3  -4   85.76    6.30
   3   3  -4   81.00   11.41
   3   3  -4   90.83   11.99
   3   3  -3  336.88   16.36
  -3  -3   3  306.98   17.99
  -3  -3   3  275.67   18.63
   3   3  -3  305.25   19.06
   3   3  -3  321.11   16.21
   3   3  -3  338.07   16.49
  -3  -3   3  301.35   33.19
   3   3  -3  356.59   26.27
   3   3  -3  309.26   24.69
   3   3  -3  346.31   16.29
   3   3  -3  310.71   17.49
   3   3  -2   48.97    5.89
   3   3  -2   64.94    5.58
  -3  -3   2   62.05    6.82
   3   3  -2   71.92    7.52
   3   3  -2   53.08   11.54
   3   3  -2   63.26    5.24
   3   3  -2   62.55    5.45
  -3  -3   2   59.23   11.85
   3   3  -2   72.36   10.77
   3   3  -2   76.92   11.07
   3   3  -2   69.18    5.56
   3   3  -1  250.86   15.98
   3   3  -1  327.73   15.53
   3   3  -1  331.93   25.27
   3   3  -1  356.19   25.93
  -3  -3   1  344.08   18.63
   3   3  -1  258.33   28.17
   3   3  -1  293.60   18.53
  -3  -3   1  312.35   30.35
   3   3  -1  260.53   16.08
   3   3   0   19.68    2.93
  -3  -3   0   19.37    3.84
   3   3   0   16.41    3.76
   3   3   0   13.32    5.71
   3   3   0   14.31    2.64
   3   3   0   13.22    3.22
   3   3   0   23.41    3.06
   3   3   0   23.27    5.90
   3   3   0   29.10    6.59
   3   3   1  324.93   15.52
  -3  -3  -1  329.00   18.72
   3   3   1  294.52   15.30
   3   3   1  295.70   15.01
   3   3   1  270.61   23.31
   3   3   1  303.30   24.40
   3   3   1  255.34   18.25
   3   3   1  268.67   16.15
   3   3   1  253.45   27.13
   3   3   2    5.76    3.75
   3   3   2    5.79    1.62
   3   3   2    7.73    1.91
   3   3   2    9.89    2.65
   3   3   2   10.95    3.19
   3   3   2    7.55    3.23
   3   3   2    5.29    1.47
  -3  -3  -2    2.70    5.27
   3   3   2    7.58    3.24
   3   3   3  127.24   11.35
   3   3   3  124.45    7.78
   3   3   3  116.68    7.74
   3   3   3  114.49    7.40
  -3  -3  -3  124.88   23.19
   3   3   3  127.41   11.31
   3   3   4  180.30   13.45
   3   3   4  144.02   11.58
   3   3   4  175.22   13.67
   3   3   4  184.81   13.06
   3   3   5   15.59    3.55
   3   3   5   12.70    3.13
   3   3   6   97.56    8.89
   3   3   7    0.42    1.33
   3   3   7    0.37    0.93
   3   3   8   59.23    5.34
   3   3   8   51.75    4.88
  -3  -4  12    1.27    0.72
   3   4 -12    1.92    0.63
  -3  -4  11    1.80    0.95
  -3  -4  11    1.53    1.09
   3   4 -11    2.82    0.93
   3   4 -11    1.51    0.68
   3   4 -10   12.82    3.20
  -3  -4  10   26.06    3.45
  -3  -4  10   17.53    2.92
  -3  -4  10   19.99    3.52
   3   4 -10   17.27    2.25
   3   4 -10   23.97    2.87
  -3  -4   9    4.43    1.77
  -3  -4   9    4.72    1.69
  -3  -4   9    6.47    2.33
   3   4  -9    1.93    1.12
   3   4  -9    2.79    1.06
   3   4  -9    3.18    1.98
  -3  -4   9    3.17    1.61
   3   4  -8    2.47    0.87
  -3  -4   8    1.27    1.17
  -3  -4   8    2.39    1.42
  -3  -4   8    1.02    1.63
   3   4  -8    0.64    1.03
   3   4  -8    1.55    0.75
   3   4  -8    2.00    1.79
   3   4  -8    0.54    1.61
   3   4  -8    0.52    0.52
   3   4  -7    1.10    0.66
  -3  -4   7    0.92    1.38
  -3  -4   7    0.84    1.16
  -3  -4   7    0.54    1.84
   3   4  -7    1.48    1.32
   3   4  -7    2.27    1.21
   3   4  -7    0.57    1.71
   3   4  -7    4.63    2.33
   3   4  -7    1.93    0.87
   3   4  -7    0.93    1.05
   3   4  -6    1.26    0.75
  -3  -4   6   -0.49    1.10
  -3  -4   6    0.44    0.86
  -3  -4   6    2.24    1.78
   3   4  -6    6.00    3.90
   3   4  -6    4.04    1.82
   3   4  -6   -0.25    0.63
   3   4  -6    2.62    1.28
   3   4  -6   -0.24    0.72
   3   4  -6    4.19    2.36
   3   4  -6    4.12    2.57
   3   4  -5  159.93   10.96
   3   4  -5  160.01    9.73
  -3  -4   5  150.56   11.51
   3   4  -5  134.23   11.28
   3   4  -5  168.82   11.64
   3   4  -5  147.91    9.90
   3   4  -5  155.73    9.59
  -3  -4   5  164.31   20.56
   3   4  -5  175.05   16.91
   3   4  -5  155.90   16.44
   3   4  -5  160.73    9.54
   3   4  -4   13.91    3.24
  -3  -4   4   17.45    3.76
  -3  -4   4   10.70    3.05
   3   4  -4   15.05    2.64
   3   4  -4   13.74    2.50
   3   4  -4   15.62    2.65
  -3  -4   4   15.50    6.20
   3   4  -4   23.83    6.03
   3   4  -4   12.72    2.39
   3   4  -4   21.42    5.71
   3   4  -3    3.19    2.11
   3   4  -3    2.40    1.22
  -3  -4   3    3.28    2.22
  -3  -4   3    3.93    2.07
   3   4  -3    2.74    1.19
   3   4  -3    2.71    1.06
  -3  -4   3    1.93    2.18
   3   4  -3    3.69    2.40
   3   4  -3    2.28    1.16
   3   4  -3    2.46    1.96
  -3  -4   3    2.42    2.73
   3   4  -2   13.74    2.61
   3   4  -2    8.32    1.75
   3   4  -2    9.89    3.23
   3   4  -2    7.79    4.41
  -3  -4   2   11.63    5.36
  -3  -4   2   15.40    3.47
   3   4  -1  115.41    9.39
   3   4  -1  133.26    8.80
   3   4  -1  109.62   17.16
   3   4  -1  133.87   11.08
   3   4  -1  119.15    8.65
  -3  -4   1  115.86   18.05
   3   4  -1  137.19   15.54
   3   4  -1  128.51   15.42
   3   4  -1  138.89    8.80
   3   4   0   72.94    7.19
   3   4   0   92.24    6.98
  -3  -4   0   82.76    8.57
   3   4   0   62.63   12.87
   3   4   0   85.80    6.86
  -3  -4   0   88.83   15.42
   3   4   0   88.38    6.68
   3   4   0  115.00   13.80
   3   4   0   95.18   12.63
   3   4   1   57.92    5.35
  -3  -4  -1   55.47    7.16
   3   4   1   69.06    5.91
   3   4   1   66.83    5.59
   3   4   1   59.14    9.72
   3   4   1   74.34   10.81
  -3  -4  -1   68.52   13.65
   3   4   1   78.45   14.17
   3   4   2   18.69    2.72
   3   4   2   18.21    2.76
   3   4   2   17.53    3.76
   3   4   2   19.50    2.67
   3   4   2   17.10    4.86
   3   4   2   16.09    4.73
   3   4   3   15.79    3.90
   3   4   3   14.69    2.14
   3   4   3   14.20    2.32
   3   4   3   14.10    3.24
   3   4   3   13.40    2.03
   3   4   4   35.74    5.73
   3   4   4   26.02    4.64
   3   4   5   44.64    5.49
   3   4   5   38.83    5.32
   3   4   6    1.50    1.34
   3   4   7   31.70    3.91
   3   4   7   25.70    3.38
  -3  -5  12   10.33    1.73
   3   5 -12   10.10    1.32
  -3  -5  11   21.80    2.93
  -3  -5  11   24.96    2.93
  -3  -5  11   16.93    2.81
   3   5 -11   21.45    2.44
   3   5 -10    0.22    0.54
   3   5 -10    1.54    1.30
  -3  -5  10    1.20    1.01
  -3  -5  10    0.32    0.96
  -3  -5   9  148.08   10.07
  -3  -5   9  123.51    9.27
   3   5  -9  142.40    9.18
   3   5  -9  115.73    9.90
  -3  -5   9  117.13    8.98
  -3  -5   8   32.43    4.59
  -3  -5   8   20.24    3.88
   3   5  -8   30.52    4.22
   3   5  -8   33.27    3.87
   3   5  -8   28.73    2.98
   3   5  -8   33.26    3.12
   3   5  -7   28.49    3.72
   3   5  -7   31.03    3.36
  -3  -5   7   34.05    4.83
  -3  -5   7   31.81    4.78
   3   5  -7   30.47    3.35
   3   5  -7   34.86    3.48
   3   5  -6   14.07    2.44
   3   5  -6   20.93    3.10
  -3  -5   6   10.76    3.03
  -3  -5   6   13.56    3.30
   3   5  -6   18.15    2.76
   3   5  -6   20.03    5.35
   3   5  -6   20.00    5.34
   3   5  -6   16.90    2.60
   3   5  -5  117.38    8.12
  -3  -5   5   88.29    9.00
   3   5  -5  104.71    7.77
   3   5  -5  124.63    8.20
  -3  -5   5   93.21   15.74
   3   5  -5  132.46   14.91
   3   5  -5  130.19   14.80
   3   5  -5  131.40    8.30
   3   5  -4  211.87   12.08
  -3  -5   4  189.26   13.65
  -3  -5   4  167.29   13.72
   3   5  -4  220.50   14.20
   3   5  -4  185.23   11.03
   3   5  -4  207.64   11.98
  -3  -5   4  185.96   22.83
   3   5  -4  228.83   20.68
   3   5  -4  230.75   21.33
   3   5  -3    2.90    1.36
  -3  -5   3    2.27    2.03
  -3  -5   3    1.01    1.28
   3   5  -3    2.42    1.89
   3   5  -3    3.86    3.08
   3   5  -3    2.62    1.28
   3   5  -3    3.72    1.08
  -3  -5   3    2.00    2.26
   3   5  -3    5.32    3.00
   3   5  -3    3.97    2.59
  -3  -5   3    2.48    2.79
  -3  -5   2   80.99    8.71
   3   5  -2   85.58   14.96
   3   5  -2   96.49    8.94
  -3  -5   2   89.69   15.64
   3   5  -2  116.32   14.49
   3   5  -1   60.75    5.60
   3   5  -1   59.98   12.33
   3   5  -1   58.60    6.94
   3   5  -1   59.99    5.67
  -3  -5   1   62.07   12.95
   3   5  -1   53.55    9.67
   3   5  -1   45.64    8.96
   3   5  -1   62.06    5.51
   3   5   0   16.60    2.72
  -3  -5   0   13.03    3.49
   3   5   0    7.73    4.38
   3   5   0   15.10    2.70
  -3  -5   0    8.44    4.78
   3   5   0   23.58    6.11
   3   5   0   10.29    2.17
   3   5   0   14.89    4.87
   3   5   1   28.33    3.51
  -3  -5  -1   33.45    5.50
   3   5   1   28.31    3.63
   3   5   1   25.76    4.26
   3   5   1   34.86    3.70
   3   5   2   38.72    3.70
   3   5   2   36.15    3.89
   3   5   2   32.62    4.58
   3   5   2   39.06    3.65
   3   5   2   28.85    4.97
   3   5   5    4.87    1.73
   3   5   5    6.77    2.16
   3   5   6   12.42    2.49
   3   5   7   12.88    1.93
   3   6 -11    0.87    0.54
   3   6 -11    1.05    1.11
  -3  -6  11    0.62    0.74
  -3  -6  11    0.89    0.71
  -3  -6  11    0.23    0.64
   3   6 -10   26.16    3.86
  -3  -6  10   26.64    3.50
  -3  -6  10   22.86    3.32
  -3  -6  10   26.70    3.42
   3   6  -9   27.93    3.12
   3   6  -9   26.80    3.18
   3   6  -9   26.98    4.16
  -3  -6   9   20.71    3.37
  -3  -6   9   28.60    3.89
  -3  -6   9   23.74    3.84
   3   6  -8   20.27    2.41
  -3  -6   8   17.17    3.37
  -3  -6   8   19.88    3.70
  -3  -6   8   17.90    3.64
   3   6  -8   20.74    3.10
   3   6  -8   18.31    2.71
   3   6  -8   18.78    3.77
   3   6  -8   22.82    2.49
  -3  -6   7   28.84    4.35
  -3  -6   7   24.94    4.17
  -3  -6   7   24.78    4.47
   3   6  -7   22.95    3.72
   3   6  -7   28.23    3.47
   3   6  -7   31.28    3.22
   3   6  -7   28.01    3.15
   3   6  -7   32.28    3.28
  -3  -6   6   73.49    7.63
  -3  -6   6   61.18    7.55
  -3  -6   6   74.19    7.88
   3   6  -6   78.88    7.17
   3   6  -6   83.70    6.34
   3   6  -6   87.43    6.29
   3   6  -6   85.59    6.31
   3   6  -6   98.20    6.52
   3   6  -5  259.29   13.51
   3   6  -5  276.52   14.13
   3   6  -5  258.36   15.42
   3   6  -5  280.63   14.24
  -3  -6   5  228.43   15.82
   3   6  -4   21.97    2.80
   3   6  -4   31.60    3.78
   3   6  -4   26.19    4.17
   3   6  -4   29.81    3.66
  -3  -6   4   21.14    4.34
  -3  -6   4   27.07    4.90
   3   6  -3   56.06    5.28
  -3  -6   3   41.01   11.38
  -3  -6   3   55.28    6.76
  -3  -6   3   49.06    6.92
   3   6  -2   11.23    3.07
   3   6  -2   18.30    2.91
  -3  -6   2    8.07    3.08
  -3  -6   2   12.96    3.39
   3   6  -1  138.12    9.16
  -3  -6   1  127.25   11.19
   3   6  -1  141.43    9.03
   3   6  -1  143.60    8.93
   3   6   0  119.86    8.09
   3   6   0  136.61    8.63
   3   6   0  106.84    8.70
   3   6   0  142.67    8.37
  -3  -6  -1   21.09    4.23
   3   6   1   18.27    2.66
   3   6   1   15.76    2.35
   3   6   1   19.54    2.48
   3   6   2   61.65    4.55
  -3  -6  -2   45.40    5.18
  -3  -6  -2   53.12    6.75
   3   6   2   42.70    5.69
  -3  -6  -3    1.33    1.58
   3   6   3    1.16    1.45
  -3  -6  -4  134.90    9.49
   3   6   4  109.62    8.13
   3   6   5   26.62    3.27
   3   6   6   15.68    2.06
  -3  -7  11    3.21    1.01
  -3  -7  10    0.96    0.72
  -3  -7  10    0.25    0.75
  -3  -7  10    0.24    0.71
   3   7 -10    0.15    0.39
  -3  -7   9   16.79    2.79
  -3  -7   9   19.20    3.00
  -3  -7   9   14.52    2.73
   3   7  -9   16.84    2.20
  -3  -7   8    8.46    2.41
  -3  -7   8    5.26    1.89
  -3  -7   8    6.79    2.05
   3   7  -8   12.43    1.73
   3   7  -8   12.03    1.69
   3   7  -8   13.67    2.05
  -3  -7   7    4.00    1.70
  -3  -7   7    1.94    1.40
  -3  -7   7    8.06    2.23
   3   7  -7    5.61    1.39
   3   7  -7    6.73    1.45
   3   7  -7    6.16    1.31
   3   7  -7    7.24    1.55
   3   7  -6    9.71    1.80
   3   7  -6   11.70    1.91
   3   7  -6   10.16    1.88
  -3  -7   6   11.01    2.83
  -3  -7   6   10.06    2.66
  -3  -7   6   10.04    2.63
   3   7  -5    2.46    1.15
   3   7  -5    3.18    1.56
   3   7  -5    2.78    1.24
  -3  -7   5    0.44    1.12
   3   7  -4   39.75    4.09
  -3  -7   4   28.29    4.85
  -3  -7   4   36.50    5.49
   3   7  -4   42.85    4.21
  -3  -7   3   13.93    3.52
  -3  -7   3    8.09    2.72
   3   7  -3   14.01    2.40
   3   7  -2   22.22    3.03
  -3  -7   2   29.08    4.95
  -3  -7   2   27.93    4.57
  -3  -7   1   16.71    3.87
   3   7  -1   20.23    2.75
   3   7  -1   18.46    2.59
   3   7  -1   21.19    2.85
  -3  -7   0   12.91    3.26
   3   7   0   15.77    2.44
   3   7   0   16.10    2.23
   3   7   0   19.30    2.37
   3   7   1   28.23    4.25
  -3  -7  -1   34.14    4.10
   3   7   1   29.67    3.03
   3   7   2    8.88    2.28
  -3  -7  -2    8.93    1.96
   3   7   3   63.02    5.71
   3   7   3   76.30    6.00
   3   7   4   13.86    2.19
   3   8 -10    6.54    1.05
  -3  -8  10    8.05    1.59
  -3  -8  10    7.52    1.57
   3   8  -9   13.24    1.66
  -3  -8   9   12.99    2.28
  -3  -8   9   14.51    2.44
  -3  -8   9   11.98    2.04
   3   8  -8   13.09    1.67
   3   8  -8   12.77    1.69
  -3  -8   8   10.26    2.27
  -3  -8   8   12.91    2.61
  -3  -8   8   12.09    2.31
  -3  -8   8   15.18    2.97
   3   8  -8   17.27    1.85
   3   8  -7    0.91    0.59
  -3  -8   7    1.00    1.07
  -3  -8   7    0.66    0.83
  -3  -8   7    0.61    0.85
   3   8  -7    0.33    0.46
   3   8  -7    1.28    0.65
   3   8  -6   15.73    2.09
  -3  -8   6   12.58    2.82
  -3  -8   6   17.66    3.12
  -3  -8   6   13.23    2.71
   3   8  -6   14.84    2.12
   3   8  -6   16.16    2.15
   3   8  -5   18.40    2.38
   3   8  -5   16.19    2.31
  -3  -8   5   11.15    2.76
  -3  -8   5   10.85    2.66
   3   8  -4   13.74    2.13
  -3  -8   4    9.19    2.62
   3   8  -3    2.88    1.03
  -3  -8   3    3.24    1.58
   3   8  -3    3.64    1.21
   3   8  -3    1.22    0.76
   3   8  -2   16.13    2.30
  -3  -8   2   15.51    3.17
  -3  -8   2   10.43    2.81
   3   8  -2   17.22    2.28
   3   8  -2   15.37    2.11
   3   8  -1   79.87    5.26
  -3  -8   1   74.88    7.21
  -3  -8   1   62.97    6.90
   3   8  -1   85.03    5.63
  -3  -8   1   96.13    7.48
   3   8  -1   85.26    5.25
   3   8   0    0.16    0.44
   3   8   0    1.81    1.18
  -3  -8   0    0.35    1.03
  -3  -8   0   -0.35    0.98
  -3  -8   0    2.25    1.12
   3   8   1    0.51    1.08
  -3  -8  -1    2.07    1.25
  -3  -8  -1    1.24    1.16
   3   8   1    1.41    1.06
   3   8   2   10.15    1.90
   3   8   2    9.40    1.77
   3   8   3    0.78    0.62
  -3  -9   8    3.53    1.22
   3   9  -7   25.58    2.37
   3   9  -7   27.48    2.29
  -3  -9   7   27.07    3.41
  -3  -9   7   28.86    3.68
   3   9  -7   33.14    2.56
   3   9  -6    2.03    0.67
  -3  -9   6    2.68    1.17
  -3  -9   6    1.12    0.94
   3   9  -6    1.14    0.53
   3   9  -6    1.09    0.61
   3   9  -5   36.83    3.11
   3   9  -5   34.86    3.04
  -3  -9   5   33.38    4.09
  -3  -9   5   26.40    3.62
  -3  -9   5   41.79    4.75
   3   9  -5   40.26    3.15
  -3  -9   4   49.81    5.13
   3   9  -4   46.62    3.65
  -3  -9   4   44.54    4.87
  -3  -9   4   44.15    4.69
   3   9  -3   21.11    2.24
  -3  -9   3   19.08    3.01
  -3  -9   3   19.49    3.11
  -3  -9   3   22.13    3.37
   3   9  -3   26.17    2.39
  -3  -9   2    7.42    1.97
   3   9  -2   11.47    2.27
   3   9  -2   10.91    1.54
   3   9  -2    9.88    1.40
   3   9  -2   10.99    1.40
  -3  -9   1    6.68    1.70
   3   9  -1    6.67    1.12
   3   9  -1    4.18    1.39
   3   9   0   28.94    2.96
   3   9   1    8.53    1.33
  -3 -10   7    2.32    0.97
   3  10  -4    0.14    0.66
  -3 -10   4    0.83    0.86
   3  10  -3   15.40    1.86
  -3 -10   3   16.49    2.00
   4  -8   0   38.30    3.13
   4  -8   1    0.76    0.64
   4  -8   1   -0.19    0.81
   4  -8   2   21.53    2.26
   4  -8   2   27.25    2.91
   4  -8   3    3.49    1.27
   4  -8   4   39.21    3.71
   4  -8   4   46.99    3.92
   4  -8   4   43.67    3.83
   4  -8   5   29.66    2.74
   4  -8   5   30.77    3.04
   4  -8   5   31.54    3.01
   4  -7  -2    4.37    0.98
  -4   7   1   17.09    2.26
   4  -7  -1   19.59    2.05
   4  -7  -1   17.19    2.50
   4  -7  -1   16.06    1.94
  -4   7   0    5.90    1.39
   4  -7   0    9.36    1.55
   4  -7   0    9.56    1.87
  -4   7  -1   29.63    3.09
   4  -7   1   31.47    3.07
   4  -7   2    6.69    1.41
   4  -7   2   10.67    2.16
   4  -7   2    8.68    2.18
   4  -7   3   22.23    2.54
   4  -7   3   23.60    3.33
   4  -7   3   26.32    3.57
   4  -7   4   28.68    2.88
   4  -7   4   38.50    4.16
   4  -7   5   14.14    2.36
   4  -7   5   13.40    2.24
   4  -7   6   32.16    3.43
   4  -7   6   34.18    3.32
   4  -6  -4    1.13    0.80
  -4   6   3   22.62    2.75
  -4   6   3   19.56    2.56
  -4   6   2    6.38    1.74
  -4   6   2    5.27    1.50
   4  -6  -2    6.01    1.19
   4  -6  -2   10.15    1.93
   4  -6  -1   24.16    2.67
   4  -6  -1   28.05    3.59
   4  -6  -1   30.55    3.29
   4  -6   0   11.99    1.90
   4  -6   0   11.52    2.38
   4  -6   1    3.11    1.08
   4  -6   1    5.49    1.72
   4  -6   1    2.47    1.52
   4  -6   2   76.31    6.66
   4  -6   2   79.30    6.71
   4  -6   3    4.35    1.20
   4  -6   3    5.90    1.96
   4  -6   3    5.40    1.98
   4  -6   4   13.20    2.09
   4  -6   4   16.59    2.82
   4  -6   4   16.98    3.04
   4  -6   5   20.38    2.40
   4  -6   5   27.23    3.32
   4  -6   5   27.99    3.64
   4  -6   5   26.56    3.47
   4  -6   6    1.35    1.01
   4  -6   6    0.49    0.95
   4  -5  -6   29.73    2.89
   4  -5  -5    3.63    1.43
  -4   5   5    4.49    1.23
  -4   5   5    4.81    1.23
   4  -5  -3    0.22    0.84
   4  -5  -3    0.15    0.48
   4  -5  -3   -0.33    1.13
   4  -5  -2   35.81    4.07
   4  -5  -2   34.71    3.50
   4  -5  -2   34.15    3.25
   4  -5  -2   37.26    4.53
   4  -5  -1   50.94    5.19
   4  -5  -1   44.94    4.55
   4  -5  -1   48.59    4.14
   4  -5   0  121.44    8.57
   4  -5   0  117.57    7.48
   4  -5   1   44.60    4.99
   4  -5   1   31.31    4.17
   4  -5   1   34.03    3.58
   4  -5   2    6.51    2.09
   4  -5   2    7.73    2.17
   4  -5   3   55.18    5.77
   4  -5   3   54.98    5.77
   4  -5   3   51.65    4.45
   4  -5   4    1.32    1.05
   4  -5   4    0.41    0.77
   4  -5   5   41.13    4.27
   4  -5   5   45.01    4.71
   4  -5   5   46.78    4.82
   4  -5   5   37.79    3.37
   4  -4  -7   14.50    2.09
  -4   4   5   41.02    4.10
   4  -4  -4    0.20    0.84
   4  -4  -4   -0.14    0.45
   4  -4  -3   87.37    6.53
   4  -4  -3   83.17    5.50
   4  -4  -3   77.88    7.37
   4  -4  -2   12.98    2.31
   4  -4  -2   14.80    2.80
   4  -4  -2   10.49    1.88
   4  -4  -2   16.71    3.23
   4  -4  -1   41.46    4.88
   4  -4  -1   34.59    4.19
   4  -4  -1   39.05    3.77
   4  -4   0   29.31    4.30
   4  -4   0   30.26    4.09
   4  -4   0   27.92    3.29
   4  -4   0   27.94    4.14
   4  -4   1   17.66    3.32
   4  -4   1   21.87    3.74
   4  -4   2  117.95    9.45
   4  -4   2  131.36    9.72
   4  -4   2  137.03    9.72
   4  -4   2  121.23    7.89
   4  -4   3    0.38    1.20
   4  -4   3    0.75    1.04
   4  -4   3    0.70    0.79
   4  -4   4   74.74    6.51
   4  -4   4   69.23    6.49
   4  -4   4   76.71    6.57
   4  -4   4   80.01    6.90
   4  -4   4   60.59    4.92
   4  -4   5   33.71    3.82
   4  -4   5   29.43    3.81
   4  -4   5   30.36    2.95
  -4   3   7   12.68    2.07
   4  -3  -7   17.48    2.60
   4  -3  -6   16.89    2.19
   4  -3  -6   17.73    2.98
  -4   3   6   16.00    2.36
  -4   3   6   15.70    2.40
  -4   3   5    7.07    1.75
   4  -3  -4    5.51    1.58
   4  -3  -4    4.80    1.17
   4  -3  -3    0.38    0.86
   4  -3  -3    0.45    1.59
   4  -3  -3    0.31    0.92
   4  -3  -3    0.82    0.76
  -4   3   3    0.33    0.98
   4  -3  -2   41.25    3.95
   4  -3  -2   36.94    4.64
   4  -3  -2   47.84    4.73
   4  -3  -1    1.45    0.91
   4  -3  -1   -0.33    1.23
   4  -3  -1    0.76    1.29
   4  -3  -1    3.22    1.36
   4  -3   0   58.80    5.05
   4  -3   0   64.95    6.53
   4  -3   0   53.97    5.70
   4  -3   1   59.99    6.37
   4  -3   1   68.18    6.61
   4  -3   1   55.93    5.96
   4  -3   2    1.16    1.37
   4  -3   2    0.79    1.48
   4  -3   2    1.23    1.39
   4  -3   2    2.74    1.12
   4  -3   3   26.37    3.97
   4  -3   3   30.29    4.54
   4  -3   3   27.00    3.16
   4  -3   4    1.06    1.26
   4  -3   4    2.28    1.47
   4  -3   4    0.84    0.85
   4  -3   5   20.32    2.93
   4  -3   5   27.24    4.11
   4  -2  -7    0.32    0.54
  -4   2   7   -0.25    0.68
   4  -2  -7    1.36    1.15
   4  -2  -6   12.56    1.97
  -4   2   6   12.77    2.57
   4  -2  -6   13.37    2.75
  -4   2   5    6.20    2.03
   4  -2  -5    5.77    1.66
   4  -2  -5    8.40    1.38
   4  -2  -5    5.62    1.50
  -4   2   4  140.62   10.30
   4  -2  -4  131.39    8.40
   4  -2  -4  144.54    9.25
   4  -2  -4  142.82    8.03
  -4   2   3   79.66    7.70
   4  -2  -3   88.81    7.19
   4  -2  -3   77.23    5.67
   4  -2  -3   76.74    7.89
   4  -2  -3   75.17    7.63
   4  -2  -2    5.53    2.13
   4  -2  -2    5.73    1.54
   4  -2  -1   61.97    6.51
   4  -2  -1   66.16    6.80
   4  -2  -1   60.94    5.93
   4  -2  -1   66.35    5.36
   4  -2  -1   65.10    7.14
   4  -2  -1   58.63    6.56
   4  -2   0    2.92    1.70
   4  -2   0    2.00    1.62
   4  -2   0    0.91    1.26
   4  -2   0    2.05    1.15
   4  -2   0    0.84    1.42
   4  -2   1   73.12    5.83
   4  -2   1   84.67    7.35
   4  -2   2   20.58    2.86
   4  -2   2   18.09    3.51
   4  -2   2   24.76    4.35
   4  -2   2   28.14    4.12
   4  -2   3   21.05    2.77
   4  -2   3   25.20    3.88
   4  -2   3   20.74    4.00
   4  -2   4   17.94    2.39
   4  -2   4   23.37    3.41
   4  -2   4   27.93    4.43
   4  -2   4   25.09    3.99
   4  -2   5   18.97    3.71
   4  -2   5   12.66    2.94
   4  -2   6   46.51    5.17
   4  -1  -9   18.88    2.28
  -4   1   8    0.71    0.71
   4  -1  -8    1.30    0.92
  -4   1   7   60.22    5.74
   4  -1  -7   60.54    4.34
  -4   1   6    6.89    2.12
   4  -1  -6    4.81    1.22
  -4   1   5   86.95    8.04
   4  -1  -5   69.91    5.26
   4  -1  -5   78.40    6.06
   4  -1  -5   72.02    5.01
   4  -1  -4   73.56    6.42
   4  -1  -4   60.85    6.94
   4  -1  -4   68.07    5.14
   4  -1  -3    8.05    2.32
   4  -1  -3    6.94    2.70
   4  -1  -3    9.91    1.88
   4  -1  -2  130.34    9.56
   4  -1  -2  123.98   10.28
   4  -1  -2  117.87   10.14
   4  -1  -2  121.71    7.91
   4  -1  -1    1.17    1.64
   4  -1  -1    1.48    1.47
   4  -1  -1    2.30    1.12
   4  -1   0  177.65   13.10
   4  -1   0  177.47   12.84
   4  -1   0  160.40   12.11
   4  -1   1   21.12    2.89
   4  -1   1   23.10    3.87
   4  -1   1   25.74    4.64
   4  -1   2   27.55    3.25
   4  -1   2   26.51    3.92
   4  -1   2   29.26    4.25
   4  -1   3   22.97    2.82
   4  -1   3   25.73    4.11
   4  -1   3   25.83    3.67
   4  -1   3   21.89    4.25
   4  -1   4   64.27    4.72
   4  -1   4   66.82    5.75
   4  -1   4   76.79    7.77
   4  -1   4   70.08    6.88
   4  -1   5  136.60    9.99
   4  -1   6   17.86    3.09
   4   0  -9    1.95    0.85
  -4   0   8   14.77    2.57
   4   0  -8   15.48    2.47
  -4   0   7   -0.37    0.83
   4   0  -7   -0.61    0.84
  -4   0   6   14.76    3.15
   4   0  -6   18.61    2.64
   4   0  -6   15.69    1.87
   4   0  -5   11.21    2.79
   4   0  -5    7.84    1.51
   4   0  -5    8.71    2.24
  -4   0   5    9.08    2.20
   4   0  -4   16.19    3.58
   4   0  -4   14.48    3.31
   4   0  -4   14.76    2.24
  -4   0   4   13.67    2.89
   4   0  -4   16.03    3.00
   4   0  -3   95.31    6.64
  -4   0   3   95.38    8.34
   4   0  -3   98.12    7.97
   4   0  -2    0.75    0.75
   4   0  -2    0.38    1.34
  -4   0   2   -0.45    1.33
   4   0  -1    6.51    2.42
   4   0  -1    6.22    2.72
   4   0  -1   10.82    2.09
   4   0  -1    7.13    2.64
   4   0  -1    7.47    2.77
   4   0   0    0.77    0.96
   4   0   0   -0.49    1.47
   4   0   1   51.36    4.58
   4   0   1   50.82    5.64
   4   0   1   56.78    7.00
   4   0   1   42.04    4.89
   4   0   1   38.60    5.51
   4   0   2   40.03    3.91
   4   0   2   36.36    4.77
   4   0   2   38.20    4.69
   4   0   3   19.01    2.47
   4   0   3   21.64    3.72
   4   0   3   20.85    3.28
   4   0   4   73.16    7.20
   4   0   4  112.53    9.32
   4   0   5   12.48    2.90
   4   0   5   11.82    3.04
   4   0   6   41.89    4.67
   4   1  -9    1.45    0.91
   4   1  -8   33.85    3.97
  -4  -1   8   32.70    3.51
  -4  -1   7   29.86    3.82
  -4  -1   7   22.98    4.00
  -4  -1   6    3.26    1.64
   4   1  -6    4.23    1.07
   4   1  -6    2.66    1.10
  -4  -1   5   34.28    4.72
   4   1  -5   32.86    4.20
   4   1  -5   35.33    3.37
   4   1  -5   35.21    3.68
  -4  -1   4    1.40    1.29
   4   1  -4    0.99    0.79
   4   1  -4    0.33    1.60
   4   1  -4    0.89    0.79
   4   1  -3   26.59    4.59
   4   1  -3   32.53    3.52
   4   1  -3   34.33    4.48
  -4  -1   3   23.40    4.57
   4   1  -2    3.69    2.04
   4   1  -2    3.04    1.72
   4   1  -2    3.03    1.18
   4   1  -1   19.66    4.08
   4   1   0   76.36    7.07
   4   1   0   79.55    6.02
   4   1   1    0.47    1.19
   4   1   1   -0.35    1.52
   4   1   1    1.15    1.83
   4   1   1    4.48    1.74
   4   1   1    1.94    0.95
   4   1   2   11.11    2.67
   4   1   2   11.32    2.77
   4   1   2   15.82    2.31
   4   1   3    9.87    2.28
   4   1   3   14.79    3.50
   4   1   3   11.97    2.69
   4   1   3   15.71    2.09
   4   1   4   41.64    5.00
   4   1   4   51.21    5.88
   4   1   5    0.33    1.19
   4   1   5    2.12    1.38
   4   1   6    1.34    1.09
  -4  -2   9   15.58    2.38
  -4  -2   8   29.13    3.72
  -4  -2   7   15.52    2.96
   4   2  -7   14.28    2.80
   4   2  -7   19.89    2.46
   4   2  -6   63.90    4.95
   4   2  -6   70.10    6.29
  -4  -2   6   69.66    6.88
   4   2  -6   56.60    4.30
  -4  -2   5    0.96    1.08
   4   2  -5    1.54    1.37
   4   2  -5    2.11    1.56
   4   2  -5    1.00    0.81
   4   2  -5    1.63    0.91
  -4  -2   4  148.25   11.91
   4   2  -4  148.67    9.95
   4   2  -4  148.93    8.60
   4   2  -4  126.09    8.24
  -4  -2   3   22.14    4.56
   4   2  -3   15.44    2.46
   4   2  -3   14.01    3.21
   4   2  -2   58.24    6.89
   4   2  -2   73.86    5.72
   4   2  -2   72.27    6.77
   4   2  -1   39.63    5.93
   4   2  -1   49.34    6.18
   4   2   0   26.61    4.46
   4   2   0   25.50    3.98
   4   2   0   26.03    4.73
  -4  -2   0   32.43    4.90
   4   2   0   29.32    3.35
   4   2   1  123.80   10.73
   4   2   1  126.43    9.05
  -4  -2  -1  130.48   11.02
   4   2   1  132.74    8.01
   4   2   2    1.36    0.70
   4   2   2    1.70    1.31
   4   2   2    1.42    1.69
   4   2   3   41.95    5.30
   4   2   4    9.03    2.24
   4   2   5   29.44    3.58
   4   2   6   24.19    2.75
  -4  -3   8    1.14    0.96
  -4  -3   8    2.00    1.29
   4   3  -8    2.43    0.82
  -4  -3   7   98.46    7.93
  -4  -3   7   77.35    7.41
   4   3  -7   93.71    5.22
   4   3  -7   91.52    5.89
   4   3  -6    0.20    0.54
  -4  -3   6    0.83    1.05
   4   3  -6   -0.17    0.49
   4   3  -5    9.34    1.72
   4   3  -5    8.51    2.41
  -4  -3   5    8.40    2.60
   4   3  -5    7.96    1.65
  -4  -3   4    3.04    2.06
   4   3  -4    2.90    1.69
   4   3  -4    5.27    1.22
   4   3  -4    5.49    2.03
   4   3  -4    2.00    0.95
  -4  -3   3   45.99    5.38
   4   3  -3   36.39    3.90
   4   3  -3   41.31    5.42
   4   3  -3   47.17    5.07
   4   3  -3   40.55    3.96
   4   3  -2   51.70    6.44
   4   3  -2   48.33    5.45
   4   3  -1    4.68    1.93
   4   3  -1    6.24    1.61
  -4  -3   1    4.74    2.14
   4   3   0   34.20    5.18
   4   3   0   36.03    4.43
   4   3   0   44.20    4.04
  -4  -3   0   35.55    5.52
   4   3   1    0.80    0.71
  -4  -3  -1    1.50    1.59
  -4  -3  -2   72.73    7.78
   4   3   2   63.13    6.40
   4   3   3   15.12    2.73
   4   3   4   33.84    3.68
   4   3   5   24.00    2.67
   4   4  -9   15.39    1.96
   4   4  -8    0.77    0.52
   4   4  -8    0.41    0.83
  -4  -4   8    1.44    0.90
  -4  -4   8    1.31    0.84
   4   4  -7    8.11    1.39
   4   4  -7    6.90    1.85
   4   4  -7    8.57    1.27
  -4  -4   7    9.09    2.19
   4   4  -6    1.10    0.62
  -4  -4   6    0.38    1.05
   4   4  -6    1.25    0.61
   4   4  -6    0.90    1.12
  -4  -4   5   -0.91    0.84
  -4  -4   5   -0.43    1.18
   4   4  -5   -0.19    0.67
   4   4  -5    0.33    0.99
   4   4  -4   21.17    3.59
   4   4  -4   22.21    2.72
   4   4  -4   23.56    2.77
  -4  -4   4   20.20    3.55
  -4  -4   4   17.64    3.82
   4   4  -3    0.22    0.84
   4   4  -3    0.66    0.61
  -4  -4   3    0.79    1.18
   4   4  -2    2.66    1.61
  -4  -4   2    4.28    1.93
  -4  -4   1    3.60    1.68
   4   4  -1    2.14    0.97
   4   4  -1    1.25    1.17
   4   4  -1    3.58    1.85
   4   4  -1    4.60    1.34
   4   4   0   32.57    3.99
   4   4   0   40.14    3.54
   4   4   0   39.21    4.75
  -4  -4   0   41.15    5.58
   4   4   1   24.11    3.25
   4   4   1   24.39    2.45
  -4  -4  -1   29.60    4.86
   4   4   1   27.94    3.83
   4   4   2    2.39    1.15
  -4  -4  -2    3.37    1.71
   4   4   2    4.04    1.54
  -4  -4  -3    3.35    1.73
   4   4   3    4.24    1.17
   4   4   4    0.14    0.48
  -4  -5   8   23.35    2.96
  -4  -5   7   24.72    3.33
   4   5  -7   22.45    1.99
   4   5  -7   25.26    2.87
   4   5  -6   18.78    2.03
  -4  -5   6   16.30    2.53
  -4  -5   6   17.57    3.08
   4   5  -5    2.78    0.85
   4   5  -5    2.10    0.84
  -4  -5   5    1.72    1.02
  -4  -5   5    2.97    1.73
  -4  -5   4   28.51    3.93
  -4  -5   4   30.24    4.58
   4   5  -4   32.80    3.14
   4   5  -4   35.77    4.16
   4   5  -4   33.63    4.20
   4   5  -4   30.00    3.02
  -4  -5   3   98.23    8.25
   4   5  -3  109.92    6.68
   4   5  -2    0.73    0.62
   4   5  -2    0.31    0.97
   4   5  -2    0.18    0.57
   4   5  -1   22.76    3.19
   4   5  -1   29.16    2.77
   4   5  -1   31.50    3.68
  -4  -5   1   26.07    4.19
   4   5   0    4.01    1.40
   4   5   0    4.52    1.00
  -4  -5   0    7.65    2.25
   4   5   0    7.20    1.80
   4   5   1    8.92    1.79
  -4  -5  -1    9.30    2.40
   4   5   1    7.09    1.47
   4   5   2    7.32    1.46
   4   6  -6   10.59    1.33
  -4  -6   5   20.56    2.83
  -4  -6   5   16.58    3.08
   4   6  -5   16.10    2.47
   4   6  -5   20.79    2.10
   4   6  -5   24.96    2.28
  -4  -6   4   47.42    5.37
  -4  -6   4   50.89    5.08
   4   6  -4   58.16    3.94
   4   6  -4   61.47    4.04
   4   6  -3    4.74    1.33
  -4  -6   3    7.05    1.88
  -4  -6   3    5.66    1.89
   4   6  -2   11.52    2.07
   4   6  -2   14.07    1.73
   4   6  -2   14.44    1.73
   4   6  -1    4.04    1.34
   4   6   0   20.19    2.50
  -4  -6   0   23.89    2.92
   4   6   1   19.85    2.09
  -4  -7   6    1.40    0.88
   4   7  -4    0.14    0.50
   4   7  -3    6.58    1.31
   4   7  -2    1.45    0.72
  -4  -7   2    0.87    0.90
   5  -2  -1    1.71    0.69
   5  -1  -2    2.26    0.71
   5  -1  -1   23.12    2.17
   5  -1   0    0.11    0.51
   0   0   0    0.00    0.00


TITL gro21_18_autored in P-1
REM P-1 (#2 in standard setting)
CELL 1.54184   3.974566  10.798371  12.442558 111.0562  93.3270  93.4905
ZERR    1.00   0.000087   0.000206   0.000256   0.0018   0.0017   0.0017
LATT  1
SFAC C H N Cl I
UNIT 18.00 10.00 2.00 5.00 1.00
REM  CrysAlisPro recorded range (K): Min=290.0; max=290.0; aver:290.0
TEMP 17
SIZE 0.07 0.11 0.14
TREF
HKLF 4
END
_computing_structure_solution     'SHELXT 2018/2 (Sheldrick, 2018)'
;
_shelx_hkl_checksum              64559
_olex2_exptl_crystal_mounting_method 'MiTeGen 75 micro MicroLoop'
_olex2_submission_original_sample_id gro21_18
_olex2_submission_special_instructions 'No special instructions were received'
_oxdiff_exptl_absorpt_empirical_details
;
Empirical correction (ABSPACK) includes:
- Absorption correction using spherical harmonics
- Frame scaling
;
_oxdiff_exptl_absorpt_empirical_full_max 2.145
_oxdiff_exptl_absorpt_empirical_full_min 0.568
loop_
_space_group_symop_operation_xyz
'x, y, z'
'-x, -y, -z'
loop_
_atom_site_label
_atom_site_type_symbol
_atom_site_fract_x
_atom_site_fract_y
_atom_site_fract_z
_atom_site_U_iso_or_equiv
_atom_site_adp_type
_atom_site_occupancy
_atom_site_site_symmetry_order
_atom_site_calc_flag
_atom_site_refinement_flags_posn
_atom_site_refinement_flags_adp
_atom_site_refinement_flags_occupancy
_atom_site_disorder_assembly
_atom_site_disorder_group
I1 I 1.1855(6) 0.7187(2) 0.7854(2) 0.0456(3) Uani 0.5 1 d . . P A 2
Cl1 Cl 1.195(3) 0.7356(9) 0.8044(8) 0.0540(16) Uani 0.5 1 d . . P A 1
Cl2 Cl 1.2695(2) 1.01567(9) 0.77501(6) 0.0636(2) Uani 1 1 d . . . . .
Cl3 Cl 1.1002(2) 1.27224(9) 0.96738(7) 0.0698(2) Uani 1 1 d . . . . .
C1 C 1.0780(7) 0.8836(3) 0.9119(2) 0.0468(6) Uani 1 1 d . . . . .
C2 C 1.1205(7) 1.0064(3) 0.8996(2) 0.0476(6) Uani 1 1 d . . . . .
C3 C 1.0421(7) 1.1222(3) 0.9862(2) 0.0478(6) Uani 1 1 d . . . . .
N1 N 0.6393(7) 0.5406(2) 0.3621(2) 0.0584(6) Uani 1 1 d . . . . .
C4 C 0.7294(8) 0.6292(3) 0.4680(3) 0.0542(7) Uani 1 1 d . . . . .
H4 H 0.840235 0.599756 0.520988 0.065 Uiso 1 1 calc R U . . .
C5 C 0.6687(7) 0.7618(3) 0.5040(2) 0.0469(6) Uani 1 1 d . . . . .
H5 H 0.737967 0.819199 0.579036 0.056 Uiso 1 1 calc R U . . .
C6 C 0.5021(7) 0.8088(2) 0.4264(2) 0.0406(5) Uani 1 1 d . . . . .
C7 C 0.4044(8) 0.7165(3) 0.3168(3) 0.0524(7) Uani 1 1 d . . . . .
H7 H 0.289726 0.742267 0.262063 0.063 Uiso 1 1 calc R U . . .
C8 C 0.4782(9) 0.5862(3) 0.2895(3) 0.0614(8) Uani 1 1 d . . . . .
H8 H 0.410485 0.526250 0.215245 0.074 Uiso 1 1 calc R U . . .
C9 C 0.4275(7) 0.9483(2) 0.4559(2) 0.0416(5) Uani 1 1 d . . . . .
H9 H 0.262947 0.965481 0.408090 0.050 Uiso 1 1 calc R U . . .
loop_
_atom_site_aniso_label
_atom_site_aniso_U_11
_atom_site_aniso_U_22
_atom_site_aniso_U_33
_atom_site_aniso_U_23
_atom_site_aniso_U_13
_atom_site_aniso_U_12
I1 0.0522(4) 0.0399(5) 0.0345(7) 0.0012(6) 0.0010(4) 0.0065(3)
Cl1 0.0543(16) 0.046(2) 0.038(3) -0.0129(13) -0.0002(14) 0.0116(12)
Cl2 0.0614(4) 0.0901(5) 0.0420(4) 0.0286(4) 0.0071(3) -0.0038(4)
Cl3 0.0853(6) 0.0690(5) 0.0595(5) 0.0315(4) -0.0007(4) -0.0051(4)
C1 0.0377(14) 0.0624(16) 0.0338(13) 0.0115(12) -0.0036(10) -0.0006(11)
C2 0.0387(14) 0.0670(17) 0.0363(13) 0.0203(12) -0.0039(11) -0.0046(12)
C3 0.0414(14) 0.0617(16) 0.0382(14) 0.0183(12) -0.0058(11) -0.0037(12)
N1 0.0737(17) 0.0364(11) 0.0617(16) 0.0118(11) 0.0125(13) 0.0094(11)
C4 0.0622(18) 0.0445(14) 0.0600(18) 0.0222(13) 0.0069(14) 0.0141(12)
C5 0.0561(16) 0.0391(12) 0.0435(14) 0.0119(11) 0.0044(12) 0.0081(11)
C6 0.0427(13) 0.0364(11) 0.0435(13) 0.0143(10) 0.0096(11) 0.0055(9)
C7 0.0622(18) 0.0450(14) 0.0469(15) 0.0145(12) -0.0018(13) 0.0017(12)
C8 0.082(2) 0.0395(14) 0.0529(17) 0.0064(13) 0.0039(16) -0.0022(14)
C9 0.0440(14) 0.0403(12) 0.0429(13) 0.0164(10) 0.0074(11) 0.0092(10)
loop_
_atom_type_symbol
_atom_type_description
_atom_type_scat_dispersion_real
_atom_type_scat_dispersion_imag
_atom_type_scat_source
C C 0.0181 0.0091 'International Tables Vol C Tables 4.2.6.8 and 6.1.1.4'
H H 0.0000 0.0000 'International Tables Vol C Tables 4.2.6.8 and 6.1.1.4'
Cl Cl 0.3639 0.7018 'International Tables Vol C Tables 4.2.6.8 and 6.1.1.4'
I I -0.3257 6.8362 'International Tables Vol C Tables 4.2.6.8 and 6.1.1.4'
N N 0.0311 0.0180 'International Tables Vol C Tables 4.2.6.8 and 6.1.1.4'
loop_
_exptl_crystal_face_index_h
_exptl_crystal_face_index_k
_exptl_crystal_face_index_l
_exptl_crystal_face_perp_dist
0 2 -1 0.0379
-1 7 -4 0.0348
2 0 3 0.0594
-1 -7 2 0.0169
1 0 -8 0.0617
2 -2 -1 0.0692
2 -2 6 0.0622
0 -1 8 0.0427
-2 2 2 0.0463
2 0 5 0.0529
0 4 4 0.0360
-1 5 1 0.0285
-2 3 -4 0.0676
2 2 -4 0.0528
0 4 -8 0.0441
2 3 -2 0.0576
loop_
_geom_angle_atom_site_label_1
_geom_angle_atom_site_label_2
_geom_angle_atom_site_label_3
_geom_angle
_geom_angle_site_symmetry_1
_geom_angle_site_symmetry_3
_geom_angle_publ_flag
C2 C1 I1 120.1(2) . . ?
C2 C1 Cl1 121.4(3) . . ?
C2 C1 C3 119.0(3) . 2_777 ?
C3 C1 I1 120.9(2) 2_777 . ?
C3 C1 Cl1 119.6(4) 2_777 . ?
C1 C2 Cl2 119.6(2) . . ?
C1 C2 C3 120.9(2) . . ?
C3 C2 Cl2 119.4(2) . . ?
C1 C3 Cl3 120.6(2) 2_777 . ?
C2 C3 Cl3 119.3(2) . . ?
C2 C3 C1 120.1(3) . 2_777 ?
C8 N1 C4 116.1(2) . . ?
N1 C4 H4 117.9 . . ?
N1 C4 C5 124.2(3) . . ?
C5 C4 H4 117.9 . . ?
C4 C5 H5 120.4 . . ?
C4 C5 C6 119.1(3) . . ?
C6 C5 H5 120.4 . . ?
C5 C6 C9 123.4(2) . . ?
C7 C6 C5 116.7(2) . . ?
C7 C6 C9 119.9(2) . . ?
C6 C7 H7 120.2 . . ?
C8 C7 C6 119.5(3) . . ?
C8 C7 H7 120.2 . . ?
N1 C8 C7 124.3(3) . . ?
N1 C8 H8 117.8 . . ?
C7 C8 H8 117.8 . . ?
C6 C9 H9 116.9 . . ?
C9 C9 C6 126.1(3) 2_676 . ?
C9 C9 H9 116.9 2_676 . ?
loop_
_geom_bond_atom_site_label_1
_geom_bond_atom_site_label_2
_geom_bond_distance
_geom_bond_site_symmetry_2
_geom_bond_publ_flag
I1 C1 1.997(4) . ?
Cl1 C1 1.784(10) . ?
Cl2 C2 1.725(3) . ?
Cl3 C3 1.722(3) . ?
C1 C2 1.390(4) . ?
C1 C3 1.401(4) 2_777 ?
C2 C3 1.393(4) . ?
N1 C4 1.333(4) . ?
N1 C8 1.326(4) . ?
C4 H4 0.9300 . ?
C4 C5 1.379(4) . ?
C5 H5 0.9300 . ?
C5 C6 1.395(4) . ?
C6 C7 1.385(4) . ?
C6 C9 1.471(3) . ?
C7 H7 0.9300 . ?
C7 C8 1.378(4) . ?
C8 H8 0.9300 . ?
C9 C9 1.323(5) 2_676 ?
C9 H9 0.9300 . ?
loop_
_geom_torsion_atom_site_label_1
_geom_torsion_atom_site_label_2
_geom_torsion_atom_site_label_3
_geom_torsion_atom_site_label_4
_geom_torsion
_geom_torsion_site_symmetry_1
_geom_torsion_site_symmetry_2
_geom_torsion_site_symmetry_3
_geom_torsion_site_symmetry_4
_geom_torsion_publ_flag
I1 C1 C2 Cl2 -0.5(3) . . . . ?
I1 C1 C2 C3 179.1(2) . . . . ?
Cl1 C1 C2 Cl2 3.2(5) . . . . ?
Cl1 C1 C2 C3 -177.2(4) . . . . ?
Cl2 C2 C3 Cl3 -0.7(3) . . . . ?
Cl2 C2 C3 C1 -179.8(2) . . . 2_777 ?
C1 C2 C3 Cl3 179.8(2) . . . . ?
C1 C2 C3 C1 0.7(5) . . . 2_777 ?
C3 C1 C2 Cl2 179.8(2) 2_777 . . . ?
C3 C1 C2 C3 -0.7(4) 2_777 . . . ?
N1 C4 C5 C6 0.2(5) . . . . ?
C4 N1 C8 C7 0.6(5) . . . . ?
C4 C5 C6 C7 0.7(4) . . . . ?
C4 C5 C6 C9 -179.6(3) . . . . ?
C5 C6 C7 C8 -0.9(4) . . . . ?
C5 C6 C9 C9 17.9(5) . . . 2_676 ?
C6 C7 C8 N1 0.2(5) . . . . ?
C7 C6 C9 C9 -162.3(3) . . . 2_676 ?
C8 N1 C4 C5 -0.8(5) . . . . ?
C9 C6 C7 C8 179.4(3) . . . . ?
loop_
_exptl_oxdiff_crystal_face_indexfrac_h
_exptl_oxdiff_crystal_face_indexfrac_k
_exptl_oxdiff_crystal_face_indexfrac_l
_exptl_oxdiff_crystal_face_x
_exptl_oxdiff_crystal_face_y
_exptl_oxdiff_crystal_face_z
0.0006 1.9998 -1.0039 -0.2632 0.0476 -0.1032
-0.6642 6.7742 -3.8958 -0.7941 0.1047 -0.5986
2.2664 0.3038 2.8167 -0.4139 0.0533 0.9088
-0.5092 -6.7514 2.3570 0.9844 -0.1292 0.1194
0.6378 0.3158 -7.5551 0.1261 0.9597 -0.2513
2.4301 -2.2752 -1.1782 0.0808 0.6232 0.7778
1.7491 -2.4498 5.5984 -0.0351 -0.2597 0.9651
-0.2508 -0.7324 7.7980 -0.1194 -0.9077 0.4022
-2.3478 2.0548 2.2755 -0.0946 -0.7271 -0.6800
1.6250 0.1551 5.3418 -0.3976 -0.3387 0.8528
-0.0289 4.1055 4.3683 -0.7497 -0.6409 0.1649
-1.4385 5.3043 1.1832 -0.6505 -0.5570 -0.5164
-2.0628 3.2286 -4.1135 -0.0914 0.0109 -0.9958
2.1695 2.1758 -4.4766 -0.4378 0.8062 0.3980
-0.0911 4.4047 -7.6669 -0.3876 0.7117 -0.5859
2.3276 2.5894 -2.2178 -0.5932 0.5615 0.5769
