#------------------------------------------------------------------------------
#$Date: 2021-09-06 13:25:44 +0300 (Mon, 06 Sep 2021) $
#$Revision: 268655 $
#$URL: file:///home/coder/svn-repositories/cod/cif/7/24/31/7243196.cif $
#------------------------------------------------------------------------------
#
# This file is available in the Crystallography Open Database (COD),
# http://www.crystallography.net/
#
# All data on this site have been placed in the public domain by the
# contributors.
#
data_7243196
loop_
_publ_author_name
'Kusumoto, Sotaro'
'Sugimoto, Akira'
'Kosumi, Daisuke'
'Kim, Yang'
'Sekine, Yoshihiro'
'Nakamura, Masaaki'
'Hayami, Shinya'
_publ_section_title
;
 A plastically bendable and polar organic crystal
;
_journal_issue                   33
_journal_name_full               CrystEngComm
_journal_page_first              5560
_journal_page_last               5563
_journal_paper_doi               10.1039/D1CE00724F
_journal_volume                  23
_journal_year                    2021
_chemical_formula_moiety         'C8 H5 Cl3 O'
_chemical_formula_sum            'C8 H5 Cl3 O'
_chemical_formula_weight         223.47
_space_group_crystal_system      monoclinic
_space_group_IT_number           7
_space_group_name_Hall           'P -2yc'
_space_group_name_H-M_alt        'P 1 c 1'
_atom_sites_solution_hydrogens   geom
_atom_sites_solution_primary     dual
_audit_creation_date             2021-05-12
_audit_creation_method
;
Olex2 1.3
(compiled 2020.11.12 svn.r5f609507 for OlexSys, GUI svn.r6272)
;
_cell_angle_alpha                90
_cell_angle_beta                 97.392(19)
_cell_angle_gamma                90
_cell_formula_units_Z            2
_cell_length_a                   3.6879(8)
_cell_length_b                   11.923(2)
_cell_length_c                   9.1300(18)
_cell_measurement_reflns_used    2106
_cell_measurement_temperature    150
_cell_measurement_theta_max      29.7890
_cell_measurement_theta_min      2.7570
_cell_volume                     398.12(14)
_computing_cell_refinement       'CrysAlisPro 1.171.41.95a (Rigaku OD, 2021)'
_computing_data_collection       'CrysAlisPro 1.171.41.95a (Rigaku OD, 2021)'
_computing_data_reduction        'CrysAlisPro 1.171.41.95a (Rigaku OD, 2021)'
_computing_molecular_graphics    'Olex2 1.3 (Dolomanov et al., 2009)'
_computing_publication_material  'Olex2 1.3 (Dolomanov et al., 2009)'
_computing_structure_refinement  'SHELXL 2018/3 (Sheldrick, 2015)'
_computing_structure_solution    'SHELXT  (Sheldrick, 2015)'
_diffrn_ambient_temperature      150
_diffrn_detector                 'Hybrid Pixel Array Detector'
_diffrn_detector_area_resol_mean 10.0000
_diffrn_measured_fraction_theta_full 0.993
_diffrn_measured_fraction_theta_max 0.994
_diffrn_measurement_details
;
List of Runs (angles in degrees, time in seconds):

  # Type    Start    End  Width  t~exp~   \w     \q     \k     \f   Frames
--------------------------------------------------------------------------
  1  \w    -16.00  64.00   0.50   45.00    --   20.00  54.00-120.00  160
  2  \w     69.00 109.00   0.50   45.00    --   20.00  54.00-120.00   80
  3  \w    -74.00  62.00   0.50   45.00    --   20.00  54.00   0.00  272
  4  \w     77.00 103.00   0.50   45.00    --   20.00  54.00   0.00   52
  5  \w    -24.00   1.00   0.50   45.00    --   20.00  54.00  90.00   50
  6  \w     23.00  54.00   0.50   45.00    --   20.00  54.00  90.00   62
  7  \w    -66.00 -41.00   0.50   45.00    --   20.00  54.00-180.00   50
  8  \w      8.00  33.00   0.50   45.00    --   20.00  54.00-180.00   50
  9  \w     74.00  99.00   0.50   45.00    --   20.00  54.00-180.00   50
 10  \w    -73.00 -35.00   0.50   45.00    --   20.00  54.00 -90.00   76
 11  \w    -72.00 -45.00   0.50   45.00    --   20.00  54.00-120.00   54
;
_diffrn_measurement_device       'two-circle diffractometer'
_diffrn_measurement_device_type  'XtaLAB Mini II'
_diffrn_measurement_method       '\w scans'
_diffrn_orient_matrix_type
'CrysAlisPro convention (1999,Acta A55,543-557)'
_diffrn_orient_matrix_UB_11      0.0293397000
_diffrn_orient_matrix_UB_12      -0.0578285000
_diffrn_orient_matrix_UB_13      -0.0126198000
_diffrn_orient_matrix_UB_21      0.0248537000
_diffrn_orient_matrix_UB_22      -0.0096258000
_diffrn_orient_matrix_UB_23      0.0773430000
_diffrn_orient_matrix_UB_31      -0.1899316000
_diffrn_orient_matrix_UB_32      -0.0101405000
_diffrn_orient_matrix_UB_33      -0.0020983000
_diffrn_radiation_monochromator  graphite
_diffrn_radiation_probe          x-ray
_diffrn_radiation_type           'Mo K\a'
_diffrn_radiation_wavelength     0.71073
_diffrn_reflns_av_R_equivalents  0.0510
_diffrn_reflns_av_unetI/netI     0.0532
_diffrn_reflns_Laue_measured_fraction_full 0.993
_diffrn_reflns_Laue_measured_fraction_max 0.994
_diffrn_reflns_limit_h_max       4
_diffrn_reflns_limit_h_min       -4
_diffrn_reflns_limit_k_max       14
_diffrn_reflns_limit_k_min       -14
_diffrn_reflns_limit_l_max       11
_diffrn_reflns_limit_l_min       -11
_diffrn_reflns_number            2421
_diffrn_reflns_point_group_measured_fraction_full 0.868
_diffrn_reflns_point_group_measured_fraction_max 0.855
_diffrn_reflns_theta_full        25.242
_diffrn_reflns_theta_max         26.364
_diffrn_reflns_theta_min         2.825
_diffrn_source                   'fine-focus sealed X-ray tube'
_diffrn_source_type              'Rigaku (Mo) X-ray Source'
_exptl_absorpt_coefficient_mu    1.086
_exptl_absorpt_correction_T_max  0.913
_exptl_absorpt_correction_T_min  0.711
_exptl_absorpt_correction_type   analytical
_exptl_absorpt_process_details
;
CrysAlisPro 1.171.41.95a (Rigaku Oxford Diffraction, 2021)
Analytical numeric absorption correction using a multifaceted crystal
model based on expressions derived by R.C. Clark & J.S. Reid.
(Clark, R. C. & Reid, J. S. (1995). Acta Cryst. A51, 887-897)
Empirical absorption correction using spherical harmonics,
implemented in SCALE3 ABSPACK scaling algorithm.
;
_exptl_crystal_colour            'clear colourless'
_exptl_crystal_colour_lustre     clear
_exptl_crystal_colour_primary    colourless
_exptl_crystal_density_diffrn    1.864
_exptl_crystal_description       plate
_exptl_crystal_F_000             224
_exptl_crystal_size_max          0.502
_exptl_crystal_size_mid          0.197
_exptl_crystal_size_min          0.092
_refine_diff_density_max         0.362
_refine_diff_density_min         -0.437
_refine_diff_density_rms         0.088
_refine_ls_abs_structure_details
;
 Flack x determined using 524 quotients [(I+)-(I-)]/[(I+)+(I-)]
 (Parsons, Flack and Wagner, Acta Cryst. B69 (2013) 249-259).
;
_refine_ls_abs_structure_Flack   0.09(14)
_refine_ls_extinction_method     none
_refine_ls_goodness_of_fit_ref   1.044
_refine_ls_hydrogen_treatment    constr
_refine_ls_matrix_type           full
_refine_ls_number_parameters     110
_refine_ls_number_reflns         1403
_refine_ls_number_restraints     2
_refine_ls_restrained_S_all      1.043
_refine_ls_R_factor_all          0.0427
_refine_ls_R_factor_gt           0.0414
_refine_ls_shift/su_max          0.000
_refine_ls_shift/su_mean         0.000
_refine_ls_structure_factor_coef Fsqd
_refine_ls_weighting_details
'w=1/[\s^2^(Fo^2^)+(0.0655P)^2^] where P=(Fo^2^+2Fc^2^)/3'
_refine_ls_weighting_scheme      calc
_refine_ls_wR_factor_gt          0.1016
_refine_ls_wR_factor_ref         0.1022
_reflns_Friedel_coverage         0.707
_reflns_Friedel_fraction_full    0.740
_reflns_Friedel_fraction_max     0.715
_reflns_number_gt                1329
_reflns_number_total             1403
_reflns_threshold_expression     'I > 2\s(I)'
_cod_data_source_file            d1ce00724f1.cif
_cod_data_source_block           201226cl3acetophenon_autored
_cod_depositor_comments          'Adding full bibliography for 7243196.cif.'
_cod_original_cell_volume        398.13(14)
_cod_database_code               7243196
_shelx_shelxl_version_number     2018/3
_chemical_oxdiff_formula         'Cl C O'
_chemical_oxdiff_usercomment     -120
_shelx_space_group_comment
;
The symmetry employed for this shelxl refinement is uniquely defined
by the following loop, which should always be used as a source of
symmetry information in preference to the above space-group names.
They are only intended as comments.
;
_reflns_odcompleteness_completeness 99.31
_reflns_odcompleteness_iscentric 1
_reflns_odcompleteness_theta     26.32
_olex2_refinement_description
;
1. Fixed Uiso
 At 1.2 times of:
  All C(H) groups
 At 1.5 times of:
  All C(H,H,H) groups
2.a Aromatic/amide H refined with riding coordinates:
 C2(H2), C3(H3)
2.b Idealised Me refined as rotating group:
 C8(H8A,H8B,H8C)
;
_shelx_res_file
;
TITL 201226cl3acetophenon_autored_a.res in Pc
    201226cl3acetophenon_autored.res
    created by SHELXL-2018/3 at 17:10:02 on 12-May-2021
REM Old TITL 201226Cl3acetophenon_autored in Pc
REM SHELXT solution in Pc: R1 0.097, Rweak 0.026, Alpha 0.000
REM <I/s> 0.728 for 40 systematic absences, Orientation as input
REM Flack x = -0.058 ( 0.125 ) from 534 Parsons' quotients
REM Formula found by SHELXT: C8 O Cl3
CELL 0.71073 3.6879 11.9233 9.13 90 97.392 90
ZERR 2 0.0008 0.0022 0.0018 0 0.019 0
LATT -1
SYMM +X,-Y,0.5+Z
SFAC C H Cl O
UNIT 16 10 6 2

L.S. 10
PLAN  5
TEMP -123.15
CONF
list 4
MORE -1
BOND $H
fmap 2
acta
REM <olex2.extras>
REM <HklSrc "%.\\201226Cl3acetophenon_autored.hkl">
REM </olex2.extras>

WGHT    0.065500
FVAR       1.83064
CL01  3    0.220409    0.582297    0.444418    11.00000    0.03576    0.01699 =
         0.02674   -0.00304    0.00292   -0.00422
CL02  3    0.903516    0.842514    0.851041    11.00000    0.03678    0.02890 =
         0.01941   -0.00477   -0.00441    0.00237
CL03  3    0.569094    0.616717    0.757491    11.00000    0.04610    0.02131 =
         0.02211    0.00524    0.00290    0.00004
O004  4    0.094361    0.854012    0.180787    11.00000    0.05618    0.02960 =
         0.02345    0.00054   -0.01004    0.01483
C1    1    0.412841    0.790369    0.393042    11.00000    0.02671    0.01768 =
         0.02004    0.00136    0.00378    0.00320
C7    1    0.274281    0.780843    0.235923    11.00000    0.02929    0.02062 =
         0.02230   -0.00195   -0.00043   -0.00261
C5    1    0.567048    0.721024    0.634474    11.00000    0.02656    0.01937 =
         0.01752    0.00288    0.00295    0.00282
C8    1    0.379384    0.686143    0.149449    11.00000    0.03616    0.03537 =
         0.02256   -0.00151    0.00359    0.00168
AFIX 137
H8A   2    0.181988    0.630562    0.138452    11.00000   -1.50000
H8B   2    0.602467    0.651812    0.200105    11.00000   -1.50000
H8C   2    0.424317    0.712423    0.051686    11.00000   -1.50000
AFIX   0
C2    1    0.546239    0.891849    0.440262    11.00000    0.03456    0.01922 =
         0.02338    0.00133    0.00225   -0.00118
AFIX  43
H2    2    0.530763    0.952878    0.372854    11.00000   -1.20000
AFIX   0
C6    1    0.418076    0.706114    0.493346    11.00000    0.02345    0.01639 =
         0.02030   -0.00346    0.00287    0.00022
C4    1    0.710340    0.822254    0.677394    11.00000    0.02226    0.02280 =
         0.01886   -0.00059    0.00036    0.00265
C3    1    0.699297    0.908031    0.579724    11.00000    0.03159    0.01701 =
         0.02394   -0.00017    0.00071   -0.00218
AFIX  43
H3    2    0.799249    0.979043    0.609889    11.00000   -1.20000
AFIX   0
HKLF 4




REM  201226cl3acetophenon_autored_a.res in Pc
REM wR2 = 0.1022, GooF = S = 1.044, Restrained GooF = 1.043 for all data
REM R1 = 0.0414 for 1329 Fo > 4sig(Fo) and 0.0427 for all 1403 data
REM 110 parameters refined using 2 restraints

END

WGHT      0.0649      0.0000

REM Highest difference peak  0.362,  deepest hole -0.437,  1-sigma level  0.088
Q1    1   0.7534  0.5256  0.8380  11.00000  0.05    0.36
Q2    1   0.2074  0.4311  0.4583  11.00000  0.05    0.34
Q3    1   0.7459  0.7137  0.8543  11.00000  0.05    0.32
Q4    1   0.0475  0.4737  0.3592  11.00000  0.05    0.31
Q5    1   0.0550  0.8051  0.5283  11.00000  0.05    0.29
;
_shelx_res_checksum              6115
_shelx_hkl_file
;
  -4   0   4 708.302 43.8608   2
  -4   0   5 2.26212 11.0088   2
  -4   0   6 207.567 25.0418   2
  -4   1  -1 129.221 20.6971   4
  -4  -1   4 108.572 18.2313   2
  -4   1   5 81.0413 18.1126   2
  -4  -1   5 71.6894 16.1782   2
  -4   1   6 43.9893 14.9703   2
  -4  -1   6 37.3964 13.7134   2
  -4   2  -3 70.5016 18.8631   4
  -4   2  -2 174.779 25.4550   4
  -4   2  -1 438.721 35.1631   4
  -4   2   0 71.5682 15.9051   4
  -4  -2   4 13.5097 10.5992   2
  -4  -2   5 139.520 19.8937   2
  -4   2   6 114.846 21.9126   2
  -4  -2   6 125.739 20.2726   2
  -4   3  -3 185.399 27.4799   4
  -4   3  -2 320.697 32.2771   4
  -4   3  -1 104.311 19.7729   4
  -4   3   0 131.398 20.0541   4
  -4  -3   5 199.697 22.1641   2
  -4  -3   6 60.1352 15.7005   2
  -4   4  -3 46.2540 17.0179   4
  -4   4  -2 56.3746 17.4025   4
  -4   4  -1 296.971 31.2305   4
  -4   4   0 7.71877 11.5200   4
  -4  -4   6 12.4291 11.6963   2
  -4   5  -2 38.9018 17.4568   4
  -4   5  -1 72.8079 20.0819   4
  -4   5   0 41.3919 16.9411   4
  -4   6  -2 369.502 39.4413   4
  -4   6  -1 135.867 26.0624   4
  -4   6   0 279.947 33.5024   4
  -4   7   0 96.1154 23.3663   4
  -3   0  -1-1.48084 8.54513   4
  -3   0   0 1462.39 63.4947   4
  -3   0   1-1.33703 7.03912   4
  -3   0   2 667.412 36.8792   2
  -3   0   3 3.32379 8.79419   2
  -3   0   4 276.222 24.4765   2
  -3   0   5 5.82047 10.4057   2
  -3   0   6 406.783 31.6225   2
  -3   0   7-1.54153 10.3281   2
  -3   0   8 280.763 27.7440   2
  -3   0   9 0.33627 11.5493   2
  -3   1  -4 389.789 34.1499   4
  -3   1  -3 92.6920 18.6884   4
  -3   1  -2 5.13344 9.58197   4
  -3   1  -1 393.719 29.1406   4
  -3   1   0 398.186 27.8567   4
  -3   1   1 606.033 34.3856   4
  -3  -1   2 78.5446 12.8194   2
  -3  -1   3 373.762 26.7730   2
  -3   1   3 414.233 29.3373   2
  -3   1   4 450.029 31.5158   2
  -3  -1   4 463.191 31.4625   2
  -3  -1   5 544.517 35.4354   2
  -3   1   5 513.370 35.6588   2
  -3   1   6 627.415 41.0827   2
  -3  -1   6 637.586 39.9136   2
  -3  -1   7 132.094 19.9549   2
  -3   1   7 143.889 21.0184   2
  -3  -1   8 8.35653 11.1898   2
  -3   1   8 9.24824 11.7977   2
  -3  -1   9 504.374 37.5889   2
  -3   1   9 491.991 37.7666   2
  -3   2  -5 472.283 39.7516   4
  -3   2  -4 301.449 30.3450   4
  -3   2  -3 583.122 40.6309   4
  -3   2  -2 119.257 18.1726   4
  -3   2  -1 771.794 44.9764   4
  -3   2   0 131.554 18.5694   4
  -3  -2   1 481.315 27.0750   2
  -3   2   1 440.410 31.2778   4
  -3  -2   2 222.644 18.5728   2
  -3   2   2 208.594 19.6179   4
  -3   2   3 1032.77 51.8993   2
  -3  -2   3 985.833 48.1142   2
  -3   2   4 465.147 33.1433   2
  -3  -2   4 474.423 31.5177   2
  -3   2   5 323.219 28.2547   2
  -3  -2   5 346.869 26.9520   2
  -3  -2   6 55.3468 14.4280   2
  -3   2   6 46.0369 14.5215   2
  -3   2   7 413.214 34.0598   2
  -3  -2   7 448.458 33.3720   2
  -3  -2   8 57.5313 15.1069   2
  -3   2   8 46.8604 16.0936   2
  -3  -2   9 170.015 22.8340   2
  -3   2   9 162.132 23.2785   2
  -3   3  -6 193.843 27.7216   4
  -3   3  -5 39.6028 16.2120   4
  -3   3  -4 298.379 30.6949   4
  -3   3  -3 1573.27 76.9784   4
  -3   3  -2 468.717 36.8446   4
  -3   3  -1 103.024 18.8958   4
  -3   3   0 8.41316 11.1018   4
  -3   3   1 697.307 41.7771   4
  -3  -3   2 428.226 25.8766   2
  -3  -3   3 1866.67 74.8047   2
  -3   3   4 158.894 21.2320   2
  -3  -3   4 156.975 18.0542   2
  -3   3   5 69.7499 16.5449   2
  -3  -3   5 83.1189 15.0514   2
  -3   3   6 268.600 27.1029   2
  -3  -3   6 335.776 27.8889   2
  -3  -3   7 339.840 28.7716   2
  -3   3   7 325.714 30.3196   2
  -3   3   8 223.013 26.4177   2
  -3  -3   8 222.126 23.7442   2
  -3   3   9 79.4700 18.1522   2
  -3  -3   9 72.0383 15.0095   2
  -3   4  -7 344.232 37.5837   4
  -3   4  -6 44.8180 17.1397   4
  -3   4  -5 112.489 22.2233   4
  -3   4  -4-6.05241 13.7085   4
  -3   4  -3 674.772 48.1606   4
  -3   4  -2 791.340 52.0180   4
  -3   4  -1-0.70984 11.5119   4
  -3  -4   1 51.4769 11.2345   9
  -3  -4   2 1064.90 49.0439   9
  -3  -4   3 1065.59 48.9864   2
  -3  -4   4 268.009 22.5818   2
  -3  -4   5 332.704 26.6624   2
  -3   4   5 325.766 29.8411   2
  -3   4   6 81.1594 17.6526   2
  -3  -4   6 98.7457 16.1993   2
  -3   4   7 393.918 33.3427   2
  -3  -4   7 429.092 30.5942   2
  -3   4   8 53.9629 15.5032   2
  -3  -4   8 60.4153 15.0692   2
  -3   5  -6 119.256 23.5909   4
  -3   5  -5-1.78090 13.1108   4
  -3   5  -4 344.929 36.4392   4
  -3   5  -3 212.979 29.5363   4
  -3   5  -2 152.104 25.7806   4
  -3  -5   1 569.067 31.7987   9
  -3  -5   2 3.37925 8.00017   9
  -3  -5   3 47.8046 12.3869   9
  -3  -5   4 401.654 28.3868   9
  -3  -5   4 387.141 27.5774   2
  -3  -5   5 3.50373 8.42490   2
  -3  -5   6 217.397 21.7583   2
  -3   5   6 197.379 25.0556   2
  -3   5   7 31.3793 15.3153   2
  -3  -5   7 36.8307 13.0149   2
  -3  -5   8 116.409 19.1359   2
  -3   5   8 99.4413 19.3281   2
  -3   6  -6 470.381 43.0242   4
  -3   6  -5 353.290 37.8089   4
  -3   6  -4 893.506 60.6702   4
  -3   6  -3 56.4119 20.4593   4
  -3  -6   1 61.6662 11.7236   9
  -3  -6   2 228.450 19.8100   9
  -3  -6   3 203.000 18.9319   9
  -3  -6   4 1501.72 66.1227   9
  -3  -6   5 390.990 28.1512   2
  -3  -6   5 391.508 28.9842   9
  -3  -6   6 348.285 28.3533   2
  -3  -6   7 328.641 28.8917   2
  -3  -6   8 155.697 21.8295   2
  -3   6   8 124.876 22.1228   2
  -3   7  -5 51.8979 21.0720   4
  -3   7  -4 567.689 49.1551   4
  -3  -7   1 268.077 21.8839   9
  -3  -7   2 466.448 30.1170   9
  -3   7   2 646.432 44.5866   3
  -3  -7   3 572.446 33.8018   9
  -3  -7   4 261.366 22.3631   9
  -3  -7   5 51.3313 12.8461   9
  -3  -7   6 30.2794 11.6755   9
  -3  -7   7 179.051 22.8487   2
  -3   8  -5 168.813 29.9436   4
  -3   8  -4 34.1803 18.8589   4
  -3  -8   1 576.436 34.3102   9
  -3  -8   2 385.268 27.9122   9
  -3   8   2 451.282 38.1337   3
  -3  -8   3 39.0383 11.1797   9
  -3   8   3 46.6738 17.8289   3
  -3  -8   4 87.4733 14.5909   9
  -3  -8   5 196.955 20.4038   9
  -3  -8   6 14.6025 10.6056   9
  -3  -8   7 173.470 21.2565   9
  -3  -9   1 193.372 20.6325   9
  -3   9   1 230.564 32.4120   3
  -3  -9   2 278.317 24.0768   9
  -3   9   2 324.578 36.0989   3
  -3   9   3 62.9298 19.8743   3
  -3  -9   3 53.8620 12.8280   9
  -3  -9   4 253.205 22.9856   9
  -3  -9   5 79.7499 14.8276   9
  -3  -9   6 10.3452 10.0518   9
  -3  10   0 7.13655 19.9835   3
  -3 -10   1 261.461 22.4394   9
  -3  10   1 353.337 40.9564   3
  -3  10   2 112.076 26.4439   3
  -3 -10   2 91.1022 16.0881   9
  -3 -10   3 22.7703 10.5600   9
  -3  10   3 34.5474 18.8835   3
  -3 -10   4 336.744 27.7513   9
  -3  11   0 52.9812 25.6600   3
  -3  11   1 63.7427 26.4301   3
  -3 -11   1 48.4923 12.4457   9
  -3 -11   2 44.5916 12.6146   9
  -3  11   2 50.8131 23.7061   3
  -2   0  -9 1.25273 11.0590   6
  -2   0  -8 92.6576 18.7846   6
  -2   0  -7 4.56584 10.5148   6
  -2   0  -6 1150.48 57.5562   6
  -2   0  -3 1.10940 7.51687   4
  -2   0  -2 3543.66 127.132   4
  -2   0  -2 3704.90 124.041  11
  -2   0  -1 0.65658 6.91084   4
  -2   0   0 108.370 11.8054   4
  -2   0   1 1.20921 4.60052   4
  -2   0   1 1.34266 6.18693   2
  -2   0   2 91.3831 9.59216   4
  -2   0   2 125.575 13.1955   2
  -2   0   3 4.26262 7.35717   2
  -2   0   3 0.40833 3.59565   4
  -2   0   4 790.250 39.7271   2
  -2   0   5 0.64010 8.25924   2
  -2   0   6 1882.63 77.1487   2
  -2   0   7 1.51754 9.05462   2
  -2   0   8 2043.89 85.7370   2
  -2   0   9 2.91050 10.3417   2
  -2   0  10 9.23588 11.1609   2
  -2   1  -9 109.689 21.1504   6
  -2   1  -8 927.874 55.5125   6
  -2   1  -7 597.904 40.8124   6
  -2   1  -6 7.70329 9.47848   6
  -2   1  -5 452.418 34.1562   4
  -2   1  -5 485.279 31.9924   6
  -2   1  -4 612.058 37.7278   4
  -2   1  -3 1205.69 55.8311   4
  -2   1  -2 268.755 22.0873   4
  -2   1  -1 1321.98 57.3983   4
  -2   1   0 661.342 34.5432   4
  -2  -1   1 13.0424 5.68654   4
  -2  -1   1 14.0936 6.32546   2
  -2   1   1 15.3761 6.92726   4
  -2  -1   2 6025.95 192.293   2
  -2   1   2 5911.84 193.099   2
  -2   1   3 237.678 19.6522   2
  -2  -1   3 232.871 18.4409   2
  -2  -1   4 811.072 39.6960   2
  -2   1   4 813.099 40.9051   2
  -2   1   5 754.395 40.3537   2
  -2  -1   5 781.587 40.9681   2
  -2   1   6 500.224 32.7241   2
  -2  -1   6 515.336 33.2474   2
  -2  -1   7 752.434 42.0952   2
  -2   1   7 652.025 39.6654   2
  -2  -1   8 213.017 22.8166   2
  -2   1   8 163.964 19.6430   2
  -2  -1   9 1519.68 68.8638   2
  -2   1   9 1282.43 63.2039   2
  -2   1  10 83.8061 16.4990   2
  -2  -1  10 91.8240 18.0189   2
  -2   2  -9 406.765 37.6756   6
  -2   2  -8 146.854 23.3004   6
  -2   2  -7 562.779 39.7391   6
  -2   2  -6 112.607 19.0878   4
  -2   2  -6 118.899 17.3410   6
  -2   2  -5 1129.27 60.3734   4
  -2   2  -5 1383.12 60.0734   6
  -2   2  -4 91.2194 13.2138   6
  -2   2  -4 69.3080 14.2963   4
  -2   2  -3 565.789 36.0531   4
  -2   2  -2 272.435 24.0399   4
  -2  -2  -1 3803.61 123.171   9
  -2   2  -1 3893.35 137.175   4
  -2  -2   0 1257.87 49.5236   2
  -2  -2   0 1490.62 52.2296   9
  -2  -2   1 2731.45 95.9355   2
  -2  -2   1 2982.99 98.3852   9
  -2   2   2 2450.06 90.8268   2
  -2  -2   2 2414.75 86.7737   2
  -2  -2   2 2498.26 87.2525   9
  -2  -2   3 2003.09 74.7041   2
  -2   2   3 1997.55 77.3821   2
  -2   2   4 163.970 17.6806   2
  -2  -2   4 203.705 18.3395   2
  -2  -2   5 1945.63 76.3133   2
  -2   2   5 1751.17 74.8144   2
  -2   2   6 157.357 18.4194   2
  -2   2   7 396.898 29.9136   2
  -2   2   8 18.3152 11.1471   2
  -2   2   9 571.994 37.9417   2
  -2   2  10 8.52866 10.5768   2
  -2   3  -9 0.43846 12.4769   6
  -2   3  -8 834.461 52.6425   6
  -2   3  -7 678.569 43.4867   6
  -2   3  -7 559.420 41.9829   4
  -2   3  -6 405.877 34.0116   4
  -2   3  -6 451.326 32.7016   6
  -2   3  -5 205.557 20.5401   6
  -2   3  -5 170.869 21.8034   4
  -2   3  -4 285.009 27.4574   4
  -2   3  -4 245.861 20.7429   6
  -2   3  -3 789.785 37.8911   6
  -2   3  -3 772.596 46.3013   4
  -2   3  -2 799.484 45.8797   4
  -2  -3  -1 1720.65 61.7597   9
  -2  -3   0 600.708 27.0599   9
  -2   3   0 604.162 29.8363   7
  -2  -3   1 1675.10 61.3325   2
  -2  -3   1 1732.61 63.0205   9
  -2  -3   2 3911.23 130.175   9
  -2   3   2 3730.21 132.492   3
  -2  -3   2 4064.72 130.586   2
  -2   3   3 1308.22 53.4279   3
  -2   3   3 1382.76 59.0533   2
  -2  -3   3 1338.19 54.9867   9
  -2  -3   3 1375.99 55.8699   2
  -2   3   4 1853.50 75.6171   2
  -2  -3   4 1891.50 73.3698   9
  -2   3   5 1134.38 54.1036   2
  -2   3   6 11.8670 9.69775   2
  -2   3   7 94.6036 15.4382   2
  -2   3   8 93.2664 15.8974   2
  -2   3   9 151.702 20.0805   2
  -2   4  -7 206.644 25.9206   4
  -2   4  -6 252.230 27.2030   4
  -2   4  -5 1470.36 73.3453   4
  -2   4  -4 2211.01 97.0710   4
  -2  -4  -1 573.241 26.9833   9
  -2  -4   0 947.579 39.4973   9
  -2   4   1 2158.50 86.3266   3
  -2  -4   1 2074.00 75.6966   2
  -2  -4   2 513.131 26.8325   2
  -2  -4   2 513.032 27.7431   9
  -2   4   2 489.707 28.6309   3
  -2  -4   3 490.570 27.8025   9
  -2   4   3 529.869 27.8095   3
  -2  -4   4 443.988 26.8446   9
  -2   4   4 461.996 30.6341   2
  -2  -4   5 419.259 32.7779   1
  -2   4   5 407.106 28.6608   2
  -2  -4   5 401.998 27.4076   9
  -2   4   6 1170.64 58.0857   2
  -2  -4   6 1394.02 66.6650   1
  -2  -4   7 163.725 22.2925   1
  -2   4   7 140.076 19.0232   2
  -2   4   8 503.736 35.5150   2
  -2  -4   8 605.272 43.0940   1
  -2  -4   9 166.326 25.1146   1
  -2  -4  10 247.633 31.2538   1
  -2   5  -7 55.3813 17.1756   4
  -2   5  -6 132.401 22.3589   4
  -2   5  -5 1555.69 78.9506   4
  -2   5  -4 2902.49 120.933   4
  -2   5   0 575.954 37.2579   3
  -2  -5   1 249.410 17.5497   9
  -2   5   1 235.411 21.2402   3
  -2   5   2 601.966 33.3399   3
  -2  -5   2 629.534 30.6504   2
  -2  -5   2 614.832 32.1920   9
  -2  -5   3 114.248 13.6996   9
  -2   5   3 139.483 15.8444   3
  -2  -5   4 64.6543 14.4635   1
  -2   5   4 72.1494 12.5658   3
  -2  -5   4 71.4251 11.7472   9
  -2  -5   5 376.052 28.8528   1
  -2   5   5 344.560 27.1278   2
  -2  -5   5 310.903 22.9258   9
  -2   5   6 645.670 40.0455   2
  -2  -5   6 703.164 39.3726   9
  -2  -5   7 1280.99 62.2155   1
  -2   5   7 1019.39 53.8880   2
  -2   5   8 367.882 29.7443   2
  -2  -5   8 457.077 35.2070   1
  -2  -5   9 248.476 27.6875   1
  -2  -5  10 11.8076 13.2189   1
  -2   6  -7 133.423 23.0317   4
  -2   6  -6 64.5949 19.0554   4
  -2   6  -5 1173.11 66.7038   4
  -2   6  -1 859.037 49.9572   3
  -2   6   0 1986.83 83.7720   3
  -2   6   1 834.576 42.4666   3
  -2  -6   2 1734.59 69.0877   9
  -2   6   2 1945.86 76.5347   3
  -2  -6   3 1455.49 64.8763   1
  -2  -6   3 1302.31 58.5900   9
  -2   6   3 1521.72 63.8516   3
  -2  -6   4 577.962 34.6366   1
  -2   6   4 589.459 34.1563   3
  -2  -6   4 484.885 30.4686   9
  -2  -6   5 199.361 20.9589   1
  -2  -6   5 162.588 17.0977   9
  -2   6   6 43.5164 12.9943   2
  -2  -6   6 49.9107 13.5152   1
  -2  -6   6 44.9280 10.8846   9
  -2   6   7 112.452 18.3062   2
  -2  -6   7 153.484 20.9917   1
  -2  -6   7 135.782 17.8011   9
  -2  -6   8 41.1851 13.8715   1
  -2  -6   9 45.6065 13.8602   1
  -2   7  -6 327.315 35.2940   4
  -2   7  -1 801.041 48.8755   3
  -2   7   1 445.888 33.1126   3
  -2   7   2 123.556 20.3656   3
  -2  -7   3 1551.51 65.8605   9
  -2   7   3 1899.71 75.6168   3
  -2   7   4 1478.06 65.4793   3
  -2  -7   4 1427.29 63.0177   1
  -2  -7   5 284.465 23.3334   9
  -2  -7   5 386.074 30.9183   1
  -2  -7   6 450.679 30.7293   9
  -2  -7   6 701.042 44.0296   1
  -2  -7   7 93.6747 19.1144   1
  -2  -7   7 69.6097 13.8073   9
  -2  -7   8 470.105 37.6853   1
  -2  -7   8 363.969 29.3717   9
  -2  -7   9 90.5992 18.6978   1
  -2   8  -6 233.050 31.2124   4
  -2   8  -2 326.855 32.6490   3
  -2   8  -1 633.652 42.6991   3
  -2   8   0 992.430 51.5012   3
  -2   8   1 1150.82 60.1374   3
  -2   8   2 84.7574 18.9457   3
  -2   8   3 1993.68 87.0218   3
  -2  -8   4 370.747 25.7972   9
  -2   8   4 565.257 38.2632   3
  -2  -8   5 546.589 34.7331   9
  -2  -8   5 806.176 47.8379   1
  -2  -8   6 238.712 28.3037   1
  -2  -8   6 185.448 19.5545   9
  -2  -8   7 108.163 22.0215   1
  -2  -8   7 70.5312 13.8169   9
  -2  -8   8 193.301 27.7306   1
  -2  -8   8 139.788 19.3009   9
  -2   9  -2 1068.04 62.4293   3
  -2   9  -1 520.766 39.2101   3
  -2   9   0 502.128 38.2577   3
  -2   9   1 65.6367 18.9328   3
  -2   9   2 320.148 30.8911   3
  -2   9   3 191.870 26.2530   3
  -2   9   4 29.7991 16.7398   3
  -2  -9   4 26.7427 9.71660   9
  -2  -9   5 302.804 25.1593   9
  -2  -9   6 480.929 39.3462   1
  -2  -9   6 316.532 26.3413   9
  -2  -9   7 813.505 53.1179   1
  -2  -9   7 559.471 36.1232   9
  -2  -9   8 1230.99 67.8660   1
  -2  -9   8 825.814 47.2924   9
  -2  10  -3 979.064 62.9274   3
  -2  10  -2 143.915 26.3010   3
  -2  10   0 232.456 30.0970   3
  -2  10   1 362.284 36.6874   3
  -2  10   2 381.888 35.9758   3
  -2  10   3 68.9395 20.4368   3
  -2  10   4 327.851 35.1120   3
  -2 -10   5 117.111 15.7687   9
  -2 -10   6 10.1975 9.81990   9
  -2 -10   7 457.859 32.3709   9
  -2  11  -3 192.406 31.0949   3
  -2  11  -2 262.962 33.7093   3
  -2  11  -1 92.9310 22.2083   3
  -2  11   0 202.063 30.2057   3
  -2  11   1 2554.75 117.832   3
  -2  11   2 180.290 29.2039   3
  -2  11   3 1142.47 68.3092   3
  -2  11   4 290.341 35.3834   3
  -2  11   5 31.7707 19.9642   3
  -2 -11   5 12.8632 9.50591   9
  -2 -11   6 240.735 23.8266   9
  -2  12  -3 143.965 30.0802   3
  -2  12  -2 602.493 49.2709   3
  -2  12  -1 82.0219 21.9332   3
  -2  12   0 636.933 51.7011   3
  -2  12   1 165.645 31.9732   3
  -2  12   2 194.185 31.6638   3
  -2  12   3 10.1242 18.9401   3
  -2  12   4 489.607 46.9388   3
  -2 -12   5 213.263 22.7086   9
  -2  12   5 289.193 36.6594   3
  -2  13  -1 81.3747 23.5421   3
  -2  13   0 460.227 47.5646   3
  -2  13   1 612.861 55.8743   3
  -2  13   2 87.2680 25.4660   3
  -2  13   3 79.0292 26.4847   3
  -1   0 -10 142.233 23.5434   6
  -1   0  -9 7.47298 11.7112   6
  -1   0  -8 2570.73 108.149   6
  -1   0  -7 0.29578 9.23834   6
  -1   0  -6 3951.03 142.114   6
  -1   0  -5-0.20689 7.02826   6
  -1   0  -4 1573.39 62.9236   6
  -1   0  -3 3.24272 6.17006   6
  -1   0  -3 3.38405 4.83122  10
  -1   0  -3 1.61840 6.10207   4
  -1   0  -2 489.107 24.7583   4
  -1   0  -2 502.893 24.8732   6
  -1   0  -2 553.033 23.9375  10
  -1   0  -1 12.2729 4.28512  11
  -1   0  -1 12.3694 5.49851  10
  -1   0  -1 4.30430 4.66561   4
  -1   0   0 3631.97 115.690   4
  -1   0   1-0.11600 3.83026   4
  -1   0   1 1.51117 4.92010   2
  -1   0   2 6113.48 190.775   2
  -1   0   3 5.14587 2.96946   3
  -1   0   4 10836.0 321.781   3
  -1   0   4 10336.3 341.665   1
  -1   0   5-0.19844 6.29849   1
  -1   0   6 1363.78 61.4567   1
  -1   0   7-0.50086 7.82186   1
  -1   0   8 449.227 32.7236   1
  -1   0   9 0.33195 9.55710   1
  -1   0  10 117.038 20.9899   1
  -1  -1 -10 105.382 21.0686   6
  -1   1 -10 122.625 23.9255   6
  -1  -1  -9 354.418 34.0551   6
  -1   1  -9 408.713 38.8671   6
  -1   1  -8 422.835 40.1403   6
  -1  -1  -8 367.122 32.3921   6
  -1  -1  -7 575.460 39.0277   6
  -1   1  -7 702.412 46.2067   6
  -1   1  -6 102.971 16.3530   6
  -1  -1  -6 82.3184 13.9082   6
  -1  -1  -5 1205.03 56.8584   6
  -1   1  -5 1309.81 56.6996   4
  -1   1  -4 1133.89 49.4033   4
  -1  -1  -4 1037.06 49.1532   6
  -1  -1  -3 5203.40 165.056  10
  -1   1  -3 4849.43 169.013   4
  -1  -1  -3 5351.60 170.913   6
  -1   1  -3 4687.11 167.226  10
  -1   1  -2 6436.75 217.126   6
  -1   1  -2 6674.96 222.131   4
  -1  -1  -2 7547.91 214.474  11
  -1   1  -2 6718.50 218.738  10
  -1  -1  -2 7022.63 216.425  10
  -1   1  -2 7154.88 211.553   7
  -1   1  -1 1122.12 51.4792  10
  -1   1  -1 1355.51 51.4232  11
  -1  -1  -1 1534.78 47.5020   9
  -1  -1  -1 1657.13 51.7845  10
  -1   1  -1 1345.95 49.5325   6
  -1   1  -1 1529.68 48.4641   7
  -1  -1   0 5710.79 175.860   2
  -1   1   0 5643.55 178.117   7
  -1  -1   0 5876.37 176.265   9
  -1  -1   1 22644.9 660.245   2
  -1   1   1 21710.8 660.952   3
  -1   1   1 21623.3 661.842   2
  -1  -1   1 22159.1 660.237   9
  -1   1   2 4403.86 140.601   2
  -1   1   2 4440.96 135.982   3
  -1  -1   2 4319.72 139.844   9
  -1   1   3 592.936 27.1778   2
  -1   1   3 631.167 22.5107   3
  -1   1   4 893.031 30.1063   3
  -1   1   4 901.684 38.9737   2
  -1  -1   5 460.233 30.1469   1
  -1  -1   6 631.344 39.8301   1
  -1  -1   7 850.996 48.2686   1
  -1  -1   8 1692.18 77.0200   1
  -1  -1   9 58.6884 14.1705   1
  -1  -1  10 496.875 37.0588   1
  -1  -1  11 165.800 24.0050   1
  -1  -2 -10 72.2054 18.7498   6
  -1   2 -10 103.191 27.4980   6
  -1  -2  -9 1142.28 66.1083   6
  -1   2  -9 1488.22 79.8488   6
  -1  -2  -8 71.0813 16.0651   6
  -1   2  -8 83.1063 19.2494   6
  -1  -2  -7 185.669 21.3211   6
  -1   2  -7 264.687 26.9994   6
  -1  -2  -6 112.222 15.9801   6
  -1   2  -6 130.619 17.8372   6
  -1   2  -6 72.9764 13.1068   4
  -1   2  -5 2484.42 97.1801   4
  -1  -2  -5 2576.53 99.5572   6
  -1   2  -4 648.014 34.8867   6
  -1   2  -4 769.130 37.6400   4
  -1  -2  -4 691.795 36.0246   6
  -1   2  -3 2521.30 83.4891   6
  -1   2  -3 2680.26 89.4011   4
  -1  -2  -2 2391.19 73.6545  11
  -1   2  -2 2239.39 78.6116   6
  -1  -2  -2 2276.64 76.0229  10
  -1   2  -1 1781.66 61.8710  11
  -1  -2  -1 1651.96 59.3759   3
  -1   2  -1 1661.11 57.3003   6
  -1  -2  -1 1865.56 58.7880  10
  -1   2   0 473.070 24.8041   3
  -1  -2   0 500.918 21.7931   3
  -1  -2   0 547.531 20.6601   2
  -1  -2   1 12334.0 379.508   3
  -1   2   1 12930.1 384.754   7
  -1  -2   1 13303.5 382.382   9
  -1   2   1 12226.1 383.230   3
  -1   2   2 50.4902 7.39153   3
  -1   2   2 42.0785 8.21620   2
  -1  -2   2 41.3626 7.40097   9
  -1  -2   2 37.5953 8.95586   1
  -1  -2   3 3407.47 129.829   1
  -1   2   3 3800.32 127.657   7
  -1   2   3 3993.22 119.679   3
  -1   2   3 4069.00 125.282   2
  -1   2   3 3754.21 118.196   5
  -1  -2   3 3481.25 122.335   9
  -1   2   4 229.994 17.6911   2
  -1   2   4 270.738 15.2564   5
  -1   2   4 276.974 14.9677   3
  -1  -2   4 240.990 17.6647   9
  -1   2   5 2991.16 115.348   2
  -1  -2   5 4502.86 136.604   1
  -1   2   6 518.042 31.0716   2
  -1  -2   6 761.840 44.0923   1
  -1   2   7 2780.94 103.053   2
  -1  -2   8 716.515 45.6340   1
  -1   2   8 545.813 34.5841   2
  -1  -2   9 710.880 48.2023   1
  -1  -2  10 170.243 23.4145   1
  -1  -2  11 279.978 28.0524   1
  -1  -3 -10 373.982 36.0424   6
  -1   3 -10 511.544 46.1205   6
  -1  -3  -9 383.675 34.3514   6
  -1   3  -9 466.774 41.2090   6
  -1   3  -8 105.791 20.5844   6
  -1  -3  -8 80.8275 16.7566   6
  -1   3  -7 134.306 19.6148   6
  -1  -3  -7 121.961 17.7573   6
  -1  -3  -6 965.029 49.0755   6
  -1   3  -6 871.211 46.6498   6
  -1   3  -6 972.302 47.2744   4
  -1   3  -5 1450.62 64.3537   4
  -1  -3  -5 1534.25 64.2319   6
  -1   3  -4 1225.99 56.0752   4
  -1   3  -2 1962.52 76.7231  10
  -1  -3  -2 2300.30 71.5117  10
  -1   3  -1 564.929 29.1476  10
  -1  -3  -1 658.268 26.9292   3
  -1  -3  -1 661.204 23.4719  10
  -1   3  -1 598.271 30.7908   3
  -1   3  -1 550.842 22.7343   6
  -1   3   0 5325.24 180.586  11
  -1  -3   0 5972.96 176.246   3
  -1   3   0 5587.14 180.498   3
  -1   3   1 3474.21 106.372   7
  -1   3   1 2968.59 103.532   3
  -1  -3   1 3352.80 104.902   1
  -1  -3   1 3002.24 98.8308   3
  -1   3   2 799.065 29.2900   5
  -1  -3   2 852.425 30.4814   3
  -1   3   2 918.719 36.0080   3
  -1  -3   2 904.593 35.9699   9
  -1   3   3 979.458 36.7545   3
  -1   3   3 937.436 32.2379   5
  -1  -3   3 1053.55 42.2726   1
  -1   3   3 1040.82 41.4252   7
  -1  -3   3 947.586 38.5188   9
  -1   3   3 982.252 39.4632   2
  -1   3   4 317.976 18.2749   3
  -1   3   4 285.140 19.6345   2
  -1  -3   4 337.942 21.7986   1
  -1  -3   4 276.361 18.5818   9
  -1   3   4 309.001 15.9910   5
  -1   3   5 2153.86 72.6705   3
  -1  -3   5 2027.92 79.6638   1
  -1  -3   5 2048.27 76.8882   9
  -1   3   5 2065.47 77.2909   2
  -1  -3   6 1172.82 53.1898   1
  -1   3   6 953.425 45.7160   2
  -1   3   7 616.814 32.7514   2
  -1  -3   8 1142.56 67.0476   1
  -1  -3  10 483.189 41.1717   1
  -1  -3  11 517.393 42.1114   1
  -1   4 -10 74.8593 21.5918   6
  -1  -4  -9 186.055 23.8496   6
  -1   4  -9 202.085 28.7935   6
  -1  -4  -8 945.858 53.0990   6
  -1   4  -8 1028.08 57.3550   6
  -1   4  -6 3020.62 114.891   4
  -1   4  -5 2586.31 102.072   4
  -1  -4  -2 440.149 18.0347  10
  -1   4  -2 468.978 29.4547   3
  -1   4  -1 3326.36 105.587   3
  -1   4  -1 2504.16 103.463  11
  -1  -4  -1 3612.15 102.841   3
  -1   4  -1 2357.34 104.841  10
  -1  -4  -1 3176.64 93.7237   2
  -1  -4   0 717.380 28.0752   3
  -1  -4   0 724.958 26.3409   1
  -1   4   0 644.572 31.4383   3
  -1  -4   1 3883.24 135.648   3
  -1   4   1 4332.80 143.450   3
  -1   4   2 1580.18 52.1903   5
  -1  -4   2 1672.90 59.7421   1
  -1   4   2 1775.38 61.8370   3
  -1  -4   2 1688.94 54.6214   3
  -1   4   3 1156.18 40.2057   5
  -1   4   3 1063.08 44.6737   3
  -1   4   3 1092.48 46.5695   2
  -1  -4   3 1186.14 46.4375   1
  -1   4   4 5296.15 167.393   3
  -1  -4   4 5470.80 171.020   1
  -1   4   4 5020.95 168.969   2
  -1  -4   4 5021.46 168.849   9
  -1   4   5 152.699 15.0908   2
  -1   4   5 163.913 14.4666   3
  -1  -4   5 148.008 14.4046   9
  -1  -4   5 168.310 15.6099   1
  -1   4   6 573.695 31.7101   2
  -1  -4   6 629.975 34.5145   1
  -1  -4   6 597.834 32.0465   9
  -1  -4   7 700.117 39.2708   1
  -1   4   7 596.007 34.2185   2
  -1  -4   8 35.9306 13.6393   1
  -1  -4   9 633.536 49.8799   1
  -1   5 -10 113.180 25.3613   6
  -1   5  -9 856.259 55.3479   6
  -1   5  -6 2169.46 91.7824   4
  -1   5  -3 232.212 22.2875   3
  -1   5  -2 5252.49 174.019   3
  -1   5  -1 185.412 17.7205   3
  -1   5   0 497.299 27.5680   3
  -1  -5   0 489.987 21.8415   3
  -1   5   1 1452.72 58.4371   3
  -1  -5   1 1346.99 50.6424   3
  -1  -5   2 1285.76 47.7255   3
  -1   5   2 1427.97 56.2686   3
  -1   5   3 3268.41 115.662   3
  -1  -5   3 3551.41 116.380   1
  -1   5   4 1512.87 63.7412   2
  -1  -5   4 1495.38 62.0757   9
  -1  -5   4 1909.27 67.4344   1
  -1   5   4 1846.53 66.2117   3
  -1   5   5 1071.65 50.6732   2
  -1  -5   5 1428.46 57.1189   1
  -1   5   5 1387.75 53.4055   3
  -1  -5   5 1208.48 52.4565   9
  -1   5   6 196.976 18.2285   2
  -1  -5   6 264.353 20.9982   1
  -1  -5   6 226.757 18.6839   9
  -1  -5   7 180.177 18.7027   1
  -1  -5   7 167.793 17.8964   9
  -1  -5   8 568.894 36.8447   1
  -1  -5   9 94.7346 18.6432   1
  -1  -5  10 290.136 35.4253   1
  -1   6  -9 150.374 23.8906   6
  -1  -6  -4 1262.23 52.1909   8
  -1   6  -3 732.369 41.1355   3
  -1   6  -2 3600.72 125.664   3
  -1   6  -1 1101.02 50.4063   3
  -1   6   0 2961.61 107.155   3
  -1  -6   0 2919.19 94.1758   1
  -1  -6   1 834.091 32.7068   1
  -1   6   1 650.210 36.6960   3
  -1   6   2 588.757 33.6338   3
  -1  -6   2 675.662 30.4720   1
  -1  -6   3 1152.21 47.0190   1
  -1   6   3 1018.73 47.8570   3
  -1   6   4 244.775 21.0748   3
  -1  -6   4 253.611 19.6028   1
  -1   6   5 275.441 21.1374   3
  -1   6   5 218.366 18.5937   2
  -1  -6   5 275.311 21.2227   1
  -1  -6   5 191.677 16.4949   9
  -1  -6   6 373.956 26.5642   1
  -1  -6   6 315.941 23.4871   9
  -1  -6   7 318.077 24.9333   1
  -1  -6   7 284.489 22.2801   9
  -1  -6   8 926.409 48.8983   1
  -1  -6   9 262.983 25.6455   1
  -1  -6  10 548.023 42.9958   1
  -1  -7  -4 586.114 32.0938   8
  -1   7  -4 659.423 41.3880   3
  -1   7  -3 332.006 26.3779   3
  -1   7  -2 571.242 34.7284   3
  -1   7  -1 1052.47 50.5573   3
  -1   7   0 1670.41 70.7766   3
  -1   7   1 1611.69 70.4517   3
  -1  -7   1 1819.81 63.2407   1
  -1   7   2 3188.59 118.375   3
  -1  -7   2 3359.78 111.529   1
  -1  -7   3 280.633 19.8847   1
  -1   7   3 252.073 22.2088   3
  -1  -7   4 1281.21 55.8759   1
  -1   7   4 1270.39 57.7242   3
  -1  -7   5 726.700 39.2483   1
  -1   7   5 724.515 39.3491   3
  -1   7   6 1319.14 56.1420   3
  -1  -7   6 1219.85 56.3429   1
  -1  -7   7 809.772 43.8890   1
  -1  -7   7 696.563 38.5492   9
  -1  -7   8 166.379 19.4437   1
  -1  -7   9 194.274 21.6427   1
  -1  -7  10 232.928 26.9410   1
  -1   8  -4 896.533 50.1161   3
  -1  -8  -4 801.794 40.3464   8
  -1   8  -3 1581.71 69.0516   3
  -1   8  -2 18.7209 12.0742   3
  -1   8  -1 506.328 34.1139   3
  -1   8   0 731.143 43.1175   3
  -1   8   1 2511.30 98.0952   3
  -1   8   2 1264.28 59.1985   3
  -1  -8   2 1234.89 50.4291   1
  -1   8   3 99.9455 17.6388   3
  -1  -8   3 97.6296 12.4140   1
  -1   8   4 205.772 22.9922   3
  -1  -8   4 224.415 19.6286   1
  -1  -8   5 420.870 29.2254   1
  -1   8   5 450.873 31.9997   3
  -1   8   6 1767.67 69.5202   3
  -1  -8   6 1639.56 68.6666   1
  -1  -8   7 1887.78 78.2119   1
  -1  -8   7 1665.86 72.0006   9
  -1  -8   8 55.4116 12.9002   1
  -1  -8   9 193.548 21.9986   1
  -1   9  -4 845.999 49.6965   3
  -1   9  -3 199.542 22.3552   3
  -1   9  -2 40.1988 15.9966   3
  -1   9  -1 552.558 38.1817   3
  -1   9   0 986.112 54.0646   3
  -1   9   1 150.308 20.8939   3
  -1   9   2 2395.04 97.6836   3
  -1   9   3 2541.28 97.1207   3
  -1  -9   3 2130.29 84.0874   1
  -1   9   4 860.355 47.9217   3
  -1  -9   4 775.278 40.6700   1
  -1   9   5 589.597 38.7973   3
  -1  -9   5 518.821 34.1740   1
  -1  -9   6 337.923 27.1976   1
  -1   9   6 386.765 30.8822   3
  -1  -9   6 282.021 23.1441   9
  -1  -9   7 17.8118 10.0129   1
  -1  -9   7 17.3695 10.2276   9
  -1  -9   8 118.312 17.9631   1
  -1  10  -4 101.710 20.4945   3
  -1  10  -3 65.0526 17.6175   3
  -1  10  -2 1147.52 61.5445   3
  -1  10  -1 1240.80 64.3475   3
  -1  10   0 2069.64 92.4377   3
  -1  10   1 169.871 24.0386   3
  -1  10   2 113.059 21.4965   3
  -1  10   3 1234.99 65.3530   3
  -1 -10   4 32.2420 9.89747   1
  -1  10   4 40.7184 16.5783   3
  -1  10   5 826.165 48.6892   3
  -1 -10   5 733.580 42.4329   1
  -1 -10   6 164.545 19.5026   1
  -1  10   6 197.886 25.6462   3
  -1 -10   7 44.3081 12.8738   1
  -1 -10   8 190.600 22.3177   1
  -1  11  -4 336.282 32.5858   3
  -1  11  -3 1601.95 77.1757   3
  -1  11  -2 29.2889 16.8993   3
  -1  11  -1 1146.36 63.5834   3
  -1  11   0 1778.58 86.1660   3
  -1  11   1 44.8618 17.8110   3
  -1  11   2 11.3626 15.7135   3
  -1  11   3 273.182 30.3909   3
  -1  11   4 367.077 35.1719   3
  -1  11   5 8.61090 15.3400   3
  -1 -11   6 70.8963 14.2697   1
  -1  11   6 92.9007 21.6424   3
  -1 -11   7 526.544 36.6232   1
  -1  12  -4 370.287 35.2956   3
  -1  12  -3 29.7356 18.6354   3
  -1  12  -2 20.9971 18.1069   3
  -1  12  -1 128.145 25.1566   3
  -1  12   0 1332.09 73.8322   3
  -1  12   1 122.675 25.2075   3
  -1  12   2 993.737 60.3818   3
  -1  12   3 407.086 38.7837   3
  -1  12   4 314.437 35.3374   3
  -1  12   5 317.701 35.0708   3
  -1  12   6 831.949 54.1093   3
  -1  13  -3 120.496 26.0972   3
  -1  13  -2 279.981 35.0696   3
  -1  13  -1 70.4901 22.6579   3
  -1  13   0 468.227 44.4658   3
  -1  13   1 14.5105 18.1455   3
  -1  13   2 764.554 54.7627   3
  -1  13   3 70.7120 23.6078   3
  -1  13   4 417.802 42.2839   3
  -1  13   5 14.8732 20.1714   3
  -1  14  -2 29.1486 21.8840   3
  -1  14  -1 101.952 26.7397   3
  -1  14   0 615.451 53.2137   3
  -1  14   1 337.103 41.6787   3
  -1  14   2 210.452 34.4886   3
  -1  14   3 668.231 54.3764   3
   0   0 -11 5.47862 15.4678   6
   0   0 -10 2424.12 112.583   6
   0   0  -9 1.18427 11.7521   6
   0   0  -8 234.790 24.2325   6
   0   0  -5 4.26445 4.23353   7
   0   0  -4 2712.36 93.1256   1
   0   0  -4 2668.28 90.7413   9
   0   0  -3 7.25106 4.18586   7
   0   0  -3 2.86930 3.46993   1
   0   0  -3 0.70028 3.36669   9
   0   0  -2 2271.47 71.8159   1
   0   0  -1 0.08611 1.02560   1
   0   0   2 2218.29 66.8844   4
   0   0   2 2272.69 67.9334   1
   0   0   3 1.09601 3.64856   1
   0   0   3 2.42525 2.84609   4
   0   0   3 0.40838 3.79132   3
   0   0   4 2977.25 91.7955   3
   0   0   4 3473.24 93.7806   4
   0   0   5 6.22370 5.37152   1
   0   0   5 3.71387 3.99028   4
   0   0   5 4.41874 4.37478   3
   0   0   6 209.266 13.8244   3
   0   0   6 245.480 17.5089   1
   0   0   7 0.52264 5.63350   1
   0   0   8 236.123 21.7483   1
   0  -1 -11 462.859 45.7879   6
   0   1 -11 418.855 43.2989   6
   0  -1 -10 267.570 34.4733   6
   0   1 -10 231.107 29.8418   6
   0  -1  -9 554.186 42.2741   6
   0   1  -9 506.996 38.3487   6
   0  -1  -8 241.646 25.9391   6
   0  -1  -7 720.543 42.9076   6
   0  -1  -6 3302.21 119.245   6
   0  -1  -5 1596.48 58.9868   6
   0  -1  -5 1380.02 52.2216   1
   0   1  -4 3443.35 115.790   1
   0  -1  -4 3424.90 115.132   1
   0  -1  -3 5654.90 187.729   1
   0  -1  -3 6437.06 191.106   6
   0  -1  -3 5891.12 188.615   3
   0   1  -3 6786.14 188.073   4
   0   1  -3 5958.27 188.391   1
   0  -1  -2 104.342 7.07815   3
   0   1  -2 159.314 10.7967   5
   0  -1  -2 118.614 7.07323   1
   0  -1  -2 135.561 9.35940   6
   0   1  -2 131.132 7.89396   4
   0  -1  -1 2505.19 83.3284   3
   0   1  -1 2839.64 83.3018   3
   0  -1  -1 2800.67 83.1607   1
   0   1  -1 2323.52 84.0308   5
   0  -1   1 2685.45 68.1660   1
   0  -1   1 2581.73 67.6062   3
   0  -1   2 137.342 8.18283   1
   0   1   2 113.085 7.97780   7
   0  -1   2 124.244 7.69834   9
   0   1   2 111.092 7.75565   3
   0   1   3 5763.45 194.191   7
   0  -1   3 7006.77 194.797   1
   0   1   3 5886.03 192.580   3
   0   1   3 6746.78 194.407   1
   0  -1   3 6274.23 192.720   9
   0   1   4 3928.21 132.430   3
   0   1   4 4200.33 134.940   1
   0   1   5 1524.13 55.8468   3
   0  -1   5 1466.41 55.2516   3
   0   1   5 1600.72 56.9041   4
   0   1   5 1693.08 60.5239   1
   0  -1   5 1791.03 61.3035   1
   0   1   6 3465.24 110.873   1
   0  -1   6 3102.22 105.667   1
   0   1   7 956.694 48.3796   1
   0  -1   7 602.098 34.8494   1
   0  -1   8 176.286 17.4008   1
   0  -1   9 468.557 31.6096   1
   0   2 -11 116.176 24.7000   6
   0  -2 -11 118.780 23.0737   6
   0  -2 -10 7.85642 13.1282   6
   0   2 -10 13.5985 12.7786   6
   0  -2  -9 671.281 47.9193   6
   0  -2  -8 640.346 44.8716   6
   0  -2  -7 2467.17 100.213   6
   0  -2  -6 1639.26 70.1629   6
   0  -2  -5 1161.02 51.0457   1
   0  -2  -5 1429.30 54.1239   3
   0  -2  -4 526.245 24.2311   1
   0   2  -4 573.520 26.4206   1
   0  -2  -4 561.791 25.5899   3
   0  -2  -3 8095.19 259.638   1
   0  -2  -3 7898.49 260.780   3
   0   2  -3 9598.64 266.452   5
   0  -2  -3 9474.17 265.361   6
   0  -2  -2 2125.22 68.0104   6
   0   2  -2 2011.87 67.3808   5
   0  -2  -2 2522.62 67.5236   1
   0   2  -2 2076.89 65.9953   3
   0  -2  -2 1626.57 64.3192   3
   0  -2  -1 1543.09 45.7349  11
   0  -2  -1 1344.14 46.1407   3
   0   2  -1 1466.36 46.4881   3
   0   2  -1 1243.64 46.2017   8
   0   2  -1 1342.75 46.2273   1
   0  -2  -1 1467.66 44.4861   2
   0  -2   0 5300.89 156.689  10
   0  -2   0 5073.31 158.703   8
   0   2   0 5140.25 158.107   3
   0  -2   1 1479.76 47.7590   1
   0   2   1 1410.88 48.1233   3
   0  -2   1 1388.05 47.2891   3
   0   2   2 2045.46 65.1208   6
   0   2   2 1862.47 60.9408   2
   0  -2   2 1925.60 62.6030   1
   0   2   2 1908.23 63.3357   3
   0  -2   2 1867.61 61.3522   3
   0   2   3 8181.04 259.913   7
   0  -2   3 8751.67 258.791   1
   0  -2   3 8199.45 258.992   5
   0  -2   3 8350.85 255.884   3
   0   2   3 8164.65 258.527   3
   0   2   3 9215.72 259.630   1
   0  -2   3 8409.23 257.144   9
   0   2   4 614.832 25.9807   3
   0  -2   4 689.108 28.3242   1
   0   2   4 727.631 29.9405   1
   0  -2   4 609.290 27.7289   5
   0  -2   4 653.526 24.8731   3
   0  -2   4 622.100 25.8658   9
   0  -2   5 1542.73 58.3073   9
   0   2   5 1477.77 56.9214   3
   0   2   6 1155.82 47.7384   3
   0  -2   6 1311.53 53.4434   1
   0  -2   7 2185.19 83.8168   1
   0  -2   8 510.737 31.7757   1
   0  -2   9 477.328 31.1589   1
   0  -2  10 6.00094 8.83915   1
   0  -3 -11 67.6227 18.7895   6
   0   3 -11 53.2912 17.8322   6
   0  -3 -10 29.5343 14.6997   6
   0  -3  -9 837.590 50.6940   6
   0  -3  -8 903.546 50.2602   6
   0  -3  -7 3001.57 113.581   6
   0  -3  -6 2414.49 92.0484   6
   0  -3  -5 428.842 26.1449   6
   0   3  -5 464.871 23.9855   4
   0  -3  -4 2065.57 76.1340   3
   0  -3  -4 2114.29 74.9167   1
   0  -3  -3 6720.16 202.860   6
   0   3  -3 6594.15 202.493   5
   0  -3  -3 6607.49 198.658   1
   0   3  -3 6968.18 201.805   3
   0  -3  -2 2515.62 73.8691   2
   0  -3  -2 2219.19 76.1626   3
   0   3  -2 2133.36 76.1530   1
   0   3  -2 2400.17 78.1241   5
   0   3  -2 2346.56 76.9742   3
   0   3  -1 2477.70 82.1192   8
   0   3  -1 2747.55 82.6304   3
   0   3  -1 2375.54 81.5361   1
   0   3  -1 2395.42 80.6215  10
   0  -3  -1 2681.32 79.7371  11
   0  -3   0 1901.52 62.7209   8
   0  -3   0 1923.30 59.3510  10
   0   3   0 1737.77 61.4994   3
   0   3   1 2226.91 76.7910  11
   0  -3   1 2249.65 76.9894   3
   0   3   2 2432.78 73.4184   2
   0   3   2 2396.76 77.4675   6
   0  -3   2 2151.57 73.8263   3
   0   3   2 2316.75 76.3367   3
   0  -3   2 2265.22 74.9384   1
   0   3   3 6324.61 187.997   3
   0  -3   3 6227.72 187.624   1
   0  -3   3 6172.13 185.534   3
   0   3   3 5944.45 184.651   2
   0   3   4 2540.70 80.6024   3
   0   3   4 2125.28 80.7279   7
   0   3   4 2456.56 78.1192   2
   0  -3   4 2514.08 80.6455   1
   0  -3   4 2173.77 75.5330   3
   0  -3   4 2184.50 77.0824   9
   0   3   5 436.957 23.0165   3
   0  -3   5 417.728 23.1671   1
   0  -3   5 371.692 20.6394   9
   0   3   6 2563.92 87.1584   3
   0  -3   6 2328.65 87.7041   1
   0  -3   7 2740.56 100.305   1
   0  -3   8 854.708 44.4540   1
   0  -3   9 817.496 44.8851   1
   0  -3  10 33.9050 10.9617   1
   0  -4 -10 950.738 57.1973   6
   0  -4  -9 433.428 34.6594   6
   0  -4  -8 130.353 18.5309   6
   0  -4  -7 654.399 38.6705   6
   0  -4  -6 183.350 18.2814   6
   0   4  -5 2915.63 101.293   5
   0  -4  -5 2260.55 90.2731   6
   0  -4  -4 251.422 18.4166   6
   0   4  -4 266.702 19.8241   5
   0  -4  -3 1142.67 44.3185   3
   0   4  -3 1102.11 45.3719   8
   0  -4  -3 1231.24 42.7404   1
   0   4  -3 1415.31 50.7801   5
   0   4  -3 1361.13 46.8841   3
   0  -4  -2 1987.68 66.9554   3
   0   4  -2 1896.94 66.8927   8
   0   4  -2 1732.36 65.5207   1
   0   4  -2 1615.48 64.0709  10
   0  -4  -2 2392.49 65.6311  11
   0   4  -2 2182.37 68.2939   3
   0  -4  -2 1882.21 61.3553   2
   0  -4  -1 138.450 10.3716   8
   0   4  -1 105.127 9.49617   8
   0   4  -1 132.523 10.9337   3
   0   4  -1 109.155 8.38652  10
   0  -4   0 10468.6 295.692   8
   0  -4   0 9938.22 289.741  10
   0   4   0 10284.5 293.990   3
   0  -4   1 144.853 11.0154   8
   0  -4   1 130.769 8.65101   1
   0   4   1 102.454 7.97431  11
   0  -4   1 116.830 8.98648   3
   0   4   1 148.774 11.4646   3
   0   4   2 1968.53 68.5159   6
   0  -4   2 1831.15 64.5354   3
   0  -4   2 2024.95 66.3256   1
   0   4   2 2055.91 68.1989   3
   0  -4   3 1378.24 49.0348   1
   0  -4   3 1243.76 46.1359   3
   0   4   3 1272.64 45.4704   2
   0   4   3 1330.45 49.2962   3
   0   4   4 229.422 16.3194   3
   0  -4   4 229.239 15.6943   1
   0  -4   4 215.865 12.9613   3
   0   4   4 221.169 13.0483   2
   0   4   5 2203.92 77.4559   3
   0  -4   5 2267.68 78.9600   1
   0  -4   5 2011.27 74.7185   9
   0   4   6 189.277 15.8070   3
   0  -4   6 197.909 17.4900   1
   0  -4   7 655.719 35.4413   1
   0  -4   8 110.338 15.6709   1
   0  -4   9 445.705 32.0294   1
   0  -4  10 861.871 47.8935   1
   0  -5 -10 356.702 32.8773   6
   0  -5  -9 594.985 40.6668   6
   0  -5  -8 19.5285 9.98611   6
   0  -5  -7 204.493 20.5357   6
   0  -5  -6 1102.23 54.3906   6
   0   5  -6 1507.14 66.7228   5
   0   5  -5 149.765 17.0354   5
   0   5  -4 1181.65 52.1101   5
   0   5  -4 1319.97 51.6866   3
   0   5  -3 1926.59 64.1587   5
   0   5  -3 1997.89 63.7562   3
   0   5  -3 1427.41 57.8147  10
   0  -5  -3 1811.36 56.8273  11
   0   5  -3 1176.21 57.5038   8
   0  -5  -2 3697.12 111.633   2
   0   5  -2 3507.72 116.581  10
   0   5  -1 3718.87 140.195   8
   0  -5  -1 5094.30 144.557   8
   0   5  -1 5234.57 144.496   3
   0   5  -1 4152.42 140.149  10
   0  -5   0 2725.94 86.8701   8
   0  -5   0 2562.01 79.9027  10
   0   5   0 2541.98 85.4414   3
   0  -5   0 2651.24 81.4522   1
   0  -5   1 4884.52 148.060   1
   0   5   1 4011.25 148.108  11
   0   5   1 5733.53 155.066   3
   0  -5   1 4335.98 147.713   3
   0  -5   1 5610.86 154.823   8
   0   5   2 3629.64 128.001   6
   0  -5   2 3508.98 123.772   3
   0   5   3 1518.87 61.6411   6
   0  -5   3 1777.14 60.7392   1
   0  -5   3 1582.40 57.5817   3
   0   5   3 1830.29 63.1205   3
   0   5   4 1133.43 46.9503   3
   0  -5   4 1226.21 47.8666   1
   0  -5   5 129.806 13.0650   1
   0   5   5 118.096 12.9906   3
   0  -5   6 1026.12 45.9877   1
   0   5   6 1049.85 45.1025   3
   0   5   7 206.683 17.6990   3
   0  -5   7 202.803 18.5813   1
   0  -5   8 28.4308 9.74928   1
   0  -5   9 689.667 41.2091   1
   0  -5  10 393.401 31.0082   1
   0   6  -6 5443.42 193.772   5
   0   6  -5 1036.87 50.2023   5
   0   6  -4 1882.10 71.6452   5
   0   6  -4 1730.63 65.9667   3
   0   6  -3 1767.69 61.2599   3
   0   6  -3 1701.11 61.3544   5
   0  -6  -2 1739.27 57.4622   8
   0   6  -2 1708.24 57.6391   3
   0  -6  -1 429.034 23.1757   8
   0   6  -1 427.180 23.4762   3
   0  -6  -1 431.996 19.2605  10
   0  -6   0 106.907 8.61844   1
   0  -6   0 108.267 11.5331   8
   0  -6   0 98.1738 7.57966  10
   0   6   0 109.574 12.8724   3
   0  -6   1 380.452 18.4503   1
   0  -6   1 434.790 23.5151   8
   0   6   1 470.587 24.9587   3
   0  -6   2 1547.62 58.2550   1
   0   6   2 1801.71 64.2215   3
   0   6   3 1444.20 63.5272   6
   0  -6   3 1740.78 63.1470   1
   0  -6   4 1983.48 74.6235   1
   0   6   4 2137.94 77.6361   3
   0  -6   5 930.224 42.2072   1
   0   6   5 955.673 43.0443   3
   0  -6   6 4079.26 139.998   1
   0   6   6 4067.31 138.269   3
   0   6   7 186.157 17.9359   3
   0  -6   7 198.455 19.0497   1
   0  -6   8 162.776 18.3703   1
   0  -6   9 231.674 23.5501   1
   0  -6  10 131.270 18.8034   1
   0   7  -6 1406.04 67.0825   5
   0   7  -5 591.512 35.9929   5
   0   7  -4 1038.83 49.7758   5
   0   7  -4 1097.50 47.9598   3
   0  -7  -3 1206.58 50.8831   8
   0   7  -3 1271.13 53.3533   3
   0  -7  -2 987.492 42.8125   8
   0   7  -2 974.273 44.0554   3
   0  -7  -1 1367.30 54.5268   8
   0   7  -1 1253.73 53.8340   3
   0   7   0 2364.67 87.7431   3
   0  -7   0 2298.06 80.0253   1
   0  -7   1 1113.81 44.7516   1
   0   7   1 1242.40 52.2756   3
   0  -7   2 934.446 39.0410   1
   0   7   2 1066.56 46.2836   3
   0  -7   3 1086.62 45.9534   1
   0   7   3 1332.76 53.2417   3
   0  -7   4 1093.12 48.0789   1
   0   7   4 1297.91 54.4206   3
   0  -7   5 602.418 32.2839   1
   0   7   5 663.541 37.2600   3
   0  -7   6 1315.92 59.2273   1
   0   7   6 1497.42 62.8203   3
   0  -7   7 836.070 45.3625   1
   0   7   7 913.398 45.6786   3
   0  -7   8 513.740 33.3348   1
   0  -7   9 447.190 32.7725   1
   0   8  -7 769.041 51.8179   5
   0   8  -6 345.433 29.9785   5
   0   8  -5 804.868 43.6102   5
   0  -8  -5 786.783 39.1661   8
   0  -8  -4 773.153 37.8556   8
   0   8  -4 770.446 41.0835   5
   0   8  -4 710.409 39.2164   3
   0   8  -3 1535.31 63.6912   3
   0  -8  -3 1436.73 59.7424   8
   0  -8  -2 1369.87 56.3668   8
   0   8  -2 1215.26 55.1764   3
   0   8  -1 1135.86 51.9619   3
   0  -8  -1 1148.26 50.4735   8
   0  -8   0 2.54600 5.89343   8
   0   8   0 5.60004 10.1636   3
   0  -8   0 1.81285 3.90781   1
   0  -8   1 996.290 40.3245   1
   0   8   1 1161.28 50.1855   3
   0   8   2 1364.81 57.3673   3
   0  -8   2 1150.60 46.9123   1
   0  -8   3 1384.78 56.3274   1
   0   8   3 1652.90 65.9681   3
   0  -8   4 757.721 36.9711   1
   0   8   4 833.838 42.5070   3
   0  -8   5 805.885 40.2970   1
   0   8   5 916.039 45.7570   3
   0  -8   6 373.782 26.3059   1
   0   8   6 423.180 30.3084   3
   0  -8   7 632.181 38.6400   1
   0   8   7 696.947 40.1209   3
   0  -8   8 168.544 19.2568   1
   0  -8   9 615.729 40.0728   1
   0   9  -7 172.955 27.2554   5
   0   9  -6 119.904 19.7430   5
   0  -9  -5 260.775 20.8029   8
   0   9  -5 228.702 22.9274   5
   0   9  -4 134.998 18.2049   5
   0  -9  -4 162.278 16.2074   8
   0  -9  -3 374.108 26.1471   8
   0   9  -3 362.203 27.7262   3
   0   9  -2 1013.45 49.4758   3
   0  -9  -2 1023.10 48.2140   8
   0   9  -1 2699.38 102.346   3
   0  -9  -1 2598.69 98.5754   8
   0   9   0 1570.67 68.3269   3
   0  -9   0 1550.99 66.2635   8
   0  -9   1 2164.25 78.7271   1
   0   9   1 2601.20 93.0065   3
   0   9   2 997.421 47.4961   3
   0  -9   2 829.159 37.0379   1
   0  -9   3 331.797 21.2276   1
   0   9   3 408.911 30.0455   3
   0  -9   4 168.227 15.4252   1
   0   9   4 170.767 21.1722   3
   0  -9   5 256.990 20.3091   1
   0   9   5 305.196 26.5195   3
   0  -9   6 128.513 15.4180   1
   0   9   6 146.268 20.2631   3
   0  -9   7 133.670 16.5724   1
   0   9   7 134.809 20.0167   3
   0  -9   8 333.078 26.8530   1
   0  -9   9 349.867 29.5334   1
   0  10  -7 194.086 30.3102   5
   0  10  -6 1078.07 58.0821   5
   0 -10  -5 381.992 27.0006   8
   0  10  -5 367.576 29.9745   5
   0 -10  -4 764.881 41.7794   8
   0 -10  -3 168.906 17.9620   8
   0  10  -3 152.679 21.3391   3
   0 -10  -2 270.162 22.8501   8
   0  10  -2 286.718 25.6658   3
   0  10  -1 3467.54 130.417   3
   0 -10  -1 3528.45 128.737   8
   0  10   0 495.197 34.7359   3
   0 -10   0 476.846 31.4704   8
   0  10   1 3347.50 125.754   3
   0 -10   2 192.714 14.7064   1
   0  10   2 255.748 25.5899   3
   0 -10   3 141.285 13.5526   1
   0  10   3 145.644 21.0083   3
   0 -10   4 701.529 36.7694   1
   0  10   4 852.699 47.9003   3
   0 -10   5 380.242 25.7509   1
   0  10   5 441.005 33.4572   3
   0 -10   6 1105.26 53.7184   1
   0  10   6 1253.26 61.2773   3
   0 -10   7 163.155 18.5707   1
   0  10   7 177.509 24.1999   3
   0 -10   8 70.9157 14.1833   1
   0 -11  -5 1034.01 52.4183   8
   0 -11  -4 393.369 28.9581   8
   0  11  -3 641.025 41.7581   3
   0 -11  -3 592.991 36.5926   8
   0  11  -2 313.964 28.9957   3
   0 -11  -2 354.752 27.3610   8
   0  11  -1 184.133 24.5915   3
   0 -11  -1 193.097 20.3793   8
   0  11   0 164.269 23.4043   3
   0  11   1 204.688 26.4245   3
   0  11   2 322.692 30.3095   3
   0 -11   3 536.811 29.9381   1
   0  11   3 694.084 43.4192   3
   0 -11   4 371.736 24.8608   1
   0  11   4 404.045 33.6642   3
   0 -11   5 926.887 46.4491   1
   0  11   5 1166.26 59.2540   3
   0 -11   6 15.1312 8.63474   1
   0  11   6 27.1939 16.9204   3
   0 -11   7 499.973 34.4276   1
   0  11   7 556.372 40.5564   3
   0 -12  -5 111.430 16.3455   8
   0 -12  -4 513.817 34.5612   8
   0 -12  -3 366.669 28.9907   8
   0  12  -2 701.052 45.6966   3
   0 -12  -2 624.245 40.2625   8
   0  12  -1 403.619 34.9724   3
   0 -12  -1 373.032 28.7247   8
   0  12   0 65.5360 20.8285   3
   0  12   1 502.200 39.8246   3
   0  12   2 711.465 48.4156   3
   0  12   3 417.520 36.7130   3
   0 -12   4 440.170 27.9732   1
   0  12   4 544.855 41.0654   3
   0 -12   5 107.432 14.4414   1
   0  12   5 142.270 24.5187   3
   0 -12   6 84.6471 13.8783   1
   0  12   6 101.140 21.6286   3
   0 -13  -5 61.7837 14.1921   8
   0 -13  -4 619.297 41.0174   8
   0 -13  -3 13.1755 9.41405   8
   0  13  -2 1271.20 67.0141   3
   0 -13  -2 1065.11 57.7268   8
   0  13  -1 62.8473 21.0383   3
   0  13   0 246.880 32.3913   3
   0  13   1 78.6957 22.3601   3
   0  13   2 1339.75 73.1028   3
   0  13   3 13.5647 18.3676   3
   0  13   4 688.049 49.4534   3
   0  13   5 67.3743 21.9872   3
   0 -14  -3 201.856 23.1657   8
   0  14  -2 247.370 33.4039   3
   0  14  -1 899.814 58.7745   3
   0  14   0 67.6562 24.1353   3
   0  14   1 976.212 64.4434   3
   0  14   2 250.818 33.5823   3
   0  14   3 278.547 36.3453   3
   1   0 -11 6.71532 12.5860   6
   1   0  -7 4.54188 7.17265   7
   1   0  -6 1660.59 71.5239   7
   1   0  -5 1.77229 7.05406   7
   1   0  -5 2.89638 8.57105   5
   1   0  -4 10976.8 355.477   7
   1   0  -4 11568.2 349.316   5
   1   0  -3 6.27240 5.69398   5
   1   0  -3 5.28578 2.11820   3
   1   0  -3 3.88856 4.67111   9
   1   0  -2 6335.93 191.521   3
   1   0  -1 7.34636 4.46653   2
   1   0  -1-1.18502 4.80356   9
   1   0   0 2930.58 97.7392   9
   1   0   0 2930.58 101.036  11
   1   0   1 7.60475 3.66284  11
   1   0   1 9.68404 4.68167   6
   1   0   1 9.28497 5.11228   4
   1   0   1 13.2563 5.00225  10
   1   0   1 6.00647 2.94238   9
   1   0   2 538.682 21.5616   6
   1   0   2 121.760 12.2893   4
   1   0   3 3.74863 5.34341   4
   1   0   3 5.88445 4.29986   1
   1   0   4 1575.24 54.9763   1
   1   0   5 3.61485 7.94479   3
   1   0   5 4.77632 4.47458   1
   1   0   6 4447.81 138.847   1
   1   0   6 3887.63 142.798   3
   1   0   7-0.57732 7.80524   3
   1  -1 -11 235.394 31.8410   6
   1  -1 -10 614.720 43.0286   6
   1  -1  -7 930.601 49.4502   7
   1   1  -7 887.453 50.3971   7
   1  -1  -6 602.562 37.2689   7
   1   1  -6 887.455 44.7950   5
   1  -1  -5 367.254 25.2756   7
   1   1  -5 444.774 26.8584   5
   1  -1  -4 884.247 42.3834   7
   1   1  -4 986.979 41.1240   5
   1  -1  -3 569.492 28.5644   7
   1  -1  -3 665.483 24.5210   5
   1  -1  -3 571.343 19.0902   3
   1  -1  -2 4193.71 140.651   7
   1   1  -2 4384.30 131.155   3
   1  -1  -2 4486.10 134.350   5
   1  -1  -2 4167.02 132.727   3
   1  -1  -1 21080.3 636.061   7
   1   1  -1 21606.7 631.211   3
   1   1  -1 21379.9 631.387   4
   1  -1  -1 20547.6 632.850   3
   1   1  -1 20826.1 634.051   9
   1  -1   0 5444.86 180.937   7
   1   1   0 5841.82 179.780   4
   1  -1   0 5640.03 181.595   3
   1  -1   0 5998.97 181.258   2
   1  -1   0 6063.73 183.474  11
   1   1   0 6031.82 179.237   2
   1  -1   1 1468.38 49.9573   6
   1   1   1 1677.82 50.7715  10
   1   1   1 1351.08 50.9470   3
   1   1   1 1433.57 47.7696   2
   1  -1   1 1600.49 53.0033  10
   1   1   1 1460.15 48.2528  11
   1   1   2 6465.16 231.005   6
   1   1   2 6942.15 230.532   3
   1   1   3 5814.16 173.237   1
   1   1   3 5783.10 182.290   3
   1   1   3 5347.00 179.520   4
   1  -1   3 5971.33 177.120   1
   1  -1   4 1229.07 45.8098   1
   1   1   4 1134.26 49.8182   3
   1   1   4 1262.21 43.5870   1
   1   1   5 1398.35 48.6459   1
   1  -1   5 1352.43 50.1616   1
   1   1   6 87.2467 12.6023   3
   1  -1   6 108.676 11.0688   1
   1  -1   6 87.6695 13.5377   3
   1  -1   7 555.977 28.5730   1
   1   1   7 481.426 29.2652   3
   1  -1   7 522.631 32.4122   3
   1  -2 -10 218.099 28.6353   6
   1  -2  -9 794.088 48.1763   6
   1  -2  -6 498.048 32.9289   7
   1   2  -6 594.480 34.4872   5
   1  -2  -5 3219.65 115.229   7
   1   2  -5 3121.45 111.749   5
   1  -2  -4 224.497 12.1389   3
   1  -2  -4 269.712 20.3738   7
   1   2  -4 281.826 19.5988   5
   1  -2  -3 3856.91 118.157   7
   1  -2  -3 3429.78 104.223   3
   1  -2  -2 42.4393 8.63806   7
   1   2  -2 64.2651 5.13329   3
   1  -2  -2 49.3263 7.67487   2
   1   2  -2 28.5869 6.25724   1
   1  -2  -2 44.0151 5.83223   3
   1   2  -1 13041.3 378.781   3
   1  -2  -1 13310.4 387.196  11
   1  -2   0 395.508 13.2938   6
   1   2   0 522.534 19.2855   3
   1  -2   0 372.712 18.6244   3
   1  -2   0 571.683 23.5076  11
   1  -2   0 427.041 21.6832  10
   1   2   1 1816.16 64.6768   3
   1   2   1 1843.58 60.6773  11
   1  -2   1 1857.73 66.6857  10
   1   2   1 1780.83 59.5885   2
   1   2   2 2087.57 68.1067   8
   1  -2   2 2327.08 67.9076   8
   1   2   2 1910.81 75.2173   6
   1   2   2 2111.90 73.9135   3
   1  -2   2 1707.34 72.2750   3
   1  -2   2 2549.16 76.9849  10
   1   2   3 2214.71 79.2370   3
   1   2   3 2317.64 71.2094   1
   1  -2   4 734.134 32.2169   1
   1   2   4 646.137 33.6332   3
   1   2   5 2529.83 92.1516   3
   1  -2   5 2601.40 88.0490   1
   1   2   6 108.495 14.0942   3
   1  -2   6 124.038 12.4550   1
   1  -2   7 247.131 19.0128   1
   1   2   7 162.125 16.3023   3
   1  -2   8 91.2039 13.4352   1
   1  -3  -9 323.208 30.4229   6
   1  -3  -8 991.382 52.8886   6
   1  -3  -7 1020.98 51.8112   6
   1   3  -7 1235.73 62.3890   5
   1  -3  -6 1265.94 54.2711   6
   1   3  -6 1390.44 60.5870   5
   1  -3  -5 2145.15 77.8610   6
   1   3  -5 2323.07 85.2164   5
   1  -3  -4 256.782 13.4340   3
   1   3  -3 888.443 38.6266   1
   1  -3  -3 1030.23 39.0732   2
   1  -3  -3 971.356 34.4975   6
   1   3  -3 1013.26 32.5182   3
   1  -3  -3 840.849 34.2352   3
   1  -3  -2 1067.51 32.1982   6
   1  -3  -2 795.594 33.2620   3
   1  -3  -2 747.354 35.1771   2
   1   3  -2 848.282 35.4259   1
   1   3  -2 1026.63 32.3147   3
   1   3  -1 3827.48 98.7953   3
   1  -3  -1 3224.74 104.031  11
   1  -3  -1 3155.98 99.5558   2
   1  -3  -1 2425.43 96.6383   3
   1   3  -1 2812.11 97.0688   1
   1   3   0 6838.07 181.158   3
   1  -3   0 5936.63 184.474  11
   1   3   0 5371.00 176.156   1
   1  -3   0 4930.23 179.551   3
   1   3   0 5933.20 175.688  10
   1  -3   0 6026.87 184.683  10
   1   3   1 687.237 27.1659   3
   1   3   1 670.165 21.6700   1
   1  -3   1 568.420 26.5710  10
   1   3   1 554.569 23.6139   8
   1  -3   2 2402.64 66.0542   8
   1   3   2 1752.76 64.2756   8
   1   3   2 2056.52 68.9092   3
   1  -3   2 1673.66 64.1146   5
   1  -3   2 1807.09 68.2933   3
   1  -3   2 2507.69 73.9736  10
   1  -3   3 1698.84 56.3505   1
   1   3   3 1499.71 55.6266   3
   1   3   4 1007.57 43.8651   3
   1  -3   4 1182.52 44.4697   1
   1   3   5 1307.82 55.7204   3
   1  -3   5 1520.46 55.7115   1
   1   3   6 966.326 46.5082   3
   1  -3   6 1100.46 45.7672   1
   1   3   7 111.467 15.6345   3
   1  -3   7 129.537 13.7554   1
   1  -3   8 100.953 13.3439   1
   1   3   8 84.8239 13.8382   3
   1   4  -8 64.8056 19.8854   5
   1   4  -7 795.612 45.9040   5
   1  -4  -6 896.905 42.7814   6
   1   4  -6 704.664 41.2776   5
   1  -4  -5 278.968 20.6251   6
   1   4  -5 183.138 18.9956   5
   1  -4  -4 4025.07 144.695   3
   1  -4  -4 5792.03 150.969   6
   1  -4  -3 1294.46 40.0080   6
   1   4  -3 1131.99 37.5129   3
   1  -4  -3 934.823 38.5091   3
   1  -4  -3 851.021 39.4810   2
   1   4  -2 1676.53 58.5153   1
   1  -4  -2 1799.61 65.9068  11
   1  -4  -2 1658.09 59.5511   2
   1  -4  -1 3702.45 125.610   2
   1   4  -1 3927.52 122.988   1
   1  -4  -1 4093.79 131.556  11
   1   4   0 772.046 25.7046   1
   1  -4   0 730.295 34.0395  10
   1   4   1 3371.63 98.6674   1
   1  -4   1 3658.18 111.985  10
   1  -4   2 545.985 22.1931   8
   1   4   2 365.586 19.3529   8
   1   4   2 507.083 24.6042   3
   1  -4   2 323.020 17.5860   5
   1  -4   2 503.124 25.0965  10
   1   4   3 2800.47 87.8870   3
   1  -4   3 2751.48 86.4681   1
   1   4   4 410.696 24.2251   3
   1  -4   4 390.936 22.2095   1
   1   4   5 2041.94 78.6481   3
   1  -4   5 2166.16 77.5357   1
   1   4   6 2840.92 106.350   3
   1  -4   6 3145.72 106.395   1
   1   4   7 110.555 14.5107   3
   1  -4   7 126.102 14.2698   1
   1   4   8 947.312 47.4793   3
   1  -4   8 1120.96 50.5391   1
   1  -4   9 222.368 21.6535   1
   1   5  -8 741.572 51.2745   5
   1   5  -7 209.423 23.5894   5
   1   5  -6 279.985 24.7091   5
   1   5  -5 1296.31 58.2897   5
   1   5  -3 3496.84 110.865   3
   1  -5  -3 3321.61 119.825  11
   1   5  -2 1254.81 47.2649   1
   1  -5  -2 1444.47 56.4675  11
   1  -5  -2 1136.99 47.5773   2
   1   5  -2 1469.63 48.4801   3
   1  -5  -1 1426.22 56.6293  11
   1   5  -1 1312.86 48.4510   1
   1   5   0 563.618 27.1816   3
   1  -5   0 503.295 28.0121  10
   1  -5   1 201.614 15.9764  10
   1   5   1 162.393 13.4561   8
   1  -5   2 5362.33 186.131  10
   1  -5   2 5745.52 184.108   8
   1   5   3 233.635 18.4565   3
   1  -5   3 189.857 15.3434   1
   1   5   4 186.173 17.0810   3
   1  -5   4 160.344 14.1435   1
   1  -5   5 1964.72 74.6855   1
   1   5   5 2021.84 77.6386   3
   1   5   6 2217.11 85.7662   3
   1  -5   6 2178.33 82.4269   1
   1   5   7 534.606 33.1857   3
   1  -5   7 579.376 32.8778   1
   1   5   8 730.756 41.7856   3
   1  -5   8 764.003 41.6683   1
   1  -5   9 908.528 48.7623   1
   1  -5  10 99.3960 16.1057   1
   1   6  -8 1202.83 65.3173   5
   1   6  -7 364.051 30.6536   5
   1   6  -6 382.460 30.2565   5
   1   6  -5 214.151 20.7941   5
   1  -6  -4 220.147 18.8288  11
   1  -6  -3 1073.23 48.5434  11
   1  -6  -2 577.937 31.5923  11
   1   6  -2 628.022 28.6049   3
   1   6  -1 891.552 39.8248   3
   1  -6   0 2873.93 103.465  10
   1   6   0 2989.46 100.403   3
   1  -6   1 1147.47 47.8863   8
   1  -6   1 1081.01 48.1369  10
   1   6   2 4450.30 144.369   3
   1  -6   2 4040.72 141.565  10
   1  -6   2 4321.23 140.913   8
   1   6   3 862.643 40.7647   3
   1  -6   3 714.016 35.8580   1
   1   6   4 1522.76 60.6258   3
   1  -6   4 1172.60 52.0039   1
   1   6   5 2393.87 87.0592   3
   1  -6   5 1867.32 76.6251   1
   1   6   6 84.1856 16.2915   3
   1  -6   6 76.8117 11.7459   1
   1   6   7 233.377 23.1814   3
   1  -6   7 219.094 19.8082   1
   1   6   8 23.5738 12.4814   3
   1  -6   8 22.9553 9.30210   1
   1  -6   9 168.049 19.3410   1
   1   7  -9 254.138 34.1262   5
   1   7  -8 171.771 24.8695   5
   1   7  -7 789.016 47.2378   5
   1   7  -6 1087.12 56.7309   5
   1  -7  -4 1152.81 52.2416  11
   1  -7  -3 260.017 20.0481  11
   1  -7  -2 2968.76 106.426  11
   1   7  -2 3051.31 103.183   3
   1  -7  -1 1529.37 63.8034  10
   1   7  -1 1668.79 62.3862   3
   1  -7   0 1583.25 64.3590   8
   1  -7   0 1544.67 64.3600  10
   1  -7   1 1061.09 45.9456   8
   1  -7   1 1014.80 45.1657  10
   1   7   1 1046.32 45.9189   3
   1  -7   2 626.088 31.9657   8
   1  -7   2 612.475 32.4956   1
   1  -7   2 569.517 30.8928  10
   1   7   2 629.635 33.6184   3
   1   7   3 387.051 26.6954   3
   1  -7   3 351.773 23.3675   1
   1   7   4 655.800 35.6512   3
   1  -7   4 535.590 30.1827   1
   1   7   5 1530.51 63.5077   3
   1  -7   5 1306.95 57.6951   1
   1   7   6 411.329 29.0751   3
   1  -7   6 399.964 26.6907   1
   1  -7   7 66.0633 12.4681   1
   1   7   7 58.0217 14.0586   3
   1   7   8 565.544 36.5461   3
   1  -7   8 535.928 33.9941   1
   1  -7   9 570.559 36.1124   1
   1   8  -9 234.577 34.1978   5
   1   8  -8 74.3952 18.8215   5
   1   8  -7 1719.18 79.4691   5
   1   8  -6 1405.42 68.2829   5
   1  -8  -3 91.9455 11.9068  11
   1   8  -2 1223.60 51.5247   3
   1  -8  -1 2505.47 94.1417  10
   1   8  -1 2596.19 93.4545   3
   1  -8   0 655.746 34.5978   8
   1  -8   0 651.257 32.8197  10
   1  -8   1 589.513 32.5079   8
   1  -8   1 521.022 30.2093  10
   1   8   1 595.170 33.6558   3
   1  -8   2 11.6995 6.57901   8
   1  -8   2 12.9745 7.34571   1
   1   8   2 11.0445 9.82866   3
   1  -8   3 1889.51 73.8211   1
   1   8   3 1920.50 76.6678   3
   1  -8   4 803.184 39.8144   1
   1   8   4 881.977 44.4976   3
   1   8   5 719.164 40.1170   3
   1  -8   5 649.601 35.5719   1
   1   8   6 410.405 30.1701   3
   1  -8   6 376.697 26.3094   1
   1   8   7 46.5342 13.5406   3
   1  -8   7 44.7701 11.1725   1
   1  -8   8 81.0458 14.2007   1
   1   8   8 74.3532 16.6045   3
   1   9  -8 136.709 23.6014   5
   1   9  -7 13.9736 13.6408   5
   1   9  -6 260.551 27.7357   5
   1   9  -2 2328.69 88.0137   3
   1  -9  -1 139.798 15.9307   8
   1   9  -1 151.308 18.1422   3
   1  -9   0 875.893 44.7410   8
   1   9   0 995.925 47.5041   3
   1  -9   1 595.164 34.1623   8
   1  -9   2 41.1444 10.2380   8
   1  -9   2 33.7523 8.95482   1
   1   9   2 53.0458 15.2197   3
   1  -9   3 218.805 18.3479   1
   1   9   3 232.496 23.0500   3
   1  -9   4 769.516 39.5407   1
   1   9   4 877.461 45.3954   3
   1  -9   5 413.074 27.3907   1
   1   9   5 434.559 30.8274   3
   1  -9   6 518.077 31.9335   1
   1   9   6 525.936 35.0098   3
   1  -9   7 388.175 28.4753   1
   1   9   7 398.949 30.9654   3
   1  -9   8 637.622 38.7705   1
   1   9   8 630.108 39.6934   3
   1  10  -8 176.468 26.7505   5
   1  10  -7 34.2844 15.4713   5
   1  10  -6 144.334 23.0024   5
   1 -10  -2 103.017 14.5155   8
   1 -10  -1 145.690 16.8454   8
   1  10  -1 164.387 20.1119   3
   1  10   0 2123.10 84.6953   3
   1 -10   0 1934.51 81.8385   8
   1 -10   1 1133.62 52.7754   1
   1  10   1 1304.24 60.6612   3
   1 -10   1 1316.28 58.9735   8
   1 -10   2 1135.32 52.1861   1
   1 -10   2 1300.35 58.2253   8
   1 -10   3 78.4773 11.6901   1
   1  10   3 98.2877 21.1014   3
   1 -10   4 127.881 15.2783   1
   1  10   4 131.757 21.7697   3
   1 -10   5 143.815 16.0173   1
   1  10   5 166.688 23.1157   3
   1  10   6 15.4763 13.6701   3
   1 -10   6 23.7924 9.24061   1
   1 -10   7 851.271 46.5970   1
   1  10   7 932.081 51.2818   3
   1  11  -7 493.943 40.5323   5
   1  11  -6 72.1816 18.6292   5
   1 -11  -4 274.046 24.0185   8
   1 -11  -3 231.687 22.0629   8
   1 -11  -2 13.2998 8.29533   8
   1 -11  -1 47.2334 12.4154   8
   1  11  -1 56.7834 16.3473   3
   1  11   0 1665.09 73.3278   3
   1 -11   0 1564.95 70.8471   8
   1  11   1 1203.99 59.7315   3
   1 -11   1 1255.84 58.6870   8
   1 -11   2 37.7519 10.3597   8
   1  11   2 63.0342 17.5270   3
   1 -11   2 38.5878 9.77248   1
   1 -11   3 1455.60 63.5294   1
   1  11   3 1847.54 77.9310   3
   1 -11   4 366.724 25.7881   1
   1 -11   5 127.377 15.2893   1
   1  11   5 210.283 28.2328   3
   1 -11   6 251.334 22.4587   1
   1  11   6 284.900 32.6445   3
   1 -12  -6 628.474 40.0041   8
   1  12  -6 644.276 47.0056   5
   1 -12  -5 238.034 23.2280   8
   1 -12  -4 236.132 22.7655   8
   1 -12  -3 362.128 28.8711   8
   1 -12  -2 856.395 48.5602   8
   1  12  -1 120.287 21.9321   3
   1 -12  -1 108.788 16.6963   8
   1  12   0 1301.65 64.8960   3
   1 -12   0 1208.75 61.2890   8
   1  12   1 147.284 24.2118   3
   1 -12   1 165.918 20.3397   8
   1 -12   2 23.8091 8.26546   1
   1  12   2 47.0963 16.8857   3
   1 -12   3 28.5126 9.45397   1
   1  12   3 34.8719 18.1707   3
   1  12   4 467.504 37.6212   3
   1 -12   4 391.770 27.2337   1
   1 -12   5 428.969 29.2650   1
   1  12   5 513.237 39.3547   3
   1 -13  -5 11.8368 9.69153   8
   1 -13  -4 334.113 29.1882   8
   1 -13  -3 76.3786 15.6406   8
   1 -13  -2 662.028 42.2055   8
   1 -13  -1 15.5371 10.0590   8
   1  13   0 435.026 37.9863   3
   1 -13   0 457.280 35.0262   8
   1 -13   1 64.5843 14.1879   8
   1  13   1 78.9573 20.8431   3
   1  13   2 318.337 33.6079   3
   1 -13   3 101.717 14.3039   1
   1  13   3 149.033 26.1531   3
   1 -13   4 469.656 30.2033   1
   1  13   4 568.163 44.1732   3
   1 -14  -3 505.467 36.9561   8
   1 -14  -2 198.337 23.5264   8
   1 -14  -1 297.297 29.2553   8
   1  14   0 673.008 50.2975   3
   1 -14   0 566.611 40.8332   8
   1  14   1 105.498 24.3551   3
   1  14   2 34.9016 20.5853   3
   2   0  -9 13.0995 13.5864   7
   2   0  -8 2309.03 102.667   7
   2   0  -7 10.7578 9.36965   7
   2   0  -7 3.86549 13.0719   5
   2   0  -6 2087.92 95.0592   7
   2   0  -6 2410.69 88.9690   5
   2   0  -5 0.94307 8.69573   7
   2   0  -5 3.53369 7.37208   5
   2   0  -4 773.170 44.6874   7
   2   0  -3-0.25078 8.47206   7
   2   0  -2 108.916 15.2538   7
   2   0  -1-0.18980 6.62344   7
   2   0   0 124.702 13.3617   7
   2   0   0 128.724 12.4853  11
   2   0   0 128.259 13.2501  10
   2   0   0 95.6300 10.3797   9
   2   0   1 0.47320 5.19156   2
   2   0   1 1.80812 4.96775   6
   2   0   1 2.39894 4.76778  11
   2   0   1 4.92024 5.98523  10
   2   0   2 5095.02 170.859  10
   2   0   5 5.56930 10.2889   3
   2   0   6 1457.27 69.6267   3
   2   0   7 4.04884 12.7787   3
   2   0   8 117.169 20.2339   3
   2  -1  -9 1836.15 89.6115   7
   2   1  -9 1620.37 85.6024   7
   2  -1  -8 257.041 28.4199   7
   2   1  -8 220.076 26.9562   7
   2  -1  -7 805.725 50.1774   7
   2   1  -7 841.329 53.5698   7
   2   1  -7 874.427 46.8333   5
   2  -1  -6 485.555 35.5244   7
   2   1  -6 544.110 40.4093   7
   2   1  -6 556.718 33.0477   5
   2  -1  -5 790.383 46.0370   7
   2  -1  -5 838.058 39.1059   5
   2   1  -5 831.914 41.1818   5
   2  -1  -4 750.612 44.2589   7
   2  -1  -4 897.539 37.9640   5
   2  -1  -3 205.004 20.0228   7
   2  -1  -2 6000.82 203.712   7
   2  -1  -2 6312.92 196.750   3
   2  -1  -1 21.1449 7.53870   7
   2  -1  -1 13.4038 6.61850   3
   2  -1  -1 23.1119 7.87849  11
   2  -1   0 566.883 30.6970   7
   2   1   0 719.926 33.6404  10
   2  -1   0 698.471 34.7807  11
   2  -1   0 685.538 34.7135  10
   2   1   0 570.037 30.1693  11
   2   1   0 730.854 31.1596   2
   2   1   0 639.035 28.9360   9
   2  -1   1 1348.95 55.3573   7
   2   1   1 1394.25 54.9692  11
   2   1   1 1576.70 57.4091  10
   2  -1   1 1514.14 59.7357  10
   2   1   1 1409.31 54.0617   2
   2  -1   1 1388.69 56.9636  11
   2   1   2 366.323 23.4832  10
   2  -1   2 330.445 23.4043  10
   2   1   3 1511.40 64.7971   3
   2  -1   4 785.518 37.4887   1
   2   1   4 798.723 44.1989   3
   2   1   5 514.522 35.2694   3
   2   1   6 14.7102 11.5042   3
   2   1   7 572.464 38.1164   3
   2  -1   7 626.587 41.6417   3
   2   1   8 898.747 51.2897   3
   2  -1   8 1002.51 55.5688   3
   2   2  -9 767.043 54.4711   7
   2  -2  -8 16.8757 11.8267   7
   2   2  -8 30.2086 14.3705   7
   2   2  -8 20.5467 15.2193   5
   2  -2  -7 542.018 40.3800   7
   2   2  -7 563.254 36.9013   5
   2  -2  -6 170.122 21.8652   7
   2   2  -6 181.187 19.6020   5
   2  -2  -5 1887.65 83.6824   7
   2  -2  -4 211.803 21.7798   7
   2  -2  -3 1981.20 80.9988   7
   2  -2  -2 2423.57 90.3660   7
   2   2  -2 2394.60 79.1945   3
   2  -2  -2 2193.41 80.6464   3
   2  -2  -1 2983.09 107.259   7
   2   2  -1 3106.29 101.036   3
   2   2  -1 3123.88 100.644   4
   2   2   0 1334.42 50.7913   2
   2  -2   0 1357.37 57.5339  11
   2   2   0 1314.40 53.5555  10
   2  -2   0 1207.96 55.7022  10
   2   2   1 4106.17 128.494   3
   2   2   1 3925.24 124.172  10
   2  -2   1 3656.02 127.387  10
   2   2   2 288.871 22.3362   3
   2   2   2 315.337 20.1892  10
   2  -2   2 274.779 21.6239  10
   2   2   3 599.494 35.1894   3
   2  -2   3 634.398 34.5036  10
   2   2   4 104.954 16.0301   3
   2  -2   4 104.893 13.1906   1
   2   2   5 1345.11 61.9431   3
   2  -2   5 1376.21 56.2274   1
   2   2   6 121.499 18.2120   3
   2   2   7 651.109 40.5750   3
   2   2   8 168.947 23.4076   3
   2  -2   8 168.843 24.2461   3
   2   3  -9 223.063 30.2437   7
   2   3  -9 269.859 32.9654   5
   2   3  -8 160.110 22.8499   5
   2   3  -7 110.650 18.0222   5
   2   3  -6 14.7533 11.0177   5
   2   3  -2 4076.84 124.131   3
   2  -3  -2 3389.50 135.215  11
   2   3  -1 1668.33 49.8709   4
   2  -3  -1 1674.11 61.6308  11
   2   3   0 556.045 28.0234   3
   2  -3   0 521.688 30.8838  11
   2   3   0 546.721 27.5233  10
   2  -3   0 508.569 31.2425  10
   2   3   1 1623.09 65.0055   3
   2  -3   1 1583.94 67.6082  10
   2   3   2 866.026 41.8116   3
   2  -3   2 902.274 44.0516  10
   2   3   3 874.343 43.9450   3
   2  -3   3 966.945 46.0796  10
   2   3   4 265.805 23.0291   3
   2  -3   4 274.758 21.4565   1
   2   3   5 251.083 23.1974   3
   2  -3   5 254.080 19.9932   1
   2  -3   6 505.652 29.8016   1
   2   3   6 533.342 35.9108   3
   2   3   7 623.797 39.3150   3
   2   3   8 735.737 43.6766   3
   2   3   9 2.28970 13.2413   3
   2   4  -9 237.445 30.8202   5
   2   4  -8 676.010 44.3559   5
   2   4  -7 173.685 21.6782   5
   2   4  -6 1300.42 61.5003   5
   2  -4  -3 485.455 32.6258  11
   2  -4  -2 466.070 30.6923  11
   2   4  -1 2837.04 92.6879   3
   2  -4  -1 2325.45 99.0909  11
   2   4   0 985.063 41.1497   3
   2  -4   0 906.837 45.2976  11
   2  -4   0 897.387 45.4817  10
   2   4   1 595.983 30.3246   3
   2  -4   1 541.823 31.9204  10
   2   4   2 1887.13 72.7881   3
   2  -4   2 1830.64 75.3194  10
   2   4   3 600.000 34.0655   3
   2  -4   3 620.628 35.3424  10
   2   4   4 2244.07 88.8821   3
   2  -4   4 2341.10 88.4535   1
   2   4   5 1415.22 63.6558   3
   2  -4   5 1533.76 62.9733   1
   2  -4   6 272.993 21.2541   1
   2   4   6 250.903 23.7721   3
   2   4   7 243.854 26.1494   3
   2  -4   7 234.189 19.6542   1
   2   4   8-0.31372 13.0166   3
   2   4   9 589.880 39.7659   3
   2   5 -10 24.6521 19.5296   5
   2   5  -9 274.635 30.6364   5
   2   5  -8 542.245 39.5840   5
   2   5  -7 1292.31 65.1548   5
   2   5  -6 663.372 40.1237   5
   2  -5  -4 86.2304 15.3279  11
   2  -5  -3 132.850 16.8579  11
   2  -5  -2 606.395 38.0409  11
   2   5  -1 327.003 20.5669   3
   2  -5  -1 266.074 22.8994  11
   2   5   0 625.288 31.0996   3
   2  -5   0 523.982 33.5870  10
   2   5   1 465.024 27.2598   3
   2  -5   1 380.971 26.3123  10
   2   5   2 891.370 43.2097   3
   2  -5   2 796.492 42.8189  10
   2   5   3 1993.11 79.9834   3
   2  -5   3 1904.70 78.8349  10
   2   5   4 3332.03 119.779   3
   2  -5   4 3041.54 115.170   1
   2   5   5 1493.40 66.9577   3
   2  -5   5 1410.60 61.7732   1
   2   5   6 168.849 21.4681   3
   2  -5   6 176.117 17.8148   1
   2   5   7 77.5464 16.4554   3
   2  -5   7 92.4949 13.8933   1
   2   5   8 136.974 20.5284   3
   2  -5   8 153.216 18.1164   1
   2   6  -9 50.4794 18.3591   5
   2   6  -8 37.8374 15.6744   5
   2   6  -7 150.740 22.6728   5
   2  -6  -5 183.089 21.3965  11
   2  -6  -4 557.115 37.2906  11
   2  -6  -3 1458.08 68.1145  11
   2  -6  -2 1927.58 81.9483  11
   2  -6  -1 907.383 49.3540  11
   2  -6  -1 865.547 48.1156  10
   2   6   0 2608.68 88.4565   3
   2  -6   0 1910.87 86.4762  10
   2   6   1 914.189 42.4069   3
   2  -6   1 716.553 40.4697  10
   2   6   2 499.243 30.5494   3
   2  -6   2 489.339 32.6142  10
   2   6   3 132.381 16.7467   3
   2  -6   3 132.305 16.4243  10
   2   6   4 46.1188 12.6122   3
   2  -6   4 45.0572 11.5940   1
   2   6   5 1116.86 54.7998   3
   2  -6   5 1170.90 53.8400   1
   2  -6   6 71.6558 12.7324   1
   2   6   6 80.5249 16.1167   3
   2   6   7 151.581 20.9361   3
   2  -6   7 157.627 17.4216   1
   2   6   8 858.015 49.3331   3
   2  -6   8 783.663 43.5519   1
   2   7  -9 86.6431 21.0834   5
   2   7  -8 427.315 36.3151   5
   2   7  -7 91.6161 19.2213   5
   2  -7  -6 608.790 40.9045  11
   2  -7  -5 317.235 27.8024  11
   2  -7  -4 1308.26 64.4368  11
   2  -7  -3 1966.60 84.9948  11
   2  -7  -2 122.093 16.7349  11
   2   7  -1 547.888 30.5803   3
   2  -7  -1 447.369 32.5699  10
   2   7   0 91.4064 14.6642   3
   2  -7   0 65.3076 13.0539  10
   2   7   1 1019.92 48.0312   3
   2  -7   1 757.070 43.8584  10
   2  -7   2 1139.63 56.1645  10
   2   7   3 79.7854 15.7118   3
   2  -7   3 74.4529 13.3563  10
   2   7   4 496.981 33.6986   3
   2  -7   4 427.196 29.4766   1
   2  -7   5 44.5829 11.2837   1
   2   7   5 52.3142 15.2234   3
   2   7   6 352.682 30.4660   3
   2  -7   6 342.823 26.0327   1
   2   7   7 753.182 46.3813   3
   2  -7   7 576.728 36.0069   1
   2  -7   8 208.341 21.6699   1
   2   8  -8 161.556 24.7496   5
   2   8  -7 77.3272 19.5050   5
   2  -8  -5 641.626 42.2748  11
   2  -8  -4 496.446 35.4839  11
   2  -8  -3 1715.33 75.4491  11
   2  -8  -2 78.1982 15.3675  10
   2  -8  -1 1064.54 56.3848  10
   2   8  -1 1285.92 52.9900   3
   2  -8   0 1125.32 58.0312  10
   2   8   0 1439.23 58.7617   3
   2  -8   1 677.165 37.2165   8
   2  -8   1 641.758 38.7384  10
   2   8   2 413.294 29.9666   3
   2  -8   2 348.193 27.8032  10
   2   8   3 487.243 33.5928   3
   2  -8   3 403.373 30.8037   1
   2   8   4 175.372 22.9362   3
   2  -8   4 141.395 17.5337   1
   2   8   5 262.615 27.5873   3
   2  -8   5 196.989 19.8855   1
   2   8   6 296.368 29.9069   3
   2  -8   6 248.985 23.0048   1
   2   8   7 424.448 35.2413   3
   2  -8   7 356.727 27.3870   1
   2   9  -8 923.697 58.2878   5
   2   9  -7 558.173 43.7106   5
   2  -9  -4 45.3564 10.9642  11
   2  -9  -3 217.889 21.9851  11
   2  -9  -2 283.238 25.8769  10
   2  -9  -1 51.2074 12.5362  10
   2  -9   0 435.743 30.6629  10
   2   9   0 567.157 33.4610   3
   2  -9   1 554.893 34.1730   8
   2  -9   1 608.053 37.2890  10
   2   9   1 665.431 38.2671   3
   2   9   2 1232.12 58.5646   3
   2  -9   2 1097.52 55.5046  10
   2   9   3 336.382 29.3258   3
   2  -9   3 315.955 26.8578   1
   2   9   4 865.284 47.9191   3
   2  -9   4 731.853 43.1301   1
   2   9   5 862.367 48.2871   3
   2  -9   5 689.625 40.5730   1
   2   9   6 278.649 28.8401   3
   2  10  -7 514.907 43.4351   5
   2 -10   0 245.369 22.9585   8
   2 -10   0 244.462 23.4581  10
   2  10   0 313.113 28.3728   3
   2 -10   1 3.96078 7.83285   8
   2  10   1 1.83269 12.3153   3
   2 -10   1 2.92063 8.07374  10
   2 -10   2 176.824 19.7355  10
   2  10   2 147.811 21.5555   3
   2 -10   3 869.657 48.0953   1
   2  10   3 994.063 52.0319   3
   2  10   4 6.97544 13.3338   3
   2 -10   4 11.8081 9.70705   1
   2  10   5 761.560 45.9137   3
   2 -10   5 636.492 38.8103   1
   2  10   6 44.7774 17.0076   3
   2 -10   6 57.4312 13.6295   1
   2 -11  -1 2176.32 90.7845   8
   2 -11   0 201.650 21.2908   8
   2  11   1 146.407 23.8590   3
   2 -11   2 261.314 25.1921   1
   2  11   2 291.168 28.5463   3
   2 -11   3 200.224 21.3301   1
   2  11   3 185.160 24.5361   3
   2 -11   4 218.355 22.0053   1
   2  11   4 228.118 26.2484   3
   2 -11   5 9.32106 9.31958   1
   2  11   5-2.24680 15.3574   3
   2 -12  -2 167.864 20.4960   8
   2 -12  -1 127.627 18.3726   8
   2 -12   0 681.581 43.0014   8
   2  12   1 99.8095 20.8572   3
   2 -12   2 618.518 39.8541   1
   2  12   2 895.021 54.3339   3
   2 -12   3 168.404 20.5143   1
   2  12   3 205.782 28.9475   3
   2 -13  -3 60.7190 14.5095   8
   2 -13  -2 72.7513 15.0118   8
   2 -13  -1 559.279 39.7150   8
   2 -13   0 506.006 37.0200   8
   2 -13   1 85.7354 16.1112   1
   2  13   1 107.752 23.6225   3
   3   0  -9 19.6081 13.9238   7
   3   0  -8 309.452 33.8906   7
   3   0  -7 8.77768 11.1405   7
   3   0  -6 450.674 38.4462   7
   3   0  -5 5.53164 9.85619   7
   3   0  -4 258.723 27.2814   7
   3   0  -3-0.31554 8.61848   7
   3   0  -2 730.080 43.4962   7
   3   0  -1-1.24671 7.20634   7
   3   0  -1 3.04478 5.94029  11
   3   0  -1 1.84657 7.20952  10
   3   0   0 1308.77 60.1442  11
   3   0   0 1445.69 62.3848  10
   3   0   1 3.44844 6.02334  11
   3   0   1 2.20092 6.85234  10
   3   0   2 2660.56 103.564  10
   3   0   3 11.0995 8.38574  10
   3   0   4-0.66138 12.6913   3
   3   0   5-5.49945 14.4620   3
   3   0   6 548.176 44.6414   3
   3   0   7-2.41639 16.0471   3
   3  -1  -9 717.941 54.7330   7
   3   1  -9 595.335 49.7598   7
   3  -1  -8 11.4855 14.5456   7
   3   1  -8 10.1707 13.7857   7
   3  -1  -7 142.547 23.0472   7
   3   1  -7 161.835 24.7841   7
   3  -1  -6 683.264 47.6016   7
   3   1  -6 738.422 51.7023   7
   3  -1  -5 495.849 38.2308   7
   3   1  -5 625.277 45.3968   7
   3  -1  -4 421.773 33.8616   7
   3   1  -4 567.254 42.0831   7
   3  -1  -3 326.079 28.0836   7
   3   1  -3 364.688 32.2969   7
   3  -1  -2 92.9809 15.3064   7
   3   1  -2 93.7882 16.6778   7
   3  -1  -2 78.7640 13.1678  11
   3  -1  -1 726.415 41.0377   7
   3   1  -1 741.635 43.3005   7
   3  -1  -1 672.734 38.1590  11
   3  -1  -1 726.570 40.0462  10
   3   1  -1 722.485 38.4068  10
   3  -1   0 443.068 29.4518  11
   3   1   0 398.275 26.6705  11
   3   1   0 485.772 30.1775  10
   3  -1   0 459.795 30.7858  10
   3   1   1 482.606 32.2655   3
   3  -1   1 392.412 27.3444  11
   3   1   1 503.956 30.5378  10
   3  -1   1 433.485 29.0118  10
   3   1   2 0.79882 10.6121   3
   3   1   2 12.9563 9.60360  10
   3  -1   2 8.02007 9.26070  10
   3   1   3 86.9446 18.4380   3
   3  -1   3 98.1555 15.6832  10
   3   1   4 590.975 42.8056   3
   3   1   5 535.824 41.0785   3
   3   1   6 567.335 42.9225   3
   3  -1   6 550.373 42.6320   3
   3   1   7 244.148 29.8335   3
   3  -1   7 293.307 34.4781   3
   3  -2  -9 215.830 29.6519   7
   3   2  -9 183.187 28.6602   7
   3  -2  -8 80.9894 20.7690   7
   3   2  -8 52.7148 19.0045   7
   3  -2  -7 550.461 44.6660   7
   3   2  -7 532.182 46.0403   7
   3  -2  -6 62.6842 17.0473   7
   3   2  -6 50.5330 18.1385   7
   3  -2  -5 388.680 34.8231   7
   3  -2  -4 536.462 40.1379   7
   3  -2  -3 1221.72 63.5051   7
   3  -2  -2 207.339 23.4367   7
   3  -2  -2 212.860 21.2229  11
   3  -2  -1 519.434 33.8497   7
   3  -2  -1 473.020 32.3695  11
   3  -2  -1 421.139 29.7958  10
   3   2   0 141.694 18.3734   3
   3  -2   0 114.458 15.1493  11
   3  -2   0 130.202 16.4483  10
   3   2   1 958.593 48.2187   3
   3  -2   1 761.464 42.6043  10
   3   2   2 172.420 21.2307   3
   3  -2   2 162.525 18.8022  10
   3   2   3 833.860 48.3539   3
   3  -2   3 795.673 44.7976  10
   3   2   4 383.670 32.5979   3
   3   2   5 582.239 41.2536   3
   3   2   6 40.0503 18.1691   3
   3   2   7 334.788 34.3134   3
   3  -2   7 326.278 34.3786   3
   3   3  -9 92.6225 25.1284   7
   3   3  -8 280.424 36.4905   7
   3  -3  -3 1835.54 82.1209  11
   3  -3  -2 425.960 31.2264  11
   3  -3  -1 736.696 42.5059  11
   3  -3  -1 591.927 37.3523  10
   3   3   0 28.4782 10.1412   3
   3  -3   0 18.0667 9.04221  11
   3  -3   0 21.0409 9.79510  10
   3   3   1 103.497 15.7366   3
   3  -3   1 88.1533 14.0830  10
   3   3   2 556.507 34.9568   3
   3  -3   2 504.671 33.9625  10
   3   3   3 2030.52 84.7948   3
   3  -3   3 1934.58 83.2202  10
   3   3   4 399.357 32.4488   3
   3   3   5 62.3081 17.3106   3
   3   3   6 238.725 28.6258   3
   3   3   7 226.747 29.3212   3
   3   4  -8 77.0114 18.0378   5
   3   4  -7 487.253 36.8981   5
   3  -4  -4 264.413 27.1938  11
   3  -4  -3 1073.63 57.4521  11
   3  -4  -2 975.973 54.2420  11
   3  -4  -1 57.9236 12.7402  11
   3  -4  -1 57.7571 13.5216  10
   3  -4   0 772.895 46.2600  11
   3  -4   0 884.122 48.7839  10
   3   4   1 2.14272 9.86018   3
   3  -4   1 1.76643 7.64662  10
   3   4   2 989.162 49.9387   3
   3  -4   2 833.711 47.5198  10
   3   4   3 929.063 50.2441   3
   3  -4   3 840.015 47.6085  10
   3   4   4 0.64971 11.8019   3
   3  -4   5 123.804 17.0200   1
   3   4   5 154.988 23.2108   3
   3   4   6 73.4084 17.9405   3
   3   4   7 443.918 37.6401   3
   3   5  -8 125.656 22.4968   5
   3   5  -7 51.8720 16.7587   5
   3  -5  -5 5.06219 9.17255  11
   3  -5  -4 393.607 33.6167  11
   3  -5  -3 58.1597 14.3033  11
   3  -5  -2 5.58961 8.17871  11
   3  -5  -1 602.699 39.5602  11
   3  -5  -1 563.460 38.2503  10
   3   5   0 1126.61 50.6544   3
   3  -5   0 848.616 50.2389  10
   3   5   1 1118.52 50.7303   3
   3  -5   1 919.541 50.8542  10
   3   5   2 185.608 20.7787   3
   3  -5   2 176.110 20.5545  10
   3   5   3 228.400 22.3378   3
   3  -5   3 245.977 23.8557  10
   3   5   4 384.627 30.9160   3
   3   5   5 5.44730 13.2665   3
   3  -5   5 13.7495 9.15964   1
   3   5   6 186.213 26.7904   3
   3   6  -8 170.015 26.0255   5
   3   6  -7 307.224 31.0670   5
   3  -6  -7 364.295 34.4514  11
   3  -6  -6 392.143 35.5827  11
   3  -6  -5 434.158 36.5570  11
   3  -6  -4 1617.93 78.8674  11
   3  -6  -3 220.217 25.3032  11
   3  -6  -2 211.845 23.4577  11
   3  -6  -2 208.644 23.2495  10
   3  -6  -1 55.9487 13.4740  11
   3  -6  -1 42.7852 13.3292  10
   3  -6   0 264.997 25.0514  10
   3   6   1 18.2594 10.5044   3
   3  -6   1 16.7326 10.0282  10
   3   6   2 41.3158 13.4192   3
   3  -6   2 33.1024 11.8851  10
   3   6   3 83.0197 17.3772   3
   3  -6   3 59.7421 14.0334  10
   3   6   4 1085.76 57.5511   3
   3   6   5 491.808 37.0936   3
   3  -6   5 400.047 30.4062   1
   3   6   6 629.104 43.6858   3
   3  -6   6 556.466 35.6940   1
   3  -7  -7 217.930 27.6999  11
   3  -7  -6 42.3814 13.8996  11
   3  -7  -5 76.4032 16.1988  11
   3  -7  -4 385.548 35.1346  11
   3  -7  -3 635.648 43.8599  11
   3  -7  -2 487.002 36.3999  11
   3  -7  -2 445.681 34.2334  10
   3  -7  -1 247.098 25.5525  10
   3  -7   0 359.203 29.4416  10
   3   7   1 177.226 21.1991   3
   3  -7   1 129.208 18.2808  10
   3   7   2 797.384 44.1330   3
   3  -7   2 702.695 45.1090  10
   3   7   3 833.378 46.0549   3
   3  -7   3 685.506 43.6283  10
   3   7   4 696.390 42.4002   3
   3  -7   4 576.143 40.6290   1
   3  -7   5 51.5020 14.1661   1
   3   7   5 62.0272 17.4540   3
   3  -8  -7 208.303 26.2440  11
   3  -8  -6 10.8439 11.5891  11
   3  -8  -5 299.340 31.8901  11
   3  -8  -4 118.961 19.7808  11
   3  -8  -3 61.2929 15.0739  11
   3  -8  -2 405.266 33.9182  10
   3  -8  -1 591.022 40.6714  10
   3  -8   0 141.343 19.4231  10
   3   8   1 233.033 27.4979   3
   3  -8   1 157.041 20.4544  10
   3   8   2 213.392 25.8065   3
   3  -8   2 164.190 21.8628  10
   3   8   3 309.933 29.4339   3
   3  -8   3 238.104 24.7044  10
   3   8   4 43.0814 16.6277   3
   3  -8   4 36.1856 14.0397   1
   3   8   5 199.758 26.5841   3
   3  -8   5 159.323 21.6886   1
   3  -9  -6 22.2922 12.3515  11
   3  -9  -5 94.2584 18.9188  11
   3  -9  -4 283.242 28.9839  11
   3  -9  -3 53.5057 14.3545  11
   3  -9  -3 57.9812 15.4886  10
   3  -9  -2 294.465 28.9045  10
   3  -9  -1 197.166 24.4087  10
   3  -9   0 300.910 27.3295  10
   3  -9   1 379.627 31.2077  10
   3   9   2 279.759 28.9347   3
   3  -9   2 205.446 24.0668  10
   3   9   3 116.472 21.8442   3
   3  -9   3 96.5632 17.4405  10
   3   9   4 220.820 28.6379   3
   3  -9   4 142.556 21.0876   1
   3 -10  -4 367.390 32.6736  11
   3 -10  -4 377.279 36.2143  10
   3 -10  -3 16.0884 12.3204  10
   3 -10  -2 92.9856 18.8309  10
   3 -10  -1 330.781 29.9366  10
   3 -10   0 5.65388 10.3551  10
   3 -10   1 635.686 42.2103  10
   3  10   2 98.7818 20.8099   3
   3 -10   2 74.7725 15.8510  10
   3  10   3 13.8845 14.9595   3
   3 -10   3 1.71273 11.6062   1
   3 -11  -1 51.0364 13.5500  10
   3 -11   0 60.3428 14.8719  10
   3 -11   1 11.4442 10.9913  10
   4   0  -6 263.971 32.3591   7
   4   0  -5-3.95932 15.1504   7
   4   0  -4 659.796 47.0277   7
   4   0  -3-6.43550 13.8194   7
   4   0  -3 7.28646 7.39327  11
   4   0  -2 566.631 37.1601  11
   4   0  -2 714.527 41.4172  10
   4   0   1-2.18509 12.1858   3
   4   0   2 199.219 25.9992   3
   4   0   3 0.37623 13.4017   3
   4   0   4 78.9673 22.3581   3
   4  -1  -6 51.3180 19.2392   7
   4   1  -6 48.1668 18.6138   7
   4  -1  -5 109.355 23.2869   7
   4   1  -5 102.958 22.1942   7
   4  -1  -4 139.426 23.1441   7
   4   1  -4 106.577 20.4151   7
   4  -1  -4 61.6192 15.1868  11
   4  -1  -3 113.392 21.3142   7
   4   1  -3 102.931 20.8321   7
   4  -1  -3 106.876 17.1829  11
   4   1  -3 73.9884 13.8030  11
   4  -1  -2 73.7161 13.8391  11
   4  -1  -2 66.2311 14.0986  10
   4  -1  -1 70.7593 13.2238  11
   4  -1  -1 74.8668 15.1241  10
   4  -1   0 76.5007 14.6066  10
   4   1   1 178.357 25.1944   3
   4  -1   1 131.362 18.2329  10
   4   1   2 679.193 46.2145   3
   4  -1   2 585.997 40.1111  10
   4   1   3 128.768 24.0864   3
   4   1   4 285.367 32.5295   3
   4  -1   4 221.621 29.2387   3
   4  -2  -6 143.103 26.0287   7
   4   2  -6 137.825 26.8867   7
   4  -2  -5 162.850 26.1954   7
   4   2  -5 143.476 26.2918   7
   4  -2  -5 135.215 21.5824  11
   4  -2  -4 21.4410 12.5721   7
   4   2  -4 13.7101 14.0013   7
   4   2  -3 109.513 22.9487   7
   4  -2  -3 93.8275 16.8244  11
   4  -2  -2 32.6176 11.7990  11
   4  -2  -2 27.1207 11.3384  10
   4  -2  -1 576.645 37.6048  11
   4  -2  -1 576.660 38.2212  10
   4  -2   0 85.0080 14.2049  11
   4  -2   0 85.9166 15.6464  10
   4  -2   1 527.905 35.8762  10
   4   2   2 236.383 27.9474   3
   4  -2   2 207.370 24.4415  10
   4   2   3 69.1721 18.6142   3
   4  -2   3 49.4639 13.7660  10
   4   2   4 67.8957 19.3045   3
   4   3  -6 57.4054 21.3789   7
   4  -3  -6 67.0684 17.1517  11
   4   3  -5 289.181 36.9537   7
   4  -3  -5 234.663 27.3131  11
   4   3  -4 185.597 28.9193   7
   4  -3  -4 145.807 21.1354  11
   4   3  -3 113.332 22.5770   7
   4  -3  -3 105.883 18.5933  11
   4  -3  -2 32.2034 12.6523  11
   4  -3  -2 28.4118 11.9596  10
   4  -3  -1 222.148 22.7257  11
   4  -3  -1 236.078 24.4007  10
   4  -3   0 135.019 18.2609  10
   4  -3   1 122.133 18.3613  10
   4   3   2 498.249 37.0872   3
   4  -3   2 403.119 33.6719  10
   4   3   3 245.556 28.4864   3
   4  -3   3 203.104 23.2216  10
   4  -4  -6 17.0238 12.6575  11
   4  -4  -5 327.900 32.6877  11
   4  -4  -4 368.611 33.3286  11
   4  -4  -3 104.435 19.6403  11
   4  -4  -3 95.5579 18.6067  10
   4  -4  -2 133.275 19.9604  11
   4  -4  -2 128.074 19.5490  10
   4  -4  -1 34.2006 12.1006  11
   4  -4  -1 47.9605 13.6580  10
   4  -4   0 5.52473 7.97750  10
   4  -4   1 285.039 26.2209  10
   4   4   2 116.091 21.3025   3
   4  -4   2 84.6557 17.2524  10
   4   4   3 69.4801 19.0116   3
   4  -4   3 64.2076 14.7989  10
   4  -5  -5 222.202 27.9613  11
   4  -5  -4 915.207 58.4924  11
   4  -5  -3 483.455 38.5018  11
   4  -5  -3 433.388 34.9917  10
   4  -5  -2 227.148 25.1800  11
   4  -5  -2 241.693 26.2317  10
   4  -5  -1 59.8093 14.2910  11
   4  -5  -1 53.2670 14.3040  10
   4  -5   0 33.9181 11.1949  10
   4  -5   1 76.8097 15.2137  10
   4   5   2 51.1973 16.2836   3
   4  -5   2 57.5739 15.4368  10
   4  -6  -4-4.71392 12.3860  11
   4  -6  -3 31.1156 12.0441  11
   4  -6  -3 12.2868 10.8143  10
   4  -6  -2 10.7470 8.86755  11
   4  -6  -2 8.15623 10.0952  10
   4  -6  -1 20.3882 12.3460  10
   4  -6   0 221.163 23.9530  10
   4  -6   1 138.521 19.9132  10
   4  -6   2 460.994 36.6070  10
   4  -7  -3 1.60881 10.4563  11
   4  -7  -3 0.77313 11.7944  10
   4  -7  -2 301.580 30.2220  10
   4  -7  -1 94.8206 18.0215  10
   4  -7   0 88.8945 16.8754  10
   0   0   0    0.00    0.00   0

TITL 201226Cl3acetophenon_autored in Pc
REM Pc (#7 in standard setting)
CELL 0.71073   3.687893  11.923272   9.129989  90.0000  97.3915  90.0000
ZERR    7.00   0.000825   0.002193   0.001798   0.0000   0.0185   0.0000
LATT -1
SYMM  x,-y, z+1/2
SFAC C O Cl
UNIT 7.00 7.00 7.00
SIZE 0.09 0.20 0.50
TREF
HKLF 4
END
;
_shelx_hkl_checksum              71403
_olex2_submission_special_instructions 'No special instructions were received'
_oxdiff_exptl_absorpt_empirical_details
;
Empirical correction (ABSPACK) includes:
- Absorption correction using spherical harmonics
- Frame scaling
;
_oxdiff_exptl_absorpt_empirical_full_max 1.964
_oxdiff_exptl_absorpt_empirical_full_min 0.545
loop_
_space_group_symop_operation_xyz
'x, y, z'
'x, -y, z+1/2'
loop_
_atom_site_label
_atom_site_type_symbol
_atom_site_fract_x
_atom_site_fract_y
_atom_site_fract_z
_atom_site_U_iso_or_equiv
_atom_site_adp_type
_atom_site_occupancy
_atom_site_site_symmetry_order
_atom_site_calc_flag
_atom_site_refinement_flags_posn
_atom_site_refinement_flags_adp
_atom_site_refinement_flags_occupancy
_atom_site_disorder_assembly
_atom_site_disorder_group
Cl01 Cl 0.2204(3) 0.58230(11) 0.44442(16) 0.0266(3) Uani 1 1 d . . . . .
Cl02 Cl 0.9035(4) 0.84251(12) 0.85104(16) 0.0291(3) Uani 1 1 d . . . . .
Cl03 Cl 0.5691(4) 0.61672(11) 0.75749(16) 0.0300(4) Uani 1 1 d . . . . .
O004 O 0.0944(15) 0.8540(4) 0.1808(5) 0.0377(11) Uani 1 1 d . . . . .
C1 C 0.4128(14) 0.7904(4) 0.3930(6) 0.0214(12) Uani 1 1 d . . . . .
C7 C 0.2743(15) 0.7808(5) 0.2359(6) 0.0244(12) Uani 1 1 d . . . . .
C5 C 0.5670(15) 0.7210(5) 0.6345(6) 0.0211(10) Uani 1 1 d . . . . .
C8 C 0.3794(18) 0.6861(5) 0.1494(7) 0.0314(13) Uani 1 1 d . . . . .
H8A H 0.181988 0.630562 0.138452 0.047 Uiso 1 1 calc R U . . .
H8B H 0.602467 0.651812 0.200105 0.047 Uiso 1 1 calc R U . . .
H8C H 0.424317 0.712423 0.051686 0.047 Uiso 1 1 calc R U . . .
C2 C 0.5462(16) 0.8918(5) 0.4403(7) 0.0258(12) Uani 1 1 d . . . . .
H2 H 0.530763 0.952878 0.372854 0.031 Uiso 1 1 calc R U . . .
C6 C 0.4181(14) 0.7061(4) 0.4933(6) 0.0200(10) Uani 1 1 d . . . . .
C4 C 0.7103(14) 0.8223(5) 0.6774(6) 0.0215(11) Uani 1 1 d . . . . .
C3 C 0.6993(16) 0.9080(5) 0.5797(6) 0.0244(11) Uani 1 1 d . . . . .
H3 H 0.799249 0.979043 0.609889 0.029 Uiso 1 1 calc R U . . .
loop_
_atom_site_aniso_label
_atom_site_aniso_U_11
_atom_site_aniso_U_22
_atom_site_aniso_U_33
_atom_site_aniso_U_23
_atom_site_aniso_U_13
_atom_site_aniso_U_12
Cl01 0.0358(7) 0.0170(6) 0.0267(7) -0.0030(5) 0.0029(5) -0.0042(6)
Cl02 0.0368(7) 0.0289(7) 0.0194(7) -0.0048(5) -0.0044(5) 0.0024(6)
Cl03 0.0461(9) 0.0213(7) 0.0221(7) 0.0052(6) 0.0029(6) 0.0000(6)
O004 0.056(3) 0.030(2) 0.023(2) 0.0005(19) -0.010(2) 0.015(2)
C1 0.027(3) 0.018(3) 0.020(3) 0.001(2) 0.004(2) 0.003(2)
C7 0.029(3) 0.021(3) 0.022(3) -0.002(2) 0.000(2) -0.003(2)
C5 0.027(2) 0.019(2) 0.018(3) 0.003(2) 0.003(2) 0.003(2)
C8 0.036(3) 0.035(3) 0.023(3) -0.002(3) 0.004(2) 0.002(3)
C2 0.035(3) 0.019(3) 0.023(3) 0.001(2) 0.002(2) -0.001(2)
C6 0.023(3) 0.016(2) 0.020(2) -0.003(2) 0.003(2) 0.000(2)
C4 0.022(3) 0.023(3) 0.019(3) -0.001(2) 0.000(2) 0.003(2)
C3 0.032(3) 0.017(2) 0.024(3) 0.000(2) 0.001(2) -0.002(2)
loop_
_atom_type_symbol
_atom_type_description
_atom_type_scat_dispersion_real
_atom_type_scat_dispersion_imag
_atom_type_scat_source
C C 0.0033 0.0016 'International Tables Vol C Tables 4.2.6.8 and 6.1.1.4'
H H 0.0000 0.0000 'International Tables Vol C Tables 4.2.6.8 and 6.1.1.4'
Cl Cl 0.1484 0.1585 'International Tables Vol C Tables 4.2.6.8 and 6.1.1.4'
O O 0.0106 0.0060 'International Tables Vol C Tables 4.2.6.8 and 6.1.1.4'
loop_
_exptl_crystal_face_index_h
_exptl_crystal_face_index_k
_exptl_crystal_face_index_l
_exptl_crystal_face_perp_dist
0 3 -13 0.0860
0 -17 1 0.0396
5 0 -1 0.3768
0 17 -1 0.0210
-5 2 1 0.1136
0 -3 13 0.0742
5 3 -1 0.3651
loop_
_geom_angle_atom_site_label_1
_geom_angle_atom_site_label_2
_geom_angle_atom_site_label_3
_geom_angle
_geom_angle_site_symmetry_1
_geom_angle_site_symmetry_3
_geom_angle_publ_flag
C2 C1 C7 116.6(5) . . ?
C2 C1 C6 118.2(5) . . ?
C6 C1 C7 125.2(5) . . ?
O004 C7 C1 118.1(5) . . ?
O004 C7 C8 121.3(6) . . ?
C8 C7 C1 120.5(5) . . ?
C6 C5 Cl03 120.7(5) . . ?
C6 C5 C4 119.4(5) . . ?
C4 C5 Cl03 120.0(5) . . ?
C7 C8 H8A 109.5 . . ?
C7 C8 H8B 109.5 . . ?
C7 C8 H8C 109.5 . . ?
H8A C8 H8B 109.5 . . ?
H8A C8 H8C 109.5 . . ?
H8B C8 H8C 109.5 . . ?
C1 C2 H2 119.2 . . ?
C3 C2 C1 121.5(5) . . ?
C3 C2 H2 119.2 . . ?
C1 C6 Cl01 120.2(4) . . ?
C5 C6 Cl01 118.7(4) . . ?
C5 C6 C1 121.1(5) . . ?
C5 C4 Cl02 120.4(5) . . ?
C3 C4 Cl02 119.3(5) . . ?
C3 C4 C5 120.3(6) . . ?
C2 C3 C4 119.4(5) . . ?
C2 C3 H3 120.3 . . ?
C4 C3 H3 120.3 . . ?
loop_
_geom_bond_atom_site_label_1
_geom_bond_atom_site_label_2
_geom_bond_distance
_geom_bond_site_symmetry_2
_geom_bond_publ_flag
Cl01 C6 1.681(5) . ?
Cl02 C4 1.670(6) . ?
Cl03 C5 1.675(5) . ?
O004 C7 1.170(7) . ?
C1 C7 1.464(8) . ?
C1 C2 1.355(8) . ?
C1 C6 1.358(8) . ?
C7 C8 1.459(8) . ?
C5 C6 1.346(8) . ?
C5 C4 1.355(8) . ?
C8 H8A 0.9800 . ?
C8 H8B 0.9800 . ?
C8 H8C 0.9800 . ?
C2 H2 0.9500 . ?
C2 C3 1.339(9) . ?
C4 C3 1.354(8) . ?
C3 H3 0.9500 . ?
loop_
_geom_torsion_atom_site_label_1
_geom_torsion_atom_site_label_2
_geom_torsion_atom_site_label_3
_geom_torsion_atom_site_label_4
_geom_torsion
_geom_torsion_site_symmetry_1
_geom_torsion_site_symmetry_2
_geom_torsion_site_symmetry_3
_geom_torsion_site_symmetry_4
_geom_torsion_publ_flag
Cl02 C4 C3 C2 179.7(4) . . . . ?
Cl03 C5 C6 Cl01 2.2(7) . . . . ?
Cl03 C5 C6 C1 179.5(4) . . . . ?
Cl03 C5 C4 Cl02 2.3(7) . . . . ?
Cl03 C5 C4 C3 -177.9(4) . . . . ?
C1 C2 C3 C4 -2.3(9) . . . . ?
C7 C1 C2 C3 -176.0(5) . . . . ?
C7 C1 C6 Cl01 -5.9(8) . . . . ?
C7 C1 C6 C5 176.8(5) . . . . ?
C5 C4 C3 C2 -0.1(9) . . . . ?
C2 C1 C7 O004 -43.0(8) . . . . ?
C2 C1 C7 C8 133.0(6) . . . . ?
C2 C1 C6 Cl01 174.2(4) . . . . ?
C2 C1 C6 C5 -3.1(8) . . . . ?
C6 C1 C7 O004 137.2(6) . . . . ?
C6 C1 C7 C8 -46.9(8) . . . . ?
C6 C1 C2 C3 3.9(9) . . . . ?
C6 C5 C4 Cl02 -178.9(4) . . . . ?
C6 C5 C4 C3 0.9(8) . . . . ?
C4 C5 C6 Cl01 -176.6(4) . . . . ?
C4 C5 C6 C1 0.8(8) . . . . ?
loop_
_exptl_oxdiff_crystal_face_indexfrac_h
_exptl_oxdiff_crystal_face_indexfrac_k
_exptl_oxdiff_crystal_face_indexfrac_l
_exptl_oxdiff_crystal_face_x
_exptl_oxdiff_crystal_face_y
_exptl_oxdiff_crystal_face_z
-0.0074 2.7428 -12.5857 -0.0000 -1.0000 -0.0000
-0.2956 -16.7683 0.6274 0.9531 0.2026 0.2249
5.2000 -0.1598 -1.2044 0.1770 0.0376 -0.9835
-0.1458 16.7853 -0.5253 -0.9683 -0.2058 -0.1414
-5.1774 1.5347 1.1534 -0.2552 -0.0542 0.9654
-0.1975 -2.8558 12.6271 0.0000 0.9992 0.0400
5.1197 2.7445 -0.6737 0.0000 0.0487 -0.9988
