#------------------------------------------------------------------------------
#$Date: 2021-12-07 05:07:40 +0200 (Tue, 07 Dec 2021) $
#$Revision: 271173 $
#$URL: file:///home/coder/svn-repositories/cod/cif/7/24/38/7243824.cif $
#------------------------------------------------------------------------------
#
# This file is available in the Crystallography Open Database (COD),
# http://www.crystallography.net/
#
# All data on this site have been placed in the public domain by the
# contributors.
#
data_7243824
loop_
_publ_author_name
'Mila\<sinovi\'c, Valentina'
'Mol\<canov, Kre\<simir'
_publ_section_title
;
 Novel co-crystals with \p-hole interactions between iodide anions and
 quinoid rings involving charge transfer
;
_journal_issue                   46
_journal_name_full               CrystEngComm
_journal_page_first              8209
_journal_page_last               8214
_journal_paper_doi               10.1039/D1CE01156A
_journal_volume                  23
_journal_year                    2021
_chemical_formula_moiety         'C6 Br4 O2, 2(C7 H9 Cl N), 2(I)'
_chemical_formula_sum            'C20 H18 Br4 Cl2 I2 N2 O2'
_chemical_formula_weight         962.7
_space_group_IT_number           2
_space_group_name_Hall           '-P 1'
_space_group_name_H-M_alt        'P -1'
_symmetry_cell_setting           triclinic
_symmetry_space_group_name_Hall  '-P 1'
_symmetry_space_group_name_H-M   'P -1'
_atom_sites_solution_hydrogens   geom
_audit_creation_date             2020-08-27T12:05:42-00:00
_audit_creation_method           'WinGX routine CIF_UPDATE'
_audit_update_record
;
2021-08-26 deposited with the CCDC.	2021-10-28 downloaded from the CCDC.
;
_cell_angle_alpha                105.323(7)
_cell_angle_beta                 94.024(7)
_cell_angle_gamma                95.605(7)
_cell_formula_units_Z            1
_cell_length_a                   8.5741(7)
_cell_length_b                   9.1611(7)
_cell_length_c                   9.2506(7)
_cell_measurement_reflns_used    3315
_cell_measurement_temperature    293(2)
_cell_measurement_theta_max      75.378
_cell_measurement_theta_min      4.985
_cell_volume                     693.94(10)
_computing_cell_refinement       'CrysAlisPro 1.171.39.46 (Rigaku OD, 2018)'
_computing_data_collection       'CrysAlisPro 1.171.39.46 (Rigaku OD, 2018)'
_computing_data_reduction        'CrysAlisPro 1.171.39.46 (Rigaku OD, 2018)'
_computing_structure_refinement  'SHELXL-2017/1 (Sheldrick, 2017)'
_diffrn_ambient_temperature      293(2)
_diffrn_detector_area_resol_mean 10.4323
_diffrn_measured_fraction_theta_full 0.994
_diffrn_measured_fraction_theta_max 0.976
_diffrn_measurement_device_type  'Xcalibur, Ruby, Nova'
_diffrn_measurement_method       '\w scans'
_diffrn_radiation_monochromator  mirror
_diffrn_radiation_type           CuK\a
_diffrn_radiation_wavelength     1.54184
_diffrn_reflns_av_R_equivalents  0.0573
_diffrn_reflns_av_unetI/netI     0.0587
_diffrn_reflns_Laue_measured_fraction_full 0.994
_diffrn_reflns_Laue_measured_fraction_max 0.976
_diffrn_reflns_limit_h_max       10
_diffrn_reflns_limit_h_min       -10
_diffrn_reflns_limit_k_max       7
_diffrn_reflns_limit_k_min       -11
_diffrn_reflns_limit_l_max       11
_diffrn_reflns_limit_l_min       -11
_diffrn_reflns_number            5928
_diffrn_reflns_point_group_measured_fraction_full 0.994
_diffrn_reflns_point_group_measured_fraction_max 0.976
_diffrn_reflns_theta_full        67.684
_diffrn_reflns_theta_max         76.487
_diffrn_reflns_theta_min         4.982
_diffrn_source                   'micro-focus sealed X-ray tube'
_exptl_absorpt_coefficient_mu    26.493
_exptl_absorpt_correction_T_max  1
_exptl_absorpt_correction_T_min  0.05935
_exptl_absorpt_correction_type   multi-scan
_exptl_absorpt_process_details
;
        CrysAlisPro 1.171.39.46 (Rigaku Oxford Diffraction, 2018)
        Empirical absorption correction using spherical harmonics,
 implemented in SCALE3 ABSPACK scaling algorithm.
;
_exptl_crystal_colour            black
_exptl_crystal_density_diffrn    2.304
_exptl_crystal_description       rod
_exptl_crystal_F_000             448
_exptl_crystal_size_max          0.25
_exptl_crystal_size_mid          0.08
_exptl_crystal_size_min          0.06
_refine_diff_density_max         1.885
_refine_diff_density_min         -1.931
_refine_diff_density_rms         0.258
_refine_ls_extinction_method     none
_refine_ls_goodness_of_fit_ref   1.099
_refine_ls_hydrogen_treatment    constr
_refine_ls_matrix_type           full
_refine_ls_number_parameters     145
_refine_ls_number_reflns         2857
_refine_ls_number_restraints     0
_refine_ls_restrained_S_all      1.099
_refine_ls_R_factor_all          0.0679
_refine_ls_R_factor_gt           0.0635
_refine_ls_shift/su_max          0
_refine_ls_shift/su_mean         0
_refine_ls_structure_factor_coef Fsqd
_refine_ls_weighting_details
'w=1/[\s^2^(Fo^2^)+(0.1065P)^2^+6.0600P] where P=(Fo^2^+2Fc^2^)/3'
_refine_ls_weighting_scheme      calc
_refine_ls_wR_factor_ref         0.1949
_reflns_number_gt                2632
_reflns_number_total             2857
_reflns_threshold_expression     'I > 2\s(I)'
_iucr_refine_instructions_details
;
TITL Br4Q_3ClEt_1 in P-1
    shelx.res
    created by SHELXL-2017/1 at 12:05:33 on 27-Aug-2020
CELL  1.54184   8.5741   9.1611   9.2506  105.323   94.024   95.605
ZERR     1.00   0.0007   0.0007   0.0007    0.007    0.007    0.007
LATT   1
SFAC  C    H    N    O    BR   I    CL
UNIT  20  18    2    2     4   2   2
MERG   2
OMIT    -4.00 180.00
OMIT    -1 -2 6
OMIT    -1 4 6
OMIT    -4 2 0
OMIT    -1 3 6
OMIT    1 -3 7
OMIT 6 5 1
OMIT    0 -1 11
OMIT     1 0 5
OMIT    6 -6 1
OMIT    1 -5 7
OMIT    1 3 7
OMIT    5 3 7
FMAP   2
PLAN   20
BOND     $H
HTAB
CONF
ACTA
L.S.  10
WGHT    0.106500    6.060000
FVAR       5.75454
MOLE    1
I1    6    0.260753    0.329739    0.197254    11.00000    0.04377    0.03580 =
         0.05119    0.01883    0.00184    0.00270
MOLE    2
BR1   5   -0.386331    0.314985   -0.096935    11.00000    0.04216    0.03161 =
         0.04767    0.02159    0.00476    0.00021
BR2   5   -0.132888    0.163486    0.108766    11.00000    0.03431    0.03464 =
         0.05404    0.01952   -0.00296   -0.00168
O1    4   -0.683226    0.092339   -0.195089    11.00000    0.04999    0.03701 =
         0.04917    0.02522   -0.00911    0.00000
C1    1   -0.601222    0.056496   -0.098536    11.00000    0.04155    0.02320 =
         0.03631    0.01318    0.00347    0.00302
C2    1   -0.441277    0.134897   -0.039121    11.00000    0.03632    0.02570 =
         0.03553    0.00834    0.00454    0.00098
C3    1   -0.343501    0.078041    0.044305    11.00000    0.03165    0.02413 =
         0.03844    0.01254   -0.00209   -0.00029
MOLE    3
CL1   7    0.592841    0.245719    0.426248    11.00000    0.05523    0.05038 =
         0.05465    0.02096   -0.00573    0.00897
N1    3    0.972725    0.271207    0.698141    11.00000    0.04435    0.04095 =
         0.04764    0.00932   -0.00481    0.00613
C4    1    0.859145    0.305499    0.607880    11.00000    0.04363    0.03476 =
         0.05068    0.01962    0.00450    0.00930
AFIX  43
H4    2    0.861293    0.403816    0.597280    11.00000   -1.20000
AFIX   0
C5    1    0.741272    0.194743    0.532407    11.00000    0.04321    0.03983 =
         0.04022    0.01906    0.00139    0.00913
C6    1    0.734712    0.049668    0.548806    11.00000    0.06328    0.03364 =
         0.05838    0.02399    0.01213    0.00914
AFIX  43
H6    2    0.654413   -0.025316    0.496567    11.00000   -1.20000
AFIX   0
C7    1    0.847814    0.017249    0.642917    11.00000    0.06497    0.04247 =
         0.07072    0.03173    0.01365    0.01000
AFIX  43
H7    2    0.844711   -0.080035    0.656364    11.00000   -1.20000
AFIX   0
C8    1    0.968025    0.130916    0.718755    11.00000    0.04693    0.04638 =
         0.05905    0.03446    0.00294    0.01648
AFIX  43
H8    2    1.045057    0.109796    0.783663    11.00000   -1.20000
AFIX   0
C9    1    1.103270    0.389818    0.778256    11.00000    0.04820    0.04511 =
         0.06158    0.00624   -0.01241   -0.00003
AFIX  23
H9A   2    1.145058    0.364795    0.867742    11.00000   -1.20000
H9B   2    1.062908    0.487390    0.809970    11.00000   -1.20000
AFIX   0
C10   1    1.233312    0.402452    0.679869    11.00000    0.07306    0.05849 =
         0.07502    0.03119   -0.00952   -0.01985
AFIX  33
H10A  2    1.315624    0.479912    0.734896    11.00000   -1.50000
H10B  2    1.274734    0.306516    0.649786    11.00000   -1.50000
H10C  2    1.192659    0.429001    0.592065    11.00000   -1.50000
AFIX   0
HKLF    4
 
 
 
 
REM  Br4Q_3ClEt_1 in P-1
REM R1 =  0.0635 for    2632 Fo > 4sig(Fo)  and  0.0679 for all    2857 data
REM    145 parameters refined using      0 restraints
 
END
 
WGHT      0.1104      5.4810
 
REM Instructions for potential hydrogen bonds
EQIV $2 -x+1, -y+1, -z+1
HTAB C4 I1_$2
EQIV $3 -x+1, -y, -z+1
HTAB C7 I1_$3
HTAB C8 Br2_$3
EQIV $4 x+2, y, z+1
HTAB C8 O1_$4
EQIV $5 x+1, y, z+1
HTAB C9 I1_$5
HTAB C9 Br2_$2
 
REM Highest difference peak  1.885,  deepest hole -1.931,  1-sigma level  0.258
Q1    1   0.3645  0.3271  0.1845  11.00000  0.05    1.89
Q2    1   0.1810  0.3330  0.2558  11.00000  0.05    1.64
Q3    1  -0.4738  0.3224 -0.0594  11.00000  0.05    1.54
Q4    1  -0.6287  0.1627  0.0423  11.00000  0.05    1.30
Q5    1  -0.0412  0.1785  0.0772  11.00000  0.05    1.27
Q6    1  -0.2306  0.3331  0.1167  11.00000  0.05    1.23
Q7    1   1.2527  0.6762  0.7253  11.00000  0.05    1.20
Q8    1   1.1121  0.3456  0.9950  11.00000  0.05    1.19
Q9    1   1.0192  0.3280  0.6569  11.00000  0.05    1.18
Q10   1  -0.4941  0.3298 -0.2654  11.00000  0.05    1.18
Q11   1  -0.2315  0.1640  0.1380  11.00000  0.05    1.11
Q12   1   0.8707  0.3411  0.4516  11.00000  0.05    1.06
Q13   1   0.6290  0.1599  0.5798  11.00000  0.05    1.04
Q14   1   1.1253  0.3252  0.8346  11.00000  0.05    1.03
Q15   1   0.0570  0.2567  0.0941  11.00000  0.05    0.99
Q16   1   0.4217  0.4361  0.1228  11.00000  0.05    0.94
Q17   1   0.3356  0.3014  0.3217  11.00000  0.05    0.94
Q18   1   0.2286  0.3642  0.0575  11.00000  0.05    0.90
Q19   1   0.0643  0.2430  0.2341  11.00000  0.05    0.87
Q20   1   0.6492 -0.1928  0.6547  11.00000  0.05    0.86
;
_cod_data_source_file            d1ce01156a3.cif
_cod_data_source_block           br4q_3clet_1
_cod_depositor_comments
'Adding full bibliography for 7243821--7243826.cif.'
_cod_database_code               7243824
_iucr_refine_reflections_details
;
   0   0   1 328793. 7335.45   1
   0   0   1 366760. 7264.62   4
   0   0   2 39030.9 2111.38   1
   0   0   3 313610. 8876.97   1
   0   0  -4 91533.8 4301.27   3
   0   0   4 91143.0 4713.51   1
   0   0   5 2069.63 761.224   1
   0   0   6 34032.3 3590.47   1
   0   0  -7 29256.4 3673.39   2
   0   0   7 29196.0 2634.21  24
   0   0   7 25727.5 2127.95  16
   0   0   8 15115.7 1842.58  24
   0   0   8 13528.2 1495.46  16
   0   0   9 21612.5 1853.25   7
   0   0   9 19802.2 1625.65  16
   0   0  10 31869.8 1914.92   7
   0   0 -10 30150.6 1677.54   6
   0   0  11 11125.2 786.744   7
   0  -1  11 18578.9 1148.66   7
   0  -1  10 19.3869 173.137   7
   0  -1   9 6486.89 1019.08   7
   0  -1   8 4610.66 854.032   7
   0  -1   7 33956.1 3916.43   1
   0  -1   6 15688.9 2364.15   1
   0  -1   5 53819.3 3974.82   1
   0  -1   4 343932. 10285.3   1
   0  -1   3 175.004 185.443   4
   0  -1   3 277.832 206.161   1
   0  -1   2 308456. 7421.06   1
   0  -1   1 58464.1 2121.71   5
   0  -1   1 59298.5 2032.77   1
   0  -1   0 3280.90 398.863   2
   0  -1  -1 59129.5 2273.00   2
   0   1   2 5520.09 885.794   1
   0   1   3 53393.1 3329.51   1
   0   1   4 150769. 6763.84   1
   0  -1  -5 13775.5 2043.37   2
   0  -1  -6 37018.7 3865.88   2
   0  -1  -7 516.758 522.154   2
   0   1   7 359.778 300.940  16
   0   1   7 16.9706 181.171  24
   0   1   8 5364.74 1030.08  16
   0   1   8 4885.50 1106.74  24
   0   1   9 3834.09 757.990  16
   0   1   9 5770.61 890.218   7
   0  -1 -10 5901.01 696.103   6
   0   1  10 6250.74 786.680   7
   0  -2  11 3493.20 491.043   7
   0  -2  10 6514.90 893.998   7
   0  -2   9 1893.98 586.886   7
   0  -2   8 821.736 363.285   7
   0  -2   8 1307.09 833.277   1
   0  -2   8-123.442 187.678  11
   0  -2   7 106993. 7190.30   1
   0  -2   7 127016. 4664.24   7
   0  -2   6 47293.3 4199.74   1
   0  -2   5 999.662 527.280   4
   0  -2   5 266.566 297.672   1
   0  -2   4 632226. 16245.6   4
   0  -2   4 589594. 15122.1   1
   0  -2   3 882103. 19043.2   1
   0  -2   2 31715.6 1912.82   1
   0  -2   2 29848.4 1971.14   5
   0  -2   1 89984.6 3418.04   2
   0  -2  -1 12440.6 1250.54   2
   0  -2  -2 16543.1 1694.37   2
   0  -2  -3 93100.2 4754.18   2
   0  -2  -4 102728. 5714.28   2
   0  -2  -5 4539.28 1294.80   2
   0   2   6 146697. 6831.37  24
   0   2   6 160383. 6852.70  16
   0   2   7 82646.6 4889.18  24
   0   2   7 83417.9 4667.43  16
   0   2   8 8858.13 1483.37  24
   0   2   8 8730.42 1335.68  16
   0   2   9 7288.67 1010.12  16
   0   2  10 11015.2 941.822   7
   0  -2 -10 12240.0 894.942   6
   0  -3  11 13226.5 958.560   7
   0  -3  10 9725.09 1064.59   7
   0  -3   9 1972.45 591.930   7
   0  -3   9 2652.63 537.585  11
   0  -3   8 46955.4 2536.24  11
   0  -3   8 53750.9 2949.72   7
   0  -3   7 98542.0 6931.58   1
   0  -3   7 105987. 4147.81   7
   0  -3   7 100919. 3839.19  11
   0  -3   6 743.100 605.663   4
   0  -3   6 342.271 362.229   1
   0  -3   5 77592.8 5351.81   4
   0  -3   5 72954.4 4749.81   1
   0  -3   4 88674.9 4660.45   1
   0  -3   3 49291.6 3032.85   1
   0  -3   2 47222.1 2716.43   1
   0  -3   2 48560.4 2499.29   5
   0  -3   1 5270.24 875.272   2
   0  -3   0 304912. 8467.11   2
   0  -3  -1 54612.6 3188.18   2
   0  -3  -2 191033. 7329.17   2
   0  -3  -3 67902.8 4621.76   2
   0  -3  -4 19415.3 2689.11   2
   0   3   5 67765.4 4382.49  16
   0   3   5 53862.4 4046.59  24
   0  -3  -6 5234.39 1601.81   2
   0   3   6 3661.65 1016.60  16
   0   3   6 3314.79 986.220  24
   0   3   7 14016.0 1942.27  24
   0   3   7 14238.2 1870.96  16
   0   3   8 9560.91 1363.07  16
   0   3   9 256.472 210.888  16
   0  -4  11 2314.55 379.237   7
   0  -4  11 1248.06 337.117  22
   0  -4  10 10962.8 1095.17   7
   0  -4   9 2886.50 682.771   7
   0  -4   8 15560.0 1519.48   7
   0  -4   8 14635.4 1694.24  12
   0  -4   8 15428.6 1383.32  11
   0  -4   7 330309. 8607.36   7
   0  -4   7 316451. 8253.26  11
   0  -4   7 327888. 13615.2   1
   0  -4   7 312246. 9524.32  12
   0  -4   6 162287. 8428.48   1
   0  -4   6 167155. 9186.31   4
   0  -4   5 2537.34 1071.70   4
   0  -4   5 1810.81 731.485   1
   0  -4   4 250592. 9020.55   1
   0  -4   3 237421. 8125.01   1
   0  -4   2 3152.89 579.496   5
   0  -4   2 4558.60 948.679   1
   0  -4   1 184727. 4899.92   5
   0  -4   1 175353. 6588.94   2
   0  -4   0 109006. 5084.20   2
   0  -4  -1 125716. 5847.94   2
   0  -4  -2 126911. 6397.08   2
   0  -4  -3 433130. 14507.8   2
   0  -4  -4 120408. 7341.00   2
   0  -4  -5 370.423 446.925   2
   0  -4  -5 629.942 331.262   8
   0   4   5 943.538 539.097  16
   0   4   5 152.350 605.530  24
   0   4   6 58875.3 3939.26  16
   0   4   6 54120.1 3972.39  24
   0   4   7 16791.9 2052.40  24
   0   4   7 18992.7 2056.88  16
   0   4   8 2450.91 622.619  16
   0  -4  -9 279.453 140.813   6
   0   4   9 421.370 239.738   7
   0  -5  11 20779.6 1336.17  22
   0  -5  11 23253.1 1086.86   7
   0  -5  10 12858.5 1381.95  22
   0  -5  10 14865.7 1204.15   7
   0  -5   9 6842.25 1056.60   7
   0  -5   9 4980.96 900.641  12
   0  -5   8 72841.5 3378.87   7
   0  -5   8 62600.5 3594.86  12
   0  -5   7 8038.02 1056.78   7
   0  -5   7 9054.87 2081.98   1
   0  -5   7 7670.88 1232.76  12
   0  -5   7 6424.27 1872.60   4
   0  -5   6 2336.88 674.541  12
   0  -5   6 3118.56 615.939   7
   0  -5   6 1837.03 959.586   4
   0  -5   6 3005.85 1074.48   1
   0  -5   5 4534.50 1219.21   1
   0  -5   4 46686.4 3701.44   1
   0  -5   3 98087.1 5160.81   1
   0  -5   2 34899.4 2846.54   1
   0  -5   1 382103. 11681.3   2
   0  -5   0 157761. 7022.31   2
   0  -5  -1 8707.13 1651.03   2
   0  -5  -2 145298. 7638.20   2
   0  -5  -3-271.207 213.120   8
   0  -5  -3 146.618 269.353   2
   0   5   4 10937.3 1790.57  16
   0  -5  -4 13740.6 2540.79   2
   0  -5  -4 10368.2 1219.95   8
   0   5   4 8803.00 1651.22  24
   0   5   5 17171.7 2218.59  24
   0  -5  -5 18495.0 1615.92   8
   0   5   5 16218.5 2064.09  16
   0   5   6 2938.25 823.797  16
   0  -5  -7 7154.81 773.255  28
   0   5   7 6437.75 1071.94  16
   0   5   8 56.6378 125.418  16
   0  -6  11 10060.2 820.575  22
   0  -6  10 32885.7 2108.83  22
   0  -6  10 29908.5 1789.57  12
   0  -6   9 7219.75 1172.49  22
   0  -6   9 5965.93 950.279  12
   0  -6   9 7859.73 941.900   7
   0  -6   8 1628.22 483.541   7
   0  -6   8 1652.30 600.585  12
   0  -6   7 100532. 4724.22  12
   0  -6   7 100236. 3959.38   7
   0  -6   6 8915.01 2152.53   4
   0  -6   6 8836.14 1041.24   7
   0  -6   6 9004.23 1363.32  12
   0  -6   6 10465.4 1160.63  25
   0  -6   6 8641.78 1843.21   1
   0  -6   5 4915.15 980.818  12
   0  -6   5 4010.34 1173.31   1
   0  -6   5 4218.59 673.614   7
   0  -6   4 4349.83 1160.39   1
   0  -6   3 66916.3 4494.96   1
   0  -6   2 9115.80 1593.38   1
   0  -6   1 210385. 8779.73   2
   0  -6   0 307171. 11380.2   2
   0  -6  -1 111454. 6809.72   2
   0  -6  -2 25128.5 1952.12   9
   0  -6  -2 26667.0 3449.72   2
   0  -6  -2 25802.1 1761.16   8
   0  -6  -3 90433.9 3759.10   8
   0  -6  -3 91186.3 4076.04   9
   0   6   3 94548.3 5686.79  16
   0   6   4 31699.7 2955.23  16
   0  -6  -4 34944.0 2222.83   8
   0  -6  -4 35005.7 2366.84   9
   0   6   5 1100.07 497.407  16
   0   6   6-67.0442 172.704  16
   0  -6  -7 2852.23 391.971  28
   0  -6  -7 3087.34 400.569   6
   0  -6  -7 2952.07 387.984  13
   0   6   7 2310.02 502.573  16
   0  -7  10 608.295 251.737  12
   0  -7  10 1077.01 332.022  22
   0  -7   9 1161.71 330.296   7
   0  -7   9 1201.12 451.284  22
   0  -7   9 1194.38 404.453  12
   0  -7   8 8851.89 1232.38  12
   0  -7   8 8654.08 1312.04  22
   0  -7   8 9576.08 1028.94   7
   0  -7   7 53843.7 2665.63  25
   0  -7   7 48725.8 3143.60  12
   0  -7   7 47075.0 3215.24  22
   0  -7   7 48185.3 2514.34   7
   0  -7   6 8834.44 1029.13   7
   0  -7   6 9968.83 1136.88  25
   0  -7   6 8954.01 923.431  17
   0  -7   6 8975.45 1348.60  12
   0  -7   6 9540.55 1386.02  22
   0  -7   5 127619. 5276.56  12
   0  -7   5 113554. 6749.54   1
   0  -7   5 115474. 3879.55  17
   0  -7   5 129870. 5306.53  22
   0  -7   4 155455. 5733.50  12
   0  -7   4 147573. 4515.43  17
   0  -7   4 147883. 7533.32   1
   0  -7   3 54518.4 2433.94  17
   0  -7   3 52383.7 4209.81   1
   0  -7   3 53859.2 2588.53   9
   0  -7   2 74254.0 4998.87   1
   0  -7   2 72007.0 2821.80  13
   0  -7   2 81248.0 3309.37   9
   0  -7   2 74215.5 2961.47  17
   0  -7   1 87578.2 5791.33   2
   0  -7   1 87659.3 3216.35  13
   0  -7   1 89811.5 3626.62   9
   0  -7   1 89821.0 3331.00  17
   0  -7   0 2542.69 490.505   8
   0  -7   0 2260.26 503.613  17
   0  -7   0 2696.98 595.038   9
   0  -7   0 2600.44 1003.89   2
   0  -7   0 2554.95 514.113  13
   0  -7  -1 16330.9 1340.11   8
   0  -7  -1 16780.7 1578.94   9
   0  -7  -1 19522.5 2915.17   2
   0  -7  -2 6396.15 875.945   8
   0  -7  -2 6659.07 1026.48   9
   0  -7  -3 55175.6 3053.46   9
   0  -7  -3 55743.8 2752.99   8
   0  -7  -4 1737.35 480.787   9
   0   7   4 1539.02 535.133  16
   0   7   5 1671.29 487.480  16
   0  -7  -5 1984.75 417.546  13
   0  -7  -6 11060.6 821.213  28
   0  -7  -6 10570.3 780.115  13
   0  -8  10 12808.9 896.910  22
   0  -8  10 11972.7 846.827  12
   0  -8   9 857.355 309.481  22
   0  -8   9 783.091 321.404  12
   0  -8   8 1080.73 413.701  12
   0  -8   8 963.389 413.942  22
   0  -8   7 780.778 375.962  22
   0  -8   7 846.112 426.267  12
   0  -8   7 657.137 308.632  25
   0  -8   6 22780.4 1672.11  25
   0  -8   6 20564.2 1336.28  17
   0  -8   6 22296.0 1933.86  22
   0  -8   6 23619.7 2101.92  12
   0  -8   5 3212.05 783.119  12
   0  -8   5 3458.35 562.024  17
   0  -8   4 101786. 3542.98  17
   0  -8   4 103719. 4517.76  12
   0  -8   3 161841. 5217.59   9
   0  -8   3 165619. 4905.72  17
   0  -8   2 12762.5 1155.60  17
   0  -8   2 11159.6 1060.71  13
   0  -8   2 12337.2 1267.49   9
   0  -8   1 107340. 3838.31  17
   0  -8   1 109287. 3837.04  13
   0  -8   1 107876. 4223.76   9
   0  -8   0 77475.6 3056.59   8
   0  -8   0 85747.4 3761.29   9
   0  -8   0 86716.1 3390.03  13
   0  -8  -1 10422.5 1094.80  13
   0  -8  -1 9194.55 984.627   8
   0  -8  -1 10499.9 1260.71   9
   0  -8  -2 1481.80 500.606   9
   0  -8  -2 2003.92 469.914   8
   0  -8  -2 1872.19 490.593  13
   0  -8  -3-42.2112 177.793  13
   0  -8  -3 422.615 241.390   9
   0  -8  -4 1168.25 314.144  13
   0  -8  -5 2218.13 351.425  13
   0  -8  -5 2416.22 371.539  28
   0  -9   9 9047.70 812.504  12
   0  -9   8 47485.7 2089.29  22
   0  -9   8 55269.6 2571.17  12
   0  -9   7 76805.3 2784.95  25
   0  -9   7 72716.1 3350.64  12
   0  -9   6 1496.57 419.678  25
   0  -9   6 1239.78 452.894  12
   0  -9   6 1467.86 318.943  17
   0  -9   5 63475.3 2426.31  17
   0  -9   5 63439.3 3201.13  12
   0  -9   4 14594.9 1244.34   9
   0  -9   4 15109.7 1142.01  17
   0  -9   3 4406.11 635.378  17
   0  -9   3 4407.99 727.190   9
   0  -9   3 4606.62 652.577  29
   0  -9   2 5395.98 830.048   9
   0  -9   2 5540.37 732.342  17
   0  -9   1 4830.78 691.797  13
   0  -9   1 4510.29 780.546   9
   0  -9   0 9500.90 992.815  13
   0  -9   0 11298.0 1245.88   9
   0  -9  -1 1257.99 428.334   9
   0  -9  -1 1165.54 372.606  13
   0  -9  -2 15681.2 1344.21   9
   0  -9  -2 16806.3 1196.87  13
   0  -9  -3 22215.5 1247.61  13
   0  -9  -4 799.613 191.625  13
   0  -9  -4 805.133 188.631  28
   0 -10   8 3189.55 428.664  12
   0 -10   7 20429.3 1291.24  12
   0 -10   7 19816.4 1049.88  25
   0 -10   6 29052.8 1650.34  12
   0 -10   6 34127.9 1647.52  25
   0 -10   5 2757.91 387.411  17
   0 -10   5 2722.02 494.781  25
   0 -10   4 62928.8 2240.19  17
   0 -10   3 30336.7 1479.26  29
   0 -10   3 31347.9 1789.43   9
   0 -10   2 3152.55 477.528  29
   0 -10   2 2878.16 557.077   9
   0 -10   1 1653.84 366.168  29
   0 -10   1 1563.80 410.801   9
   0 -10   0 2609.95 509.707   9
   0 -10  -1 1974.05 406.794   9
   0 -10  -1 669.382 163.845  28
   0 -10  -2 1322.89 206.000  28
   0 -11   5 289.789 147.032  25
   0 -11   4 8622.41 722.585  25
   0 -11   3 595.631 212.901  25
   0 -11   2 6830.32 611.653  25
   0 -11   1 33937.4 1283.12  25
   1 -11   0 1113.91 195.706  29
   1 -11   1 20074.8 943.115  29
   1 -11   1 17008.8 840.100  25
   1 -11   2 34203.7 1437.19  25
   1 -11   2 29524.0 1218.40  29
   1 -11   3 64.5496 52.3887  29
   1 -11   3 1612.29 313.591  25
   1 -11   4 36928.9 1605.66  25
   1 -11   5 22719.4 1155.83  25
   1 -11   6 1592.89 258.375  25
   1 -10  -2 3071.90 318.932  28
   1 -10  -2 4058.58 457.053  29
   1 -10  -1-90.4375 66.9982  28
   1 -10   0 6261.55 695.813  29
   1 -10   0 5412.52 751.148   9
   1 -10   1 2152.51 433.701  29
   1 -10   1 1653.43 430.245   9
   1 -10   2 15033.7 1259.06   9
   1 -10   2 15899.9 1151.96  29
   1 -10   3 46584.0 1982.17  29
   1 -10   3 42350.8 2095.10   9
   1 -10   4 5573.90 748.172  25
   1 -10   4 4104.10 517.100  29
   1 -10   5 83864.6 3060.75  25
   1 -10   6 44492.0 2136.62  12
   1 -10   6 47566.8 2015.88  25
   1 -10   7 8682.82 836.784  12
   1 -10   7 9015.31 717.896  25
   1 -10   8 5523.03 548.966  12
   1  -9  -4 447.555 158.188  28
   1  -9  -3 6220.60 653.169  13
   1  -9  -3 7203.93 664.348  28
   1  -9  -2 49847.0 2203.78  13
   1  -9  -1 41482.2 2448.76   9
   1  -9  -1 46562.4 2232.19  13
   1  -9   0 15791.4 1490.79   9
   1  -9   0 16870.4 1332.04  13
   1  -9   1 112600. 4305.75   9
   1  -9   1 114629. 3895.67  13
   1  -9   2 49430.2 2380.39  29
   1  -9   2 47532.5 2581.41   9
   1  -9   3 841.552 282.482  17
   1  -9   3 1191.04 392.223   9
   1  -9   3 1131.37 338.886  29
   1  -9   4 13576.8 1105.60  29
   1  -9   4 13204.9 996.405  17
   1  -9   5-232.581 223.486  25
   1  -9   5 364.525 290.629  12
   1  -9   6 727.817 307.223  22
   1  -9   6 643.337 289.600  25
   1  -9   6 1256.36 438.511  12
   1  -9   7 8996.71 1113.35  12
   1  -9   7 8073.25 845.656  25
   1  -9   7 8757.87 983.828  22
   1  -9   8 45987.0 2293.30  12
   1  -9   8 39260.6 1958.60  22
   1  -9   9 9796.71 734.335  22
   1  -9   9 13436.0 964.921  12
   1  -8  -5 9830.15 731.133  13
   1  -8  -5 10339.0 779.725  28
   1  -8  -4 5661.01 673.964  13
   1  -8  -3 3172.72 560.351  13
   1  -8  -2 3293.90 611.405  13
   1  -8  -2 1674.12 554.228   9
   1  -8  -1 31661.6 1941.46  13
   1  -8  -1 29305.0 2190.88   9
   1  -8   0 27885.1 2079.15   9
   1  -8   0 29530.6 1850.22  13
   1  -8   1 37690.6 2062.62  13
   1  -8   1 36806.3 2335.67   9
   1  -8   1 35822.0 1987.84  17
   1  -8   2 88500.8 3236.09  17
   1  -8   2 85288.1 3237.34  13
   1  -8   2 91336.5 3760.14   9
   1  -8   3 83125.9 3206.33  29
   1  -8   3 84076.4 3470.30   9
   1  -8   3 81168.8 3002.22  17
   1  -8   4 15900.1 1164.15  17
   1  -8   4 17130.2 1317.52  29
   1  -8   4 16823.7 1691.28  12
   1  -8   5 42437.6 2396.31  25
   1  -8   5 43022.2 2837.03  12
   1  -8   5 43834.5 2762.56  22
   1  -8   6 3173.71 729.673  22
   1  -8   6 3195.83 639.645  25
   1  -8   6 3175.46 775.009  12
   1  -8   7 3953.68 681.962  25
   1  -8   7 3746.45 794.163  12
   1  -8   7 3878.14 834.112  22
   1  -8   8 3039.88 683.076  22
   1  -8   8 2644.39 628.247  12
   1  -8   9 19890.2 1473.28  22
   1  -8   9 19297.2 1412.28  12
   1  -8  10 1167.77 260.655  22
   1  -7  -6 12461.7 822.005  13
   1  -7  -6 13755.8 947.542  28
   1  -7  -5 23005.3 1406.19  13
  -1   7   5 17128.6 1648.94  16
   1  -7  -4 6851.82 833.713  13
  -1   7   4 4220.60 962.204  16
   1  -7  -3 41534.5 2194.99  13
   1  -7  -3 38113.3 2570.83   9
   1  -7  -2 124071. 4334.62   8
   1  -7  -2 120413. 4969.87   9
   1  -7  -2 135758. 4376.86  13
   1  -7  -1 64375.3 2810.41  13
   1  -7  -1 62919.9 2758.32   8
   1  -7  -1 66047.8 3360.67   9
   1  -7   0 10634.2 1010.39   8
   1  -7   0 11449.0 1276.94   9
   1  -7   0 10980.7 1081.63  17
   1  -7   0 12114.3 1104.79  13
   1  -7   1 28265.7 1971.95   9
   1  -7   1 25251.1 1582.54  13
   1  -7   1 28966.7 2902.33   1
   1  -7   1 26824.0 1635.79  17
   1  -7   2-101.004 277.615   1
   1  -7   2 472.786 287.070   9
   1  -7   2 346.782 202.245  13
   1  -7   2 234.199 154.793  17
   1  -7   3 7716.51 1433.04   1
   1  -7   3 6753.16 753.167  17
   1  -7   3 7952.66 1122.24  12
   1  -7   4 35296.9 2522.95  22
   1  -7   4 33486.2 2460.26  12
   1  -7   4 34723.4 1921.84  29
   1  -7   4 33830.4 3177.62   1
   1  -7   5 129163. 8512.59   4
   1  -7   5 159282. 6044.75  22
   1  -7   5 155080. 5934.44  12
   1  -7   5 140553. 4784.24   7
   1  -7   6 1562.81 585.199  12
   1  -7   6 1532.57 493.602  25
   1  -7   6 1981.27 635.012  22
   1  -7   6 1844.44 488.945   7
   1  -7   7 30142.1 2504.52  22
   1  -7   7 26939.7 1865.62   7
   1  -7   7 28488.2 2358.87  12
   1  -7   7 29877.9 1985.64  25
   1  -7   8 106821. 3882.90   7
   1  -7   8 100858. 4390.77  12
   1  -7   8 103579. 4723.63  22
   1  -7   9 25864.5 1586.40   7
   1  -7   9 25045.6 1942.62  22
   1  -7   9 23016.3 1728.78  12
   1  -7  10 3481.40 523.549  12
   1  -7  10 5072.45 679.439  22
   1  -6  -7 5450.03 550.328   6
   1  -6  -7 5186.79 558.449  28
   1  -6  -6 9528.36 884.438  13
   1  -6  -6 9963.69 1014.54  28
  -1   6   5-179.328 287.515  16
   1  -6  -5 207.025 178.617  13
   1  -6  -4 47973.1 2932.63   9
  -1   6   4 52458.1 4096.94  16
   1  -6  -3 826.915 616.946   2
   1  -6  -3 306.315 237.001   8
  -1   6   3 861.203 588.822  16
   1  -6  -3 872.352 408.773   9
   1  -6  -2 60517.0 2877.03   8
   1  -6  -2 60220.9 3322.80   9
   1  -6  -1 177703. 8109.34   2
   1  -6   0 11421.1 1775.79   2
   1  -6   1 96530.9 5091.71   2
   1  -6   2 26549.2 2477.79   1
   1  -6   3 1813.40 657.617   1
   1  -6   4 9374.08 1606.59   1
   1  -6   5 28892.0 2408.37  22
   1  -6   5 25332.5 3599.71   4
   1  -6   5 31205.9 2475.36  12
   1  -6   5 30001.5 1920.86   7
   1  -6   5 29416.4 3069.98   1
   1  -6   6 187068. 5754.08  25
   1  -6   6 159585. 5306.31   7
   1  -6   6 167852. 6596.02  22
   1  -6   6 157531. 8068.89   1
   1  -6   6 179100. 6646.36  12
   1  -6   6 141479. 9190.19   4
   1  -6   7 4345.40 1000.27  22
   1  -6   7 4257.95 759.588   7
   1  -6   7 4220.61 771.698  25
   1  -6   7 4713.67 997.531  12
   1  -6   8 41903.1 2819.22  12
   1  -6   8 47101.5 2587.51   7
   1  -6   8 44359.6 3131.30  22
   1  -6   9 59525.2 2751.71   7
   1  -6   9 50824.6 2805.53  12
   1  -6   9 55997.8 3221.33  22
   1  -6  10 1417.76 408.974  22
   1  -6  10 1575.95 357.013   7
   1  -5  -8 15448.1 999.511   6
  -1   5   7-134.789 251.403  16
   1  -5  -7 271.021 181.859  28
  -1   5   6 43735.3 3257.08  16
  -1   5   5 63325.7 4246.46  16
  -1   5   4 17144.7 2613.83  24
   1  -5  -4 19562.9 1730.66   8
   1  -5  -4 19820.2 4197.30   3
  -1   5   4 16974.8 2415.77  16
   1  -5  -4 19097.6 2848.39   2
   1  -5  -4 15791.8 1642.88   9
   1  -5  -3 40499.9 3928.48   2
   1  -5  -2 12229.9 1972.03   2
   1  -5  -1 47102.3 3582.80   2
   1  -5   0 16981.0 1925.59   2
   1  -5   1 339934. 9991.70   2
   1  -5   2 224246. 7556.32   1
   1  -5   3 32688.1 2704.93   1
   1  -5   3 39818.0 2873.94   5
   1  -5   4 274815. 9583.57   1
   1  -5   5 424863. 13340.5   1
   1  -5   5 384372. 15267.2   4
   1  -5   6 14209.4 1333.33   7
   1  -5   6 12041.9 2556.29   4
   1  -5   6 15753.5 1398.26  11
   1  -5   6 15274.3 2388.52   1
   1  -5   6 16851.2 1869.84  12
   1  -5   6 17855.0 1548.43  25
   1  -5   7 30129.8 2530.56  12
   1  -5   7 21625.2 2968.96   1
   1  -5   7 24660.9 1894.91  11
   1  -5   7 31085.0 2114.78   7
   1  -5   8 23242.1 1847.38   7
   1  -5   8 20347.8 2009.58  12
   1  -5   9 2495.42 621.255  12
   1  -5   9 1335.85 552.624  22
   1  -5  10 382.515 253.396   7
   1  -5  10 305.005 199.166  22
   1  -5  11 4538.51 535.572  22
   1  -5  11 8275.54 637.627   7
   1  -4  -9 2677.38 400.032   6
  -1   4   9 1452.07 356.346   7
  -1   4   8 1183.06 485.760  16
  -1   4   7 9600.24 1447.36  16
   1  -4  -7 9979.90 1047.63  28
  -1   4   6 82026.8 5099.66  24
  -1   4   6 83444.4 4740.25  16
   1  -4  -5 19227.7 2908.96   2
   1  -4  -5 14237.5 3654.03   3
  -1   4   5 16472.6 2365.70  24
  -1   4   5 14420.0 1990.51  16
   1  -4  -4 45550.2 4182.59   2
   1  -4  -3 43711.4 3767.50   2
   1  -4  -2 130004. 6128.04   2
   1  -4  -1 10364.2 1422.99   2
   1  -4   0 46396.1 2843.73   2
   1  -4   1 47876.9 2796.14   2
   1  -4   2 94661.2 4238.09   1
   1  -4   2 107771. 4671.63   5
   1  -4   3 138165. 5916.52   5
   1  -4   3 125288. 5297.59   1
   1  -4   4-134.106 183.041   1
   1  -4   4 297.485 338.733   4
   1  -4   4 550.148 401.506   5
   1  -4   5 264833. 9986.34   1
   1  -4   5 229949. 11116.7   4
   1  -4   6 133840. 8503.94   4
   1  -4   6 131349. 7429.89   1
   1  -4   7 26474.7 1947.53   7
   1  -4   7 22144.7 3171.30   1
   1  -4   7 27145.9 2413.16  12
   1  -4   7 24536.0 1853.16  11
   1  -4   8 29606.0 2153.36   7
   1  -4   8 28460.8 1993.66  11
   1  -4   8 27836.0 2378.83  12
   1  -4   9 24125.9 1918.80   7
   1  -4   9 21131.9 1616.33  11
   1  -4  10 2037.81 481.927   7
   1  -4  10 1928.65 533.577  22
   1  -4  11 750.237 251.468   7
   1  -3 -10 1821.22 285.834   6
   1  -3  -9 17173.9 1253.81   6
  -1   3   8 32756.4 2624.80  16
  -1   3   7 534.826 407.510  16
   1  -3  -7 387.435 236.466  28
  -1   3   6 108054. 5724.93  24
  -1   3   6 104829. 5335.99  16
   1  -3  -5 11209.9 2807.23   3
   1  -3  -5 14230.1 2368.03   2
   1  -3  -4 4405.55 1186.35   2
   1  -3  -3 30737.4 2860.21   2
   1  -3  -2 350324. 10295.0   2
   1  -3  -1 62809.7 3161.93   2
   1  -3   0 29437.5 1883.57   2
   1  -3   2 703951. 15683.2   1
   1  -3   2 706838. 16652.0   5
   1  -3   3 7917.23 1128.82   1
   1  -3   3 7218.63 1275.40   5
   1  -3   4 95837.3 4763.13   1
   1  -3   4 99628.7 5548.60   5
   1  -3   4 92025.4 5843.78   4
   1  -3   5 168884. 7509.07   1
   1  -3   5 164173. 8460.78   4
   1  -3   6 663.272 516.211   1
   1  -3   7 68541.3 5763.73   1
   1  -3   7 73486.5 3412.01  11
   1  -3   8 30679.2 2105.23  11
   1  -3   8 33406.4 2321.30   7
   1  -3   9 10370.9 1241.60   7
   1  -3   9 11303.3 1185.23  11
   1  -3  10 751.167 349.850  22
   1  -3  10 1103.86 369.805   7
   1  -3  11 29860.2 1489.49   7
   1  -2 -10 572.068 207.775   6
  -1   2  10 964.048 291.398   7
  -1   2   9 1019.58 436.892  16
  -1   2   8 11115.1 1528.37  16
  -1   2   7-31.7135 243.687  24
  -1   2   7-490.533 388.054  16
   1  -2  -6 93286.9 6389.97   2
  -1   2   6 89407.7 4754.76  16
  -1   2   6 84780.5 5007.15  24
   1  -2  -5 11167.8 1884.02   2
   1  -2  -5 8444.42 2072.55   3
   1  -2  -4 2074.00 1156.64   3
   1  -2  -4 1931.18 825.541   2
   1  -2  -3 126301. 5290.48   2
   1  -2  -2 638.714 290.760   2
   1  -2  -1 391275. 9228.65   2
   1  -2   0 211276. 5240.60   2
   1  -2   1 45283.3 1931.30   1
   1  -2   2 551797. 12202.4   1
   1  -2   2 569220. 13760.8   5
   1  -2   2 576006. 11563.5   3
   1  -2   3 12797.8 1687.80   5
   1  -2   3 12085.1 1328.83   1
   1  -2   3 13160.1 1810.70   4
   1  -2   4 98823.3 5505.63   4
   1  -2   4 99884.7 4879.71   1
   1  -2   5 58238.6 4336.16   1
   1  -2   6 142.056 224.610   1
   1  -2   7 45162.4 2622.00   7
   1  -2   7 34095.1 3985.60   1
   1  -2   8 505.771 342.157   7
   1  -2   8 771.367 383.101  11
   1  -2   9 10835.3 1160.93  11
   1  -2   9 10947.5 1309.00   7
   1  -2  10 4069.10 707.268   7
   1  -2  11 6131.45 630.823   7
   1  -1 -10 2320.92 479.468   6
  -1   1  10 3051.99 551.730   7
  -1   1   9 4478.45 806.678   7
  -1   1   9 4949.86 854.768  16
  -1   1   8 5293.37 1012.17  16
   1  -1  -7 1669.89 923.591   2
  -1   1   7 1579.75 620.387  24
  -1   1   7 1467.60 549.469  16
   1  -1  -6 53855.4 4423.79   2
   1  -1  -5 141156. 7282.24   3
  -1   1   5 154453. 7359.65   1
   1  -1  -4 2696.54 915.673   3
  -1   1   4 4076.63 1009.49   1
  -1   1   3 332298. 9404.47   1
   1  -1  -3 276517. 10775.1   3
  -1   1   1 105102. 3173.26   1
   1  -1   0 4299.59 713.348   3
   1  -1   0 3334.71 259.997   2
   1  -1   1 186256. 4220.15   1
   1  -1   1 182456. 4541.81   3
   1  -1   2 187200. 4407.97   3
   1  -1   2 202521. 5452.76   1
   1  -1   2 185361. 6262.00   5
   1  -1   3 19356.9 1731.70   1
   1  -1   3 19273.9 2055.64   5
   1  -1   4 116694. 5347.75   1
   1  -1   5 79125.9 4956.97   1
   1  -1   6 40840.7 3962.51   1
  -1   1  -7 119381. 7863.04   2
   1  -1   7 105262. 7338.57   1
   1  -1   8 131766. 5475.79  24
   1  -1   8 114207. 4668.01   7
   1  -1   9 18926.4 1541.71  11
   1  -1   9 19407.5 1704.66   7
   1  -1  10 2002.74 458.191   7
   1  -1  11 10586.8 805.837   7
  -1   0  10 4750.60 717.926   7
   1   0 -10 4211.55 639.865   6
  -1   0   9 12553.2 1295.44  16
  -1   0   9 13424.0 1417.96   7
  -1   0   8 910.656 419.019  16
  -1   0   7 33543.0 2706.67  24
  -1   0   7 32833.2 3882.32   1
  -1   0   7 30305.5 2219.09  16
  -1   0   6 168737. 8301.40   1
  -1   0   5 1806.19 739.350   1
  -1   0   4 91489.5 4668.49   1
   1   0  -4 89665.7 4280.84   3
  -1   0   3 16282.6 1595.29   1
   1   0  -3 16195.8 1596.78   3
  -1   0   2 33461.6 1855.64   1
   1   0  -2 32295.4 2009.41   3
  -1   0   2 35359.0 1351.26   4
   1   0  -1 62782.9 2408.50   3
  -1   0   1 61801.5 1996.02   1
   1   0   0 13174.4 873.282   3
  -1   0   0 12232.7 657.142   2
   1   0   1 195610. 5537.15   5
   1   0   1 195046. 4834.48   1
   1   0   1 203355. 5102.56   3
  -1   0  -1 209524. 4782.32   2
   1   0   2 186720. 5441.69   1
   1   0   2 169500. 5923.48   5
   1   0   3 87391.7 4054.12   1
   1   0   4 93133.4 4925.31   1
   1   0   5 54484.9 4623.46   1
  -1   0  -6 25740.3 3258.00   2
   1   0   7 25519.8 2671.62  24
   1   0   7 22413.1 2156.59  16
   1   0   8 25784.4 2111.78  16
   1   0   8 29183.0 2629.18  24
   1   0   9 6694.82 903.773  16
   1   0   9 7722.13 1167.58  24
   1   0   9 7026.31 998.576   7
   1   0  10 3431.95 590.681   7
   1   0  11 2813.27 367.985   7
  -1  -1  11 152.006 118.426   7
  -1  -1  10 1483.92 578.057   7
  -1  -1   9 29533.2 1770.01  27
   1   1  -9 26957.4 1851.43   6
  -1  -1   8 40566.3 2693.81   7
  -1  -1   7 73.2469 248.104   1
  -1  -1   6 298842. 11407.5   1
  -1  -1   5 494078. 14439.3   1
  -1  -1   4 18384.8 1955.18   1
   1   1  -4 14000.4 1090.78   3
  -1  -1   4 15830.3 1573.65   4
   1   1  -3 174209. 4816.90   3
  -1  -1   3 191102. 5981.50   1
   1   1  -2 491679. 10389.2   3
  -1  -1   2 495276. 10979.9   1
  -1  -1   1 30380.9 1577.13   1
   1   1  -1 32322.0 1667.30   3
  -1  -1   0 40175.1 1900.69   2
  -1  -1  -1 155007. 4841.51   2
   1   1   1 161898. 4941.54   5
  -1  -1  -2 293272. 8116.90   2
  -1  -1  -3 7553.70 1186.48   2
  -1  -1  -4 616668. 16561.0   2
  -1  -1  -5 355235. 12861.7   2
  -1  -1  -6 18840.0 3042.73   2
   1   1   6 21513.8 2522.63  24
   1   1   7 60918.9 4261.04  24
   1   1   7 54763.3 3730.37  16
   1   1   8 49825.6 3546.35  24
   1   1   8 45520.2 3056.16  16
   1   1   9 820.689 344.279  16
   1   1   9 1766.39 641.059  24
   1   1  10 146.372 133.701   7
  -1  -2  11 81.7808 110.393   7
  -1  -2  10 21902.4 1605.80   7
  -1  -2   9 26965.5 1694.17  27
  -1  -2   9 31728.5 2173.49   7
  -1  -2   8 4209.36 1477.36   1
  -1  -2   8 3554.09 621.992  27
  -1  -2   8 5921.02 928.741   7
  -1  -2   7 26900.6 3543.55   1
  -1  -2   7 31200.7 2110.63   7
  -1  -2   6 155602. 8088.59   1
  -1  -2   5 40726.1 3450.59   1
  -1  -2   5 44132.3 3359.26   4
  -1  -2   4 10171.7 2110.10   1
  -1  -2   3 31089.9 2275.91   1
  -1  -2   2 140424. 4901.12   1
  -1  -2   1 13256.8 1336.02   2
  -1  -2   0 452198. 10892.9   2
  -1  -2  -1 58805.8 3131.06   2
  -1  -2  -2 2050.88 662.547   2
  -1  -2  -3 227031. 8649.52   2
  -1  -2  -4 382.100 354.359   2
  -1  -2  -5 105491. 7221.04   2
   1   2   6 15147.6 2140.58  24
  -1  -2  -6 19310.1 3227.55   2
   1   2   6 17067.5 2252.65  16
   1   2   7 3305.39 1027.06  24
   1   2   7 3045.80 889.880  16
   1   2   8 21236.1 2268.80  24
   1   2   8 19265.5 1967.58  16
   1   2   9 717.218 315.652  16
   1   2   9 2743.89 627.573   7
   1   2  10-127.196 139.081   7
  -1  -2 -10 291.412 138.176   6
  -1  -3  11 1113.80 272.601   7
  -1  -3  11 701.220 273.231  22
  -1  -3  10 17915.8 1413.10   7
  -1  -3   9 119490. 4012.78  27
  -1  -3   9 141094. 4897.92   7
  -1  -3   8 46394.4 2383.19  27
  -1  -3   8 55450.6 2959.73   7
  -1  -3   7 497.875 295.458   7
  -1  -3   7 552.613 264.001  27
  -1  -3   7 717.572 599.525   1
  -1  -3   6 170959. 8571.45   1
  -1  -3   6 170396. 8370.27   4
  -1  -3   5 82162.3 5140.01   1
  -1  -3   5 92895.1 5848.85   4
  -1  -3   4 2558.38 797.378   1
  -1  -3   3 211977. 7396.39   1
  -1  -3   2 176945. 6151.20   1
  -1  -3   1 170452. 6254.30   2
  -1  -3   0 321340. 9459.18   2
  -1  -3  -1 876086. 20285.9   2
  -1  -3  -2 192427. 7698.89   2
  -1  -3  -3 2355.52 858.442   2
  -1  -3  -4 255391. 10980.5   2
  -1  -3  -5 61317.7 3058.25   8
   1   3   5 63142.0 4424.33  24
   1   3   6 10619.9 1770.86  16
  -1  -3  -6 10842.0 2438.37   2
   1   3   6 7520.03 1487.94  24
   1   3   7 20890.4 2340.41  16
   1   3   7 19542.1 2395.17  24
   1   3   8 2894.83 802.577  24
   1   3   8 3463.62 806.880  16
   1   3   9 2463.01 521.341   7
   1   3   9 2112.65 479.124  16
   1   4 -11 1151.67 312.508  15
  -1  -4  11 815.284 297.535  22
  -1  -4  10 15713.1 1256.48   7
  -1  -4   9 3768.81 818.944  12
  -1  -4   9 4116.21 600.224  27
  -1  -4   9 4741.75 790.978   7
  -1  -4   8 1215.05 503.068  12
  -1  -4   8 1277.67 376.136  27
  -1  -4   8 1350.45 449.890   7
  -1  -4   7 9833.92 1128.97   7
  -1  -4   7 10184.8 2185.73   1
  -1  -4   7 7900.83 899.847  27
  -1  -4   6 58128.3 5183.88   4
  -1  -4   6 59693.5 4962.20   1
  -1  -4   5 76047.6 5110.24   1
  -1  -4   4 57450.4 4059.87   1
  -1  -4   3 472177. 13253.4   1
  -1  -4   2 149132. 6121.54   1
  -1  -4   1 15629.9 1910.17   2
  -1  -4   0 208797. 7985.52   2
  -1  -4  -1 2900.49 900.987   2
  -1  -4  -2 30251.6 3185.48   2
  -1  -4  -3 58912.7 4919.41   2
  -1  -4  -4 26131.3 3504.06   2
   1   4   4 21214.2 2556.35  24
  -1  -4  -4 23354.6 1792.23   8
   1   4   5 45957.6 3762.64  16
  -1  -4  -5 29591.8 4005.90   2
   1   4   5 40125.6 3458.88  24
  -1  -4  -5 22589.8 1881.31   8
  -1  -4  -6 3335.66 666.490   8
   1   4   6 3699.22 990.704  16
   1   4   6 3207.34 958.795  24
   1   4   7 9866.19 1468.53  16
   1   4   7 8073.53 1387.70  24
   1   4   8 6203.58 950.332  16
   1   4   9 2171.72 394.752   7
   1   4   9 1962.29 368.851  16
  -1  -4  -9 2384.75 329.191   6
   1   5 -11 1082.87 244.099  15
  -1  -5  11 1318.65 349.821  22
  -1  -5  10 1119.91 315.649   7
   1   5 -10 493.602 252.510  15
  -1  -5   9 50603.6 2518.65   7
  -1  -5   9 40258.9 2631.57  12
  -1  -5   8 3712.97 700.305   7
  -1  -5   8 1082.21 370.483  27
  -1  -5   8 2433.19 764.767  12
  -1  -5   7 203.094 456.082   1
  -1  -5   7 1073.67 481.303  12
  -1  -5   7 925.705 315.789  27
  -1  -5   7 1264.59 409.147   7
  -1  -5   6 45825.4 4497.17   1
  -1  -5   6 49483.9 2301.65  27
  -1  -5   6 43046.3 4764.51   4
  -1  -5   5 99530.7 6182.85   1
  -1  -5   4 2155.41 853.419   1
  -1  -5   3 364093. 11787.5   1
  -1  -5   2 344928. 11085.8   1
  -1  -5   1 148908. 7061.05   2
  -1  -5   0 136619. 6915.02   2
  -1  -5  -1 258422. 10589.7   2
  -1  -5  -2 34605.6 3819.11   2
  -1  -5  -3 5924.68 872.385   8
  -1  -5  -3 7371.24 1821.51   2
   1   5   4 4146.01 1069.89  24
   1   5   4 5879.33 1374.85  16
  -1  -5  -4 6386.10 942.256   8
  -1  -5  -5 25500.0 1903.55   8
   1   5   5 29440.2 2829.15  16
   1   5   5 24215.1 2611.27  24
   1   5   6 320.692 352.963  24
   1   5   6-14.4490 203.554  16
   1   5   7 17650.3 1713.60  16
  -1  -5  -7 19625.0 1237.12  28
   1   5   8 11832.1 1036.45  16
  -1  -6  11 195.136 148.247  22
  -1  -6  10 10668.5 1058.87  12
  -1  -6  10 12160.0 1294.57  22
  -1  -6   9 26754.0 1629.27   7
  -1  -6   9 23170.2 1903.26  12
   1   6  -9 23941.5 1778.62  15
  -1  -6   8 4730.26 783.577   7
  -1  -6   8 4993.96 968.950  12
  -1  -6   7 101370. 3890.60   7
  -1  -6   7 102989. 4853.25  12
  -1  -6   6 140636. 4652.65   7
  -1  -6   6 138387. 8078.75   1
  -1  -6   5 39244.2 3953.24   1
  -1  -6   5 38449.3 2115.49   7
  -1  -6   4 91613.7 5833.99   1
  -1  -6   3 118502. 6474.10   1
  -1  -6   2 950.369 552.993   1
  -1  -6   1 18956.7 2634.11   2
  -1  -6   0 270.282 329.590   2
  -1  -6  -1 128558. 4666.77   9
  -1  -6  -1 136418. 4417.58  17
  -1  -6  -2 1131.98 730.527   2
  -1  -6  -2 1256.10 432.695   9
  -1  -6  -2 1515.24 449.359   8
  -1  -6  -3 16187.0 2957.93   2
  -1  -6  -3 13047.8 1322.61   8
   1   6   3 15697.9 2147.86  16
  -1  -6  -3 12819.4 1377.71   9
  -1  -6  -4 40272.2 2370.28   8
   1   6   4 34987.5 2991.97  16
   1   6   4 30972.7 2693.35  24
  -1  -6  -5 2179.46 513.740   8
   1   6   5 2480.69 702.369  16
   1   6   6 7174.38 1060.91  16
  -1  -6  -7 2199.22 311.732  28
  -1  -6  -7 2545.60 354.174  13
  -1  -7  10 546.368 236.182  12
  -1  -7  10 1124.54 359.961  22
  -1  -7   9 986.274 412.373  22
  -1  -7   9 1019.48 382.128  12
  -1  -7   8 24101.0 2075.41  12
  -1  -7   8 22885.5 1418.92  17
  -1  -7   8 20746.3 2028.20  22
  -1  -7   7 10832.3 1036.91  17
  -1  -7   7 11053.6 1469.30  12
  -1  -7   6 106587. 3829.51  17
  -1  -7   6 115986. 5068.31  22
  -1  -7   6 120887. 5382.38  12
  -1  -7   5 137164. 5694.51  12
  -1  -7   5 147103. 8042.76   1
  -1  -7   5 125820. 4262.65  17
  -1  -7   4 2996.48 561.350  17
  -1  -7   4 3063.34 589.138   9
  -1  -7   4 3324.97 797.737  12
  -1  -7   4 2679.80 1065.31   1
  -1  -7   3 147415. 4621.97  17
  -1  -7   3 143890. 7675.56   1
  -1  -7   3 146800. 4818.92   9
  -1  -7   2 79112.2 3131.42  17
  -1  -7   2 74548.1 2887.94  13
  -1  -7   2 82955.6 5609.94   1
  -1  -7   2 82067.3 3409.28   9
  -1  -7   1 21308.8 1686.54   9
  -1  -7   1 21058.3 1510.17  17
  -1  -7   1 22943.4 3129.26   2
  -1  -7   1 19908.6 1405.65  13
  -1  -7   1 20767.3 1427.75   8
  -1  -7   0 8110.38 944.561  17
  -1  -7   0 8865.75 1100.86   9
  -1  -7   0 11361.0 2235.43   2
  -1  -7   0 8465.39 943.684   8
  -1  -7  -1 220.398 175.864   8
  -1  -7  -1 498.247 286.968   9
  -1  -7  -1 608.872 558.799   2
  -1  -7  -2 6756.39 1011.11   9
  -1  -7  -2 7672.69 980.573   8
  -1  -7  -3 11195.0 1188.78   8
  -1  -7  -3 10215.6 1210.66   9
  -1  -7  -4 47227.9 2404.87   8
   1   7   4 37266.4 2513.80  16
   1   7   5 38657.5 2219.13  16
  -1  -7  -6 306.786 143.755  28
   1   7   6-31.7671 82.3083  16
  -1  -7  -6 210.140 125.644  13
  -1  -8  10 31289.4 1422.41  12
  -1  -8   9 39541.2 2134.17  12
  -1  -8   9 39391.0 2083.50  22
  -1  -8   8 740.125 225.941  17
  -1  -8   8 1426.57 486.787  12
  -1  -8   8 1071.58 384.348  22
  -1  -8   7 55658.4 3224.45  12
  -1  -8   7 49573.0 2831.16  22
  -1  -8   7 52454.9 2222.00  17
  -1  -8   6 26771.5 1625.92  17
  -1  -8   6 28575.6 2368.73  12
  -1  -8   5 4338.97 660.779  17
  -1  -8   5 4924.81 964.999  12
  -1  -8   4 5358.88 943.360  12
  -1  -8   4 5124.86 778.508   9
  -1  -8   4 4955.22 720.666  17
  -1  -8   3 19893.8 1608.73   9
  -1  -8   3 19249.2 1439.18  17
  -1  -8   2 22740.0 1768.46   9
  -1  -8   2 23679.6 1550.96  13
  -1  -8   2 24221.7 1642.97  17
  -1  -8   1 5732.48 892.527   9
  -1  -8   1 5373.81 754.501  13
  -1  -8   1 5903.37 799.568  17
  -1  -8   1 4889.34 683.234   8
  -1  -8   0 84272.3 3288.20   8
  -1  -8   0 86491.2 3421.55  17
  -1  -8   0 92040.9 3466.37  13
  -1  -8   0 87018.7 3824.00   9
  -1  -8  -1 79622.7 3185.27  13
  -1  -8  -1 73952.4 3094.73   8
  -1  -8  -1 76230.9 3556.18   9
  -1  -8  -2 11100.6 1248.67   9
  -1  -8  -2 10712.7 1084.97   8
  -1  -8  -2 11371.8 1088.48  13
  -1  -8  -3 29165.8 1729.22   8
  -1  -8  -3 29568.2 1680.41  13
  -1  -8  -3 25812.2 1769.78   9
  -1  -8  -4 13270.9 988.946  13
  -1  -8  -5 427.636 168.165  13
  -1  -9   9 12449.8 935.637  12
  -1  -9   8 17766.6 1392.97  12
  -1  -9   7 7441.27 985.557  12
  -1  -9   7 6719.76 622.781  17
  -1  -9   7 6671.00 689.468  25
  -1  -9   6 74559.3 2906.92  25
  -1  -9   6 68859.0 3316.56  12
  -1  -9   6 68934.3 2509.28  17
  -1  -9   5 17884.4 1593.06  12
  -1  -9   5 17777.1 1226.27  17
  -1  -9   4 1591.93 428.589   9
  -1  -9   4 2234.62 451.662  17
  -1  -9   3 626.247 288.110   9
  -1  -9   3 776.394 262.145  17
  -1  -9   2 15080.7 1146.88  13
  -1  -9   2 13761.3 1332.86   9
  -1  -9   2 15465.5 1224.02  17
  -1  -9   1 2662.76 509.762  13
  -1  -9   1 3234.29 668.546   9
  -1  -9   0 13781.5 1085.10   8
  -1  -9   0 15334.5 1424.88   9
  -1  -9   0 14827.9 1188.32  13
  -1  -9  -1 60472.9 2865.03   9
  -1  -9  -1 59554.8 2444.73  13
  -1  -9  -1 55621.5 2307.76   8
  -1  -9  -2 32015.3 1842.52   9
  -1  -9  -2 31002.1 1591.90  13
  -1  -9  -3 1528.59 306.346  13
  -1  -9  -4 7096.38 486.792  28
  -1  -9  -4 5909.80 456.763  13
  -1 -10   7 1409.57 304.298  12
  -1 -10   6 17100.6 1139.20  12
  -1 -10   6 18247.9 1127.23  25
  -1 -10   6 18508.3 951.691  17
  -1 -10   5 529.516 179.164  17
  -1 -10   5 475.327 223.702  25
  -1 -10   4 20758.8 1191.05  17
  -1 -10   4 22173.7 1351.88   9
  -1 -10   3 95485.6 2987.35  17
  -1 -10   3 92515.9 3319.02   9
  -1 -10   2 22586.9 1522.84   9
  -1 -10   1 13076.3 1140.75   9
  -1 -10   0 17838.8 1283.50   9
  -1 -10  -1 7045.97 711.104   9
  -1 -10  -1 6354.30 558.598  13
  -1 -11   5 2166.77 304.570  25
  -1 -11   4 321.509 162.075  25
  -1 -11   3 11583.8 797.595  25
  -1 -11   3 8505.22 631.098   9
  -1 -11   2 26836.5 1222.59   9
   2 -11   0 7655.67 528.708  29
   2 -11   1 13161.7 773.930  29
   2 -11   2 5980.01 531.349  25
   2 -11   2 6455.06 544.597  29
   2 -11   3 36336.8 1371.05  29
   2 -11   3 39018.8 1573.30  25
   2 -11   4 22561.6 1170.02  25
   2 -11   5 2589.33 365.994  25
   2 -10  -2 6258.34 544.667  29
   2 -10  -2-96.7197 55.1834  28
   2 -10  -1 42437.8 1793.16  29
   2 -10   0 15932.4 1124.76  29
   2 -10   1 754.920 266.077  29
   2 -10   1 667.344 248.471  25
   2 -10   2 7503.72 826.859  25
   2 -10   2 7464.51 784.545  29
   2 -10   3 575.332 283.273  25
   2 -10   3 35.9179 141.519  29
   2 -10   4 539.512 257.005  25
   2 -10   4 729.322 259.108  29
   2 -10   5 7585.14 818.299  12
   2 -10   5 8679.26 853.109  25
   2 -10   6 63922.6 2370.34  25
   2 -10   6 60626.2 2526.03  12
   2 -10   7 14153.9 1050.79  12
   2  -9  -4 425.621 156.000  29
   2  -9  -4 291.948 130.135  28
   2  -9  -3 8919.46 716.184  28
   2  -9  -2 7222.38 766.021  13
   2  -9  -2 6710.53 665.090  28
   2  -9  -1 18974.4 1175.23  28
   2  -9  -1 21016.9 1422.16  13
   2  -9   0 38322.8 2332.46   9
   2  -9   1 28013.0 1964.52   9
   2  -9   2 20697.4 1636.31   9
   2  -9   2 21936.1 1525.99  29
   2  -9   3 15408.9 1320.13   9
   2  -9   3 16780.6 1290.10  29
   2  -9   4 456.656 300.340  12
   2  -9   4 445.412 223.535  29
   2  -9   4 351.816 258.892  25
   2  -9   5 2305.42 441.871  29
   2  -9   5 1623.32 460.102  25
   2  -9   5 1386.87 404.547  22
   2  -9   5 2110.78 564.145  12
   2  -9   6 3478.10 655.262  22
   2  -9   6 4630.35 685.504  25
   2  -9   6 4011.12 765.681  12
   2  -9   7 37916.1 2120.07  22
   2  -9   7 42359.4 1975.11  25
   2  -9   7 42528.7 2392.02  12
   2  -9   8 1433.38 354.133  22
   2  -9   8 1733.94 419.411  12
   2  -9   9 8925.76 658.683  22
   2  -9   9 10480.2 781.996  12
   2  -8  -5 16891.7 1000.62  28
   2  -8  -4 41824.9 1886.63  28
   2  -8  -4 38440.0 1782.59  13
   2  -8  -3 8088.40 875.314  13
   2  -8  -3 8903.72 888.137  28
   2  -8  -2 6325.30 1001.18   9
   2  -8  -2 7006.57 857.857  13
   2  -8  -1 6042.64 1022.17   9
   2  -8  -1 6542.78 867.652  13
   2  -8   0 2753.55 564.990  13
   2  -8   0 2536.71 642.559   9
   2  -8   1 10680.9 1315.00   9
   2  -8   1 9960.69 1048.31  13
   2  -8   2 49672.6 2409.54  29
   2  -8   2 49136.2 2730.50   9
   2  -8   2 45011.0 2110.12  17
   2  -8   3 141296. 4843.77   9
   2  -8   3 138963. 4488.95  29
   2  -8   3 146978. 5393.53  12
   2  -8   4 1328.41 440.516  25
   2  -8   4 1379.84 490.022  12
   2  -8   4 1987.98 569.926  22
   2  -8   4 1496.73 410.773  29
   2  -8   5 81562.7 3913.81  22
   2  -8   5 73117.7 3287.11  25
   2  -8   5 81160.8 3107.15  29
   2  -8   5 78079.3 3919.73  12
   2  -8   6 154919. 5747.49  22
   2  -8   6 146797. 4909.70  25
   2  -8   6 158270. 5865.77  12
   2  -8   7 20452.9 1843.77  12
   2  -8   7 19438.3 1792.20  22
   2  -8   7 20493.2 1520.62  25
   2  -8   8 13890.5 1357.18  12
   2  -8   8 12590.6 1305.91  22
   2  -8   9 2067.55 458.833  12
   2  -8   9 1615.72 391.088  22
   2  -7  -6 10858.8 837.840  28
   2  -7  -5 1766.27 404.719  28
   2  -7  -5 1554.43 352.003  13
   2  -7  -4 14907.0 1200.90  13
   2  -7  -3 30927.1 1849.97  13
   2  -7  -2 1684.14 420.777  13
   2  -7  -2 1240.36 532.288   9
   2  -7  -1 47594.7 2365.57  13
   2  -7  -1 42249.5 2831.06   9
   2  -7  -1 46660.4 5885.43   3
   2  -7   0 2488.13 1305.04   3
   2  -7   0 2223.44 614.111   9
   2  -7   0 2879.25 532.832  13
   2  -7   1 9681.17 962.501  17
   2  -7   1 5927.72 1815.40   3
   2  -7   1 6887.49 843.323  13
   2  -7   1 9695.94 1256.34   9
   2  -7   2 5692.54 901.025   9
   2  -7   3 38026.5 4616.18   4
   2  -7   3 45439.8 2856.60  12
   2  -7   3 51371.1 2989.36  22
   2  -7   3 42978.6 2210.62  29
   2  -7   4 157557. 4880.10  29
   2  -7   4 164157. 6102.93  12
   2  -7   4 172568. 6173.27  22
   2  -7   5 428.618 332.171  25
   2  -7   5 819.143 313.201  29
   2  -7   5 564.097 309.793   7
   2  -7   5 130.994 222.588  12
   2  -7   5 360.862 284.250  22
   2  -7   6 49829.0 2642.68   7
   2  -7   6 54355.9 3354.82  22
   2  -7   6 55158.9 3422.67  12
   2  -7   6 49550.9 2700.00  25
   2  -7   7 74523.7 3301.04  25
   2  -7   7 67771.7 3116.22   7
   2  -7   7 73616.8 3887.86  12
   2  -7   7 69625.3 3845.91  22
   2  -7   8 3859.14 696.978   7
   2  -7   8 3778.72 775.125  12
   2  -7   8 4118.11 852.345  22
   2  -7   9 8717.41 874.758   7
   2  -7   9 7844.69 1003.80  22
   2  -7   9 6927.50 890.278  12
   2  -7  10 3871.29 480.254  12
   2  -7  10 3975.43 544.902  22
   2  -6  -7 9366.99 719.596   6
   2  -6  -7 9088.74 748.113  28
   2  -6  -6 4108.04 637.603  28
   2  -6  -6 3596.03 524.646   6
   2  -6  -5 8227.67 881.308  13
   2  -6  -5 8462.62 833.792   6
  -2   6   5 7325.31 1399.26  16
  -2   6   4 105.428 554.274  16
   2  -6  -4 665.286 271.407  13
   2  -6  -3 5586.55 766.242  13
  -2   6   3 5900.36 1550.75  16
   2  -6  -3 5942.83 2306.83   3
   2  -6  -3 4463.28 944.708   9
   2  -6  -2 20294.6 2048.56   9
   2  -6  -2 18608.2 4036.81   3
   2  -6  -2 22407.5 1522.67  13
   2  -6  -1 235163. 14220.4   3
   2  -6   0 144571. 10391.7   3
   2  -6   1 50239.1 5392.43   3
   2  -6   2 240173. 10704.6   3
   2  -6   3 338252. 14643.2   4
   2  -6   4 9357.22 2236.40   4
   2  -6   4 11395.4 1148.81   7
   2  -6   5 3157.84 1321.67   4
   2  -6   5 4137.62 703.673   7
   2  -6   5 3881.05 655.810  29
   2  -6   5 4726.42 1027.85  12
   2  -6   5 3771.76 864.110  22
   2  -6   5 3854.07 771.341  25
   2  -6   6 33626.6 2156.30   7
   2  -6   6 39584.6 3010.24  12
   2  -6   6 35078.6 2279.42  25
   2  -6   6 34865.3 2742.36  22
   2  -6   7 861.454 387.183  25
   2  -6   7 1050.37 513.672  22
   2  -6   7 1551.49 497.837   7
   2  -6   7 1203.44 526.466  12
   2  -6   8 1485.92 548.430  22
   2  -6   8 1738.26 591.668  12
   2  -6   8 1122.13 393.878  26
   2  -6   8 1872.90 521.768   7
   2  -6   9 38310.9 2119.97   7
   2  -6   9 34959.0 2220.54  12
   2  -6   9 35621.8 2385.64  22
   2  -6  10 7780.97 765.675   7
   2  -6  10 5795.70 738.395  22
   2  -5  -8 1380.78 302.810   6
   2  -5  -7 5988.88 732.441   6
   2  -5  -7 5467.12 707.825  28
  -2   5   6 5756.80 1177.90  16
   2  -5  -6 6881.99 949.670  28
   2  -5  -5 19843.7 1427.36  13
  -2   5   5 17021.9 2319.25  16
  -2   5   4 39954.2 4275.46  16
   2  -5  -4 33764.9 5772.47   3
   2  -5  -3 2963.38 1775.57   3
   2  -5  -2 38014.6 3194.99   2
   2  -5  -2 31799.5 5638.72   3
   2  -5  -1 43135.2 3052.12   2
   2  -5  -1 44348.2 6423.64   3
   2  -5   0 91732.4 8438.24   3
   2  -5   1 157782. 9503.32   3
   2  -5   1 129639. 4972.43   1
   2  -5   2 4352.98 823.562   1
   2  -5   2 3658.90 1113.10   3
   2  -5   3 225397. 11455.7   4
   2  -5   3 241130. 8002.39   1
   2  -5   4 150767. 6476.72   1
   2  -5   4 136465. 8689.49   4
   2  -5   5 66600.1 6081.11   4
   2  -5   6 30596.5 4267.32   4
   2  -5   6 40600.4 3182.19  12
   2  -5   6 35266.0 2216.52   7
   2  -5   6 36400.7 2213.79  11
   2  -5   6 39379.7 2950.78  22
   2  -5   6 41316.1 2487.24  25
   2  -5   7 17428.9 1593.80   7
   2  -5   7 17230.0 2003.03  12
   2  -5   7 19054.9 1636.57  11
   2  -5   7 16003.8 1917.51  22
   2  -5   8 5354.52 885.459   7
   2  -5   8 5447.11 1053.99  12
   2  -5   8 5668.08 872.675  11
   2  -5   8 4590.20 999.440  22
   2  -5   9 176.350 222.905  12
   2  -5   9 230.400 223.042   7
   2  -5   9 315.427 273.685  22
   2  -5  10 6124.11 808.487  22
   2  -5  10 8222.24 853.884   7
   2  -5  11 2113.58 296.652   7
  -2   4   9 167.805 143.892   7
   2  -4  -9 397.602 168.946   6
   2  -4  -8 4559.61 669.940   6
  -2   4   7 329.381 315.540  16
   2  -4  -7-53.8097 162.381  28
  -2   4   6 864.537 504.840  16
   2  -4  -6 1135.70 434.298  28
  -2   4   5 16309.2 2308.91  16
   2  -4  -5 21021.6 4235.32   3
   2  -4  -5 24659.9 3126.75   2
   2  -4  -4 102981. 10417.1   3
   2  -4  -4 156029. 7649.11   2
   2  -4  -3 18095.3 4427.54   3
   2  -4  -3 19158.3 2313.19   2
   2  -4  -2 62883.9 8486.92   3
   2  -4  -2 82283.9 4349.97   2
   2  -4  -1 500083. 25728.6   3
   2  -4  -1 743362. 16148.3   2
   2  -4   0 247630. 6860.94   2
   2  -4   0 248762. 14311.1   3
   2  -4   1 20988.9 1624.39   1
   2  -4   1 28568.4 3736.00   3
   2  -4   2 38312.3 4301.73   4
   2  -4   2 48190.7 3669.39   3
   2  -4   2 44953.5 2550.77   1
   2  -4   3 96409.9 4329.64   1
   2  -4   3 95987.0 5320.70   5
   2  -4   4 6355.44 1725.22   4
   2  -4   4 7331.67 1541.56   5
   2  -4   4 6997.80 1281.37   1
   2  -4   5 74314.5 6310.93   4
   2  -4   5 87600.1 6052.64   5
   2  -4   5 86730.3 5340.46   1
   2  -4   6 86277.5 3559.97  11
   2  -4   6 83526.2 4869.65  12
   2  -4   6 81653.5 3480.11   7
   2  -4   6 79916.9 5607.26   1
   2  -4   7 12784.9 1372.16  26
   2  -4   7 11400.1 1627.24  12
   2  -4   7 12287.0 1343.87   7
   2  -4   7 11012.0 1246.44  11
   2  -4   8 16527.1 1534.65  11
   2  -4   8 15866.8 1554.90   7
   2  -4   8 15491.6 1893.02  22
   2  -4   8 15280.2 1760.77  12
   2  -4   9 92088.3 3598.64  11
   2  -4   9 93530.7 3802.23   7
   2  -4  10 6834.10 870.908  22
   2  -4  10 10936.9 1025.58   7
   2  -4  11 220.840 125.046   7
   2  -3 -10 1678.30 268.924   6
   2  -3  -9 570.249 271.453   6
  -2   3   8 19744.4 2002.24  16
   2  -3  -8 22426.8 1751.76   6
   2  -3  -7 1481.12 417.939  28
  -2   3   7 1299.80 577.006  16
  -2   3   6 1556.95 629.647  16
   2  -3  -6 1619.80 845.511   2
   2  -3  -6 2161.41 550.016  28
  -2   3   5 46358.1 3828.57  16
   2  -3  -5 45126.0 5729.30   3
   2  -3  -4 477.093 461.710   2
   2  -3  -4 1609.32 1138.86   3
   2  -3  -3 170049. 12821.1   3
   2  -3  -3 235235. 8301.62   2
   2  -3  -2 34847.7 5674.75   3
   2  -3  -2 43488.6 2790.51   2
   2  -3  -1 19801.0 4080.03   3
   2  -3  -1 21451.3 1568.99   2
   2  -3   0 325507. 14212.1   3
   2  -3   0 308243. 7200.60   2
   2  -3   1 973.392 276.542   1
   2  -3   1 887.988 547.805   3
   2  -3   2 109935. 3862.61   1
   2  -3   2 107476. 4576.89   3
   2  -3   3 37649.0 2491.67   1
   2  -3   3 35840.2 3137.74   5
   2  -3   3 30340.7 3343.20   4
   2  -3   4 553.175 488.445   4
   2  -3   4 1174.64 513.217   1
   2  -3   4 1248.91 628.291   5
   2  -3   5 83931.3 5243.20   1
   2  -3   6 1077.18 637.880   1
   2  -3   7 32515.6 2208.44   7
   2  -3   7 27793.0 3582.25   1
   2  -3   7 34818.1 2255.90  11
   2  -3   8 11707.9 1704.90  22
   2  -3   8 11248.6 1274.75  11
   2  -3   8 11958.9 1354.32   7
   2  -3   9 19092.4 1880.30  22
   2  -3   9 21816.8 1657.85  11
   2  -3   9 20599.2 1689.54   7
   2  -3  10 33698.3 1758.52  11
   2  -3  10 38950.2 2029.46   7
   2  -3  11 2936.76 399.043   7
  -2   2  10 749.202 202.802  27
  -2   2  10 829.083 243.197   7
   2  -2 -10 920.899 271.653   6
   2  -2  -9 969.228 354.954   6
  -2   2   8 15368.7 1775.81  16
  -2   2   7 49247.4 3414.11  16
  -2   2   6 365.080 346.975  16
   2  -2  -6 777.343 540.532   2
   2  -2  -6 520.669 266.410  28
   2  -2  -5 150098. 6984.38   2
   2  -2  -5 113260. 7737.45   3
   2  -2  -4 699700. 16520.4   2
   2  -2  -4 529380. 19717.5   3
   2  -2  -3 106292. 4466.65   2
   2  -2  -3 78579.2 6465.63   3
   2  -2  -2 3932.08 1388.35   3
   2  -2  -2 5243.26 777.650   2
   2  -2  -1 199135. 5863.63   2
   2  -2  -1 301950. 7042.48   4
   2  -2   0 139752. 3129.20   2
   2  -2   0 140759. 5121.66   4
   2  -2   1 53576.1 3558.12   3
   2  -2   1 21708.3 1331.98   1
   2  -2   2 193971. 5724.11   3
   2  -2   2 207321. 5534.23   1
   2  -2   2 195612. 7559.41   4
   2  -2   3 159962. 4543.28   3
   2  -2   3 167996. 5777.99   1
   2  -2   3 164043. 7315.47   4
   2  -2   3 150202. 6814.02   5
   2  -2   4 70584.3 4180.73   1
   2  -2   4 76395.1 5095.56   5
   2  -2   5 327660. 11385.5   1
   2  -2   6 245826. 10641.0   1
   2  -2   7 25638.5 1961.59   7
   2  -2   7 31115.1 2251.04  10
  -2   2  -7 29760.3 3938.04   2
   2  -2   7 24979.2 3473.12   1
   2  -2   8 6601.31 1130.65   7
   2  -2   8 6793.37 970.083  11
   2  -2   9 42094.9 2446.03   7
   2  -2   9 42511.7 2354.66  11
   2  -2  10 8529.83 930.003   7
   2  -2  10 7506.66 781.430  11
   2  -2  11 703.742 202.987   7
  -2   1  10 4095.64 541.305  27
  -2   1  10 5345.80 667.385   7
   2  -1  -9 11903.6 1299.28   6
  -2   1   9 11754.7 1239.83   7
  -2   1   8 30085.4 2389.57  16
  -2   1   7 2098.04 615.920  16
   2  -1  -7 1482.19 785.315   2
  -2   1   6 25213.5 3170.93   1
  -2   1   5 7280.49 1519.20   1
   2  -1  -5 6039.56 1371.55   3
  -2   1   4 4882.76 1079.60   1
   2  -1  -4 4613.60 1174.87   3
  -2   1   3 72008.2 3665.53   1
   2  -1  -3 63098.7 4312.80   3
   2  -1  -2 134740. 6184.16   3
  -2   1   2 151920. 4802.22   1
   2  -1  -1 428977. 11283.0   3
  -2   1   1 398711. 8395.99   1
   2  -1   0 56014.7 2899.55   3
   2  -1   1 324601. 7774.10   3
  -2   1  -1 285555. 6173.84   2
   2  -1   2 173471. 5159.08   3
   2  -1   2 161959. 4789.20   1
   2  -1   2 162185. 6358.20   5
   2  -1   3 73223.8 3598.01   1
   2  -1   3 71265.5 4463.48   5
   2  -1   4 44022.8 3238.88   1
   2  -1   4 50101.1 4131.72   5
   2  -1   5 13964.9 2095.17   1
  -2   1  -6 115830. 7442.39   2
   2  -1   7 33954.2 2993.87  24
  -2   1  -7 33840.8 4393.40   2
   2  -1   7 26554.4 1993.95   7
   2  -1   7 28413.9 2274.43  10
   2  -1   8 1475.00 810.225   7
   2  -1   8 812.999 420.033  24
   2  -1   9 16848.3 1492.98   7
   2  -1   9 18680.6 1678.51  24
   2  -1   9 17363.9 1440.70  11
   2  -1  10 5954.62 656.441  11
   2  -1  10 7127.46 813.824   7
   2  -1  11 1420.04 256.176   7
   2   0 -11 5890.71 548.054  15
  -2   0  10 4002.16 556.391  27
   2   0 -10 5045.89 716.890   6
  -2   0  10 4713.83 651.239   7
  -2   0   9 247.896 232.564   7
   2   0  -9 193.975 240.071   6
  -2   0   8 92742.3 4043.47  16
  -2   0   7 115583. 4604.46  16
  -2   0   7 117453. 7492.07   1
  -2   0   6 78.8945 175.623   1
  -2   0   5 69150.5 4543.36   1
   2   0  -4 101748. 5030.76   3
  -2   0   4 105525. 5025.99   1
   2   0  -3 18832.1 1916.61   3
  -2   0   3 19064.2 1718.40   1
   2   0  -2 207132. 6683.45   3
  -2   0   2 209446. 5756.59   1
  -2   0   1 114117. 3235.12   1
   2   0  -1 131362. 4613.14   3
  -2   0   0 235792. 5741.67   2
   2   0   0 256746. 6781.66   3
   2   0   1 65602.2 3875.09   3
  -2   0  -1 68700.6 3084.74   2
  -2   0  -2 999999. 20326.0   2
   2   0   2 971501. 21969.1   5
   2   0   3 427775. 12945.5   5
  -2   0  -3 441338. 11529.3   2
  -2   0  -4 24049.9 2506.67   2
  -2   0  -5 154993. 8028.74   2
  -2   0  -6 111307. 7626.70   2
   2   0   6 102807. 4539.50  10
  -2   0  -7 1025.52 804.364   2
   2   0   7 1103.59 551.075  16
   2   0   7 2413.51 840.182  24
   2   0   8 6370.28 1223.65  24
   2   0   8 6018.30 1016.93  16
   2   0   8 4773.80 832.369   7
   2   0   9 2576.63 544.206  11
   2   0   9 2716.29 519.380  16
   2   0   9 3065.48 727.739  24
   2   0   9 2395.93 556.185   7
   2   0  10 5885.70 720.037   7
   2   1 -11 4667.23 597.269  15
   2   1 -10 2326.06 484.992   6
  -2  -1  10 3259.12 510.441  27
  -2  -1  10 2798.54 538.746   7
  -2  -1   9 3616.03 637.593  27
  -2  -1   9 3397.43 678.581   7
   2   1  -9 3021.30 628.213   6
   2   1  -8 598.225 351.012   6
  -2  -1   8 233.738 253.895   7
  -2  -1   7 10968.3 2204.88   1
  -2  -1   6 2941.37 1034.22   1
  -2  -1   5 44348.3 3622.46   1
  -2  -1   4 32442.3 2661.83   1
   2   1  -4 32456.9 2323.09   3
  -2  -1   4 36111.9 2203.41   4
  -2  -1   3 6969.98 1044.63   1
   2   1  -3 8366.88 1108.00   3
   2   1  -2 586459. 13501.3   3
  -2  -1   2 591139. 13104.4   1
   2   1  -1 70610.4 3239.72   3
  -2  -1   1 80481.4 3928.86   1
  -2  -1   0 10498.4 1125.64   2
   2   1   0 11428.1 1288.27   3
  -2  -1  -1 170063. 5574.95   2
   2   1   1 167221. 5537.86   5
   2   1   2 4960.25 986.722   5
  -2  -1  -2 5092.28 936.319   2
  -2  -1  -3 94312.7 4902.63   2
  -2  -1  -4 16421.6 2299.76   2
  -2  -1  -5 3014.16 1171.67   2
   2   1   6 67755.1 4807.31  24
  -2  -1  -6 66699.4 6223.69   2
   2   1   7 90.9890 305.345  24
   2   1   7-434.905 388.107  16
   2   1   8 832.730 438.507  16
   2   1   8 1586.98 623.661  24
   2   1   9 3280.26 618.150  16
   2   1   9 3436.40 637.544   7
   2   1   9 3683.21 783.733  24
   2   1  10 2842.22 496.379   7
   2   2 -11 32041.1 1754.76  15
  -2  -2  10 9870.20 950.483   7
  -2  -2  10 8550.64 832.682  27
  -2  -2   9 607.817 304.758   7
  -2  -2   9 104.230 163.792  27
  -2  -2   8 43314.9 2430.38  27
  -2  -2   8 46460.4 2618.72   7
  -2  -2   7 19182.8 2973.16   1
  -2  -2   6 1241.30 692.304   1
  -2  -2   5 80341.4 5039.09   1
   2   2  -4 166759. 5572.05   3
  -2  -2   4 191340. 7190.47   1
   2   2  -3 159927. 5672.07   3
  -2  -2   3 174673. 6251.21   1
   2   2  -2 335720. 9463.53   3
  -2  -2   2 339638. 9185.49   1
  -2  -2   0 289786. 8927.86   2
   2   2   0 328581. 7119.63   5
  -2  -2  -1 2160.63 638.883   2
  -2  -2  -2 560386. 14776.8   2
  -2  -2  -3 144893. 6927.45   2
  -2  -2  -4 10353.8 1920.10   2
   2   2   5 7489.28 1604.43  24
  -2  -2  -5 7768.89 1939.59   2
  -2  -2  -6 39838.7 4853.83   2
   2   2   6 32676.0 3338.74  24
   2   2   7 11570.9 1749.85  16
   2   2   7 11006.6 1816.54  24
   2   2   8 37052.8 2661.96  16
   2   2   8 40280.6 3030.53  24
   2   2   9 24209.2 1582.66   7
   2   2   9 26538.3 1719.91  16
   2   2   9 28927.2 2058.59  24
   2   3 -11 1498.54 374.703  15
  -2  -3  10 4543.52 588.883  27
  -2  -3   9 11904.8 1187.14   7
  -2  -3   9 11705.4 1142.00  27
  -2  -3   8 26642.8 1842.48  27
  -2  -3   7 28219.6 3712.90   1
  -2  -3   7 25867.4 1763.86  27
  -2  -3   6 84994.0 5926.79   1
  -2  -3   5 321056. 11497.6   1
  -2  -3   4 54173.3 3839.47   1
  -2  -3   3 26092.7 2408.57   1
  -2  -3   2 133065. 5457.85   1
  -2  -3   1 3777.15 933.578   2
  -2  -3   0 47987.3 3424.17   2
  -2  -3  -1 26926.4 2629.32   2
  -2  -3  -2 127663. 6376.06   2
  -2  -3  -3 12413.0 2069.94   2
  -2  -3  -4 49177.3 4681.88   2
  -2  -3  -5 32024.8 2142.14   8
  -2  -3  -5 38661.8 4560.03   2
   2   3   5 31845.0 3251.13  24
   2   3   6 10001.2 1812.12  16
   2   3   6 8364.84 1624.78  24
   2   3   7 11366.0 1659.46  16
   2   3   7 11535.9 1739.73  24
   2   3   8 4407.72 854.208  16
   2   3   8 4900.75 976.348  24
   2   3   9 28.6885 103.110  16
   2   3   9 333.873 184.413   7
   2   4 -11 8215.14 836.664  15
  -2  -4  10 2547.71 431.467  27
   2   4 -10 1787.13 489.462  15
  -2  -4   9 114.393 231.108  12
  -2  -4   9 331.764 211.184  27
  -2  -4   8 20738.2 1703.92  27
  -2  -4   7 47817.1 2435.05  27
  -2  -4   7 53822.1 5202.85   1
  -2  -4   6 617.007 508.159   1
  -2  -4   6 978.536 309.028  27
  -2  -4   5 318450. 11773.1   1
  -2  -4   4 268669. 9935.10   1
  -2  -4   3 107893. 5556.49   1
  -2  -4   2 228293. 8843.18   2
  -2  -4   2 223242. 8202.28   1
  -2  -4   1 300711. 10821.9   2
  -2  -4   0 11536.2 1849.23   2
  -2  -4  -1 43976.7 3921.39   2
  -2  -4  -2 29412.0 3318.59   2
  -2  -4  -3 99879.1 6788.11   2
  -2  -4  -4 2547.46 611.499   8
  -2  -4  -4 3261.32 1266.53   2
   2   4   4 1970.23 791.572  24
  -2  -4  -5 75296.3 3452.43   8
   2   4   5 66072.3 4563.26  24
   2   4   6 70385.7 4540.29  16
  -2  -4  -6 66589.5 3091.72   8
   2   4   6 70205.6 4413.70  24
   2   4   7 10165.4 1437.05  16
   2   4   7 8310.91 1326.13  24
   2   4   8 8331.15 1001.53  16
  -2  -5  11 4765.35 651.882  22
   2   5 -11 5201.49 562.670  15
   2   5 -10 184.243 186.882  15
  -2  -5  10 320.326 221.429  12
  -2  -5   9 38502.9 1967.49  27
   2   5  -9 35269.7 2379.75  15
  -2  -5   9 40011.4 2604.58  12
  -2  -5   8 56282.6 3424.52  12
  -2  -5   8 56217.8 2608.12  27
   2   5  -8 48372.8 2931.56  15
  -2  -5   7 15048.3 1284.17  27
   2   5  -7 12413.3 1411.70  15
  -2  -5   6 55882.5 4999.70   1
  -2  -5   6 49129.9 2315.37  27
  -2  -5   5 82995.8 5792.39   1
  -2  -5   4 2719.35 906.175   1
  -2  -5   3 3666.47 1054.26   1
  -2  -5   2 3576.02 999.522   1
  -2  -5   1 159943. 7848.10   2
  -2  -5   0 2193.20 891.401   2
  -2  -5  -1 54873.0 4815.39   2
  -2  -5  -2 135286. 8210.26   2
   2   5   3 4440.78 1083.76  24
  -2  -5  -3 9001.33 2150.63   2
  -2  -5  -4 42738.2 2498.62   8
   2   5   4 34855.2 3064.02  24
   2   5   5 9628.99 1645.24  16
  -2  -5  -5 10050.2 1164.73   8
   2   5   5 8817.82 1469.40  24
   2   5   6 44.7711 233.531  16
   2   5   6 286.431 280.478  24
   2   5   7 8610.86 1100.07  16
   2   5   8 6.49402 75.1051  16
  -2  -6  11 1014.72 263.778  22
   2   6 -10 10883.3 985.458  15
  -2  -6  10 9874.32 985.321  12
  -2  -6  10 10886.8 1194.31  22
   2   6  -9 14027.2 1435.36  15
  -2  -6   9 11830.1 1343.50  12
   2   6  -8 71297.8 3648.08  15
  -2  -6   8 72992.9 3898.95  12
   2   6  -7 62930.8 3439.57  15
  -2  -6   6-320.060 389.225   1
  -2  -6   5 125540. 7548.55   1
  -2  -6   4 51702.9 4497.12   1
  -2  -6   3 11526.8 2049.28   1
  -2  -6   2 6432.13 1469.73   1
  -2  -6   1 25343.7 3315.22   2
  -2  -6   0 43616.1 2210.14  17
  -2  -6   0 42704.1 2504.79   9
  -2  -6   0 44655.3 4457.72   2
  -2  -6  -1 61013.5 5500.73   2
  -2  -6  -1 52674.0 2850.31   9
  -2  -6  -1 52203.9 2548.20  17
  -2  -6  -2 276295. 12616.6   2
  -2  -6  -2 202831. 6498.04   9
  -2  -6  -3 123008. 4628.24   9
   2   6   3 124840. 6249.21  16
  -2  -6  -3 128879. 4722.29   8
   2   6   4 571.420 389.713  16
  -2  -6  -4 374.364 250.126   8
   2   6   4 532.280 345.320  24
   2   6   5 23253.5 2090.71  16
   2   6   5 21972.4 1914.55  24
   2   6   6 8408.52 1040.48  16
  -2  -6  -7 2071.72 288.509  13
   2   6   7 1376.81 305.292  16
  -2  -7  10 582.022 250.899  22
  -2  -7  10 559.389 212.224  12
  -2  -7   9 24361.3 1308.28  17
  -2  -7   9 25451.4 1854.68  12
  -2  -7   9 25965.1 1953.52  22
  -2  -7   8 5812.07 731.947  17
  -2  -7   8 7142.52 1132.52  12
  -2  -7   7 1874.81 459.820  17
  -2  -7   7 2706.11 760.933  12
  -2  -7   6 706.700 299.687  17
  -2  -7   5 35652.8 2055.90  17
  -2  -7   4 33664.2 3697.72   1
  -2  -7   4 30269.1 1995.19   9
  -2  -7   4 27962.3 1797.07  17
  -2  -7   3 31705.9 2094.14   9
  -2  -7   3 34950.1 3758.72   1
  -2  -7   3 28618.5 1811.96  17
  -2  -7   2 207298. 6293.82   9
  -2  -7   2 208080. 9691.74   1
  -2  -7   2 189555. 5593.95  17
  -2  -7   1 113316. 4025.25  17
  -2  -7   1 122190. 4615.13   9
  -2  -7   1 123938. 7902.99   2
  -2  -7   1 117196. 3869.63  13
  -2  -7   0 33236.9 1996.57  17
  -2  -7   0 39271.5 4449.48   2
  -2  -7   0 36725.6 2368.80   9
  -2  -7  -1 62028.3 3171.04   9
  -2  -7  -1 58901.1 2894.39   8
  -2  -7  -2 35950.3 2330.41   9
  -2  -7  -2 38494.7 2291.13   8
  -2  -7  -3 639.028 308.056   9
  -2  -7  -3 905.548 381.663   8
   2   7   4 926.572 367.526  16
  -2  -7  -4 1947.79 450.727   8
   2   7   5 2239.85 459.278  16
  -2  -7  -6 2035.46 291.396  13
  -2  -7  -6 2138.83 274.388  28
  -2  -8   9 9987.12 991.140  12
  -2  -8   9 8043.50 785.684  22
  -2  -8   8 35215.5 1628.49  17
  -2  -8   8 37135.3 2343.61  12
  -2  -8   8 34083.7 1986.87  22
  -2  -8   7 3609.70 563.943  17
  -2  -8   7 4042.34 850.269  12
  -2  -8   6 2117.97 461.709  17
  -2  -8   6 1789.93 607.763  12
  -2  -8   5 1067.46 330.332  17
  -2  -8   5 1155.32 471.205  12
  -2  -8   4 28163.1 1740.08  17
  -2  -8   4 26636.8 2121.79  12
  -2  -8   4 28589.8 1908.65   9
  -2  -8   3 1539.44 476.837   9
  -2  -8   3 1227.62 362.917  17
  -2  -8   2 39379.3 2393.99   9
  -2  -8   2 37526.0 2068.44  17
  -2  -8   1 109084. 3739.52  13
  -2  -8   1 110963. 3810.20   8
  -2  -8   1 107513. 3832.89  17
  -2  -8   1 113114. 4402.05   9
  -2  -8   0 72521.4 3003.44  17
  -2  -8   0 72564.2 3026.19   8
  -2  -8   0 70552.1 2932.24  13
  -2  -8   0 72756.8 3402.47   9
  -2  -8  -1 14836.2 1444.05   9
  -2  -8  -1 14543.7 1277.37   8
  -2  -8  -1 14508.9 1217.34  13
  -2  -8  -2 21556.6 1646.76   9
  -2  -8  -2 21461.6 1529.47   8
  -2  -8  -2 22893.4 1472.09  13
  -2  -8  -3 13162.0 1088.83   8
  -2  -8  -3 13372.3 1026.75  13
  -2  -8  -3 11551.3 1054.01   9
  -2  -8  -4 133.082 143.508  13
  -2  -8  -5-32.9935 64.1730  13
  -2  -8  -5 182.234 102.397  28
  -2  -9   9 2636.42 387.192  12
  -2  -9   8 11243.9 681.267  17
  -2  -9   8 13458.1 1127.30  12
  -2  -9   7 361.679 245.435  12
  -2  -9   7 309.982 156.288  17
  -2  -9   6 30663.2 1652.51  25
  -2  -9   6 29943.1 1998.28  12
  -2  -9   6 29358.2 1513.15  17
  -2  -9   5 130292. 3867.54  17
  -2  -9   5 127441. 4482.92  12
  -2  -9   4 29647.9 1811.69   9
  -2  -9   4 28871.0 1629.56  17
  -2  -9   3 27831.3 1611.41  17
  -2  -9   3 28063.2 1844.61   9
  -2  -9   2 44874.9 2415.00   9
  -2  -9   2 44368.9 2123.55  17
  -2  -9   1 12506.5 1061.72  17
  -2  -9   1 12191.7 1225.58   9
  -2  -9   1 10667.6 915.281   8
  -2  -9   1 10989.8 947.460  13
  -2  -9   0 2666.84 566.980   9
  -2  -9   0 3497.17 523.309   8
  -2  -9   0 2479.57 450.209  13
  -2  -9  -1 520.738 253.090   9
  -2  -9  -1 361.963 175.802   8
  -2  -9  -1 516.723 216.301  13
  -2  -9  -2 5899.34 606.197  13
  -2  -9  -2 5795.68 673.237   9
  -2  -9  -3 1160.22 234.262  13
  -2 -10   7 4255.23 355.555  17
  -2 -10   6 178.422 107.295  25
  -2 -10   6 874.341 202.029  17
  -2 -10   5 19806.8 1061.25  17
  -2 -10   4 50104.1 1897.34  17
  -2 -10   4 49990.5 2066.74   9
  -2 -10   3 2240.02 374.325  17
  -2 -10   3 1817.44 390.961   9
  -2 -10   2 24089.7 1470.04   9
  -2 -10   1 31438.6 1674.07   9
  -2 -10   0 6187.85 674.962   9
  -2 -10  -1 951.793 218.534   9
  -2 -11   4 2895.09 334.046  25
  -2 -11   3 542.768 165.340  25
   3 -11   0 1801.23 235.419  29
   3 -11   1 961.864 202.229  29
   3 -11   2 318.930 131.704  29
   3 -11   3 7127.44 561.688  25
   3 -11   3 8104.66 576.827  29
   3 -11   4 44370.5 1594.93  25
   3 -10  -2 9266.11 624.855  29
   3 -10  -1 2397.03 375.351  29
   3 -10   0 12560.9 948.861  29
   3 -10   1 1771.78 344.957  25
   3 -10   1 1814.57 376.673  29
   3 -10   2 1767.27 389.204  29
   3 -10   2 1984.10 403.431  25
   3 -10   3 1999.21 388.629  29
   3 -10   3 1768.97 410.952  25
   3 -10   4 7116.43 697.238  29
   3 -10   4 7299.82 791.945  25
   3 -10   5 50630.0 2106.11  25
   3 -10   5 45749.0 1754.08  29
   3 -10   6 2167.83 388.190  25
   3 -10   7 6128.22 528.130  26
   3  -9  -4 911.311 183.251  28
   3  -9  -3 127.880 110.545  28
   3  -9  -3 321.967 157.294  29
   3  -9  -2 1502.84 362.351  29
   3  -9  -2 1375.92 293.253  28
   3  -9  -1 6824.36 793.690  29
   3  -9  -1 5144.39 556.982  28
   3  -9   0 28826.7 1751.72  29
   3  -9   1 82317.2 3199.04  25
   3  -9   1 81916.3 3184.27  29
   3  -9   2 1458.76 437.956  25
   3  -9   2 1718.72 411.703  29
   3  -9   3 83356.2 3149.07  29
   3  -9   3 91736.6 3563.55  25
   3  -9   4 118370. 4458.48  12
   3  -9   4 121693. 4186.12  25
   3  -9   4 116128. 4132.62  22
   3  -9   4 109450. 3690.66  29
   3  -9   5 15220.3 1465.37  12
   3  -9   5 14698.9 1334.03  22
   3  -9   5 14901.6 1271.56  25
   3  -9   5 15018.9 1119.57  29
   3  -9   6 11772.4 1248.05  12
   3  -9   6 11165.2 873.497  29
   3  -9   6 10541.1 1091.44  22
   3  -9   6 11637.9 1050.78  25
   3  -9   7 2448.88 526.824  12
   3  -9   7 1905.45 444.391  22
   3  -9   8 100.361 84.9762  26
   3  -9   8 206.931 164.064  12
   3  -9   8 274.287 154.902  22
   3  -8  -5 5008.12 511.947  28
   3  -8  -4 68.1892 125.419  28
   3  -8  -3 14212.2 1088.24  28
   3  -8  -3 13685.1 1073.56  13
   3  -8  -2 498.750 234.579  13
   3  -8  -2 115.446 139.746  28
   3  -8  -1 5267.09 748.669  13
   3  -8  -1 5147.84 657.861  28
   3  -8   0 711.099 369.042   9
   3  -8   1 40030.3 2202.18  29
   3  -8   1 38609.7 2561.14   9
   3  -8   2 81400.8 3705.39   9
   3  -8   2 80973.2 3260.78  29
   3  -8   2 91714.9 3811.73  25
   3  -8   3 233.168 199.494  29
   3  -8   3 357.821 270.647  25
   3  -8   3 269.018 374.571  12
   3  -8   3 375.541 249.083  22
   3  -8   4 37812.1 2334.04  25
   3  -8   4 37351.4 2612.91  12
   3  -8   4 35155.1 2003.35  29
   3  -8   4 39636.7 2603.28  22
   3  -8   5 69808.5 2865.87  29
   3  -8   5 65829.6 3076.39  25
   3  -8   5 69895.5 3581.38  22
   3  -8   5 70552.4 3697.42  12
   3  -8   6 1394.15 397.399  29
   3  -8   6 1663.33 550.223  12
   3  -8   6 1744.15 466.966  25
   3  -8   6 1157.16 471.396  22
   3  -8   7 14266.6 1479.33  12
   3  -8   7 14131.0 1445.44  22
   3  -8   8 3749.68 531.878  26
   3  -8   8 4164.40 711.929  12
   3  -8   8 3964.15 673.907  22
   3  -8   9 642.050 222.311  22
   3  -8   9 586.816 219.918  12
   3  -7  -6 417.006 181.988  28
   3  -7  -5 377.632 212.256  28
   3  -7  -4 10803.1 976.411  13
   3  -7  -4 11095.4 1091.73  28
   3  -7  -3 84330.7 3397.93  28
   3  -7  -3 81592.3 3195.23  13
   3  -7  -2 54521.1 2632.66  28
   3  -7  -2 51767.7 2532.89  13
   3  -7  -1 21293.1 2123.74   9
   3  -7  -1 24094.6 4303.88   3
   3  -7  -1 26077.8 1717.38  28
   3  -7  -1 26469.1 1745.75  13
   3  -7   0 159534. 6223.86   9
   3  -7   0 153401. 10565.6   3
   3  -7   0 151903. 4778.17  13
   3  -7   1 254366. 8056.44   9
   3  -7   1 215020. 11631.1   3
   3  -7   2 2571.67 1203.19   4
   3  -7   2 1582.66 525.649   9
   3  -7   2 1715.10 455.189  29
   3  -7   2 1816.38 531.779  22
   3  -7   3 7224.30 1104.11  22
   3  -7   3 7549.15 1078.09  25
   3  -7   3 7176.39 1166.67  12
   3  -7   3 6110.97 1903.79   4
   3  -7   3 6885.57 869.502  29
   3  -7   4 8234.53 976.188  29
   3  -7   4 9876.79 2548.63   4
   3  -7   4 9496.65 1396.65  12
   3  -7   4 9213.06 1176.45  25
   3  -7   4 10511.7 1387.70  22
   3  -7   5 7298.11 1025.54  25
   3  -7   5 7686.62 1290.46  12
   3  -7   5 8212.03 1241.61  22
   3  -7   5 8731.46 1001.41  29
   3  -7   6 29349.5 1957.18   7
   3  -7   6 22454.4 2232.67  12
   3  -7   6 23871.9 2161.58  22
   3  -7   6 26329.4 1965.70  25
   3  -7   6 24737.5 1689.74  29
   3  -7   7 92981.5 3677.45   7
   3  -7   7 99104.4 4571.82  12
   3  -7   7 94347.1 4360.85  22
   3  -7   8 13496.1 1195.55   7
   3  -7   8 12422.5 1151.65  26
   3  -7   8 13634.7 1416.23  12
   3  -7   8 11848.4 1350.43  22
   3  -7   9 2234.42 487.549  22
   3  -7   9 1620.18 413.159  12
   3  -7  10 18542.6 980.645  22
   3  -6  -7 2014.27 327.625   6
   3  -6  -7 8365.85 693.071  28
   3  -6  -6 4474.99 561.571   6
   3  -6  -6 4690.37 663.249  28
   3  -6  -5 3862.16 730.212  28
   3  -6  -5 2536.39 453.961   6
   3  -6  -4 12977.6 1388.98  28
   3  -6  -4 13434.1 1201.11  13
   3  -6  -3 8946.59 2912.22   3
   3  -6  -3 6861.17 890.048  13
   3  -6  -2 36990.5 3041.84   9
   3  -6  -2 46744.7 2390.08  13
   3  -6  -2 41647.6 6343.81   3
   3  -6  -1 36006.7 3032.59   9
   3  -6  -1 41250.7 2197.18  13
   3  -6  -1 41929.4 6095.13   3
   3  -6   0 18728.6 3708.87   3
   3  -6   1 133066. 8852.30   3
   3  -6   1 84181.1 7488.32   4
   3  -6   2 39344.0 5049.18   4
   3  -6   3 90134.2 3392.80  29
   3  -6   3 89712.8 4013.10  25
   3  -6   4 10219.1 2609.62   4
   3  -6   4 13821.8 1310.04   7
   3  -6   4 14212.3 1287.89  29
   3  -6   4 13003.2 1760.96  12
   3  -6   4 12250.3 1532.35  22
   3  -6   4 12373.4 1399.72  25
   3  -6   5 11605.3 2723.76   4
   3  -6   5 17281.9 1448.88  29
   3  -6   5 16701.8 1469.06   7
   3  -6   5 15519.8 1548.22  25
   3  -6   5 18554.7 2170.27  12
   3  -6   5 17107.4 1862.32  22
   3  -6   6 10706.2 1528.82  22
   3  -6   6 13704.4 1454.28  25
   3  -6   6 11579.8 1745.16  12
   3  -6   6 11787.9 1219.89  29
   3  -6   6 13158.6 1331.13   7
   3  -6   7 162.148 204.197   7
   3  -6   7 244.270 277.131  22
   3  -6   7 60.7504 278.342  12
   3  -6   8 41682.7 2404.50   7
   3  -6   8 35809.5 2570.45  12
   3  -6   8 42729.7 2374.43  26
   3  -6   9 4476.69 725.274  12
   3  -6   9 5039.70 691.126   7
   3  -6   9 4668.80 769.373  22
   3  -6  10 1055.26 253.512   7
   3  -6  10 759.059 224.551  22
   3  -5  -8 835.741 221.871   6
   3  -5  -8 701.789 187.367  28
   3  -5  -7 13240.9 1109.35  28
   3  -5  -7 12271.7 1037.62   6
   3  -5  -6 36538.4 1997.12   6
   3  -5  -6 36989.6 2246.21  28
  -3   5   5 1601.85 788.562  16
   3  -5  -5 1729.91 450.647   6
   3  -5  -5 1988.51 578.598  28
  -3   5   4 47977.7 5496.60  16
   3  -5  -4 40138.2 6415.64   3
   3  -5  -4 44942.5 2945.64  28
   3  -5  -4 39501.1 2086.69   6
  -3   5   3 199273. 11415.0  16
   3  -5  -3 182028. 14856.6   3
   3  -5  -3 226640. 6406.42  13
   3  -5  -2 42191.7 6917.18   3
   3  -5  -1 4479.12 2090.63   3
   3  -5   0 7132.40 2054.14   4
   3  -5   0 13956.4 3235.96   3
   3  -5   1 36394.3 4350.07   3
   3  -5   1 17302.5 3442.02   4
   3  -5   2 6430.12 2074.19   4
   3  -5   2 12996.3 2054.91   3
   3  -5   3 121763. 6719.47   5
   3  -5   3 73982.9 7058.45   4
   3  -5   4 160896. 8174.78   5
   3  -5   4 118217. 8958.32   4
   3  -5   5 22046.1 1625.70  29
   3  -5   5 18061.1 1506.24   7
   3  -5   5 19110.8 1720.52  25
   3  -5   5 17479.5 2335.00  12
   3  -5   5 20743.5 2992.03   5
   3  -5   5 17295.8 1414.81  11
   3  -5   5 19336.7 2050.34  22
   3  -5   6 127066. 4571.94  29
   3  -5   6 149140. 5367.31  25
   3  -5   6 167644. 7346.93  12
   3  -5   6 139788. 4847.04  11
   3  -5   6 140438. 4946.61   7
   3  -5   6 118185. 5795.83  22
   3  -5   7 191106. 6179.76   7
   3  -5   7 189411. 7601.32  12
   3  -5   7 195551. 6173.04  11
   3  -5   7 203356. 7666.15  22
   3  -5   7 211372. 6685.68  26
   3  -5   8 26893.9 1931.87  26
   3  -5   8 24445.4 1842.27   7
   3  -5   8 23643.4 1821.04  11
   3  -5   8 24088.2 2171.36  12
   3  -5   9 1313.93 452.059  22
   3  -5   9 1474.07 436.814  12
   3  -5   9 1208.35 377.769  11
   3  -5   9 1532.32 437.199   7
   3  -5  10 9379.63 823.890   7
   3  -5  10 4519.98 587.764  22
   3  -4  -9 253.244 152.231   6
   3  -4  -8 463.839 204.401  28
   3  -4  -8 1001.23 311.874   6
   3  -4  -7 11512.7 1162.75  28
   3  -4  -7 16435.6 1436.60   6
   3  -4  -6 139.471 212.010  28
  -3   4   6 366.496 406.894  16
   3  -4  -6 753.826 337.385   6
   3  -4  -5 42795.9 6095.41   3
   3  -4  -5 50734.9 3155.76  28
  -3   4   4 4994.15 1927.61  16
   3  -4  -4 6853.13 1169.39  28
   3  -4  -4 5179.65 2256.97   3
   3  -4  -3 2111.78 1568.14   3
   3  -4  -2 104361. 11001.0   3
   3  -4  -1 1775.70 1272.46   3
   3  -4   0 80770.6 7304.57   3
   3  -4   0 60340.9 5341.51   4
   3  -4   1 28361.0 3357.57   3
   3  -4   1 21745.5 3346.82   4
   3  -4   2 8633.28 2136.94   4
   3  -4   2 14324.9 1952.66   3
   3  -4   3 163383. 7804.21   5
   3  -4   3 118641. 8420.01   4
   3  -4   4 17791.0 2616.65   5
   3  -4   4 21512.9 3766.65   4
   3  -4   5 64888.8 5458.16   5
   3  -4   6 34712.4 2210.01   7
   3  -4   6 43527.9 3702.55  12
   3  -4   6 35885.3 2244.09  11
   3  -4   6 35563.2 3159.29  22
   3  -4   7 49200.6 3639.47  12
   3  -4   7 53579.8 2999.04  26
   3  -4   7 49548.1 2773.86  11
   3  -4   7 51132.5 3786.12  22
   3  -4   7 48352.4 2748.41   7
   3  -4   8 78609.7 3554.20  11
   3  -4   8 77880.5 4067.91  12
   3  -4   8 69504.0 4152.44  22
   3  -4   8 80664.4 3484.43  26
   3  -4   8 78159.4 3537.46   7
   3  -4   9 5335.75 784.621  11
   3  -4   9 5737.21 824.116   7
   3  -4   9 4728.25 852.994  22
   3  -4  10 3090.38 489.064   7
  -3   3   9 10075.7 906.998   7
   3  -3  -9 13743.7 1119.84   6
   3  -3  -8 1706.13 532.673   6
   3  -3  -7 41912.2 2370.38  28
   3  -3  -7 53108.5 3099.71   6
  -3   3   6 122284. 6292.15  16
   3  -3  -6 119744. 4608.19  28
   3  -3  -5 17071.2 3398.44   3
  -3   3   5 16813.0 2557.08  16
   3  -3  -5 19719.7 1764.90  28
   3  -3  -4 5007.77 1178.18   2
   3  -3  -4 2132.70 1251.40   3
   3  -3  -3 19582.6 4012.74   3
   3  -3  -3 33957.9 2705.30   2
   3  -3  -2 8808.07 2571.85   3
   3  -3  -1 17149.8 3225.43   3
   3  -3   0 236142. 8789.73   4
   3  -3   0 261949. 11189.2   3
   3  -3   1 178495. 7575.22   3
   3  -3   1 155122. 7712.46   4
   3  -3   2 7764.81 1746.46   4
   3  -3   2 10176.7 1419.55   3
   3  -3   3 527072. 15932.5   5
   3  -3   4 328854. 12396.3   5
   3  -3   5 24096.4 3299.22   5
   3  -3   6 23826.8 1888.60  26
   3  -3   6 30994.1 3000.72  12
   3  -3   6 26901.8 3109.39  22
   3  -3   6 23520.3 1762.61   7
   3  -3   7 76623.7 3593.29  26
   3  -3   7 77395.7 5061.20  22
   3  -3   7 71538.9 3441.00   7
   3  -3   7 85305.6 3654.55  10
   3  -3   8 3743.11 769.744  11
   3  -3   8 4201.38 770.740   7
   3  -3   8 3475.38 980.710  22
   3  -3   9 8310.09 986.757   7
   3  -3   9 9576.08 1059.47  11
   3  -3  10 12422.2 1030.03   7
   3  -3  10 11155.3 917.548  11
   3  -2 -10 5048.56 579.943   6
  -3   2  10 3909.19 460.010  27
   3  -2  -9 1041.69 370.387   6
  -3   2   9 932.257 331.570   7
   3  -2  -8 6707.39 1117.41   6
   3  -2  -7 10881.3 1593.35   6
   3  -2  -7 9895.18 1073.63  28
  -3   2   6 9990.60 1581.09  16
   3  -2  -6 10299.7 2001.49   2
   3  -2  -6 7998.53 989.350  28
   3  -2  -5 6080.60 1690.64   3
   3  -2  -5 10150.9 1712.50   2
   3  -2  -4 93014.3 6887.69   3
   3  -2  -4 137648. 5735.62   2
   3  -2  -3 106024. 7304.06   3
   3  -2  -3 154634. 5394.46   2
   3  -2  -2 2150.50 956.658   3
   3  -2  -2 3935.68 645.259   2
   3  -2  -1 198820. 8792.43   3
   3  -2   0 89167.9 4981.33   3
   3  -2   1 90943.2 4520.62   3
   3  -2   2 43634.8 2774.36   3
  -3   2  -2 25799.0 1509.19   2
  -3   2  -3 22410.4 1875.54   2
   3  -2   3 28203.0 2229.84   1
   3  -2   3 29013.3 2135.94   3
   3  -2   3 26573.4 2898.59   5
  -3   2  -4 194380. 7975.27   2
   3  -2   4 197557. 9265.82   5
   3  -2   5 49236.9 4803.23   5
  -3   2  -5 55003.2 4852.99   2
   3  -2   5 47028.9 4228.05   1
   3  -2   6 2032.40 560.508  10
   3  -2   6 1271.92 430.061   7
   3  -2   6 1416.72 450.108  26
   3  -2   7 44698.4 3275.08  24
   3  -2   7 34845.4 2304.19   7
   3  -2   7 39743.2 2372.59  26
   3  -2   7 42545.9 2662.51  10
   3  -2   8 4729.47 824.877   7
   3  -2   9 6833.99 875.758   7
   3  -2   9 6921.93 898.199  11
   3  -2  10 1895.55 378.579   7
   3  -2  10 1243.91 328.756  11
  -3   1  10 15665.5 1028.59  27
   3  -1 -10 19384.8 1294.58   6
   3  -1  -9 21657.9 1810.36   6
   3  -1  -8 924.688 462.380   6
   3  -1  -7 11361.6 2136.84   2
   3  -1  -7 12802.2 1776.17   6
  -3   1   6 20392.6 2022.63  16
  -3   1   6 15979.7 2506.47   1
   3  -1  -5 5469.78 1395.83   3
  -3   1   5 17242.7 2474.91   1
   3  -1  -4 66255.3 4852.66   3
  -3   1   4 76458.5 4362.88   1
  -3   1   3 45105.4 2824.41   1
   3  -1  -3 37251.8 3417.84   3
   3  -1  -2 139761. 6522.14   3
  -3   1   2 153203. 4751.93   1
  -3   1   1 25784.4 1087.82   1
   3  -1  -1 28961.1 2586.56   3
   3  -1   0 905457. 20477.1   3
  -3   1  -1 384492. 8333.66   2
   3  -1   1 455673. 11215.3   3
   3  -1   2 22169.9 2019.88   3
  -3   1  -2 19453.9 1597.22   2
  -3   1  -3 174478. 6392.46   2
   3  -1   3 184386. 8075.60   5
  -3   1  -4 126554. 6314.82   2
   3  -1   4 116084. 6875.22   5
  -3   1  -5 8789.85 1959.39   2
  -3   1  -6 28900.6 4164.85   2
   3  -1   6 26491.2 1879.62   7
   3  -1   6 27002.7 2090.97  10
   3  -1   6 26915.8 1861.16  26
   3  -1   7 9146.76 1148.74   7
   3  -1   7 12677.7 1508.43  10
   3  -1   7 13328.2 1916.56  24
   3  -1   8 46636.2 2597.10   7
   3  -1   8 26157.0 2513.09  24
   3  -1   9 4965.90 723.830   7
   3  -1   9 5580.94 874.456  24
   3  -1   9 5082.73 751.493  11
   3  -1  10 19105.9 1172.28   7
   3  -1  10 20875.7 1186.34  11
   3   0 -10 10.0596 104.318  15
  -3   0  10-94.9632 138.713  27
   3   0 -10 190.335 229.075   6
   3   0  -9 3564.44 735.774   6
   3   0  -8 1917.34 596.929   6
  -3   0   7 86284.7 6371.46   1
   3   0  -7 56093.3 3457.57   6
  -3   0   6 17684.7 2608.79   1
   3   0  -5 1219.66 604.203   3
  -3   0   5 4730.95 1154.68   1
   3   0  -4 470548. 14141.7   3
  -3   0   4 494800. 13441.7   1
   3   0  -3 6991.59 1335.58   3
  -3   0   3 6088.36 1001.32   1
   3   0  -2 73100.2 4205.03   3
  -3   0   2 75119.0 3100.83   1
  -3   0   1 145586. 3999.93   1
   3   0  -1 129047. 5526.43   3
   3   0   0 13059.1 1544.78   3
  -3   0   0 12894.3 1130.92   2
  -3   0   0 12518.5 908.392   1
   3   0   1 155338. 5811.57   3
  -3   0  -1 126905. 4700.27   2
   3   0   2 6057.20 1129.47   3
  -3   0  -2 5476.08 966.336   2
   3   0   2 6008.13 1211.24   5
  -3   0  -3 24697.5 2405.81   2
   3   0   3 24587.6 2767.35   5
  -3   0  -4 131076. 6933.44   2
  -3   0  -5 12118.3 2309.09   2
   3   0   6 36999.5 3264.61  18
  -3   0  -6 30135.5 4321.55   2
   3   0   6 29521.9 2333.34  10
   3   0   7 4385.07 926.356  10
   3   0   7 5557.63 1288.03  24
   3   0   7 3538.74 725.278   7
   3   0   8 23281.7 1965.71  16
   3   0   8 23555.7 1742.93   7
   3   0   8 26191.3 2468.27  24
   3   0   9 7005.27 823.280   7
   3   0   9 9485.80 1162.78  24
   3   0  10 1272.26 285.530   7
   3   0  10 1561.15 279.036  11
   3   1 -11 384.023 174.102  15
   3   1 -10 8758.97 894.959   6
  -3  -1  10 8528.39 849.287  27
   3   1  -9 2034.47 534.614   6
  -3  -1   9 9216.44 1057.80  27
   3   1  -8 643.546 345.643   6
  -3  -1   7 86897.5 6478.33   1
   3   1  -7 57228.6 3105.27   6
  -3  -1   6 113117. 6978.61   1
  -3  -1   5 50512.0 4072.88   1
   3   1  -4 247142. 8928.16   3
  -3  -1   4 245039. 8678.87   1
   3   1  -3 604598. 15885.0   3
  -3  -1   3 614600. 14726.3   1
  -3  -1   2 217285. 6588.17   1
   3   1  -2 217021. 7651.05   3
   3   1  -1 13731.7 1645.82   3
  -3  -1   1 13842.2 1291.20   1
   3   1   0 549923. 14339.9   3
  -3  -1   0 567338. 13658.3   2
  -3  -1  -1 76567.5 3982.47   2
   3   1   1 73836.0 4347.89   3
   3   1   1 74241.3 3929.13   5
   3   1   2 13122.6 1741.05   5
  -3  -1  -2 15028.0 1795.48   2
  -3  -1  -3 57397.7 4036.23   2
  -3  -1  -4 99266.2 6191.78   2
   3   1   5 11702.3 1418.58  10
  -3  -1  -5 13413.8 2539.35   2
  -3  -1  -6 184068. 11100.9   2
   3   1   6 202082. 8540.39  18
   3   1   7 92651.7 5486.27  24
   3   1   8 45558.3 2882.63  16
   3   1   8 42231.5 2337.82   7
   3   1   9 702.792 269.546  16
   3   1   9 570.424 244.855   7
   3   1   9 1077.83 415.612  24
   3   2 -11 10812.9 959.864  15
  -3  -2  11 4574.29 411.870  27
   3   2 -10 11666.2 1290.65  15
  -3  -2  10 9357.91 892.008  27
  -3  -2   9 4338.22 711.927  27
  -3  -2   8 42802.1 2472.90  27
  -3  -2   7 123946. 4473.83  27
  -3  -2   7 126787. 8100.16   1
  -3  -2   6 9487.69 2010.20   1
  -3  -2   5 9638.64 1798.65   1
   3   2  -4 51332.8 3456.67   3
  -3  -2   4 53910.7 3782.91   1
   3   2  -3 10566.7 1553.67   3
  -3  -2   3 11513.1 1551.62   1
  -3  -2   2 11835.7 1444.77   1
   3   2  -2 10985.0 1574.59   3
   3   2  -1 1800.11 651.709   3
  -3  -2   1 1757.31 612.778   2
  -3  -2   0 156749. 6441.63   2
   3   2   0 143089. 4855.13   5
  -3  -2  -1 4910.86 1099.72   2
   3   2   1 4141.57 825.507   5
  -3  -2  -2 125664. 6183.13   2
  -3  -2  -3 61060.8 4559.66   2
  -3  -2  -4 14061.9 2411.23   2
   3   2   5 40721.0 4128.66  18
   3   2   5 30658.8 2399.66  10
  -3  -2  -5 37384.7 4420.49   2
   3   2   6 24683.9 3000.96  24
   3   2   7 568.709 430.244  16
   3   2   7 396.844 406.074  24
   3   2   8 8222.74 953.488   7
   3   2   8 7496.46 1140.53  16
   3   2   8 8241.38 1314.08  24
   3   2   9 116.405 116.911  16
   3   2   9 147.091 140.546   7
   3   2   9-22.7333 122.192  24
   3   2   9 248.581 157.422  11
   3   3 -11 348.404 195.654  15
   3   3 -10 5004.55 837.910  15
  -3  -3  10 4232.05 584.833  27
  -3  -3   9 15548.1 1349.64  27
  -3  -3   8 717.715 333.685  27
  -3  -3   7 147992. 4992.52  27
  -3  -3   7 152347. 9105.91   1
  -3  -3   6 144452. 4691.71  27
  -3  -3   6 147030. 8278.23   1
  -3  -3   5 45898.0 4044.25   1
  -3  -3   4 200020. 8287.91   1
  -3  -3   3 193147. 7669.18   1
  -3  -3   2 6206.76 1149.32   1
  -3  -3   1 45106.9 3544.13   2
  -3  -3   0 25634.3 2729.37   2
  -3  -3  -1 212849. 8851.64   2
  -3  -3  -2 2780.37 989.485   2
  -3  -3  -3 222612. 10067.3   2
   3   3   4 196863. 7579.12  15
   3   3   4 190525. 6599.96  10
   3   3   5 20645.9 2903.32  18
  -3  -3  -5 19795.5 1710.87   8
   3   3   5 18350.2 2541.34  24
  -3  -3  -5 23333.6 3657.34   2
   3   3   6 59266.2 4348.72  24
   3   3   7 15407.8 1867.56  16
   3   3   7 15563.1 1938.82  24
   3   3   8 3323.24 673.644  16
   3   3   8 2529.14 495.139   7
   3   3   8 3826.29 762.303  24
   3   3   9 176.671 111.723  16
   3   4 -11 16031.5 1165.27  15
  -3  -4  10 16134.7 1113.01  27
   3   4 -10 19128.4 1583.79  15
   3   4  -9 2769.22 681.599  15
  -3  -4   9 3107.01 583.209  27
  -3  -4   9 3320.20 766.006  12
   3   4  -8 19939.7 1907.39  15
  -3  -4   8 23036.1 1707.01  27
  -3  -4   7 24336.7 1762.25  27
   3   4  -7 17507.8 1795.06  15
  -3  -4   7 26484.7 3596.60   1
  -3  -4   6 5525.99 1535.51   1
   3   4  -6 4753.82 915.808  15
  -3  -4   6 5481.83 779.217  27
  -3  -4   5 5888.75 1462.41   1
  -3  -4   4 19470.9 2508.28   1
  -3  -4   3 126967. 6422.46   1
  -3  -4   2 10864.7 1723.97   1
  -3  -4   1 157653. 7691.27   2
  -3  -4   0 185026. 8639.33   2
  -3  -4  -1 315.578 366.603   2
  -3  -4  -2 120859. 7359.09   2
  -3  -4  -3 13524.3 2549.74   2
   3   4   3 14945.1 2617.62  18
   3   4   3 10286.5 1501.09  15
  -3  -4  -4 4641.75 1622.29   2
   3   4   4 3469.91 1181.01  18
   3   4   4 2517.57 894.505  24
  -3  -4  -5 16543.5 1532.55   8
   3   4   5 14044.1 1992.54  24
   3   4   6 3113.76 920.020  16
  -3  -4  -6 2810.17 565.588   8
   3   4   6 3257.07 920.294  24
   3   4   7 4836.58 904.042  16
   3   4   7 3462.00 786.645  24
   3   4   8-112.643 90.2777   7
   3   4   8 182.380 157.260  16
  -3  -5  11 5438.61 636.734  22
   3   5 -10 31033.3 1952.59  15
  -3  -5  10 15038.5 1246.64  12
   3   5  -9 20866.3 1849.12  15
  -3  -5   9 25528.7 1598.68  27
  -3  -5   9 23805.3 2019.59  12
   3   5  -8 2026.44 608.584  15
  -3  -5   8 2610.08 553.343  27
   3   5  -7 52034.7 3239.23  15
  -3  -5   7 64305.0 2890.18  27
   3   5  -6 15174.9 1679.10  15
  -3  -5   6 18067.6 1417.32  27
   3   5  -5 5751.48 987.729  15
  -3  -5   5 7217.61 920.654  27
  -3  -5   5 5801.75 1546.81   1
  -3  -5   4 6043.83 1508.41   1
  -3  -5   3 62639.9 4729.18   1
  -3  -5   2 53166.3 4253.95   1
  -3  -5   1 145193. 8000.37   2
  -3  -5   0 413943. 14969.0   2
  -3  -5  -1 250279. 11448.5   2
   3   5   2 4576.58 1390.52  18
  -3  -5  -2 6113.80 925.905   9
  -3  -5  -2 8616.18 2040.12   2
   3   5   3 66279.4 5067.34  18
   3   5   3 64737.5 4139.20  15
   3   5   3 57629.1 3953.64  24
  -3  -5  -4 27197.9 1974.58   8
   3   5   4 18274.1 2099.52  24
   3   5   5 7705.59 1428.47  16
  -3  -5  -5 7913.90 993.612   8
   3   5   5 6977.63 1205.55  24
   3   5   6 8147.13 1225.25  16
   3   5   6 5263.20 961.220  24
   3   5   7 4582.11 692.074  16
  -3  -6  10 1098.41 234.461  17
  -3  -6  10 1063.28 319.757  12
   3   6 -10 856.688 292.287  15
   3   6  -9 1047.90 499.565  15
  -3  -6   9 1103.83 454.419  12
   3   6  -8 1389.89 510.704  15
  -3  -6   8 1226.47 542.158  12
   3   6  -7 55036.7 3378.31  15
   3   6  -6 12238.7 1536.76  15
  -3  -6   5 66574.0 5520.72   1
   3   6  -5 53500.7 3248.36  15
  -3  -6   4 186005. 9268.06   1
  -3  -6   4 184134. 5980.65  20
  -3  -6   3 105001. 3817.45  17
  -3  -6   3 119215. 7054.36   1
  -3  -6   3 113243. 4444.14  20
  -3  -6   2 33232.0 1931.87  17
  -3  -6   2 36380.3 2337.51  20
  -3  -6   2 35017.1 3685.85   1
  -3  -6   1 83218.3 3252.59  17
  -3  -6   1 87299.3 6521.17   2
  -3  -6   1 89360.2 3845.06  20
  -3  -6   0 69730.1 2964.51  17
  -3  -6   0 80672.3 3687.71   9
  -3  -6   0 82722.0 6491.65   2
  -3  -6  -1 1457.96 416.370  17
  -3  -6  -1 1182.74 422.136   9
  -3  -6  -1 1403.67 849.224   2
  -3  -6  -2 1235.68 425.352   9
  -3  -6  -3 14412.1 1422.44   8
  -3  -6  -3 14407.3 1363.82   9
   3   6   4 4753.29 1034.97  16
  -3  -6  -4 6177.54 866.515   8
   3   6   5 341.572 269.756  16
  -3  -6  -5 412.546 220.407   8
   3   6   5 237.925 192.805  24
   3   6   6 9519.65 958.350  16
  -3  -7  10 8774.34 756.283  12
  -3  -7   9 675.449 233.941  17
  -3  -7   9 633.397 364.761  12
  -3  -7   9 674.948 301.961  22
  -3  -7   8 687.759 265.835  17
  -3  -7   8 998.851 484.746  12
  -3  -7   7 5879.13 821.303  17
  -3  -7   7 7333.31 1283.61  12
  -3  -7   6 27741.6 1798.28  17
  -3  -7   5 1735.75 433.833  17
  -3  -7   5 1362.47 423.414   9
  -3  -7   4 50575.9 2505.16  17
  -3  -7   4 56373.4 2934.45   9
  -3  -7   3 156585. 4942.94  17
  -3  -7   3 168806. 5659.31   9
  -3  -7   2 85103.7 3331.94  17
  -3  -7   2 91382.7 3944.08   9
  -3  -7   1 59476.0 2693.87  17
  -3  -7   1 63612.3 3227.55   9
  -3  -7   0 34724.3 1992.21  17
  -3  -7   0 35743.7 2341.84   9
  -3  -7  -1 16676.9 1555.84   9
  -3  -7  -2 1546.95 434.628   9
  -3  -7  -2 1595.78 458.009   8
  -3  -7  -3 181.084 174.744   9
  -3  -7  -3 519.513 278.242   8
  -3  -7  -4 5339.01 686.293   8
   3   7   4 3469.62 603.983  16
   3   7   5 412.817 169.589  16
  -3  -8   9 138.845 85.9140  17
  -3  -8   9 232.851 163.201  12
  -3  -8   8 29899.6 1451.62  17
  -3  -8   8 30393.2 2000.57  12
  -3  -8   7 112496. 3591.92  17
  -3  -8   7 120604. 4716.07  12
  -3  -8   6 18805.5 1336.00  17
  -3  -8   6 18942.5 1818.62  12
  -3  -8   5 36091.7 2020.45   9
  -3  -8   5 36071.4 1933.85  17
  -3  -8   5 36181.3 2523.06  12
  -3  -8   4 46229.2 2260.72  17
  -3  -8   4 48185.7 2545.96   9
  -3  -8   3 6633.33 815.613  17
  -3  -8   3 6723.61 955.650   9
  -3  -8   2 1109.19 335.859  17
  -3  -8   2 1483.65 467.468   9
  -3  -8   1 4347.25 776.700   9
  -3  -8   1 4472.86 658.163   8
  -3  -8   1 4714.05 684.421  17
  -3  -8   0 16367.6 1465.67   9
  -3  -8   0 15233.3 1276.55   8
  -3  -8   0 14963.7 1178.67  13
  -3  -8  -1 2548.92 567.273   9
  -3  -8  -1 2381.48 490.808   8
  -3  -8  -1 2034.79 418.819  13
  -3  -8  -2 10253.6 1017.98   9
  -3  -8  -2 11749.8 1035.17   8
  -3  -8  -2 10527.2 911.644  13
  -3  -8  -3 33838.2 1636.71   8
  -3  -8  -3 30685.4 1465.51  13
  -3  -8  -4 727.202 189.832  13
  -3  -9   8 3255.48 337.927  17
  -3  -9   8 3355.93 497.880  12
  -3  -9   7 22352.7 1136.58  17
  -3  -9   7 20969.6 1451.88  12
  -3  -9   6 41919.5 1767.21  17
  -3  -9   6 38656.2 2098.42  12
  -3  -9   5 130.362 122.484  17
  -3  -9   5-211.025 150.997   9
  -3  -9   4 30461.3 1772.34   9
  -3  -9   4 29981.4 1586.30  17
  -3  -9   3 31900.1 1887.56   9
  -3  -9   3 32039.5 1655.57  17
  -3  -9   2 6491.74 710.732  17
  -3  -9   2 6802.73 853.077   9
  -3  -9   1 1296.52 385.536   9
  -3  -9   1 1390.39 312.406   8
  -3  -9   0 3433.03 570.418   9
  -3  -9   0 3037.26 448.984   8
  -3  -9   0 1851.48 336.773  13
  -3  -9  -1 2590.71 462.150   9
  -3  -9  -1 2777.73 417.157   8
  -3  -9  -1 2163.47 344.871  13
  -3  -9  -2 778.041 202.712   9
  -3  -9  -2 895.442 212.981   8
  -3  -9  -2 815.871 192.695  13
  -3 -10   6 4001.14 385.044  17
  -3 -10   5 1514.51 262.191  17
  -3 -10   5 1164.75 247.786  25
  -3 -10   4 6098.17 549.655  17
  -3 -10   4 6432.62 617.377   9
  -3 -10   3 2139.28 386.500   9
  -3 -10   2 2147.04 390.856   9
  -3 -10   1 50427.9 1964.14   9
  -3 -10   0 23269.9 1140.23   9
   4 -11   2 4777.10 401.709  29
   4 -11   3 19495.2 844.740  29
   4 -10  -2 6874.41 446.316  21
   4 -10  -1 27026.5 1182.80  29
   4 -10   0 2073.57 365.118  29
   4 -10   1 53990.7 2074.49  29
   4 -10   2 53510.7 2010.31  25
   4 -10   2 58294.0 2179.30  29
   4 -10   3 8952.14 799.154  25
   4 -10   3 8690.91 761.807  29
   4 -10   4 7956.72 687.877  29
   4 -10   4 7126.32 716.327  25
   4 -10   5 1224.62 249.472  29
   4 -10   6 204.677 119.383  26
   4  -9  -3 2681.00 328.002  29
   4  -9  -3 2317.70 318.446  21
   4  -9  -3 2740.75 327.914  28
   4  -9  -2 180.995 145.610  29
   4  -9  -2 141.655 105.931  28
   4  -9  -1 25175.7 1461.52  29
   4  -9   0 28174.5 1642.89  29
   4  -9   1 1005.69 329.480  29
   4  -9   2 24290.3 1543.34  29
   4  -9   2 25599.5 1662.71  25
   4  -9   3 32016.4 1767.22  29
   4  -9   3 35660.9 2027.66  25
   4  -9   4 3372.79 540.701  29
   4  -9   4 3720.70 643.219  25
   4  -9   5 9472.97 844.700  29
   4  -9   5 9357.93 1087.70  12
   4  -9   5 9122.12 960.312  25
   4  -9   5 8650.64 965.809  22
   4  -9   6-98.4549 134.124  22
   4  -9   6-11.1459 147.580  12
   4  -9   7 32.8495 44.0604  30
   4  -9   7 307.029 158.852  26
   4  -9   7 329.322 178.823  22
   4  -9   8 228.492 113.808  22
   4  -8  -5 18074.3 918.800  28
   4  -8  -4 11224.5 828.914  28
   4  -8  -4 9757.61 749.703  21
   4  -8  -3 10891.6 898.710  28
   4  -8  -3 11210.6 919.885  29
   4  -8  -2 58518.7 2487.52  29
   4  -8  -2 51950.2 2208.53  28
   4  -8  -1 86833.8 3309.66  29
   4  -8  -1 75987.7 2765.46  28
   4  -8   0 3764.43 680.546  29
   4  -8   1 3233.13 610.523  29
   4  -8   1 3220.63 639.703  25
   4  -8   2 484.561 258.040  29
   4  -8   2 818.854 358.013  25
   4  -8   3 2928.14 715.657  12
   4  -8   3 2962.43 566.900  29
   4  -8   3 4054.17 777.371  25
   4  -8   3 3481.53 732.993  22
   4  -8   4 18882.4 1413.22  29
   4  -8   4 20472.0 1898.21  12
   4  -8   4 21087.0 1729.24  25
   4  -8   4 20314.8 1784.70  22
   4  -8   5 99576.7 3500.55  29
   4  -8   5 105681. 4567.59  12
   4  -8   5 98443.7 3889.50  25
   4  -8   5 97130.0 4133.48  22
   4  -8   6 11040.8 1253.36  22
   4  -8   6 12178.0 1411.96  12
   4  -8   6 12359.8 1042.27  29
   4  -8   7 3772.96 596.625  26
   4  -8   7 4772.53 806.156  12
   4  -8   7 4618.27 749.675  22
   4  -8   8 35801.0 1624.32  26
   4  -8   8 46860.3 2104.37  22
   4  -8   9 12219.4 759.493  22
   4  -7  -6 3216.44 412.551  28
   4  -7  -5 315.650 166.169  28
   4  -7  -5 439.339 171.795  21
   4  -7  -4 11762.1 1080.77  28
   4  -7  -3 4732.40 710.697  28
   4  -7  -2 11173.0 1126.48  28
   4  -7  -1 39109.1 2103.74  28
   4  -7   0 10260.7 1135.50  29
   4  -7   1 45909.9 2441.62  29
   4  -7   1 46700.0 2956.29  25
   4  -7   2 4935.49 981.193  12
   4  -7   2 4067.76 859.533  25
   4  -7   2 3437.88 763.741  22
   4  -7   2 3121.78 620.728  29
   4  -7   3 7245.71 2299.45   4
   4  -7   3 9480.46 1042.86  29
   4  -7   3 10944.7 1510.53  12
   4  -7   3 10100.3 1333.89  25
   4  -7   3 10666.4 1360.14  22
   4  -7   4 8513.78 885.545  19
   4  -7   4 9983.48 1490.01  12
   4  -7   4 8019.95 1148.25  25
   4  -7   4 7646.00 942.170  29
   4  -7   4 8554.00 1235.03  22
   4  -7   5 726.317 242.376  19
   4  -7   5 694.931 301.486  29
   4  -7   5 211.832 269.140  25
   4  -7   5-19.0162 189.567  22
   4  -7   5 416.468 385.636  12
   4  -7   6 49705.4 3052.86  22
   4  -7   6 51880.7 2483.87  29
   4  -7   6 47366.8 2658.13  25
   4  -7   6 57913.3 3598.50  12
   4  -7   7 4864.35 777.361  26
   4  -7   7 5016.38 955.943  12
   4  -7   7 5524.94 927.219  22
   4  -7   8 4162.08 705.630  22
   4  -7   8 4013.53 593.451  26
   4  -7   8 4289.66 742.446  12
   4  -7   9 34160.2 1524.07  22
   4  -7   9-172.641 90.1638  26
   4  -6  -7 83.9562 101.892  28
   4  -6  -6 13635.2 935.839   6
   4  -6  -6 14396.6 1146.86  28
   4  -6  -5 46975.7 2222.65  21
   4  -6  -5 55730.9 2730.50  28
   4  -6  -4 14118.5 1450.78  28
   4  -6  -3 5041.75 922.844  28
   4  -6  -3 4876.30 786.038  13
   4  -6  -2 6490.98 1006.48  28
   4  -6  -2 5893.44 893.666  13
   4  -6  -1 6794.76 929.488  28
   4  -6  -1 8287.82 2707.36   3
   4  -6   0 2851.68 591.269  29
   4  -6   0 2755.13 1453.22   3
   4  -6   1 78057.2 6534.20   3
   4  -6   1 78282.6 3238.31  29
   4  -6   2 189736. 6314.28  22
   4  -6   2 178238. 6825.14  12
   4  -6   3 4747.71 1973.07   4
   4  -6   3 10914.9 1447.68  22
   4  -6   3 10348.0 1618.50  12
   4  -6   3 10637.0 1417.85  25
   4  -6   3 10416.7 1107.41  29
   4  -6   3 11593.8 2218.15   5
   4  -6   4 148835. 4942.25  29
   4  -6   4 152898. 4638.46  19
   4  -6   4 154962. 5037.01   7
   4  -6   4 138611. 5592.95  25
   4  -6   4 148453. 6992.51  12
   4  -6   4 158402. 6179.72  22
   4  -6   5 230455. 6681.16   7
   4  -6   5 222396. 7293.18  25
   4  -6   5 253571. 9531.34  12
   4  -6   5 236969. 6221.80  19
   4  -6   5 238410. 6773.16  29
   4  -6   5 236251. 8060.30  22
   4  -6   6 14215.6 1345.79   7
   4  -6   6 16263.0 2114.32  12
   4  -6   6 15381.0 1403.64  29
   4  -6   6 14439.9 1751.49  22
   4  -6   7 4360.46 975.857  12
   4  -6   7 4184.61 721.067   7
   4  -6   7 4110.65 774.136  26
   4  -6   7 4542.88 943.083  22
   4  -6   8 13139.8 1152.41   7
   4  -6   8 12743.3 1199.12  26
   4  -6   8 12851.3 1418.08  12
   4  -6   8 12171.3 1353.40  22
   4  -6   9 2018.68 377.289   7
   4  -6   9 1886.98 409.104  22
   4  -5  -8 773.946 205.678   6
   4  -5  -7 9702.55 870.147   6
   4  -5  -7 9182.53 891.444  28
   4  -5  -6 352.868 207.362  28
   4  -5  -6 373.519 214.268   6
   4  -5  -6 96.4253 127.538  21
   4  -5  -5 3104.23 581.727   6
   4  -5  -5 3148.78 728.563  28
   4  -5  -5 2911.14 578.813  21
   4  -5  -4 27914.4 2415.18  28
   4  -5  -4 32095.0 1896.39   6
   4  -5  -3 6046.23 2625.71   3
   4  -5  -3 7112.94 1201.51  28
   4  -5  -2 32495.6 2519.79  28
   4  -5  -2 25757.7 5520.74   3
   4  -5  -1 1048.15 1057.33   3
   4  -5   0 25321.7 4276.93   3
   4  -5   1 80223.1 6350.25   3
   4  -5   1 39555.2 5530.68   4
   4  -5   2 16983.5 3737.10   4
   4  -5   2 33248.1 3430.52   3
   4  -5   3 39027.8 4140.37   5
   4  -5   4 21946.2 1670.61  29
   4  -5   4 21200.7 1494.47  19
   4  -5   4 22856.4 1648.78   7
   4  -5   4 20107.3 1928.68  25
   4  -5   4 20838.3 1463.24  11
   4  -5   4 20189.1 2148.01  22
   4  -5   4 19519.5 2999.44   5
   4  -5   5 61533.6 2714.67  19
   4  -5   5 65326.2 3091.31  29
   4  -5   5 61818.0 2938.05   7
   4  -5   5 61829.9 3425.94  25
   4  -5   5 66019.9 4102.45  22
   4  -5   5 62868.9 2841.09  11
   4  -5   5 67400.8 5853.16   5
   4  -5   6 85541.9 3634.73   7
   4  -5   6 85961.0 5493.10  12
   4  -5   6 86173.0 3589.87  11
   4  -5   6 97290.8 5181.65  22
   4  -5   7 1875.92 516.664   7
   4  -5   7 2217.06 625.514  26
   4  -5   7 1929.77 517.555  11
   4  -5   7 1922.95 751.345  12
   4  -5   7 2380.62 531.317  30
   4  -5   7 2241.43 742.691  22
   4  -5   8 4888.72 921.361  12
   4  -5   8 5473.64 791.635   7
   4  -5   8 5879.78 865.981  26
   4  -5   8 5882.50 830.235  11
   4  -5   8 5478.45 989.672  22
   4  -5   9 10425.7 923.588   7
   4  -5   9 7993.23 913.152  22
   4  -5  10 967.008 201.417   7
   4  -4  -9 9052.51 628.956   6
   4  -4  -8 27801.7 1590.64   6
   4  -4  -8 21476.4 1257.26  28
   4  -4  -7 2494.28 531.036  28
   4  -4  -7 3071.28 619.584   6
   4  -4  -6 1132.55 469.646  28
   4  -4  -6 1167.19 426.604   6
   4  -4  -6 1506.99 394.828  21
   4  -4  -5 642.346 461.199  28
   4  -4  -5 706.278 346.787   6
   4  -4  -5 316.228 208.670  21
   4  -4  -4 289.627 262.843  28
   4  -4  -4 1047.79 392.428   6
   4  -4  -3 18379.2 1986.63  28
   4  -4  -3 13988.9 3832.10   3
   4  -4  -2 121713. 11257.9   3
   4  -4  -1 78755.6 8059.49   3
   4  -4   0 34338.7 4489.64   3
   4  -4   1 334910. 12986.2   3
   4  -4   2 297240. 10833.1   3
   4  -4   3 9427.29 2005.51   5
   4  -4   4 16955.5 2777.62   5
   4  -4   5 70930.3 2970.60  19
   4  -4   5 78372.9 3393.66  29
   4  -4   5 72820.6 6152.86   5
   4  -4   5 77176.0 5015.20  22
   4  -4   5 75341.3 3190.17  11
   4  -4   5 70810.1 2969.98  10
   4  -4   5 73809.8 3178.02   7
   4  -4   6 1376.27 414.541  10
   4  -4   6 1833.82 627.820  26
   4  -4   6 1854.11 500.909   7
   4  -4   6 3571.69 1141.16  12
   4  -4   6 1734.41 523.834  11
   4  -4   6 2492.65 927.951  22
   4  -4   7 27134.7 2643.88  12
   4  -4   7 30695.1 2280.29  26
   4  -4   7 32761.8 2045.89  10
   4  -4   7 27335.4 1948.83   7
   4  -4   7 27872.6 2032.37  11
   4  -4   7 30530.3 2930.38  22
   4  -4   8 28452.5 1881.92   7
   4  -4   8 30798.5 2034.56  26
   4  -4   8 31052.6 2019.17  11
   4  -4   8 28220.1 2399.59  22
   4  -4   9 14248.7 1144.70   7
   4  -4   9 11856.7 1057.71  11
   4  -4  10-106.544 93.9161   7
   4  -3  -9 40.3085 132.527   6
   4  -3  -8 2630.46 490.614  28
   4  -3  -8 4655.78 821.136   6
   4  -3  -7 67.0077 157.858  28
   4  -3  -7-145.042 262.003   6
   4  -3  -6 33739.3 2331.14  28
   4  -3  -6 35484.7 2011.00  21
   4  -3  -5 20570.4 3706.95   3
   4  -3  -5 25071.1 2084.90  28
   4  -3  -5 25898.0 2381.15   6
   4  -3  -5 27082.3 1768.45  21
   4  -3  -4 1852.21 575.125  28
   4  -3  -4 2886.48 1444.44   3
   4  -3  -3 70294.2 7248.39   3
   4  -3  -2 36346.6 5023.81   3
   4  -3  -1 28287.7 3948.00   3
   4  -3   0 42197.1 4227.54   3
   4  -3   1 17699.2 2365.32   3
   4  -3   2 235040. 8904.02   3
   4  -3   3 47677.3 4485.56   5
   4  -3   4 9265.06 2010.85   5
   4  -3   5 67378.0 3402.15  26
   4  -3   5 60995.0 4534.83  12
   4  -3   5 58409.6 5548.06   5
   4  -3   5 65123.2 2889.90  10
   4  -3   5 62347.6 2745.23  19
   4  -3   6 7494.26 1120.47  26
   4  -3   6 6758.72 1370.01  12
   4  -3   6 5437.03 852.968   7
   4  -3   6 4800.50 1415.64  22
   4  -3   6 6417.72 928.331  10
   4  -3   6 6431.85 919.512  30
   4  -3   7 32054.7 2264.90  26
   4  -3   7 29131.7 2015.32   7
   4  -3   7 31356.5 3132.40  22
   4  -3   7 30500.9 2141.93  11
   4  -3   7 34470.7 2260.12  10
   4  -3   8 3511.44 676.915  26
   4  -3   8 4182.11 758.549  11
   4  -3   8 3675.66 671.067   7
   4  -3   8 3722.77 706.148  10
   4  -3   9 2409.57 468.139   7
   4  -3   9 1895.75 438.584  11
   4  -3  10 6178.87 552.563   7
   4  -3  10 5988.10 578.304  11
  -4   2  10 393.314 144.993  27
   4  -2  -9 977.582 388.983   6
   4  -2  -8 3174.65 800.229   6
   4  -2  -7 238.618 392.501   6
   4  -2  -7 299.944 251.098  28
   4  -2  -6 18535.5 2350.91   6
   4  -2  -6 15614.6 1441.27  28
   4  -2  -6 16222.1 1293.26  21
   4  -2  -5 36906.3 4356.38   3
   4  -2  -5 38723.9 2308.63  28
   4  -2  -5 31492.4 2994.19   6
   4  -2  -5 41767.8 2137.80  21
   4  -2  -4 33080.2 4118.33   3
   4  -2  -3 46872.0 4801.48   3
   4  -2  -2 471274. 16318.4   3
   4  -2  -1 174688. 8569.22   3
   4  -2   0 72929.6 4949.58   3
   4  -2   1 113612. 5888.68   3
   4  -2   2 82954.5 4934.08   3
   4  -2   3 16325.3 1972.87   3
   4  -2   3 14254.3 2388.53   5
   4  -2   4 55372.9 5021.98   5
   4  -2   5 66049.7 3248.20  26
   4  -2   5 54194.0 5419.31   5
   4  -2   5 55638.4 2772.59  10
   4  -2   6 31422.9 2653.35  23
   4  -2   6 33780.1 2085.52  30
   4  -2   6 34986.5 2350.32  26
   4  -2   6 29042.1 1964.35   7
   4  -2   6 33911.1 2287.95  10
   4  -2   7 41150.3 2438.28   7
   4  -2   7 46837.9 2678.89  26
   4  -2   8 75027.1 3785.51  24
   4  -2   8 74350.4 3480.98  10
   4  -2   9 17346.1 1267.85   7
   4  -2   9 20573.8 1445.84  11
   4  -2  10 136.479 104.192   7
   4  -2  10 345.776 150.471  11
  -4   1  10 898.522 254.155  27
   4  -1 -10 889.827 286.922   6
   4  -1  -9 14393.2 1255.02  15
   4  -1  -9 12898.8 1411.41   6
   4  -1  -8 5025.31 1087.46   6
   4  -1  -7 5973.84 846.599  28
   4  -1  -7 8200.12 1544.32   6
   4  -1  -6 121697. 3947.38  21
   4  -1  -6 119130. 4251.63  28
  -4   1   5 1455.76 673.708   1
   4  -1  -5 642.682 526.511   3
   4  -1  -4 24938.0 3167.08   3
  -4   1   4 32472.9 2866.13   1
   4  -1  -3 27770.7 3176.58   3
  -4   1   3 32453.5 2398.23   1
   4  -1  -2 19717.7 2961.87   3
   4  -1  -1 90923.0 5392.97   3
   4  -1   0 12740.5 1869.63   3
   4  -1   1 44416.1 3437.37   3
   4  -1   2 172547. 7235.50   3
   4  -1   3 63669.2 5048.35   5
   4  -1   4 56341.6 5066.13   5
   4  -1   5 323.346 247.288  10
   4  -1   5 1080.38 399.518  26
   4  -1   5 400.971 326.411  23
   4  -1   6 44150.4 3361.13  18
   4  -1   6 40354.2 2359.35   7
   4  -1   6 49612.0 2733.05  26
   4  -1   6 48675.7 2493.33  30
   4  -1   6 49449.0 2919.23  10
   4  -1   7 19952.6 1631.19   7
   4  -1   7 25755.1 2140.04  10
   4  -1   8 3264.10 607.381   7
   4  -1   8 4602.11 941.867  24
   4  -1   9 8870.59 869.814   7
   4  -1   9 7709.43 941.400  24
   4  -1   9 8484.69 915.002  11
   4  -1  10 1782.47 290.887  11
   4   0 -10 370.731 207.653  15
  -4   0  10-80.9191 131.167  27
   4   0 -10 17.2651 134.489   6
   4   0  -9 20385.2 1870.58  15
  -4   0   9 22182.5 1626.80  27
   4   0  -9 17321.9 1639.66   6
   4   0  -8 30163.8 2496.07   6
   4   0  -7 1716.08 651.560   6
   4   0  -7 1338.00 313.621  21
   4   0  -6 57702.0 3720.19   6
   4   0  -6 56204.0 2397.68  21
  -4   0   5 200937. 8729.53   1
   4   0  -5 194521. 9278.90   3
   4   0  -4 102964. 6406.71   3
  -4   0   4 114998. 5648.38   1
   4   0  -3 18617.9 2466.50   3
  -4   0   3 23108.7 2086.43   1
   4   0  -2 299031. 10761.8   3
  -4   0   2 294634. 7947.98   1
   4   0  -1 40887.5 3442.10   3
  -4   0   1 47527.3 2098.99   1
   4   0   0 39906.3 3291.46   3
   4   0   1 121224. 5989.42   3
  -4   0  -1 111949. 4731.23   2
   4   0   2 126393. 6269.72   3
   4   0   2 106895. 6043.07   5
  -4   0  -3 4658.65 1152.13   2
   4   0   3 5930.40 1458.99   5
   4   0   4 225805. 10685.8   5
  -4   0  -4 240612. 10410.6   2
   4   0   5 166691. 7824.41  18
   4   0   5 168546. 5545.32  26
   4   0   5 174129. 5320.36  30
   4   0   5 184775. 7261.68  23
   4   0   5 169781. 5880.43  10
   4   0   6 113635. 6033.56  18
   4   0   6 100999. 4003.52   7
   4   0   6 120639. 4982.41  10
   4   0   7 7238.89 1424.10  24
   4   0   7 4625.39 764.850   7
   4   0   7 5793.66 1041.97  10
   4   0   8 17450.6 1370.73   7
   4   0   8 21680.3 1783.00  16
   4   0   8 24680.6 2261.28  24
   4   0   9 1929.47 368.022   7
   4   0   9 2090.85 495.513  24
   4   0   9 2179.63 439.526  11
   4   1 -10 17284.6 1528.82  15
  -4  -1  10 12176.4 993.603  27
  -4  -1   9 27320.9 1799.28  27
   4   1  -9 25804.3 1892.57   6
  -4  -1   8 2056.91 548.308  27
   4   1  -8 2012.62 588.691   6
   4   1  -7 3310.44 777.932   6
   4   1  -7 2965.03 471.273  21
  -4  -1   7 4115.50 1409.97   1
  -4  -1   6 18112.7 2767.19   1
   4   1  -6 15000.9 1623.60   6
   4   1  -6 15399.0 1162.31  21
  -4  -1   5 34373.8 3468.73   1
  -4  -1   4 1990.06 763.144   1
   4   1  -4 2158.72 866.061   3
   4   1  -3 18293.6 2433.73   3
  -4  -1   3 19688.1 2019.39   1
  -4  -1   2 166527. 5913.17   1
   4   1  -2 160976. 7392.62   3
   4   1  -1 1354.21 617.647   3
  -4  -1   1 1803.28 503.171   1
   4   1   0 217733. 8721.31   3
  -4  -1   0 226991. 7851.19   2
   4   1   1 127714. 6568.65   3
  -4  -1  -1 124674. 5952.37   2
   4   1   1 111438. 5703.10   5
  -4  -1  -2 15115.4 2090.74   2
   4   1   2 12755.3 1953.36   5
   4   1   3 97523.5 6044.86   5
  -4  -1  -3 101180. 6039.36   2
  -4  -1  -4 42300.7 4309.85   2
   4   1   5 12752.6 2248.75  18
   4   1   5 12601.2 1953.80  23
  -4  -1  -5 10121.9 2359.52   2
   4   1   5 10864.9 1363.82  10
   4   1   6 15204.5 2237.89  18
   4   1   6 14077.5 1357.66   7
   4   1   6 16147.8 1752.01  10
   4   1   7 4072.63 1084.33  24
   4   1   7 2275.71 524.113   7
   4   1   8 16295.0 1552.80  16
   4   1   8 18903.3 1904.20  24
   4   1   9-258.936 132.163  16
   4   1   9 83.3468 80.8676   7
   4   2 -11 3954.63 527.832  15
  -4  -2  10 658.771 205.283  27
   4   2 -10 1229.50 440.233  15
   4   2  -9 54602.9 3547.48  15
  -4  -2   9 62765.6 2845.03  27
   4   2  -8 40125.0 2491.76   6
  -4  -2   8 43572.2 2514.04  27
  -4  -2   7 2972.12 1199.67   1
  -4  -2   7 3079.27 660.173  27
   4   2  -7 3368.99 690.536   6
  -4  -2   6 77774.1 3295.18  27
  -4  -2   6 82200.2 6105.68   1
  -4  -2   5 69740.6 5157.71   1
   4   2  -4 1684.21 748.642   3
  -4  -2   4 1194.82 529.377   1
  -4  -2   3 33960.6 2940.26   1
   4   2  -3 30474.0 3177.61   3
   4   2  -2 99905.7 6090.55   3
  -4  -2   2 63523.9 4510.86   1
   4   2  -1 248014. 9787.84   3
  -4  -2   1 267189. 9490.42   2
  -4  -2   1 262396. 8562.71   1
  -4  -2   0 29684.5 2955.53   2
  -4  -2  -1 418470. 13623.6   2
  -4  -2  -2 333366. 12111.6   2
  -4  -2  -3 13213.8 2270.56   2
   4   2   4 115736. 7122.90  18
   4   2   4 96200.6 5461.93  23
   4   2   4 91141.7 4734.72  15
   4   2   4 97960.9 4217.89  10
  -4  -2  -4 107949. 7289.68   2
   4   2   5 22652.9 3126.27  18
   4   2   5 17057.5 1782.20  10
  -4  -2  -5 24672.9 3776.80   2
   4   2   6 15651.4 2316.86  24
   4   2   7 298.807 217.358   7
   4   2   7 352.245 362.604  24
   4   2   8 2401.34 579.267  16
   4   2   8 1940.58 572.843  24
   4   2   9 1712.11 362.446  24
   4   3 -11 407.741 188.272  15
   4   3 -10 6871.54 1007.71  15
  -4  -3  10 4686.27 585.530  27
   4   3  -9 1571.71 621.363  15
  -4  -3   9 8030.20 925.044  27
   4   3  -8 3450.92 874.547  15
  -4  -3   8 3090.28 638.438  27
   4   3  -7 7579.53 1340.23  15
  -4  -3   7 9531.27 1155.48  27
   4   3  -6 18905.8 2082.15  15
  -4  -3   6 27081.0 1863.44  27
  -4  -3   6 26794.6 3504.29   1
  -4  -3   5 64027.9 5077.50   1
   4   3  -5 39809.3 2908.31  15
  -4  -3   4 31625.1 3282.98   1
  -4  -3   3 201543. 8363.12   1
  -4  -3   2 89643.0 5113.88   1
  -4  -3   1 4595.47 1103.52   1
  -4  -3   1 4485.97 1192.36   2
  -4  -3   0 112569. 6582.79   2
  -4  -3  -1 7767.37 1720.02   2
  -4  -3  -2 5647.79 1556.71   2
  -4  -3  -3 11925.2 2299.91   2
   4   3   3 10230.2 2066.37  18
   4   3   3 7347.12 1234.31  15
   4   3   3 7581.24 1406.72  23
   4   3   3 7981.88 1065.08  10
   4   3   4 13777.6 2569.54  18
   4   3   4 9674.04 1549.33  15
  -4  -3  -4 13401.1 2594.59   2
   4   3   4 8956.71 1205.87  10
   4   3   5 10246.3 2050.55  18
  -4  -3  -5 12682.5 1337.28   8
   4   3   5 11567.8 2025.12  24
   4   3   6 209.909 338.389  24
   4   3   7 4873.53 965.957  16
   4   3   7 5237.10 1022.40  24
   4   3   8 4986.95 700.417  16
   4   3   8 4910.89 743.919  24
   4   4 -10 1410.82 442.170  15
  -4  -4  10 1028.19 267.539  27
   4   4  -9 26040.3 2138.15  15
  -4  -4   9 23715.6 1596.39  27
  -4  -4   9 22293.9 1948.16  12
   4   4  -8 5502.51 1079.47  15
  -4  -4   8 5959.75 856.472  27
   4   4  -7 600.606 385.843  15
  -4  -4   7 506.947 279.484  27
  -4  -4   6 5706.12 1618.01   1
   4   4  -6 3545.85 912.214  15
  -4  -4   6 3975.25 692.877  27
  -4  -4   5 63362.7 5164.06   1
  -4  -4   5 59923.5 2675.64  27
  -4  -4   4 27457.2 3263.26   1
  -4  -4   3 128232. 6950.36   1
  -4  -4   2 379637. 12879.6   1
  -4  -4   1 303785. 12312.2   2
  -4  -4   1 313045. 11459.6   1
  -4  -4   0 17810.1 2729.06   2
  -4  -4  -1 115300. 7349.79   2
   4   4   2 46222.4 4326.19  18
  -4  -4  -2 48188.2 4785.61   2
   4   4   2 38044.2 2872.20  15
   4   4   3 12652.9 2417.13  18
  -4  -4  -3 13060.4 2595.33   2
   4   4   3 10621.9 1589.09  15
   4   4   4 327.045 479.184  18
   4   4   4-453.941 411.655  24
  -4  -4  -5 26810.4 1893.00   8
   4   4   5 22014.2 2415.93  24
   4   4   6 2256.84 703.846  16
   4   4   6 2181.44 685.065  24
   4   4   7 5346.47 829.530  16
   4   4   7 3933.53 711.991  24
   4   5 -10 2917.29 568.665  15
  -4  -5  10 139.390 128.080  12
   4   5  -9 22656.3 1898.69  15
  -4  -5   9 19265.3 1739.99  12
  -4  -5   8 3649.46 643.102  27
   4   5  -8 3232.14 815.972  15
  -4  -5   7 46182.6 2469.09  27
   4   5  -7 42445.6 3061.55  15
   4   5  -6 81502.0 4465.10  15
  -4  -5   6 95425.3 3659.03  27
  -4  -5   5 80413.3 6061.56   1
   4   5  -5 59725.4 3720.98  15
  -4  -5   5 68043.0 2964.38  27
  -4  -5   5 72116.8 3530.03  20
   4   5  -4 23763.9 2217.30  15
  -4  -5   4 31164.1 3590.78   1
  -4  -5   4 27929.9 2139.09  20
   4   5  -3 70876.9 3860.57  15
  -4  -5   3 77144.1 3705.91  20
  -4  -5   2 47496.2 2314.03  17
   4   5  -2 41148.9 2833.94  15
  -4  -5   2 50682.1 4445.33   1
  -4  -5   2 43620.3 2713.06  20
  -4  -5   1 2359.33 944.308   1
   4   5  -1 983.833 430.870  15
  -4  -5   1 1783.36 411.563  17
  -4  -5   1 2618.03 1083.40   2
  -4  -5   1 1909.89 552.191  20
  -4  -5   0 2326.70 1037.62   2
   4   5   0 4509.40 905.470  15
  -4  -5   0 2627.68 648.249  20
   4   5   1 53616.7 4440.20  18
  -4  -5  -1 57147.9 5344.67   2
   4   5   1 41859.7 2990.59  15
  -4  -5  -1 56619.1 3009.88  20
   4   5   2 6240.60 1513.25  18
   4   5   2 5297.59 1103.73  15
  -4  -5  -2 6581.51 957.596   9
  -4  -5  -2 6707.33 1802.86   2
   4   5   3 9863.15 1848.15  18
   4   5   3 10190.2 1560.76  15
   4   5   3 8264.40 1382.57  24
  -4  -5  -4 53784.3 2766.53   8
   4   5   4 39813.5 2970.42  24
   4   5   5 7183.20 1229.71  16
  -4  -5  -5 7483.84 887.475   8
   4   5   5 6215.88 1012.76  24
   4   5   6 3393.45 682.328  16
   4   5   6 3346.49 622.866  24
   4   5   7 2497.57 402.936  16
  -4  -6  10 1.87758 58.0639  17
  -4  -6  10 164.163 128.066  12
   4   6 -10 156.882 132.519  15
  -4  -6  10-29.6520 99.3109  22
   4   6  -9 1336.88 435.527  15
  -4  -6   9 766.671 349.735  12
   4   6  -8 23071.1 2028.11  15
   4   6  -7 603.882 374.786  15
   4   6  -6 55568.0 3510.69  15
  -4  -6   5 148153. 5164.13  20
   4   6  -5 117916. 5352.27  15
  -4  -6   4 34473.7 2057.43  17
   4   6  -4 30901.1 2478.24  15
  -4  -6   4 37340.8 2470.89  20
  -4  -6   3 91756.1 3512.65  17
  -4  -6   3 99523.4 6696.03   1
  -4  -6   3 91809.3 4058.94  20
  -4  -6   2 22086.3 1563.89  17
   4   6  -2 18317.4 1831.21  15
  -4  -6   2 22846.2 3129.50   1
  -4  -6   2 20317.6 1811.47  20
  -4  -6   1 9129.13 966.786  17
   4   6  -1 7850.69 1181.92  15
  -4  -6   1 8908.26 1178.83  20
  -4  -6   1 11572.4 2203.46   1
  -4  -6   0 3368.58 572.401  17
  -4  -6   0 3171.54 719.646   9
  -4  -6  -1 4336.00 616.122  17
  -4  -6  -1 4328.48 797.797   9
  -4  -6  -2 22731.5 1760.77   9
  -4  -6  -3 1049.21 407.677   8
   4   6   4 20889.2 1902.35  16
  -4  -6  -4 25186.2 1640.83   8
   4   6   5 35565.3 2096.18  16
  -4  -6  -5 45373.4 1880.55   8
   4   6   6 712.125 200.790  16
  -4  -7   9 46330.2 1757.36  17
  -4  -7   9 47144.9 2277.78  12
  -4  -7   8 5680.75 689.552  17
   4   7  -8 7077.88 943.673  15
  -4  -7   8 4781.09 854.052  12
  -4  -7   7 20902.9 1461.74  17
   4   7  -7 21951.2 1869.34  15
  -4  -7   6 21208.2 1529.60  17
   4   7  -6 21118.9 1895.44  15
  -4  -7   5 5536.97 788.256  17
  -4  -7   5 5461.12 859.292   9
  -4  -7   4 3454.74 630.093  17
  -4  -7   3 8199.86 929.492  17
  -4  -7   2 19783.4 1442.50  17
  -4  -7   2 21010.9 1792.58   9
  -4  -7   1 1273.83 369.791  17
  -4  -7   1 1325.86 439.431   9
  -4  -7   0 42061.0 2106.59  17
  -4  -7   0 46049.5 2620.38   9
  -4  -7  -1 74185.0 3298.62   9
  -4  -7  -2 614.964 277.014   9
  -4  -7  -2 564.030 298.599   8
  -4  -7  -3 13414.9 1115.42   8
  -4  -7  -4 9638.44 798.498   8
  -4  -7  -5 237.304 104.690  13
  -4  -8   9 9492.52 747.335  12
  -4  -8   8 22537.2 1138.04  17
  -4  -8   8 21580.7 1498.30  12
  -4  -8   7 1648.88 353.419  17
  -4  -8   7 1296.69 431.091  12
  -4  -8   6 27086.7 1547.08  17
  -4  -8   6 26530.5 2005.08  12
  -4  -8   5 24231.1 1500.80  17
  -4  -8   5 24760.3 1602.97   9
  -4  -8   5 21504.2 1808.70  12
  -4  -8   4 2009.77 437.338  17
  -4  -8   4 2281.42 527.336   9
  -4  -8   3 2851.59 504.521  17
  -4  -8   3 3544.14 660.151   9
  -4  -8   2 18822.2 1310.70  17
  -4  -8   2 19569.6 1579.28   9
  -4  -8   1 5634.23 679.119  17
  -4  -8   1 5949.83 840.198   9
  -4  -8   0 5710.45 800.523   9
  -4  -8   0 4516.92 642.175   8
  -4  -8  -1 51276.0 2335.70   9
  -4  -8  -1 53948.1 2259.80   8
  -4  -8  -1 46965.9 1935.53  13
  -4  -8  -2 25994.7 1409.71   9
  -4  -8  -2 24572.9 1252.07  13
  -4  -8  -3 197.301 114.536   8
  -4  -8  -3 99.8716 92.8194  13
  -4  -9   7 2036.93 293.393  17
  -4  -9   7 1369.95 300.426  12
  -4  -9   6 12219.7 817.787  17
  -4  -9   6 9653.83 838.760  12
  -4  -9   5 3391.15 471.898   9
  -4  -9   5 3898.54 486.734  17
  -4  -9   4 9333.32 782.474  17
  -4  -9   4 8761.90 853.870   9
  -4  -9   3 94709.2 2927.60  17
  -4  -9   3 91110.3 3216.48   9
  -4  -9   2 52974.8 2001.69  17
  -4  -9   2 50084.8 2256.32   9
  -4  -9   1 1058.00 311.525   9
  -4  -9   1 932.223 221.446   8
  -4  -9   0 17313.7 1140.92   9
  -4  -9   0 17326.4 978.083   8
  -4  -9  -1 16390.6 954.112   9
  -4  -9  -1 16897.4 887.547   8
  -4 -10   5 5180.98 406.154  17
  -4 -10   3 2061.19 318.400   9
  -4 -10   2 22711.0 1100.27   9
  -4 -10   1 4585.44 431.945   9
   5 -10  -1 647.926 144.592  21
   5 -10   0 7864.39 579.957  29
   5 -10   1 6832.08 597.075  29
   5 -10   2 7249.90 636.102  29
   5 -10   3 2663.26 375.935  29
   5 -10   3 784.961 188.973  26
   5 -10   4 380.606 153.117  29
   5 -10   4-25.8406 78.2554  26
   5 -10   5 217.296 111.709  26
   5  -9  -3 13255.2 703.936  21
   5  -9  -2 477.889 158.963  29
   5  -9  -1 220.500 148.258  29
   5  -9   0 1079.30 300.023  29
   5  -9   1 710.250 267.921  29
   5  -9   2 9658.70 772.014  19
   5  -9   2 10765.6 946.309  25
   5  -9   2 12354.6 1017.13  29
   5  -9   3 69896.6 2636.77  29
   5  -9   3 74580.5 2865.92  25
   5  -9   4 10333.5 870.529  29
   5  -9   5 8310.29 733.488  29
   5  -9   5 6293.88 726.440  26
   5  -9   6 40789.6 1762.15  26
   5  -9   7 8403.75 618.873  26
   5  -8  -4 4636.95 476.254  28
   5  -8  -4 4285.96 448.524  21
   5  -8  -3 7983.35 700.307  28
   5  -8  -2 204.521 143.563  28
   5  -8  -2 399.706 168.812  29
   5  -8  -1 23633.1 1536.33  29
   5  -8  -1 20360.6 1209.21  28
   5  -8   0 1612.87 428.774  29
   5  -8   1 639.541 285.012  29
   5  -8   2 11041.8 1237.14  25
   5  -8   2 10532.3 1075.67  29
   5  -8   3 3653.85 544.083  19
   5  -8   3 4379.89 686.223  29
   5  -8   3 4032.26 756.650  25
   5  -8   4 60904.0 2284.88  19
   5  -8   4 61987.6 3030.56  25
   5  -8   4 55045.2 2903.60  22
   5  -8   4 55719.1 2488.67  29
   5  -8   5 1491.36 312.093  19
   5  -8   5 1552.10 377.378  29
   5  -8   5 1206.59 429.867  22
   5  -8   6 12372.8 1179.79  22
   5  -8   6 11126.1 1052.95  26
   5  -8   7 52053.0 2279.23  22
   5  -8   7 48584.3 2009.40  26
   5  -8   8 24.4735 69.2953  26
   5  -8   8 142.747 103.994  22
   5  -7  -6 1554.68 259.698  28
   5  -7  -5 1922.38 357.548  28
   5  -7  -5 2033.10 322.474  21
   5  -7  -4 712.329 287.635  28
   5  -7  -4 1243.60 396.296  21
   5  -7  -3 454.580 237.822  28
   5  -7  -2 1491.65 424.617  29
   5  -7  -2 1139.00 359.060  28
   5  -7  -1 66945.9 3127.90  29
   5  -7  -1 62545.7 2663.92  28
   5  -7   0 108098. 4185.20  29
   5  -7   1 442.773 252.254  29
   5  -7   2 110689. 4100.64  29
   5  -7   2 104292. 4883.57  25
   5  -7   3 139091. 4286.27  19
   5  -7   3 129841. 4522.79  29
   5  -7   3 131020. 5503.67  25
   5  -7   3 141730. 5421.89  22
   5  -7   4 12781.5 1093.92  19
   5  -7   4 11659.0 1165.84  29
   5  -7   4 14611.7 1844.98  12
   5  -7   4 12495.9 1491.77  25
   5  -7   4 13312.4 1520.51  22
   5  -7   5 5110.27 661.546  19
   5  -7   5 5425.14 1144.52  12
   5  -7   5 6706.74 892.658  29
   5  -7   5 5274.16 953.444  22
   5  -7   6 12988.8 1309.72  26
   5  -7   6 16388.5 1803.97  12
   5  -7   6 14144.8 1469.24  22
   5  -7   7 4539.25 679.240  26
   5  -7   7 3912.21 541.663  30
   5  -7   7 4351.08 748.653  22
   5  -7   8 41.6672 111.494  26
   5  -7   8-0.54253 96.4056  22
   5  -6  -7 901.162 194.278  28
   5  -6  -6 3778.77 553.764  28
   5  -6  -6 3787.41 432.298  21
   5  -6  -5 6673.96 868.521  28
   5  -6  -5 5441.27 683.934  21
   5  -6  -4 12055.6 1309.24  28
   5  -6  -4 11091.8 1149.98  21
   5  -6  -3-402.861 298.852  28
   5  -6  -2 10886.6 1333.03  29
   5  -6  -2 12311.4 1364.30  28
   5  -6  -1 22392.7 1932.06  29
   5  -6  -1 28335.8 1912.12  28
   5  -6  -1 19669.1 4170.75   3
   5  -6   0 17847.3 1653.98  29
   5  -6   0 18022.2 3544.42   3
   5  -6   1 9997.03 1175.20  29
   5  -6   1 8740.61 2136.28   3
   5  -6   2 13088.1 1317.54  29
   5  -6   2 13549.0 1594.39  22
   5  -6   3 55491.6 2548.73  19
   5  -6   3 53569.6 2749.72  29
   5  -6   3 54239.8 4092.80  12
   5  -6   3 47455.8 3430.19  25
   5  -6   3 55648.5 3457.95  22
   5  -6   3 59969.2 5521.18   5
   5  -6   4 66727.3 2819.80  19
   5  -6   4 63494.0 3021.41  29
   5  -6   4 57181.2 4404.21  12
   5  -6   4 59926.4 3667.16  25
   5  -6   4 63727.4 3788.82  22
   5  -6   5 2183.21 549.224  19
   5  -6   5 2525.47 1039.81  12
   5  -6   5 1459.88 569.473  22
   5  -6   6 4802.63 707.863   7
   5  -6   6 4931.21 903.550  26
   5  -6   6 4247.70 1129.38  12
   5  -6   6 5197.87 995.958  22
   5  -6   7 10109.7 963.051   7
   5  -6   7 11391.3 1203.23  26
   5  -6   7 9959.97 985.754  30
   5  -6   7 9335.18 1248.76  22
   5  -6   8 4066.67 603.148  26
   5  -6   8 3766.97 639.769  22
   5  -6   9 19.2466 38.3010  22
   5  -5  -7-10.9589 112.505  28
   5  -5  -7 27.0969 116.846   6
   5  -5  -6 392.343 207.459  28
   5  -5  -6 299.557 183.238   6
   5  -5  -6 457.323 215.597  21
   5  -5  -5 5682.89 987.501  28
   5  -5  -5 6053.45 795.513   6
   5  -5  -5 5465.82 770.892  21
   5  -5  -4 52099.0 3380.80  28
   5  -5  -4 65176.6 2817.03   6
   5  -5  -3 29768.2 2545.72  28
   5  -5  -2 1552.17 567.595  28
   5  -5  -2 875.263 1004.76   3
   5  -5  -1 109449. 10546.8   3
   5  -5  -1 115763. 5059.70  29
   5  -5   0 135811. 10098.0   3
   5  -5   0 132104. 5043.61  29
   5  -5   1 322.300 255.329  29
   5  -5   1-326.797 433.890   3
   5  -5   1 699.161 396.394  22
   5  -5   2 13797.2 1366.64  29
   5  -5   2 9815.29 1595.84  25
   5  -5   3 32045.3 1925.90  19
   5  -5   3 31307.8 2087.73  29
   5  -5   3 27509.6 3261.47  12
   5  -5   3 23738.9 2395.69  25
   5  -5   3 36659.5 2963.80  22
   5  -5   3 36689.4 4353.61   5
   5  -5   4 1043.62 350.326   7
   5  -5   4 1008.35 392.885  29
   5  -5   4 1302.69 398.320  19
   5  -5   4 959.104 754.272  12
   5  -5   4 1150.03 571.358  22
   5  -5   4 209.468 420.137   5
   5  -5   5 35879.5 2070.60  19
   5  -5   5 34669.6 2038.35   7
   5  -5   5 37161.6 2346.69  29
   5  -5   5 33053.0 2608.37  26
   5  -5   5 36889.5 2108.49  11
   5  -5   5 35546.7 3167.47  22
   5  -5   5 37171.0 2058.73  10
   5  -5   5 26987.4 3346.82  12
   5  -5   6 70007.8 3699.30  26
   5  -5   6 68479.1 3235.60  30
   5  -5   6 64729.6 2907.64   7
   5  -5   6 67114.2 4831.45  12
   5  -5   6 67931.3 3044.71  11
   5  -5   6 73216.8 4495.30  22
   5  -5   6 77729.9 3072.61  10
   5  -5   7 28591.9 1762.50   7
   5  -5   7 31851.4 2218.99  26
   5  -5   7 31939.9 1928.75  30
   5  -5   7 29516.4 1866.82  11
   5  -5   7 31748.6 2605.93  22
   5  -5   8 927.272 286.460   7
   5  -5   8 940.432 312.170  26
   5  -5   8 169.815 189.268  22
   5  -5   8 1029.21 312.956  11
   5  -5   9 46249.8 1652.62   7
   5  -4  -8 9968.45 769.940  28
   5  -4  -8 12234.8 937.531   6
   5  -4  -7 8629.27 997.017   6
   5  -4  -7 6457.17 851.621  28
   5  -4  -6 443.524 324.600  28
   5  -4  -6 465.135 289.407   6
   5  -4  -6 751.846 296.623  21
   5  -4  -5 36343.6 2772.38  28
   5  -4  -5 40723.8 2585.86   6
   5  -4  -5 33437.3 2092.77  21
   5  -4  -4 8173.80 1403.65  28
   5  -4  -4 6116.95 2464.09   3
   5  -4  -4 9620.41 1191.72   6
   5  -4  -4 8988.83 1112.43  21
   5  -4  -3 15043.9 1859.00  28
   5  -4  -3 18801.2 1537.69   6
   5  -4  -3 11582.4 3479.79   3
   5  -4  -2 13064.9 1560.73  28
   5  -4  -2 9073.59 3021.37   3
   5  -4  -1-1616.06 1197.49   3
   5  -4   0 96251.7 7811.85   3
   5  -4   1 7745.28 1876.16   3
   5  -4   2 15568.9 2433.77   3
   5  -4   3 50150.6 2459.52  19
   5  -4   3 45715.8 2534.79  29
   5  -4   3 37994.7 3947.85  12
   5  -4   3 49606.6 3763.53  22
   5  -4   3 47007.6 4927.78   5
   5  -4   4 561.563 275.633  19
   5  -4   4 707.355 361.057  29
   5  -4   4-70.6947 252.011  26
   5  -4   4 704.666 287.338  11
   5  -4   4 438.461 420.165  22
   5  -4   4-338.541 470.816   5
   5  -4   4 543.437 702.016  12
   5  -4   5 59143.4 2808.41  19
   5  -4   5 60110.1 2768.64   7
   5  -4   5 60320.8 3543.79  26
   5  -4   5 54069.9 4875.81  12
   5  -4   5 46532.4 4200.21  22
   5  -4   5 57312.5 5845.05   5
   5  -4   5 63897.1 2939.45  11
   5  -4   5 58896.3 2814.70  10
   5  -4   6 1027.80 370.629  10
   5  -4   6 1426.24 546.431  26
   5  -4   6 821.418 375.609  30
   5  -4   6 913.867 361.247   7
   5  -4   6 1179.68 411.035  11
   5  -4   6 513.783 479.895  22
   5  -4   7 8027.38 942.267   7
   5  -4   7 8724.65 1019.40  30
   5  -4   7 9164.33 1182.31  26
   5  -4   7 9332.78 1513.11  22
   5  -4   7 8735.99 1056.84  11
   5  -4   7 9701.67 1083.55  10
   5  -4   8 12074.2 1038.62   7
   5  -4   8 13223.4 1219.98  26
   5  -4   8 12334.2 1135.16  11
   5  -4   8 13522.7 1153.05  10
   5  -4   9 3419.04 429.661   7
   5  -4   9 3208.98 483.651  11
  -5   3   9 150.096 130.079  27
   5  -3  -8 5937.33 708.110  28
   5  -3  -8 7292.45 972.250   6
   5  -3  -7 20439.6 1642.32  28
   5  -3  -7 19755.0 1350.37  21
   5  -3  -6 5644.39 976.407  28
   5  -3  -6 6610.89 1262.47   6
   5  -3  -6 5387.27 799.241  21
   5  -3  -5 32124.5 2508.51  28
   5  -3  -5 35444.7 2993.81   6
   5  -3  -5 32646.8 2053.49  21
   5  -3  -4 167519. 6372.40   6
   5  -3  -4 161400. 6164.36  28
   5  -3  -4 155510. 5046.92  21
   5  -3  -3 29014.4 4784.34   3
   5  -3  -3 36684.4 2617.48  28
   5  -3  -2 670.507 724.657   3
   5  -3  -1 24544.6 3881.98   3
   5  -3   0 12623.7 2493.37   3
   5  -3   1 11014.1 2117.45   3
   5  -3   2 95865.0 6115.96   3
   5  -3   3 105896. 7559.29   5
   5  -3   4 28307.8 1836.44  19
   5  -3   4 32342.8 2409.54  26
   5  -3   4 24121.7 2873.12  12
   5  -3   4 27117.0 1990.57  23
   5  -3   4 25828.1 3111.28  22
   5  -3   4 28615.5 4017.05   5
   5  -3   5 120792. 4603.21  30
   5  -3   5 131332. 5252.44  26
   5  -3   5 120705. 4904.77  23
   5  -3   5 119295. 8620.95   5
   5  -3   5 109170. 6945.91  22
   5  -3   5 118506. 4396.18  10
   5  -3   5 111495. 4194.18  19
   5  -3   6 130575. 4751.25  30
   5  -3   6 126180. 5154.51  26
   5  -3   6 140649. 5529.98  23
   5  -3   6 122208. 4346.70   7
   5  -3   6 115950. 6616.40  22
   5  -3   6 138409. 4904.89  10
   5  -3   7 40899.1 2244.81   7
   5  -3   7 43975.1 2354.52  30
   5  -3   7 46529.6 2722.18  26
   5  -3   7 44296.3 2490.80  11
   5  -3   7 42151.5 2521.33  10
   5  -3   8 360.709 215.974   7
   5  -3   8 367.792 240.974  11
   5  -3   8 265.850 246.012  10
   5  -3   9 14077.5 918.517   7
   5  -3   9 25701.1 1358.44  11
  -5   2   9 3751.39 569.736  27
   5  -2  -9 3943.08 650.209   6
   5  -2  -8 36682.9 2732.49   6
   5  -2  -8 27040.1 1639.95  28
   5  -2  -7 211.648 180.094  28
   5  -2  -7 160.983 468.748   6
   5  -2  -7 193.100 166.828  21
   5  -2  -6 7757.56 1083.15  28
   5  -2  -6 8785.58 1786.32   6
   5  -2  -6 8105.33 965.288  21
   5  -2  -5 8187.41 1133.36  28
   5  -2  -5 7579.30 2069.10   3
   5  -2  -5 8023.16 1645.87   6
   5  -2  -5 9379.59 1045.21  21
   5  -2  -4 23732.8 3888.44   3
   5  -2  -4 27367.1 2821.90  28
   5  -2  -3 28979.6 4034.54   3
   5  -2  -2 2837.18 1183.42   3
   5  -2  -1 34081.3 3964.17   3
   5  -2   0 100077. 6542.99   3
   5  -2   1 99478.9 6318.94   3
   5  -2   2 76262.9 5299.88   3
   5  -2   3 1062.02 734.506   5
   5  -2   4 55351.3 2620.76  19
   5  -2   4 62495.3 3289.43  26
   5  -2   4 56579.3 3113.19  23
   5  -2   4 49013.4 5198.98   5
   5  -2   4 60343.2 2947.98  30
   5  -2   4 53427.3 2734.14  10
   5  -2   5 95992.5 4235.12  26
   5  -2   5 61285.2 3688.76  23
   5  -2   5 91265.0 3736.77  30
   5  -2   5 55306.9 5850.12   5
   5  -2   5 63959.2 3243.42  10
   5  -2   6 9417.94 1252.31  26
   5  -2   6 9434.61 1462.01  23
   5  -2   6 9009.69 1115.90  30
   5  -2   6 10757.0 1305.26  10
   5  -2   7 35266.7 2069.87   7
   5  -2   7 30455.8 2239.69  10
   5  -2   8 4196.44 619.640   7
   5  -2   8 5488.86 899.781  24
   5  -2   8 4574.18 689.287  11
   5  -2   8 5551.03 864.953  10
   5  -2   9 5106.36 597.562  11
  -5   1  10 4917.13 504.939  27
  -5   1   9 308.229 211.337  27
   5  -1  -9 375.004 300.391   6
   5  -1  -8 25119.7 1904.85  15
   5  -1  -8 29422.8 2697.45   6
   5  -1  -7 72932.8 3729.13  15
   5  -1  -7 70476.5 4912.70   6
   5  -1  -7 49967.7 2383.03  21
   5  -1  -7 47714.1 2585.74  28
   5  -1  -6 21455.8 2022.71  15
   5  -1  -6 16905.5 1529.14  28
   5  -1  -6 22166.5 2899.44   6
   5  -1  -6 18731.5 1472.03  21
   5  -1  -5 14428.0 2664.55   3
   5  -1  -5 14433.9 2192.64   6
   5  -1  -5 18821.5 1462.28  21
   5  -1  -5 15964.4 1460.85  28
   5  -1  -4 46019.0 4773.02   3
   5  -1  -3 3526.94 1251.00   3
   5  -1  -2 22396.1 3084.94   3
   5  -1  -1 143133. 7846.29   3
   5  -1   0 120335. 6989.19   3
   5  -1   1 1404.61 687.354   3
   5  -1   2 339547. 12286.6   3
   5  -1   2 307351. 12966.4   5
   5  -1   3 246442. 11613.2   5
   5  -1   4 136848. 5132.57  15
   5  -1   4 145692. 4828.84  30
   5  -1   4 140685. 5108.81  26
   5  -1   4 123407. 5238.44  23
   5  -1   4 113452. 8038.28   5
   5  -1   4 125150. 4596.95  10
   5  -1   5 24518.4 2734.35  18
   5  -1   5 28207.0 2699.06  23
   5  -1   5 33512.4 2384.11  10
   5  -1   6 26926.7 2688.47  18
   5  -1   6 31157.6 2855.56  23
   5  -1   6 28430.7 2255.79  10
   5  -1   7 3192.37 748.211  10
   5  -1   8 4677.16 898.549  24
   5  -1   9 144.262 118.451  24
   5  -1   9 21532.7 1197.33  11
  -5   0  10 237.712 147.198  27
   5   0  -9 2356.28 607.821  15
  -5   0   9 1289.46 368.180  27
   5   0  -8 3209.32 866.823  15
  -5   0   8 3138.19 654.362  27
   5   0  -8 3394.14 865.793   6
   5   0  -7 20276.7 2333.54   6
   5   0  -7 17387.2 1335.52  21
   5   0  -6 6317.77 1393.64  15
   5   0  -6 7813.76 1020.08  28
   5   0  -6 8671.95 989.003  21
   5   0  -5 21740.4 3228.23   3
   5   0  -5 15680.1 1948.49  15
   5   0  -5 14765.2 1942.47   6
   5   0  -5 18744.6 1456.86  21
   5   0  -5 17391.7 1497.58  28
   5   0  -4 85696.1 6465.06   3
   5   0  -3 1237.96 759.376   3
   5   0  -2 228586. 10361.6   3
   5   0  -1 124141. 7146.93   3
   5   0   0 2307.47 897.764   3
   5   0   1 137020. 7420.01   3
   5   0   2 21343.1 2889.24   3
   5   0   2 19515.6 2818.96   5
   5   0   3 32373.6 3777.64   5
   5   0   4 8896.50 1272.07  15
   5   0   4 10001.0 1212.43  26
   5   0   4 10748.7 1164.48  30
   5   0   4 8686.17 1371.93  23
   5   0   4 7573.67 1909.26   5
   5   0   4 8803.16 1104.04  10
   5   0   5 16736.4 2461.56  18
   5   0   5 18985.3 2401.47  23
   5   0   5 20178.1 1859.42  10
   5   0   6 32280.9 3170.61  18
   5   0   6 31345.4 2441.53  10
   5   0   7 22193.4 2513.60  24
   5   0   7 11744.2 1417.66  10
   5   0   8 2275.23 491.775  16
   5   0   8 2185.72 629.897  24
   5   0   9 2184.83 403.366  24
   5   0   9 2658.59 396.824  11
   5   1 -10 9401.66 1004.56  15
  -5  -1  10 5907.09 626.044  27
   5   1  -9 337.895 321.216  15
  -5  -1   9-190.197 198.566  27
   5   1  -8 26082.9 2924.79  15
  -5  -1   8 21362.3 1661.89  27
  -5  -1   7 14106.5 1377.77  27
   5   1  -7 15121.5 1730.35   6
   5   1  -7 12153.6 1115.43  21
   5   1  -6 1317.60 745.061  15
  -5  -1   6 1747.70 476.248  27
   5   1  -6 471.305 345.745   6
   5   1  -6 927.064 337.226  21
   5   1  -5 17333.8 2224.04  15
  -5  -1   5 21818.8 1613.61  27
   5   1  -5 20396.6 1524.41  21
   5   1  -4 68711.4 5718.78   3
   5   1  -3 117328. 7351.05   3
   5   1  -2 44337.4 4257.31   3
   5   1  -1 301039. 11847.1   3
   5   1   0 217948. 9821.48   3
   5   1   1 11897.4 1942.13   5
   5   1   2 92139.2 5811.91   5
   5   1   3 22774.0 2018.44  15
   5   1   3 20994.8 2037.06  23
   5   1   3 19863.6 2820.57   5
   5   1   4 34805.2 3551.08  18
   5   1   4 34676.0 2741.20  15
   5   1   4 38514.9 3158.85  23
   5   1   4 37317.5 2427.22  10
   5   1   5 3586.86 1201.14  18
   5   1   5 5188.48 1239.76  23
   5   1   5 2580.80 898.872  10
   5   1   6 11934.3 1987.92  18
   5   1   6 11213.7 1445.99  10
   5   1   7 15125.8 1985.66  24
   5   1   8 5156.67 738.985  16
   5   1   8 6400.38 984.285  24
   5   2 -10 793.768 356.558  15
  -5  -2  10 746.643 227.647  27
   5   2  -9 7609.75 1394.99  15
  -5  -2   9 4357.49 663.311  27
   5   2  -8 24470.9 2855.18  15
  -5  -2   8 21936.8 1677.72  27
   5   2  -7 31918.8 3469.68  15
  -5  -2   7 22786.6 1779.01  27
   5   2  -6 25532.2 3052.90  15
  -5  -2   6 26780.8 1913.23  27
  -5  -2   5 129098. 4440.28  27
   5   2  -5 119444. 4249.55  21
   5   2  -4 52972.9 4970.70   3
  -5  -2   4 47870.9 4056.07   1
   5   2  -3 5054.72 1479.54   3
  -5  -2   3 4254.80 1096.98   1
   5   2  -2 93505.6 6481.13   3
   5   2  -1 6920.81 1676.97   3
  -5  -2   0 10282.3 1904.61   2
  -5  -2  -1 6455.61 1543.85   2
  -5  -2  -2 34522.0 3881.78   2
   5   2   2 32504.3 2494.31  15
   5   2   3 28239.7 2465.68  15
   5   2   3 27632.6 2569.64  23
   5   2   3 31496.0 2108.90  10
   5   2   4 13365.1 2415.72  18
   5   2   4 11733.0 1714.34  15
   5   2   4 11391.6 1820.90  23
   5   2   4 11652.9 1374.22  10
   5   2   5 31014.7 3604.14  18
   5   2   5 23542.8 2044.49  10
   5   2   6 14656.6 2117.45  24
   5   2   7 11051.4 1456.65  16
   5   2   7 11370.1 1529.76  24
   5   2   8 4374.97 618.611  16
   5   2   8 4615.73 716.591  24
   5   3 -10 1206.90 439.587  15
  -5  -3  10 1092.02 341.125  27
   5   3  -9 766.402 450.958  15
  -5  -3   9 473.129 252.210  27
   5   3  -8 5697.86 1295.09  15
  -5  -3   8 4328.01 731.212  27
   5   3  -7 36856.1 3479.58  15
  -5  -3   7 32601.7 2132.38  27
   5   3  -6 21434.2 2664.00  15
  -5  -3   6 17203.5 1531.83  27
  -5  -3   5 81211.3 5974.14   1
  -5  -3   5 79980.2 3355.65  27
  -5  -3   4 248966. 10321.4   1
  -5  -3   4 256009. 6631.30  27
  -5  -3   3 201951. 8882.90   1
  -5  -3   2 34176.6 3278.03   1
  -5  -3   1 88668.8 5417.35   1
  -5  -3   0 25464.9 3330.07   2
  -5  -3  -1 10846.1 2257.16   2
   5   3   1 9640.14 1394.51  15
  -5  -3  -2 3915.57 1361.83   2
   5   3   2 2807.17 770.492  15
   5   3   2 2405.69 729.949  23
   5   3   3 63464.0 5257.43  18
  -5  -3  -3 67677.3 6046.95   2
   5   3   3 58790.1 3871.76  15
   5   3   3 56699.5 3932.50  23
   5   3   3 61710.6 3098.50  10
   5   3   4 3278.02 1278.31  18
   5   3   4 3147.33 914.801  15
   5   3   4 2605.92 677.337  10
   5   3   5 22544.7 2923.59  18
   5   3   5 21282.7 2573.08  24
   5   3   6 64243.1 3920.67  24
   5   3   7 57672.7 2974.79  16
   5   3   7 51966.8 2827.38  24
   5   4 -10 151.859 178.813  15
   5   4  -9 33490.8 2454.53  15
  -5  -4   9 24821.1 1493.49  27
   5   4  -8 48586.0 3399.65  15
  -5  -4   8 45209.1 2360.52  27
   5   4  -7 29387.9 2815.73  15
  -5  -4   7 28331.8 1911.00  27
  -5  -4   6 24858.8 1797.64  27
   5   4  -6 24535.5 2645.40  15
  -5  -4   5 41421.5 4291.28   1
   5   4  -5 31929.0 2987.14  15
  -5  -4   5 40021.3 2261.09  27
  -5  -4   4 11116.8 2362.36   1
   5   4  -4 8941.33 1583.05  15
  -5  -4   3 6207.12 1547.90   1
   5   4  -3 3748.10 905.097  15
   5   4  -2 20346.9 2106.69  15
  -5  -4   2 23278.8 2995.15   1
   5   4  -1 79008.7 4214.96  15
  -5  -4   1 86357.0 5793.03   1
  -5  -4   1 72619.7 3637.76  20
  -5  -4   0 1389.20 750.569   1
   5   4   0 1062.75 489.552  15
  -5  -4   0 1279.13 778.786   2
  -5  -4   0 1663.84 534.535  20
   5   4   1 37588.9 2929.98  15
  -5  -4  -1 41046.7 2672.22  20
   5   4   2 83433.2 5830.73  18
  -5  -4  -2 101804. 7362.33   2
   5   4   2 78622.0 4556.12  15
  -5  -4  -2 98933.1 4091.13  20
   5   4   3 8430.58 1905.27  18
   5   4   3 7692.28 1410.48  15
   5   4   4 15333.0 2374.39  18
   5   4   4 14195.2 1912.81  24
  -5  -4  -5 7304.76 844.835   8
   5   4   5 8004.68 1299.24  24
   5   4   6 41.0880 204.002  16
   5   4   6 371.216 266.574  24
   5   4   7 12026.3 990.905  16
   5   4   7 11158.4 921.084  24
  -5  -5  10 5635.05 492.085  17
   5   5 -10 7339.18 760.074  15
   5   5  -9 54.7308 168.393  15
  -5  -5   9 20.3403 168.689  12
   5   5  -8 41809.5 2889.42  15
   5   5  -7 62680.0 3855.71  15
   5   5  -6 11818.7 1709.29  15
   5   5  -5 49788.1 3574.88  15
  -5  -5   5 54118.7 3152.20  20
   5   5  -4 8952.54 1440.35  15
  -5  -5   4 10817.9 2224.52   1
  -5  -5   4 9822.87 1335.98  20
  -5  -5   3 7218.06 920.344  17
   5   5  -3 6504.17 1211.58  15
  -5  -5   3 7046.16 1733.83   1
  -5  -5   3 5807.77 1003.89  20
  -5  -5   2 2530.69 507.991  17
  -5  -5   2 3204.99 1269.44   1
   5   5  -2 1782.63 606.358  15
  -5  -5   2 2276.26 617.260  20
   5   5  -1 5136.83 1046.88  15
  -5  -5   1 4927.16 1425.93   1
  -5  -5   1 4857.39 919.322  20
  -5  -5   0 46951.8 4897.33   2
  -5  -5   0 41519.8 4164.84   1
  -5  -5   0 37486.3 2544.25  20
   5   5   1 813.449 563.753  18
   5   5   1 969.878 456.723  15
   5   5   2 53702.3 4329.54  18
  -5  -5  -2 58504.1 2956.61   9
   5   5   2 53461.7 3619.46  15
   5   5   3 106905. 5899.97  18
   5   5   3 114337. 5498.40  15
  -5  -5  -4 2243.12 508.923   8
   5   5   4 1312.18 519.879  24
   5   5   5 7873.11 1118.02  16
  -5  -5  -5 7990.55 745.083   8
   5   5   5 5994.93 833.632  24
   5   5   6 10939.3 961.775  16
  -5  -6   9 6317.81 610.027  17
   5   6  -9 7241.59 847.535  15
  -5  -6   9 5825.37 770.504  12
   5   6  -8 6793.35 1011.95  15
   5   6  -7 3126.06 772.799  15
   5   6  -6 4176.38 924.716  15
  -5  -6   6 4558.98 736.052  20
  -5  -6   5 11825.7 1188.82  17
   5   6  -5 10220.5 1463.12  15
  -5  -6   5 11521.1 1324.05  20
  -5  -6   4 31892.4 1975.03  17
  -5  -6   4 31161.6 2304.32  20
  -5  -6   3 340.188 227.951  17
   5   6  -3 283.235 219.275  15
  -5  -6   3 237.797 224.822  20
  -5  -6   2 91338.9 3320.14  17
  -5  -6   2 83710.5 3903.91  20
  -5  -6   1 99029.8 3360.67  17
  -5  -6   1 101070. 4202.50  20
  -5  -6   0 52.2456 168.283   9
   5   6   0 453.342 338.970  15
  -5  -6  -1 32835.6 2125.40   9
   5   6   1 26680.5 2319.78  15
  -5  -6  -2 18503.3 1443.42   9
   5   6   2 18530.6 1912.51  15
  -5  -6  -3 1186.51 367.959   8
   5   6   4 2278.18 521.751  16
  -5  -6  -4 2908.54 469.266   8
   5   6   5 439.492 170.323  16
  -5  -7   9 2380.93 288.162  17
  -5  -7   9 2172.38 382.318  12
  -5  -7   8 20638.7 1163.10  17
   5   7  -8 17061.7 1277.85  15
  -5  -7   8 19625.0 1534.50  12
  -5  -7   7 9389.83 881.258  17
   5   7  -7 9704.67 1137.15  15
  -5  -7   6 771.936 302.214  17
  -5  -7   6 479.827 225.121   9
   5   7  -6 601.665 336.797  15
  -5  -7   5 2266.89 471.871  17
  -5  -7   5 1457.34 443.462   9
   5   7  -5 1380.98 475.749  15
  -5  -7   4 40844.3 2074.58  17
   5   7  -4 34294.9 2411.40  15
  -5  -7   3 5391.23 714.204  17
   5   7  -3 4821.07 853.245  15
  -5  -7   2 7382.12 817.877  17
  -5  -7   2 6986.47 980.901   9
  -5  -7   1 98068.0 3263.19  17
  -5  -7   1 99376.6 3936.18   9
  -5  -7   0 55208.6 2706.40   9
  -5  -7  -1 976.902 331.303   9
  -5  -7  -2 19911.9 1272.12   9
  -5  -7  -2 24457.5 1479.90   8
  -5  -7  -3 17373.6 1094.98   8
  -5  -7  -4 272.105 106.869   8
  -5  -8   8 10187.8 598.767  17
  -5  -8   8 9229.51 760.247  12
  -5  -8   7 1858.39 315.025  17
  -5  -8   7 1381.34 368.005  12
  -5  -8   6 17108.8 1067.43  17
  -5  -8   6 15260.0 1305.58  12
  -5  -8   5 88415.1 2871.56  17
  -5  -8   5 85106.7 3009.04   9
  -5  -8   4 57051.4 2255.32  17
  -5  -8   4 58054.0 2566.16   9
  -5  -8   3 2868.49 451.248  17
  -5  -8   3 2596.25 535.331   9
  -5  -8   2 25722.6 1382.62  17
  -5  -8   2 25610.2 1654.96   9
  -5  -8   1 24336.2 1565.77   9
  -5  -8   0 753.431 254.153   9
  -5  -8   0 462.709 194.000   8
  -5  -8  -1 134.971 131.612   9
  -5  -8  -1 259.423 146.005   8
  -5  -8  -2 904.194 209.045   8
  -5  -9   6 791.919 164.786  17
  -5  -9   5 5528.69 475.425  17
  -5  -9   5-254.288 105.405   9
  -5  -9   4 31808.7 1290.96  17
  -5  -9   4 28763.4 1406.13   9
  -5  -9   3 4094.86 429.900  17
  -5  -9   3 4105.01 523.695   9
  -5  -9   2 7360.71 694.172   9
  -5  -9   1 17228.9 983.118   9
  -5  -9   1 3799.25 373.433   8
  -5  -9   0 5263.96 475.889   9
   6 -10   2 2590.53 300.154  29
   6 -10   3 8013.67 537.660  29
   6  -9  -2 292.791 108.625  21
   6  -9  -1 776.961 191.276  29
   6  -9  -1 879.170 207.349  21
   6  -9   0 3139.46 397.271  19
   6  -9   0 3071.05 414.055  29
   6  -9   1 6717.62 592.496  19
   6  -9   1 8236.78 726.962  29
   6  -9   2 25947.4 1195.12  19
   6  -9   2 27748.8 1417.85  29
   6  -9   3 311.648 169.895  29
   6  -9   3 263.914 118.514  19
   6  -9   3 398.409 166.110  26
   6  -9   4 12885.6 867.149  29
   6  -9   4 8030.71 727.691  26
   6  -9   5 19149.2 1068.36  26
   6  -9   6 171.943 85.3601  30
   6  -9   6 54.3867 70.6700  26
   6  -8  -4 502.195 135.929  28
   6  -8  -4 435.201 125.666  21
   6  -8  -3 21474.0 1021.59  28
   6  -8  -3 19178.0 1061.61  21
   6  -8  -2 27801.0 1259.61  28
   6  -8  -2 23717.3 1361.31  21
   6  -8  -1 221.190 157.083  29
   6  -8   0 50756.3 2322.69  29
   6  -8   1 75732.8 3014.88  29
   6  -8   2 8844.77 814.650  19
   6  -8   2 9768.78 985.406  29
   6  -8   2 8530.03 965.448  26
   6  -8   3 3870.26 524.808  19
   6  -8   3 3816.49 599.969  29
   6  -8   3 4170.35 709.141  26
   6  -8   4 9840.14 776.552  19
   6  -8   4 8946.59 862.018  29
   6  -8   4 9120.86 1022.41  26
   6  -8   5 1613.13 407.218  26
   6  -8   6 162.291 125.870  30
   6  -8   6 135.275 157.754  26
   6  -8   7 14818.5 843.845  26
   6  -7  -5 362.915 145.895  28
   6  -7  -5 375.076 130.439  21
   6  -7  -4 5230.45 616.986  28
   6  -7  -4 4702.73 573.078  21
   6  -7  -3 8838.18 878.373  28
   6  -7  -3 7501.79 853.046  21
   6  -7  -2 9506.55 938.643  28
   6  -7  -1 5672.57 691.128  28
   6  -7  -1 5201.25 809.122  29
   6  -7   0 2142.08 548.771  29
   6  -7   1 48310.1 2649.50  29
   6  -7   2 21964.3 1693.42  29
   6  -7   3 8430.01 868.691  19
   6  -7   3 7885.85 968.222  29
   6  -7   3 7163.20 1193.72  26
   6  -7   4 2450.07 464.182  19
   6  -7   4 2668.07 547.233  29
   6  -7   4 2238.29 622.114  26
   6  -7   5 1441.53 347.390  19
   6  -7   5 1569.52 490.279  26
   6  -7   5 1297.03 474.442  22
   6  -7   6 10908.7 1144.61  22
   6  -7   6 8570.82 845.622  30
   6  -7   6 10525.7 1064.24  26
   6  -7   7 192.569 128.063  30
   6  -7   7 206.717 159.388  26
   6  -7   8 4325.74 399.541  26
   6  -6  -6 17122.5 1047.73  28
   6  -6  -6 15024.9 783.194  21
   6  -6  -5 11361.4 925.118  21
   6  -6  -5 13360.7 1149.73  28
   6  -6  -4 3866.13 715.089  28
   6  -6  -4 3545.83 613.611  21
   6  -6  -3 70049.3 3349.20  28
   6  -6  -3 60037.1 3055.70  21
   6  -6  -2 53296.2 2866.76  28
   6  -6  -1 1861.10 594.652  29
   6  -6  -1 4750.14 755.717  28
   6  -6   0 2660.51 688.569  29
   6  -6   1 44935.2 2819.28  29
   6  -6   2 1148.19 420.848  29
   6  -6   3 27263.2 1711.27  19
   6  -6   3 26898.2 1963.02  29
   6  -6   3 29016.0 2472.39  22
   6  -6   4 87735.7 3264.84  19
   6  -6   4 86328.4 3605.76  29
   6  -6   4 76584.0 4312.94  26
   6  -6   4 87487.1 4468.55  22
   6  -6   5 33691.2 1849.19  19
   6  -6   5 32502.4 2475.60  26
   6  -6   5 36440.6 2714.30  22
   6  -6   5 38442.5 1888.70  10
   6  -6   6 4046.88 767.912  26
   6  -6   6 3543.16 611.961  30
   6  -6   6 4673.73 884.583  22
   6  -6   7 81986.1 2835.42  30
   6  -6   7 89134.0 3259.45  26
   6  -6   7 94203.2 3587.01  22
   6  -6   8 14794.9 929.515  26
   6  -5  -7 7767.89 679.874  28
   6  -5  -6 101.968 189.785  28
   6  -5  -6 307.238 165.596  21
   6  -5  -5 4824.19 911.851  28
   6  -5  -5 4076.77 673.102  21
   6  -5  -4 1592.25 599.199  28
   6  -5  -4 933.288 375.232  21
   6  -5  -3 165.452 289.896  28
   6  -5  -3 1031.09 436.469  21
   6  -5  -2 28068.9 2351.60  28
   6  -5  -1 1134.69 436.043  28
   6  -5  -1-632.550 1053.27   3
   6  -5   0 6530.91 1085.51  29
   6  -5   0 8540.23 2481.26   3
   6  -5   1 19988.7 1872.30  29
   6  -5   1 20282.1 3318.47   3
   6  -5   2 2744.60 678.046  29
   6  -5   2 1413.69 650.818  26
   6  -5   3 45411.9 2374.64  19
   6  -5   3 46691.6 2744.91  29
   6  -5   3 46709.9 3540.07  22
   6  -5   4 74.3628 176.999  19
   6  -5   4 512.252 354.102  29
   6  -5   4 346.744 411.530  26
   6  -5   4-12.8412 194.145  22
   6  -5   5 9804.24 1044.27  19
   6  -5   5 9176.10 1174.97  30
   6  -5   5 10391.1 1466.82  26
   6  -5   5 9813.19 978.407  11
   6  -5   5 9023.75 1550.89  22
   6  -5   5 11470.0 1108.10  10
   6  -5   6 10929.3 1175.63  30
   6  -5   6 11300.1 1370.29  26
   6  -5   6 11594.1 1047.28  11
   6  -5   6 12688.7 1679.05  22
   6  -5   6 14934.3 1220.02  10
   6  -5   7 3281.94 644.193  26
   6  -5   7 3031.64 538.789  30
   6  -5   7 3019.59 522.333  11
   6  -5   7 2866.74 635.380  22
   6  -5   7 4003.29 570.860  10
  -6   4   8 212.324 125.704  27
   6  -4  -7 10443.4 1008.21  28
   6  -4  -7 9490.89 746.294  21
   6  -4  -6 43137.6 2703.33  28
   6  -4  -6 42723.7 2141.84  21
   6  -4  -5 11140.0 1556.67  28
   6  -4  -5 11651.0 1302.86   6
   6  -4  -5 8994.45 1057.95  21
   6  -4  -4 1156.96 621.297  28
   6  -4  -4 1663.40 498.444   6
   6  -4  -4 1532.57 488.567  21
   6  -4  -3 8611.90 1489.45  28
   6  -4  -3 9237.35 1199.35  21
   6  -4  -2 3405.36 1886.18   3
   6  -4  -2 2735.82 769.405  28
   6  -4  -1 16550.3 1655.15  28
   6  -4  -1 10709.3 3042.11   3
   6  -4   0 61602.8 6645.45   3
   6  -4   0 73732.3 3177.13  28
   6  -4   1 99948.5 7587.93   3
   6  -4   1 108867. 4533.08  29
   6  -4   2 17287.3 1435.15  19
   6  -4   2 15731.3 1543.12  29
   6  -4   2 13131.0 1754.56  26
   6  -4   2 16885.0 2120.43  22
   6  -4   3 132917. 4546.14  19
   6  -4   3 132274. 4966.09  29
   6  -4   3 123388. 5804.17  26
   6  -4   3 129161. 4596.60  23
   6  -4   3 120891. 6471.81  22
   6  -4   3 132113. 8980.97   5
   6  -4   4 164495. 5226.76  19
   6  -4   4 149398. 6414.16  26
   6  -4   4 173751. 5575.68  23
   6  -4   4 139557. 7533.66  22
   6  -4   5 45487.7 2747.65  30
   6  -4   5 42297.9 3032.97  26
   6  -4   5 45993.1 2346.06  11
   6  -4   5 46191.1 2501.97  10
   6  -4   5 45031.6 2428.29  19
   6  -4   6 2912.08 587.995  10
   6  -4   6 2149.08 560.078  30
   6  -4   6 2160.31 623.001  26
   6  -4   6 1889.41 456.284  11
   6  -4   6 1642.14 670.869  22
   6  -4   7 33293.3 1891.90  30
   6  -4   7 33470.1 2148.22  26
   6  -4   7 35019.1 1886.29  11
   6  -4   7 39400.2 2107.55  10
   6  -4   8 692.033 252.045  11
   6  -4   8 66.3432 125.878  10
  -6   3   8 841.801 282.337  27
   6  -3  -7 1994.95 498.247  28
   6  -3  -7 2961.62 716.511   6
   6  -3  -7 2369.12 445.652  21
   6  -3  -6 2216.98 664.863  28
   6  -3  -6 1360.25 554.933   6
   6  -3  -6 3121.21 585.578  21
   6  -3  -5 7614.98 1293.92  28
   6  -3  -5 8932.96 1491.49   6
   6  -3  -5 8622.76 1050.29  21
   6  -3  -4 6772.51 1282.01  28
   6  -3  -4 6551.99 1174.24   6
   6  -3  -4 5966.86 897.024  21
   6  -3  -3 26014.6 2437.54  28
   6  -3  -3 20736.6 4299.85   3
   6  -3  -3 24735.9 1833.80  21
   6  -3  -2 20984.9 2010.58  28
   6  -3  -2 18149.7 3770.66   3
   6  -3  -2 22467.1 1697.50  21
   6  -3  -1 71985.2 7261.39   3
   6  -3  -1 78643.7 3644.35  28
   6  -3  -1 78403.8 3302.05  21
   6  -3   0 34810.6 4597.42   3
   6  -3   1 7671.94 2012.31   3
   6  -3   2 42129.5 2328.07  19
   6  -3   2 41399.0 4342.72   3
   6  -3   2 43279.7 2498.12  29
   6  -3   2 41657.4 2831.37  26
   6  -3   3 57172.3 2787.02  19
   6  -3   3 55943.9 3461.87  26
   6  -3   3 60246.2 3094.29  23
   6  -3   3 55984.3 4159.98  22
   6  -3   3 57944.9 5951.52   5
   6  -3   4 20925.6 1632.70  19
   6  -3   4 20108.3 2033.92  26
   6  -3   4 20477.9 1826.50  30
   6  -3   4 21413.9 1882.92  23
   6  -3   4 21570.6 2691.28  22
   6  -3   4 21510.8 3620.65   5
   6  -3   4 22348.1 1759.40  10
   6  -3   5 17014.7 1633.03  30
   6  -3   5 18866.7 1902.79  26
   6  -3   5 19059.5 1866.16  23
   6  -3   5 19638.3 1677.66  10
   6  -3   6 1121.83 430.513  10
   6  -3   6 1239.77 543.719  26
   6  -3   6 1198.27 485.436  23
   6  -3   6 1264.16 407.280  11
   6  -3   6 1185.67 450.271  30
   6  -3   7 9571.11 986.765  11
   6  -3   7 12569.9 1274.32  10
   6  -3   8 3817.69 537.746  11
   6  -3   8 3698.98 584.683  10
   6  -3   9 1597.53 248.308  11
  -6   2   9 8747.64 731.802  27
  -6   2   8 410.161 244.700  27
   6  -2  -7 5440.96 836.562  28
   6  -2  -7 7314.17 1441.83   6
   6  -2  -7 5310.77 717.227  21
   6  -2  -6 3785.50 793.354  28
   6  -2  -6 3461.04 660.982  21
   6  -2  -5 349.281 319.130  28
   6  -2  -5 684.784 588.329   6
   6  -2  -5 714.055 319.021  21
   6  -2  -4 15530.0 1704.19  28
   6  -2  -4 11751.1 2778.65   3
   6  -2  -4 14964.4 2018.81   6
   6  -2  -4 14003.6 1324.92  21
   6  -2  -3 79181.3 7421.16   3
   6  -2  -3 87819.1 4201.89  28
   6  -2  -3 87941.6 3480.13  21
   6  -2  -2 46458.5 5508.88   3
   6  -2  -2 54128.6 3024.42  28
   6  -2  -2 52815.8 2507.29  21
   6  -2  -1 1052.48 795.077   3
   6  -2   0 247687. 12218.1   3
   6  -2   1 205066. 10559.5   3
   6  -2   2 53746.7 2629.72  19
   6  -2   2 55035.5 5063.32   3
   6  -2   2 60928.4 3031.83  30
   6  -2   2 59582.8 3155.34  26
   6  -2   2 54658.2 5709.08   5
   6  -2   3 22535.9 1694.06  19
   6  -2   3 31669.1 2202.54  30
   6  -2   3 29834.2 2293.31  26
   6  -2   3 24826.3 2057.17  23
   6  -2   3 21468.4 3630.19   5
   6  -2   4 11731.3 1333.32  30
   6  -2   4 12011.8 1480.34  26
   6  -2   4 13118.4 1572.00  23
   6  -2   4 10776.3 2513.55   5
   6  -2   4 12226.7 1324.69  10
   6  -2   4 10684.9 1155.44  19
   6  -2   5 789.528 399.249  10
   6  -2   5 741.009 402.673  26
   6  -2   5 802.245 419.489  23
   6  -2   5 904.932 379.383  30
   6  -2   6 12545.7 1298.63  30
   6  -2   6 13036.4 1449.32  26
   6  -2   6 16442.1 1890.18  23
   6  -2   6 15769.9 1598.43  10
   6  -2   7 11266.0 1079.60  11
   6  -2   7 14485.9 1447.26  10
   6  -2   8 3807.67 628.472  24
   6  -2   8 13452.2 975.051  11
   6  -2   9 1895.81 269.340  11
  -6   1   9 4406.56 572.489  27
  -6   1   8 1943.92 471.006  27
   6  -1  -7 8164.18 1666.33   6
   6  -1  -7 5880.34 786.207  21
   6  -1  -6 21368.6 1818.77  28
   6  -1  -6 23720.7 1715.18  21
   6  -1  -5 534.507 678.843   3
   6  -1  -5 675.800 383.204  28
   6  -1  -5 615.888 619.686   6
   6  -1  -5 626.485 294.251  21
   6  -1  -4 84612.0 7190.17   3
   6  -1  -4 95938.7 3664.03  21
   6  -1  -4 87410.0 4005.73  28
   6  -1  -3 50089.1 5402.92   3
   6  -1  -3 50300.2 2841.66  28
   6  -1  -3 52417.1 2522.63  21
   6  -1  -2 948.975 715.917   3
   6  -1  -1 81751.3 6655.92   3
   6  -1   0 7028.09 1834.29   3
   6  -1   1 24892.5 3427.17   3
   6  -1   2 2806.83 624.322  30
   6  -1   2 2078.11 997.374   3
   6  -1   2 2072.14 652.586  14
   6  -1   2 2191.80 549.097  26
   6  -1   2 2591.20 643.425  23
   6  -1   2 1679.71 960.703   5
   6  -1   3 13124.1 1244.37  19
   6  -1   3 16535.1 1543.53  15
   6  -1   3 17729.8 1688.59  26
   6  -1   3 16676.6 1742.26  23
   6  -1   3 15166.0 2891.63   5
   6  -1   3 15166.7 1451.16  10
   6  -1   4 52942.7 3057.78  15
   6  -1   4 55895.5 3183.48  26
   6  -1   4 54284.2 3517.56  23
   6  -1   4 50619.2 5549.95   5
   6  -1   4 57631.5 2990.13  30
   6  -1   4 49297.0 2826.01  10
   6  -1   5 1427.50 521.743  10
   6  -1   5 829.823 540.205  18
   6  -1   5 710.512 345.426  30
   6  -1   5 805.853 553.112  23
   6  -1   6 10156.6 1546.20  18
   6  -1   6 10196.7 1336.33  10
   6  -1   7 13034.2 1729.87  24
   6  -1   7 10786.9 1288.51  10
   6  -1   8 568.440 277.338  24
   6  -1   8 1801.95 404.029  11
   6   0  -9-102.249 97.4414  15
  -6   0   9 2856.65 480.186  27
   6   0  -8 95.9626 229.317  15
  -6   0   8 2944.86 642.195  27
  -6   0   7 8425.60 1019.54  27
   6   0  -7 8760.85 989.077  21
  -6   0   6 29803.4 2000.29  27
   6   0  -6 29382.5 1939.60  21
   6   0  -5 25523.1 3767.21   3
   6   0  -5 28461.0 2824.76  15
  -6   0   5 26878.8 1900.90  27
   6   0  -5 27754.7 1909.43  21
   6   0  -4 30800.7 4117.18   3
   6   0  -4 26058.3 2363.50  15
   6   0  -4 30434.4 1949.36  21
   6   0  -3 181617. 10428.6   3
   6   0  -3 186870. 5518.28  21
   6   0  -2 112128. 7855.55   3
   6   0  -1 29638.3 3851.20   3
   6   0   0 83143.6 6472.38   3
   6   0   1 64709.9 5677.09   3
   6   0   1 56183.1 5273.91   5
   6   0   2 24450.3 1896.95  15
   6   0   2 27443.3 1942.33  30
   6   0   2 21164.3 1930.37  23
   6   0   2 23629.9 3369.35   5
   6   0   3 543.235 376.031  10
   6   0   3 854.307 434.706  15
   6   0   3 49.1771 220.279  23
   6   0   3-47.2342 278.394   5
   6   0   4 51539.3 3193.28  15
   6   0   4 56438.4 3803.75  23
   6   0   4 48886.1 2861.87  10
   6   0   5 12712.3 2206.90  18
   6   0   5 13415.4 1955.95  23
   6   0   5 11951.4 1446.35  10
   6   0   6 31707.3 3021.28  18
   6   0   6 29599.1 2284.78  10
   6   0   7 54382.2 3605.52  24
   6   0   8 26554.9 1743.98  24
   6   0   8 19274.6 1150.95  11
  -6  -1  10 9224.66 635.559  27
   6   1  -9 11244.8 1410.10  15
  -6  -1   9 5233.13 659.316  27
   6   1  -8 28796.8 3185.23  15
  -6  -1   8 13299.9 1197.13  27
   6   1  -7 82375.2 6320.58  15
  -6  -1   7 39772.6 2298.72  27
  -6  -1   6 17205.5 1502.40  27
   6   1  -6 16351.7 1460.60  21
   6   1  -5 4958.51 1463.14  15
  -6  -1   5 5958.64 898.850  27
   6   1  -5 5435.12 850.098  21
   6   1  -4 47620.8 5236.38   3
   6   1  -4 46950.0 3658.05  15
   6   1  -4 55633.5 2724.32  21
   6   1  -3 3.80355 151.006  15
   6   1  -3-128.190 353.984   3
   6   1  -2 13974.8 2672.78   3
   6   1  -1 1073.17 738.972   3
   6   1   0 67267.9 5917.38   3
   6   1   1 30478.9 2213.16  15
   6   1   1 34383.9 2828.09  14
   6   1   1 25524.5 2049.65  23
   6   1   2 50011.1 3027.73  15
   6   1   2 45596.8 3003.31  23
   6   1   2 51380.0 2613.22  10
   6   1   3 44328.2 3040.83  15
   6   1   3 42164.4 3154.91  23
   6   1   3 45390.7 2604.06  10
   6   1   4 15985.6 2566.17  18
   6   1   4 15507.3 1868.78  15
   6   1   4 17532.4 2205.68  23
   6   1   4 15504.6 1584.55  10
   6   1   5 24034.1 3205.52  18
   6   1   5 18985.8 1794.20  10
   6   1   6 19167.0 2326.58  18
   6   1   6 14435.9 1504.73  10
   6   1   7 521.907 378.103  24
   6   1   8 3746.87 577.769  24
   6   1   8 3241.00 422.360  11
  -6  -2  10 2869.55 345.621  27
   6   2  -9 17901.5 2080.72  15
  -6  -2   9 7988.29 776.706  27
   6   2  -8 1897.13 957.297  15
  -6  -2   8 3439.97 635.058  27
   6   2  -7 75304.9 6329.10  15
  -6  -2   7 36326.2 2181.79  27
   6   2  -6 123927. 8215.60  15
  -6  -2   6 92417.8 3806.86  27
   6   2  -5 62638.5 5191.41  15
  -6  -2   5 61193.4 2986.15  27
   6   2  -4 22566.1 3617.68   3
   6   2  -4 19451.8 2472.07  15
   6   2  -4 17337.5 1902.81  14
  -6  -2   4 24443.7 1753.66  27
   6   2  -3 23223.0 2327.36  15
   6   2  -3 19960.1 1996.16  14
   6   2  -2 8168.13 1259.41  15
   6   2  -2 7862.74 2070.68   3
   6   2  -2 7279.62 1160.85  14
   6   2  -1 28570.9 2529.41  15
   6   2  -1 43619.7 3073.65  14
   6   2   0 13031.6 1548.85  15
   6   2   0 14317.0 1756.31  14
   6   2   0 11783.9 1322.86  23
   6   2   1 121691. 5153.07  15
   6   2   1 81563.5 4046.39  23
   6   2   2 1630.40 445.739  10
   6   2   2 1335.53 565.159  15
   6   2   2 996.753 479.840  23
   6   2   3 38175.6 3044.08  15
   6   2   3 35588.4 3042.34  23
   6   2   3 37784.6 2400.56  10
   6   2   4 117779. 5805.78  15
   6   2   4 117483. 6084.34  23
   6   2   4 111278. 4559.97  10
   6   2   5 32205.6 3590.29  18
   6   2   5 22798.9 1876.11  10
   6   2   6 7447.71 1333.15  24
   6   2   7 9382.04 1084.24  16
   6   2   7 8902.24 1113.01  24
   6   3 -10 12982.3 1058.85  15
   6   3  -9 12035.0 1596.13  15
  -6  -3   9 5717.52 632.135  27
   6   3  -8 17071.2 2386.63  15
  -6  -3   8 9559.28 949.313  27
   6   3  -7 8470.26 1153.20  14
  -6  -3   7 9744.07 1057.62  27
   6   3  -6 684.824 721.466  15
   6   3  -6 632.523 417.729  14
  -6  -3   6 800.174 352.778  27
   6   3  -5 7460.85 1670.18  15
   6   3  -5 6524.38 1133.29  14
  -6  -3   5 8554.27 1039.98  27
   6   3  -4 21770.0 2624.15  15
   6   3  -4 21551.5 2047.51  14
  -6  -3   4 26666.6 1817.35  27
   6   3  -3 71500.8 4400.36  15
   6   3  -3 66801.1 3721.02  14
   6   3  -2 331.970 313.452  15
   6   3  -2 775.353 407.323  14
   6   3  -1 60913.6 3747.06  15
   6   3  -1 59006.3 3652.52  14
   6   3   0 113609. 5291.74  15
  -6  -3   0 104119. 4567.07  20
   6   3   1 12333.3 1540.31  23
  -6  -3  -1 14371.1 1634.50  20
   6   3   2 35020.2 2937.82  15
   6   3   2 33745.3 2799.87  23
   6   3   3 13171.6 2410.66  18
   6   3   3 11549.5 1760.49  15
   6   3   3 10390.0 1628.55  23
   6   3   4 324.541 386.588  18
   6   3   4 288.836 286.461  15
   6   3   5 5981.17 1336.14  18
   6   3   5 6729.23 1262.52  24
   6   3   6 457.280 298.688  24
   6   3   7 1181.72 298.352  16
   6   3   7 1059.09 289.369  24
   6   4  -9 21822.9 1807.73  15
  -6  -4   9 12256.6 1125.72  12
   6   4  -8 1003.75 487.502  15
  -6  -4   8 547.559 239.429  27
   6   4  -7 28642.2 2883.36  15
  -6  -4   7 22564.8 1580.39  27
   6   4  -6 7414.02 1550.22  15
  -6  -4   6 6034.66 843.387  27
  -6  -4   6 5826.65 979.935  20
   6   4  -5 1582.36 716.887  15
  -6  -4   5 1408.81 567.994  20
   6   4  -4 2802.04 938.376  15
   6   4  -3 9665.31 1583.33  15
   6   4  -3 9412.04 1339.96  14
   6   4  -2 38142.1 3079.41  15
   6   4  -2 38365.5 2902.40  14
  -6  -4   2 37823.5 2685.03  20
   6   4  -1 2678.65 839.128  15
  -6  -4   1 3173.26 785.475  20
   6   4   0 83270.5 4625.13  15
  -6  -4   0 89290.3 4198.77  20
   6   4   1 151231. 6537.10  15
  -6  -4  -1 148367. 5556.72  20
   6   4   2 1310.43 801.136  18
   6   4   2 929.024 529.698  15
   6   4   3 19006.0 2646.03  18
   6   4   3 17809.5 2146.88  15
   6   4   4 25438.8 2729.75  18
   6   4   4 25269.9 2316.95  24
   6   4   5 4959.11 846.470  24
   6   4   6 383.022 221.208  16
   6   4   6 162.053 136.406  24
  -6  -5   9 596.438 177.519  17
   6   5  -9 894.291 309.428  15
  -6  -5   9 465.817 220.828  12
   6   5  -8 2640.06 657.462  15
   6   5  -7 18872.3 1982.51  15
   6   5  -6 22406.9 2335.96  15
  -6  -5   6 21229.0 1749.70  20
   6   5  -5 5997.64 1241.01  15
  -6  -5   5 5392.76 973.597  20
   6   5  -4 80909.8 4754.06  15
  -6  -5   4 86229.9 4279.21  20
   6   5  -3 59481.0 3922.68  15
  -6  -5   3 62514.4 3548.77  20
   6   5  -2 2854.08 809.055  15
  -6  -5   2 2750.58 706.111  20
   6   5  -1 29895.9 2628.36  15
  -6  -5   1 32396.4 2424.95  20
   6   5   0 15405.9 2130.84  18
   6   5   0 14262.2 1783.14  15
  -6  -5   0 15101.9 1540.02  20
   6   5   1 30705.8 3200.08  18
   6   5   1 34429.2 2990.49  15
   6   5   2 1655.34 734.135  18
   6   5   2 2127.17 661.990  15
   6   5   3 5478.28 1094.89  18
  -6  -5  -4 1954.88 377.218   8
   6   5   5 629.969 249.774  16
  -6  -6   8 545.168 193.231  17
   6   6  -8 503.413 240.037  15
  -6  -6   7 151.067 143.192  17
   6   6  -7 296.186 245.464  15
  -6  -6   6 28615.7 1684.60  17
   6   6  -6 27176.1 2237.36  15
  -6  -6   6 28674.8 1744.30  20
  -6  -6   5 2277.24 486.403  17
   6   6  -5 1912.94 615.065  15
  -6  -6   5 1793.43 508.036  20
  -6  -6   4 6601.79 814.324  17
   6   6  -4 5426.61 1026.89  15
  -6  -6   4 5941.78 968.813  20
  -6  -6   3 105334. 3523.08  17
  -6  -6   3 98899.4 4239.20  20
   6   6  -2 44137.6 2999.92  15
  -6  -6   2 53753.7 2934.41  20
   6   6  -1 2585.11 720.280  15
  -6  -6   1 3261.21 691.475  20
  -6  -6   0 31766.7 2059.12   9
   6   6   0 24862.8 2168.03  15
  -6  -6  -1 29354.0 1856.04   9
   6   6   1 63182.0 3415.64  15
   6   6   2 666.731 387.980  15
   6   6   3 811.845 309.623  16
  -6  -6  -3 1237.37 305.260   8
  -6  -6  -4 3816.62 376.731   8
  -6  -7   8 9244.77 557.989  17
  -6  -7   8 9223.48 791.528  12
  -6  -7   7 50125.9 1786.68  17
  -6  -7   7 50671.3 2435.44  12
  -6  -7   6 42298.8 1626.87  17
   6   7  -6 39832.2 2168.29  15
  -6  -7   5 6106.23 663.618  17
  -6  -7   5 5324.98 738.321   9
   6   7  -5 5272.52 839.338  15
  -6  -7   4 21405.7 1292.80  17
  -6  -7   4 19325.1 1524.84   9
   6   7  -4 17258.9 1578.58  15
  -6  -7   3 19668.9 1215.03  17
  -6  -7   3 19082.6 1530.40   9
  -6  -7   2 825.242 338.188   9
   6   7  -2 555.996 311.080  15
  -6  -7   1 1655.49 442.714   9
   6   7  -1 1711.39 523.440  15
  -6  -7   0 4765.52 668.744   9
   6   7   0 4359.24 719.844  15
  -6  -7  -1 809.914 241.483   9
  -6  -7  -1 990.800 297.876   8
  -6  -7  -2 7775.35 678.212   8
  -6  -8   6 20804.9 916.916  17
  -6  -8   5 725.119 182.147  17
  -6  -8   5 510.615 190.325   9
  -6  -8   4 11977.2 760.272  17
  -6  -8   4 10949.9 907.178   9
  -6  -8   3 25213.1 1116.74  17
  -6  -8   3 23393.8 1402.03   9
  -6  -8   2 3348.63 508.928   9
  -6  -8   2 3403.27 427.914   8
  -6  -8   1 1349.78 317.321   9
  -6  -8   1 1537.72 293.006   8
  -6  -8   0 1992.28 325.619   9
  -6  -8   0 2149.05 321.607   8
  -6  -8  -1 7190.17 517.286   8
   7  -9   0 1242.71 202.920  19
   7  -9   1 1511.06 230.233  19
   7  -9   1 1706.99 249.954  29
   7  -9   2 981.202 182.090  19
   7  -9   2 998.046 200.698  30
   7  -9   2 1413.33 250.658  29
   7  -9   3 229.883 112.382  30
   7  -9   4 700.619 163.926  30
   7  -8  -3 1027.71 182.659  21
   7  -8  -2 182.310 96.5414  21
   7  -8  -1 16994.8 1016.86  21
   7  -8   0 2548.42 401.406  19
   7  -8   0 1655.13 334.191  29
   7  -8   0 1691.04 322.074  21
   7  -8   1 8890.76 734.619  19
   7  -8   1 9488.33 835.278  29
   7  -8   2 524.366 188.733  19
   7  -8   2 885.314 270.623  29
   7  -8   3-65.6423 92.5258  19
   7  -8   3 225.568 169.885  29
   7  -8   3 0.43631 77.4499  26
   7  -8   4 9997.30 855.364  30
   7  -8   4 11290.2 718.546  19
   7  -8   5 397.211 153.243  26
   7  -8   5 528.175 166.800  30
   7  -8   6 6737.73 463.523  30
   7  -8   6 4655.05 414.767  26
   7  -7  -4 7458.30 597.811  21
   7  -7  -3 1202.68 277.437  28
   7  -7  -3 1210.32 306.213  21
   7  -7  -2 203.476 133.550  28
   7  -7  -2 511.439 236.089  21
   7  -7  -1 2223.79 492.837  21
   7  -7   0 1306.58 412.226  29
   7  -7   0 766.313 308.275  21
   7  -7   1 13452.4 1083.67  19
   7  -7   1 13231.2 1282.43  29
   7  -7   1 12868.6 1091.86  21
   7  -7   2 64487.0 2489.83  19
   7  -7   2 63955.1 2910.00  29
   7  -7   3 21143.9 1264.15  19
   7  -7   3 19624.1 1458.59  29
   7  -7   3 16508.3 1538.85  26
   7  -7   4 6243.15 637.340  19
   7  -7   4 6259.16 897.832  26
   7  -7   5 79833.4 2891.80  30
   7  -7   5 84524.4 3199.69  26
   7  -7   6 14146.1 993.610  26
   7  -7   6 13378.8 874.925  30
   7  -6  -5 1961.08 388.490  28
   7  -6  -5 2321.64 361.493  21
   7  -6  -4 8984.50 947.555  28
   7  -6  -4 8418.32 859.972  21
   7  -6  -3 258.125 227.897  28
   7  -6  -3 363.656 230.837  21
   7  -6  -2 9622.22 1077.11  28
   7  -6  -2 7920.46 1089.14  21
   7  -6  -1 11252.2 1062.60  28
   7  -6  -1 7824.44 1145.76  21
   7  -6   0 3247.29 780.313  29
   7  -6   0 7609.65 1100.99  21
   7  -6   1 17569.9 1710.07  29
   7  -6   2 1409.53 398.117  19
   7  -6   2 831.594 390.989  29
   7  -6   2 746.316 415.252  26
   7  -6   3 7589.60 832.858  19
   7  -6   3 8771.58 1087.14  29
   7  -6   4 7425.29 796.186  19
   7  -6   4 7590.66 1048.46  30
   7  -6   4 6645.11 1132.98  26
   7  -6   4 7980.50 800.177  10
   7  -6   5 5863.54 808.230  30
   7  -6   5 5685.64 925.230  26
   7  -6   5 6646.50 675.689  10
   7  -6   6 20151.0 1277.35  30
   7  -6   6 21945.8 1501.03  26
   7  -6   7 545.271 159.775  30
   7  -6   7 556.002 205.856  26
   7  -5  -6-16.2850 34.7064  14
   7  -5  -6 1177.57 248.296  21
   7  -5  -5 2282.87 570.332  28
   7  -5  -5 1311.42 309.150  14
   7  -5  -5 2316.25 465.232  21
   7  -5  -4 58.8544 257.924  28
   7  -5  -4 331.568 201.251  14
   7  -5  -4 294.937 244.976  21
   7  -5  -3 194.907 328.942  28
   7  -5  -3 659.335 405.749  21
   7  -5  -2 49996.4 3079.69  28
   7  -5  -2 50979.3 3149.60  21
   7  -5  -1 50277.0 2746.39  28
   7  -5  -1 43976.2 2997.94  21
   7  -5   0 4212.67 866.920  21
   7  -5   1 54612.4 3288.64  29
   7  -5   2 113074. 3918.94  19
   7  -5   2 125418. 3981.24  23
   7  -5   3 22218.0 1576.04  19
   7  -5   3 25593.1 1662.96  23
   7  -5   4 5311.21 741.685  19
   7  -5   4 6381.41 1063.43  30
   7  -5   4 6731.81 1275.69  26
   7  -5   4 5054.54 715.227  10
   7  -5   5 22285.4 2041.27  26
   7  -5   5 24552.2 1828.65  30
   7  -5   5 28159.3 1652.25  10
   7  -5   6 2765.62 524.277  30
   7  -5   6 3610.02 666.770  26
   7  -5   7 2774.42 397.886  30
   7  -5   7 453.827 157.136  10
   7  -4  -7 405.694 169.084  14
   7  -4  -7 664.443 167.250  21
   7  -4  -6 5669.20 874.259  28
   7  -4  -6 5095.59 641.219  21
   7  -4  -5 19257.3 2070.39  28
   7  -4  -5 20051.0 1560.87  21
   7  -4  -4 1606.81 764.126  28
   7  -4  -4 1925.15 534.658  21
   7  -4  -3 29065.7 2829.65  28
   7  -4  -3 34755.5 2429.67  21
   7  -4  -2 12163.3 1651.01  28
   7  -4  -2 15034.1 1394.36  14
   7  -4  -2 13119.1 1518.84  21
   7  -4  -1 1201.95 461.441  28
   7  -4  -1 979.360 467.222  21
   7  -4   0 19937.0 1748.87  21
   7  -4   1 15992.3 1672.28  29
   7  -4   2 17731.5 1490.11  19
   7  -4   2 18507.1 2273.58  26
   7  -4   3 4128.82 703.393  19
   7  -4   3 3504.71 853.731  30
   7  -4   3 3175.20 910.233  26
   7  -4   3 4405.66 756.455  23
   7  -4   4 420.462 313.989  10
   7  -4   4 1242.01 464.481  19
   7  -4   4 836.404 354.705  23
   7  -4   5 8102.17 1257.63  26
   7  -4   5 10335.6 1164.27  23
   7  -4   5 9913.93 1188.05  30
   7  -4   5 10628.5 1101.43  10
   7  -4   6 16472.4 1340.51  30
   7  -4   6 17102.1 1122.72  11
   7  -4   7 6176.57 571.386  11
   7  -4   7 6925.04 730.076  10
   7  -3  -8 93.1591 91.0962  14
  -7   3   7 595.271 230.742  27
   7  -3  -7 145.454 121.123  21
  -7   3   6 3844.64 671.790  27
   7  -3  -6 5726.94 762.262  21
   7  -3  -5 44157.5 3271.84  28
   7  -3  -5 40677.4 2352.63  21
   7  -3  -4 21641.5 2417.19  28
   7  -3  -4 20283.0 1709.20  21
   7  -3  -3 1757.40 714.121  28
   7  -3  -3 1083.19 434.981  21
   7  -3  -2 113305. 5339.54  28
   7  -3  -2 130763. 5001.38  14
   7  -3  -2 124501. 4728.20  21
   7  -3  -1 92538.1 9156.13   3
   7  -3  -1 102053. 4065.99  14
   7  -3  -1 100202. 4064.10  21
   7  -3   0 12094.4 1385.98  30
   7  -3   0 13817.0 3133.95   3
   7  -3   0 15319.6 1399.14  14
   7  -3   1 11143.6 1223.36  19
   7  -3   1 12294.5 1474.79  30
   7  -3   1 14801.5 2944.57   3
   7  -3   2 4759.76 778.842  19
   7  -3   2 6276.79 1309.41  30
   7  -3   2 7847.54 1309.35  26
   7  -3   2 5060.19 856.450  23
   7  -3   3 291.106 231.395  19
   7  -3   3 710.406 390.161  30
   7  -3   3 857.023 478.936  26
   7  -3   3 325.462 266.937  23
   7  -3   4 37580.2 2477.57  30
   7  -3   4 40641.6 3031.20  26
   7  -3   4 13927.2 1544.04  23
   7  -3   4 12102.4 1326.46  10
   7  -3   4 14470.3 1413.00  19
   7  -3   5 25636.1 1955.32  30
   7  -3   5 26122.0 2189.21  26
   7  -3   5 28850.0 2251.94  23
   7  -3   5 30262.3 2047.38  10
   7  -3   6 33677.0 2040.50  30
   7  -3   6 31890.8 1706.13  11
   7  -3   7 5418.12 584.292  11
   7  -3   7 6428.07 790.236  10
   7  -3   8 21685.9 912.214  11
  -7   2   8 4700.38 550.933  27
  -7   2   7 4043.98 640.648  27
   7  -2  -7 2008.23 431.569  21
  -7   2   6 25537.2 1865.60  27
   7  -2  -6 35057.2 1998.48  21
   7  -2  -5 16620.4 1464.72  21
   7  -2  -4 286.195 310.715  28
   7  -2  -4 218.721 218.136  21
   7  -2  -3 27006.9 2014.89  21
   7  -2  -2 361.155 664.052   3
   7  -2  -2 68.2424 175.591  14
   7  -2  -2 411.418 197.323  21
   7  -2  -1 9547.28 2611.91   3
   7  -2  -1 8565.40 1181.06  14
   7  -2  -1 7793.18 971.299  21
   7  -2   0 449.123 259.092  19
   7  -2   0-94.5756 187.488  30
   7  -2   0 202.905 457.684   3
   7  -2   0 418.424 284.435  14
   7  -2   1 16109.1 1418.16  19
   7  -2   1 16535.3 3170.50   3
   7  -2   1 18475.4 1711.62  14
   7  -2   1 17052.5 1603.92  26
   7  -2   1 18719.2 1688.16  30
   7  -2   2 52899.9 2701.51  19
   7  -2   2 58617.2 3196.90  30
   7  -2   2 57103.9 3228.28  23
   7  -2   2 61174.0 6313.42   5
   7  -2   3 965.907 359.305  19
   7  -2   3 1010.44 423.051  30
   7  -2   3 713.563 450.059  26
   7  -2   3 675.681 378.562  23
   7  -2   4 23394.3 2202.94  23
   7  -2   4 28496.3 2272.11  30
   7  -2   4 23329.6 1902.37  10
   7  -2   5 9295.45 1385.22  18
   7  -2   5 10288.4 1222.78  30
   7  -2   5 11531.5 1545.08  23
   7  -2   5 11567.9 1314.57  10
   7  -2   6 18008.0 1268.73  11
   7  -2   6 9608.59 1203.99  10
   7  -2   7 20611.2 1648.54  24
   7  -2   7 23579.5 1604.58  10
   7  -2   8 132.689 84.5411  11
  -7   1   8 9521.29 862.231  27
  -7   1   7 3436.42 596.162  27
   7  -1  -7 3422.48 573.753  21
  -7   1   6 13109.9 1293.35  27
   7  -1  -6 13257.7 1243.40  21
   7  -1  -5 76110.5 3297.25  21
   7  -1  -4 27067.8 1880.89  21
   7  -1  -3 768.988 775.166   3
   7  -1  -3 1203.84 393.727  21
   7  -1  -2 41990.6 5394.64   3
   7  -1  -2 38848.3 2950.99  14
   7  -1  -2 41880.6 2272.23  21
   7  -1  -1 419.982 588.988   3
   7  -1  -1 1228.17 482.877  14
   7  -1  -1 1312.58 380.111  21
   7  -1   0 7344.29 962.392  30
   7  -1   0 5996.24 1910.41   3
   7  -1   0 7219.39 1133.49  14
   7  -1   1 9912.67 1036.91  19
   7  -1   1 11413.0 1260.49  30
   7  -1   1 11745.5 2610.43   3
   7  -1   1 12398.0 1548.17  14
   7  -1   1 9729.42 2428.27   5
   7  -1   2 74410.1 3155.39  19
   7  -1   2 85403.5 3551.19  15
   7  -1   2 73167.7 3913.54  23
   7  -1   2 91916.3 3923.53  30
   7  -1   2 69360.2 6664.76   5
   7  -1   3 7213.15 1060.32  30
   7  -1   3 6247.29 917.304  15
   7  -1   3 6425.22 1159.65  23
   7  -1   3 6104.20 950.165  10
   7  -1   4 63731.0 3255.57  30
   7  -1   4 63926.4 3977.47  23
   7  -1   4 59570.7 3186.50  10
   7  -1   5 75536.3 4679.12  18
   7  -1   5 86807.7 4782.49  23
   7  -1   5 78956.5 3751.51  10
   7  -1   6 35387.0 2433.44  18
   7  -1   6 43042.9 2546.50  10
   7  -1   7 1591.48 493.903  24
   7  -1   7 1023.87 277.173  11
   7  -1   7 1706.77 455.738  10
   7   0  -9 7355.28 745.612  14
   7   0  -8 6958.76 1129.80  14
  -7   0   8 4432.36 601.693  27
   7   0  -7 4608.94 918.899  15
  -7   0   7 3781.17 631.976  27
  -7   0   6 10693.4 1154.75  27
   7   0  -6 11561.0 1175.09  21
   7   0  -5 2034.78 727.273  15
   7   0  -5 2122.14 547.652  21
   7   0  -4 2722.54 753.910  15
   7   0  -4 2674.92 588.255  21
   7   0  -3 5248.77 953.808  15
   7   0  -3 5427.87 1842.78   3
   7   0  -3 4797.71 1159.29  14
   7   0  -3 5814.46 841.484  21
   7   0  -2 48033.5 5569.40   3
   7   0  -2 44234.0 2608.28  15
   7   0  -2 41255.3 3132.91  14
   7   0  -2 45813.1 2366.77  21
   7   0  -1 10301.7 1181.02  15
   7   0  -1 12531.0 2810.66   3
   7   0  -1 10302.4 1467.72  14
   7   0  -1 11712.2 1073.63  21
   7   0   0 55264.4 5911.44   3
   7   0   0 55071.2 2832.57  15
   7   0   0 59143.1 2857.20  30
   7   0   0 56240.3 3570.78  14
   7   0   1 39558.8 2398.94  15
   7   0   1 43439.6 3269.18  14
   7   0   1 35238.8 2620.65  23
   7   0   1 45256.8 2569.26  30
   7   0   2 20829.3 1766.94  15
   7   0   2 23114.3 1856.31  30
   7   0   2 19742.4 2011.12  23
   7   0   2 19690.4 1668.65  10
   7   0   3 22039.8 1891.23  15
   7   0   3 24064.6 2378.09  23
   7   0   3 20761.5 1767.49  10
   7   0   4 30285.7 3319.83  18
   7   0   4 30687.7 2285.82  15
   7   0   4 32761.5 2940.39  23
   7   0   4 28659.4 2152.09  10
   7   0   5-146.787 349.561  18
   7   0   5 29.3497 325.445  23
   7   0   5 324.524 274.133  10
   7   0   6 7386.27 1185.03  18
   7   0   6 7044.92 979.854  10
   7   0   7-121.354 102.839  16
   7   0   7 2817.72 623.275  24
  -7  -1   9 10381.9 712.392  27
   7   1  -8 25903.9 1945.10  14
  -7  -1   8 19079.5 1247.25  27
   7   1  -7 15322.3 1834.19  14
  -7  -1   7 12073.4 1116.58  27
   7   1  -6 7828.34 1458.68  14
  -7  -1   6 7538.65 943.711  27
   7   1  -5 7782.45 1725.34  15
   7   1  -5 5703.02 1290.27  14
   7   1  -5 5724.68 864.606  21
   7   1  -4 2020.86 734.934  15
   7   1  -4 1981.10 747.022  14
   7   1  -4 2402.89 558.417  21
   7   1  -3 7102.74 1237.71  15
   7   1  -3 7570.61 2210.16   3
   7   1  -3 6340.84 1257.33  14
   7   1  -3 7472.15 958.996  21
   7   1  -2 13307.9 1555.13  15
   7   1  -2 16162.4 3260.38   3
   7   1  -2 12944.1 1728.25  14
   7   1  -2 15813.3 1341.42  21
   7   1  -1 59068.9 3272.61  15
   7   1  -1 64269.9 3934.32  14
   7   1   0 972.479 397.466  15
   7   1   0 1435.77 553.671  14
   7   1   0 999.658 459.616  23
   7   1   1 52149.9 3031.02  15
   7   1   1 47508.3 3099.04  23
   7   1   1 56618.7 2747.29  10
   7   1   2 137008. 5436.81  15
   7   1   2 135237. 5868.40  23
   7   1   2 146964. 4997.73  10
   7   1   3 16036.8 1739.98  15
   7   1   3 16904.9 2070.57  23
   7   1   3 18169.1 1628.73  10
   7   1   4 10634.5 2143.58  18
   7   1   4 9325.24 1336.31  15
   7   1   4 12496.5 1856.50  23
   7   1   4 9252.74 1191.30  10
   7   1   5 15689.9 2334.80  18
   7   1   5 9145.92 1142.12  10
   7   1   6 30038.2 2573.53  24
   7   1   7 1042.97 262.971  16
   7   1   7 1412.73 387.728  24
   7   2  -9 1852.13 485.854  15
   7   2  -8 369.467 224.017  14
  -7  -2   8 127.615 142.901  27
   7   2  -7 4850.82 894.872  14
  -7  -2   7 5202.87 697.285  27
   7   2  -6 14526.7 1721.29  14
  -7  -2   6 16765.5 1380.79  27
   7   2  -5 71570.9 4273.37  14
  -7  -2   5 74429.6 3298.97  27
   7   2  -4 304.348 373.420  15
   7   2  -4 801.465 360.009  14
   7   2  -3 64342.0 4266.15  15
   7   2  -3 60050.3 3844.28  14
   7   2  -2 85171.2 4536.05  15
   7   2  -2 84481.2 4595.11  14
   7   2  -2 79231.6 3720.16  23
   7   2  -1 2424.51 718.209  15
   7   2  -1 2867.72 864.062  14
   7   2  -1 2778.62 659.486  23
   7   2   0 43524.3 2968.47  15
   7   2   0 42266.5 2777.67  23
   7   2   1 5057.01 1028.56  15
   7   2   1 4415.37 964.436  23
  -7  -2  -1 5350.90 977.648  20
   7   2   2 413.257 344.558  23
   7   2   2 1033.93 480.914  15
   7   2   3 8266.81 1822.12  18
   7   2   3 7481.09 1274.37  15
   7   2   3 7940.26 1411.82  23
   7   2   3 8093.53 1050.92  10
   7   2   4 4942.24 1525.86  18
   7   2   4 3084.80 835.659  15
   7   2   4 3408.91 683.543  10
   7   2   5 8498.35 1612.50  18
   7   2   6 10702.5 1332.77  24
   7   3  -9 9458.94 1100.42  15
   7   3  -8 2314.29 871.763  15
   7   3  -7 1681.83 466.761  14
  -7  -3   7 1491.30 357.007  27
   7   3  -6 1034.64 828.492  15
   7   3  -6 103.831 196.506  14
  -7  -3   6 1204.29 360.801  27
   7   3  -5 25267.7 3563.22  15
   7   3  -5 16473.2 1809.31  14
   7   3  -4 18485.3 2547.69  15
   7   3  -4 16418.3 1848.24  14
   7   3  -3 8686.35 1590.75  15
   7   3  -3 8569.99 1361.63  14
   7   3  -2 77890.7 4587.26  15
   7   3  -2 76098.6 4377.42  14
   7   3  -1 103426. 5182.92  15
   7   3   0-126.359 227.182  15
   7   3   0-13.0752 176.893  23
  -7  -3   0 177.727 254.426  20
   7   3   1 15316.9 1871.85  15
   7   3   1 16801.7 1855.54  23
  -7  -3  -1 14826.9 1607.95  20
   7   3   2 24334.8 3009.56  18
   7   3   2 25030.7 2430.80  15
   7   3   2 20889.2 2186.69  23
   7   3   3 7786.69 1766.79  18
   7   3   3 8001.76 1352.19  15
   7   3   4 363.844 378.752  18
   7   3   5 12692.4 1390.56  24
   7   3   6 5698.19 704.676  16
   7   3   6 3665.66 518.810  24
   7   4  -9 13463.4 1085.56  15
   7   4  -8 11619.2 1472.78  15
   7   4  -7 12316.4 1856.39  15
   7   4  -6 67659.1 4689.46  15
  -7  -4   6 45523.0 2648.32  20
   7   4  -5 65312.7 4830.66  15
  -7  -4   5 58109.5 3292.82  20
   7   4  -4 4710.74 1181.39  15
   7   4  -4 3941.88 869.252  14
  -7  -4   4 3459.86 860.653  20
   7   4  -3 22975.2 2529.73  15
   7   4  -3 27217.3 2462.58  14
  -7  -4   3 24062.4 2300.87  20
   7   4  -2 10366.7 1627.74  15
  -7  -4   2 9016.78 1347.31  20
   7   4  -1 1922.64 732.361  15
  -7  -4   1 2156.70 639.459  20
   7   4   0 94.1514 230.544  15
  -7  -4   0 309.620 287.727  20
   7   4   1 13682.5 2124.06  18
   7   4   1 14627.0 1846.86  15
  -7  -4  -1 15617.2 1480.66  20
   7   4   2 4041.80 1174.97  18
   7   4   2 3682.68 933.747  15
   7   4   3 3619.70 1015.24  18
   7   4   3 3801.52 904.214  15
   7   4   3 3508.07 784.446  24
  -7  -4  -4 18301.3 979.962   8
   7   4   4 19266.6 1543.60  24
   7   4   5 5318.63 738.491  16
  -7  -5   8 6970.29 530.770  17
   7   5  -8 11992.1 1124.48  15
  -7  -5   7 1112.19 263.464  17
   7   5  -7 1147.33 460.460  15
  -7  -5   6 4514.58 602.089  17
   7   5  -6 4649.73 1003.62  15
  -7  -5   6 4043.47 679.586  20
  -7  -5   5 75091.7 2860.07  17
   7   5  -5 73146.7 4257.78  15
  -7  -5   5 68589.8 3398.05  20
   7   5  -4 29606.2 2668.38  15
  -7  -5   4 30560.3 2307.73  20
   7   5  -3 4478.34 1029.14  15
  -7  -5   3 5090.45 971.949  20
   7   5  -2 23741.4 2308.65  15
  -7  -5   2 26004.9 2134.48  20
   7   5  -1 15134.1 1788.55  15
  -7  -5   1 19204.9 1735.80  20
   7   5   0 512.797 396.669  18
   7   5   0 533.109 366.338  15
  -7  -5   0 821.344 321.232  20
   7   5   1 4114.05 1035.83  18
  -7  -5  -1 3234.36 572.237   9
   7   5   1 3675.99 860.923  15
   7   5   2 12218.5 1604.66  18
   7   5   2 14252.3 1634.21  15
  -7  -5  -3 2805.19 434.916   8
   7   5   4 3170.88 502.970  16
  -7  -6   7 4316.35 403.161  17
   7   6  -7 5261.62 718.298  15
  -7  -6   6 5789.35 554.696  17
  -7  -6   6 5785.28 652.442   9
   7   6  -6 5756.64 883.213  15
  -7  -6   5 6271.01 624.779  17
   7   6  -5 6330.67 1007.62  15
  -7  -6   5 6370.38 813.648  20
   7   6  -4 1206.68 464.249  15
  -7  -6   4 1184.41 410.386  20
   7   6  -3 5234.41 947.280  15
  -7  -6   3 6385.35 934.501  20
   7   6  -2 11166.5 1373.78  15
  -7  -6   2 15147.2 1372.85  20
  -7  -6   1 385.959 248.151   9
   7   6  -1 172.647 215.596  15
  -7  -6   0 24479.7 1553.48   9
   7   6   0 21661.6 1847.64  15
  -7  -6  -1 49205.9 1981.84   9
   7   6   1 59382.1 2965.33  15
  -7  -6  -2 3734.30 486.117   8
  -7  -7   5 17252.4 1054.48   9
   7   7  -5 13856.8 1114.50  15
  -7  -7   4 455.211 207.630   9
   7   7  -4 501.000 247.293  15
  -7  -7   3 1990.42 428.526   9
   7   7  -3 1382.99 397.529  15
  -7  -7   2 6014.25 710.380   9
   7   7  -2 5191.66 731.589  15
  -7  -7   1 13013.4 986.334   9
   7   7  -1 11388.4 1031.16  15
  -7  -7   0 1249.40 260.381   9
  -7  -7  -1 10507.9 687.695   8
  -7  -8   3 33201.6 1305.24   9
   8  -8  -1 5873.46 439.085  19
   8  -8   0 35194.3 1287.04  19
   8  -8   1 6496.00 512.811  19
   8  -8   2 6836.41 506.823  19
   8  -8   2 4198.63 408.588  30
   8  -8   3 40615.9 1502.40  30
   8  -8   3 50891.1 1481.42  19
   8  -8   4 5322.74 425.893  30
   8  -7  -3 831.442 178.647  19
   8  -7  -3 827.634 178.570  21
   8  -7  -2 8716.63 690.109  21
   8  -7  -1 7434.00 679.899  19
   8  -7  -1 6579.55 641.073  21
   8  -7   0 1954.14 360.672  19
   8  -7   0 81.2887 69.3800  21
   8  -7   1 4931.91 554.178  19
   8  -7   1 3179.21 503.059  30
   8  -7   2 3132.30 433.469  19
   8  -7   2 2061.16 459.580  30
   8  -7   3 7649.36 634.440  19
   8  -7   3 7261.08 804.923  30
   8  -7   3 8160.08 616.464  10
   8  -7   4 12658.5 938.533  30
   8  -7   4 9279.06 720.235  26
   8  -7   5-11.0654 73.8702  30
   8  -6  -4 19700.3 1079.30  21
   8  -6  -3 12139.2 1017.11  21
   8  -6  -2 1419.24 401.118  21
   8  -6  -1 35481.7 2082.53  21
   8  -6   0 59156.6 2533.86  19
   8  -6   0 64453.0 2688.97  21
   8  -6   1 6062.50 717.405  19
   8  -6   1 6758.28 697.093  23
   8  -6   2 3985.81 622.872  19
   8  -6   2 5796.97 975.028  30
   8  -6   3 10518.4 862.186  19
   8  -6   3 9397.09 1149.72  30
   8  -6   3 11631.3 884.817  10
   8  -6   4 433.570 183.959  10
   8  -6   4 528.273 187.648  19
   8  -6   4 600.262 292.596  30
   8  -6   4 725.587 309.480  26
   8  -6   5 5317.16 620.096  30
   8  -6   5 5068.16 649.152  26
   8  -6   5 6508.45 541.471  10
   8  -6   6 8462.90 602.445  30
   8  -5  -5 9843.13 777.186  21
   8  -5  -4 4773.75 695.344  21
   8  -5  -3 823.293 360.677  21
   8  -5  -2 8408.51 1156.08  21
   8  -5  -1 4294.69 841.773  21
   8  -5   0 9609.25 1062.52  19
   8  -5   1 573.800 277.017  19
   8  -5   1 586.953 401.142  30
   8  -5   2 2128.21 470.022  19
   8  -5   2 1474.47 591.197  30
   8  -5   2 2235.19 458.851  23
   8  -5   3 9018.04 885.712  19
   8  -5   3 9443.67 901.840  23
   8  -5   4 759.950 256.341  10
   8  -5   4 610.354 243.193  19
   8  -5   4 300.439 248.152  30
   8  -5   4 411.370 217.158  26
   8  -5   5 13675.3 1160.17  30
   8  -5   5 15775.7 1033.52  10
   8  -5   6 1069.71 228.105  10
   8  -4  -6 3745.50 457.785  14
   8  -4  -6 5965.75 568.495  21
   8  -4  -5 751.173 271.065  14
   8  -4  -5 1054.35 332.561  21
   8  -4  -4 58770.9 2715.41  14
   8  -4  -4 57991.3 2909.27  21
   8  -4  -3 36010.2 2112.34  14
   8  -4  -3 34664.4 2418.78  21
   8  -4  -2 3036.33 586.306  14
   8  -4  -2 3236.82 788.689  21
   8  -4  -1 6058.75 994.645  21
   8  -4   0 2765.79 615.198  19
   8  -4   1 1303.44 438.093  19
   8  -4   1 886.825 453.794  30
   8  -4   2 9147.25 1024.40  19
   8  -4   2 10202.7 1488.72  30
   8  -4   2 6424.59 1139.26  26
   8  -4   2 8687.56 1013.49  23
   8  -4   3 35636.1 1965.89  19
   8  -4   3 30942.5 2419.74  30
   8  -4   3 37932.7 2125.23  23
   8  -4   4 29749.7 2146.75  30
   8  -4   4 34466.3 1962.77  23
   8  -4   4 32547.3 1843.90  10
   8  -4   5 9037.04 1003.89  30
   8  -4   5 11698.4 1009.29  23
   8  -4   5 11750.3 1006.11  10
   8  -4   6 42751.8 1811.54  10
   8  -3  -7 1464.99 318.998  14
   8  -3  -6 255.179 223.984  14
   8  -3  -6 190.054 152.034  21
   8  -3  -5 6111.58 1062.62  14
   8  -3  -5 4398.05 712.239  21
   8  -3  -4 832.839 423.921  14
   8  -3  -4 722.434 346.415  21
   8  -3  -3 3362.06 762.647  14
   8  -3  -3 2256.04 601.703  21
   8  -3  -2 1655.41 529.201  14
   8  -3  -2 1838.68 573.822  21
   8  -3  -1 20305.5 1672.19  14
   8  -3  -1 21581.8 1758.79  21
   8  -3   0 22499.6 1833.96  19
   8  -3   0 33370.8 2089.87  14
   8  -3   1 5552.59 855.326  19
   8  -3   1 5774.51 1030.58  30
   8  -3   2 15169.5 1369.70  19
   8  -3   2 18952.2 1871.25  30
   8  -3   2 16091.7 1529.62  23
   8  -3   3 4078.88 831.062  30
   8  -3   3 4387.12 799.923  23
   8  -3   3 4176.65 725.153  10
   8  -3   3 4097.06 683.776  19
   8  -3   4 5554.04 1003.06  30
   8  -3   4 5237.96 860.461  23
   8  -3   4 5052.52 773.000  10
   8  -3   5 18253.1 1475.81  30
   8  -3   5 20030.1 1579.81  23
   8  -3   5 21451.2 1513.60  10
   8  -3   6 1057.23 306.583  10
   8  -3   7 1878.06 296.789  10
   8  -2  -7 23382.9 1890.89  14
   8  -2  -6 7223.93 1378.84  14
   8  -2  -6 5205.84 702.828  21
   8  -2  -5-165.296 382.625  14
   8  -2  -5 480.792 284.154  21
   8  -2  -4 16185.5 2212.22  14
   8  -2  -4 15903.8 1502.75  21
   8  -2  -3 532.091 371.783  14
   8  -2  -3 148.399 208.341  21
   8  -2  -2 2767.00 798.613  14
   8  -2  -2 10551.5 1172.26  21
   8  -2  -1 16166.3 1681.42  14
   8  -2  -1 19095.2 1536.32  21
   8  -2   0 64180.6 3041.00  19
   8  -2   0 75283.1 3617.47  14
   8  -2   1 3416.04 648.423  19
   8  -2   1 3512.91 731.441  30
   8  -2   1 3623.72 764.992  14
   8  -2   1 3495.12 761.593  23
   8  -2   2 49219.1 2560.97  19
   8  -2   2 56021.9 3202.13  23
   8  -2   3 77328.6 3727.13  30
   8  -2   3 81764.1 3980.35  23
   8  -2   3 78033.1 3496.78  10
   8  -2   4 53952.7 2856.96  30
   8  -2   4 48705.0 2985.29  23
   8  -2   4 45045.4 2529.21  10
   8  -2   5 4209.29 799.729  23
   8  -2   5 3668.75 688.872  10
   8  -2   6 9175.48 931.946  10
   8  -1  -8 1511.21 378.270  14
   8  -1  -7 1777.42 671.570  14
   8  -1  -6 74.5880 558.280  14
   8  -1  -6 476.277 241.611  21
   8  -1  -5 6492.48 1655.33  14
   8  -1  -5 4769.87 742.324  21
   8  -1  -4 22915.2 2893.11  14
   8  -1  -4 23171.2 1786.78  21
   8  -1  -3 2857.50 959.203  14
   8  -1  -3 3046.28 624.342  21
   8  -1  -2 33223.4 2836.22  14
   8  -1  -2 33823.8 2081.87  21
   8  -1  -1 33330.6 2674.45  14
   8  -1   0 21342.9 2074.01  14
   8  -1   1 25891.7 1942.54  30
   8  -1   1 25913.3 2241.41  23
   8  -1   2 31536.7 2527.36  23
   8  -1   2 27254.7 2056.21  10
   8  -1   3 580.494 286.073  10
   8  -1   3 562.001 266.832  15
   8  -1   3 1402.93 555.087  23
   8  -1   4 3997.59 954.664  18
   8  -1   4 5188.93 1056.61  23
   8  -1   4 4904.68 839.556  10
   8  -1   5 907.697 349.944  10
   8  -1   5 741.834 348.325  18
   8  -1   5 888.198 445.424  23
   8  -1   6 10027.3 981.544  10
   8   0  -8 2120.18 485.711  14
   8   0  -7 1206.27 537.000  14
   8   0  -6 418.294 505.232  14
   8   0  -5 2934.57 731.919  15
   8   0  -5 3338.60 1126.31  14
   8   0  -5 1898.16 494.071  21
   8   0  -4 18792.8 1838.37  15
   8   0  -4 13501.8 2182.24  14
   8   0  -4 18186.3 1522.54  21
   8   0  -3 41322.2 3597.87  14
   8   0  -3 46070.6 2473.51  21
   8   0  -2 532.684 318.542  15
   8   0  -2 3157.22 902.556  14
   8   0  -1 72172.9 3292.30  15
   8   0  -1 62996.9 4055.34  14
   8   0   0 125422. 4425.47  15
   8   0   0 128709. 5867.54  14
   8   0   1 3351.97 681.236  10
   8   0   1 3562.79 669.311  15
   8   0   1 3673.72 866.658  23
   8   0   2 8763.82 1079.15  15
   8   0   2 10641.7 1519.07  23
   8   0   2 9641.03 1186.67  10
   8   0   3 7541.95 991.253  15
   8   0   3 7820.66 1349.21  23
   8   0   3 4966.61 826.774  10
   8   0   4 10504.6 1755.71  18
   8   0   4 10362.2 1548.43  23
   8   0   4 7948.27 1049.75  10
   8   0   5 2832.66 748.137  18
   8   0   5 2738.87 585.036  10
   8   0   6 13215.0 1326.09  24
   8   0   6 191.140 101.764  11
   8   1  -8 9286.69 896.285  14
   8   1  -7 38392.2 2740.45  15
   8   1  -7 24442.0 2081.25  14
   8   1  -6 762.777 535.120  15
   8   1  -6 412.702 368.815  14
   8   1  -5 54961.3 4238.68  15
   8   1  -5 37392.5 3285.50  14
   8   1  -4 46555.3 3578.68  15
   8   1  -4 32680.1 3115.99  14
   8   1  -3 1057.18 492.632  15
   8   1  -3 774.219 584.302  14
   8   1  -2 25003.7 2175.59  15
   8   1  -2 21714.4 2433.70  14
   8   1  -1 1090.77 431.072  15
   8   1  -1 799.630 499.319  14
   8   1  -1 317.756 277.474  23
   8   1   0 15718.4 1603.87  15
   8   1   0 8297.16 1268.67  23
   8   1   1 4704.49 834.268  15
   8   1   1 3782.80 868.801  23
   8   1   1 5131.51 790.072  10
   8   1   2 7119.18 1045.11  15
   8   1   2 7427.64 1349.15  23
   8   1   2 8381.84 1041.02  10
   8   1   3 13215.8 2179.07  18
   8   1   3 9844.10 1227.45  15
   8   1   3 10435.1 1583.53  23
   8   1   3 11149.1 1201.94  10
   8   1   4 1267.29 695.458  18
   8   1   4 1096.58 523.633  23
   8   1   4 891.590 355.475  10
   8   1   5 19982.0 1939.12  18
   8   1   6 16791.7 1301.37  24
   8   2  -8 405.553 264.709  15
   8   2  -7 17607.3 2576.92  15
   8   2  -7 5908.73 844.987  14
   8   2  -6 11064.5 2484.01  15
   8   2  -6 4237.03 858.385  14
   8   2  -5 14482.2 2603.74  15
   8   2  -5 8261.96 1319.95  14
   8   2  -4 71394.3 5104.69  15
   8   2  -4 46133.9 3391.64  14
   8   2  -3 58411.7 4062.72  15
   8   2  -3 45376.8 3439.41  14
   8   2  -2-4.47285 180.992  15
   8   2  -2 458.297 396.843  14
   8   2  -2 278.562 235.810  23
   8   2  -1 14085.6 1666.90  15
   8   2  -1 18152.6 2281.08  14
   8   2  -1 14631.5 1571.77  23
   8   2   0 12497.1 1518.20  15
   8   2   0 11933.3 1493.15  23
  -8  -2   0 12809.3 1594.90  20
   8   2   1 4125.08 847.805  15
   8   2   1 4300.46 941.172  23
  -8  -2  -1 3435.73 743.876  20
   8   2   2 2684.57 691.149  15
   8   2   2 1934.40 667.539  23
   8   2   3 31460.6 3480.99  18
   8   2   3 24856.2 2079.57  15
   8   2   3 26329.0 2411.78  23
   8   2   4 4834.06 1201.71  18
   8   2   5 1009.52 377.870  24
   8   3  -8 27195.1 1985.29  15
   8   3  -7 40108.1 3753.81  15
   8   3  -6 3845.41 726.683  14
  -8  -3   6 3399.36 634.511  20
   8   3  -5 12069.6 1437.23  14
  -8  -3   5 11774.0 1361.94  20
   8   3  -4 5639.57 1452.49  15
   8   3  -4 3554.34 862.196  14
   8   3  -3 757.554 540.737  15
   8   3  -3 941.233 509.346  14
   8   3  -2 381.868 365.840  15
  -8  -3   2 515.340 503.002  20
   8   3  -1 25477.5 2393.88  15
  -8  -3   1 28125.8 2383.61  20
   8   3   0 12582.2 1629.29  15
  -8  -3   0 7617.48 1165.65  20
   8   3   1 10008.9 1402.53  15
   8   3   1 9538.76 1360.83  23
  -8  -3  -1 9065.21 1082.39  20
   8   3   2 59264.6 4652.61  18
   8   3   2 54922.2 3342.66  15
   8   3   3 15690.2 2164.12  18
   8   3   3 13671.7 1546.72  15
   8   3   4 4576.89 913.679  18
   8   3   4 2791.25 584.618  24
   8   4  -7 46681.9 3074.04  15
   8   4  -6 12005.0 1827.57  15
  -8  -4   6 6243.42 762.644  20
   8   4  -5 8186.27 1575.60  15
  -8  -4   5 5978.74 889.614  20
   8   4  -4 13255.6 1984.68  15
  -8  -4   4 11346.3 1388.88  20
   8   4  -3 5872.93 1249.72  15
  -8  -4   3 5562.21 999.442  20
   8   4  -2 924.872 490.546  15
  -8  -4   2 2116.39 611.794  20
   8   4  -1 7914.23 1314.83  15
  -8  -4   1 8992.74 1211.43  20
   8   4   0 62474.1 4333.53  18
   8   4   0 81437.6 4159.11  15
   8   4   1 2981.05 954.738  18
   8   4   1 2451.09 696.734  15
   8   4   2 13526.2 1826.16  18
   8   4   2 13521.5 1556.60  15
   8   4   3 47719.6 2751.91  18
  -8  -4  -3 28211.0 1184.25   8
   8   5  -7 1539.37 375.320  15
   8   5  -6 1447.44 476.117  15
   8   5  -5 8021.84 1203.35  15
  -8  -5   5 7454.72 840.999  20
   8   5  -4 17931.6 1870.85  15
  -8  -5   4 15483.7 1374.04  20
   8   5  -3 485.331 332.342  15
  -8  -5   3 705.682 340.572  20
   8   5  -2 29499.4 2399.23  15
  -8  -5   2 37511.2 2239.07  20
   8   5  -1 73326.1 3821.81  15
  -8  -5   1 82423.3 3288.80  20
   8   5   0 4424.57 943.910  18
  -8  -5   0 2786.52 503.669   9
   8   5   0 4556.79 894.529  15
   8   5   1 3253.72 718.632  18
   8   5   1 4948.44 869.767  15
  -8  -5  -2 13037.9 846.501   8
  -8  -6   5 626.843 190.574   9
   8   6  -5 712.995 277.185  15
  -8  -6   4 6483.81 713.003   9
   8   6  -4 5657.84 803.247  15
  -8  -6   3 12519.9 1047.62   9
   8   6  -3 10409.9 1130.58  15
  -8  -6   2 811.282 286.764   9
   8   6  -2 461.984 272.910  15
  -8  -6   1 14586.1 1014.75   9
   8   6  -1 13747.9 1272.31  15
   8   6   0 55702.1 2528.08  15
   9  -7   0 473.708 133.572  19
   9  -7   1 2590.64 301.680  19
   9  -7   1 2102.56 256.770  10
   9  -7   2 392.372 123.378  19
   9  -6  -2 2643.98 353.426  19
   9  -6  -2 1939.95 275.499  23
   9  -6  -2 2169.67 294.812  21
   9  -6  -1-19.3462 91.8183  19
   9  -6  -1 446.433 146.980  23
   9  -6   0 4762.67 547.159  19
   9  -6   0 47.9729 54.6498  23
   9  -6   1 6352.37 616.117  19
   9  -6   2 32.4317 80.2266  10
   9  -6   2 317.361 144.875  19
   9  -6   2 282.838 156.344  30
   9  -6   3 13669.7 972.198  30
   9  -6   3 18173.1 902.862  10
   9  -6   4 192.845 113.022  30
   9  -5  -4 565.206 175.550  21
   9  -5  -3 680.673 204.538  19
   9  -5  -3 1334.86 319.634  21
   9  -5  -2 181.109 161.812  19
   9  -5  -2 68.6837 131.136  21
   9  -5  -1 709.094 268.233  19
   9  -5   0 6848.80 795.266  19
   9  -5   0 8148.06 805.880  23
   9  -5   1 23352.8 1428.43  19
   9  -5   1 25598.7 1424.42  23
   9  -5   2 13080.9 972.895  19
   9  -5   2 14152.6 975.995  23
   9  -5   2 12710.3 955.035  10
   9  -5   3 6204.98 809.630  30
   9  -5   3 9680.72 756.617  10
   9  -5   4 25420.8 1488.64  30
   9  -5   4 35749.8 1410.34  10
   9  -4  -5 184.628 124.486  21
   9  -4  -4 106.757 86.5109  14
   9  -4  -4 5864.08 722.192  21
   9  -4  -3 13397.1 1269.94  21
   9  -4  -2 4264.49 740.895  19
   9  -4  -2 11729.6 1217.34  21
   9  -4  -1 3120.56 625.442  19
   9  -4   0 5279.40 772.414  19
   9  -4   0 8033.05 932.491  23
   9  -4   1 1583.34 423.120  19
   9  -4   1 1196.64 427.896  30
   9  -4   1 1553.24 407.327  23
   9  -4   2 4066.18 597.651  19
   9  -4   2 2662.75 648.682  30
   9  -4   2 4567.24 646.761  23
   9  -4   2 4648.02 656.950  10
   9  -4   3 14579.9 1105.41  23
   9  -4   3 14185.8 1073.59  10
   9  -4   4 2633.41 414.485  23
   9  -4   4 2703.55 428.783  10
   9  -4   5 3067.94 408.667  10
   9  -3  -5 954.550 306.782  14
   9  -3  -5 895.715 288.421  21
   9  -3  -4 642.533 316.237  14
   9  -3  -4 1073.54 371.680  21
   9  -3  -3 12455.7 1284.67  14
   9  -3  -3 12622.4 1319.72  21
   9  -3  -2 27500.4 1893.20  14
   9  -3  -2 25658.5 1885.50  21
   9  -3  -1 1965.72 499.248  14
   9  -3   0 25299.3 1761.30  19
   9  -3   0 35327.3 2262.28  23
   9  -3   1 45724.7 2301.76  19
   9  -3   1 38455.1 2476.73  30
   9  -3   2 21996.0 1639.30  23
   9  -3   2 21370.4 1550.73  10
   9  -3   3 4369.66 694.953  23
   9  -3   3 4036.89 634.345  10
   9  -3   4 7721.49 838.191  23
   9  -3   4 7232.38 778.009  10
   9  -3   5 1358.96 305.713  10
   9  -2  -6 10579.3 1167.12  14
   9  -2  -5 441.305 364.395  14
   9  -2  -4 18843.6 2060.94  14
   9  -2  -4 19767.5 1572.97  21
   9  -2  -3 19939.0 2056.73  14
   9  -2  -3 19663.7 1619.94  21
   9  -2  -2 3299.27 795.026  14
   9  -2  -2 3641.23 697.975  21
   9  -2  -1 18713.5 1754.62  14
   9  -2   0 5558.29 979.425  23
   9  -2   1 1564.12 521.621  23
   9  -2   2 794.443 347.062  10
   9  -2   2 726.416 329.877  23
   9  -2   3 518.760 266.089  10
   9  -2   3 617.192 322.473  23
   9  -2   4 11539.5 1165.65  23
   9  -2   4 11307.6 1027.54  10
   9  -2   5 1260.29 313.884  10
   9  -1  -6 12822.9 1747.80  14
   9  -1  -5 23894.4 2818.11  14
   9  -1  -4 2128.56 871.146  14
   9  -1  -3 41684.3 3498.90  14
   9  -1  -2 45529.2 3365.48  14
   9  -1  -1 897.425 455.812  14
   9  -1  -1 847.992 444.501  23
   9  -1   0 4284.55 911.449  23
   9  -1   1 3228.49 638.533  10
   9  -1   1 3182.94 761.163  23
   9  -1   2 4622.40 929.923  23
   9  -1   2 3859.50 688.583  10
   9  -1   3 2128.38 510.583  10
   9  -1   3 2248.52 645.703  18
   9  -1   3 3089.21 728.964  23
   9  -1   4 17790.8 1488.66  18
   9  -1   4 20828.8 1462.61  10
   9  -1   5 15678.1 1071.48  10
   9   0  -6 34163.1 2998.88  14
   9   0  -5 42.7403 354.977  14
   9   0  -4 12022.5 2131.79  14
   9   0  -3 426.180 451.241  14
   9   0  -2 1080.59 361.655  15
   9   0  -2 1222.95 629.729  14
   9   0  -2 589.861 356.870  23
   9   0  -1 3253.19 608.255  15
   9   0  -1 2620.06 868.878  14
   9   0  -1 1796.07 634.894  23
   9   0   0 9123.38 1333.72  23
   9   0   0 11291.6 1124.75  10
   9   0   1 11687.3 1119.97  15
   9   0   1 9568.89 1383.74  23
   9   0   1 10031.4 1074.06  10
   9   0   2 4190.47 650.808  15
   9   0   2 4563.42 948.265  23
   9   0   2 3940.21 676.164  10
   9   0   3 24064.2 2359.23  18
   9   0   3 26269.1 2262.27  23
   9   0   3 19922.5 1481.15  10
   9   0   4 22578.8 1856.11  18
   9   0   4 18754.2 1300.23  10
   9   0   5 2771.94 557.652  24
   9   1  -6 40623.2 2861.69  14
   9   1  -5 23946.1 2115.07  15
   9   1  -5 19906.0 2314.96  14
   9   1  -4 2537.22 720.205  15
   9   1  -4 2405.52 906.805  14
   9   1  -3 14363.9 1641.46  15
   9   1  -3 12014.9 1894.20  14
   9   1  -2 2135.79 590.059  15
   9   1  -2 2110.46 827.297  14
   9   1  -2 1290.45 492.274  23
   9   1  -1 1962.44 539.271  15
   9   1  -1 1266.16 484.065  23
   9   1   0 4941.72 823.692  15
   9   1   0 4833.22 954.836  23
  -9  -1   0 5320.11 995.409  20
   9   1   1 28035.7 1933.00  15
   9   1   1 27007.1 2324.41  23
   9   1   2 5493.25 808.633  15
   9   1   2 5120.23 1018.99  23
   9   1   3 6638.59 1350.11  18
   9   1   3 5364.27 1016.77  23
   9   1   4 37319.6 2453.89  18
   9   2  -6 6940.21 1331.62  15
   9   2  -6 4651.63 780.420  14
  -9  -2   6 5119.75 627.465  20
   9   2  -5 2.37409 322.954  15
   9   2  -5 770.540 417.254  14
  -9  -2   5 180.256 207.196  20
   9   2  -4 3499.19 1217.34  15
   9   2  -4 4099.08 1024.30  14
   9   2  -3 32087.4 2907.59  15
   9   2  -3 26893.7 2717.51  14
   9   2  -2 1333.68 607.955  15
  -9  -2   2 1826.09 599.256  20
   9   2  -1 12901.0 1544.74  15
   9   2  -1 11088.1 1296.62  23
  -9  -2   1 13600.6 1607.32  20
   9   2   0 54197.6 3091.61  15
   9   2   0 52521.7 3085.12  23
  -9  -2   0 52992.7 2980.29  20
   9   2   1 10662.3 1275.06  15
   9   2   1 10346.3 1368.66  23
   9   2   2 8932.72 1753.37  18
   9   2   2 7383.96 994.389  15
   9   2   3 15514.6 1984.29  18
   9   3  -6 17502.4 2231.94  15
  -9  -3   6 4791.51 523.601  20
   9   3  -5 2787.78 1092.83  15
  -9  -3   5 557.190 252.844  20
   9   3  -4 223.849 435.053  15
  -9  -3   4 564.445 293.853  20
   9   3  -3 9289.02 1670.97  15
  -9  -3   3 8164.43 1099.71  20
   9   3  -2 22528.9 2337.87  15
  -9  -3   2 19809.2 1803.97  20
   9   3  -1 826.846 450.211  15
  -9  -3   1 884.289 400.269  20
   9   3   0 17931.2 2283.03  18
   9   3   0 15666.4 1693.32  15
  -9  -3   0 14102.9 1264.76  20
   9   3   1 69965.6 4732.87  18
   9   3   1 60322.1 3271.13  15
   9   3   2 11366.0 1701.39  18
   9   3   3 636.397 300.693  18
   9   4  -5 175.373 296.597  15
  -9  -4   5 251.892 153.322  20
   9   4  -4 44855.3 3319.92  15
  -9  -4   4 26926.2 1644.54  20
   9   4  -3 76744.5 4320.79  15
  -9  -4   3 64463.2 2878.53  20
   9   4  -2 1688.10 629.182  15
  -9  -4   2 1646.66 449.652  20
   9   4  -1 5939.16 1113.67  18
   9   4  -1 6506.66 1097.95  15
  -9  -4   1 6492.28 788.886  20
   9   4   0 17363.1 1929.69  18
   9   4   0 18604.0 1756.17  15
   9   4   1 1833.62 543.940  18
   9   4   1 2770.43 634.811  15
   9   5  -4 7.22387 145.283  15
   9   5  -3 14795.2 1422.69  15
  -9  -5   2 21304.9 1230.90   9
   9   5  -2 22113.4 1750.50  15
   9   5  -1 230.007 216.485  15
  10  -5   0 4503.55 474.753  10
  10  -5   1 5606.27 510.538  10
  10  -5   2 4186.91 403.112  10
  10  -4  -3 475.464 182.076  23
  10  -4  -2 19169.1 1256.15  23
  10  -4  -1 26325.5 1514.00  23
  10  -4   0 7282.72 747.890  23
  10  -4   0 6187.32 702.502  10
  10  -4   1 2215.27 391.922  23
  10  -4   1 2162.22 403.077  10
  10  -4   2 2671.42 386.546  23
  10  -4   2 2831.40 408.191  10
  10  -4   3 325.381 158.106  10
  10  -3  -4-52.2098 90.0856  23
  10  -3  -3 2740.24 602.729  23
  10  -3  -2 284.436 231.631  23
  10  -3  -1 854.606 374.498  23
  10  -3   0-67.0050 140.231  10
  10  -3   0-0.74270 126.952  23
  10  -3   1 2620.17 500.852  10
  10  -3   1 2376.36 486.523  23
  10  -3   2 9027.06 880.341  23
  10  -3   2 8284.70 811.811  10
  10  -3   3 1729.30 327.488  10
  10  -3   3 1586.00 317.028  23
  10  -2  -4 15108.0 1397.98  14
  10  -2  -4 8043.17 1107.45  23
  10  -2  -3 738.767 336.046  14
  10  -2  -3 278.625 283.682  23
  10  -2  -2 3151.39 797.375  23
  10  -2  -1 2340.86 561.892  10
  10  -2  -1 4070.54 852.528  23
  10  -2   0 238.441 205.433  10
  10  -2   0 722.914 384.489  23
  10  -2   1 5064.47 858.011  23
  10  -2   1 4508.30 693.846  10
  10  -2   2 23843.3 1673.17  23
  10  -2   2 19831.8 1338.80  10
  10  -2   3 21044.1 1402.15  23
  10  -2   3 19014.1 1203.02  10
  10  -1  -4 73.8777 372.683  14
  10  -1  -4 229.538 223.200  23
  10  -1  -3 921.927 584.652  14
  10  -1  -3 188.664 278.285  23
  10  -1  -2 10533.9 1460.59  23
  10  -1  -1 3799.91 894.165  23
  10  -1   0 7823.01 1198.29  23
  10  -1   0 6186.47 761.730  10
  10  -1   1 19712.7 1825.96  23
  10  -1   1 15456.9 1217.80  10
  10  -1   2 16206.4 1543.26  18
  10  -1   2 13601.9 1103.00  10
  10  -1   3 2350.78 524.460  23
  10   0  -5 11454.9 2151.52  14
 -10   0   5 2677.15 456.853  20
  10   0  -4-215.931 600.541  14
  10   0  -3 789.810 347.422  23
  10   0  -2 4785.59 889.994  23
  10   0  -1 19647.4 1928.26  23
 -10   0   1 23433.3 2223.15  20
  10   0   0 5217.92 1011.31  23
  10   0   1 8957.15 1293.24  23
  10   0   2 45226.9 3195.78  18
  10   0   2 44425.9 2820.60  23
 -10  -1   4 228.508 193.431  20
 -10  -1   3 9689.37 1135.86  20
  10   1  -2 32302.8 2059.99  23
 -10  -1   2 48051.2 2837.74  20
  10   1  -1 4719.93 828.600  23
 -10  -1   1 5584.80 962.004  20
  10   1   0-56.4795 133.338  15
  10   1   0 5005.46 911.253  23
  10   1   1 14845.7 2406.46  18
  10   1   1 8941.55 1246.53  23
  10   1   2 4608.77 1179.42  18
 -10  -2   4 11490.6 970.361  20
  10   2  -3 100.737 296.911  15
 -10  -2   3 1175.51 369.624  20
  10   2  -2 23159.0 2237.54  15
 -10  -2   2 15279.9 1403.64  20
  10   2  -1 61576.4 3418.90  15
 -10  -2   1 39207.7 2218.71  20
  10   2   0 7367.55 1902.85  18
  10   2   0 5419.53 938.572  15
  10   2   1 18490.3 3001.81  18
 -10  -3   3 3334.68 475.163  20
  10   3  -2 18519.6 2406.91  15
 -10  -3   2 7276.07 730.863  20
  10   3  -1 2394.86 800.172  15
   0   0   0    0.00    0.00   0
TITL  Br4Q_3ClEt_1 in P-1
REM P-1 (#2 in standard setting)
CELL 1.54184   8.574145   9.161058   9.250626 105.3227  94.0240  95.6054
ZERR    3.00   0.000717   0.000702   0.000747   0.0068   0.0067   0.0066
LATT  1
SFAC C H N O
UNIT 33.00 30.00 3.00 3.00
TREF
HKLF 4
END
;
loop_
_space_group_symop_id
_space_group_symop_operation_xyz
1 x,y,z
2 -x,-y,-z
loop_
_atom_site_label
_atom_site_fract_x
_atom_site_fract_y
_atom_site_fract_z
_atom_site_U_iso_or_equiv
_atom_site_adp_type
_atom_site_calc_flag
_atom_site_occupancy
_atom_site_disorder_assembly
_atom_site_disorder_group
_atom_site_type_symbol
I1 0.26075(8) 0.32974(7) 0.19725(8) 0.0425(3) Uani d 1 . . I
Br1 -0.38633(13) 0.31498(11) -0.09693(12) 0.0387(3) Uani d 1 . . Br
Br2 -0.13289(12) 0.16349(12) 0.10877(13) 0.0403(3) Uani d 1 . . Br
O1 -0.6832(10) 0.0923(9) -0.1951(9) 0.0439(17) Uani d 1 . . O
C1 -0.6012(12) 0.0565(10) -0.0985(11) 0.0328(19) Uani d 1 . . C
C2 -0.4413(12) 0.1349(10) -0.0391(11) 0.0327(18) Uani d 1 . . C
C3 -0.3435(11) 0.0780(10) 0.0443(11) 0.0312(18) Uani d 1 . . C
Cl1 0.5928(4) 0.2457(3) 0.4262(3) 0.0525(7) Uani d 1 . . Cl
N1 0.9727(12) 0.2712(11) 0.6981(11) 0.045(2) Uani d 1 . . N
C4 0.8591(13) 0.3055(12) 0.6079(13) 0.041(2) Uani d 1 . . C
H4 0.861293 0.403816 0.59728 0.049 Uiso calc 1 . . H
C5 0.7413(13) 0.1947(12) 0.5324(12) 0.039(2) Uani d 1 . . C
C6 0.7347(16) 0.0497(13) 0.5488(15) 0.049(3) Uani d 1 . . C
H6 0.654413 -0.025316 0.496567 0.059 Uiso calc 1 . . H
C7 0.8478(17) 0.0172(14) 0.6429(16) 0.056(3) Uani d 1 . . C
H7 0.844711 -0.080035 0.656364 0.067 Uiso calc 1 . . H
C8 0.9680(14) 0.1309(14) 0.7188(14) 0.046(3) Uani d 1 . . C
H8 1.045057 0.109796 0.783663 0.056 Uiso calc 1 . . H
C9 1.1033(15) 0.3898(15) 0.7783(16) 0.054(3) Uani d 1 . . C
H9A 1.145058 0.364795 0.867742 0.065 Uiso calc 1 . . H
H9B 1.062908 0.48739 0.80997 0.065 Uiso calc 1 . . H
C10 1.233(2) 0.4025(18) 0.6799(19) 0.069(4) Uani d 1 . . C
H10A 1.315624 0.479912 0.734896 0.104 Uiso calc 1 . . H
H10B 1.274734 0.306516 0.649786 0.104 Uiso calc 1 . . H
H10C 1.192659 0.429001 0.592065 0.104 Uiso calc 1 . . H
loop_
_atom_site_aniso_label
_atom_site_aniso_U_11
_atom_site_aniso_U_22
_atom_site_aniso_U_33
_atom_site_aniso_U_12
_atom_site_aniso_U_13
_atom_site_aniso_U_23
I1 0.0438(4) 0.0358(4) 0.0512(4) 0.0027(3) 0.0018(3) 0.0188(3)
Br1 0.0422(6) 0.0316(5) 0.0477(6) 0.0002(4) 0.0048(4) 0.0216(4)
Br2 0.0343(5) 0.0346(5) 0.0540(6) -0.0017(4) -0.0030(4) 0.0195(4)
O1 0.050(4) 0.037(4) 0.049(4) 0.000(3) -0.009(3) 0.025(3)
C1 0.042(5) 0.023(4) 0.036(5) 0.003(4) 0.003(4) 0.013(3)
C2 0.036(5) 0.026(4) 0.036(5) 0.001(3) 0.005(4) 0.008(3)
C3 0.032(4) 0.024(4) 0.038(5) 0.000(3) -0.002(4) 0.013(3)
Cl1 0.0552(16) 0.0504(15) 0.0546(15) 0.0090(12) -0.0057(12) 0.0210(12)
N1 0.044(5) 0.041(5) 0.048(5) 0.006(4) -0.005(4) 0.009(4)
C4 0.044(6) 0.035(5) 0.051(6) 0.009(4) 0.004(5) 0.020(4)
C5 0.043(5) 0.040(5) 0.040(5) 0.009(4) 0.001(4) 0.019(4)
C6 0.063(7) 0.034(5) 0.058(7) 0.009(5) 0.012(6) 0.024(5)
C7 0.065(8) 0.042(6) 0.071(8) 0.010(6) 0.014(6) 0.032(6)
C8 0.047(6) 0.046(6) 0.059(7) 0.016(5) 0.003(5) 0.034(5)
C9 0.048(6) 0.045(6) 0.062(7) 0.000(5) -0.012(6) 0.006(5)
C10 0.073(9) 0.058(8) 0.075(9) -0.020(7) -0.010(8) 0.031(7)
loop_
_atom_type_symbol
_atom_type_description
_atom_type_scat_dispersion_real
_atom_type_scat_dispersion_imag
_atom_type_scat_source
C C 0.0181 0.0091 'International Tables Vol C Tables 4.2.6.8 and 6.1.1.4'
H H 0 0 'International Tables Vol C Tables 4.2.6.8 and 6.1.1.4'
N N 0.0311 0.018 'International Tables Vol C Tables 4.2.6.8 and 6.1.1.4'
O O 0.0492 0.0322 'International Tables Vol C Tables 4.2.6.8 and 6.1.1.4'
Br Br -0.6763 1.2805 'International Tables Vol C Tables 4.2.6.8 and 6.1.1.4'
I I -0.3257 6.8362 'International Tables Vol C Tables 4.2.6.8 and 6.1.1.4'
Cl Cl 0.3639 0.7018 'International Tables Vol C Tables 4.2.6.8 and 6.1.1.4'
loop_
_geom_angle_atom_site_label_1
_geom_angle_atom_site_label_2
_geom_angle_atom_site_label_3
_geom_angle
_geom_angle_site_symmetry_1
_geom_angle_site_symmetry_3
_geom_angle_publ_flag
O1 C1 C2 122.5(9) . . ?
O1 C1 C3 120.3(9) . 2_455 ?
C2 C1 C3 117.0(8) . 2_455 ?
C3 C2 C1 121.6(8) . . ?
C3 C2 Br1 123.5(7) . . ?
C1 C2 Br1 114.9(7) . . ?
C2 C3 C1 120.9(9) . 2_455 ?
C2 C3 Br2 123.4(7) . . ?
C1 C3 Br2 115.6(7) 2_455 . ?
C8 N1 C4 120.9(10) . . ?
C8 N1 C9 119.1(10) . . ?
C4 N1 C9 120.0(10) . . ?
N1 C4 C5 119.5(10) . . ?
N1 C4 H4 120.2 . . ?
C5 C4 H4 120.2 . . ?
C4 C5 C6 121.0(10) . . ?
C4 C5 Cl1 118.0(8) . . ?
C6 C5 Cl1 120.8(10) . . ?
C7 C6 C5 119.0(12) . . ?
C7 C6 H6 120.5 . . ?
C5 C6 H6 120.5 . . ?
C6 C7 C8 119.5(11) . . ?
C6 C7 H7 120.2 . . ?
C8 C7 H7 120.2 . . ?
N1 C8 C7 120.0(10) . . ?
N1 C8 H8 120 . . ?
C7 C8 H8 120 . . ?
N1 C9 C10 111.6(11) . . ?
N1 C9 H9A 109.3 . . ?
C10 C9 H9A 109.3 . . ?
N1 C9 H9B 109.3 . . ?
C10 C9 H9B 109.3 . . ?
H9A C9 H9B 108 . . ?
C9 C10 H10A 109.5 . . ?
C9 C10 H10B 109.5 . . ?
H10A C10 H10B 109.5 . . ?
C9 C10 H10C 109.5 . . ?
H10A C10 H10C 109.5 . . ?
H10B C10 H10C 109.5 . . ?
loop_
_geom_bond_atom_site_label_1
_geom_bond_atom_site_label_2
_geom_bond_site_symmetry_2
_geom_bond_distance
_geom_bond_publ_flag
Br1 C2 . 1.892(9) ?
Br2 C3 . 1.886(10) ?
O1 C1 . 1.230(12) ?
C1 C2 . 1.480(14) ?
C1 C3 2_455 1.497(12) ?
C2 C3 . 1.333(14) ?
Cl1 C5 . 1.728(10) ?
N1 C8 . 1.345(15) ?
N1 C4 . 1.352(14) ?
N1 C9 . 1.484(15) ?
C4 C5 . 1.366(16) ?
C4 H4 . 0.93 ?
C5 C6 . 1.373(15) ?
C6 C7 . 1.364(19) ?
C6 H6 . 0.93 ?
C7 C8 . 1.393(19) ?
C7 H7 . 0.93 ?
C8 H8 . 0.93 ?
C9 C10 . 1.50(2) ?
C9 H9A . 0.97 ?
C9 H9B . 0.97 ?
C10 H10A . 0.96 ?
C10 H10B . 0.96 ?
C10 H10C . 0.96 ?
loop_
_geom_torsion_atom_site_label_1
_geom_torsion_atom_site_label_2
_geom_torsion_atom_site_label_3
_geom_torsion_atom_site_label_4
_geom_torsion
_geom_torsion_site_symmetry_1
_geom_torsion_site_symmetry_2
_geom_torsion_site_symmetry_3
_geom_torsion_site_symmetry_4
_geom_torsion_publ_flag
O1 C1 C2 C3 -167.7(10) . . . . ?
C3 C1 C2 C3 7.9(16) 2_455 . . . ?
O1 C1 C2 Br1 10.1(13) . . . . ?
C3 C1 C2 Br1 -174.3(7) 2_455 . . . ?
C1 C2 C3 C1 -8.2(16) . . . 2_455 ?
Br1 C2 C3 C1 174.2(7) . . . 2_455 ?
C1 C2 C3 Br2 174.5(7) . . . . ?
Br1 C2 C3 Br2 -3.1(13) . . . . ?
C8 N1 C4 C5 -2.4(18) . . . . ?
C9 N1 C4 C5 178.7(11) . . . . ?
N1 C4 C5 C6 1.2(18) . . . . ?
N1 C4 C5 Cl1 176.6(9) . . . . ?
C4 C5 C6 C7 0.4(19) . . . . ?
Cl1 C5 C6 C7 -174.9(10) . . . . ?
C5 C6 C7 C8 -1(2) . . . . ?
C4 N1 C8 C7 2.1(19) . . . . ?
C9 N1 C8 C7 -179.0(12) . . . . ?
C6 C7 C8 N1 0(2) . . . . ?
C8 N1 C9 C10 96.9(15) . . . . ?
C4 N1 C9 C10 -84.2(15) . . . . ?
