#------------------------------------------------------------------------------
#$Date: 2022-01-06 23:13:18 +0200 (Thu, 06 Jan 2022) $
#$Revision: 271831 $
#$URL: file:///home/coder/svn-repositories/cod/cif/7/24/39/7243921.cif $
#------------------------------------------------------------------------------
#
# This file is available in the Crystallography Open Database (COD),
# http://www.crystallography.net/
#
# All data on this site have been placed in the public domain by the
# contributors.
#
data_7243921
loop_
_publ_author_name
'Li, Jing'
'Zhao, Yun-Xiu'
'Wu, Qian'
'Yang, Hua'
'Lu, Jing'
'Ma, Hui-Yan'
'Wang, Su-Na'
'Li, Yun-Wu'
_publ_section_title
;
 A Cd-MOF fluorescence sensor with dual functional sites for efficient
 detection of metal ions in multifarious water environments
;
_journal_issue                   47
_journal_name_full               CrystEngComm
_journal_page_first              8392
_journal_page_last               8403
_journal_paper_doi               10.1039/D1CE01308D
_journal_volume                  23
_journal_year                    2021
_chemical_formula_sum            'C15 H5 Cd2 N7 O8'
_chemical_formula_weight         636.06
_space_group_crystal_system      triclinic
_space_group_IT_number           2
_space_group_name_Hall           '-P 1'
_space_group_name_H-M_alt        'P -1'
_atom_sites_solution_hydrogens   mixed
_audit_creation_method           SHELXL-2014/7
_audit_update_record
;
2021-07-09 deposited with the CCDC.	2021-10-27 downloaded from the CCDC.
;
_cell_angle_alpha                80.6520(10)
_cell_angle_beta                 89.883(2)
_cell_angle_gamma                80.6270(10)
_cell_formula_units_Z            2
_cell_length_a                   8.3887(7)
_cell_length_b                   10.3405(9)
_cell_length_c                   11.1345(11)
_cell_measurement_reflns_used    1024
_cell_measurement_temperature    298(2)
_cell_measurement_theta_max      28.1815
_cell_measurement_theta_min      2.9615
_cell_volume                     940.00(15)
_computing_cell_refinement       'Bruker SMART'
_computing_data_collection       'Bruker SMART'
_computing_data_reduction        'Bruker SHELXTL'
_computing_molecular_graphics    'Bruker SHELXTL'
_computing_publication_material  'Bruker SHELXTL'
_computing_structure_refinement  'SHELXL-2014/7 (Sheldrick, 2014)'
_computing_structure_solution    'Bruker SHELXTL'
_diffrn_ambient_temperature      298(2)
_diffrn_measured_fraction_theta_full 0.984
_diffrn_measured_fraction_theta_max 0.984
_diffrn_measurement_device_type  'CCD area detector'
_diffrn_measurement_method       'phi and omega scans'
_diffrn_radiation_type           MoK\a
_diffrn_radiation_wavelength     0.71073
_diffrn_reflns_av_R_equivalents  0.0724
_diffrn_reflns_av_unetI/netI     0.0588
_diffrn_reflns_Laue_measured_fraction_full 0.984
_diffrn_reflns_Laue_measured_fraction_max 0.984
_diffrn_reflns_limit_h_max       9
_diffrn_reflns_limit_h_min       -9
_diffrn_reflns_limit_k_max       8
_diffrn_reflns_limit_k_min       -12
_diffrn_reflns_limit_l_max       12
_diffrn_reflns_limit_l_min       -13
_diffrn_reflns_number            4623
_diffrn_reflns_point_group_measured_fraction_full 0.984
_diffrn_reflns_point_group_measured_fraction_max 0.984
_diffrn_reflns_theta_full        25.014
_diffrn_reflns_theta_max         25.014
_diffrn_reflns_theta_min         2.024
_exptl_absorpt_coefficient_mu    2.326
_exptl_absorpt_correction_T_max  0.658
_exptl_absorpt_correction_T_min  0.605
_exptl_absorpt_correction_type   multi-scan
_exptl_crystal_colour            yellow
_exptl_crystal_density_diffrn    2.247
_exptl_crystal_description       block
_exptl_crystal_F_000             608
_exptl_crystal_size_max          0.220
_exptl_crystal_size_mid          0.200
_exptl_crystal_size_min          0.180
_refine_diff_density_max         2.447
_refine_diff_density_min         -4.507
_refine_diff_density_rms         0.362
_refine_ls_extinction_method     none
_refine_ls_goodness_of_fit_ref   1.315
_refine_ls_hydrogen_treatment    constr
_refine_ls_matrix_type           full
_refine_ls_number_parameters     298
_refine_ls_number_reflns         3258
_refine_ls_number_restraints     27
_refine_ls_restrained_S_all      1.312
_refine_ls_R_factor_all          0.1029
_refine_ls_R_factor_gt           0.0945
_refine_ls_shift/su_max          0.052
_refine_ls_shift/su_mean         0.002
_refine_ls_structure_factor_coef Fsqd
_refine_ls_weighting_details
'w=1/[\s^2^(Fo^2^)+(0.2000P)^2^] where P=(Fo^2^+2Fc^2^)/3'
_refine_ls_weighting_scheme      calc
_refine_ls_wR_factor_gt          0.2783
_refine_ls_wR_factor_ref         0.2999
_reflns_Friedel_coverage         0.000
_reflns_number_gt                2751
_reflns_number_total             3258
_reflns_threshold_expression     'I > 2\s(I)'
_cod_data_source_file            d1ce01308d2.cif
_cod_data_source_block           201203e
_cod_depositor_comments          'Adding full bibliography for 7243921.cif.'
_cod_database_code               7243921
_shelx_shelxl_version_number     2014/7
_shelx_space_group_comment
;
The symmetry employed for this shelxl refinement is uniquely defined
by the following loop, which should always be used as a source of
symmetry information in preference to the above space-group names.
They are only intended as comments.
;
_shelx_estimated_absorpt_t_min   0.629
_shelx_estimated_absorpt_t_max   0.680
_shelx_res_file
;

    201203e.res created by SHELXL-2014/7

TITL 201203e in P-1
CELL 0.71073   8.3887  10.3405  11.1345  80.652  89.883  80.627
ZERR    2.00   0.0007   0.0009   0.0011   0.001   0.002   0.001
LATT 1
SFAC C  H  N  O  Cd
UNIT 30 10 14 16 4
OMIT  -1.00  50.04
L.S. 10
ACTA
BOND $H
FMAP 2
PLAN 5
delu 0.005 $C
size 0.22 0.20 0.18
TEMP 25
WGHT    0.200000
FVAR       0.18991
O3W   4    0.283584    0.061132    0.978187    11.00000    0.41045    0.35503 =
         0.44223   -0.23515    0.07226   -0.24903
AFIX   3
H3WC  2    0.276374    0.143532    0.980997    11.00000   -1.20000
H3WD  2    0.318804    0.047012    0.909067    11.00000   -1.20000
AFIX   0
N7    3    0.135233    1.095902    1.137405    11.00000    0.12896    0.05315 =
         0.12382    0.00425   -0.02289   -0.03567
N5    3   -0.064891    0.685159    1.294401    11.00000    0.04190    0.03932 =
         0.02981   -0.01550    0.00455   -0.00589
C4    1   -0.124926    0.713279    1.400206    11.00000    0.03183    0.05034 =
         0.06829   -0.02274    0.00016   -0.00341
AFIX  43
H4    2   -0.175573    0.652851    1.451329    11.00000   -1.20000
AFIX   0
C3    1   -0.109079    0.838368    1.432334    11.00000    0.06523    0.06309 =
         0.04805   -0.04579   -0.00858    0.01921
AFIX  43
H3    2   -0.150112    0.854737    1.507054    11.00000   -1.20000
AFIX   0
N6    3   -0.044559    0.931207    1.369874    11.00000    0.05902    0.03856 =
         0.05353   -0.01818   -0.00005   -0.00261
C2    1    0.014343    0.900664    1.262379    11.00000    0.05021    0.03112 =
         0.03539   -0.01415   -0.01406    0.00032
C1    1    0.013688    0.778735    1.222613    11.00000    0.04433    0.02820 =
         0.02570   -0.00762   -0.00649   -0.00001
O3    4    0.826073    0.435742    0.398166    11.00000    0.06575    0.03915 =
         0.03935   -0.01266    0.00919   -0.01191
O4    4    0.796369    0.254630    0.326262    11.00000    0.04458    0.04717 =
         0.03387   -0.01703    0.00816   -0.00148
C14   1    0.778115    0.326475    0.411426    11.00000    0.05089    0.02804 =
         0.02804   -0.00603   -0.00125    0.00586
O6    4    0.397915   -0.018637    0.766059    11.00000    0.07796    0.03215 =
         0.05868   -0.00273    0.01225   -0.01764
N1    3    0.190167    0.796932    1.043988    11.00000    0.05281    0.04730 =
         0.03526   -0.01014    0.00434   -0.02099
C5    1    0.073870    0.740330    1.109097    11.00000    0.05716    0.02914 =
         0.03196   -0.01152    0.00260   -0.00121
N4    3    0.037058    0.640259    1.062874    11.00000    0.02950    0.02794 =
         0.03956   -0.01559    0.01606   -0.01696
CD1   5    0.406881    0.761814    0.802730    11.00000    0.03772    0.02361 =
         0.03932   -0.01416    0.00441   -0.00458
CD2   5    0.090691    0.515866    0.797196    11.00000    0.03517    0.03083 =
         0.03452   -0.01363    0.00376   -0.00548
O1    4    0.367113    0.447685    0.842431    11.00000    0.03610    0.04051 =
         0.04678   -0.01815    0.00072    0.00364
O5    4    0.593214   -0.106973    0.660097    11.00000    0.07838    0.02432 =
         0.06332   -0.01918    0.00044   -0.00373
O2    4    0.538434    0.570262    0.747504    11.00000    0.02843    0.02847 =
         0.06746   -0.02277    0.01342   -0.00608
N3    3    0.122544    0.633001    0.962293    11.00000    0.04991    0.03783 =
         0.03339   -0.01858    0.01390   -0.01852
C13   1    0.500937    0.225715    0.729381    11.00000    0.03902    0.02930 =
         0.03246   -0.00777   -0.00134   -0.00288
AFIX  43
H13   2    0.436922    0.206430    0.796084    11.00000   -1.20000
AFIX   0
C7    1    0.477930    0.463231    0.768226    11.00000    0.01254    0.02800 =
         0.04436   -0.00747    0.01511   -0.00681
N2    3    0.215585    0.725788    0.951279    11.00000    0.03450    0.04351 =
         0.03965   -0.01671    0.00692   -0.01324
C9    1    0.639616    0.383532    0.596529    11.00000    0.04436    0.01817 =
         0.03212   -0.00924   -0.00395    0.00255
AFIX  43
H9    2    0.669806    0.467067    0.578803    11.00000   -1.20000
AFIX   0
C15   1    0.514102   -0.009539    0.696350    11.00000    0.04307    0.03053 =
         0.03443   -0.00834    0.00175   -0.01427
C8    1    0.542690    0.354732    0.699352    11.00000    0.03909    0.02580 =
         0.03056   -0.01113   -0.00811    0.00281
C12   1    0.555809    0.127387    0.658911    11.00000    0.05646    0.01672 =
         0.02465   -0.00097   -0.00970    0.00338
C10   1    0.690671    0.289397    0.521405    11.00000    0.02749    0.02744 =
         0.04140   -0.01281    0.00452   -0.00527
C11   1    0.652278    0.158696    0.553602    11.00000    0.03934    0.02038 =
         0.03484   -0.00941   -0.00505   -0.00200
AFIX  43
H11   2    0.689354    0.093707    0.506802    11.00000   -1.20000
AFIX   0
O2W   4   -0.156990    0.639933    0.737198    11.00000    0.04694    0.03873 =
         0.09342   -0.02342    0.00129    0.00589
O1W   4    0.606869    0.735928    0.948549    11.00000    0.04835    0.06807 =
         0.05513    0.00023   -0.00957   -0.02310
C6    1    0.081576    1.008720    1.189290    11.00000    0.07338    0.03391 =
         0.07455   -0.00119   -0.02733   -0.01387
HKLF 4

REM  201203e in P-1
REM R1 =  0.0945 for    2751 Fo > 4sig(Fo)  and  0.1029 for all    3258 data
REM    298 parameters refined using     27 restraints

END

WGHT      0.2000      0.0000

REM Highest difference peak  2.447,  deepest hole -4.507,  1-sigma level  0.362
Q1    1   0.1664  0.5723  0.8183  11.00000  0.05    2.45
Q2    1   0.0911  0.5643  0.7231  11.00000  0.05    2.34
Q3    1   0.3296  0.7086  0.7835  11.00000  0.05    2.27
Q4    1   0.2884  0.8060  0.8033  11.00000  0.05    2.26
Q5    1   0.4061  0.7128  0.8829  11.00000  0.05    2.26
;
_shelx_res_checksum              57566
_shelx_hkl_file
;
   0   0  -2 1078.63    7.93
   0   0  -3  117.44    1.87
   0   0  -4  156.39    2.43
   0   0  -5  650.56    6.36
   0   0  -6    2.51    0.55
   0   0   8  336.16    6.92
   0   0   9    7.01    1.20
   0   0  10  126.18    4.53
   0  -1  -9   54.84    2.38
   0  -1  -8   77.76    2.46
   0  -1  -7    8.26    0.87
   0  -1  -6  161.86    3.10
   0  -1  -5   94.67    2.16
   0  -1  -4   19.88    0.85
   0  -1  -3  508.53    4.42
   0  -1  -2    9.81    0.39
   0  -1  -1  304.81    2.66
   0  -1   0  276.40    2.55
   0  -1   1   30.91    0.71
   0  -1   2  550.14    4.75
   0  -1   3    4.65    0.45
   0  -1   4  206.94    3.19
   0  -1   5  235.90    3.83
   0  -1   6  198.75    3.85
   0  -1   7  106.71    3.15
   0  -1   8    1.27    0.67
   0  -1   9   48.98    2.57
   0  -1  10   42.79    2.60
   0  -2  -9   30.18    1.88
   0  -2  -8   34.84    1.79
   0  -2  -7   11.47    1.04
   0  -2  -6    9.07    0.77
   0  -2  -5  188.76    2.95
   0  -2  -4    1.56    0.27
   0  -2  -3   25.03    0.77
   0  -2  -2  216.78    2.28
   0  -2  -1    1.56    0.21
   0  -2   0   51.57    1.11
   0  -2   1   28.85    0.86
   0  -2   2   44.63    1.26
   0  -2   3   14.60    0.80
   0  -2   4    1.35    0.35
   0  -2   5    3.04    0.47
   0  -2   6   12.28    0.97
   0  -2   7    0.06    0.32
   0  -2   8   10.57    1.16
   0  -2   9    1.03    0.69
   0  -2  10    0.25    0.51
   0  -2  11   -0.13    0.83
   0  -3  -9  150.85    3.96
   0  -3  -8   26.85    1.56
   0  -3  -7  438.22    6.09
   0  -3  -6   20.15    1.14
   0  -3  -5  350.49    4.18
   0  -3  -4   53.22    1.34
   0  -3  -3  263.86    3.08
   0  -3  -2  192.07    2.68
   0  -3  -1   14.18    0.67
   0  -3   0   74.70    1.52
   0  -3   1   76.90    1.69
   0  -3   2   28.40    1.10
   0  -3   3  242.09    3.56
   0  -3   4    5.94    0.67
   0  -3   5  116.48    2.86
   0  -3   6   78.61    2.55
   0  -3   7    1.67    0.66
   0  -3   8   44.73    2.39
   0  -3   9    0.68    0.72
   0  -3  10    6.18    1.23
   0  -3  11    3.23    0.99
   0  -4  -9    0.58    0.61
   0  -4  -8  254.17    4.77
   0  -4  -7  247.52    4.30
   0  -4  -6  149.40    2.97
   0  -4  -5  382.00    4.56
   0  -4  -4   16.49    0.80
   0  -4  -3  836.66    7.04
   0  -4  -2  380.10    4.38
   0  -4  -1  363.54    4.17
   0  -4   0  599.72    5.74
   0  -4   1   33.02    1.23
   0  -4   2  318.64    4.27
   0  -4   3  210.04    3.61
   0  -4   4  163.58    3.44
   0  -4   5  339.30    5.39
   0  -4   6    0.35    0.52
   0  -4   7  203.04    5.00
   0  -4   8   56.05    2.83
   0  -4   9   70.47    3.43
   0  -4  10  127.83    4.99
   0  -4  11    7.09    1.48
   0  -5  -9   95.49    3.25
   0  -5  -8   67.69    2.48
   0  -5  -7   25.35    1.43
   0  -5  -6  219.50    3.91
   0  -5  -5   14.71    0.91
   0  -5  -4  165.84    2.88
   0  -5  -3   99.69    2.42
   0  -5  -2   11.72    0.82
   0  -5  -1  246.39    3.65
   0  -5   0   37.45    1.46
   0  -5   1  293.23    4.31
   0  -5   2   60.65    1.90
   0  -5   3   13.69    0.99
   0  -5   4   64.32    2.19
   0  -5   5    0.76    0.41
   0  -5   6   42.61    2.13
   0  -5   7  128.73    4.04
   0  -5   8   14.84    1.62
   0  -5   9   64.73    3.31
   0  -5  10    5.06    1.32
   0  -5  11   19.50    2.25
   0  -6  -8    6.40    0.92
   0  -6  -7    2.81    0.66
   0  -6  -6    2.20    0.51
   0  -6  -5    0.69    0.41
   0  -6  -4   30.71    1.39
   0  -6  -3    4.10    0.57
   0  -6  -2    0.77    0.33
   0  -6  -1    2.68    0.46
   0  -6   0   18.61    1.14
   0  -6   1    5.35    0.60
   0  -6   2    1.72    0.43
   0  -6   3    2.76    0.58
   0  -6   4    1.50    0.45
   0  -6   5    2.04    0.64
   0  -6   6   20.69    1.59
   0  -6   7    1.26    0.72
   0  -6   8    1.46    0.79
   0  -6   9   12.27    1.59
   0  -6  10   -0.41    0.83
   0  -6  11    1.58    1.12
   0  -7  -8   35.59    1.94
   0  -7  -7  208.11    4.38
   0  -7  -6    1.45    0.45
   0  -7  -5  125.58    3.00
   0  -7  -4   26.69    1.44
   0  -7  -3   43.09    1.79
   0  -7  -2  123.76    3.10
   0  -7  -1    6.43    0.73
   0  -7   0   85.54    2.59
   0  -7   1   70.84    2.32
   0  -7   2   29.07    1.56
   0  -7   3   25.83    1.50
   0  -7   4    8.89    0.97
   0  -7   5   38.75    2.06
   0  -7   6    4.16    0.89
   0  -7   7    0.52    0.70
   0  -7   8   18.07    1.82
   0  -7  10   14.68    1.89
   0  -7  11    0.55    1.12
   0  -8  -8  196.74    4.96
   0  -8  -7   20.30    1.47
   0  -8  -6   91.60    2.85
   0  -8  -5   47.16    2.05
   0  -8  -4   57.12    2.23
   0  -8  -3   99.40    2.92
   0  -8  -2   45.36    2.04
   0  -8  -1  139.88    3.48
   0  -8   0  183.21    3.89
   0  -8   1    2.62    0.68
   0  -8   2  130.23    3.36
   0  -8   3   16.65    1.32
   0  -8   4   87.03    3.03
   0  -8   5   62.39    2.75
   0  -8   6    2.63    0.85
   0  -8   7   59.67    2.98
   0  -8   8    5.42    1.15
   0  -8   9   29.65    2.39
   0  -8  10   12.51    1.70
   0  -9  -8   14.70    1.43
   0  -9  -7   29.75    1.87
   0  -9  -6   64.90    2.63
   0  -9  -5   -0.26    0.53
   0  -9  -4   89.95    3.14
   0  -9  -3   47.40    2.17
   0  -9  -2  122.26    3.62
   0  -9  -1  102.61    3.33
   0  -9   0    9.75    1.03
   0  -9   1   99.73    3.27
   0  -9   2    0.57    0.44
   0  -9   3   32.36    1.83
   0  -9   4   25.58    1.68
   0  -9   5    0.83    0.52
   0  -9   6   54.65    2.85
   0  -9   7   23.88    2.08
   0  -9   8    8.37    1.46
   0  -9   9    9.69    1.52
   0 -10  -8    1.49    0.89
   0 -10  -7    1.31    0.78
   0 -10  -6    0.41    0.66
   0 -10  -5    0.44    0.65
   0 -10  -4    8.69    1.19
   0 -10  -3   -0.21    0.57
   0 -10  -2    5.12    0.90
   0 -10  -1    4.60    0.91
   0 -10   0    3.88    0.74
   0 -10   1    0.29    0.51
   0 -10   2    0.81    0.50
   0 -10   3    4.25    0.81
   0 -10   4    1.02    0.58
   0 -10   5    1.01    0.56
   0 -10   6    0.63    0.73
   0 -10   7    1.45    0.89
   0 -10   8    2.53    1.10
   0 -11  -7    8.80    1.31
   0 -11  -6    4.53    0.99
   0 -11  -5   29.33    2.04
   0 -11  -4    1.93    0.80
   0 -11  -3   28.33    2.01
   0 -11  -2   19.05    1.68
   0 -11  -1    0.27    0.64
   0 -11   0    7.60    1.16
   0 -11   1    0.20    0.44
   0 -11   2   16.19    1.42
   0 -11   3    9.77    1.32
   0 -11   4    1.52    0.84
   0 -11   5   19.66    1.91
   0 -11   6    2.45    1.04
   0 -12  -7    5.67    1.20
   0 -12  -6   39.71    2.54
   0 -12  -5    6.58    1.11
   0 -12  -4   27.61    2.00
   0 -12  -3   52.10    2.87
   0 -12  -2    1.77    0.79
   0 -12  -1   29.60    2.18
   0 -12   0   12.96    1.38
   0 -12   1    9.07    1.25
   0 -12   2   35.36    2.25
   0 -12   3   -0.24    0.47
   0 -12   4   22.67    1.85
   0 -13  -6   19.77    1.95
   0 -13  -5   13.87    1.55
   0 -13  -4   26.82    2.10
   0 -13  -3    0.36    0.67
   0 -13  -2   23.74    1.99
   0 -13  -1   25.85    1.98
   0 -13   0    6.56    1.22
   0 -13   1   32.79    2.40
  -1 -13   1    4.62    1.03
  -1 -13   0    1.26    0.92
  -1 -13  -1    1.90    0.91
  -1 -13  -2    0.42    0.87
  -1 -13  -3    0.08    0.81
  -1 -13  -4   -0.47    0.57
  -1 -13  -5    2.84    0.95
  -1 -12   4    0.01    0.53
  -1 -12   3   17.26    1.67
  -1 -12   2   12.39    1.46
  -1 -12   1   20.28    1.68
  -1 -12   0   18.31    1.65
  -1 -12  -1    2.22    0.71
  -1 -12  -2   20.97    1.86
  -1 -12  -3    9.22    1.26
  -1 -12  -4    9.33    1.37
  -1 -12  -5   14.21    1.52
  -1 -12  -6    1.67    0.82
  -1 -11   6   29.66    2.31
  -1 -11   5    3.17    0.93
  -1 -11   4   36.11    2.19
  -1 -11   3   29.19    2.06
  -1 -11   2   24.33    1.84
  -1 -11   1   88.16    3.23
  -1 -11   0    4.41    0.85
  -1 -11  -1   57.69    2.71
  -1 -11  -2   37.25    2.19
  -1 -11  -3   15.92    1.43
  -1 -11  -4  137.75    4.41
  -1 -11  -5    2.05    0.65
  -1 -11  -6   68.65    2.91
  -1 -10   8   -0.11    0.85
  -1 -10   7    7.64    1.22
  -1 -10   6    3.95    0.90
  -1 -10   5    8.32    1.19
  -1 -10   4   40.71    2.35
  -1 -10   3    0.63    0.61
  -1 -10   2   81.33    3.02
  -1 -10   1   17.38    1.46
  -1 -10   0   40.74    2.18
  -1 -10  -1   68.53    2.70
  -1 -10  -2    9.23    1.08
  -1 -10  -3  190.70    4.81
  -1 -10  -4   17.04    1.51
  -1 -10  -5  112.13    3.56
  -1 -10  -6   36.10    2.00
  -1  -9   9    2.33    1.00
  -1  -9   8    1.14    0.63
  -1  -9   7    1.80    0.83
  -1  -9   6    0.26    0.60
  -1  -9   5    0.65    0.49
  -1  -9   4    2.50    0.66
  -1  -9   3    4.32    0.82
  -1  -9   2    0.42    0.37
  -1  -9   1    1.09    0.57
  -1  -9   0    3.12    0.74
  -1  -9  -1    2.21    0.61
  -1  -9  -2   22.31    1.60
  -1  -9  -3   10.52    1.19
  -1  -9  -4   21.92    1.58
  -1  -9  -5    2.95    0.60
  -1  -9  -6    1.70    0.62
  -1  -9  -7    0.84    0.64
  -1  -8  10   21.21    2.22
  -1  -8   9    5.43    1.11
  -1  -8   8   44.17    2.76
  -1  -8   7    0.40    0.53
  -1  -8   6   29.04    1.98
  -1  -8   5   45.07    2.35
  -1  -8   4   19.19    1.47
  -1  -8   3   58.06    2.37
  -1  -8   2    0.33    0.50
  -1  -8   1   27.38    1.48
  -1  -8   0   34.83    1.78
  -1  -8  -1   44.01    1.87
  -1  -8  -2  132.12    3.33
  -1  -8  -3   34.58    1.77
  -1  -8  -4   28.94    1.63
  -1  -8  -5   20.07    1.30
  -1  -8  -6    6.07    0.79
  -1  -8  -7   43.08    1.99
  -1  -7  11   17.20    2.01
  -1  -7  10    0.66    0.94
  -1  -7   9   58.25    3.28
  -1  -7   8   38.39    2.51
  -1  -7   7   77.39    3.24
  -1  -7   6   76.80    3.00
  -1  -7   5    2.05    0.71
  -1  -7   4  261.38    5.11
  -1  -7   3   44.49    2.01
  -1  -7   2  155.81    3.51
  -1  -7   1  128.80    3.11
  -1  -7   0   53.02    1.88
  -1  -7  -1  387.97    5.58
  -1  -7  -2   66.81    2.15
  -1  -7  -3  147.74    3.36
  -1  -7  -4  236.91    4.37
  -1  -7  -5    2.23    0.54
  -1  -7  -6  198.72    3.74
  -1  -7  -7   23.66    1.40
  -1  -6  12    8.11    1.81
  -1  -6  11    0.05    0.72
  -1  -6  10    6.90    1.37
  -1  -6   9    5.23    1.07
  -1  -6   8    3.11    0.83
  -1  -6   7   61.93    2.87
  -1  -6   6   10.56    1.22
  -1  -6   5  105.14    3.26
  -1  -6   4  120.07    3.25
  -1  -6   3   25.75    1.40
  -1  -6   2  255.92    4.38
  -1  -6   1    2.12    0.49
  -1  -6   0  261.04    4.17
  -1  -6  -1  266.43    4.20
  -1  -6  -2   11.87    0.84
  -1  -6  -3  200.18    3.62
  -1  -6  -4   24.96    1.25
  -1  -6  -5  203.83    3.38
  -1  -6  -6  127.32    2.79
  -1  -6  -7   42.15    1.81
  -1  -5  12    0.80    0.82
  -1  -5  11   -0.41    0.89
  -1  -5  10    1.53    0.78
  -1  -5   9    0.31    0.83
  -1  -5   8    4.06    0.92
  -1  -5   7    8.20    1.18
  -1  -5   6    3.50    0.71
  -1  -5   5   -0.22    0.41
  -1  -5   4    0.63    0.44
  -1  -5   3   14.28    1.02
  -1  -5   2   11.90    0.85
  -1  -5   1   22.94    1.13
  -1  -5   0   27.65    1.22
  -1  -5  -1    4.45    0.50
  -1  -5  -2   31.08    1.19
  -1  -5  -3    0.33    0.23
  -1  -5  -4    6.82    0.56
  -1  -5  -5   27.45    1.09
  -1  -5  -6    2.66    0.47
  -1  -5  -7    1.42    0.54
  -1  -4  12   -0.22    0.92
  -1  -4  11   33.32    2.60
  -1  -4  10    0.51    0.62
  -1  -4   9   66.21    3.14
  -1  -4   8   55.32    2.71
  -1  -4   7    5.92    0.96
  -1  -4   6   57.27    2.32
  -1  -4   5    1.49    0.43
  -1  -4   4   30.64    1.44
  -1  -4   3   69.97    2.13
  -1  -4   2    0.85    0.28
  -1  -4   1  927.64    8.00
  -1  -4   0  108.19    2.14
  -1  -4  -1  290.72    3.47
  -1  -4  -2   13.72    0.71
  -1  -4  -3   61.93    1.48
  -1  -4  -4  209.41    2.68
  -1  -4  -5   66.06    1.58
  -1  -4  -6  158.14    2.90
  -1  -4  -7   31.63    1.56
  -1  -3  12   26.20    2.42
  -1  -3  11   66.44    3.47
  -1  -3  10   28.50    2.14
  -1  -3   9  238.70    5.66
  -1  -3   8    0.57    0.59
  -1  -3   7  201.47    4.52
  -1  -3   6   65.56    2.36
  -1  -3   5   86.74    2.46
  -1  -3   4  679.85    7.01
  -1  -3   3    2.94    0.45
  -1  -3   2  779.53    6.90
  -1  -3   1  299.61    3.64
  -1  -3   0  265.23    3.12
  -1  -3  -1  868.11    6.77
  -1  -3  -2   72.56    1.43
  -1  -3  -3  470.84    4.04
  -1  -3  -4  307.51    3.14
  -1  -3  -5   26.06    0.94
  -1  -3  -6  578.53    6.03
  -1  -3  -7    5.47    0.68
  -1  -2  12   12.50    1.61
  -1  -2  11    6.28    1.23
  -1  -2  10   48.81    2.77
  -1  -2   9    0.87    0.67
  -1  -2   8   88.94    3.20
  -1  -2   7  100.52    3.11
  -1  -2   6    1.57    0.44
  -1  -2   5  160.16    3.33
  -1  -2   4  183.93    3.26
  -1  -2   3  303.67    3.95
  -1  -2   2  355.04    3.96
  -1  -2   1    0.23    0.19
  -1  -2   0  194.89    2.35
  -1  -2  -1  354.24    3.16
  -1  -2  -2  244.35    2.31
  -1  -2  -3  464.90    3.70
  -1  -2  -4    8.39    0.51
  -1  -2  -5  504.35    5.18
  -1  -2  -6  209.92    3.53
  -1  -2  -7  160.85    3.20
  -1  -2  -8  173.13    3.70
  -1  -1  12    0.84    0.96
  -1  -1  11    0.93    0.80
  -1  -1  10    1.68    0.72
  -1  -1   9    0.18    0.71
  -1  -1   8   15.75    1.42
  -1  -1   7   16.06    1.44
   1   1  -5   36.94    1.62
   1   1  -4    5.14    0.55
   1   1  -3    7.16    0.56
   1   1  -2    3.22    0.36
   1   1  -1   22.00    0.70
  -1  -1   0    6.76    0.29
  -1  -1  -3   28.38    0.75
  -1  -1  -4    7.61    0.47
  -1  -1  -5    7.26    0.56
  -1  -1  -6   10.87    0.77
  -1  -1  -7    4.42    0.63
   1   1   8    0.74    0.81
  -1   0  12   14.76    2.08
  -1   0  11   53.53    3.13
  -1   0  10    0.90    0.90
   1   0  -9  101.84    3.65
   1   0  -8   12.08    1.16
   1   0  -7   36.40    1.61
   1   0  -6  338.47    5.06
   1   0  -5   20.81    1.11
   1   0  -4  172.92    2.92
   1   0  -3   45.50    1.31
   1   0  -2    0.98    0.20
   1   0  -1  200.70    2.23
   1   0   0    0.92    0.10
   1   0   2  142.83    1.63
   1   0   3   51.29    1.06
   1   0   4  293.16    3.52
   1   0   5    0.79    0.35
   1   0   6   92.85    2.45
   1   0   7   14.25    1.13
   1   0   8    3.49    0.84
   1  -1 -11   38.17    2.62
   1  -1 -10   74.46    2.98
   1  -1  -9  194.28    4.63
   1  -1  -8   66.89    2.56
   1  -1  -7  523.66    6.89
   1  -1  -6   88.29    2.44
   1  -1  -5  301.32    4.22
   1  -1  -4  458.57    5.13
   1  -1  -3   30.86    1.06
   1  -1  -2  474.89    4.19
   1  -1  -1  298.96    2.76
   1  -1   0  996.18    7.26
   1  -1   1 1027.32    7.47
   1  -1   2   37.01    0.90
   1  -1   3  118.38    1.95
   1  -1   4   62.95    1.56
   1  -1   5  168.91    2.99
   1  -1   6  379.69    5.13
   1  -1   7   32.34    1.61
   1  -1   8  217.89    4.63
   1  -1   9   12.11    1.27
   1  -2 -11   19.08    1.66
   1  -2 -10  172.91    4.70
   1  -2  -9    3.57    0.83
   1  -2  -8  126.00    3.43
   1  -2  -7  126.29    3.12
   1  -2  -6  131.02    3.04
   1  -2  -5  296.64    4.06
   1  -2  -4    7.70    0.55
   1  -2  -3  373.99    4.00
   1  -2  -2  213.79    2.65
   1  -2  -1  191.72    2.40
   1  -2   0  500.35    4.60
   1  -2   1   18.86    0.78
   1  -2   2    5.67    0.45
   1  -2   3  139.63    2.40
   1  -2   4   11.51    0.76
   1  -2   5  578.59    6.67
   1  -2   6    5.99    0.78
   1  -2   7  200.17    4.22
   1  -2   8  116.40    3.51
   1  -2   9   16.67    1.51
   1  -3 -10   53.75    2.62
   1  -3  -9    3.53    0.88
   1  -3  -8    0.39    0.55
   1  -3  -7   10.10    0.92
   1  -3  -6    4.29    0.57
   1  -3  -5   45.45    1.53
   1  -3  -4    9.50    0.69
   1  -3  -3    4.85    0.47
   1  -3  -2   57.44    1.49
   1  -3  -1    4.43    0.45
   1  -3   0   57.73    1.52
   1  -3   1  106.64    2.13
   1  -3   2   47.39    1.41
   1  -3   3   39.90    1.40
   1  -3   4   52.54    1.72
   1  -3   5   29.92    1.48
   1  -3   6   88.02    2.72
   1  -3   7   19.23    1.39
   1  -3   8    0.16    0.59
   1  -3   9   20.81    1.77
   1  -4 -10   10.40    1.31
   1  -4  -9  140.24    4.15
   1  -4  -8   14.49    1.16
   1  -4  -7  105.40    2.88
   1  -4  -6   39.64    1.66
   1  -4  -5   25.73    1.26
   1  -4  -4   25.12    1.13
   1  -4  -3  151.21    2.75
   1  -4  -2  100.37    2.32
   1  -4  -1  293.01    4.11
   1  -4   0    9.65    0.70
   1  -4   1   77.87    2.00
   1  -4   2    7.51    0.69
   1  -4   3   47.20    1.65
   1  -4   4  142.31    3.14
   1  -4   5   16.70    1.18
   1  -4   6   38.57    1.85
   1  -4   7    0.51    0.57
   1  -4   8   27.13    1.92
   1  -4   9    1.09    0.81
   1  -5 -10  165.37    4.91
   1  -5  -9   59.86    2.58
   1  -5  -8   81.86    2.84
   1  -5  -7  142.64    3.45
   1  -5  -6   25.91    1.41
   1  -5  -5  140.90    2.99
   1  -5  -4  127.53    2.73
   1  -5  -3  103.38    2.51
   1  -5  -2  705.98    7.57
   1  -5  -1   57.52    1.91
   1  -5   0  516.70    6.02
   1  -5   1  144.50    3.05
   1  -5   2  277.87    4.20
   1  -5   3  175.26    3.50
   1  -5   4    7.48    0.80
   1  -5   5  165.23    3.88
   1  -5   6   55.14    2.42
   1  -5   7   24.61    1.76
   1  -5   8   42.40    2.45
   1  -5   9    1.61    0.92
   1  -5  10   87.01    4.04
   1  -6 -10   48.91    2.59
   1  -6  -9    5.63    0.99
   1  -6  -8  174.61    4.21
   1  -6  -7    6.35    0.80
   1  -6  -6  160.59    3.64
   1  -6  -5  114.19    2.95
   1  -6  -4    4.13    0.62
   1  -6  -3  252.48    4.31
   1  -6  -2   15.52    1.07
   1  -6  -1  167.04    3.50
   1  -6   0  170.75    3.45
   1  -6   1   22.05    1.33
   1  -6   2  181.78    3.80
   1  -6   3   44.81    1.95
   1  -6   4  137.00    3.46
   1  -6   5   81.69    2.92
   1  -6   6   13.05    1.24
   1  -6   7  136.73    4.23
   1  -6   8    3.35    0.96
   1  -6   9   14.67    1.75
   1  -6  10   25.04    2.38
   1  -7 -10    5.21    1.23
   1  -7  -9    1.01    0.74
   1  -7  -8    2.52    0.82
   1  -7  -7    8.96    1.10
   1  -7  -6    5.63    0.81
   1  -7  -5    0.47    0.36
   1  -7  -4    2.89    0.55
   1  -7  -3    3.53    0.71
   1  -7  -2   11.62    0.99
   1  -7  -1   63.35    2.29
   1  -7   0   13.19    1.10
   1  -7   1   31.06    1.58
   1  -7   2   21.01    1.40
   1  -7   3    4.60    0.73
   1  -7   4   34.94    1.93
   1  -7   5    1.12    0.50
   1  -7   6   18.20    1.53
   1  -7   7    8.35    1.23
   1  -7   8    0.79    0.78
   1  -7   9   10.54    1.56
   1  -7  10    0.80    0.77
   1  -8  -9   18.17    1.76
   1  -8  -8    4.99    1.07
   1  -8  -7   72.39    2.87
   1  -8  -6   47.87    2.29
   1  -8  -5   25.63    1.64
   1  -8  -4   45.21    2.10
   1  -8  -3    5.63    0.81
   1  -8  -2   39.12    1.88
   1  -8  -1    5.33    0.86
   1  -8   0    2.16    0.60
   1  -8   1   32.09    1.71
   1  -8   2    1.05    0.59
   1  -8   3   26.52    1.69
   1  -8   4    0.59    0.43
   1  -8   5    8.15    1.01
   1  -8   6    6.45    1.04
   1  -8   7    1.55    0.82
   1  -8   8   13.40    1.68
   1  -8   9    0.20    0.72
   1  -8  10    0.26    0.83
   1  -9  -9   19.44    1.88
   1  -9  -8   51.05    2.72
   1  -9  -7   93.02    3.40
   1  -9  -6   13.19    1.34
   1  -9  -5  120.59    3.67
   1  -9  -4    1.72    0.69
   1  -9  -3   81.11    3.13
   1  -9  -2  197.86    4.54
   1  -9  -1   34.25    2.01
   1  -9   0  180.94    4.43
   1  -9   1    1.42    0.53
   1  -9   2   33.17    1.84
   1  -9   3   18.31    1.52
   1  -9   4    8.39    1.16
   1  -9   5   32.10    2.21
   1  -9   6   10.72    1.32
   1  -9   7   15.03    1.66
   1  -9   8   20.69    2.12
   1  -9   9    1.33    0.82
   1 -10  -9   15.61    1.83
   1 -10  -8   57.45    2.99
   1 -10  -7    2.79    0.77
   1 -10  -6   84.98    3.28
   1 -10  -5   30.91    1.94
   1 -10  -4   13.09    1.31
   1 -10  -3  121.02    3.85
   1 -10  -2    0.96    0.54
   1 -10  -1  109.94    3.60
   1 -10   0   35.89    2.12
   1 -10   1   30.66    2.01
   1 -10   2   63.80    2.77
   1 -10   3   -0.24    0.39
   1 -10   4   69.57    3.23
   1 -10   5    9.66    1.38
   1 -10   6    8.91    1.40
   1 -10   7   12.67    1.65
   1 -11  -9    0.68    0.89
   1 -11  -8    1.05    0.93
   1 -11  -7    0.98    0.67
   1 -11  -6   11.05    1.41
   1 -11  -5    1.25    0.73
   1 -11  -4    3.36    0.89
   1 -11  -3   -0.22    0.70
   1 -11  -2    7.34    1.16
   1 -11  -1    2.18    0.77
   1 -11   0    2.13    0.81
   1 -11   1    5.83    1.09
   1 -11   2    3.13    0.89
   1 -11   3    1.25    0.62
   1 -11   4    8.27    1.16
   1 -11   5   -0.27    0.49
   1 -11   6    8.76    1.49
   1 -12  -8    2.31    1.18
   1 -12  -7   20.52    2.03
   1 -12  -6    1.33    0.94
   1 -12  -5   16.34    1.65
   1 -12  -4    4.89    0.94
   1 -12  -3    3.00    0.99
   1 -12  -2   10.53    1.37
   1 -12  -1    2.48    0.72
   1 -12   0    6.79    1.07
   1 -12   1    1.88    0.72
   1 -12   2    1.34    0.66
   1 -12   3    5.07    1.07
   1 -12   4    4.01    1.05
   1 -13  -5   38.28    2.59
   1 -13  -4    0.14    0.66
   1 -13  -3   34.56    2.28
   1 -13  -2    8.25    1.40
   1 -13  -1    6.80    1.16
   1 -13   0   21.71    1.85
  -2 -13   2    1.44    0.66
  -2 -13   1   29.57    2.07
  -2 -13   0    3.87    0.99
  -2 -13  -1   49.23    2.88
  -2 -13  -2   32.72    2.35
  -2 -13  -3   14.21    1.61
  -2 -13  -4   31.32    2.40
  -2 -12   3    0.20    0.53
  -2 -12   2    0.86    0.75
  -2 -12   1    0.15    0.51
  -2 -12   0    8.48    1.16
  -2 -12  -1    0.74    0.56
  -2 -12  -2    0.31    0.80
  -2 -12  -3    1.31    0.90
  -2 -12  -4    2.15    0.86
  -2 -11   6   -0.11    0.71
  -2 -11   5    5.08    0.94
  -2 -11   4    5.20    0.96
  -2 -11   3    2.82    0.68
  -2 -11   2   12.91    1.29
  -2 -11   1    1.66    0.73
  -2 -11   0   12.98    1.32
  -2 -11  -1    2.96    0.68
  -2 -11  -2    5.73    0.99
  -2 -11  -3   17.47    1.55
  -2 -11  -4    0.47    0.66
  -2 -10   8   32.60    2.37
  -2 -10   7   12.83    1.54
  -2 -10   6   31.23    2.15
  -2 -10   5   16.93    1.57
  -2 -10   4    9.61    1.20
  -2 -10   3   88.55    3.28
  -2 -10   2    7.15    1.05
  -2 -10   1  111.85    3.42
  -2 -10   0   70.43    2.85
  -2 -10  -1    0.07    0.41
  -2 -10  -2   91.20    3.14
  -2 -10  -3   11.10    1.23
  -2 -10  -4  128.73    3.75
  -2 -10  -5   89.76    3.30
  -2  -9   9   18.13    1.86
  -2  -9   8    2.99    0.84
  -2  -9   7   14.78    1.57
  -2  -9   6   57.31    2.81
  -2  -9   5    1.54    0.58
  -2  -9   4   90.74    3.17
  -2  -9   3   13.47    1.21
  -2  -9   2   40.93    2.07
  -2  -9   1  131.70    3.67
  -2  -9   0    4.62    0.73
  -2  -9  -1  112.52    3.37
  -2  -9  -2   67.33    2.45
  -2  -9  -3   60.55    2.54
  -2  -9  -4  322.58    5.78
  -2  -9  -5   11.27    1.20
  -2  -8  10    0.18    0.88
  -2  -8   9    1.10    0.69
  -2  -8   8    0.43    0.53
  -2  -8   7   17.33    1.62
  -2  -8   6    4.75    0.92
  -2  -8   5    8.72    1.04
  -2  -8   4    1.19    0.48
  -2  -8   3   13.85    1.19
  -2  -8   2   16.69    1.26
  -2  -8   1   23.27    1.49
  -2  -8   0   12.85    1.08
  -2  -8  -1    5.39    0.74
  -2  -8  -2    0.09    0.48
  -2  -8  -3    0.87    0.44
  -2  -8  -4   -0.55    0.48
  -2  -8  -5   -0.29    0.47
  -2  -7  11    2.19    0.95
  -2  -7  10   27.85    2.39
  -2  -7   9    0.72    0.65
  -2  -7   8   12.80    1.44
  -2  -7   7    2.50    0.70
  -2  -7   6    8.58    1.07
  -2  -7   5   45.60    2.27
  -2  -7   4    0.13    0.36
  -2  -7   3   89.61    2.76
  -2  -7   2   16.45    1.17
  -2  -7   1   17.63    1.20
  -2  -7   0   24.08    1.34
  -2  -7  -1    4.39    0.63
  -2  -7  -2  124.41    3.03
  -2  -7  -3   19.66    1.20
  -2  -7  -4    0.99    0.44
  -2  -7  -5   89.38    2.38
  -2  -7  -5   85.64    2.39
  -2  -6  12    3.68    1.14
  -2  -6  11   47.96    3.10
  -2  -6  10    5.53    1.15
  -2  -6   9   48.40    2.88
  -2  -6   8   32.91    2.22
  -2  -6   7    5.06    1.01
  -2  -6   6   32.07    1.90
  -2  -6   5   50.05    2.18
  -2  -6   4  152.83    3.60
  -2  -6   3  306.13    5.08
  -2  -6   2    0.39    0.32
  -2  -6   1  235.59    4.05
  -2  -6   0  132.11    2.86
  -2  -6  -1  193.72    3.46
  -2  -6  -2  707.26    7.30
  -2  -6  -3    0.71    0.38
  -2  -6  -4  355.03    4.54
  -2  -6  -6   63.92    1.85
  -2  -5  12   10.72    1.62
  -2  -5  11   18.32    1.92
  -2  -5  10   11.21    1.47
  -2  -5   9   91.73    3.71
  -2  -5   8   13.36    1.33
  -2  -5   7  161.19    4.25
  -2  -5   6   52.15    2.25
  -2  -5   5   16.86    1.19
  -2  -5   4  136.54    3.22
  -2  -5   3   60.29    2.09
  -2  -5   2  197.53    3.58
  -2  -5   1  353.05    4.85
  -2  -5   0    3.55    0.47
  -2  -5  -1  615.45    6.18
  -2  -5  -2   43.84    1.44
  -2  -5  -3  227.41    3.36
  -2  -5  -4  177.72    2.88
  -2  -5  -5   80.93    1.77
  -2  -5  -6  366.23    4.36
  -2  -4  13   -0.41    1.11
  -2  -4  12    1.63    1.04
  -2  -4  11   -0.19    0.72
  -2  -4  10   14.35    1.54
  -2  -4   9    9.45    1.14
  -2  -4   8   13.14    1.28
  -2  -4   7    7.83    0.90
  -2  -4   6    1.19    0.40
  -2  -4   5   12.80    1.00
  -2  -4   4    0.35    0.33
  -2  -4   3   40.98    1.54
  -2  -4   2   38.90    1.44
  -2  -4   1    1.81    0.40
  -2  -4   0    1.48    0.30
  -2  -4  -1   22.85    0.94
  -2  -4  -2    4.08    0.39
  -2  -4  -3  157.20    2.40
  -2  -4  -5  129.54    2.02
  -2  -4  -6    1.53    0.39
  -2  -3  13    4.38    1.11
  -2  -3  12    0.67    0.86
  -2  -3  11   11.33    1.51
  -2  -3  10   37.68    2.33
  -2  -3   9   14.02    1.40
  -2  -3   8  106.50    3.35
  -2  -3   7    4.04    0.66
  -2  -3   6   50.65    2.03
  -2  -3   5   56.03    1.94
  -2  -3   4   15.38    0.96
  -2  -3   3  208.41    3.37
  -2  -3   2   17.43    0.88
  -2  -3   1  133.24    2.26
  -2  -3   0   62.61    1.42
  -2  -3  -1   73.95    1.50
  -2  -3  -2   93.07    1.54
  -2  -3  -3    9.73    0.43
  -2  -3  -5   15.34    0.69
  -2  -3  -6    7.73    0.63
  -2  -2  13   23.45    2.36
  -2  -2  12   31.19    2.51
  -2  -2  11  126.79    4.60
  -2  -2  10    0.41    0.55
  -2  -2   9   74.46    2.84
  -2  -2   8  110.02    3.40
  -2  -2   7   13.92    1.20
  -2  -2   6  236.95    4.41
  -2  -2   5    3.67    0.51
  -2  -2   4  600.87    6.78
  -2  -2   3  724.19    7.19
  -2  -2   2  199.06    3.01
  -2  -2   1  641.11    5.87
  -2  -2   0    6.75    0.43
  -2  -2  -1  158.06    1.91
  -2  -2  -2  107.42    1.31
  -2  -2  -5  102.95    1.70
  -2  -2  -6  231.31    2.98
  -2  -1  13    0.50    0.97
  -2  -1  12   47.20    2.92
  -2  -1  11   33.51    2.58
  -2  -1  10   54.73    3.08
  -2  -1   9   79.07    3.25
   2   1  -8    1.66    0.55
   2   1  -7  117.00    3.20
   2   1  -6  188.86    3.67
   2   1  -5   47.76    1.66
   2   1  -4  769.32    7.44
   2   1  -3   72.67    1.90
   2   1  -2  909.23    7.62
   2   1  -1  139.90    2.12
   2   1   0  159.47    2.03
   2   1   4  154.06    1.77
   2   1   5  224.59    2.65
   2   1   6  350.42    4.18
   2   1   7    1.90    0.45
  -2   0  13    0.18    1.10
  -2   0  12    0.18    0.62
   2   0 -10    3.86    0.86
   2   0  -9   11.53    1.19
   2   0  -8    9.56    0.95
   2   0  -7   58.16    2.28
   2   0  -6    2.62    0.56
   2   0  -5    5.70    0.67
   2   0  -4    8.49    0.71
   2   0  -3  258.27    3.50
   2   0  -2   30.13    1.07
   2   0  -1    2.91    0.30
   2   0   0  372.92    3.24
   2   0   1   51.38    0.86
   2   0   2 1649.95   12.28
   2   0   3    7.65    0.36
   2   0   4  106.57    1.63
   2   0   5   91.26    1.78
   2   0   6    3.97    0.54
   2  -1 -12    0.44    0.94
   2  -1 -11   72.86    3.13
   2  -1 -10   49.57    2.52
   2  -1  -9   41.40    2.22
   2  -1  -8   14.29    1.15
   2  -1  -7    0.18    0.44
   2  -1  -6  129.75    3.18
   2  -1  -5  138.90    2.87
   2  -1  -4   22.83    1.08
   2  -1  -3  237.53    3.42
   2  -1  -2   54.50    1.29
   2  -1  -1   17.23    0.72
   2  -1   0   88.63    1.51
   2  -1   1 1596.17   10.93
   2  -1   2  158.52    2.20
   2  -1   3    1.13    0.24
   2  -1   4    1.08    0.28
   2  -1   5    0.80    0.34
   2  -1   6   17.73    1.06
   2  -1   7    4.90    0.70
   2  -1   8    0.30    0.50
   2  -2 -12   32.30    2.15
   2  -2 -11  150.15    4.77
   2  -2 -10    1.12    0.59
   2  -2  -9  277.95    5.63
   2  -2  -8   20.78    1.53
   2  -2  -7  175.75    3.80
   2  -2  -6  288.78    4.70
   2  -2  -5   43.36    1.65
   2  -2  -4  275.98    3.95
   2  -2  -3   27.27    1.08
   2  -2  -2  162.98    2.58
   2  -2  -1  247.27    3.12
   2  -2   0  189.82    2.67
   2  -2   1  510.03    5.19
   2  -2   2  155.32    2.47
   2  -2   3  172.02    2.67
   2  -2   4  171.79    2.95
   2  -2   5   20.49    1.09
   2  -2   6  204.37    3.75
   2  -2   7    5.97    0.82
   2  -3 -12   46.47    2.73
   2  -3 -11    0.58    0.57
   2  -3 -10   71.56    3.00
   2  -3  -9   72.46    2.83
   2  -3  -8    0.81    0.44
   2  -3  -7  151.07    3.59
   2  -3  -6   15.39    1.10
   2  -3  -5  366.82    4.84
   2  -3  -4  417.44    5.16
   2  -3  -3  161.68    2.90
   2  -3  -2  461.49    5.03
   2  -3  -1   76.42    1.92
   2  -3   0  413.55    4.85
   2  -3   1  159.30    2.96
   2  -3   2  176.22    2.96
   2  -3   3  393.82    5.00
   2  -3   4   34.02    1.42
   2  -3   5  302.72    4.63
   2  -3   6  117.40    3.05
   2  -3   7   38.07    1.90
   2  -3   8   94.00    3.20
   2  -4 -12    0.68    0.98
   2  -4 -11    0.93    0.92
   2  -4 -10   44.21    2.45
   2  -4  -9    2.65    0.84
   2  -4  -8   -0.27    0.50
   2  -4  -7    2.27    0.55
   2  -4  -6    4.56    0.61
   2  -4  -5   83.67    2.41
   2  -4  -4    2.81    0.47
   2  -4  -3  136.44    2.91
   2  -4  -2  194.03    3.29
   2  -4  -1  159.26    3.20
   2  -4   0  215.01    3.78
   2  -4   1   29.16    1.39
   2  -4   2  177.10    3.28
   2  -4   3  114.63    2.78
   2  -4   4   40.85    1.75
   2  -4   5   94.62    2.77
   2  -4   6    3.93    0.72
   2  -4   7   23.41    1.58
   2  -4   8    3.45    0.82
   2  -5 -11   16.76    1.63
   2  -5 -10    7.40    1.29
   2  -5  -9   16.00    1.44
   2  -5  -8   42.22    2.14
   2  -5  -7   -0.38    0.44
   2  -5  -6   93.58    2.86
   2  -5  -5    3.34    0.62
   2  -5  -4    3.32    0.55
   2  -5  -3   65.75    2.15
   2  -5  -2    1.53    0.41
   2  -5  -1  127.41    3.13
   2  -5   0    7.63    0.79
   2  -5   1   27.06    1.46
   2  -5   2    2.85    0.56
   2  -5   3    0.19    0.33
   2  -5   4   24.04    1.38
   2  -5   5    3.73    0.66
   2  -5   6   11.24    1.14
   2  -5   7    8.80    1.14
   2  -5   8    3.84    0.93
   2  -6 -11   67.32    3.50
   2  -6 -10   16.07    1.56
   2  -6  -9  135.39    4.38
   2  -6  -8    4.82    0.90
   2  -6  -7  174.33    4.32
   2  -6  -6   32.93    1.84
   2  -6  -5   47.93    2.04
   2  -6  -4  213.51    4.16
   2  -6  -3    0.31    0.32
   2  -6  -2  338.70    5.32
   2  -6  -1   78.95    2.50
   2  -6   0  103.23    3.00
   2  -6   1  176.51    3.97
   2  -6   2    0.01    0.39
   2  -6   3   66.89    2.48
   2  -6   4   84.62    2.91
   2  -6   5   15.52    1.27
   2  -6   6   47.67    2.44
   2  -6   7    0.89    0.67
   2  -6   8   38.65    2.47
   2  -7 -11    0.08    0.96
   2  -7 -10   96.20    4.19
   2  -7  -9    7.48    1.20
   2  -7  -8   60.94    2.92
   2  -7  -7  125.45    3.95
   2  -7  -6    1.15    0.66
   2  -7  -5  330.06    5.93
   2  -7  -4   47.59    2.14
   2  -7  -3  119.87    3.35
   2  -7  -2  200.22    4.51
   2  -7  -1   15.04    1.20
   2  -7   0  203.61    4.51
   2  -7   1   18.14    1.42
   2  -7   2   40.95    1.95
   2  -7   3  140.90    3.67
   2  -7   4    0.57    0.49
   2  -7   5   93.69    3.42
   2  -7   6   11.73    1.31
   2  -7   7   30.88    2.10
   2  -7   8   22.03    2.01
   2  -8 -11    3.22    1.26
   2  -8 -10    2.27    1.05
   2  -8  -9    5.82    1.22
   2  -8  -8   25.64    1.93
   2  -8  -7    2.47    0.75
   2  -8  -6   13.31    1.30
   2  -8  -5   21.34    1.56
   2  -8  -4   15.92    1.34
   2  -8  -3   30.06    1.79
   2  -8  -2    2.52    0.63
   2  -8  -1    6.08    0.86
   2  -8   0   53.06    2.39
   2  -8   1    2.68    0.63
   2  -8   2   23.17    1.64
   2  -8   3    2.88    0.72
   2  -8   4   26.24    1.87
   2  -8   5   29.15    2.07
   2  -8   6    3.91    0.97
   2  -8   7   12.75    1.65
   2  -8   8    1.39    0.90
   2  -9 -10    2.44    1.11
   2  -9  -9    5.18    1.12
   2  -9  -8    7.16    1.32
   2  -9  -7    9.00    1.29
   2  -9  -6   11.47    1.29
   2  -9  -5    4.49    0.93
   2  -9  -4    0.32    0.48
   2  -9  -3    0.31    0.45
   2  -9  -2    0.95    0.53
   2  -9  -1   14.24    1.33
   2  -9   0    9.00    1.08
   2  -9   1   21.93    1.66
   2  -9   2   33.43    2.10
   2  -9   3    0.13    0.45
   2  -9   4   16.56    1.52
   2  -9   5    0.34    0.48
   2  -9   6    2.53    0.97
   2  -9   7    0.78    0.72
   2  -9   8    0.65    1.02
   2 -10 -10   31.00    2.56
   2 -10  -9   37.20    2.71
   2 -10  -8    5.62    1.37
   2 -10  -7   52.57    2.87
   2 -10  -6    5.45    1.09
   2 -10  -5   44.09    2.51
   2 -10  -4   49.73    2.52
   2 -10  -3    0.02    0.45
   2 -10  -2  112.20    3.91
   2 -10  -1    7.21    1.14
   2 -10   0   24.35    1.81
   2 -10   1   57.38    2.81
   2 -10   2    2.92    0.73
   2 -10   3   21.25    1.84
   2 -10   4    1.29    0.63
   2 -10   5    6.41    1.07
   2 -10   7    1.74    1.00
   2 -11  -9    2.57    1.23
   2 -11  -8   41.90    2.91
   2 -11  -7   13.47    1.61
   2 -11  -6   23.40    2.00
   2 -11  -5   44.76    2.64
   2 -11  -4    4.40    0.96
   2 -11  -3   21.32    1.77
   2 -11  -2   36.85    2.32
   2 -11  -1    8.71    1.29
   2 -11   0   30.99    2.06
   2 -11   1    1.14    0.59
   2 -11   2   17.87    1.71
   2 -11   3   28.96    2.27
   2 -11   4    8.45    1.40
   2 -11   5   18.40    1.89
   2 -12  -7    1.47    1.08
   2 -12  -6    8.98    1.38
   2 -12  -5   -0.42    0.88
   2 -12  -4    1.87    0.72
   2 -12  -3    6.31    1.06
   2 -12  -2    0.92    0.77
   2 -12  -1   10.09    1.36
   2 -12   0    0.10    0.65
   2 -12   1    3.34    0.81
   2 -12   2    9.99    1.46
   2 -12   3    0.39    0.62
  -3 -13   1    2.21    0.76
  -3 -13   0   35.06    2.23
  -3 -13  -1   23.05    1.92
  -3 -13  -2   17.57    1.85
  -3 -13  -3   66.03    3.40
  -3 -12   4    2.09    0.67
  -3 -12   3   49.51    2.52
  -3 -12   2    7.48    1.09
  -3 -12   1   34.34    2.26
  -3 -12   0   53.89    2.84
  -3 -12  -1    9.91    1.23
  -3 -12  -2   67.52    3.09
  -3 -12  -3    8.99    1.27
  -3 -11   6    3.21    0.89
  -3 -11   5    0.59    0.54
  -3 -11   4    3.96    0.91
  -3 -11   3    3.34    0.84
  -3 -11   2    6.68    0.97
  -3 -11   1   21.62    1.61
  -3 -11   0    0.17    0.47
  -3 -11  -1   43.24    2.37
  -3 -11  -2    8.73    1.07
  -3 -11  -3    6.45    1.14
  -3 -10   8    0.40    0.57
  -3 -10   7    4.69    1.01
  -3 -10   6    2.24    0.69
  -3 -10   5    3.78    0.85
  -3 -10   4    4.04    0.74
  -3 -10   3    0.41    0.41
  -3 -10   2    4.44    0.84
  -3 -10   1    0.33    0.45
  -3 -10   0    1.63    0.50
  -3 -10  -1   25.58    1.76
  -3 -10  -2    3.43    0.67
  -3 -10  -3    3.77    0.75
  -3 -10  -4    7.86    1.14
  -3  -9   9    4.47    0.95
  -3  -9   8   29.44    2.09
  -3  -9   7   54.09    2.75
  -3  -9   6    5.07    0.86
  -3  -9   5   52.23    2.48
  -3  -9   4    2.82    0.65
  -3  -9   3   85.31    3.03
  -3  -9   2  141.97    3.78
  -3  -9   1   44.68    2.13
  -3  -9   0  150.71    3.94
  -3  -9  -1   10.03    1.00
  -3  -9  -2   53.81    2.34
  -3  -9  -3   57.13    2.28
  -3  -9  -4   25.65    1.61
  -3  -8  10    3.82    0.96
  -3  -8   9   11.07    1.42
  -3  -8   8   67.12    3.09
  -3  -8   7    0.24    0.46
  -3  -8   6  105.49    3.59
  -3  -8   5   34.81    1.98
  -3  -8   4   37.62    2.01
  -3  -8   3  123.79    3.42
  -3  -8   2    0.95    0.43
  -3  -8   1  148.85    3.70
  -3  -8   0   89.64    2.79
  -3  -8  -1   21.51    1.39
  -3  -8  -2  225.31    4.49
  -3  -8  -3    6.17    0.78
  -3  -8  -4  300.58    5.03
  -3  -7  11    4.98    1.05
  -3  -7  10    0.37    0.53
  -3  -7   9    3.68    0.98
  -3  -7   8    3.75    0.81
  -3  -7   7    9.71    1.20
  -3  -7   6   52.05    2.36
  -3  -7   5    2.79    0.60
  -3  -7   4    7.29    0.90
  -3  -7   3   10.37    0.99
  -3  -7   2   52.71    2.08
  -3  -7   1   84.31    2.55
  -3  -7   0   11.69    0.96
  -3  -7  -1   93.83    2.66
  -3  -7  -2   19.01    1.13
  -3  -7  -3   46.62    1.77
  -3  -7  -4   71.48    2.15
  -3  -6  11    0.80    0.79
  -3  -6  10   24.12    1.94
  -3  -6   9    9.66    1.15
  -3  -6   8    8.16    1.08
  -3  -6   7   20.67    1.53
  -3  -6   6    5.14    0.85
  -3  -6   5   19.71    1.33
  -3  -6   4   26.10    1.48
  -3  -6   3   10.22    0.96
  -3  -6   2   16.58    1.10
  -3  -6   1    0.56    0.41
  -3  -6   0    3.70    0.52
  -3  -6  -1    0.20    0.34
  -3  -6  -2    6.52    0.67
  -3  -6  -3   18.85    1.08
  -3  -6  -4   18.09    0.97
  -3  -5  11   12.95    1.48
  -3  -5  10   51.61    2.67
  -3  -5   9    1.31    0.53
  -3  -5   8   42.23    2.06
  -3  -5   7   46.49    2.07
  -3  -5   6   27.67    1.52
  -3  -5   5  212.45    3.99
  -3  -5   4   13.42    1.00
  -3  -5   3  459.35    5.92
  -3  -5   2   89.82    2.35
  -3  -5   1   77.06    2.18
  -3  -5   0  103.08    2.40
  -3  -5  -1    1.26    0.39
  -3  -5  -2  383.90    4.55
  -3  -5  -3  164.50    2.75
  -3  -5  -4   51.94    1.41
  -3  -4  13   21.80    2.16
  -3  -4  12    2.55    0.91
  -3  -4  11   48.70    2.68
  -3  -4  10    9.85    1.14
  -3  -4   9   61.90    2.65
  -3  -4   8  126.66    3.52
  -3  -4   7   14.64    1.15
  -3  -4   6  149.47    3.34
  -3  -4   5   21.22    1.18
  -3  -4   4  185.23    3.42
  -3  -4   3  161.96    3.07
  -3  -4   2   22.88    1.06
  -3  -4   1  389.62    4.65
  -3  -4   0   78.84    1.85
  -3  -4  -1  706.78    6.42
  -3  -4  -2  236.93    3.12
  -3  -4  -3  209.55    2.67
  -3  -3  13    1.38    0.71
  -3  -3  12    1.57    0.82
  -3  -3  11    1.63    0.73
  -3  -3  10    0.35    0.59
  -3  -3   9   55.58    2.37
  -3  -3   8   15.25    1.14
  -3  -3   7   28.59    1.54
  -3  -3   6    8.42    0.85
  -3  -3   5   17.07    1.02
  -3  -3   4   49.78    1.64
  -3  -3   3    6.26    0.61
  -3  -3   2  275.85    3.54
  -3  -3   1   30.62    1.11
  -3  -3   0   21.41    0.87
  -3  -3  -1   29.85    0.97
  -3  -3  -2   16.34    0.67
  -3  -3  -3  311.84    2.92
  -3  -2  13    6.45    1.31
  -3  -2  12    9.55    1.30
  -3  -2  11    0.40    0.44
  -3  -2  10   38.76    2.31
  -3  -2   9    5.26    0.83
  -3  -2   8   42.87    2.06
   3   2  -6    0.22    0.35
   3   2  -5   12.69    1.04
   3   2  -4    3.08    0.49
   3   2  -3   29.82    1.32
   3   2  -2    0.89    0.28
   3   2  -1    2.03    0.33
   3   2   0   14.03    0.78
  -3  -2  -1    5.96    0.41
  -3  -1  14    6.05    1.37
  -3  -1  13   49.43    3.09
  -3  -1  12    1.52    0.93
  -3  -1  11   71.09    3.33
   3   1  -9    9.68    1.25
   3   1  -8   80.38    2.84
   3   1  -7    1.01    0.41
   3   1  -6   84.84    2.54
   3   1  -5  107.43    2.82
   3   1  -4    3.74    0.52
   3   1  -3  375.65    4.72
   3   1  -2   33.95    1.27
   3   1  -1  167.65    2.66
   3   1   0  205.75    2.90
   3   1   1   16.15    0.68
   3   1   2  664.38    5.58
  -3   0  14   35.10    3.06
  -3   0  13   13.11    1.54
   3   0 -11   69.91    3.22
   3   0 -10   -0.24    0.59
   3   0  -9  111.78    3.37
   3   0  -8   55.26    2.41
   3   0  -7   93.08    2.78
   3   0  -6  195.74    3.98
   3   0  -5    0.02    0.36
   3   0  -4  664.92    7.21
   3   0  -3   81.62    2.00
   3   0  -2  130.81    2.55
   3   0  -1  301.81    3.56
   3   0   0   22.79    0.83
   3   0   1  405.06    3.81
   3   0   2  305.89    2.97
   3   0   3  471.57    4.01
   3   0   4  480.96    4.42
   3   0   5    3.62    0.43
  -3   1  14   11.51    2.00
   3  -1 -13    1.25    0.96
   3  -1 -12    9.37    1.35
   3  -1 -11    0.23    0.70
   3  -1 -10   14.30    1.48
   3  -1  -9   24.53    1.66
   3  -1  -8    5.67    0.87
   3  -1  -7  109.66    3.20
   3  -1  -6    0.00    0.36
   3  -1  -5   34.23    1.49
   3  -1  -4   40.00    1.56
   3  -1  -3   80.93    2.19
   3  -1  -2  138.89    2.59
   3  -1  -1   38.33    1.25
   3  -1   0    0.80    0.26
   3  -1   1  629.33    5.56
   3  -1   2    0.69    0.24
   3  -1   3  333.13    3.84
   3  -1   4   71.02    1.67
   3  -1   5   21.65    1.00
   3  -2 -13    0.62    0.89
   3  -2 -12    6.71    1.26
   3  -2 -11    0.00    0.51
   3  -2 -10   27.02    1.96
   3  -2  -9    2.41    0.75
   3  -2  -8    1.09    0.60
   3  -2  -7    9.12    1.00
   3  -2  -6    8.24    0.89
   3  -2  -5   33.59    1.51
   3  -2  -4   50.33    1.80
   3  -2  -3   17.81    1.00
   3  -2  -2   15.22    0.94
   3  -2  -1   29.50    1.19
   3  -2   0    2.57    0.37
   3  -2   1   53.63    1.58
   3  -2   1   53.73    1.58
   3  -2   3   79.12    2.04
   3  -2   4    0.83    0.31
   3  -2   5    1.55    0.43
   3  -3 -13   35.49    2.59
   3  -3 -12    2.72    0.95
   3  -3 -11   86.33    3.61
   3  -3 -10   10.46    1.41
   3  -3  -9   57.90    2.59
   3  -3  -8    9.28    1.15
   3  -3  -7    5.07    0.75
   3  -3  -6  273.13    5.20
   3  -3  -5  109.89    2.89
   3  -3  -4  252.14    4.31
   3  -3  -3  243.92    4.16
   3  -3  -2    6.47    0.65
   3  -3  -1  486.15    5.70
   3  -3   0   46.09    1.65
   3  -3   1  288.04    4.54
   3  -3   2  344.23    5.02
   3  -3   3   38.30    1.65
   3  -3   4  124.62    2.82
   3  -3   5   12.24    1.03
   3  -3   6   43.19    1.79
   3  -4 -13    2.28    1.00
   3  -4 -12   32.66    2.41
   3  -4 -11   36.63    2.65
   3  -4 -10   24.13    1.86
   3  -4  -9  183.56    5.05
   3  -4  -8   18.29    1.43
   3  -4  -7  106.12    3.40
   3  -4  -6  115.74    3.16
   3  -4  -5   84.69    2.72
   3  -4  -4  593.07    7.53
   3  -4  -3   39.36    1.68
   3  -4  -2  170.47    3.44
   3  -4  -1  398.63    5.40
   3  -4   0   51.75    1.92
   3  -4   1  363.43    5.37
   3  -4   2    5.19    0.75
   3  -4   3  255.19    4.57
   3  -4   4  239.03    4.31
   3  -4   5    9.96    1.04
   3  -4   6  142.36    3.79
   3  -4   7    0.35    0.50
   3  -5 -12   10.12    1.69
   3  -5 -11   -0.56    0.80
   3  -5 -10   41.82    2.63
   3  -5  -9   15.75    1.54
   3  -5  -8   10.00    1.21
   3  -5  -7   22.89    1.58
   3  -5  -6    0.69    0.63
   3  -5  -5  121.90    3.56
   3  -5  -4   96.95    2.92
   3  -5  -3   34.38    1.74
   3  -5  -2   83.99    2.64
   3  -5  -1    5.01    0.74
   3  -5   0  106.74    3.14
   3  -5   1   20.10    1.28
   3  -5   2   75.08    2.55
   3  -5   3  123.03    3.34
   3  -5   4    0.52    0.47
   3  -5   5   10.73    1.16
   3  -5   6    6.21    0.97
   3  -5   7    4.46    0.94
   3  -6 -12    0.65    0.78
   3  -6 -11    0.18    0.98
   3  -6 -10    6.62    1.20
   3  -6  -9    1.01    0.75
   3  -6  -8    7.18    1.13
   3  -6  -7    0.37    0.71
   3  -6  -6    0.64    0.52
   3  -6  -5   17.40    1.38
   3  -6  -4    4.38    0.74
   3  -6  -3    3.40    0.64
   3  -6  -2    0.81    0.38
   3  -6  -1    8.56    0.95
   3  -6   0   35.60    1.92
   3  -6   1    0.77    0.55
   3  -6   2    5.01    0.84
   3  -6   3    0.59    0.59
   3  -6   4    0.08    0.48
   3  -6   5    1.09    0.58
   3  -6   6    2.36    0.79
   3  -6   7    0.01    0.71
   3  -7 -12   11.24    1.63
   3  -7 -11   57.03    3.29
   3  -7 -10    0.53    1.14
   3  -7  -9   54.46    2.97
   3  -7  -8   49.78    2.76
   3  -7  -7   67.86    3.02
   3  -7  -6  119.51    3.95
   3  -7  -5    0.78    0.64
   3  -7  -4   60.48    2.62
   3  -7  -3   85.87    3.04
   3  -7  -2   24.86    1.64
   3  -7  -1  105.26    3.27
   3  -7   0    9.14    1.08
   3  -7   1   51.61    2.37
   3  -7   2   31.81    1.95
   3  -7   3    1.10    0.66
   3  -7   4   53.49    2.56
   3  -7   5    1.19    0.66
   3  -7   6   22.69    1.82
   3  -7   7    6.25    1.24
   3  -8 -12   40.90    3.18
   3  -8 -11   16.16    1.99
   3  -8 -10   29.91    2.44
   3  -8  -9   46.62    2.79
   3  -8  -8    4.92    1.16
   3  -8  -7   68.74    3.30
   3  -8  -6   99.62    3.68
   3  -8  -5   57.70    2.75
   3  -8  -4  155.44    4.24
   3  -8  -3   -0.53    0.42
   3  -8  -2  117.03    3.70
   3  -8  -1   13.88    1.37
   3  -8   0   46.39    2.44
   3  -8   1   61.56    2.63
   3  -8   2    3.84    0.93
   3  -8   3   64.80    2.85
   3  -8   4   28.64    2.09
   3  -8   5   30.49    2.10
   3  -8   6   20.86    1.81
   3  -8   7    5.61    1.13
   3  -9 -11    4.79    1.65
   3  -9 -10   21.38    2.29
   3  -9  -9    0.17    0.74
   3  -9  -8   13.23    1.58
   3  -9  -7   25.17    2.12
   3  -9  -6    0.30    0.80
   3  -9  -5   34.11    2.25
   3  -9  -4   -0.31    0.44
   3  -9  -3   23.05    1.70
   3  -9  -2   12.67    1.33
   3  -9  -1    0.04    0.65
   3  -9   0   94.92    3.62
   3  -9   1    0.47    0.49
   3  -9   2   34.35    2.27
   3  -9   3    6.15    1.10
   3  -9   4    1.36    0.64
   3  -9   5    8.82    1.33
   3  -9   6    0.39    0.79
   3  -9   7    2.34    0.90
   3 -10 -10    1.04    0.92
   3 -10  -9    0.08    0.85
   3 -10  -8    2.31    0.98
   3 -10  -7    0.46    0.70
   3 -10  -6    2.13    0.94
   3 -10  -5    4.73    0.96
   3 -10  -4    0.41    0.55
   3 -10  -3    0.89    0.56
   3 -10  -2    0.29    0.53
   3 -10  -1    0.34    0.52
   3 -10   0   -0.04    0.75
   3 -10   1    0.26    0.51
   3 -10   2    0.39    0.55
   3 -10   3    3.56    1.05
   3 -10   4    5.28    1.10
   3 -10   5    0.55    0.90
   3 -10   6    2.04    1.08
   3 -11  -8    7.07    1.55
   3 -11  -7   19.64    2.01
   3 -11  -6   21.43    2.00
   3 -11  -5    3.05    1.04
   3 -11  -4   22.05    1.90
   3 -11  -3   11.09    1.32
   3 -11  -2   22.28    1.91
   3 -11  -1   20.61    1.83
   3 -11   0    0.77    0.87
   3 -11   1   12.21    1.52
   3 -11   2    2.39    0.78
   3 -11   3    4.93    1.15
   3 -11   4    3.75    1.19
   3 -12  -5   49.33    3.06
   3 -12  -4   23.52    2.10
   3 -12  -2   20.34    1.86
   3 -12  -1    0.14    0.56
   3 -12   0   19.73    1.83
   3 -12   1    5.67    1.18
  -4 -13   1   -0.13    0.78
  -4 -13   0    0.73    0.62
  -4 -13  -1    0.32    0.73
  -4 -12   4   26.34    1.97
  -4 -12   3    0.24    0.67
  -4 -12   2   25.57    1.91
  -4 -12   1   17.55    1.56
  -4 -12   0    6.03    1.01
  -4 -12  -1   48.52    2.66
  -4 -12  -2    1.79    0.78
  -4 -11   5   34.36    2.12
  -4 -11   4   12.54    1.26
  -4 -11   3   14.76    1.39
  -4 -11   2   61.57    2.83
  -4 -11   1   -0.29    0.60
  -4 -11   0   63.13    2.71
  -4 -11  -1   10.69    1.33
  -4 -11  -2   45.08    2.37
  -4 -10   7    3.71    0.86
  -4 -10   6    9.71    1.19
  -4 -10   5   12.38    1.27
  -4 -10   4    8.52    1.03
  -4 -10   3   21.34    1.58
  -4 -10   2    3.58    0.77
  -4 -10   1   36.08    2.07
  -4 -10   0   45.83    2.29
  -4 -10  -1   20.76    1.52
  -4 -10  -2   40.65    2.20
  -4  -9   8    0.94    0.65
  -4  -9   7    1.65    0.67
  -4  -9   6   11.67    1.20
  -4  -9   5    1.16    0.47
  -4  -9   4    0.21    0.36
  -4  -9   3    4.78    0.77
  -4  -9   2   -0.15    0.48
  -4  -9   1    7.36    0.90
  -4  -9   0    3.03    0.64
  -4  -9  -1    5.25    0.86
  -4  -9  -2    6.73    0.92
  -4  -8   9   14.17    1.38
  -4  -8   8    1.16    0.51
  -4  -8   7   51.40    2.36
  -4  -8   6   10.93    1.14
  -4  -8   5   34.00    1.87
  -4  -8   4   44.73    2.10
  -4  -8   3    1.85    0.56
  -4  -8   2  147.84    3.74
  -4  -8   1   44.91    2.03
  -4  -8   0   96.44    2.95
  -4  -8  -1  229.16    4.53
  -4  -8  -2    7.69    0.94
  -4  -8  -3  125.57    3.28
  -4  -7  10   25.78    1.89
  -4  -7   9    4.25    0.80
  -4  -7   8   38.78    2.02
  -4  -7   7   22.87    1.51
  -4  -7   6   31.18    1.68
  -4  -7   5  114.03    3.20
  -4  -7   4    5.64    0.78
  -4  -7   3   88.68    2.72
  -4  -7   2   96.17    2.82
  -4  -7   1  110.28    3.08
  -4  -7   0  137.39    3.26
  -4  -7  -1   -0.10    0.42
  -4  -7  -2  191.76    3.78
  -4  -7  -3  163.49    3.47
  -4  -6  11   12.28    1.33
  -4  -6  10    0.30    0.45
  -4  -6   9    2.89    0.62
  -4  -6   8    6.31    0.85
  -4  -6   7    0.50    0.32
  -4  -6   6   25.53    1.44
  -4  -6   5   16.14    1.13
  -4  -6   4    0.29    0.31
  -4  -6   3   89.82    2.51
  -4  -6   2    1.16    0.42
  -4  -6   1  188.29    3.75
  -4  -6   0   53.17    1.94
  -4  -6  -1  158.73    3.29
  -4  -6  -2  212.36    3.67
  -4  -6  -3    0.49    0.39
  -4  -5  12    1.26    0.72
  -4  -5  11    0.64    0.57
  -4  -5  10    1.30    0.56
  -4  -5   9    2.51    0.52
  -4  -5   8    0.34    0.30
  -4  -5   7    0.39    0.37
  -4  -5   6    0.13    0.32
  -4  -5   5   24.87    1.28
  -4  -5   4    8.43    0.75
  -4  -5   3    0.59    0.27
  -4  -5   2    7.68    0.66
  -4  -5   1    2.26    0.46
  -4  -5   0    2.31    0.46
  -4  -5  -1    2.09    0.44
  -4  -5  -2    9.92    0.73
  -4  -5  -3   -0.05    0.30
  -4  -4  12   14.45    1.38
  -4  -4  11    0.47    0.39
  -4  -4  10   27.60    1.66
  -4  -4   9   15.02    1.12
  -4  -4   8    9.18    0.88
  -4  -4   7   52.35    1.86
  -4  -4   6    1.55    0.35
  -4  -4   5   97.07    2.28
  -4  -4   4   36.56    1.37
  -4  -4   3   30.28    1.22
  -4  -4   2  142.05    2.67
  -4  -4   1    2.26    0.38
  -4  -4   0  142.39    2.55
  -4  -4  -1  203.66    3.15
  -4  -4  -2  226.03    3.13
  -4  -4  -3  251.29    2.99
  -4  -3  13   25.00    1.96
  -4  -3  12    6.12    1.01
  -4  -3  11    8.20    0.94
  -4  -3  10   16.45    1.16
  -4  -3   9    0.94    0.33
  -4  -3   8  146.77    3.27
  -4  -3   7    7.29    0.67
  -4  -3   6   99.40    2.21
  -4  -3   5   70.61    1.66
  -4  -3   4   28.42    1.14
  -4  -3   3  163.93    2.75
  -4  -3   2    7.34    0.53
  -4  -3   1  165.40    2.71
  -4  -3   0  313.38    3.68
  -4  -3  -1   13.15    0.68
  -4  -3  -2  601.47    5.20
  -4  -2  13    2.41    0.80
  -4  -2  12    3.79    0.78
  -4  -2  11    6.48    0.85
  -4  -2  10    0.17    0.38
  -4  -2   9   18.20    1.18
   4   2  -8   38.64    2.19
   4   2  -7    1.54    0.52
   4   2  -6   76.75    2.63
   4   2  -5    0.61    0.42
   4   2  -4   91.82    2.42
   4   2  -3   92.54    2.32
   4   2  -2   12.34    0.84
   4   2  -1  403.47    4.79
   4   2   0   23.11    0.97
   4   2   1  176.84    2.62
  -4  -1  13   -0.17    0.45
  -4  -1  12    2.53    0.60
   4   1 -10    4.00    0.97
   4   1  -9   -0.36    0.56
   4   1  -8    2.16    0.56
   4   1  -7    1.47    0.48
   4   1  -6   12.58    1.11
   4   1  -5   -0.17    0.27
   4   1  -4   18.30    1.11
   4   1  -3   34.57    1.49
   4   1  -2    3.71    0.52
   4   1  -1    0.14    0.22
   4   1   0    0.73    0.34
   4   1   1    1.93    0.30
   4   1   3    0.10    0.20
   4   0 -12   14.01    1.71
   4   0 -11    6.50    1.07
   4   0 -10   44.31    2.23
   4   0  -9    7.63    1.02
   4   0  -8   53.50    2.32
   4   0  -7   35.70    1.75
   4   0  -6   14.33    1.14
   4   0  -5  217.92    4.27
   4   0  -4   22.79    1.26
   4   0  -3  362.39    4.96
   4   0  -2   87.79    2.29
   4   0  -1   45.15    1.50
   4   0   0  377.46    4.67
   4   0   1    6.61    0.55
   4   0   2   21.09    0.86
   4   0   3   83.04    1.59
   4   0   4   14.26    0.60
   4  -1 -13   56.75    3.22
   4  -1 -12   -0.10    0.50
   4  -1 -11   47.20    2.66
   4  -1 -10   34.88    2.10
   4  -1  -9   52.46    2.36
   4  -1  -8  198.82    4.56
   4  -1  -7    4.01    0.74
   4  -1  -6  281.28    4.96
   4  -1  -5  229.69    4.27
   4  -1  -4  122.45    3.04
   4  -1  -3  569.14    6.71
   4  -1  -2   26.33    1.28
   4  -1  -1  536.93    5.82
   4  -1   0  259.52    3.82
   4  -1   1  235.71    3.54
   4  -1   2  726.38    6.68
   4  -1   3  196.91    3.02
   4  -1   4  106.11    2.15
   4  -2 -13    3.28    1.07
   4  -2 -12   13.33    1.63
   4  -2 -11   17.32    1.62
   4  -2 -10   -0.29    0.68
   4  -2  -9   58.76    2.83
   4  -2  -8   35.01    1.97
   4  -2  -7  112.18    3.28
   4  -2  -6  100.01    3.11
   4  -2  -5    0.63    0.35
   4  -2  -4  176.77    3.90
   4  -2  -3   20.64    1.19
   4  -2  -2   83.82    2.48
   4  -2  -1  125.19    2.99
   4  -2   0   12.61    0.92
   4  -2   1  225.31    3.69
   4  -2   2   87.06    2.19
   4  -2   3   44.94    1.65
   4  -2   5    4.85    0.65
   4  -3 -13   -0.26    0.93
   4  -3 -12    2.47    0.97
   4  -3 -11   -0.15    0.70
   4  -3 -10    8.07    1.23
   4  -3  -9    1.70    0.78
   4  -3  -8   11.61    1.34
   4  -3  -7    3.18    0.70
   4  -3  -6   34.19    1.94
   4  -3  -5   -0.03    0.35
   4  -3  -4   14.98    1.13
   4  -3  -3    4.15    0.70
   4  -3  -2   32.25    1.64
   4  -3  -1    3.78    0.64
   4  -3   0    7.20    0.78
   4  -3   2   27.78    1.43
   4  -3   3    9.54    0.98
   4  -3   4   22.28    1.40
   4  -3   5    3.02    0.66
   4  -4 -13   20.59    1.95
   4  -4 -12   10.67    1.53
   4  -4 -11   34.70    2.58
   4  -4 -10   42.14    2.51
   4  -4  -9   12.06    1.39
   4  -4  -8   47.08    2.46
   4  -4  -7   80.54    3.30
   4  -4  -6   77.85    2.96
   4  -4  -5  150.23    4.03
   4  -4  -4   18.11    1.36
   4  -4  -3  158.21    3.96
   4  -4  -2    8.41    0.94
   4  -4  -1   14.74    1.18
   4  -4   0   54.89    2.15
   4  -4   1   50.96    2.09
   4  -4   1   51.18    2.09
   4  -4   2   40.12    1.97
   4  -4   3   55.42    2.22
   4  -4   4   20.17    1.49
   4  -4   5   18.47    1.50
   4  -5 -13   30.22    2.53
   4  -5 -12    9.31    1.55
   4  -5 -11   71.11    3.50
   4  -5 -10   11.47    1.57
   4  -5  -9  111.97    4.12
   4  -5  -8  159.89    5.06
   4  -5  -7    1.63    0.68
   4  -5  -6  288.73    6.13
   4  -5  -5   13.99    1.32
   4  -5  -4  310.55    6.21
   4  -5  -3  133.07    3.76
   4  -5  -2    3.13    0.66
   4  -5  -1  317.80    5.78
   4  -5   0   26.88    1.61
   4  -5   1  157.09    3.96
   4  -5   2   79.81    2.95
   4  -5   3   21.32    1.50
   4  -5   4   77.41    3.00
   4  -5   5    8.39    1.14
   4  -5   6   37.99    2.21
   4  -6 -12   13.04    1.66
   4  -6 -11   29.57    2.58
   4  -6 -10   13.99    1.71
   4  -6  -9   82.78    3.99
   4  -6  -8    4.14    1.11
   4  -6  -7   83.56    3.44
   4  -6  -6    7.87    1.23
   4  -6  -5   45.32    2.53
   4  -6  -4   51.40    2.50
   4  -6  -3    0.37    0.48
   4  -6  -2   52.83    2.42
   4  -6  -1   28.20    1.74
   4  -6   0   26.49    1.73
   4  -6   1   92.58    3.24
   4  -6   2    0.18    0.56
   4  -6   3   82.77    3.15
   4  -6   4   25.40    1.88
   4  -6   5    5.63    0.99
   4  -6   6   28.27    2.10
   4  -7 -12    4.94    1.53
   4  -7 -11    3.33    1.34
   4  -7 -10    2.64    1.20
   4  -7  -9    0.66    0.72
   4  -7  -8   -0.17    0.56
   4  -7  -7    0.32    0.68
   4  -7  -6    0.17    0.61
   4  -7  -5    1.73    0.69
   4  -7  -4    0.30    0.49
   4  -7  -3    4.07    0.85
   4  -7  -2    0.50    0.64
   4  -7  -1    0.09    0.40
   4  -7   0    4.96    0.92
   4  -7   1    1.03    0.73
   4  -7   2    3.38    0.93
   4  -7   3    2.54    0.69
   4  -7   4   -0.38    0.67
   4  -7   5    6.49    1.12
   4  -7   6    1.57    0.88
   4  -8 -11   18.65    2.16
   4  -8 -10   30.97    2.70
   4  -8  -9    6.45    1.27
   4  -8  -8   30.10    2.37
   4  -8  -7    3.50    0.94
   4  -8  -6   30.41    2.40
   4  -8  -5   58.38    2.99
   4  -8  -4    5.69    0.98
   4  -8  -3   47.07    2.50
   4  -8  -2    7.06    1.06
   4  -8  -1   33.39    2.09
   4  -8   0   26.56    1.87
   4  -8   1   18.13    1.74
   4  -8   2    3.33    0.96
   4  -8   3    0.88    0.68
   4  -8   4    6.00    1.19
   4  -8   5    3.17    1.06
   4  -8   6    0.61    0.86
   4  -9 -10    1.56    1.26
   4  -9  -9   38.38    2.84
   4  -9  -8   18.72    2.12
   4  -9  -7   19.56    2.01
   4  -9  -6   87.25    3.91
   4  -9  -5    1.23    0.71
   4  -9  -4   71.87    3.38
   4  -9  -3   29.84    2.14
   4  -9  -2   24.91    1.96
   4  -9  -1   44.33    2.60
   4  -9   0    2.53    0.73
   4  -9   1   90.29    3.85
   4  -9   2   28.32    2.22
   4  -9   3   22.54    1.94
   4  -9   4   42.14    2.70
   4  -9   5    2.04    1.04
   4  -9   6   35.38    2.73
   4 -10  -9   13.58    2.02
   4 -10  -8    3.31    1.10
   4 -10  -7   28.33    2.62
   4 -10  -6    4.70    1.09
   4 -10  -5   20.72    1.94
   4 -10  -4   14.99    1.67
   4 -10  -3   10.85    1.36
   4 -10  -2   32.52    2.28
   4 -10  -1    3.35    0.98
   4 -10   0   30.82    2.19
   4 -10   1   16.62    1.75
   4 -10   2    2.25    1.01
   4 -10   3   14.19    1.67
   4 -10   4    0.06    0.57
   4 -10   5    2.75    0.93
   4 -11  -6    1.20    1.10
   4 -11  -5    0.88    0.94
   4 -11  -4    1.06    0.93
   4 -11  -3    0.57    0.62
   4 -11  -1    0.92    0.64
   4 -11   0    3.38    0.88
   4 -11   1    0.29    0.80
   4 -11   2    0.89    0.74
   4 -11   3    0.70    1.03
  -5 -12   3    0.10    0.63
  -5 -12   2    0.13    0.44
  -5 -12   1    1.45    0.74
  -5 -12   0    0.74    0.66
  -5 -11   5    0.57    0.58
  -5 -11   4   17.38    1.46
  -5 -11   3   14.57    1.41
  -5 -11   2    5.49    0.96
  -5 -11   1   32.53    2.09
  -5 -11   0    1.93    0.62
  -5 -10   6   10.63    1.13
  -5 -10   5   11.05    1.15
  -5 -10   4   64.53    2.67
  -5 -10   3   -0.10    0.51
  -5 -10   2   70.00    2.81
  -5 -10   1   17.36    1.44
  -5 -10   0   56.86    2.63
  -5 -10  -1   59.42    2.65
  -5  -9   8   10.06    1.07
  -5  -9   7   15.96    1.30
  -5  -9   6    4.14    0.70
  -5  -9   5   36.90    1.94
  -5  -9   4    2.06    0.62
  -5  -9   3   40.03    2.02
  -5  -9   2   47.42    2.23
  -5  -9   1   26.04    1.64
  -5  -9   0  156.40    4.02
  -5  -9  -1    1.09    0.66
  -5  -8   9    0.20    0.37
  -5  -8   8    0.35    0.37
  -5  -8   7    0.34    0.34
  -5  -8   6    1.22    0.53
  -5  -8   5    0.72    0.39
  -5  -8   4    7.15    0.84
  -5  -8   3   10.25    1.00
  -5  -8   2    1.56    0.48
  -5  -8   1    0.65    0.54
  -5  -8   0    5.22    0.81
  -5  -8  -1    1.26    0.55
  -5  -7  10    0.86    0.50
  -5  -7   9    9.87    0.94
  -5  -7   8    5.42    0.74
  -5  -7   7   26.84    1.44
  -5  -7   6   16.84    1.16
  -5  -7   5    4.50    0.61
  -5  -7   4   10.94    0.90
  -5  -7   3    4.96    0.67
  -5  -7   2   40.84    1.89
  -5  -7   1   23.67    1.41
  -5  -7   0    0.36    0.49
  -5  -7  -1   56.52    2.12
  -5  -6  10   14.69    1.10
  -5  -6   9   14.08    1.00
  -5  -6   8   11.86    0.90
  -5  -6   7   53.04    1.78
  -5  -6   6    0.57    0.26
  -5  -6   5  104.06    2.47
  -5  -6   4   28.50    1.29
  -5  -6   3    3.45    0.54
  -5  -6   2  170.46    3.47
  -5  -6   1    0.19    0.37
  -5  -6   0  281.49    4.73
  -5  -6  -1  105.03    2.72
  -5  -5  11    4.72    0.65
  -5  -5  10   16.60    1.12
  -5  -5   9    0.44    0.30
  -5  -5   8   19.42    1.04
  -5  -5   7    6.87    0.62
  -5  -5   6   21.98    1.02
  -5  -5   5   80.59    1.97
  -5  -5   4    0.91    0.30
  -5  -5   3  104.95    2.35
  -5  -5   2    7.34    0.66
  -5  -5   1  143.15    2.79
  -5  -5   0  126.76    2.70
  -5  -5  -1    6.23    0.66
  -5  -4  12    0.04    0.39
  -5  -4  11    0.43    0.35
  -5  -4  10    0.58    0.29
  -5  -4   9    0.10    0.17
  -5  -4   8    0.17    0.15
  -5  -4   7    0.82    0.22
  -5  -4   6    5.18    0.42
  -5  -4   5    0.92    0.23
  -5  -4   4    0.80    0.22
  -5  -4   3    6.01    0.46
  -5  -4   2    1.24    0.28
  -5  -4   1    0.82    0.28
  -5  -4   0    1.67    0.33
  -5  -4  -1    8.93    0.64
  -5  -4  -2   24.33    1.01
  -5  -3  12    6.07    0.72
  -5  -3  11    2.35    0.43
  -5  -3  10    5.86    0.59
  -5  -3   9   12.06    0.69
  -5  -3   8    0.97    0.19
  -5  -3   7   13.17    0.59
  -5  -3   6    3.21    0.27
   5   3  -5   14.77    1.15
   5   3  -4   55.93    2.24
   5   3  -3    3.84    0.62
   5   3  -2   76.08    2.42
  -5  -3   1   29.05    0.99
  -5  -3   0    4.91    0.42
  -5  -3  -1  178.32    2.71
  -5  -3  -2    1.66    0.34
  -5  -2  12   25.75    1.47
  -5  -2  11    0.37    0.22
  -5  -2  10   21.22    0.94
   5   2  -9   13.63    1.45
   5   2  -8  100.45    3.48
   5   2  -7  161.92    4.09
   5   2  -6    8.20    0.87
   5   2  -5  166.51    3.64
   5   2  -4   41.59    1.73
   5   2  -3  107.81    2.92
   5   2  -2  200.05    3.79
  -5  -1  13    4.77    0.68
  -5  -1  12    0.03    0.24
   5   1 -11   26.95    2.23
   5   1 -10   21.90    1.77
   5   1  -9    5.05    0.81
   5   1  -8   65.67    2.58
   5   1  -7   15.64    1.29
   5   1  -6   42.87    1.99
   5   1  -5   60.97    2.21
   5   1  -4    5.39    0.72
   5   1  -3  187.77    3.80
   5   1  -2  119.83    2.97
   5   1  -1  333.59    5.10
   5   1   0  221.32    3.84
   5   1   1   41.37    1.48
   5   0 -13    1.08    1.05
   5   0 -12    0.55    0.61
   5   0 -11    5.29    0.91
   5   0 -10    1.60    0.58
   5   0  -9    0.02    0.60
   5   0  -8   -0.17    0.52
   5   0  -7    8.09    1.02
   5   0  -6    2.63    0.58
   5   0  -5   -0.01    0.33
   5   0  -4    3.75    0.64
   5   0  -3   19.34    1.23
   5   0  -2    0.36    0.42
   5   0  -1    1.14    0.44
   5   0   0    8.34    0.72
   5   0   1   23.08    1.20
   5   0   3    1.23    0.30
   5  -1 -13    4.08    1.11
   5  -1 -12   20.30    1.70
   5  -1 -11    1.45    0.83
   5  -1 -10   17.69    1.54
   5  -1  -9   39.49    2.23
   5  -1  -8    2.93    0.68
   5  -1  -7  105.74    3.60
   5  -1  -6    2.51    0.67
   5  -1  -5   63.06    2.38
   5  -1  -4  114.16    3.33
   5  -1  -3   34.29    1.70
   5  -1  -2  102.78    3.03
   5  -1  -1   56.18    2.05
   5  -1   0   36.52    1.54
   5  -1   1   77.98    2.25
   5  -1   2   19.01    1.12
   5  -1   3    8.16    0.73
   5  -2 -13   40.77    2.78
   5  -2 -12   13.02    1.55
   5  -2 -11    3.36    0.81
   5  -2 -10   83.13    3.45
   5  -2  -9    5.68    1.09
   5  -2  -8  156.16    4.36
   5  -2  -7  108.96    3.52
   5  -2  -6   71.27    2.90
   5  -2  -5  228.12    4.93
   5  -2  -4   12.95    1.21
   5  -2  -3  143.58    3.72
   5  -2  -2  133.17    3.37
   5  -2  -1   70.84    2.48
   5  -2   0  343.43    5.64
   5  -2   1   39.43    1.76
   5  -2   2  258.87    4.43
   5  -2   3   75.16    2.25
   5  -3 -13   15.78    1.78
   5  -3 -12    1.34    0.68
   5  -3 -11   29.89    2.21
   5  -3 -10   11.27    1.46
   5  -3  -9   24.46    1.85
   5  -3  -8   41.93    2.35
   5  -3  -7    7.55    1.18
   5  -3  -6   32.90    1.96
   5  -3  -5  121.35    3.78
   5  -3  -4   47.58    2.33
   5  -3  -3  118.74    3.60
   5  -3  -2   20.18    1.48
   5  -3  -1  233.49    5.03
   5  -3   0   77.15    2.70
   5  -3   1  152.60    3.78
   5  -3   2  180.94    4.07
   5  -3   3    0.91    0.50
   5  -3   4   73.04    2.57
   5  -4 -12    0.62    0.97
   5  -4 -11    1.05    1.06
   5  -4 -10    1.79    0.72
   5  -4  -9    0.56    0.56
   5  -4  -8   -0.16    0.78
   5  -4  -7   23.61    1.81
   5  -4  -6   -0.44    0.67
   5  -4  -5    0.28    0.50
   5  -4  -4    0.82    0.60
   5  -4  -3   -0.16    0.58
   5  -4  -2   11.65    1.27
   5  -4  -1    2.53    0.73
   5  -4   0   -0.20    0.55
   5  -4   1   57.95    2.50
   5  -4   2    7.88    0.97
   5  -4   3    9.45    1.08
   5  -4   4    0.58    0.57
   5  -5 -12   16.37    2.09
   5  -5 -11    1.31    0.79
   5  -5 -10   29.17    2.35
   5  -5  -9    7.71    1.38
   5  -5  -8    5.09    0.98
   5  -5  -7   63.77    3.20
   5  -5  -6   10.04    1.28
   5  -5  -5   50.45    2.77
   5  -5  -4   20.71    1.79
   5  -5  -3   34.45    2.25
   5  -5  -2   51.50    2.54
   5  -5  -1    1.28    0.74
   5  -5   0   51.08    2.48
   5  -5   1    3.57    0.82
   5  -5   2   14.06    1.40
   5  -5   3    7.83    1.08
   5  -5   4    6.92    1.09
   5  -6 -11   22.89    2.39
   5  -6 -10   38.46    2.85
   5  -6  -9    1.80    1.02
   5  -6  -8  111.61    4.65
   5  -6  -7   36.20    2.50
   5  -6  -6   33.74    2.37
   5  -6  -5   70.16    3.33
   5  -6  -4    8.48    1.31
   5  -6  -3  194.56    5.30
   5  -6  -2   33.85    2.14
   5  -6  -1   65.22    2.94
   5  -6   0  101.15    3.67
   5  -6   1    6.54    0.96
   5  -6   2  131.17    4.17
   5  -6   2  131.18    4.18
   5  -6   3    0.91    0.68
   5  -7 -11   27.83    2.68
   5  -7 -10    0.32    1.07
   5  -7  -9   24.90    2.49
   5  -7  -8   29.12    2.49
   5  -7  -7    7.95    1.28
   5  -7  -6   87.01    3.99
   5  -7  -5    5.89    1.31
   5  -7  -4   53.53    2.97
   5  -7  -3   27.64    2.12
   5  -7  -2   12.18    1.51
   5  -7  -1  135.75    4.40
   5  -7   0    1.97    0.83
   5  -7   1   64.02    2.99
   5  -7   2   36.33    2.28
   5  -7   3   16.51    1.72
   5  -7   4   32.76    2.46
   5  -8 -10    0.54    1.46
   5  -8  -9    1.61    1.19
   5  -8  -8    1.49    0.89
   5  -8  -7    3.16    1.26
   5  -8  -6    1.43    1.04
   5  -8  -5    0.62    0.82
   5  -8  -4   25.83    2.15
   5  -8  -3    0.97    0.63
   5  -8  -2   24.53    2.05
   5  -8  -1    4.30    0.96
   5  -8   0   12.05    1.46
   5  -8   1    2.06    0.76
   5  -8   2   -0.34    0.45
   5  -8   3    4.91    1.19
   5  -8   4    1.91    1.05
   5  -9  -9    5.53    1.33
   5  -9  -8    5.13    1.23
   5  -9  -7    7.06    1.51
   5  -9  -6    1.78    1.19
   5  -9  -5   28.85    2.47
   5  -9  -4   -0.07    0.94
   5  -9  -3   10.53    1.55
   5  -9  -2    6.10    1.12
   5  -9  -1   -0.67    0.79
   5  -9   0    4.57    0.96
   5  -9   1   -0.02    0.58
   5  -9   2   -0.14    0.75
   5  -9   3   11.38    1.49
   5  -9   4    0.96    0.72
   5 -10  -7    0.42    0.89
   5 -10  -6   45.34    3.32
   5 -10  -5   13.44    1.72
   5 -10  -4   12.48    1.69
   5 -10  -3   29.19    2.41
   5 -10  -2    1.33    0.89
   5 -10  -1   12.49    1.56
   5 -10   0    7.61    1.22
   5 -10   1   15.38    1.84
   5 -10   2   13.62    1.65
   5 -10   3    1.90    1.05
   5 -11  -3    1.33    1.01
   5 -11  -2   11.01    1.58
   5 -11  -1   20.32    2.09
   5 -11   0    0.79    0.88
  -6 -12   1   11.92    1.35
  -6 -11   4    1.31    0.60
  -6 -11   3    0.69    0.49
  -6 -11   2    5.71    0.93
  -6 -11   1    0.37    0.61
  -6 -10   6    6.88    0.88
  -6 -10   5    1.51    0.58
  -6 -10   4   -0.19    0.32
  -6 -10   3   11.22    1.10
  -6 -10   2    4.07    0.81
  -6 -10   1   16.66    1.43
  -6  -9   7    6.24    0.71
  -6  -9   6   38.51    1.77
  -6  -9   5   -0.09    0.40
  -6  -9   4   73.22    2.54
  -6  -9   3   16.31    1.30
  -6  -9   2   37.52    1.99
  -6  -9   1   80.08    2.81
  -6  -9   0    1.37    0.62
  -6  -8   8    1.53    0.38
  -6  -8   7   23.51    1.23
  -6  -8   6    4.72    0.60
  -6  -8   5   25.05    1.35
  -6  -8   4   27.05    1.47
  -6  -8   3   14.78    1.15
  -6  -8   2   76.12    2.58
  -6  -8   1   11.78    1.10
  -6  -8   0   92.05    2.97
  -6  -7   9    0.24    0.27
  -6  -7   8    0.20    0.20
  -6  -7   7    2.21    0.39
  -6  -7   6   -0.03    0.17
  -6  -7   5    2.48    0.45
  -6  -7   4    0.26    0.31
  -6  -7   3   10.67    0.91
  -6  -7   2    7.45    0.76
  -6  -7   1    0.29    0.44
  -6  -7   0    9.42    0.94
  -6  -6  10    0.04    0.15
  -6  -6   9    0.53    0.18
  -6  -6   8    6.67    0.49
  -6  -6   7    0.72    0.23
  -6  -6   6   10.66    0.66
  -6  -6   5    0.05    0.14
  -6  -6   4   11.09    0.73
  -6  -6   3   12.53    0.83
  -6  -6   2    5.17    0.58
  -6  -6   1   30.48    1.42
  -6  -6   0    5.30    0.66
  -6  -5  10    2.89    0.33
  -6  -5   9   11.53    0.57
  -6  -5   8    1.01    0.19
  -6  -5   7   11.45    0.53
  -6  -5   6   12.53    0.58
  -6  -5   5    2.32    0.28
  -6  -5   4   55.46    1.38
  -6  -5   3   55.81    1.49
  -6  -5   2  105.93    2.20
  -6  -5   1   69.14    1.87
  -6  -5   0   56.72    1.73
  -6  -4  11    0.00    0.13
  -6  -4  10    4.82    0.31
  -6  -4   9    2.90    0.20
  -6  -4   8    1.37    0.12
  -6  -4   7    5.35    0.22
  -6  -4   6    0.06    0.04
  -6  -4   5   16.46    0.48
  -6  -4   4   16.11    0.57
  -6  -4   3    9.23    0.50
  -6  -4   2   78.82    1.60
  -6  -4   1    0.01    0.17
  -6  -4   0  149.40    2.59
  -6  -3  11    0.09    0.06
  -6  -3  10    0.06    0.03
  -6  -3   9    0.00    0.00
  -6  -3   8   -0.02    0.00
  -6  -3   7   -0.34    0.00
   6   3  -6    8.41    1.08
   6   3  -5    6.46    0.99
   6   3  -4    0.18    0.52
   6   3  -3   15.32    1.24
   6   3  -1    3.64    0.69
   6   3   0    7.05    0.81
  -6  -2  12    0.01    0.11
  -6  -2  11    0.37    0.04
   6   2  -9   15.77    1.57
   6   2  -8   15.86    1.37
   6   2  -7   28.66    1.73
   6   2  -6   26.41    1.54
   6   2  -5    3.40    0.67
   6   2  -4   25.92    1.50
   6   2  -3    9.94    0.95
   6   2  -2   11.55    1.05
   6   2   0   -0.58    0.37
   6   1 -11   12.82    1.56
   6   1 -10   23.34    1.79
   6   1  -9   32.76    1.88
   6   1  -8    1.03    0.64
   6   1  -7  100.29    3.39
   6   1  -6   87.72    3.02
   6   1  -5   39.97    1.92
   6   1  -4  128.96    3.47
   6   1  -3    5.38    0.79
   6   1  -2  142.55    3.42
   6   1  -1   44.78    2.00
   6   1   0   99.73    2.87
   6   1   1  162.54    3.48
   6   1   2    0.03    0.41
   6   0 -12   17.29    1.76
   6   0 -11    3.23    0.86
   6   0 -10   40.83    2.35
   6   0  -9   10.81    1.30
   6   0  -8   57.87    2.56
   6   0  -7   64.11    2.73
   6   0  -6    7.71    1.00
   6   0  -5   84.74    2.91
   6   0  -4    7.48    0.98
   6   0  -3  198.94    4.31
   6   0  -2  155.80    3.71
   6   0  -1   91.87    2.92
   6   0   0  161.39    3.67
   6   0   1    4.53    0.71
   6  -1 -12    3.07    0.96
   6  -1 -11    3.70    0.89
   6  -1 -10    2.44    0.71
   6  -1  -9   -0.40    0.61
   6  -1  -8    5.41    0.98
   6  -1  -7    1.91    0.65
   6  -1  -6   34.73    2.12
   6  -1  -5    3.88    0.82
   6  -1  -4    9.17    1.05
   6  -1  -3   42.10    2.16
   6  -1  -2   -0.39    0.43
   6  -1  -1   68.71    2.65
   6  -1   0   -0.28    0.44
   6  -1   1   16.18    1.26
   6  -2 -12   14.40    1.70
   6  -2 -11    4.08    0.89
   6  -2 -10   -0.05    0.72
   6  -2  -9   16.37    1.56
   6  -2  -8    0.31    0.75
   6  -2  -7   11.70    1.28
   6  -2  -6    1.05    0.81
   6  -2  -5   -0.10    0.64
   6  -2  -4   44.37    2.30
   6  -2  -3    9.42    1.28
   6  -2  -2    2.96    0.79
   6  -2  -1   13.96    1.24
   6  -2   0    0.65    0.61
   6  -2   1   35.72    1.90
   6  -2   2    0.51    0.59
   6  -3 -12   27.46    2.27
   6  -3 -11    4.72    1.14
   6  -3 -10   42.89    2.78
   6  -3  -9   35.83    2.44
   6  -3  -8   29.32    2.20
   6  -3  -7  130.13    4.61
   6  -3  -6    5.69    1.10
   6  -3  -5   52.77    2.71
   6  -3  -4   41.81    2.52
   6  -3  -3    5.70    0.97
   6  -3  -2  105.27    3.79
   6  -3  -1   17.85    1.58
   6  -3   0  121.79    3.98
   6  -3   1   85.37    3.15
   6  -3   2   34.01    1.97
   6  -4 -11   12.16    1.82
   6  -4 -10   50.66    3.08
   6  -4  -9    1.30    1.01
   6  -4  -8   74.02    3.70
   6  -4  -7    5.97    1.19
   6  -4  -6   38.63    2.79
   6  -4  -5  180.68    5.42
   6  -4  -4    2.30    0.90
   6  -4  -3  228.18    6.07
   6  -4  -2   28.56    2.10
   6  -4  -1  152.07    4.84
   6  -4   0  113.27    3.94
   6  -4   1    0.09    0.67
   6  -4   2  123.34    4.01
   6  -4   3   39.81    2.23
   6  -5 -11    8.36    1.52
   6  -5 -10    1.06    1.10
   6  -5  -9   12.59    1.79
   6  -5  -8   10.57    1.55
   6  -5  -7   17.86    2.17
   6  -5  -6   18.06    1.96
   6  -5  -5    8.18    1.28
   6  -5  -4   34.68    2.54
   6  -5  -3   28.15    2.19
   6  -5  -2   12.71    1.60
   6  -5  -1   36.32    2.39
   6  -5   0    7.52    1.23
   6  -5   1   39.40    2.47
   6  -5   2    6.41    1.10
   6  -5   3    3.20    0.92
   6  -6 -10    2.52    1.14
   6  -6  -9    2.89    1.02
   6  -6  -8    0.62    1.17
   6  -6  -7   13.26    1.87
   6  -6  -6    9.03    1.48
   6  -6  -5    2.97    1.20
   6  -6  -4    9.21    1.54
   6  -6  -3    2.68    1.16
   6  -6  -2   11.42    1.59
   6  -6  -1    7.46    1.24
   6  -6   0    3.50    1.07
   6  -6   1    4.05    1.00
   6  -6   2    0.27    0.79
   6  -6   3    0.14    0.76
   6  -7  -9    0.91    1.38
   6  -7  -8   44.00    3.25
   6  -7  -7   52.92    3.35
   6  -7  -6    6.84    1.51
   6  -7  -5   53.93    3.35
   6  -7  -4    2.19    0.96
   6  -7  -3   31.95    2.56
   6  -7  -2   46.30    2.98
   6  -7  -1    1.07    0.92
   6  -7   0   40.82    2.75
   6  -7   1    5.21    1.06
   6  -7   2    7.38    1.22
   6  -7   3   30.96    2.34
   6  -8  -8   60.46    3.91
   6  -8  -7    0.82    0.81
   6  -8  -6   52.62    3.62
   6  -8  -5   34.77    2.88
   6  -8  -4   12.46    1.91
   6  -8  -3   70.29    3.78
   6  -8  -2    2.13    1.06
   6  -8  -1   46.44    3.07
   6  -8   0   28.86    2.35
   6  -8   1    7.29    1.29
   6  -8   2   30.68    2.43
   6  -8   3    0.42    0.89
   6  -9  -7    7.26    1.53
   6  -9  -6    8.82    1.78
   6  -9  -5   -0.25    1.21
   6  -9  -4    4.22    1.23
   6  -9  -3    4.46    1.35
   6  -9  -2    5.90    1.38
   6  -9  -1   10.71    1.64
   6  -9   0   -0.59    0.86
   6  -9   1    1.95    1.11
   6  -9   2    4.62    1.07
   6  -9   3    6.07    1.38
   6 -10  -4    3.05    1.13
   6 -10  -3    1.14    0.91
   6 -10  -2    1.62    1.10
   6 -10  -1    2.53    0.99
   6 -10   0    1.01    0.77
   6 -10   1    3.24    1.21
  -7 -10   5    0.46    0.42
  -7 -10   4    5.90    0.76
  -7 -10   3    0.15    0.47
  -7 -10   2   12.68    1.18
  -7  -9   6    0.44    0.31
  -7  -9   5    1.75    0.44
  -7  -9   4    1.42    0.46
  -7  -9   3    3.04    0.63
  -7  -9   2    7.97    0.94
  -7  -8   7    0.08    0.19
  -7  -8   6   16.28    0.86
  -7  -8   5    9.98    0.74
  -7  -8   4   11.95    0.87
  -7  -8   3   44.34    1.84
  -7  -8   2    0.09    0.41
  -7  -7   8    0.56    0.14
  -7  -7   7    3.96    0.33
  -7  -7   6   15.25    0.70
  -7  -7   5    1.74    0.30
  -7  -7   4   21.22    1.01
  -7  -7   3    1.62    0.39
  -7  -7   2   30.98    1.45
  -7  -7   1   76.07    2.34
  -7  -6   9    0.36    0.06
  -7  -6   8    0.16    0.05
  -7  -6   7    1.56    0.15
  -7  -6   6    0.46    0.10
  -7  -6   5    3.23    0.29
  -7  -6   4    1.12    0.23
  -7  -6   3    8.49    0.61
  -7  -6   2    6.97    0.60
  -7  -6   1    9.91    0.80
  -7  -5   9    0.01    0.00
  -7  -5   8   -0.23    0.00
  -7  -5   7   -0.01    0.00
  -7  -5   6    0.10    0.02
  -7  -5   5    0.25    0.06
  -7  -5   4    0.35    0.11
  -7  -5   3    0.79    0.20
  -7  -5   2    5.63    0.47
  -7  -5   1    0.47    0.24
  -7  -4  10   -0.56    0.00
  -7  -4   9   -4.71    0.00
  -7  -4   8   -7.47    0.00
  -7  -4   7   -0.44    0.00
  -7  -4   6   -7.47    0.00
  -7  -4   5   -0.40    0.00
  -7  -4   4    0.00    0.00
  -7  -4   3   14.51    0.38
  -7  -4   2    3.05    0.27
  -7  -4   1   22.46    0.81
  -7  -3  10   -3.61    0.00
  -7  -3   9  -16.70    0.00
  -7  -3   8   -0.14    0.00
   7   3  -7   32.56    1.93
   7   3  -6   17.96    1.65
   7   3  -5   38.09    2.20
   7   3  -4   92.54    3.27
   7   3  -3   -0.04    0.51
   7   3  -2  122.72    3.46
   7   3   0   20.43    1.48
  -7  -2  11    0.00    0.00
   7   2 -10   10.13    1.20
   7   2  -9    2.75    0.87
   7   2  -8    2.66    0.78
   7   2  -7   19.19    1.49
   7   2  -6    2.96    0.62
   7   2  -5   38.14    2.02
   7   2  -4    1.21    0.60
   7   2  -3   41.64    2.08
   7   2  -2   47.36    2.20
   7   2  -1    1.98    0.63
   7   1 -11    2.99    0.84
   7   1 -10    1.46    0.76
   7   1  -9    0.60    0.48
   7   1  -8    2.67    0.65
   7   1  -7    3.13    0.84
   7   1  -6    8.69    1.13
   7   1  -5    0.47    0.43
   7   1  -4    0.06    0.52
   7   1  -3    2.82    0.75
   7   1  -2    0.29    0.41
   7   1  -1    1.82    0.60
   7   1   0    4.49    0.78
   7   0 -11   16.19    1.51
   7   0 -10    0.11    0.73
   7   0  -9   27.85    2.08
   7   0  -8    5.69    0.93
   7   0  -7   19.37    1.60
   7   0  -6   61.79    2.82
   7   0  -5    3.96    0.78
   7   0  -4   74.87    3.25
   7   0  -3   37.25    2.15
   7   0  -2   46.76    2.28
   7   0  -1  120.97    3.51
   7   0   0    6.75    0.94
   7  -1 -11    4.79    1.17
   7  -1 -10   36.39    2.40
   7  -1  -9   29.89    2.14
   7  -1  -8    5.16    1.08
   7  -1  -7   75.84    3.38
   7  -1  -6    4.89    1.14
   7  -1  -5   94.79    3.58
   7  -1  -4   71.77    3.11
   7  -1  -3   17.60    1.56
   7  -1  -2  260.69    5.96
   7  -1  -1   18.58    1.55
   7  -1   0   64.52    2.69
   7  -2 -11    3.14    0.89
   7  -2 -10    5.05    1.24
   7  -2  -9    1.75    0.90
   7  -2  -8   11.04    1.52
   7  -2  -7   11.26    1.42
   7  -2  -6   10.26    1.41
   7  -2  -5   75.45    3.64
   7  -2  -4    1.67    0.90
   7  -2  -3   32.72    2.22
   7  -2  -2   62.94    3.14
   7  -2  -1    4.33    0.94
   7  -2   0   54.53    2.70
   7  -2   1    3.65    0.95
   7  -3 -10    4.90    1.09
   7  -3  -9    1.94    1.10
   7  -3  -8    5.85    1.26
   7  -3  -7    3.45    0.98
   7  -3  -6   13.11    1.76
   7  -3  -5   -0.08    0.65
   7  -3  -4   37.01    2.77
   7  -3  -3    0.15    0.86
   7  -3  -2    0.10    0.61
   7  -3  -1    1.21    0.81
   7  -3   0    0.20    0.83
   7  -3   1    1.25    0.81
   7  -4  -9   37.93    2.88
   7  -4  -8    0.28    0.77
   7  -4  -7   61.08    3.63
   7  -4  -6   27.05    2.32
   7  -4  -5    1.50    1.26
   7  -4  -4  153.48    5.45
   7  -4  -3    6.19    1.35
   7  -4  -2   74.98    3.62
   7  -4  -1   28.59    2.35
   7  -4   0   31.18    2.39
   7  -4   1   81.51    3.86
   7  -5  -9   31.23    2.94
   7  -5  -8   25.91    2.54
   7  -5  -7   56.16    3.55
   7  -5  -6    0.61    1.00
   7  -5  -5  122.49    5.19
   7  -5  -4   66.82    3.61
   7  -5  -3   36.58    2.78
   7  -5  -2  121.71    4.89
   7  -5  -1    2.94    1.18
   7  -5   0   91.94    4.34
   7  -5   1   24.09    2.19
   7  -6  -9    2.19    1.48
   7  -6  -8   16.94    2.20
   7  -6  -7    5.41    1.51
   7  -6  -6    9.85    1.81
   7  -6  -5   29.79    2.69
   7  -6  -4   -0.15    1.14
   7  -6  -3   44.45    3.23
   7  -6  -2    7.14    1.60
   7  -6  -1   18.78    2.27
   7  -6   1    0.55    1.01
   7  -7  -8    1.46    1.22
   7  -7  -7    6.65    1.50
   7  -7  -6    2.87    1.42
   7  -7  -5   -0.16    0.83
   7  -7  -4    2.47    1.35
   7  -7  -3    4.61    1.44
   7  -7  -2    1.74    1.11
   7  -7  -1    1.87    0.96
   7  -7   0    0.71    0.85
   7  -7   1    0.88    1.01
   7  -8  -6   11.93    2.00
   7  -8  -5   14.89    2.22
   7  -8  -4   12.06    1.99
   7  -8  -3    2.01    1.40
   7  -8  -2   14.49    2.12
   7  -8  -1   13.30    1.93
   7  -8   0    7.29    1.52
   7  -8   1   13.44    1.96
   7  -9  -4    8.41    1.69
   7  -9  -3   28.89    2.95
   7  -9  -2   15.87    2.10
   7  -9  -1    3.45    1.17
   7  -9   0   22.50    2.43
  -8  -8   6    0.01    0.12
  -8  -8   5    0.78    0.23
  -8  -8   4    1.40    0.32
  -8  -8   3   -0.14    0.28
  -8  -7   7    0.30    0.03
  -8  -7   6    0.81    0.10
  -8  -7   5    6.22    0.37
  -8  -7   4    0.07    0.17
  -8  -7   3   14.57    0.81
  -8  -6   8   -2.68    0.00
  -8  -6   7   -0.09    0.00
  -8  -6   6   -0.99    0.00
  -8  -6   5    1.29    0.11
  -8  -6   4    7.21    0.37
  -8  -6   3   13.91    0.64
  -8  -5   8   -0.17    0.00
  -8  -5   7   -1.88    0.00
  -8  -5   6   -3.23    0.00
  -8  -5   5   -0.12    0.00
  -8  -5   4    1.02    0.06
  -8  -5   3    0.51    0.10
  -8  -5   2    4.16    0.34
  -8  -4   9   -0.01    0.00
  -8  -4   8   -0.07    0.00
  -8  -4   7    0.04    0.00
  -8  -4   6   -0.03    0.00
  -8  -4   5   -0.08    0.00
  -8  -4   4   -0.04    0.00
  -8  -4   3   -0.01    0.00
  -8  -4   2    0.12    0.04
  -8  -3   9   -1.57    0.00
  -8  -3   8  -22.29    0.00
   8   3  -7    1.35    0.55
   8   3  -6   26.45    1.94
   8   3  -5   15.17    1.56
   8   3  -4    9.13    1.22
   8   3  -3   62.01    2.70
   8   3  -2    3.62    0.80
   8   3  -1   21.02    1.62
   8   2  -9   29.09    2.29
   8   2  -8   25.39    1.91
   8   2  -7    9.24    1.14
   8   2  -6   64.58    2.77
   8   2  -5    1.99    0.56
   8   2  -4   72.02    2.82
   8   2  -3   37.85    2.11
   8   2  -2   23.37    1.72
   8   1 -10    5.60    1.01
   8   1  -9   11.94    1.40
   8   1  -8   -0.24    0.67
   8   1  -7   20.06    1.81
   8   1  -6   21.35    1.84
   8   1  -5   12.99    1.36
   8   1  -4   64.21    2.84
   8   1  -3   -0.09    0.55
   8   1  -2   60.71    2.70
   8   0 -10    0.02    0.51
   8   0  -9   -0.92    0.78
   8   0  -8   -0.03    0.51
   8   0  -7    0.58    0.74
   8   0  -6   -0.27    0.69
   8   0  -5    3.38    0.86
   8   0  -4    0.26    0.55
   8   0  -3    0.40    0.55
   8   0  -2    0.29    0.77
   8   0  -1    0.62    0.67
   8  -1 -10    2.79    1.03
   8  -1  -9    7.80    1.32
   8  -1  -8   23.37    2.02
   8  -1  -7    0.57    0.61
   8  -1  -6   49.39    3.17
   8  -1  -5   30.31    2.47
   8  -1  -4   11.11    1.48
   8  -1  -3   53.69    2.91
   8  -1  -2    2.74    0.81
   8  -1  -1   51.69    2.91
   8  -2  -9   32.48    2.61
   8  -2  -8   10.77    1.52
   8  -2  -7   27.78    2.57
   8  -2  -6   49.78    3.10
   8  -2  -5    7.73    1.45
   8  -2  -4  106.17    4.72
   8  -2  -3   28.99    2.46
   8  -2  -2   68.99    3.48
   8  -2  -1   67.28    3.36
   8  -3  -9   13.35    2.11
   8  -3  -8    1.88    1.21
   8  -3  -7   38.95    2.95
   8  -3  -6    0.93    1.14
   8  -3  -5   63.33    3.86
   8  -3  -4   12.39    1.81
   8  -3  -3   -0.02    1.01
   8  -3  -2   30.92    2.75
   8  -3  -1    4.28    1.29
   8  -3   0   22.08    2.13
   8  -4  -9   -0.51    1.06
   8  -4  -8   -0.32    1.15
   8  -4  -7    1.04    1.31
   8  -4  -6    0.03    1.20
   8  -4  -5    1.28    0.89
   8  -4  -4    0.31    0.92
   8  -4  -3    3.18    1.14
   8  -4  -1    7.52    1.49
   8  -4   0    0.74    1.10
   8  -5  -8   10.88    1.98
   8  -5  -7    2.75    1.51
   8  -5  -6   15.40    2.20
   8  -5  -5   16.14    2.52
   8  -5  -3   19.55    2.37
   8  -5  -2    1.41    1.23
   8  -5  -1   21.89    2.55
   8  -5   0    2.32    1.29
   8  -6  -7   27.14    2.93
   8  -6  -6   17.75    2.74
   8  -6  -5   10.17    1.86
   8  -6  -4   51.92    3.87
   8  -6  -3   -0.64    0.81
   8  -6  -2   41.69    3.55
   8  -6  -1   13.13    2.08
   8  -6   0   10.37    1.96
   8  -7  -6    0.87    1.64
   8  -7  -5   16.56    2.47
   8  -7  -4    1.76    1.39
   8  -7  -2   12.48    2.11
   8  -7  -1    0.91    1.01
   8  -7   0   13.86    2.30
  -9  -7   5    0.05    0.02
  -9  -6   6   -0.13    0.00
  -9  -6   5   -0.66    0.00
  -9  -6   4    0.18    0.04
  -9  -5   7   -3.28    0.00
  -9  -5   6   -6.79    0.00
  -9  -5   5   -5.23    0.00
  -9  -5   4   -0.12    0.00
  -9  -4   7   -1.66    0.00
  -9  -4   6  -17.66    0.00
  -9  -4   5   -0.91    0.00
  -9  -4   4   -7.61    0.00
  -9  -3   8    0.06    0.00
  -9  -3   7   -0.19    0.00
   9   3  -6   -0.04    0.69
   9   3  -5    0.43    0.79
   9   3  -4    0.50    0.62
   9   3  -3    0.47    0.74
   9   2  -8    4.10    1.05
   9   2  -7    8.19    1.21
   9   2  -6    0.60    0.71
   9   2  -5   12.26    1.36
   9   2  -4    3.82    0.89
   9   2  -3   15.27    1.50
   9   1  -8   28.00    2.14
   9   1  -7    4.10    1.10
   9   1  -6   41.77    2.67
   9   1  -5   27.57    2.21
   9   1  -4    9.53    1.28
   9   1  -3   49.74    2.66
   9   0  -8   10.24    1.60
   9   0  -7    8.43    1.37
   9   0  -6   26.90    2.23
   9   0  -5    2.37    1.00
   9   0  -4   31.78    2.40
   9   0  -3   15.39    1.63
   9   0  -2   15.21    1.74
   9  -1  -8    0.33    0.94
   9  -1  -7    1.46    1.08
   9  -1  -6    0.75    0.74
   9  -1  -5    0.19    0.64
   9  -1  -4    1.43    1.18
   9  -1  -3    2.06    1.03
   9  -1  -2    3.81    1.09
   9  -2  -8   16.16    2.06
   9  -2  -7    6.11    1.54
   9  -2  -6    7.00    1.70
   9  -2  -5   14.28    1.98
   9  -2  -4   -0.51    1.01
   9  -2  -3    3.67    1.35
   9  -2  -2    4.86    1.38
   9  -3  -7    1.33    1.33
   9  -3  -6   47.59    3.58
   9  -3  -5    3.95    1.27
   9  -3  -4   50.79    3.80
   9  -3  -3   27.87    2.86
   9  -3  -2    3.53    1.14
   9  -4  -7   15.03    2.34
   9  -4  -6   19.35    2.71
   9  -4  -4   28.85    2.99
   9  -4  -3    8.72    1.66
   9  -4  -2   54.83    4.22
   9  -5  -6    1.31    1.71
   9  -5  -5    3.10    1.62
   9  -5  -4    0.79    1.56
   9  -5  -2    7.98    1.95
   9  -6  -3   11.72    2.34
   9  -6  -2    2.14    1.60
 -10  -3   6  -13.83    0.00
  10   3  -5   12.08    1.43
  10   2  -6    5.56    1.23
  10   2  -5   -0.01    0.81
  10   2  -4    8.45    1.24
  10   1  -6    0.18    0.63
  10   1  -5    4.49    1.26
  10   1  -4    0.19    0.89
  10   0  -6    4.82    1.25
  10   0  -5   18.82    1.96
  10   0  -4    2.01    1.03
  10  -1  -6   25.91    2.51
  10  -1  -5    5.22    1.31
  10  -1  -4    6.78    1.47
  10  -2  -5    0.54    1.50
  10  -2  -4    6.61    1.78
  10  -3  -4    1.00    1.48
   0   0  -2 1134.53    8.81
   0   0  -3  147.23    2.83
   0   0  -4  151.33    3.10
   0   0  -5  609.35    7.38
   0   0  -6    4.26    0.71
   0   0  -7  220.44    5.07
   0   0  -8  263.07    5.93
   0   0  -9    6.48    1.16
   0   0 -10   87.95    3.70
   0   0 -11    0.27    0.65
   0   0 -12   49.47    3.06
   0   0 -13   37.86    2.77
   0   0 -14    1.73    1.09
   0  -1 -14    4.60    1.17
   0  -1 -13    6.30    1.51
   0  -1 -12    0.26    0.69
   0  -1 -11    6.51    1.31
   0  -1 -10   58.04    3.21
   0  -1  -9   53.29    2.84
   0  -1  -8   72.45    3.01
   0  -1  -7    5.58    0.89
   0  -1  -6  180.22    4.43
   0  -1  -5   65.87    2.22
   0  -1  -4   15.73    0.97
   0  -1  -3  515.54    5.59
   0  -1  -2   12.66    0.66
   0  -1  -1  413.50    3.61
   0   1  -1   34.45    0.77
   0   1  -2  577.27    5.22
   0   1  -3    4.55    0.52
   0   1  -4  169.98    3.23
   0   1  -5  187.32    3.77
   0   1  -6  292.72    5.25
   0   1  -7  179.00    4.39
   0   1  -8    0.92    0.59
   0   1  -9   38.03    2.34
   0   1 -10   30.98    2.15
   0   1 -11   20.55    1.93
   0   1 -12   36.85    2.56
   0   1 -13    1.68    1.12
   0  -2 -14    1.95    1.31
   0  -2 -13    2.88    0.96
   0  -2 -12    1.33    0.85
   0  -2 -11    1.83    0.87
   0  -2 -10    2.18    0.85
   0  -2  -9   23.59    1.89
   0  -2  -8   33.96    2.29
   0  -2  -7    9.80    1.11
   0  -2  -6   10.02    1.04
   0  -2  -5  175.87    3.73
   0  -2  -4    1.85    0.44
   0  -2  -3   38.39    1.29
   0  -2  -2  283.10    3.08
   0  -2  -1    2.87    0.25
   0   2  -2   40.99    1.20
   0   2  -3   14.13    0.79
   0   2  -4    1.53    0.36
   0   2  -5    2.99    0.51
   0   2  -6   15.66    1.19
   0   2  -7   -0.24    0.46
   0   2  -8    7.61    0.99
   0   2  -9    0.90    0.58
   0   2 -10    1.72    0.95
   0   2 -11    0.18    0.78
   0   2 -12    2.03    0.82
   0   2 -13    3.61    1.02
   0  -3 -14   13.97    1.90
   0  -3 -13    6.75    1.53
   0  -3 -12   24.61    2.31
   0  -3 -11    4.35    1.02
   0  -3 -10   40.98    2.84
   0  -3  -9  153.20    4.93
   0  -3  -8   19.38    1.54
   0  -3  -7  430.54    7.16
   0  -3  -6   21.84    1.55
   0  -3  -5  383.51    5.42
   0  -3  -4   65.42    1.95
   0  -3  -3  337.27    3.97
   0  -3  -2  356.63    3.61
   0  -3  -1   16.65    0.67
   0   3  -2   26.19    0.98
   0   3  -3  241.10    3.71
   0   3  -4    7.21    0.74
   0   3  -5  129.24    3.12
   0   3  -6  124.30    3.31
   0   3  -7    1.01    0.50
   0   3  -8   39.92    2.16
   0   3  -9    0.89    0.57
   0   3 -10    4.60    0.95
   0   3 -11    3.76    0.89
   0   3 -12    3.38    0.96
   0   3 -13   11.69    1.68
   0  -4 -14    0.93    1.21
   0  -4 -13   24.86    2.44
   0  -4 -12   28.16    2.40
   0  -4 -11   57.54    3.49
   0  -4 -10  107.08    4.21
   0  -4  -9    0.10    0.66
   0  -4  -8  187.91    4.91
   0  -4  -7  224.91    5.14
   0  -4  -6  162.28    3.78
   0  -4  -5  415.29    5.91
   0  -4  -4   18.52    1.01
   0  -4  -3  858.93    7.62
   0  -4  -2  445.09    4.33
   0  -4  -1  410.84    4.25
   0   4  -3  227.27    3.54
   0   4  -4  192.46    3.75
   0   4  -5  273.72    4.87
   0   4  -6   -0.09    0.49
   0   4  -7  148.11    4.02
   0   4  -8   43.92    2.35
   0   4  -9   49.18    2.62
   0   4 -10  111.50    4.14
   0   4 -11    7.47    1.21
   0   4 -12   34.52    2.48
   0   4 -13    7.64    1.31
   0  -5 -14    6.94    1.66
   0  -5 -13   23.12    2.33
   0  -5 -12    0.26    0.75
   0  -5 -11   23.15    2.20
   0  -5 -10    8.00    1.14
   0  -5  -9   84.48    3.57
   0  -5  -8   60.11    2.80
   0  -5  -7   24.00    1.60
   0  -5  -6  231.45    4.89
   0  -5  -5   19.87    1.23
   0  -5  -4  145.61    2.88
   0  -5  -3   90.79    2.18
   0  -5  -2    8.50    0.61
   0  -5  -1  274.12    3.67
   0   5  -5    0.77    0.52
   0   5  -6   59.50    2.38
   0   5  -7   93.82    3.18
   0   5  -8   12.37    1.36
   0   5  -9   90.56    3.57
   0   5 -10    4.04    0.95
   0   5 -11   13.41    1.66
   0   5 -12    7.87    1.31
   0  -6 -14    2.69    1.29
   0  -6 -13   -0.03    0.76
   0  -6 -12    6.32    1.49
   0  -6 -11    0.95    0.85
   0  -6 -10    1.60    0.71
   0  -6  -9    0.40    0.85
   0  -6  -8    6.57    1.06
   0  -6  -7    2.03    0.81
   0  -6  -6    2.85    0.58
   0  -6  -5    0.16    0.42
   0  -6  -4   32.34    1.47
   0  -6  -3    4.68    0.55
   0  -6  -2    0.89    0.32
   0  -6  -1    2.46    0.41
   0   6  -7    1.19    0.63
   0   6  -8    1.50    0.57
   0   6  -9    7.93    1.14
   0   6 -10    0.39    0.72
   0   6 -11    2.56    0.92
   0  -7 -13    8.09    1.51
   0  -7 -12   29.95    2.53
   0  -7 -11    3.16    0.84
   0  -7 -10   45.84    2.79
   0  -7  -9    7.79    1.24
   0  -7  -8   30.71    2.01
   0  -7  -7  207.82    4.92
   0  -7  -6    0.87    0.54
   0  -7  -5  116.48    2.97
   0  -7  -4   25.33    1.44
   0  -7  -3   45.01    1.85
   0  -7  -2  105.87    2.70
   0  -7  -1    5.95    0.66
   0  -8 -13   33.45    2.92
   0  -8 -12    0.77    0.92
   0  -8 -11   25.98    2.11
   0  -8 -10   47.92    2.87
   0  -8  -9    7.70    1.20
   0  -8  -8  192.79    5.21
   0  -8  -7   17.00    1.44
   0  -8  -6   88.94    2.88
   0  -8  -5   37.91    1.75
   0  -8  -4   56.42    2.19
   0  -8  -3   78.11    2.59
   0  -9  -8   12.35    1.49
   0  -9  -7   26.56    1.86
   0  -9  -6   54.99    2.32
   0  -9  -5    0.79    0.49
   0  -9  -4   62.37    2.39
  -1 -10  -1   45.79    2.29
  -1 -10  -2    5.04    1.00
  -1 -10  -3  121.58    3.40
  -1 -10  -4   12.61    1.23
  -1 -10  -5  100.31    3.58
  -1 -10  -6   30.55    1.86
  -1 -10  -7    0.31    0.63
  -1 -10  -8   44.76    2.53
  -1 -10  -9   16.14    1.74
  -1 -10 -10   22.05    1.94
  -1  -9  -1    1.74    0.60
  -1  -9  -2   15.70    1.36
  -1  -9  -3    7.38    0.87
  -1  -9  -4   13.66    1.23
  -1  -9  -5    2.90    0.80
  -1  -9  -6    0.96    0.45
  -1  -9  -7   -0.22    0.60
  -1  -9  -8    0.39    0.68
  -1  -9  -9    3.05    1.04
  -1  -9 -10    3.65    0.98
  -1  -9 -11    0.36    0.97
  -1  -9 -12    0.60    0.97
  -1  -8  -1   23.34    1.39
  -1  -8  -2  128.17    3.42
  -1  -8  -3   27.20    1.44
  -1  -8  -4   22.44    1.39
  -1  -8  -5   22.35    1.59
  -1  -8  -6    5.25    0.86
  -1  -8  -7   29.48    1.82
  -1  -8  -8    2.62    0.82
  -1  -8  -9   13.27    1.59
  -1  -8 -10    8.26    1.23
  -1  -8 -12   10.71    1.64
  -1  -8 -13    0.52    0.86
  -1  -7  -1  369.72    5.50
  -1  -7  -2   56.05    2.14
  -1  -7  -3  120.96    2.84
  -1  -7  -4  211.30    4.08
  -1  -7  -5    2.44    0.61
  -1  -7  -6  171.91    3.91
  -1  -7  -7   18.64    1.45
  -1  -7  -8  142.82    4.33
  -1  -7  -9   45.93    2.43
  -1  -7 -10    0.88    0.65
  -1  -7 -11   52.44    3.09
  -1  -7 -12    8.21    1.25
   1   6 -12    3.63    1.06
   1   6 -11    1.04    0.86
   1   6 -10    5.92    1.11
   1   6  -9    3.34    0.72
   1   6  -8    3.55    0.84
  -1  -6  -2   15.51    1.10
  -1  -6  -3  208.87    3.76
  -1  -6  -4   28.75    1.49
  -1  -6  -5  204.54    3.97
  -1  -6  -6  130.32    3.35
  -1  -6  -7   36.12    1.91
  -1  -6  -8  241.01    5.65
  -1  -6  -9   11.97    1.31
  -1  -6 -10   60.23    3.16
  -1  -6 -11   15.31    1.63
  -1  -6 -12   10.09    1.42
  -1  -6 -13   47.70    3.32
  -1  -6 -14    0.53    1.20
   1   5 -12    0.02    0.60
   1   5 -11    0.15    0.82
   1   5 -10    0.80    0.79
   1   5  -9   -0.46    0.64
   1   5  -8    4.93    0.91
   1   5  -7    7.41    1.00
   1   5  -6    3.59    0.67
  -1  -5  -2   36.65    1.50
  -1  -5  -3    1.95    0.44
  -1  -5  -4    8.56    0.81
  -1  -5  -5   32.52    1.50
  -1  -5  -6    2.07    0.63
  -1  -5  -7    1.00    0.67
  -1  -5  -8    2.76    0.82
  -1  -5  -9    4.16    0.92
  -1  -5 -10   13.79    1.61
  -1  -5 -11    0.04    0.52
  -1  -5 -12   11.56    1.58
  -1  -5 -13    1.00    0.91
  -1  -5 -14    0.25    1.09
   1   4 -13   11.41    1.68
   1   4 -12    0.53    0.82
   1   4 -11   29.04    2.35
   1   4 -10    1.47    0.74
   1   4  -9   78.86    3.37
   1   4  -8   52.36    2.60
   1   4  -7    5.72    0.99
   1   4  -6   68.50    2.64
   1   4  -5    3.32    0.59
   1   4  -4   24.63    1.17
  -1  -4  -2   16.02    0.92
  -1  -4  -3   66.78    1.76
  -1  -4  -4  213.94    3.49
  -1  -4  -5   71.67    2.17
  -1  -4  -6  157.11    3.64
  -1  -4  -7   21.96    1.51
  -1  -4  -8    5.67    0.94
  -1  -4  -9   12.21    1.37
  -1  -4 -10    1.04    0.74
  -1  -4 -11    3.50    1.05
  -1  -4 -12    9.59    1.65
  -1  -4 -13    1.66    0.88
  -1  -4 -14    5.67    1.52
   1   3 -13    1.85    1.17
   1   3 -12   40.91    2.93
   1   3 -11   68.53    3.52
   1   3 -10   26.58    2.12
   1   3  -9  237.68    5.79
   1   3  -8    0.43    0.66
   1   3  -7  219.09    4.96
   1   3  -6   60.39    2.39
   1   3  -5   97.11    2.75
   1   3  -4  806.67    8.35
   1   3  -3    3.63    0.51
  -1  -3  -1  845.67    6.99
  -1  -3  -2   55.66    1.34
  -1  -3  -3  477.09    5.35
  -1  -3  -4  275.62    3.90
  -1  -3  -5   24.12    1.27
  -1  -3  -6  432.34    6.46
  -1  -3  -7    4.75    0.87
  -1  -3  -8  196.87    4.85
  -1  -3  -9   53.41    2.49
  -1  -3 -10   37.01    2.38
  -1  -3 -11   86.04    4.06
  -1  -3 -12    2.43    0.88
  -1  -3 -13   34.58    2.75
  -1  -3 -14   10.93    1.81
   1   2 -13   16.76    2.01
   1   2 -12   20.70    2.04
   1   2 -11    4.74    1.04
   1   2 -10   37.90    2.46
   1   2  -9    1.80    0.67
   1   2  -8   66.18    2.82
   1   2  -7  107.17    3.33
   1   2  -6    1.24    0.45
   1   2  -5  180.06    3.72
   1   2  -4  203.23    3.55
   1   2  -3  381.49    4.64
   1   2  -2  394.69    4.14
  -1  -2  -1  340.45    3.51
  -1  -2  -2  307.71    3.31
  -1  -2  -3  495.42    4.93
  -1  -2  -4    8.53    0.74
  -1  -2  -5  534.32    6.80
  -1  -2  -6  172.05    4.00
  -1  -2  -7  163.37    4.12
  -1  -2  -8  125.37    3.60
  -1  -2  -9    7.52    1.12
  -1  -2 -10   74.61    3.52
  -1  -2 -11   68.50    3.40
  -1  -2 -12   39.61    2.81
  -1  -2 -13   37.17    2.76
  -1  -2 -14    4.07    1.05
   1   1 -14    2.01    0.98
   1   1 -13    1.39    1.11
   1   1 -12    0.45    0.99
   1   1 -11    0.08    0.65
   1   1 -10    1.80    0.75
   1   1  -9    0.08    0.52
   1   1  -8   12.19    1.25
   1   1  -7   11.21    1.14
   1   1  -6    9.45    0.95
   1   1  -5   28.72    1.43
   1   1  -4    5.00    0.60
   1   1  -3    6.86    0.56
   1   1  -2    3.20    0.34
  -1  -1  -1    2.05    0.20
  -1  -1  -2  158.74    2.15
  -1  -1  -3   25.97    1.03
  -1  -1  -4    8.28    0.66
  -1  -1  -5   10.62    0.98
  -1  -1  -6   11.15    0.99
  -1  -1  -7    4.94    0.75
  -1  -1  -8    0.05    0.52
  -1  -1  -9   20.85    1.84
  -1  -1 -10   13.66    1.52
  -1  -1 -11   -0.40    0.60
  -1  -1 -12    9.32    1.39
  -1  -1 -13    0.25    0.93
  -1  -1 -14    7.90    1.52
   1   0 -14   15.14    2.06
   1   0 -13    4.37    1.33
   1   0 -12   21.89    2.13
   1   0 -11   51.14    3.07
   1   0 -10    1.03    0.67
   1   0  -9   96.87    3.88
   1   0  -8   11.57    1.31
   1   0  -7   52.40    2.45
   1   0  -6  311.30    5.54
   1   0  -5   17.46    1.17
   1   0  -4  182.02    3.38
   1   0  -3   46.30    1.45
   1   0  -2    0.46    0.17
   1   0  -1  194.50    2.09
  -1   0  -1  369.07    3.20
  -1   0  -2  187.82    2.60
  -1   0  -3   63.43    1.73
  -1   0  -4  284.59    4.14
  -1   0  -5    0.04    0.40
  -1   0  -6   82.09    2.86
  -1   0  -7   13.33    1.31
  -1   0  -8    2.99    0.87
  -1   0  -9   56.11    2.83
  -1   0 -10    8.09    1.19
  -1   0 -11   15.20    1.71
  -1   0 -12   -0.11    0.87
  -1   0 -13    2.95    0.96
  -1   0 -14    1.56    1.09
   1  -1 -14   18.05    2.17
   1  -1 -13    5.45    1.17
   1  -1 -12  105.54    4.75
   1  -1 -11   42.95    2.97
   1  -1 -10  119.43    4.51
   1  -1  -9  219.98    5.77
   1  -1  -8   76.31    3.26
   1  -1  -7  556.03    8.57
   1  -1  -6  108.88    3.36
   1  -1  -5  293.05    5.09
   1  -1  -4  456.47    5.75
   1  -1  -3   29.13    1.17
   1  -1  -2  513.46    4.81
  -1   1  -1  892.93    7.05
  -1   1  -2   44.63    1.30
  -1   1  -3  107.78    2.29
  -1   1  -4   58.84    1.85
  -1   1  -5  169.84    3.61
  -1   1  -6  366.23    5.95
  -1   1  -7   33.53    1.89
  -1   1  -8  232.15    5.25
  -1   1  -9   15.76    1.51
  -1   1 -10   76.26    3.31
  -1   1 -11   25.57    2.12
  -1   1 -12    7.43    1.19
  -1   1 -13   42.33    2.69
  -1   1 -14    5.48    1.25
   1  -2 -14    0.72    1.20
   1  -2 -13   32.87    2.89
   1  -2 -12   27.12    2.45
   1  -2 -11   21.65    2.11
   1  -2 -10  165.72    5.38
   1  -2  -9    3.12    1.11
   1  -2  -8  123.64    4.18
   1  -2  -7  102.83    3.45
   1  -2  -6   86.21    3.09
   1  -2  -5  347.65    5.78
   1  -2  -4    8.95    0.76
   1  -2  -3  471.76    5.34
   1  -2  -2  271.97    3.18
  -1   2  -1   20.78    0.64
  -1   2  -2    4.69    0.41
  -1   2  -3  138.44    2.59
  -1   2  -4   15.20    0.97
  -1   2  -5  528.94    6.61
  -1   2  -6    5.57    0.75
  -1   2  -7  162.60    4.07
  -1   2  -8   97.97    3.37
  -1   2  -9   17.80    1.62
  -1   2 -10   72.13    3.09
  -1   2 -11    2.00    0.71
  -1   2 -12   29.78    2.24
  -1   2 -13   22.74    1.99
   1  -3 -14   -0.36    1.20
   1  -3 -13    0.96    0.89
   1  -3 -12    2.67    1.18
   1  -3 -11    0.69    1.06
   1  -3 -10   57.52    3.30
   1  -3  -9    3.08    0.88
   1  -3  -8   -0.45    0.79
   1  -3  -7   11.28    1.37
   1  -3  -6    4.46    0.75
   1  -3  -5   52.61    2.12
   1  -3  -4   13.63    1.03
   1  -3  -3    8.07    0.71
   1  -3  -2   65.53    1.36
   1  -3  -1    3.81    0.25
  -1   3  -2   60.17    1.51
  -1   3  -3   41.39    1.40
  -1   3  -4   55.13    1.81
  -1   3  -5   26.17    1.40
  -1   3  -6   73.04    2.49
  -1   3  -7   19.34    1.39
  -1   3  -8    0.76    0.64
  -1   3  -9   15.51    1.42
  -1   3 -10    3.84    0.80
  -1   3 -11    9.86    1.32
  -1   3 -12    5.34    1.02
  -1   3 -13    0.90    0.93
   1  -4 -14   15.70    2.03
   1  -4 -13    8.84    1.73
   1  -4 -12   22.84    2.29
   1  -4 -11   11.14    1.59
   1  -4 -10    7.96    1.27
   1  -4  -9  152.46    5.24
   1  -4  -8   14.39    1.50
   1  -4  -7   91.33    3.09
   1  -4  -6   45.48    2.16
   1  -4  -5   37.43    1.79
   1  -4  -4   34.57    1.59
   1  -4  -3  186.29    2.96
   1  -4  -2  110.95    2.01
   1  -4  -1  346.82    3.55
  -1   4  -3   69.83    1.97
  -1   4  -4  127.92    2.90
  -1   4  -5   18.75    1.25
  -1   4  -6   51.81    2.12
  -1   4  -7    1.02    0.59
  -1   4  -8   21.91    1.62
  -1   4  -9    1.11    0.70
  -1   4 -10   10.52    1.24
  -1   4 -11    2.95    0.81
  -1   4 -12    0.45    0.66
  -1   4 -13    3.23    1.14
   1  -5 -14   10.06    1.77
   1  -5 -13   20.92    2.39
   1  -5 -12   82.23    4.29
   1  -5 -11    2.77    0.88
   1  -5 -10  179.66    6.01
   1  -5  -9   52.17    2.93
   1  -5  -8   69.27    2.98
   1  -5  -7  165.49    4.47
   1  -5  -6   28.57    1.72
   1  -5  -5  190.32    4.13
   1  -5  -4  137.85    2.99
   1  -5  -3  105.11    2.18
   1  -5  -2  591.94    5.33
   1  -5  -1   45.77    1.21
  -1   5  -4    9.89    0.92
  -1   5  -5  185.79    3.99
  -1   5  -6   40.67    1.99
  -1   5  -7   20.43    1.53
  -1   5  -8   38.56    2.13
  -1   5  -9    1.26    0.72
  -1   5 -10   64.16    2.98
  -1   5 -11   10.23    1.29
  -1   5 -12    7.86    1.31
   1  -6 -14    1.13    1.20
   1  -6 -13   41.90    3.28
   1  -6 -12   10.64    1.60
   1  -6 -11   33.97    2.83
   1  -6 -10   46.00    2.87
   1  -6  -9    4.01    0.93
   1  -6  -8  168.86    4.85
   1  -6  -7    7.10    1.09
   1  -6  -6  159.43    3.93
   1  -6  -5  113.77    3.05
   1  -6  -4    4.18    0.56
   1  -6  -3  253.11    3.75
   1  -6  -2   15.46    0.90
   1  -6  -1  124.44    2.27
  -1   6  -6   17.69    1.33
  -1   6  -7  135.17    3.81
  -1   6  -8    2.98    0.73
  -1   6  -9   15.19    1.44
  -1   6 -10   18.12    1.59
  -1   6 -11    0.19    0.73
   1  -7 -13   -0.23    1.20
   1  -7 -12    0.67    1.10
   1  -7 -11   -0.12    0.99
   1  -7 -10    3.71    1.01
   1  -7  -9    1.00    0.62
   1  -7  -8   -0.15    0.71
   1  -7  -7    8.35    1.11
   1  -7  -6    4.72    0.91
   1  -7  -5   -0.13    0.45
   1  -7  -4    2.68    0.55
   1  -7  -3    3.12    0.55
   1  -7  -2    7.71    0.67
  -2 -11   0   11.14    1.27
  -2 -11  -1    1.85    0.78
  -2 -11  -2    0.89    0.74
  -2 -11  -3   11.03    1.25
  -2 -11  -4   -0.01    0.78
  -2 -11  -5   17.64    1.68
  -2 -11  -6   10.64    1.36
  -2 -11  -7    3.29    0.94
  -2 -11  -8   11.14    1.44
  -2 -11  -9    1.00    0.91
  -2 -11 -10    2.09    1.23
  -2 -10  -1   -0.15    0.56
  -2 -10  -2   58.97    2.85
  -2 -10  -3    7.19    1.06
  -2 -10  -4  135.05    4.56
  -2 -10  -5   82.64    3.38
  -2 -10  -6    4.16    0.84
  -2 -10  -7   96.56    3.57
  -2 -10  -9   44.17    2.76
  -2 -10 -10   17.46    1.88
  -2 -10 -11    7.92    1.20
  -2  -9  -1  103.17    3.29
  -2  -9  -2   76.22    2.92
  -2  -9  -3   49.29    2.32
  -2  -9  -4  243.29    5.86
  -2  -9  -5   10.94    1.29
  -2  -9  -6  113.87    3.82
  -2  -9  -7   31.29    1.98
  -2  -9  -8   13.70    1.42
  -2  -9  -9   64.88    3.21
  -2  -9 -10    0.44    0.74
  -2  -9 -11   34.41    2.40
  -2  -9 -12   11.32    1.76
  -2  -8  -1    5.10    0.80
  -2  -8  -2    0.27    0.49
  -2  -8  -3    0.75    0.40
  -2  -8  -4    0.61    0.66
  -2  -8  -5   -0.28    0.57
  -2  -8  -6   43.54    2.21
  -2  -8  -7    7.04    1.05
  -2  -8  -8   21.94    1.75
  -2  -8  -9    3.57    0.97
  -2  -8 -10   34.62    2.53
  -2  -8 -11    4.85    1.16
  -2  -8 -12    1.15    1.05
  -2  -8 -13    8.07    1.53
  -2  -7  -2  133.63    3.46
  -2  -7  -3   13.01    1.05
  -2  -7  -4    2.19    0.58
  -2  -7  -5  111.01    3.43
  -2  -7  -6    1.95    0.66
  -2  -7  -7    9.78    1.11
  -2  -7  -8    0.46    0.65
  -2  -7  -9    0.25    0.75
  -2  -7 -10    8.89    1.32
  -2  -7 -11    0.83    0.93
  -2  -7 -12    0.91    0.77
  -2  -7 -13    1.07    0.92
  -2  -6  -2  649.04    7.66
  -2  -6  -3   -0.19    0.41
  -2  -6  -4  328.31    5.17
  -2  -6  -5  116.53    3.36
  -2  -6  -6   64.12    2.37
  -2  -6  -7  127.45    3.62
  -2  -6  -8   33.00    2.02
  -2  -6  -9  106.02    3.86
  -2  -6 -10   12.09    1.40
  -2  -6 -11   15.47    1.65
  -2  -6 -12   25.45    2.25
  -2  -6 -13    2.29    0.95
  -2  -6 -14   10.45    1.84
   2   5 -12   10.73    1.52
   2   5 -11   16.69    1.92
   2   5 -10    7.72    1.21
   2   5  -9   78.21    3.43
   2   5  -8   14.92    1.45
   2   5  -7  169.19    4.69
  -2  -5  -2   45.14    1.78
  -2  -5  -3  299.42    4.40
  -2  -5  -4  204.21    3.98
  -2  -5  -5   75.93    2.34
  -2  -5  -6  337.63    5.39
  -2  -5  -7   18.69    1.43
  -2  -5  -8  101.36    3.56
  -2  -5  -9   69.68    2.80
  -2  -5 -10    5.81    1.18
  -2  -5 -11   69.89    3.36
  -2  -5 -12    1.18    0.82
  -2  -5 -13   31.39    2.59
  -2  -5 -14   22.74    2.44
   2   4 -12    1.67    1.14
   2   4 -10   11.30    1.43
   2   4  -9   19.69    1.82
   2   4  -8   15.20    1.46
   2   4  -7    7.11    0.93
   2   4  -6    1.44    0.50
  -2  -4  -2    8.97    0.78
  -2  -4  -3  187.65    3.68
  -2  -4  -4   68.93    2.21
  -2  -4  -5  141.51    3.11
  -2  -4  -6    2.12    0.59
  -2  -4  -7   12.06    1.16
  -2  -4  -8   21.20    1.63
  -2  -4  -9    5.48    0.95
  -2  -4 -10   12.84    1.44
  -2  -4 -11   10.93    1.38
  -2  -4 -12    8.59    1.38
  -2  -4 -13   19.50    2.21
  -2  -4 -14    0.81    0.78
   2   3 -13   11.67    1.91
   2   3 -12    0.09    1.08
   2   3 -11    9.01    1.43
   2   3 -10   50.59    2.96
   2   3  -9   14.06    1.58
   2   3  -8  113.76    3.86
   2   3  -7    4.57    0.92
   2   3  -6   48.52    2.19
   2   3  -5   80.18    2.40
   2   3  -4   16.99    0.95
  -2  -3  -1   73.07    1.84
  -2  -3  -2  112.33    2.34
  -2  -3  -3   12.80    0.79
  -2  -3  -4   45.08    1.53
  -2  -3  -5   12.72    0.94
  -2  -3  -6    9.11    0.87
  -2  -3  -7    4.57    0.72
  -2  -3  -8    0.16    0.63
  -2  -3  -9    0.84    0.72
  -2  -3 -10    0.74    0.52
  -2  -3 -11    1.11    0.68
  -2  -3 -12   12.54    1.67
  -2  -3 -13    1.65    0.83
  -2  -3 -14    0.57    1.05
   2   2 -13   26.60    2.63
   2   2 -12   33.48    2.82
   2   2 -11  132.38    5.05
   2   2 -10    2.39    0.86
   2   2  -9  103.17    3.90
   2   2  -8  133.46    4.20
   2   2  -7   27.37    1.78
   2   2  -6  196.93    4.37
   2   2  -5    4.81    0.65
   2   2  -4  464.71    5.73
   2   2  -3  543.82    5.34
  -2  -2  -1  182.64    2.74
  -2  -2  -2  115.91    2.10
  -2  -2  -3   71.40    1.84
  -2  -2  -4  377.66    4.59
  -2  -2  -5   88.46    2.40
  -2  -2  -6  201.94    4.01
  -2  -2  -7   16.04    1.30
  -2  -2  -8   60.45    2.57
  -2  -2  -9   69.17    2.79
  -2  -2 -10    1.59    0.81
  -2  -2 -11   35.66    2.57
  -2  -2 -12   33.86    2.37
  -2  -2 -13    4.51    1.23
  -2  -2 -14   27.52    2.49
   2   1 -14   30.92    2.89
   2   1 -13   -0.17    1.04
   2   1 -12   65.56    3.76
   2   1 -11   21.31    2.05
   2   1 -10   55.02    3.06
   2   1  -9  114.38    4.11
   2   1  -8    1.75    0.75
   2   1  -7  116.73    3.56
   2   1  -6  190.45    4.19
   2   1  -5   38.89    1.66
   2   1  -4  844.27    8.21
   2   1  -3  107.04    2.28
  -2  -1  -1  109.99    1.91
  -2  -1  -2    1.56    0.29
  -2  -1  -3  666.90    5.92
  -2  -1  -4  179.96    3.11
  -2  -1  -5  206.94    3.59
  -2  -1  -6  362.79    5.72
  -2  -1  -7    2.03    0.64
  -2  -1  -8  117.94    3.40
  -2  -1  -9   20.50    1.69
  -2  -1 -10   59.59    3.07
  -2  -1 -11   90.02    3.64
  -2  -1 -12    2.33    1.02
  -2  -1 -13   18.88    1.99
  -2  -1 -14    5.58    1.24
   2   0 -14    8.87    1.82
   2   0 -13    0.94    0.90
   2   0 -12    3.19    1.19
   2   0 -11    0.06    0.62
   2   0 -10    7.31    1.23
   2   0  -9   12.90    1.48
   2   0  -8   13.26    1.39
   2   0  -7   58.30    2.54
   2   0  -6    3.07    0.60
   2   0  -5    4.47    0.61
   2   0  -4    8.44    0.71
   2   0  -3  229.38    3.25
   2   0  -2   29.05    0.88
  -2   0  -1   64.05    1.11
  -2   0  -2 1902.80   12.34
  -2   0  -3    9.55    0.69
  -2   0  -4  106.29    2.47
  -2   0  -5   79.35    2.32
  -2   0  -6    4.12    0.67
  -2   0  -7   22.58    1.51
  -2   0  -8   18.97    1.61
  -2   0  -9    1.29    0.56
  -2   0 -10   31.31    2.11
  -2   0 -11    8.81    1.25
  -2   0 -12   16.51    1.66
  -2   0 -13    4.85    1.04
  -2   0 -14    1.17    1.01
   2  -1 -14   11.00    1.88
   2  -1 -13   10.52    1.83
   2  -1 -12    0.71    0.81
   2  -1 -11   58.12    3.26
   2  -1 -10   57.88    3.18
   2  -1  -9   46.02    2.70
   2  -1  -8   23.40    1.87
   2  -1  -7    0.58    0.66
   2  -1  -6  128.17    3.55
   2  -1  -5  146.45    3.41
   2  -1  -4   28.90    1.28
   2  -1  -3  225.15    3.13
   2  -1  -2   64.63    1.26
  -2   1  -1 1672.96   11.37
  -2   1  -2  159.37    2.38
  -2   1  -3    1.64    0.36
  -2   1  -4    0.80    0.29
  -2   1  -5    0.75    0.49
  -2   1  -6   14.65    1.13
  -2   1  -7    4.15    0.79
  -2   1  -8    0.77    0.69
  -2   1  -9   17.12    1.56
  -2   1 -10    3.23    0.91
  -2   1 -11    0.73    0.74
  -2   1 -12    0.23    0.63
  -2   1 -13   -0.16    0.89
   2  -2 -14   38.71    3.25
   2  -2 -13   16.31    2.07
   2  -2 -12   47.16    3.18
   2  -2 -11  173.45    5.95
   2  -2 -10    1.83    1.02
   2  -2  -9  282.26    6.78
   2  -2  -8   20.44    1.73
   2  -2  -7  160.65    4.30
   2  -2  -6  244.08    4.92
   2  -2  -5   45.14    1.92
   2  -2  -4  322.89    4.66
   2  -2  -3   27.56    1.04
   2  -2  -2  159.62    2.03
  -2   2  -1  478.28    4.16
  -2   2  -2  102.08    1.88
  -2   2  -3   90.77    2.08
  -2   2  -4  176.04    3.30
  -2   2  -5   15.74    1.07
  -2   2  -6  188.04    4.01
  -2   2  -7    5.34    0.76
  -2   2  -8   46.44    2.18
  -2   2  -9   52.79    2.50
  -2   2 -10    0.02    0.52
  -2   2 -11   28.21    1.95
  -2   2 -12    2.71    0.78
  -2   2 -13   10.96    1.49
   2  -3 -13    2.99    1.33
   2  -3 -12   62.14    3.83
   2  -3 -11    0.32    0.72
   2  -3 -10   79.03    3.71
   2  -3  -9   75.53    3.45
   2  -3  -8    0.81    0.57
   2  -3  -7  203.01    5.12
   2  -3  -6   20.58    1.48
   2  -3  -5  426.95    6.20
   2  -3  -4  441.31    5.91
   2  -3  -3  164.18    2.96
   2  -3  -2  436.00    4.43
  -2   3  -1  167.24    2.07
  -2   3  -2  185.90    2.58
  -2   3  -3  493.71    5.13
  -2   3  -4   34.72    1.41
  -2   3  -5  326.39    5.01
  -2   3  -6   84.98    2.56
  -2   3  -7   39.73    1.91
  -2   3  -8  104.33    3.19
  -2   3  -9    1.55    0.65
  -2   3 -10   27.40    1.88
  -2   3 -11   18.06    1.65
  -2   3 -12    0.54    0.77
  -2   3 -13   20.96    1.86
   2  -4 -14   -0.75    1.11
   2  -4 -13    0.44    1.18
   2  -4 -12    2.05    1.20
   2  -4 -11    1.03    0.70
   2  -4 -10   52.32    3.21
   2  -4  -9    1.93    1.01
   2  -4  -8   -0.21    0.70
   2  -4  -7    1.78    0.82
   2  -4  -6    6.00    0.98
   2  -4  -5   90.32    2.78
   2  -4  -4    2.01    0.44
   2  -4  -3  166.36    2.91
   2  -4  -2  239.48    2.88
   2  -4  -1  157.66    1.85
  -2   4  -2  205.23    3.02
  -2   4  -3  142.72    2.77
  -2   4  -4   45.31    1.65
  -2   4  -5   95.85    2.62
  -2   4  -6    3.25    0.63
  -2   4  -7   18.04    1.30
  -2   4  -9    5.27    0.90
  -2   4 -10   19.75    1.62
  -2   4 -11    0.13    0.74
  -2   4 -12   13.26    1.41
   2  -5 -14    9.00    1.65
   2  -5 -13   11.52    1.83
   2  -5 -12    1.17    1.04
   2  -5 -11   20.29    2.17
   2  -5 -10    5.73    1.21
   2  -5  -9   16.07    1.75
   2  -5  -8   51.06    2.86
   2  -5  -7    0.33    0.72
   2  -5  -6   83.56    2.86
   2  -5  -5    3.26    0.70
   2  -5  -4    7.16    0.80
   2  -5  -3   83.18    2.09
   2  -5  -2    2.75    0.40
   2  -5  -1  114.07    1.63
  -2   5  -4   25.43    1.28
  -2   5  -5    4.93    0.78
  -2   5  -6   12.57    1.14
  -2   5  -7   10.84    1.12
  -2   5  -8    4.56    0.89
  -2   5  -9    0.61    0.65
  -2   5 -10    0.68    0.56
  -2   5 -11    2.07    0.86
  -2   5 -12    0.96    0.83
   2  -6 -12   68.00    3.96
   2  -6 -11   49.80    3.31
   2  -6 -10   14.16    1.73
   2  -6  -9  136.11    4.91
   2  -6  -8    2.74    0.96
   2  -6  -7  166.95    4.43
   2  -6  -6   24.28    1.64
  -3 -12   0   38.27    2.35
  -3 -12  -1    3.70    1.02
  -3 -12  -2   61.35    3.40
  -3 -12  -3    6.24    1.17
  -3 -12  -4    6.88    1.34
  -3 -12  -5   28.45    2.32
  -3 -12  -6    0.59    1.10
  -3 -12  -7   45.70    2.83
  -3 -12  -8    6.76    1.36
  -3 -12  -9   15.74    1.87
  -3 -11   0    0.23    0.57
  -3 -11  -1   46.28    2.62
  -3 -11  -2   13.97    1.64
  -3 -11  -3    4.60    0.98
  -3 -11  -4   12.32    1.59
  -3 -11  -6   26.89    2.30
  -3 -11  -7    9.66    1.35
  -3 -11  -8    9.33    1.44
  -3 -11  -9   10.45    1.54
  -3 -11 -10   -0.12    0.74
  -3 -10  -1    8.26    1.10
  -3 -10  -2    4.98    1.01
  -3 -10  -3    5.15    1.03
  -3 -10  -4    7.25    1.18
  -3 -10  -5    0.07    0.64
  -3 -10  -6    9.05    1.33
  -3 -10  -7    6.08    1.05
  -3 -10  -8    4.10    1.10
  -3 -10  -9   -0.85    0.81
  -3 -10 -10    0.38    0.94
  -3 -10 -11    0.57    1.18
  -3  -9  -1    4.32    0.77
  -3  -9  -2   67.70    2.87
  -3  -9  -3   64.16    2.94
  -3  -9  -4   21.68    1.69
  -3  -9  -5  135.49    4.14
  -3  -9  -6   15.74    1.72
  -3  -9  -7   38.86    2.35
  -3  -9  -8   23.70    1.92
  -3  -9  -9    3.42    1.06
  -3  -9 -10   32.56    2.47
  -3  -9 -11    0.41    1.11
  -3  -9 -12   14.78    1.84
  -3  -8  -1   20.70    1.53
  -3  -8  -2  227.87    5.06
  -3  -8  -3    3.30    0.77
  -3  -8  -4  314.69    6.54
  -3  -8  -5   10.56    1.23
  -3  -8  -6   23.02    1.92
  -3  -8  -7   98.56    3.50
  -3  -8  -8    4.08    0.86
  -3  -8  -9   55.91    2.98
  -3  -8 -10   18.06    1.88
  -3  -8 -11   12.13    1.49
  -3  -8 -12   39.45    2.91
  -3  -7  -2   20.51    1.43
  -3  -7  -3   52.55    2.38
  -3  -7  -4   84.13    3.27
  -3  -7  -5   28.52    1.81
  -3  -7  -6   73.57    2.88
  -3  -7  -7   12.29    1.24
  -3  -7  -8   29.03    1.96
  -3  -7  -9   17.65    1.63
  -3  -7 -10   12.33    1.55
  -3  -7 -11   16.47    1.71
  -3  -7 -12    6.85    1.30
  -3  -7 -13    6.14    1.43
  -3  -6  -2    4.88    0.71
  -3  -6  -3   15.16    1.20
  -3  -6  -4   27.35    1.80
  -3  -6  -5    0.33    0.42
  -3  -6  -6    0.81    0.58
  -3  -6  -7   -0.59    0.54
  -3  -6  -8    1.58    0.74
  -3  -6  -9   -0.07    0.78
  -3  -6 -10    0.61    0.82
  -3  -6 -11    2.84    1.07
  -3  -6 -12   -0.15    0.83
  -3  -6 -13   -0.28    0.89
  -3  -5  -2  358.37    5.47
  -3  -5  -3  167.57    3.52
  -3  -5  -4   63.38    2.20
  -3  -5  -5  128.77    3.54
  -3  -5  -6    2.95    0.68
  -3  -5  -7   80.58    2.82
  -3  -5  -8   22.20    1.61
  -3  -5  -9  107.73    3.93
  -3  -5 -10   82.73    3.42
  -3  -5 -11    1.63    0.96
  -3  -5 -12   15.39    1.66
  -3  -5 -13    1.68    0.92
   3   4 -12    2.44    1.21
   3   4 -11   49.22    3.20
   3   4 -10   12.37    1.67
   3   4  -9   72.11    3.33
   3   4  -8  145.22    4.22
   3   4  -7   16.25    1.48
  -3  -4  -2  259.30    4.49
  -3  -4  -3  224.40    3.85
  -3  -4  -4  261.13    4.49
  -3  -4  -5   14.76    1.05
  -3  -4  -6  189.05    3.91
  -3  -4  -7  155.59    3.92
  -3  -4  -8    9.12    1.11
  -3  -4  -9   71.27    2.80
  -3  -4 -10   26.89    2.09
  -3  -4 -11   35.62    2.34
  -3  -4 -12   24.65    1.95
  -3  -4 -13    3.93    1.18
  -3  -4 -14   28.53    2.64
   3   3 -13    1.14    1.25
   3   3 -12    5.34    1.45
   3   3 -11    2.43    1.09
   3   3 -10    0.39    0.91
   3   3  -9   58.20    2.86
   3   3  -8   21.07    1.58
   3   3  -7   33.85    1.88
   3   3  -6    9.95    0.95
  -3  -3  -1   33.90    1.36
  -3  -3  -2   13.23    0.90
  -3  -3  -3  342.61    4.97
  -3  -3  -4  142.13    3.18
  -3  -3  -5   15.74    1.03
  -3  -3  -6  101.88    2.85
  -3  -3  -7   52.26    2.26
  -3  -3  -8   87.10    2.93
  -3  -3  -9   27.47    1.88
  -3  -3 -10   29.76    2.06
  -3  -3 -11   35.53    2.15
  -3  -3 -12    0.39    0.66
  -3  -3 -13   10.82    1.53
  -3  -3 -14    3.93    1.21
   3   2 -13    6.26    1.73
   3   2 -12   10.84    1.70
   3   2 -11   -0.36    1.02
   3   2 -10   41.24    2.75
   3   2  -9    9.14    1.39
   3   2  -8   30.06    2.05
   3   2  -7   42.12    2.24
   3   2  -6    0.20    0.33
   3   2  -5   12.50    1.04
  -3  -2  -1    7.99    0.64
  -3  -2  -2   12.67    0.74
  -3  -2  -3   10.60    0.77
  -3  -2  -4    0.84    0.35
  -3  -2  -5    9.96    0.85
  -3  -2  -6    0.66    0.42
  -3  -2  -7    4.92    0.74
  -3  -2  -8    2.02    0.63
  -3  -2  -9    0.84    0.53
  -3  -2 -10    1.73    0.60
  -3  -2 -11   -0.33    0.68
  -3  -2 -12    1.65    0.76
  -3  -2 -13    3.88    1.13
  -3  -2 -14    0.28    1.01
   3   1 -13   65.43    4.09
   3   1 -12   -0.61    1.05
   3   1 -11   88.90    4.33
   3   1 -10   43.28    2.82
   3   1  -9    5.88    1.06
   3   1  -8   99.25    3.68
   3   1  -7    2.13    0.59
   3   1  -6   95.35    2.96
   3   1  -5   79.15    2.46
   3   1  -4    5.32    0.63
  -3  -1  -1   17.46    0.86
  -3  -1  -2  698.93    6.06
  -3  -1  -3   10.90    0.67
  -3  -1  -4  269.98    3.81
  -3  -1  -5  328.98    4.83
  -3  -1  -6   65.79    2.08
  -3  -1  -7  180.78    4.02
  -3  -1  -8    1.22    0.50
  -3  -1  -9   54.80    2.36
  -3  -1 -10   21.69    1.81
  -3  -1 -11    1.62    0.69
  -3  -1 -12   25.38    2.03
  -3  -1 -13    0.20    0.67
  -3  -1 -14    5.08    1.08
   3   0 -14   34.26    3.22
   3   0 -13   31.04    2.88
   3   0 -12   20.16    2.16
   3   0 -11   69.44    3.67
   3   0 -10    0.32    0.86
   3   0  -9  112.23    4.11
   3   0  -8   30.53    1.99
   3   0  -7   81.76    2.94
   3   0  -6  241.36    4.67
   3   0  -5   -0.18    0.34
   3   0  -4  680.04    7.05
   3   0  -3   79.67    1.76
  -3   0  -1  395.52    3.94
  -3   0  -2  315.09    3.34
  -3   0  -3  398.80    4.37
  -3   0  -4  622.92    6.51
  -3   0  -5    3.59    0.55
  -3   0  -6  272.09    4.60
  -3   0  -7   26.11    1.44
  -3   0  -8   39.41    1.95
  -3   0  -9   77.37    3.15
  -3   0 -10    0.40    0.49
  -3   0 -11   61.47    2.91
  -3   0 -12    9.96    1.38
  -3   0 -13    9.03    1.33
   3  -1 -14    9.94    1.89
   3  -1 -13    1.52    0.96
   3  -1 -12   12.43    1.83
   3  -1 -11    0.72    0.98
   3  -1 -10   17.79    1.84
   3  -1  -9   19.73    1.74
   3  -1  -8    3.43    0.77
   3  -1  -7  116.31    3.51
   3  -1  -6    0.01    0.44
   3  -1  -5   26.39    1.33
   3  -1  -4   36.79    1.40
   3  -1  -3   69.44    1.59
  -3   1   0    0.86    0.16
  -3   1  -1  535.82    4.26
  -3   1  -2    0.20    0.24
  -3   1  -3  263.22    3.42
  -3   1  -4   71.73    1.93
  -3   1  -5   20.24    1.09
  -3   1  -6  100.40    2.70
  -3   1  -7    0.81    0.62
  -3   1  -8   82.43    2.88
  -3   1  -9    0.56    0.48
  -3   1 -10   17.24    1.49
  -3   1 -11   24.63    1.88
  -3   1 -12    1.62    0.81
  -3   1 -13    7.96    1.31
   3  -2 -14    1.51    1.29
   3  -2 -13   -0.52    0.81
   3  -2 -12    8.44    1.64
   3  -2 -11    1.42    0.97
   3  -2 -10   22.26    2.05
   3  -2  -9    2.50    0.97
   3  -2  -8    1.55    0.69
   3  -2  -7    8.81    1.02
   3  -2  -6    7.56    0.89
   3  -2  -5   35.01    1.56
   3  -2  -4   44.31    1.46
   3  -2  -3   17.49    0.76
  -3   2  -1   38.32    0.87
  -3   2  -2   35.61    0.99
  -3   2  -3   62.31    1.69
  -3   2  -4    1.21    0.42
  -3   2  -5    1.19    0.43
  -3   2  -6   15.64    1.14
  -3   2  -7   -0.01    0.51
  -3   2  -8    0.06    0.39
  -3   2  -9    1.02    0.61
  -3   2 -10    0.04    0.44
  -3   2 -11    0.18    0.69
  -3   2 -12    0.91    0.80
  -3   2 -13    0.78    0.75
   3  -3 -14   20.26    2.43
   3  -3 -13   45.66    3.38
   3  -3 -12    5.76    1.45
   3  -3 -11  107.06    4.47
   3  -3 -10   10.10    1.46
   3  -3  -9   68.75    3.31
   3  -3  -8    9.16    1.27
   3  -3  -7    6.22    0.96
   3  -3  -6  214.21    4.51
   3  -3  -5   92.98    2.53
   3  -3  -4  192.45    3.03
   3  -3  -3  199.92    2.60
  -3   3  -1  292.39    2.85
  -3   3  -2  301.51    3.41
  -3   3  -3   29.38    1.14
  -3   3  -4  121.06    2.58
  -3   3  -5   13.93    1.00
  -3   3  -6   51.21    1.98
  -3   3  -7   39.14    1.87
  -3   3  -8    0.38    0.56
  -3   3  -9   44.37    2.24
  -3   3 -10    8.53    1.07
  -3   3 -10    8.59    1.07
  -3   3 -11    3.21    0.82
  -3   3 -12    5.17    1.03
   3  -4 -14   22.06    2.43
   3  -4 -13    1.99    1.20
   3  -4 -12   38.70    2.86
   3  -4 -11   41.28    2.91
   3  -4 -10   26.55    2.29
   3  -4  -9  174.07    5.32
   3  -4  -8   18.15    1.64
   3  -4  -7  107.17    3.50
  -3   4  -3  235.01    3.42
  -3   4  -4  248.48    3.85
  -3   4  -5   10.03    0.86
  -3   4  -6  153.68    3.51
  -3   4  -7    1.24    0.56
  -3   4  -8   42.27    2.04
  -3   4  -9   27.20    1.70
  -3   4 -10    8.57    1.08
  -3   4 -11   15.01    1.41
   3  -5  -9   20.03    1.85
   3  -5  -8    7.04    1.13
  -4 -13   1    0.45    0.63
  -4 -13   0    0.56    0.76
  -4 -13  -1    0.82    0.69
  -4 -13  -2    1.31    0.91
  -4 -13  -3    1.12    0.65
  -4 -13  -4   -0.28    0.77
  -4 -13  -5    3.52    1.16
  -4 -13  -6    0.43    1.21
  -4 -12   0    3.85    0.94
  -4 -12  -1   47.01    2.78
  -4 -12  -2    0.49    0.96
  -4 -12  -3   14.04    1.54
  -4 -12  -4   11.71    1.65
  -4 -12  -5    2.79    0.88
  -4 -12  -6   33.41    2.83
  -4 -12  -7    0.91    0.68
  -4 -12  -8   13.04    1.68
  -4 -11   0   41.42    2.30
  -4 -11  -1    9.80    1.41
  -4 -11  -2   40.95    2.71
  -4 -11  -3   82.12    3.71
  -4 -11  -4   -1.50    0.76
  -4 -11  -5   85.88    3.93
  -4 -11  -6   13.90    1.79
  -4 -11  -7   44.45    3.07
  -4 -11  -8   39.32    2.71
  -4 -11 -10   55.62    3.56
  -4 -10  -1   22.30    1.76
  -4 -10  -2   53.61    2.80
  -4 -10  -3    8.66    1.35
  -4 -10  -4   36.26    2.30
  -4 -10  -5   32.35    2.24
  -4 -10  -6   13.97    1.72
  -4 -10  -7   50.61    2.90
  -4 -10  -8    0.54    0.90
  -4 -10  -9   27.01    2.27
  -4 -10 -10   13.56    1.76
  -4 -10 -11    6.57    1.43
  -4  -9  -1    4.38    0.88
  -4  -9  -2    4.25    0.82
  -4  -9  -3   -0.25    0.46
  -4  -9  -4   11.80    1.34
  -4  -9  -5    3.60    0.81
  -4  -9  -6   22.07    2.05
  -4  -9  -7    4.28    1.10
  -4  -9  -8   -0.04    0.79
  -4  -9  -9    0.30    0.67
  -4  -9 -10   -0.22    0.66
  -4  -9 -11    1.06    0.94
  -4  -8  -2    7.46    1.12
  -4  -8  -3  136.54    4.39
  -4  -8  -4    2.81    0.85
  -4  -8  -5  160.06    4.72
  -4  -8  -6   38.97    2.57
  -4  -8  -7   17.41    1.68
  -4  -8  -8   26.55    2.07
  -4  -8  -9    0.95    0.87
  -4  -8 -10   11.74    1.60
  -4  -8 -11    7.92    1.63
  -4  -8 -12    0.08    0.97
  -4  -7  -1    0.02    0.39
  -4  -7  -2  231.29    5.02
  -4  -7  -3  165.39    4.38
  -4  -7  -4   79.87    3.02
  -4  -7  -5  154.67    4.38
  -4  -7  -6   14.53    1.52
  -4  -7  -7  174.94    4.78
  -4  -7  -8   74.16    3.16
  -4  -7  -9   24.88    2.07
  -4  -7 -10   67.76    3.46
  -4  -7 -11    1.17    0.96
  -4  -7 -12   28.24    2.45
  -4  -6  -1  141.15    3.58
  -4  -6  -2  218.43    4.67
  -4  -6  -3    0.12    0.41
  -4  -6  -4  287.38    6.17
  -4  -6  -5   24.54    1.75
  -4  -6  -6   44.46    2.26
  -4  -6  -7  100.68    3.40
  -4  -6  -8    1.70    0.68
  -4  -6  -9   76.96    3.30
  -4  -6 -10    2.04    0.88
  -4  -6 -11    9.33    1.29
  -4  -6 -12   20.71    2.03
  -4  -6 -13    0.95    1.07
  -4  -5  -1    2.13    0.49
  -4  -5  -2   11.85    1.07
  -4  -5  -3   -0.01    0.42
  -4  -5  -4    3.59    0.81
  -4  -5  -5    0.22    0.59
  -4  -5  -6    0.11    0.41
  -4  -5  -7    0.97    0.50
  -4  -5  -8    2.26    0.68
  -4  -5  -9    8.76    1.24
  -4  -5 -10    1.44    0.65
  -4  -5 -11    1.25    0.74
  -4  -5 -12    1.34    0.90
  -4  -5 -13    1.08    0.69
  -4  -4  -1  200.62    3.88
  -4  -4  -2  280.52    5.03
  -4  -4  -3  261.98    4.44
  -4  -4  -4    3.30    0.60
  -4  -4  -5  105.16    3.15
  -4  -4  -6   21.91    1.40
  -4  -4  -7   31.24    1.79
  -4  -4  -8   71.90    2.87
  -4  -4  -9    0.75    0.80
  -4  -4 -10   35.63    2.29
  -4  -4 -11   15.17    1.66
  -4  -4 -12    6.00    1.03
  -4  -4 -13    1.01    0.86
   4   3 -13   35.90    3.09
   4   3 -12   10.08    1.80
   4   3 -11   25.38    2.36
   4   3 -10   44.39    2.83
   4   3  -9    4.07    1.00
   4   3  -8  263.69    6.29
  -4  -3  -1   19.46    1.15
  -4  -3  -2  612.85    7.24
  -4  -3  -3   44.20    1.94
  -4  -3  -4  353.05    5.50
  -4  -3  -5  117.47    2.95
  -4  -3  -6   15.26    1.12
  -4  -3  -7  155.76    3.83
  -4  -3  -8   57.82    2.61
  -4  -3  -9   45.87    2.30
  -4  -3 -10   29.97    1.98
  -4  -3 -11    1.47    0.83
  -4  -3 -12   22.26    1.78
  -4  -3 -13    4.63    1.24
   4   2 -13    4.15    1.36
   4   2 -12    4.77    1.10
   4   2 -11   18.23    1.86
   4   2 -10    0.85    0.62
   4   2  -9   31.19    2.10
   4   2  -8   36.79    2.26
   4   2  -7    1.06    0.48
  -4  -2  -1  225.87    3.74
  -4  -2  -2  134.07    2.64
  -4  -2  -3   20.65    1.11
  -4  -2  -4  159.13    3.08
  -4  -2  -5   61.20    1.97
  -4  -2  -6   54.34    2.00
  -4  -2  -7   64.69    2.47
  -4  -2  -8   27.32    1.65
  -4  -2  -9   34.55    1.96
  -4  -2 -10    0.97    0.68
  -4  -2 -11   15.64    1.45
  -4  -2 -12    5.55    1.12
  -4  -2 -13    1.52    0.96
   4   1 -13   -0.36    1.25
   4   1 -12    0.76    1.23
   4   1 -11    0.87    1.11
   4   1 -10    4.14    1.25
   4   1  -9    0.65    0.65
   4   1  -8    1.97    0.66
   4   1  -7    1.53    0.47
   4   1  -6   12.30    1.05
  -4  -1  -1    3.54    0.52
  -4  -1  -2    4.87    0.57
  -4  -1  -3    0.09    0.32
  -4  -1  -4   37.77    1.38
  -4  -1  -5    1.69    0.40
  -4  -1  -6    0.12    0.34
  -4  -1  -7    0.18    0.46
  -4  -1  -8    5.93    0.81
  -4  -1  -9    1.98    0.67
  -4  -1 -10    0.67    0.59
  -4  -1 -11    1.21    0.80
  -4  -1 -12    0.48    0.76
  -4  -1 -13   -0.62    0.52
   4   0 -13   54.09    3.83
   4   0 -11    7.66    1.50
   4   0 -10   39.99    2.67
   4   0  -9   10.08    1.41
   4   0  -8   62.10    2.87
   4   0  -7   27.30    1.76
   4   0  -6   14.79    1.22
   4   0  -5  249.05    4.28
  -4   0   0  450.81    4.75
  -4   0  -1    5.43    0.47
  -4   0  -2   26.10    1.04
  -4   0  -3   77.69    1.73
  -4   0  -4   18.35    0.97
  -4   0  -5  111.91    2.48
  -4   0  -6    9.11    0.86
  -4   0  -7   24.18    1.41
  -4   0  -8   29.38    1.57
  -4   0  -9    0.99    0.62
  -4   0 -10   12.44    1.39
  -4   0 -11    0.12    0.53
  -4   0 -12    8.59    1.27
  -4   0 -13    0.65    0.87
   4  -1 -13   77.28    4.59
   4  -1 -12   -0.25    1.01
   4  -1 -11   30.72    2.58
   4  -1 -10   37.46    2.65
   4  -1  -9   37.62    2.45
   4  -1  -8  191.46    5.08
   4  -1  -7    4.99    0.85
   4  -1  -6  208.70    4.35
   4  -1  -5  241.64    4.07
  -4   1   0  249.78    2.78
  -4   1  -1  241.02    2.83
  -4   1  -2  607.82    5.15
  -4   1  -3  163.71    2.70
  -4   1  -4  105.04    2.31
  -4   1  -5   30.36    1.37
  -4   1  -6   12.76    0.89
  -4   1  -7   66.72    2.38
  -4   1  -8    2.47    0.71
  -4   1  -9   15.29    1.31
  -4   1 -10   24.60    1.73
  -4   1 -11   11.85    1.30
  -4   1 -12   21.80    1.73
  -4   1 -13    1.67    0.85
   4  -2 -13   11.15    2.00
   4  -2 -12   15.35    2.05
   4  -2 -11   23.66    2.30
   4  -2 -10    0.66    0.66
   4  -2  -9   40.89    2.55
   4  -2  -8   37.46    2.20
   4  -2  -7   97.97    3.17
   4  -2  -5    0.74    0.39
   4  -2  -4  147.56    2.68
  -4   2  -2   72.99    1.53
  -4   2  -3   32.23    1.11
  -4   2  -4   36.03    1.33
  -4   2  -5    7.41    0.75
  -4   2  -6   39.77    1.76
  -4   2  -7    7.24    0.81
  -4   2  -8   30.85    1.73
  -4   2  -9   18.42    1.40
  -4   2 -10    0.63    0.45
  -4   2 -11   17.95    1.51
  -4   2 -12    2.79    0.89
   4  -3 -13    1.57    1.01
   4  -3 -12    3.51    1.28
   4  -3 -11    0.86    0.98
   4  -3 -10   12.38    1.57
   4  -3  -9    1.16    0.78
   4  -3  -8   10.18    1.20
   4  -3  -7    2.19    0.66
   4  -3  -5    0.39    0.41
  -4   3  -7    0.43    0.45
  -4   3  -8    3.40    0.72
  -4   3  -9   -0.03    0.53
  -4   3  -9    0.01    0.53
  -5 -13   0   10.94    1.45
  -5 -13  -1    4.82    1.10
  -5 -13  -2   15.58    1.96
  -5 -13  -3   35.14    2.57
  -5 -13  -4    0.45    1.20
  -5 -12   0   -0.22    0.42
  -5 -12  -1    1.03    0.70
  -5 -12  -2    2.59    0.99
  -5 -12  -3    0.85    0.73
  -5 -12  -4    1.29    0.82
  -5 -12  -5    1.19    0.70
  -5 -12  -6    0.57    1.13
  -5 -12  -7    6.87    1.72
  -5 -11   0    0.75    0.64
  -5 -11  -1   17.61    1.65
  -5 -11  -2   14.13    1.67
  -5 -11  -3    0.17    0.82
  -5 -11  -4   17.62    1.83
  -5 -11  -5    1.32    1.06
  -5 -11  -6   15.27    1.90
  -5 -11  -7   11.86    1.88
  -5 -11  -8    0.25    0.96
  -5 -11  -9   12.91    1.85
  -5 -10  -2   10.43    1.41
  -5 -10  -3  154.26    5.11
  -5 -10  -4   32.66    2.32
  -5 -10  -5   20.28    1.99
  -5 -10  -6   84.16    4.16
  -5 -10  -7    2.88    1.33
  -5 -10  -8   62.20    3.44
  -5 -10  -9   12.39    1.66
  -5 -10 -10   18.76    2.20
  -5  -9  -1    0.62    0.65
  -5  -9  -2   73.19    3.24
  -5  -9  -3   31.13    2.19
  -5  -9  -4    8.32    1.22
  -5  -9  -5   78.79    3.76
  -5  -9  -6    3.74    1.25
  -5  -9  -7   40.32    2.68
  -5  -9  -8   18.90    1.88
  -5  -9  -9    3.33    0.99
  -5  -9 -10   34.90    2.81
  -5  -9 -11    3.22    1.40
  -5  -8  -1    0.40    0.55
  -5  -8  -2    1.35    0.58
  -5  -8  -3    0.79    0.56
  -5  -8  -4   20.59    1.70
  -5  -8  -5    9.13    1.20
  -5  -8  -6    2.46    1.04
  -5  -8  -7    2.03    0.95
  -5  -8  -8    1.17    0.72
  -5  -8  -9    3.42    1.13
  -5  -8 -10    5.07    1.14
  -5  -8 -11   -1.23    0.76
  -5  -7  -1   46.70    2.17
  -5  -7  -2   41.66    2.20
  -5  -7  -3   10.33    1.21
  -5  -7  -4   15.64    1.50
  -5  -7  -5   10.13    1.22
  -5  -7  -6   36.74    2.50
  -5  -7  -7   37.20    2.34
  -5  -7  -8   15.93    1.61
  -5  -7  -9   24.80    2.14
  -5  -7 -10   -0.13    0.68
  -5  -7 -11    7.17    1.37
  -5  -7 -12    1.11    1.00
  -5  -6  -1   85.16    2.84
  -5  -6  -2   24.36    1.72
  -5  -6  -3  287.40    5.74
  -5  -6  -4   30.65    2.16
  -5  -6  -5  122.56    4.04
  -5  -6  -6  103.77    3.78
  -5  -6  -7   27.04    1.94
  -5  -6  -8  127.93    4.20
  -5  -6  -9    4.73    1.00
  -5  -6 -10   24.02    2.21
  -5  -6 -11    9.97    1.45
  -5  -6 -12    3.22    1.06
  -5  -5  -1    6.59    0.82
  -5  -5  -2  131.97    3.80
  -5  -5  -3  181.58    4.16
  -5  -5  -4   32.59    2.03
  -5  -5  -5  100.70    3.53
  -5  -5  -6    2.55    0.66
  -5  -5  -7  127.14    3.83
  -5  -5  -8   23.94    1.86
  -5  -5  -9   25.16    1.94
  -5  -5 -10   49.25    2.90
  -5  -5 -11    3.17    1.02
  -5  -5 -12   19.07    1.88
  -5  -4  -1   17.07    1.23
  -5  -4  -2   22.37    1.54
  -5  -4  -3    1.19    0.44
  -5  -4  -4    0.32    0.49
  -5  -4  -5    0.14    0.63
  -5  -4  -6    0.51    0.55
  -5  -4  -7   10.64    1.10
  -5  -4  -8    5.70    1.00
  -5  -4  -9    5.27    1.02
  -5  -4 -10    5.90    0.97
  -5  -4 -11    0.79    0.60
  -5  -4 -12    6.87    1.31
  -5  -4 -13    1.06    0.84
  -5  -3  -1  190.13    3.96
  -5  -3  -2    2.08    0.52
  -5  -3  -3   96.85    3.10
  -5  -3  -4    2.83    0.61
  -5  -3  -5    4.53    0.68
  -5  -3  -6   15.76    1.19
  -5  -3  -7   -0.26    0.39
  -5  -3  -8    7.82    1.13
  -5  -3  -9    0.44    0.45
  -5  -3 -10   -0.32    0.49
  -5  -3 -11    3.75    1.01
  -5  -3 -12    0.27    0.54
  -5  -3 -13    0.05    0.70
   5   2 -12   42.38    2.92
   5   2 -11    2.98    1.02
   5   2 -10   56.71    3.36
  -5  -2  -1  229.25    4.09
  -5  -2  -2  100.70    2.50
  -5  -2  -3  183.71    3.64
  -5  -2  -4   20.68    1.25
  -5  -2  -5  206.01    3.89
  -5  -2  -6   20.43    1.33
  -5  -2  -7   54.35    2.36
  -5  -2  -8   70.55    2.48
  -5  -2  -9    2.35    0.68
  -5  -2 -10   26.46    1.85
  -5  -2 -11    0.54    0.50
  -5  -2 -12   11.97    1.47
  -5  -2 -13    5.20    1.06
   5   1 -13   16.66    2.10
   5   1 -12    2.53    1.32
   5   1 -11   32.45    2.70
   5   1 -10   16.51    1.74
   5   1  -9    8.33    1.21
   5   1  -8   72.88    2.75
  -5  -1   0  269.92    4.10
  -5  -1  -1   64.29    2.04
  -5  -1  -2  302.22    4.68
  -5  -1  -3    4.18    0.65
  -5  -1  -4   93.51    2.29
  -5  -1  -5   57.12    1.95
  -5  -1  -6   15.26    1.17
  -5  -1  -7  101.35    2.76
  -5  -1  -8    0.42    0.43
  -5  -1  -9   54.58    2.42
  -5  -1 -10    7.96    0.95
  -5  -1 -11    4.88    0.96
  -5  -1 -12    9.46    1.24
  -5  -1 -13    1.97    0.96
   5   0 -13    1.14    1.14
   5   0 -12    0.47    0.75
   5   0 -11    8.44    1.31
   5   0 -10    2.61    0.96
   5   0  -9    1.26    0.71
   5   0  -8    0.42    0.45
   5   0  -7    6.65    0.85
  -5   0   0   10.68    0.74
  -5   0  -1   26.60    1.16
  -5   0  -2    3.05    0.46
  -5   0  -3    0.17    0.26
  -5   0  -4   37.11    1.43
  -5   0  -5    6.06    0.73
  -5   0  -6    9.54    0.86
  -5   0  -7   -0.43    0.44
  -5   0  -9    7.24    0.92
  -5   0 -10    1.29    0.74
  -5   0 -11    1.67    0.76
  -5   0 -12    1.64    0.63
   5  -1 -13    4.78    1.26
   5  -1 -12   36.61    3.06
   5  -1 -11    2.54    1.20
   5  -1 -10   22.88    2.15
   5  -1  -9   48.45    2.78
   5  -1  -8    3.15    0.77
   5  -1  -7   89.55    3.11
  -5   1   1   59.65    1.56
  -5   1   0   35.83    1.05
  -5   1  -1   82.15    1.74
  -5   1  -2   14.90    0.70
  -5   1  -3    7.64    0.60
  -5   1  -4    2.78    0.42
  -5   1  -5   17.03    1.04
  -5   1  -6    3.12    0.59
  -5   1  -7    1.41    0.46
  -5   1  -8    1.05    0.59
  -5   1  -9   -0.14    0.57
  -5   1 -10    0.19    0.46
  -5   1 -11    0.92    0.74
  -5   1 -12    1.13    0.77
   5  -2 -12   20.81    2.34
   5  -2 -11    1.35    0.88
   5  -2 -10   91.24    4.06
   5  -2  -9    5.35    1.13
   5  -2  -8  129.37    4.10
   5  -2  -7   86.46    2.80
   5  -2  -6   54.17    1.99
  -6 -12   1    2.55    0.61
  -6 -12   0   11.12    1.36
  -6 -12  -1   32.10    2.26
  -6 -12  -2   -0.27    0.96
  -6 -12  -3   28.46    2.21
  -6 -12  -4   20.86    2.30
  -6 -12  -5   14.41    1.79
  -6 -12  -6   25.04    2.57
  -6 -11   0    2.20    0.62
  -6 -11  -1    1.90    0.67
  -6 -11  -2    6.20    1.20
  -6 -11  -3    5.26    1.01
  -6 -11  -4    0.65    0.73
  -6 -11  -5    9.62    1.68
  -6 -11  -6    0.16    1.02
  -6 -11  -7    8.40    1.92
  -6 -11  -8    6.43    1.49
  -6 -10   0    6.69    0.96
  -6 -10  -1    0.57    0.67
  -6 -10  -2    5.27    1.08
  -6 -10  -3    1.76    0.71
  -6 -10  -4   11.46    1.47
  -6 -10  -5    7.49    1.31
  -6 -10  -6    0.91    1.05
  -6 -10  -7   11.02    1.70
  -6 -10  -8    0.43    0.78
  -6 -10  -9    2.46    1.26
  -6  -9   0    0.40    0.44
  -6  -9  -1  131.31    4.13
  -6  -9  -2   17.97    1.72
  -6  -9  -3   33.37    2.25
  -6  -9  -4  102.59    3.93
  -6  -9  -5    0.03    1.02
  -6  -9  -6   51.29    3.26
  -6  -9  -7   14.53    2.04
  -6  -9  -8    7.78    1.31
  -6  -9  -9   44.58    3.07
  -6  -9 -10    0.32    1.18
  -6  -8  -1  147.30    4.19
  -6  -8  -2    1.87    0.92
  -6  -8  -3  143.91    4.47
  -6  -8  -4   13.49    1.55
  -6  -8  -5   91.38    3.77
  -6  -8  -6   98.20    4.37
  -6  -8  -7   34.89    2.46
  -6  -8  -8   36.15    2.60
  -6  -8  -9    2.79    1.09
  -6  -8 -10   15.48    1.90
  -6  -7  -1    0.20    0.40
  -6  -7  -2    0.31    0.49
  -6  -7  -3    8.96    1.20
  -6  -7  -4    7.53    1.22
  -6  -7  -5   55.95    2.90
  -6  -7  -6    4.76    1.25
  -6  -7  -7   11.18    1.49
  -6  -7  -8   15.03    1.72
  -6  -7  -9   11.25    1.62
  -6  -7 -10   16.95    1.90
  -6  -6  -1    6.03    0.95
  -6  -6  -2   11.68    1.35
  -6  -6  -3    0.31    0.61
  -6  -6  -4   24.58    2.04
  -6  -6  -5    0.23    0.55
  -6  -6  -6    3.06    1.12
  -6  -6  -7   15.51    1.55
  -6  -6  -8    0.48    0.79
  -6  -6  -9    0.46    0.71
  -6  -6 -10   -0.35    0.98
  -6  -6 -11   -0.65    0.96
  -6  -5  -1  273.25    5.47
  -6  -5  -2    1.48    0.94
  -6  -5  -3  158.25    4.09
  -6  -5  -4   53.00    2.59
  -6  -5  -5   16.44    1.60
  -6  -5  -6  108.45    3.70
  -6  -5  -7    0.93    0.59
  -6  -5  -8   57.02    2.86
  -6  -5  -9   12.73    1.46
  -6  -5 -10    8.28    1.53
  -6  -5 -11    6.31    1.26
  -6  -5 -12   -0.18    0.78
  -6  -4  -1  108.60    3.32
  -6  -4  -2   53.43    2.45
  -6  -4  -3  308.73    5.85
  -6  -4  -4    4.27    0.83
  -6  -4  -5  155.94    4.52
  -6  -4  -6   14.46    1.29
  -6  -4  -7   52.53    2.52
  -6  -4  -8   68.46    3.08
  -6  -4  -9   -0.26    0.54
  -6  -4 -10   29.38    1.98
  -6  -4 -11   17.71    1.87
  -6  -4 -12    8.84    1.48
  -6  -3  -1    0.81    0.43
  -6  -3  -2   76.94    2.60
  -6  -3  -3   30.47    1.84
  -6  -3  -4   41.23    2.13
  -6  -3  -5   14.75    1.26
  -6  -3  -6   20.90    1.50
  -6  -3  -7   18.24    1.47
  -6  -3  -8    2.44    0.87
  -6  -3  -9    3.12    0.72
  -6  -3 -10   11.49    1.38
  -6  -3 -11    0.94    0.87
  -6  -3 -12    2.68    0.71
  -6  -2   0    0.38    0.43
  -6  -2  -1   -0.11    0.36
  -6  -2  -2    2.46    0.56
  -6  -2  -3    1.06    0.52
  -6  -2  -4    8.39    0.92
  -6  -2  -5    0.02    0.46
  -6  -2  -6    2.21    0.57
  -6  -2  -7   -0.43    0.55
  -6  -2  -8    1.11    0.69
  -6  -2  -9    2.25    0.68
  -6  -2 -10   -0.01    0.69
  -6  -2 -11    1.25    0.57
  -6  -2 -12    0.13    0.76
  -6  -1   0  123.98    3.04
  -6  -1  -1  212.19    3.84
  -6  -1  -2   -0.18    0.39
  -6  -1  -3   90.05    2.57
  -6  -1  -4   27.69    1.38
  -6  -1  -5   53.08    2.00
  -6  -1  -6   77.66    2.61
  -6  -1  -7    0.60    0.52
  -6  -1  -8   49.46    2.30
  -6  -1  -9    2.59    0.76
  -6  -1 -10    5.83    0.83
  -6  -1 -11    5.55    0.93
  -6  -1 -12    1.06    0.69
  -6   0   1  130.53    2.90
  -6   0   0  181.40    3.57
  -6   0  -1    6.08    0.83
  -6   0  -2   76.31    2.17
  -6   0  -3   44.36    1.53
  -6   0  -4    1.91    0.46
  -6   0  -5  156.98    3.41
  -6   0  -6   22.32    1.25
  -6   0  -7   51.06    2.09
  -6   0  -8   27.19    1.58
  -6   0  -9    4.38    0.70
  -6   0 -10   25.72    1.79
  -6   0 -11    1.12    0.76
  -7 -12  -1    0.05    0.61
  -7 -12  -3    1.06    0.70
  -7 -11   1   26.03    1.53
  -7 -11   0    0.04    0.42
  -7 -11  -1   32.39    2.15
  -7 -11  -2   13.74    1.60
  -7 -11  -3    9.04    1.28
  -7 -11  -4   67.41    3.88
  -7 -11  -5    3.17    1.03
  -7 -11  -6   37.19    3.07
  -7 -10   0    7.27    0.96
  -7 -10  -1    9.81    1.22
  -7 -10  -2    0.69    0.85
  -7 -10  -3   19.32    1.81
  -7 -10  -4   -0.90    0.80
  -7 -10  -5   15.59    2.03
  -7 -10  -6   14.57    1.91
  -7 -10  -7   -0.47    0.89
  -7 -10  -8   18.05    2.12
  -7  -9   0    3.44    0.72
  -7  -9  -1    2.19    0.76
  -7  -9  -2    1.14    0.86
  -7  -9  -3    6.70    1.06
  -7  -9  -4    1.89    0.94
  -7  -9  -5   11.18    1.45
  -7  -9  -6    0.79    1.06
  -7  -9  -7    3.17    1.38
  -7  -9  -8   -0.72    0.69
  -7  -9  -9   -0.18    0.82
  -7  -8   0   22.17    1.55
  -7  -8  -1   28.83    1.90
  -7  -8  -2   48.44    2.80
  -7  -8  -3   -0.28    0.73
  -7  -8  -4   81.75    3.93
  -7  -8  -5   24.43    2.09
  -7  -8  -7   25.83    2.23
  -7  -8  -8   -0.31    0.95
  -7  -8  -9   28.81    2.57
  -7  -7   0   -0.16    0.36
  -7  -7  -1   82.49    3.15
  -7  -7  -2   51.36    2.84
  -7  -7  -3   40.33    2.34
  -7  -7  -4  112.31    4.66
  -7  -7  -5   12.16    1.56
  -7  -7  -6  128.82    5.14
  -7  -7  -7   12.35    1.62
  -7  -7  -8   11.71    1.52
  -7  -7  -9   54.11    3.33
  -7  -6   0   42.63    2.04
  -7  -6  -1   13.14    1.29
  -7  -6  -2   30.96    2.24
  -7  -6  -3   24.76    1.81
  -7  -6  -4   -0.36    0.86
  -7  -6  -5   74.40    3.57
  -7  -6  -6   38.97    2.65
  -7  -6  -7    1.60    0.75
  -7  -6  -8   16.75    1.79
  -7  -6  -9    1.33    0.82
  -7  -6 -10   13.35    1.79
  -7  -6 -11    4.91    1.23
  -7  -5   0    8.41    0.99
  -7  -5  -1    0.21    0.43
  -7  -5  -2    5.12    0.91
  -7  -5  -3    1.68    0.62
  -7  -5  -4    4.45    0.82
  -7  -5  -5    0.56    0.87
  -7  -5  -6   -0.22    0.50
  -7  -5  -7    0.31    0.58
  -7  -5  -8   -0.19    0.82
  -7  -5  -9    0.86    0.73
  -7  -5 -10   -0.36    0.77
  -7  -5 -11    0.22    0.70
  -7  -4   0   -0.21    0.55
  -7  -4  -1   78.43    3.03
  -7  -4  -2   54.95    2.53
  -7  -4  -3   11.04    1.40
  -7  -4  -4  144.77    4.45
  -7  -4  -5   27.83    2.01
  -7  -4  -6   43.93    2.41
  -7  -4  -7   20.94    1.77
  -7  -4  -8   16.45    1.71
  -7  -4  -9   22.67    2.10
  -7  -4 -10    1.22    0.91
  -7  -4 -11   12.97    1.77
  -7  -3   0   37.91    2.00
  -7  -3  -1  157.79    4.36
  -7  -3  -2    2.42    0.78
  -7  -3  -3  235.55    5.39
  -7  -3  -4   74.05    3.15
  -7  -3  -5   26.30    1.78
  -7  -3  -6   43.59    2.21
  -7  -3  -7    1.15    0.59
  -7  -3  -8   53.91    2.82
  -7  -3  -9   12.96    1.47
  -7  -3 -10    4.70    1.09
  -7  -3 -11   18.74    1.87
  -7  -2   0   49.09    2.18
  -7  -2  -1    5.39    0.87
  -7  -2  -2   37.45    2.15
  -7  -2  -3  105.52    3.35
  -7  -2  -4    1.86    0.64
  -7  -2  -5   54.45    2.29
  -7  -2  -6    8.63    1.08
  -7  -2  -7   15.00    1.45
  -7  -2  -8   20.41    1.65
  -7  -2  -9    0.92    0.75
  -7  -2 -10   17.54    1.66
  -7  -2 -11    1.37    0.77
  -7  -1   1    3.92    0.67
  -7  -1   0    8.42    1.01
  -7  -1  -1    0.25    0.43
  -7  -1  -2    3.07    0.63
  -7  -1  -3    0.72    0.49
  -7  -1  -4    0.15    0.46
  -7  -1  -5    0.73    0.54
  -7  -1  -6    2.99    0.77
  -7  -1  -7    0.06    0.52
  -8 -10   1   17.84    1.19
  -8 -10   0   26.62    1.70
  -8 -10  -1    8.54    1.23
  -8 -10  -2   36.45    2.42
  -8 -10  -3    0.21    0.63
  -8 -10  -4   49.65    3.43
  -8 -10  -5   28.97    2.45
  -8  -9   1   11.04    0.99
  -8  -9   0    0.02    0.38
  -8  -9  -1   35.64    2.19
  -8  -9  -2    7.80    1.21
  -8  -9  -3   27.70    2.05
  -8  -9  -4   28.60    2.58
  -8  -9  -5    0.96    0.99
  -8  -9  -6   37.88    3.15
  -8  -9  -7    9.81    1.76
  -8  -8   0    0.56    0.52
  -8  -8  -1    2.00    0.70
  -8  -8  -2    1.26    0.66
  -8  -8  -3    5.95    1.07
  -8  -8  -4   -0.55    0.94
  -8  -8  -5    2.15    0.91
  -8  -8  -6    3.59    1.39
  -8  -8  -7    1.77    1.15
  -8  -8  -8    3.09    1.08
  -8  -7   0   31.28    1.88
  -8  -7  -1    1.22    0.65
  -8  -7  -2   62.23    3.16
  -8  -7  -3   20.42    1.74
  -8  -7  -4   26.84    2.36
  -8  -7  -5   31.15    2.54
  -8  -7  -6    0.29    0.88
  -8  -7  -7   14.00    1.83
  -8  -7  -8   -0.16    1.08
  -8  -7  -9    1.67    1.27
  -8  -6   0   20.20    1.57
  -8  -6  -1   51.55    2.67
  -8  -6  -2   71.90    3.28
  -8  -6  -3   -0.32    0.84
  -8  -6  -4   94.39    4.10
  -8  -6  -5   11.84    1.74
  -8  -6  -6   47.53    3.01
  -8  -6  -7   40.80    2.78
  -8  -6  -8    0.62    0.81
  -8  -6  -9   44.50    3.17
  -8  -5   0   32.18    2.02
  -8  -5  -1   92.22    3.60
  -8  -5  -2    1.64    0.86
  -8  -5  -3   88.69    3.83
  -8  -5  -4   12.74    1.51
  -8  -5  -5   11.06    1.57
  -8  -5  -6   46.94    2.78
  -8  -5  -7    7.05    1.40
  -8  -5  -8    9.28    1.40
  -8  -5  -9    9.84    1.58
  -8  -5 -10    5.61    1.60
  -8  -4   1    1.64    0.61
  -8  -4   0    5.82    0.99
  -8  -4  -1    8.48    1.27
  -8  -4  -2    0.27    0.65
  -8  -4  -3    1.54    0.96
  -8  -4  -4    3.45    0.89
  -8  -4  -5    4.60    1.11
  -8  -4  -6   -0.06    0.81
  -8  -4  -7   -0.75    0.79
  -8  -4  -8    0.58    0.92
  -8  -4  -9    0.41    0.79
  -8  -4 -10    1.11    1.07
  -8  -3   1   21.91    1.52
  -8  -3   0   26.22    1.81
  -8  -3  -1   23.18    1.82
  -8  -3  -2   78.83    3.37
  -8  -3  -3    8.62    1.25
  -8  -3  -4   42.60    2.62
  -8  -3  -5   19.27    1.65
  -8  -3  -6   -0.17    0.71
  -8  -3  -7    9.99    1.36
  -8  -3  -8    0.88    0.73
  -8  -3  -9    6.12    1.17
  -8  -3 -10    3.30    0.99
  -9  -9   2   14.23    0.90
  -9  -9   1    4.17    0.64
  -9  -9   0   35.88    1.97
  -9  -9  -1    0.39    0.84
  -9  -9  -2   35.74    2.37
  -9  -9  -3   21.23    1.90
  -9  -9  -4    9.21    1.61
  -9  -8   1   26.64    1.54
  -9  -8   0    9.01    1.04
  -9  -8  -1   17.84    1.75
  -9  -8  -2   37.18    2.42
  -9  -8  -3    0.20    0.83
  -9  -8  -4   19.75    2.05
  -9  -8  -5   22.79    2.35
  -9  -8  -6    6.96    1.58
  -9  -7   1    2.59    0.56
  -9  -7   0    0.58    0.48
  -9  -7  -1    3.61    0.93
  -9  -7  -2    5.26    1.07
  -9  -7  -3    2.02    0.96
  -9  -7  -4    8.83    1.33
  -9  -7  -5    1.86    1.30
  -9  -7  -6    4.15    1.46
  -9  -7  -7    1.36    1.11
  -9  -6   1    0.16    0.56
  -9  -6   0   35.35    2.14
  -9  -6  -1   10.01    1.35
  -9  -6  -2   -1.05    0.76
  -9  -6  -3   60.87    3.63
  -9  -6  -4    2.93    0.97
  -9  -6  -5   22.72    2.41
  -9  -6  -6    2.03    0.91
  -9  -6  -7    4.00    1.13
  -9  -6  -8    3.58    1.39
  -9  -5   1   13.96    1.35
  -9  -5   0  141.99    4.31
  -9  -5  -1   -1.87    0.94
  -9  -5  -2   97.23    3.73
  -9  -5  -3   25.50    2.44
  -9  -5  -4   29.01    2.50
  -9  -5  -5   38.70    2.89
  -9  -5  -6    7.21    1.35
  -9  -5  -8    9.94    1.71
  -9  -4   1   68.82    2.95
  -9  -4   0    5.12    1.15
  -9  -4  -1   26.19    2.00
  -9  -4  -2   34.03    2.47
  -9  -4  -3    2.01    1.03
  -9  -4  -4   64.92    3.56
  -9  -4  -5   13.06    1.63
  -9  -4  -6   29.38    2.29
  -9  -4  -7   32.31    2.43
  -9  -4  -8    3.85    1.11
 -10  -8  -1   18.09    1.67
 -10  -7   2    4.93    0.70
 -10  -7   1    8.41    1.10
 -10  -7   0   23.12    1.91
 -10  -7  -1    0.29    0.87
 -10  -7  -2   30.23    2.22
 -10  -7  -3   24.93    2.60
 -10  -7  -4   10.11    1.71
 -10  -6   2    0.39    0.51
 -10  -6   1    6.88    1.06
 -10  -6   0    0.33    0.89
 -10  -6  -1    0.83    0.63
 -10  -6  -2    7.56    1.27
 -10  -6  -3    1.15    1.12
 -10  -6  -4    6.99    1.50
 -10  -6  -5    3.91    1.19
   0   0  -3  165.40    2.13
   0   0  -4  110.93    1.65
   0   0  -5  608.48    5.53
   0   0  -6    4.09    0.46
   0  -1  -7    4.38    0.72
   0   1  -1   30.66    0.77
   0   1  -2  553.99    4.89
   0   1  -3    4.51    0.40
   0   1  -4  205.17    2.93
   0   1  -5  211.11    3.12
   0   1  -6  255.98    3.81
   0   2  -3   13.04    0.77
   0   2  -4    1.05    0.37
   0   2  -5    4.09    0.60
   0   2  -6   15.64    1.07
   0   2  -7    0.26    0.43
  -1  -1  -8    0.08    0.40
  -1   0  -4  210.25    3.75
  -1   0  -5    0.54    0.31
  -1   0  -6   55.69    1.54
  -1   0  -7    8.59    0.76
  -1   0  -8    2.35    0.53
  -1   1   1  370.68    3.56
  -1   1   0  969.57    7.53
  -1   1  -1  935.12    7.62
  -1   1  -2   34.02    1.14
  -1   1  -3  119.54    2.38
  -1   1  -4   64.09    1.78
  -1   1  -5  165.87    3.12
  -1   1  -6  318.83    4.47
  -1   1  -7   28.30    1.37
  -1   2   1  188.34    2.63
  -1   2   0  551.24    5.58
  -1   2  -1   12.91    0.80
  -1   2  -2    7.54    0.63
  -1   2  -3  146.08    2.98
  -1   2  -4   13.01    0.92
  -1   2  -5  546.76    6.79
  -1   2  -6    7.30    0.86
  -1   2  -7  184.26    4.08
  -1   3   0   51.25    1.73
  -1   3  -1  114.86    2.65
  -1   3  -2   48.68    1.84
  -1   3  -3   40.78    1.82
  -1   3  -4   49.64    2.05
  -1   3  -5   23.19    1.48
  -1   3  -6   82.12    2.81
  -1   3  -7   28.31    1.84
  -1   3  -8    0.88    0.67
  -1   4  -2    7.28    0.86
  -1   4  -3   47.78    1.99
  -1   4  -4  132.18    3.42
  -1   4  -5   13.55    1.18
  -1   4  -6   48.28    2.23
  -1   4  -7    0.75    0.68
  -2  -1  -8   40.63    2.33
  -2   0   3  244.71    2.63
  -2   0   2   31.68    1.07
  -2   0  -4  151.69    3.32
  -2   0  -5  140.37    4.07
  -2   0  -6    3.48    0.53
  -2   0  -7   17.03    0.99
  -2   0  -8    7.14    0.80
  -2   1   3  271.12    3.04
  -2   1   2   81.24    1.61
  -2   1   1   23.45    0.98
  -2   1   0  102.74    2.25
  -2   1  -1 1626.06   12.49
  -2   1  -2  143.11    2.88
  -2   1  -3    7.88    0.70
  -2   1  -4    1.21    0.42
  -2   1  -5   -0.06    0.34
  -2   1  -6   13.20    1.05
  -2   1  -7    2.47    0.54
  -2   1  -8    0.11    0.40
  -2   2   3   31.33    1.04
  -2   2   2  185.79    2.84
  -2   2   1  351.10    4.40
  -2   2   0  235.10    3.77
  -2   2  -1  471.81    5.75
  -2   2  -2  110.52    2.59
  -2   2  -3  168.93    3.32
  -2   2  -4  150.37    3.24
  -2   2  -5   18.14    1.19
  -2   2  -6  217.39    4.35
  -2   2  -7    4.96    0.76
  -2   2  -8   59.72    2.54
  -2   3   2  501.58    5.49
  -2   3   1   90.75    2.46
  -2   3   0  403.92    5.34
  -2   3  -1  146.82    3.36
  -2   3  -2  174.63    3.71
  -2   3  -3  471.92    6.45
  -2   3  -4   34.81    1.77
  -2   3  -5  234.26    4.66
  -2   3  -6  121.26    3.50
  -2   3  -7   36.86    2.04
  -2   3  -8   78.79    3.13
  -2   4   1  161.42    3.58
  -2   4   0  185.08    3.88
  -2   4  -1   27.36    1.58
  -2   4  -2  186.45    4.38
  -2   4  -3  126.99    3.64
  -2   4  -4   40.59    2.06
  -2   4  -5   96.18    3.23
  -2   4  -6    3.20    0.85
  -2   4  -7   27.78    2.03
  -2   4  -8    2.76    0.93
  -2   5  -1   36.25    2.00
  -2   5  -2    4.03    0.80
  -2   5  -3    0.16    0.48
  -2   5  -4   27.01    1.88
  -2   5  -5    6.34    1.10
  -2   5  -6   14.97    1.51
  -2   5  -7   10.17    1.27
  -2   5  -8    4.97    1.10
  -3  -1  -8    1.08    0.95
  -3   0   3   97.69    2.17
  -3   0   2  298.91    5.08
  -3   0  -4  748.51    8.79
  -3   0  -5    6.04    1.18
  -3   0  -6  269.41    5.03
  -3   0  -7   16.90    1.15
  -3   0  -8   28.16    1.49
  -3   1   4   44.75    1.27
  -3   1   3   98.53    2.09
  -3   1   2  177.67    3.24
  -3   1   1   54.15    1.83
  -3   1   0    1.09    0.41
  -3   1  -1  559.37    6.43
  -3   1  -2    0.75    0.34
  -3   1  -3  287.05    4.49
  -3   1  -4   67.17    2.19
  -3   1  -5   23.41    1.41
  -3   1  -6   99.57    2.88
  -3   1  -7    0.61    0.49
  -3   1  -8   63.97    2.37
  -3   1  -9    1.06    0.54
  -3   2   4   46.02    1.45
  -3   2   3   25.22    1.20
  -3   2   2   17.92    1.10
  -3   2   1   36.27    1.54
  -3   2   0    3.07    0.49
  -3   2  -1   45.69    1.84
  -3   2  -2   39.84    1.75
  -3   2  -3   65.56    2.31
  -3   2  -4    1.02    0.40
  -3   2  -6   14.81    1.24
  -3   2  -7    0.17    0.42
  -3   2  -8   -0.13    0.51
  -3   2  -9    0.88    0.59
  -3   3   3  249.21    4.12
  -3   3   2    8.14    0.81
  -3   3   1  471.00    6.46
  -3   3   0   48.45    2.00
  -3   3  -1  266.03    5.02
  -3   3  -2  315.79    5.49
  -3   3  -3   30.00    1.70
  -3   3  -4  119.21    3.45
  -3   3  -5   14.44    1.28
  -3   3  -6   50.94    2.40
  -3   3  -7   46.13    2.39
  -3   3  -8    0.23    0.60
  -3   3  -9   26.33    1.85
  -3   4   2  171.26    3.77
  -3   4   1  306.31    5.53
  -3   4   0   50.06    2.11
  -3   4  -1  401.65    6.40
  -3   4  -2    4.56    0.88
  -3   4  -3  237.65    5.15
  -3   4  -4  248.60    5.41
  -3   4  -5    9.82    1.16
  -3   4  -6  163.13    4.63
  -3   4  -7    0.49    0.48
  -3   4  -8   43.37    2.44
  -3   4  -9   22.97    1.85
  -3   5   1    3.69    0.69
  -3   5   0   84.73    3.00
  -3   5  -1   37.42    2.19
  -3   5  -2   74.17    3.08
  -3   5  -3  107.03    3.81
  -3   5  -4    0.88    0.64
  -3   5  -5   11.87    1.41
  -3   5  -6   10.05    1.39
  -3   5  -7    4.65    1.15
  -3   5  -8   24.54    2.07
  -3   6  -1    0.65    0.63
  -3   6  -2    6.30    1.04
  -3   6  -3   -0.34    0.68
  -3   6  -4    0.44    0.58
  -3   6  -5    0.42    0.80
  -3   6  -6    1.72    0.71
  -3   6  -7   -0.14    0.71
  -3   6  -8   -0.03    0.68
  -4  -2 -10    0.04    0.84
  -4  -1  -7    0.02    0.58
  -4  -1  -8    9.47    1.69
  -4  -1  -9    1.72    0.60
  -4  -1 -10    0.44    0.45
  -4   0   3  241.98    4.11
  -4   0   2   65.08    3.00
  -4   0   1  109.10    3.63
  -4   0   0  521.35    7.38
  -4   0  -1    8.52    0.96
  -4   0  -2   27.10    1.52
  -4   0  -3  117.45    3.65
  -4   0  -4   16.62    1.81
  -4   0  -5   67.15    2.83
  -4   0  -6   11.27    1.19
  -4   0  -7   24.76    1.51
  -4   0  -8   22.14    1.40
  -4   0  -9   -0.02    0.37
  -4   1   4  155.06    3.01
  -4   1   3  641.00    7.31
  -4   1   2   28.80    1.54
  -4   1   1  313.95    5.29
  -4   1   0  273.20    4.67
  -4   1  -1  224.21    4.12
  -4   1  -2  655.55    7.60
  -4   1  -3  170.35    3.72
  -4   1  -4   94.42    2.86
  -4   1  -5   34.63    1.81
  -4   1  -6   19.96    1.42
  -4   1  -7   65.68    2.55
  -4   1  -8    1.79    0.61
  -4   1  -9   16.76    1.33
  -4   2   4  207.21    3.86
  -4   2   3   29.24    1.56
  -4   2   2   99.06    2.73
  -4   2   1  112.76    3.00
  -4   2   0   15.96    1.24
  -4   2  -1  202.11    4.28
  -4   2  -2   66.31    2.43
  -4   2  -3   26.37    1.55
  -4   2  -4   46.86    2.08
  -4   2  -5    6.11    0.82
  -4   2  -6   43.91    2.12
  -4   2  -7   12.18    1.18
  -4   2  -8   32.17    1.80
  -4   2  -9   24.06    1.69
  -4   3   4   24.87    1.51
  -4   3   3    5.40    0.79
  -4   3   2   35.14    1.75
  -4   3   1    5.13    0.88
  -4   3   0    5.80    0.82
  -4   3  -1   23.44    1.53
  -4   3  -2   30.34    1.77
  -4   3  -3    6.84    0.94
  -4   3  -4   19.37    1.46
  -4   3  -5    3.01    0.76
  -4   3  -6    4.42    0.89
  -4   3  -7    0.03    0.45
  -4   3  -8    2.87    0.72
  -4   3  -9    1.13    0.71
  -4   4   4   20.07    1.42
  -4   4   3  189.83    4.30
  -4   4   2    9.12    1.04
  -4   4   1   12.98    1.18
  -4   4   0   60.05    2.64
  -4   4  -1   44.36    2.23
  -4   4  -2   37.16    2.08
  -4   4  -3   42.56    2.19
  -4   4  -4   20.50    1.70
  -4   4  -5   12.48    1.25
  -4   4  -6    2.34    0.66
  -4   4  -7   14.45    1.49
  -4   4  -8    4.74    0.93
  -4   4  -9    1.90    0.67
  -4   5   3  108.88    3.53
  -4   5   2    3.43    0.85
  -4   5   1  342.69    6.67
  -4   5   0   29.25    2.03
  -4   5  -1  142.47    4.23
  -4   5  -2   76.98    3.13
  -4   5  -3   15.12    1.42
  -4   5  -4  128.06    4.03
  -4   5  -5    5.99    0.98
  -4   5  -6   49.86    2.71
  -4   5  -7   21.73    1.82
  -4   5  -8    8.04    1.37
  -4   5  -9   34.34    2.56
  -4   6   1   31.27    2.04
  -4   6   0   23.65    1.78
  -4   6  -1   89.97    3.61
  -4   6  -2   -0.02    0.56
  -4   6  -3   85.56    3.75
  -4   6  -4   17.24    1.71
  -4   6  -5    5.95    1.29
  -4   6  -6   25.31    2.07
  -4   6  -7   -0.39    0.54
  -4   6  -8   24.66    2.17
  -4   6  -9    7.69    1.31
  -4   7  -1   -0.08    0.65
  -4   7  -2    3.08    0.94
  -4   7  -3    5.34    1.15
  -4   7  -4   -0.38    0.56
  -4   7  -5    2.16    0.83
  -4   7  -6    4.01    1.14
  -4   7  -7    4.09    1.25
  -5  -2  -9    1.06    1.06
  -5  -2 -10   31.83    2.93
  -5  -1   4    4.55    0.81
  -5  -1  -6   12.04    1.13
  -5  -1  -7   99.93    5.02
  -5  -1  -8    0.49    0.61
  -5  -1  -9   50.68    2.45
  -5  -1 -10    4.54    0.79
  -5   0   3    9.82    0.97
  -5   0   2    1.27    0.73
  -5   0   1    6.09    1.37
  -5   0   0   25.43    2.46
  -5   0  -1   42.16    3.00
  -5   0  -2    6.56    1.39
  -5   0  -3    0.89    0.83
  -5   0  -4   36.47    2.30
  -5   0  -5    5.27    0.83
  -5   0  -6    9.38    1.01
  -5   0  -7   -0.50    0.44
  -5   0  -8    2.09    0.60
  -5   0  -9    3.71    0.75
  -5   0 -10    1.96    0.72
  -5   1   4   99.79    2.85
  -5   1   3   55.23    2.31
  -5   1   2  126.90    3.59
  -5   1   1   54.05    2.37
  -5   1   0   44.04    2.13
  -5   1  -1   82.12    2.80
  -5   1  -2   18.02    1.33
  -5   1  -3    9.37    1.03
  -5   1  -4    3.73    0.78
  -5   1  -5   21.27    1.56
  -5   1  -6    3.68    0.84
  -5   1  -7    2.13    0.71
  -5   1  -8    1.89    0.72
  -5   1  -9    0.01    0.53
  -5   1 -10    1.30    0.65
  -5   2   4   14.65    1.26
  -5   2   3  186.99    4.34
  -5   2   2  154.98    3.83
  -5   2   1   82.25    2.96
  -5   2   0  330.40    6.03
  -5   2  -1   31.81    1.82
  -5   2  -2  253.51    5.43
  -5   2  -3   77.07    2.97
  -5   2  -4   38.20    2.00
  -5   2  -5  108.87    3.41
  -5   2  -6    0.32    0.56
  -5   2  -7   34.32    1.97
  -5   2  -8    7.70    0.95
  -5   2  -9    6.87    0.98
  -5   2 -10   12.72    1.32
  -5   3   4   48.59    2.14
  -5   3   3  129.28    3.66
  -5   3   2   24.61    1.77
  -5   3   1  231.42    5.18
  -5   3   0   70.71    2.89
  -5   3  -1  120.34    3.69
  -5   3  -2  137.41    3.87
  -5   3  -3    0.33    0.44
  -5   3  -4   50.77    2.36
  -5   3  -5   25.72    1.74
  -5   3  -6   47.69    2.36
  -5   3  -7   60.82    2.78
  -5   3  -8    0.47    0.52
  -5   3  -9   27.19    2.03
  -5   3 -10    4.36    1.00
  -5   4   4    0.93    0.71
  -5   4   3    0.49    0.65
  -5   4   2   14.79    1.49
  -5   4   1    3.58    0.90
  -5   4   0    0.13    0.68
  -5   4  -1   44.41    2.38
  -5   4  -2    6.78    1.05
  -5   4  -3   11.71    1.42
  -5   4  -4    0.53    0.75
  -5   4  -5    2.66    0.76
  -5   4  -6   32.01    2.08
  -5   4  -7    1.27    0.58
  -5   4  -8    7.48    1.15
  -5   4  -9    1.50    0.82
  -5   5   4   23.99    1.85
  -5   5   3   35.78    2.23
  -5   5   2   68.08    3.20
  -5   5   1    1.53    0.86
  -5   5   0   48.00    2.58
  -5   5  -1    4.49    0.90
  -5   5  -2   12.82    1.44
  -5   5  -3    8.84    1.34
  -5   5  -4    1.87    0.75
  -5   5  -5   13.59    1.59
  -5   5  -6    2.20    0.91
  -5   5  -7    5.88    1.15
  -5   5  -8    0.27    0.75
  -5   5  -9   -0.04    0.75
  -5   6   2   39.12    2.35
  -5   6   1   64.83    3.14
  -5   6   0  107.76    4.08
  -5   6  -1    9.09    1.52
  -5   6  -2   99.31    4.16
  -5   6  -3    1.18    0.91
  -5   6  -4   69.84    3.42
  -5   6  -5   21.59    1.99
  -5   6  -6   -0.71    0.90
  -5   6  -7   18.12    1.98
  -5   6  -8    9.05    1.51
  -5   6  -9    2.70    0.86
  -5   7   0    2.44    1.01
  -5   7  -1   53.15    2.88
  -5   7  -2   32.02    2.32
  -5   7  -3   15.21    1.78
  -5   7  -4   20.94    1.96
  -5   7  -5    3.70    1.11
  -5   7  -6   17.54    1.79
  -5   7  -7    8.97    1.43
  -5   7  -8    2.23    0.85
  -6  -3 -10    7.38    1.82
  -6  -3 -11   -0.92    1.81
  -6  -2  -8   -1.09    0.96
  -6  -2  -9    1.72    1.29
  -6  -2 -10   -0.65    0.92
  -6  -2 -11    0.56    0.81
  -6  -1   3   12.06    1.65
  -6  -1  -5   89.99    4.60
  -6  -1  -6   99.81    5.52
  -6  -1  -7    0.94    1.24
  -6  -1  -8   27.01    2.00
  -6  -1  -9    1.87    0.80
  -6  -1 -10    3.16    0.93
  -6   0   3  241.55    5.01
  -6   0   2  211.91    4.87
  -6   0   1  138.88    4.14
  -6   0   0  247.57    6.12
  -6   0  -1    5.30    1.03
  -6   0  -2  100.20    3.90
  -6   0  -3   69.88    3.46
  -6   0  -4    2.13    0.93
  -6   0  -5  156.77    4.39
  -6   0  -6   32.05    2.05
  -6   0  -7   45.91    2.31
  -6   0  -8   20.21    1.73
  -6   0  -9    5.23    1.03
  -6   0 -10   27.61    2.03
  -6   1   3   63.13    2.80
  -6   1   2    0.43    0.72
  -6   1   1   79.18    3.17
  -6   1   0   -0.19    0.67
  -6   1  -1   13.20    1.35
  -6   1  -2   41.23    2.26
  -6   1  -3    0.61    0.55
  -6   1  -4   56.06    2.68
  -6   1  -5    0.82    0.78
  -6   1  -6    0.82    0.54
  -6   1  -7   12.52    1.33
  -6   1  -8    0.74    0.52
  -6   1  -9    5.00    0.95
  -6   1 -10    2.03    0.66
  -6   2   4   63.60    2.77
  -6   2   3    8.58    1.15
  -6   2   2    4.67    0.94
  -6   2   1   15.04    1.42
  -6   2   0    0.78    0.69
  -6   2  -1   31.39    2.02
  -6   2  -2    0.17    0.50
  -6   2  -3   34.65    2.06
  -6   2  -4    1.80    0.60
  -6   2  -5   -0.26    0.43
  -6   2  -6    1.60    0.61
  -6   2  -7    0.38    0.50
  -6   2  -8    2.65    0.79
  -6   2  -9    1.07    0.65
  -6   2 -10   -0.25    0.63
  -6   3   4   36.14    2.24
  -6   3   3    6.58    1.13
  -6   3   2   86.80    3.53
  -6   3   1   18.64    1.68
  -6   3   0  100.12    3.65
  -6   3  -1   65.61    2.87
  -6   3  -2   31.32    1.99
  -6   3  -3   42.69    2.26
  -6   3  -4   11.76    1.30
  -6   3  -5   26.84    1.83
  -6   3  -6   16.13    1.47
  -6   3  -7    4.30    0.98
  -6   3  -8    8.98    1.15
  -6   3  -9    0.95    0.61
  -6   3 -10    6.74    1.23
  -6   4   4    3.11    1.05
  -6   4   3  240.42    5.92
  -6   4   2   28.24    2.16
  -6   4   1  140.35    4.51
  -6   4   0   84.22    3.50
  -6   4  -1    0.25    0.82
  -6   4  -2  109.21    4.09
  -6   4  -3   28.34    2.10
  -6   4  -4   14.80    1.60
  -6   4  -5   37.82    2.42
  -6   4  -6    1.15    0.80
  -6   4  -7   22.85    1.82
  -6   4  -8    6.41    1.13
  -6   4  -9    1.39    0.64
  -6   4 -10    9.78    1.39
  -6   5   4   37.01    2.33
  -6   5   3   32.89    2.42
  -6   5   2   12.10    1.49
  -6   5   1   41.39    2.55
  -6   5   0    7.83    1.40
  -6   5  -1   35.47    2.46
  -6   5  -2    4.76    1.05
  -6   5  -3    1.95    0.78
  -6   5  -4    8.59    1.31
  -6   5  -5    0.76    0.65
  -6   5  -6   12.37    1.53
  -6   5  -7    6.55    1.24
  -6   5  -8   -0.21    0.49
  -6   5  -9    0.76    0.82
  -6   6   3    1.63    0.79
  -6   6   2   12.78    1.56
  -6   6   1    9.48    1.59
  -6   6   0    4.83    1.36
  -6   6  -1    3.06    0.96
  -6   6  -2   -0.57    0.77
  -6   6  -3    1.99    0.82
  -6   6  -4    0.32    0.80
  -6   6  -5    0.39    0.66
  -6   6  -6    2.73    0.98
  -6   6  -7    0.61    0.92
  -6   6  -8   -0.02    0.90
  -6   7   1    0.36    0.73
  -6   7   0   40.71    2.80
  -6   7  -1   10.05    1.49
  -6   7  -2    8.45    1.39
  -6   7  -3   28.52    2.47
  -6   7  -4    0.56    1.02
  -6   7  -5   18.14    2.04
  -6   7  -6    3.73    1.01
  -6   7  -7    1.59    0.80
  -6   8  -1    8.66    1.53
  -6   8  -2   35.69    2.82
  -6   8  -3    0.29    0.82
  -6   8  -4    9.56    1.57
  -6   8  -5   11.05    1.65
  -7  -4 -11   15.23    2.82
  -7  -3  -9   10.09    1.62
  -7  -3 -10    7.45    2.89
  -7  -3 -11   14.63    2.44
  -7  -2  -7   25.05    2.78
  -7  -2  -8   34.19    4.09
  -7  -2  -9    0.75    1.31
  -7  -2 -10   16.97    1.96
  -7  -2 -11    1.20    1.02
  -7  -1   3    1.12    0.93
  -7  -1   2    3.30    1.80
  -7  -1   1    5.10    1.83
  -7  -1   0    9.69    1.82
  -7  -1  -1   -0.18    0.97
  -7  -1  -2    2.53    1.44
  -7  -1  -3    0.57    1.22
  -7  -1  -4    1.66    1.54
  -7  -1  -5   -0.10    1.16
  -7  -1  -6    3.07    1.10
  -7  -1  -7   -0.16    0.58
  -7  -1  -8   -0.28    0.56
  -7  -1  -9    0.43    0.73
  -7  -1 -10    1.27    0.91
  -7  -1 -11    0.43    1.03
  -7   0   3   33.69    2.23
  -7   0   2   58.28    2.71
  -7   0   1  167.58    4.63
  -7   0   0    9.78    1.28
  -7   0  -1  128.40    4.17
  -7   0  -2   26.55    1.92
  -7   0  -3   31.35    2.12
  -7   0  -4   49.01    2.59
  -7   0  -5    3.53    0.79
  -7   0  -6   17.50    1.64
  -7   0  -7   12.94    1.53
  -7   0  -8    8.66    1.41
  -7   0  -9    7.08    1.16
  -7   0 -10    2.73    1.04
  -7   0 -11    3.59    1.07
  -7   1   3   29.38    2.07
  -7   1   2  209.49    5.65
  -7   1   1   15.41    1.58
  -7   1   0   89.94    3.66
  -7   1  -1  137.85    4.59
  -7   1  -2   14.09    1.59
  -7   1  -3  129.95    4.47
  -7   1  -4    7.55    1.17
  -7   1  -5   37.79    2.40
  -7   1  -6   22.51    1.95
  -7   1  -7    2.03    0.73
  -7   1  -8    9.41    1.36
  -7   1  -9    0.61    0.56
  -7   1 -10    4.82    1.05
  -7   2   3   27.22    2.01
  -7   2   2   49.46    2.59
  -7   2   1    6.17    1.18
  -7   2   0   60.62    3.00
  -7   2  -1    2.74    0.81
  -7   2  -2   45.14    2.65
  -7   2  -3   58.23    2.98
  -7   2  -4   21.80    1.79
  -7   2  -5   35.03    2.26
  -7   2  -6    0.96    0.60
  -7   2  -7   15.53    1.60
  -7   2  -8    2.18    0.66
  -7   2  -9    1.40    0.61
  -7   2 -10    5.34    1.08
  -7   3   3    1.41    1.02
  -7   3   2    4.18    1.17
  -7   3   1    1.22    0.66
  -7   3   0   -0.11    0.80
  -7   3  -1    1.35    0.82
  -7   3  -2   -0.64    0.68
  -7   3  -3   -0.08    0.71
  -7   3  -4    0.26    0.69
  -7   3  -5    1.05    0.82
  -7   3  -6   -0.32    0.45
  -7   3  -7    0.01    0.72
  -7   3  -8    0.18    0.53
  -7   3  -9   -0.10    0.73
  -7   4   3    7.68    1.43
  -7   4   2   90.27    3.94
  -7   4   1   20.52    1.86
  -7   4   0   28.89    2.35
  -7   4  -1   67.76    3.47
  -7   4  -2    1.41    0.97
  -7   4  -3   10.15    1.40
  -7   4  -4   11.70    1.49
  -7   4  -6   15.37    1.72
  -7   4  -7    1.28    0.86
  -7   4  -8    2.53    0.96
  -7   4  -9    1.35    0.85
  -7   5   3   60.98    3.58
  -7   5   2  123.14    4.61
  -7   5   1    3.39    1.11
  -7   5   0   77.16    3.86
  -7   5  -1   19.72    2.01
  -7   5  -2   26.32    2.22
  -7   5  -3   26.20    2.15
  -7   5  -4    0.26    0.64
  -7   5  -5   13.79    1.62
  -7   5  -6    2.44    0.89
  -7   5  -7    5.70    1.10
  -7   5  -8   10.32    1.50
  -7   6   3   43.72    2.94
  -7   6   2    6.87    1.54
  -7   6   1   18.42    2.19
  -7   6   0   18.16    2.09
  -7   6  -1   -0.04    0.67
  -7   6  -2   24.56    2.19
  -7   6  -3    1.94    0.79
  -7   6  -4   10.82    1.44
  -7   6  -5    4.18    0.98
  -7   6  -6    1.52    0.95
  -7   6  -7    3.77    1.06
  -7   7   2    1.82    1.15
  -7   7   1    2.79    1.18
  -7   7   0    0.48    0.85
  -7   7  -1    0.34    1.14
  -7   7  -2   -0.12    0.78
  -7   7  -3    0.06    1.11
  -7   7  -4    2.91    1.19
  -7   7  -5    0.46    1.12
  -7   8   0    5.56    1.41
  -7   8  -1   11.75    1.82
  -7   8  -2    0.08    0.79
  -7   8  -3   12.89    1.78
  -8  -4 -10    4.33    2.29
  -8  -3  -8    0.50    1.80
  -8  -3  -9   12.35    3.66
  -8  -3 -10    9.86    2.35
  -8  -2   2   34.38    2.64
  -8  -2  -4  159.01    6.41
  -8  -2  -5    3.99    1.83
  -8  -2  -6   76.95    6.17
  -8  -2  -7   12.54    3.15
  -8  -2  -8   11.70    2.32
  -8  -2  -9    6.54    1.32
  -8  -2 -10    1.36    1.03
  -8  -1   2   35.10    2.37
  -8  -1   1   51.19    3.27
  -8  -1   0   24.48    2.55
  -8  -1  -1   97.92    4.76
  -8  -1  -2    4.81    1.33
  -8  -1  -3  165.44    7.08
  -8  -1  -4   19.62    2.41
  -8  -1  -5   21.54    2.38
  -8  -1  -6   25.95    2.27
  -8  -1  -7    1.26    0.99
  -8  -1  -8   15.60    1.80
  -8  -1  -9    5.06    1.35
  -8  -1 -10    7.11    1.52
  -8   0   2    0.79    0.91
  -8   0   1    0.12    0.67
  -8   0   0   -0.46    0.68
  -8   0  -1    0.33    0.56
  -8   0  -2    0.41    0.54
  -8   0  -3   -0.01    0.55
  -8   0  -4    0.58    0.80
  -8   0  -5    0.78    0.87
  -8   0  -6    5.92    1.24
  -8   0  -7    1.35    1.01
  -8   0  -8    1.50    1.04
  -8   0  -9    1.40    1.06
  -8   0 -10    2.94    1.11
  -8   1   2    2.47    0.82
  -8   1   1   63.34    3.33
  -8   1   0    3.91    1.12
  -8   1  -1    8.07    1.28
  -8   1  -2   41.93    2.75
  -8   1  -3    2.77    0.88
  -8   1  -4    8.18    1.30
  -8   1  -5    8.79    1.33
  -8   1  -7   18.21    1.92
  -8   1  -8    0.09    0.67
  -8   1  -9    1.30    0.71
  -8   2   2   75.32    3.45
  -8   2   1   62.85    3.15
  -8   2   0    2.73    1.04
  -8   2  -1   55.44    3.10
  -8   2  -2   11.18    1.43
  -8   2  -3   34.75    2.43
  -8   2  -4   30.07    2.30
  -8   2  -5    7.29    1.18
  -8   2  -6    5.59    1.07
  -8   2  -7    3.98    1.07
  -8   2  -8    5.02    0.96
  -8   2  -9    5.35    1.16
  -8   3   2   24.18    2.22
  -8   3   1    5.00    1.25
  -8   3   0   21.66    2.02
  -8   3  -1   19.76    1.89
  -8   3  -2    6.71    1.23
  -8   3  -3   36.94    2.47
  -8   3  -4    0.91    0.84
  -8   3  -5   10.65    1.41
  -8   3  -6    7.69    1.25
  -8   3  -7    1.23    0.73
  -8   3  -8    9.91    1.41
  -8   4   2    2.78    1.21
  -8   4   1    5.94    1.20
  -8   4   0    1.63    1.05
  -8   4  -1    2.49    1.16
  -8   4  -2    0.57    0.93
  -8   4  -3    0.34    1.01
  -8   4  -4    2.64    1.09
  -8   4  -5    0.40    0.69
  -8   4  -6    1.14    0.99
  -8   4  -7    1.44    0.97
  -8   5   3   14.69    1.93
  -8   5   2    0.45    1.00
  -8   5   1   15.03    1.81
  -8   5   0    3.82    1.27
  -8   5  -1    9.96    1.69
  -8   5  -2   10.57    1.62
  -8   5  -3   -0.25    0.68
  -8   5  -4    7.78    1.32
  -8   5  -5    1.52    0.99
  -8   5  -6    1.18    0.82
  -8   6   3    2.02    1.34
  -8   6   2   39.47    3.18
  -8   6   1   15.54    2.20
  -8   6   0    7.95    1.52
  -8   6  -1   34.12    2.72
  -8   6  -2    0.91    0.80
  -8   6  -3   14.70    1.89
  -8   6  -4    7.50    1.50
  -8   7   2    8.78    1.56
  -8   7   1    0.86    0.91
  -8   7   0   12.00    1.99
  -8   7  -1    8.29    1.71
  -8   7  -2    7.27    1.67
  -9  -4  -8    7.24    2.12
  -9  -3  -6    4.02    1.89
  -9  -3  -7    0.36    2.91
  -9  -3  -8   13.69    4.09
  -9  -3  -9    1.46    1.23
  -9  -2   2   40.17    3.25
  -9  -2   1    0.59    1.35
  -9  -2   0   31.79    3.91
  -9  -2  -1   10.12    2.44
  -9  -2  -2   27.82    3.76
  -9  -2  -3   37.79    4.61
  -9  -2  -4   12.47    2.83
  -9  -2  -5    5.02    1.63
  -9  -2  -6    6.28    2.10
  -9  -2  -7    1.34    1.09
  -9  -2  -8   -0.18    0.88
  -9  -1   2    3.66    1.04
  -9  -1   1   76.10    3.55
  -9  -1   0   51.18    3.04
  -9  -1  -1   12.76    1.58
  -9  -1  -2   37.87    2.70
  -9  -1  -3    1.70    0.85
  -9  -1  -4   46.71    3.23
  -9  -1  -5   15.31    2.00
  -9  -1  -6    6.54    1.28
  -9  -1  -7   24.76    2.48
  -9  -1  -8    1.19    0.99
  -9   0   2   24.68    2.20
  -9   0   1   51.57    3.19
  -9   0   0    0.59    0.75
  -9   0  -1   81.34    4.01
  -9   0  -2    4.37    1.17
  -9   0  -3   21.92    2.20
  -9   0  -4   25.85    2.47
  -9   0  -5    1.27    1.12
  -9   0  -6   14.81    2.04
  -9   0  -7    4.57    1.21
  -9   0  -8    3.16    1.32
  -9   1   2    4.82    1.23
  -9   1   1    0.09    0.97
  -9   1   0    8.48    1.47
  -9   1  -1    5.01    1.33
  -9   1  -2    0.92    0.80
  -9   1  -3    5.91    1.23
  -9   1  -4    0.55    1.04
  -9   1  -5    1.00    0.81
  -9   1  -6    4.65    1.09
  -9   1  -7    0.67    1.02
  -9   2   2    5.65    1.29
  -9   2   1   10.80    1.60
  -9   2   0    4.39    1.24
  -9   2  -1    1.12    1.02
  -9   2  -2    3.02    0.97
  -9   2  -3    1.52    0.88
  -9   2  -4   -0.12    0.73
  -9   2  -5    0.94    0.99
  -9   2  -6    1.17    1.00
  -9   2  -7    0.97    0.97
  -9   3   2    6.14    1.35
  -9   3   1   25.07    2.36
  -9   3   0   12.79    1.77
  -9   3  -1   15.26    1.91
  -9   3  -2   22.47    2.18
  -9   3  -3    1.02    1.02
  -9   3  -4   28.25    2.39
  -9   3  -5    0.93    1.03
  -9   3  -6    4.77    1.11
  -9   4   2   33.21    2.80
  -9   4   1   11.58    1.65
  -9   4   0   13.29    1.91
  -9   4  -1   31.82    2.78
  -9   4  -2    0.27    1.13
  -9   4  -3   24.41    2.44
  -9   4  -4    6.51    1.53
  -9   5   2    6.34    1.57
  -9   5   1    0.67    1.24
  -9   5   0    9.38    1.61
  -9   5  -1    2.89    1.11
  -9   5  -2    0.76    0.84
  -9   6   2    1.12    1.51
  -9   6   1    3.50    1.75
  -9   6   0    1.89    1.41
 -10  -4  -6    2.86    1.91
 -10  -3   1   26.81    3.55
 -10  -3   0   58.08    5.10
 -10  -3  -1   13.66    2.82
 -10  -3  -2   66.95    5.83
 -10  -3  -3    3.68    2.83
 -10  -3  -4   49.64    5.68
 -10  -3  -6    5.37    2.05
 -10  -2   1    9.41    1.61
 -10  -2   0    3.11    1.34
 -10  -2  -1   22.43    2.44
 -10  -2  -2    8.51    1.63
 -10  -2  -3    1.96    1.52
 -10  -2  -4   10.24    1.76
 -10  -2  -6    7.16    1.60
 -10  -1   1    0.62    1.12
 -10  -1   0   -0.28    0.99
 -10  -1  -1    1.11    0.86
 -10  -1  -2   -0.97    0.99
 -10  -1  -3    0.48    1.05
 -10  -1  -4   -0.44    0.84
 -10  -1  -5    0.25    1.01
 -10  -1  -6   -0.55    1.07
 -10   0   1    8.63    1.70
 -10   0   0   38.15    2.98
 -10   0  -1    4.24    1.42
 -10   0  -2   25.32    2.57
 -10   0  -3    7.72    1.66
 -10   0  -4   10.89    1.91
 -10   0  -5   20.33    2.42
 -10   1   1   45.38    3.13
 -10   1   0   11.53    1.63
 -10   1  -1   13.39    1.77
 -10   1  -2   22.83    2.37
 -10   1  -3   -0.01    1.07
 -10   1  -4   17.76    2.05
 -10   2   1   12.77    1.77
 -10   2   0    0.78    1.07
 -10   2  -1    9.08    1.60
 -10   2  -2    3.44    1.25
 -10   2  -3    0.75    0.82
 -10   3   1    3.73    1.47
 -10   3   0    5.49    1.53
 -10   3  -1    0.69    1.15
 -10   3  -2    1.80    1.24
 -10   4   1    6.53    1.70
 -10   4   0   27.27    2.64
 -11  -4   0    5.77    2.57
 -11  -4  -1    1.68    2.14
 -11  -4  -2    3.29    2.26
 -11  -3  -1   19.26    2.81
 -11  -3  -2    0.86    1.80
 -11  -2  -1    3.70    1.34
 -11  -2  -2   12.98    1.92
 -11  -1   0    7.81    1.80
 -11  -1  -1    6.99    1.68
 -11   0   0    0.16    1.29
   0   0   0    0.00    0.00
;
_shelx_hkl_checksum              30733
loop_
_space_group_symop_operation_xyz
'x, y, z'
'-x, -y, -z'
loop_
_atom_site_label
_atom_site_type_symbol
_atom_site_fract_x
_atom_site_fract_y
_atom_site_fract_z
_atom_site_U_iso_or_equiv
_atom_site_adp_type
_atom_site_occupancy
_atom_site_site_symmetry_order
_atom_site_calc_flag
_atom_site_refinement_flags_posn
_atom_site_refinement_flags_adp
_atom_site_refinement_flags_occupancy
_atom_site_disorder_assembly
_atom_site_disorder_group
O3W O 0.284(5) 0.061(4) 0.978(4) 0.36(3) Uani 1 1 d . . . . .
H3WC H 0.2764 0.1435 0.9810 0.435 Uiso 1 1 d R U . . .
H3WD H 0.3188 0.0470 0.9091 0.435 Uiso 1 1 d R U . . .
N7 N 0.135(3) 1.0959(16) 1.1374(19) 0.102(6) Uani 1 1 d . . . . .
N5 N -0.0649(12) 0.6852(10) 1.2944(8) 0.036(2) Uani 1 1 d . . . . .
C4 C -0.1249(15) 0.7133(14) 1.4002(14) 0.049(3) Uani 1 1 d . U . . .
H4 H -0.1756 0.6529 1.4513 0.059 Uiso 1 1 calc R U . . .
C3 C -0.1091(18) 0.8384(16) 1.4323(13) 0.058(4) Uani 1 1 d . U . . .
H3 H -0.1501 0.8547 1.5071 0.070 Uiso 1 1 calc R U . . .
N6 N -0.0446(15) 0.9312(11) 1.3699(11) 0.050(3) Uani 1 1 d . . . . .
C2 C 0.0143(16) 0.9007(12) 1.2624(11) 0.039(2) Uani 1 1 d . U . . .
C1 C 0.0137(15) 0.7787(11) 1.2226(10) 0.033(2) Uani 1 1 d . U . . .
O3 O 0.8261(12) 0.4357(9) 0.3982(8) 0.047(2) Uani 1 1 d . . . . .
O4 O 0.7964(11) 0.2546(9) 0.3263(8) 0.041(2) Uani 1 1 d . . . . .
C14 C 0.7781(15) 0.3265(11) 0.4114(10) 0.037(2) Uani 1 1 d . U . . .
O6 O 0.3979(13) -0.0186(9) 0.7661(9) 0.056(3) Uani 1 1 d . . . . .
N1 N 0.1902(13) 0.7969(11) 1.0440(9) 0.043(3) Uani 1 1 d . . . . .
C5 C 0.0739(16) 0.7403(12) 1.1091(11) 0.039(3) Uani 1 1 d . U . . .
N4 N 0.0371(11) 0.6403(9) 1.0629(8) 0.030(2) Uani 1 1 d . . . . .
Cd1 Cd 0.40688(10) 0.76181(7) 0.80273(7) 0.0326(4) Uani 1 1 d . . . . .
Cd2 Cd 0.09069(9) 0.51587(8) 0.79720(7) 0.0326(4) Uani 1 1 d . . . . .
O1 O 0.3671(10) 0.4477(9) 0.8424(8) 0.041(2) Uani 1 1 d . . . . .
O5 O 0.5932(14) -0.1070(8) 0.6601(10) 0.055(3) Uani 1 1 d . . . . .
O2 O 0.5384(10) 0.5703(8) 0.7475(8) 0.0396(19) Uani 1 1 d . . . . .
N3 N 0.1225(13) 0.6330(10) 0.9623(9) 0.038(2) Uani 1 1 d . . . . .
C13 C 0.5009(14) 0.2257(11) 0.7294(10) 0.034(2) Uani 1 1 d . U . . .
H13 H 0.4369 0.2064 0.7961 0.040 Uiso 1 1 calc R U . . .
C7 C 0.4779(11) 0.4632(10) 0.7682(10) 0.028(2) Uani 1 1 d . U . . .
N2 N 0.2156(12) 0.7258(10) 0.9513(9) 0.037(2) Uani 1 1 d . . . . .
C9 C 0.6396(14) 0.3835(10) 0.5965(10) 0.032(2) Uani 1 1 d . U . . .
H9 H 0.6698 0.4671 0.5788 0.038 Uiso 1 1 calc R U . . .
C15 C 0.5141(16) -0.0095(12) 0.6964(11) 0.035(2) Uani 1 1 d . U . . .
C8 C 0.5427(14) 0.3547(11) 0.6994(10) 0.032(2) Uani 1 1 d . U . . .
C12 C 0.5558(15) 0.1274(10) 0.6589(9) 0.034(2) Uani 1 1 d . U . . .
C10 C 0.6907(12) 0.2894(10) 0.5214(10) 0.031(2) Uani 1 1 d . U . . .
C11 C 0.6523(13) 0.1587(10) 0.5536(10) 0.031(2) Uani 1 1 d . U . . .
H11 H 0.6894 0.0937 0.5068 0.038 Uiso 1 1 calc R U . . .
O2W O -0.1570(12) 0.6399(10) 0.7372(11) 0.060(3) Uani 1 1 d . . . . .
O1W O 0.6069(12) 0.7359(11) 0.9485(9) 0.057(3) Uani 1 1 d . . . . .
C6 C 0.082(2) 1.0087(14) 1.1893(15) 0.061(4) Uani 1 1 d . U . . .
loop_
_atom_site_aniso_label
_atom_site_aniso_U_11
_atom_site_aniso_U_22
_atom_site_aniso_U_33
_atom_site_aniso_U_23
_atom_site_aniso_U_13
_atom_site_aniso_U_12
O3W 0.41(7) 0.36(6) 0.44(6) -0.24(5) 0.07(6) -0.25(6)
N7 0.129(16) 0.053(9) 0.124(15) 0.004(9) -0.023(12) -0.036(10)
N5 0.042(6) 0.039(5) 0.030(5) -0.016(4) 0.005(4) -0.006(4)
C4 0.032(7) 0.050(7) 0.068(9) -0.023(7) 0.000(6) -0.003(6)
C3 0.065(10) 0.063(8) 0.048(8) -0.046(7) -0.009(7) 0.019(7)
N6 0.059(7) 0.039(6) 0.054(7) -0.018(5) 0.000(5) -0.003(5)
C2 0.050(7) 0.031(5) 0.035(6) -0.014(4) -0.014(5) 0.000(5)
C1 0.044(7) 0.028(5) 0.026(5) -0.008(4) -0.006(4) 0.000(4)
O3 0.066(6) 0.039(5) 0.039(5) -0.013(4) 0.009(4) -0.012(4)
O4 0.045(5) 0.047(5) 0.034(5) -0.017(4) 0.008(3) -0.001(4)
C14 0.051(7) 0.028(5) 0.028(5) -0.006(4) -0.001(4) 0.006(5)
O6 0.078(7) 0.032(5) 0.059(6) -0.003(4) 0.012(5) -0.018(5)
N1 0.053(7) 0.047(6) 0.035(5) -0.010(5) 0.004(4) -0.021(5)
C5 0.057(8) 0.029(6) 0.032(5) -0.012(4) 0.003(5) -0.001(5)
N4 0.030(5) 0.028(5) 0.040(5) -0.016(4) 0.016(4) -0.017(4)
Cd1 0.0377(7) 0.0236(6) 0.0393(6) -0.0142(4) 0.0044(4) -0.0046(4)
Cd2 0.0352(6) 0.0308(6) 0.0345(6) -0.0136(4) 0.0038(4) -0.0055(4)
O1 0.036(5) 0.041(5) 0.047(5) -0.018(4) 0.001(4) 0.004(4)
O5 0.078(7) 0.024(4) 0.063(6) -0.019(4) 0.000(5) -0.004(4)
O2 0.028(4) 0.028(4) 0.067(6) -0.023(4) 0.013(4) -0.006(3)
N3 0.050(6) 0.038(5) 0.033(5) -0.019(4) 0.014(4) -0.019(5)
C13 0.039(6) 0.029(4) 0.032(5) -0.008(4) -0.001(4) -0.003(4)
C7 0.013(5) 0.028(4) 0.044(6) -0.007(4) 0.015(4) -0.007(4)
N2 0.035(5) 0.044(6) 0.040(5) -0.017(4) 0.007(4) -0.013(4)
C9 0.044(6) 0.018(4) 0.032(5) -0.009(3) -0.004(4) 0.003(4)
C15 0.043(7) 0.031(5) 0.034(6) -0.008(4) 0.002(5) -0.014(5)
C8 0.039(6) 0.026(4) 0.031(5) -0.011(4) -0.008(4) 0.003(4)
C12 0.056(7) 0.017(4) 0.025(5) -0.001(3) -0.010(4) 0.003(4)
C10 0.027(6) 0.027(4) 0.041(5) -0.013(4) 0.005(4) -0.005(4)
C11 0.039(6) 0.020(4) 0.035(5) -0.009(4) -0.005(4) -0.002(4)
O2W 0.047(6) 0.039(5) 0.093(8) -0.023(5) 0.001(5) 0.006(4)
O1W 0.048(6) 0.068(7) 0.055(6) 0.000(5) -0.010(4) -0.023(5)
C6 0.073(10) 0.034(6) 0.075(10) -0.001(6) -0.027(8) -0.014(6)
loop_
_atom_type_symbol
_atom_type_description
_atom_type_scat_dispersion_real
_atom_type_scat_dispersion_imag
_atom_type_scat_source
C C 0.0033 0.0016 'International Tables Vol C Tables 4.2.6.8 and 6.1.1.4'
H H 0.0000 0.0000 'International Tables Vol C Tables 4.2.6.8 and 6.1.1.4'
N N 0.0061 0.0033 'International Tables Vol C Tables 4.2.6.8 and 6.1.1.4'
O O 0.0106 0.0060 'International Tables Vol C Tables 4.2.6.8 and 6.1.1.4'
Cd Cd -0.8075 1.2024 'International Tables Vol C Tables 4.2.6.8 and 6.1.1.4'
loop_
_geom_angle_atom_site_label_1
_geom_angle_atom_site_label_2
_geom_angle_atom_site_label_3
_geom_angle
_geom_angle_site_symmetry_1
_geom_angle_site_symmetry_3
_geom_angle_publ_flag
H3WC O3W H3WD 108.7 . . ?
C4 N5 C1 118.4(10) . . ?
C4 N5 Cd2 126.4(8) . 2_567 ?
C1 N5 Cd2 115.1(7) . 2_567 ?
N5 C4 C3 118.1(13) . . ?
N5 C4 H4 121.0 . . ?
C3 C4 H4 121.0 . . ?
N6 C3 C4 127.4(13) . . ?
N6 C3 H3 116.3 . . ?
C4 C3 H3 116.3 . . ?
C3 N6 C2 113.4(11) . . ?
N6 C2 C1 124.9(12) . . ?
N6 C2 C6 113.2(12) . . ?
C1 C2 C6 121.9(12) . . ?
N5 C1 C2 117.6(10) . . ?
N5 C1 C5 114.6(10) . . ?
C2 C1 C5 127.6(11) . . ?
C14 O3 Cd2 108.7(7) . 2_666 ?
C14 O4 Cd1 123.7(8) . 2_666 ?
O3 C14 O4 120.4(11) . . ?
O3 C14 C10 117.4(10) . . ?
O4 C14 C10 122.0(10) . . ?
C15 O6 Cd1 100.8(8) . 1_545 ?
N2 N1 C5 102.9(9) . . ?
N4 C5 N1 111.5(10) . . ?
N4 C5 C1 124.9(11) . . ?
N1 C5 C1 123.2(11) . . ?
C5 N4 N3 107.0(8) . . ?
C5 N4 Cd2 114.8(7) . 2_567 ?
N3 N4 Cd2 134.8(7) . 2_567 ?
O6 Cd1 O4 99.3(4) 1_565 2_666 ?
O6 Cd1 O2 141.8(3) 1_565 . ?
O4 Cd1 O2 86.3(3) 2_666 . ?
O6 Cd1 O1W 91.8(4) 1_565 . ?
O4 Cd1 O1W 168.6(3) 2_666 . ?
O2 Cd1 O1W 86.7(4) . . ?
O6 Cd1 N2 105.1(4) 1_565 . ?
O4 Cd1 N2 83.4(3) 2_666 . ?
O2 Cd1 N2 113.1(3) . . ?
O1W Cd1 N2 91.2(3) . . ?
O6 Cd1 O5 53.0(3) 1_565 1_565 ?
O4 Cd1 O5 102.7(3) 2_666 1_565 ?
O2 Cd1 O5 88.8(3) . 1_565 ?
O1W Cd1 O5 86.1(3) . 1_565 ?
N2 Cd1 O5 157.7(3) . 1_565 ?
O6 Cd1 C15 26.5(4) 1_565 1_565 ?
O4 Cd1 C15 103.2(3) 2_666 1_565 ?
O2 Cd1 C15 115.3(3) . 1_565 ?
O1W Cd1 C15 87.9(4) . 1_565 ?
N2 Cd1 C15 131.4(4) . 1_565 ?
O5 Cd1 C15 26.5(3) 1_565 1_565 ?
O3 Cd2 O2W 88.7(4) 2_666 . ?
O3 Cd2 O1 84.0(3) 2_666 . ?
O2W Cd2 O1 163.7(3) . . ?
O3 Cd2 N3 127.3(3) 2_666 . ?
O2W Cd2 N3 93.5(4) . . ?
O1 Cd2 N3 79.6(3) . . ?
O3 Cd2 N4 144.2(3) 2_666 2_567 ?
O2W Cd2 N4 90.7(4) . 2_567 ?
O1 Cd2 N4 103.7(3) . 2_567 ?
N3 Cd2 N4 88.4(3) . 2_567 ?
O3 Cd2 N5 75.6(3) 2_666 2_567 ?
O2W Cd2 N5 98.6(4) . 2_567 ?
O1 Cd2 N5 93.6(3) . 2_567 ?
N3 Cd2 N5 154.5(3) . 2_567 ?
N4 Cd2 N5 69.2(3) 2_567 2_567 ?
C7 O1 Cd2 125.0(8) . . ?
C15 O5 Cd1 83.4(8) . 1_545 ?
C7 O2 Cd1 120.8(6) . . ?
N2 N3 N4 108.2(9) . . ?
N2 N3 Cd2 120.4(7) . . ?
N4 N3 Cd2 130.1(7) . . ?
C12 C13 C8 120.3(10) . . ?
C12 C13 H13 119.8 . . ?
C8 C13 H13 119.8 . . ?
O1 C7 O2 122.6(10) . . ?
O1 C7 C8 119.8(9) . . ?
O2 C7 C8 117.5(8) . . ?
N3 N2 N1 110.2(8) . . ?
N3 N2 Cd1 126.7(7) . . ?
N1 N2 Cd1 123.0(7) . . ?
C10 C9 C8 121.7(9) . . ?
C10 C9 H9 119.2 . . ?
C8 C9 H9 119.2 . . ?
O5 C15 O6 122.6(11) . . ?
O5 C15 C12 120.8(11) . . ?
O6 C15 C12 116.5(11) . . ?
O5 C15 Cd1 70.1(7) . 1_545 ?
O6 C15 Cd1 52.7(6) . 1_545 ?
C12 C15 Cd1 168.4(9) . 1_545 ?
C9 C8 C13 119.4(10) . . ?
C9 C8 C7 119.1(9) . . ?
C13 C8 C7 121.3(10) . . ?
C13 C12 C11 119.7(9) . . ?
C13 C12 C15 118.7(10) . . ?
C11 C12 C15 121.6(10) . . ?
C9 C10 C11 118.8(10) . . ?
C9 C10 C14 119.9(9) . . ?
C11 C10 C14 121.3(10) . . ?
C10 C11 C12 120.1(9) . . ?
C10 C11 H11 120.0 . . ?
C12 C11 H11 120.0 . . ?
N7 C6 C2 176.5(19) . . ?
loop_
_geom_bond_atom_site_label_1
_geom_bond_atom_site_label_2
_geom_bond_distance
_geom_bond_site_symmetry_2
_geom_bond_publ_flag
O3W H3WC 0.8500 . ?
O3W H3WD 0.8500 . ?
N7 C6 1.14(2) . ?
N5 C4 1.337(17) . ?
N5 C1 1.401(14) . ?
N5 Cd2 2.499(10) 2_567 ?
C4 C3 1.42(2) . ?
C4 H4 0.9300 . ?
C3 N6 1.28(2) . ?
C3 H3 0.9300 . ?
N6 C2 1.359(17) . ?
C2 C1 1.403(16) . ?
C2 C6 1.462(19) . ?
C1 C5 1.451(17) . ?
O3 C14 1.247(15) . ?
O3 Cd2 2.286(8) 2_666 ?
O4 C14 1.291(15) . ?
O4 Cd1 2.277(9) 2_666 ?
C14 C10 1.456(15) . ?
O6 C15 1.251(15) . ?
O6 Cd1 2.229(9) 1_545 ?
N1 N2 1.359(14) . ?
N1 C5 1.366(15) . ?
C5 N4 1.307(15) . ?
N4 N3 1.334(13) . ?
N4 Cd2 2.433(8) 2_567 ?
Cd1 O6 2.229(9) 1_565 ?
Cd1 O4 2.277(9) 2_666 ?
Cd1 O2 2.280(8) . ?
Cd1 O1W 2.290(9) . ?
Cd1 N2 2.331(9) . ?
Cd1 O5 2.605(11) 1_565 ?
Cd1 C15 2.753(11) 1_565 ?
Cd2 O3 2.286(8) 2_666 ?
Cd2 O2W 2.295(10) . ?
Cd2 O1 2.342(9) . ?
Cd2 N3 2.398(10) . ?
Cd2 N4 2.434(8) 2_567 ?
Cd2 N5 2.499(10) 2_567 ?
O1 C7 1.255(12) . ?
O5 C15 1.238(17) . ?
O5 Cd1 2.605(10) 1_545 ?
O2 C7 1.279(12) . ?
N3 N2 1.323(13) . ?
C13 C12 1.402(16) . ?
C13 C8 1.422(16) . ?
C13 H13 0.9300 . ?
C7 C8 1.490(15) . ?
C9 C10 1.399(15) . ?
C9 C8 1.423(16) . ?
C9 H9 0.9300 . ?
C15 C12 1.507(15) . ?
C15 Cd1 2.753(11) 1_545 ?
C12 C11 1.447(15) . ?
C10 C11 1.429(15) . ?
C11 H11 0.9300 . ?
