#------------------------------------------------------------------------------
#$Date: 2022-01-06 23:13:27 +0200 (Thu, 06 Jan 2022) $
#$Revision: 271832 $
#$URL: file:///home/coder/svn-repositories/cod/cif/7/24/37/7243723.cif $
#------------------------------------------------------------------------------
#
# This file is available in the Crystallography Open Database (COD),
# http://www.crystallography.net/
#
# All data on this site have been placed in the public domain by the
# contributors.
#
data_7243723
loop_
_publ_author_name
'Liu, Ying-Hsuan'
'Dadvand, Afshin'
'Titi, Hatem M.'
'Hamzehpoor, Ehsan'
'Perepichka, Dmitrii F.'
_publ_section_title
;
 Halogen bonding vs. \p-stacking interactions in new
 bis(acenaphthylene)dione semiconductors
;
_journal_issue                   47
_journal_name_full               CrystEngComm
_journal_page_first              8255
_journal_page_last               8259
_journal_paper_doi               10.1039/D1CE01047F
_journal_volume                  23
_journal_year                    2021
_chemical_formula_sum            'C24 H8 Cl4 O2'
_chemical_formula_weight         470.10
_space_group_crystal_system      triclinic
_space_group_IT_number           2
_space_group_name_Hall           '-P 1'
_space_group_name_H-M_alt        'P -1'
_atom_sites_solution_hydrogens   geom
_atom_sites_solution_primary     iterative
_atom_sites_solution_secondary   difmap
_audit_creation_method           SHELXL-2017/1
_audit_update_record
;
2021-06-01 deposited with the CCDC.	2021-09-28 downloaded from the CCDC.
;
_cell_angle_alpha                88.717(5)
_cell_angle_beta                 89.773(6)
_cell_angle_gamma                78.865(6)
_cell_formula_units_Z            1
_cell_length_a                   3.8349(4)
_cell_length_b                   8.8365(7)
_cell_length_c                   13.2606(9)
_cell_measurement_reflns_used    1613
_cell_measurement_temperature    298(2)
_cell_measurement_theta_max      72.447
_cell_measurement_theta_min      3.334
_cell_volume                     440.79(7)
_computing_cell_refinement       'Bruker SAINT'
_computing_data_collection       'Bruker APEX3'
_computing_data_reduction        'Bruker SAINT'
_computing_structure_refinement  'SHELXL-2017/1 (Sheldrick, 2017)'
_computing_structure_solution    'SHELXT 2014/5 (Sheldrick, 2014)'
_diffrn_ambient_temperature      298(2)
_diffrn_measured_fraction_theta_full 0.993
_diffrn_measured_fraction_theta_max 0.993
_diffrn_measurement_device_type  'Bruker AXS D8'
_diffrn_measurement_method       '\f and \w scans'
_diffrn_radiation_type           CuK\a
_diffrn_radiation_wavelength     1.54184
_diffrn_reflns_av_R_equivalents  0.0443
_diffrn_reflns_av_unetI/netI     0.0255
_diffrn_reflns_Laue_measured_fraction_full 0.993
_diffrn_reflns_Laue_measured_fraction_max 0.993
_diffrn_reflns_limit_h_max       4
_diffrn_reflns_limit_h_min       -4
_diffrn_reflns_limit_k_max       10
_diffrn_reflns_limit_k_min       -10
_diffrn_reflns_limit_l_max       16
_diffrn_reflns_limit_l_min       -16
_diffrn_reflns_number            12693
_diffrn_reflns_point_group_measured_fraction_full 0.993
_diffrn_reflns_point_group_measured_fraction_max 0.993
_diffrn_reflns_theta_full        67.684
_diffrn_reflns_theta_max         72.447
_diffrn_reflns_theta_min         3.334
_exptl_absorpt_coefficient_mu    6.291
_exptl_absorpt_correction_T_max  0.7536
_exptl_absorpt_correction_T_min  0.4965
_exptl_absorpt_correction_type   multi-scan
_exptl_absorpt_process_details
;
 SADABS 2016/2: Krause, L., Herbst-Irmer, R., Sheldrick G.M. & Stalke D.,
 J. Appl. Cryst. 48 (2015) 3-10
;
_exptl_crystal_colour            red
_exptl_crystal_density_diffrn    1.771
_exptl_crystal_density_method    'not measured'
_exptl_crystal_description       needle
_exptl_crystal_F_000             236
_exptl_crystal_size_max          0.400
_exptl_crystal_size_mid          0.050
_exptl_crystal_size_min          0.030
_exptl_transmission_factor_max   0.7536
_exptl_transmission_factor_min   0.4965
_refine_diff_density_max         0.314
_refine_diff_density_min         -0.310
_refine_diff_density_rms         0.052
_refine_ls_extinction_method     none
_refine_ls_goodness_of_fit_ref   1.021
_refine_ls_hydrogen_treatment    constr
_refine_ls_matrix_type           full
_refine_ls_number_parameters     136
_refine_ls_number_reflns         1722
_refine_ls_number_restraints     0
_refine_ls_restrained_S_all      1.021
_refine_ls_R_factor_all          0.0350
_refine_ls_R_factor_gt           0.0331
_refine_ls_shift/su_max          0.000
_refine_ls_shift/su_mean         0.000
_refine_ls_structure_factor_coef Fsqd
_refine_ls_weighting_details
'w=1/[\s^2^(Fo^2^)+(0.0692P)^2^+0.1386P] where P=(Fo^2^+2Fc^2^)/3'
_refine_ls_weighting_scheme      calc
_refine_ls_wR_factor_gt          0.0975
_refine_ls_wR_factor_ref         0.1011
_reflns_Friedel_coverage         0.000
_reflns_number_gt                1613
_reflns_number_total             1722
_reflns_threshold_expression     'I > 2\s(I)'
_cod_data_source_file            d1ce01047f2.cif
_cod_data_source_block           s1
_cod_depositor_comments
'Adding full bibliography for 7243723--7243725.cif.'
_cod_database_code               7243723
_shelx_shelxl_version_number     2017/1
_shelx_space_group_comment
;
The symmetry employed for this shelxl refinement is uniquely defined
by the following loop, which should always be used as a source of
symmetry information in preference to the above space-group names.
They are only intended as comments.
;
_shelx_estimated_absorpt_t_min   0.188
_shelx_estimated_absorpt_t_max   0.834
_shelx_res_file
;
TITL YH1a_0m_a.res in P-1
    s1.res
    created by SHELXL-2017/1 at 10:49:54 on 09-Jul-2019
REM Old TITL Integration of YH1a

REM SHELXT solution in P-1
REM R1 0.202,  Rweak 0.007,  Alpha 0.073,  Orientation as input
REM Formula found by SHELXT:  C12 Cl2 O

CELL  1.54184   3.8349   8.8365  13.2606   88.717   89.773   78.865
ZERR    1.000   0.0004   0.0007   0.0009    0.005    0.006    0.006
LATT  1
SFAC C H CL O
UNIT 24 8 4 2
SIZE 0.03 0.05 0.4
TEMP 25
ACTA
omit -1 3 1
L.S. 30
BOND $H
FMAP 2
PLAN 20
WGHT    0.069200    0.138600
FVAR       1.56046
C1    1    0.926493    0.485413    0.045763    11.00000    0.02508    0.02219 =
         0.02620    0.00059    0.00326   -0.00518
C2    1    0.717503    0.610709    0.112403    11.00000    0.03563    0.02422 =
         0.02934    0.00071    0.00704   -0.00482
C3    1    0.614496    0.533759    0.203814    11.00000    0.02795    0.02487 =
         0.02783    0.00094    0.00452   -0.00529
C4    1    0.740034    0.374722    0.195884    11.00000    0.02355    0.02420 =
         0.02533    0.00129    0.00287   -0.00577
C5    1    0.926835    0.338697    0.102766    11.00000    0.02644    0.02445 =
         0.02318    0.00133    0.00528   -0.00684
C6    1    1.058165    0.184208    0.087664    11.00000    0.04233    0.02598 =
         0.03214   -0.00009    0.01105   -0.00439
AFIX  43
H6    2    1.180259    0.153148    0.028609    11.00000   -1.20000
AFIX   0
C7    1    1.007890    0.073965    0.161182    11.00000    0.04457    0.02168 =
         0.03832    0.00184    0.01112   -0.00422
AFIX  43
H7    2    1.099430   -0.029354    0.149069    11.00000   -1.20000
AFIX   0
C8    1    0.830806    0.110568    0.249991    11.00000    0.03331    0.02720 =
         0.03222    0.00659    0.00562   -0.00815
C9    1    0.684577    0.267454    0.271815    11.00000    0.02505    0.02804 =
         0.02721    0.00315    0.00221   -0.00778
C10   1    0.490672    0.334716    0.357599    11.00000    0.02847    0.03572 =
         0.02600    0.00374    0.00511   -0.00953
C11   1    0.370872    0.491722    0.364177    11.00000    0.03473    0.03692 =
         0.02807   -0.00243    0.01007   -0.00717
AFIX  43
H11   2    0.246851    0.530489    0.421386    11.00000   -1.20000
AFIX   0
C12   1    0.431015    0.593999    0.287134    11.00000    0.03690    0.02782 =
         0.03149   -0.00283    0.00851   -0.00303
AFIX  43
H12   2    0.349015    0.699683    0.292269    11.00000   -1.20000
AFIX   0
CL1   3    0.388341    0.225129    0.459339    11.00000    0.05911    0.04356 =
         0.03260    0.00755    0.01725   -0.01330
CL2   3    0.796678   -0.041386    0.331175    11.00000    0.06589    0.02968 =
         0.05042    0.01426    0.02284   -0.00434
O1    4    0.639625    0.747817    0.095706    11.00000    0.09322    0.02442 =
         0.04694    0.00369    0.03646    0.00206
HKLF 4




REM  YH1a_0m_a.res in P-1
REM R1 =  0.0331 for    1613 Fo > 4sig(Fo)  and  0.0350 for all    1722 data
REM    136 parameters refined using      0 restraints

END

WGHT      0.0542      0.1696

REM Highest difference peak  0.314,  deepest hole -0.310,  1-sigma level  0.052
Q1    1   0.8613  0.3396  0.1455  11.00000  0.05    0.31
Q2    1   0.5512  0.2947  0.3058  11.00000  0.05    0.28
Q3    1   0.8479  0.7357  0.1047  11.00000  0.05    0.27
Q4    1   0.8627  0.1022  0.2036  11.00000  0.05    0.26
Q5    1   0.6388  0.4610  0.1975  11.00000  0.05    0.26
Q6    1   0.5409  0.5583  0.2394  11.00000  0.05    0.25
Q7    1   0.8349  0.5472  0.0742  11.00000  0.05    0.24
Q8    1   0.6020  0.0015  0.3475  11.00000  0.05    0.22
Q9    1   1.0014  0.4071  0.0790  11.00000  0.05    0.22
Q10   1   0.3814  0.4127  0.3497  11.00000  0.05    0.21
Q11   1   0.9897 -0.0151  0.3547  11.00000  0.05    0.20
Q12   1   0.2045  0.3118  0.4779  11.00000  0.05    0.19
Q13   1   0.7237  0.5744  0.1754  11.00000  0.05    0.19
Q14   1   0.6159  0.2039  0.4707  11.00000  0.05    0.18
Q15   1   0.7094  0.1915  0.2626  11.00000  0.05    0.18
Q16   1   1.0887  0.5009  0.0170  11.00000  0.05    0.17
Q17   1   0.5367  0.7731  0.1239  11.00000  0.05    0.16
Q18   1   1.0036 -0.1035  0.2802  11.00000  0.05    0.15
Q19   1   0.1705  0.1460  0.4422  11.00000  0.05    0.15
Q20   1   1.3429  0.1511  0.0471  11.00000  0.05    0.14
;
_shelx_res_checksum              96578
_shelx_hkl_file
;
  -1   0   0  776.87   38.95
  -1   0   0  711.38   39.97
   1   0   0  779.34   38.31
   1   0   0  761.65   38.30
   1   0   0  793.58   38.11
   1   0   0  756.27   39.24
  -2   0   0   54.37    6.17
  -2   0   0   57.10    4.54
   2   0   0   50.98    3.47
   2   0   0   54.92    3.56
   2   0   0   52.35    3.75
   2   0   0   57.02    5.11
  -3   0   0   94.18   14.75
  -3   0   0   83.97   18.90
  -3   0   0  100.74    6.93
  -3   0   0   85.77    9.68
  -3   0   0   98.01    7.74
  -3   0   0  104.59   10.77
  -3   0   0   84.56   12.77
   3   0   0  106.64    6.49
   3   0   0   98.81    6.77
   3   0   0   99.27    6.17
   3   0   0   94.88    8.24
   3   0   0   84.31   15.80
  -4   0   0   16.22    6.65
  -4   0   0   16.85    2.66
  -4   0   0   18.11    5.79
  -4   0   0   16.43    4.43
   4   0   0   15.85    2.66
   4   0   0   20.43    2.68
   4  -1   0    0.72    1.40
   4  -1   0    0.28    1.05
   4  -1   0   -0.30    1.07
  -4   1   0   -0.33    3.42
  -4   1   0    0.23    2.89
  -4   1   0    1.06    1.93
  -4   1   0    1.32    1.11
  -4   1   0    1.26    2.12
   3  -1   0    4.82    6.68
   3  -1   0    2.54    1.40
   3  -1   0    5.04    1.51
   3  -1   0    4.42    1.53
  -3   1   0    8.18    5.77
  -3   1   0    3.46    1.31
  -3   1   0    6.19    4.63
  -3   1   0    1.42    1.84
  -3   1   0    4.18    4.19
  -3   1   0    5.72    3.11
  -3   1   0    2.39    3.04
  -3   1   0    3.51    1.58
   2  -1   0 1390.05   78.58
   2  -1   0 1584.55   79.21
   2  -1   0 1583.26   77.65
   2  -1   0 1495.34   77.56
  -2   1   0 1613.60   79.12
  -2   1   0 1549.28   81.74
   0  -1   0  315.43   18.97
   0  -1   0  369.37   17.95
   0  -1   0  386.21   18.30
   0  -1   0  324.32   17.99
   0  -1   0  370.66   18.35
   0   1   0  347.93   17.98
   0   1   0  377.87   18.18
   0   1   0  322.45   17.97
   0   1   0  330.77   17.85
   0   1   0  395.84   18.38
   0   1   0  371.81   18.00
  -1  -1   0  638.05   35.24
  -1  -1   0  661.27   34.32
  -1  -1   0  729.86   35.29
   1   1   0  668.27   33.88
  -2  -1   0  157.07   11.67
  -2  -1   0  163.01    9.68
   2   1   0  155.61   10.51
   2   1   0  161.23    8.64
   2   1   0  158.14    8.57
   2   1   0  164.07    8.44
  -3  -1   0  537.75   42.37
  -3  -1   0  605.27   33.39
  -3  -1   0  685.38   36.40
  -3  -1   0  607.32   37.92
  -3  -1   0  650.65   38.74
  -3  -1   0  604.24   45.31
   3   1   0  669.29   32.77
   3   1   0  648.56   35.92
   3   1   0  690.99   33.11
  -4  -1   0   65.90   10.38
  -4  -1   0   68.81    7.82
  -4  -1   0   71.49    5.74
  -4  -1   0   72.29   10.20
  -4  -1   0   72.68   11.91
   4   1   0   57.57    5.84
   4   1   0   72.22    5.24
   4  -2   0   21.69    3.09
   4  -2   0   21.53    2.90
   4  -2   0   17.43    2.64
  -4   2   0   29.73    3.28
  -4   2   0   20.87    8.29
  -4   2   0   22.70    5.41
  -4   2   0   23.17    4.05
   3  -2   0   33.77    4.75
   3  -2   0   28.44    3.02
   3  -2   0   33.43    6.00
   3  -2   0   33.23    3.47
   3  -2   0   30.96    3.72
  -3   2   0   29.68    5.89
  -3   2   0   32.94    9.48
  -3   2   0   22.14    7.03
  -3   2   0   36.10    3.51
  -3   2   0   29.30    5.38
  -3   2   0   29.15    5.65
  -3   2   0   32.51    3.97
  -3   2   0   28.71    8.96
  -3   2   0   26.46    3.14
   2  -2   0   62.58    4.80
   2  -2   0   62.15    5.72
   2  -2   0   65.29    4.62
   2  -2   0   74.24    5.78
  -2   2   0   64.78    7.46
  -2   2   0   66.27    5.79
  -2   2   0   63.29    4.69
  -2   2   0   52.43    6.62
  -2   2   0   49.42    8.70
  -2   2   0   70.54    5.26
  -2   2   0   62.39    5.39
   0  -2   0    2.79    0.64
   0  -2   0    2.62    1.34
   0  -2   0    2.74    0.79
   0  -2   0    2.62    0.91
   0   2   0    3.34    1.44
   0   2   0    2.80    0.68
   0   2   0    1.98    0.68
   0   2   0    2.12    0.49
  -1  -2   0  275.69   14.39
  -1  -2   0  260.52   14.78
  -1  -2   0  259.19   15.33
   1   2   0  270.73   13.74
   1   2   0  273.56   13.67
   1   2   0  276.99   14.02
  -2  -2   0  334.79   19.16
  -2  -2   0  286.42   16.83
  -2  -2   0  290.60   18.71
   2   2   0  308.90   16.11
   2   2   0  328.88   15.78
   2   2   0  291.20   18.13
  -3  -2   0  411.89   23.66
  -3  -2   0  346.48   21.42
  -3  -2   0  380.78   30.99
  -3  -2   0  392.77   21.07
  -3  -2   0  370.18   24.60
  -3  -2   0  327.40   23.76
  -3  -2   0  326.11   38.87
   3   2   0  358.25   22.92
   3   2   0  369.34   19.41
   3   2   0  419.67   19.76
  -4  -2   0    3.62    3.12
  -4  -2   0    3.59    1.39
  -4  -2   0    4.09    4.15
  -4  -2   0    2.33    2.08
  -4  -2   0    2.55    2.71
   4   2   0    1.08    1.42
   4  -3   0  214.94   12.66
   4  -3   0  223.59   12.91
  -4   3   0  237.01   16.69
  -4   3   0  228.07   14.08
  -4   3   0  218.32   19.32
   3  -3   0  740.98   39.96
   3  -3   0  776.32   42.05
   3  -3   0  727.37   39.30
   3  -3   0  825.53   40.85
   3  -3   0  681.65   38.81
  -3   3   0  792.56   40.46
  -3   3   0  692.05   48.50
  -3   3   0  653.04   42.78
  -3   3   0  759.34   39.03
  -3   3   0  673.53   53.20
  -3   3   0  823.48   39.79
  -3   3   0  719.26   44.73
   2  -3   0    2.04    1.06
   2  -3   0    1.95    0.99
   2  -3   0    1.82    3.07
   2  -3   0    2.27    1.19
   2  -3   0   -2.97    1.67
   2  -3   0    2.87    1.24
  -2   3   0    0.71    2.49
  -2   3   0    1.71    2.00
  -2   3   0    2.07    1.60
  -2   3   0    3.14    2.28
  -2   3   0    1.65    1.29
  -2   3   0    2.05    0.95
  -2   3   0    1.92    1.20
   1  -3   0    0.33    0.66
   1  -3   0    0.72    0.73
   1  -3   0    2.08    0.76
   1  -3   0    1.23    1.94
   1  -3   0    4.03    1.11
  -1   3   0    1.42    0.36
  -1   3   0    2.05    0.93
  -1   3   0    1.26    1.31
   0  -3   0   47.31    4.38
   0  -3   0   52.50    3.96
   0  -3   0   55.85    3.40
   0  -3   0   59.16    5.93
   0   3   0   45.87    3.18
   0   3   0   54.12    3.64
   0   3   0   49.55    3.29
   0   3   0   53.32    3.54
  -1  -3   0  200.10   12.52
   1   3   0  207.06   10.96
   1   3   0  198.02   10.75
   1   3   0  218.11   12.34
   1   3   0  201.12   10.52
   1   3   0  190.93   10.79
  -2  -3   0 1232.11   68.96
  -2  -3   0 1335.12   70.40
   2   3   0 1357.89   66.64
   2   3   0 1347.59   67.14
   2   3   0 1351.08   66.49
  -3  -3   0   48.00    5.91
  -3  -3   0   47.63    6.08
  -3  -3   0   49.81    9.51
  -3  -3   0   37.68    4.51
  -3  -3   0   42.03    5.94
  -3  -3   0   42.77    8.91
  -3  -3   0   35.80    7.55
  -3  -3   0   46.13    4.74
  -3  -3   0   36.93    4.32
   3   3   0   40.83    5.78
   3   3   0   43.46    2.87
   3   3   0   36.38   10.85
  -4  -3   0  126.88   14.24
  -4  -3   0  112.17   12.40
  -4  -3   0  122.22   10.17
  -4  -3   0  127.42   13.90
   3  -4   0    2.86    2.16
   3  -4   0    1.51    1.44
   3  -4   0    1.43    1.11
   3  -4   0    1.63    1.27
  -3   4   0    0.94    4.00
  -3   4   0    2.42    1.18
  -3   4   0    2.87    1.43
  -3   4   0    1.50    2.00
  -3   4   0    3.18    4.54
  -3   4   0    1.20    1.30
  -3   4   0    2.80    3.02
   2  -4   0  125.78    8.84
   2  -4   0  117.61   10.10
   2  -4   0  117.42    9.84
   2  -4   0  111.81   17.55
   2  -4   0  119.59    8.07
   2  -4   0  120.88    7.97
   2  -4   0  122.99    8.33
  -2   4   0  134.81   10.96
  -2   4   0  130.38    8.81
  -2   4   0  104.13   13.00
  -2   4   0  127.00   11.15
   1  -4   0  519.89   29.21
   1  -4   0  565.57   29.28
   1  -4   0  553.33   29.53
   1  -4   0  540.60   38.52
   1  -4   0  532.73   29.35
   1  -4   0  591.79   31.34
  -1   4   0  590.79   29.73
  -1   4   0  567.73   28.70
  -1   4   0  547.96   31.17
  -1   4   0  563.12   29.64
   0  -4   0 1668.62   91.17
   0  -4   0 1829.10   90.24
   0  -4   0 1619.06   90.04
   0   4   0 2078.12   91.73
   0   4   0 1816.91   90.69
   0   4   0 1755.02   90.06
  -1  -4   0  527.91   28.60
   1   4   0  495.07   26.04
   1   4   0  511.04   26.46
   1   4   0  499.86   26.48
  -2  -4   0  401.21   23.46
  -2  -4   0  405.85   23.17
  -2  -4   0  456.27   29.65
  -2  -4   0  431.07   25.99
   2   4   0  435.09   21.66
   2   4   0  422.87   22.15
   2   4   0  384.46   26.43
   2   4   0  443.24   22.71
  -3  -4   0  946.06   55.82
  -3  -4   0  899.56   48.85
  -3  -4   0  949.25   57.43
  -3  -4   0  837.31   48.02
  -3  -4   0  844.25   46.05
  -3  -4   0  874.70   46.35
   3   4   0  892.21   44.12
   3   4   0  813.23   44.32
   3   4   0  749.26   53.53
  -4  -4   0   44.31    7.92
  -4  -4   0   44.41    5.03
  -4  -4   0   39.54    4.75
  -4  -4   0   50.14    8.05
   3  -5   0    5.59    2.05
   3  -5   0    1.89    2.12
   3  -5   0    5.01    1.53
   3  -5   0    5.32    1.69
  -3   5   0    4.79    2.37
  -3   5   0    3.07    1.87
  -3   5   0    4.93    1.43
  -3   5   0    7.92    2.02
  -3   5   0    4.20    3.56
   2  -5   0  135.04    8.79
   2  -5   0  135.57    8.95
   2  -5   0  114.83   18.93
   2  -5   0  124.18   10.80
   2  -5   0  123.61    8.55
   2  -5   0  129.49    9.30
  -2   5   0  141.64   10.10
  -2   5   0  124.63    8.63
  -2   5   0  133.58   14.00
  -2   5   0  137.04   12.24
   1  -5   0  593.84   41.52
   1  -5   0  531.63   32.83
   1  -5   0  574.48   30.94
   1  -5   0  563.53   30.44
   1  -5   0  588.67   30.41
   1  -5   0  546.00   30.28
   1  -5   0  593.71   32.18
   1  -5   0  521.17   30.71
   1  -5   0  539.65   32.58
  -1   5   0  599.28   32.97
  -1   5   0  597.74   32.21
  -1   5   0  656.12   31.31
  -1   5   0  547.71   31.68
  -1   5   0  521.32   30.36
  -1   5   0  598.01   32.43
  -1   5   0  599.85   30.36
   0  -5   0   96.74    9.81
   0  -5   0   84.51    6.87
   0  -5   0   92.98    5.82
   0   5   0   86.14    5.69
   0   5   0   91.64    5.88
   0   5   0   89.24    6.32
   0   5   0   89.38    6.08
  -1  -5   0 3365.50  180.77
   1   5   0 3568.18  177.79
   1   5   0 3554.06  178.52
   1   5   0 3618.51  178.35
   1   5   0 3656.66  177.96
  -2  -5   0    1.35    2.04
  -2  -5   0    0.70    1.41
  -2  -5   0    1.60    2.68
  -2  -5   0   -1.12    1.79
  -2  -5   0   -0.30    1.46
  -2  -5   0    1.57    2.62
  -2  -5   0    1.71    1.68
  -2  -5   0    2.42    1.39
   2   5   0    0.55    0.57
   2   5   0    0.93    0.81
   2   5   0   -0.17    0.80
   2   5   0    1.65    1.09
  -3  -5   0    4.76    2.58
  -3  -5   0   11.27    5.75
  -3  -5   0    8.06    2.45
  -3  -5   0    9.71    4.67
  -3  -5   0    6.10    3.62
  -3  -5   0    6.90    2.32
   3   5   0    8.79    1.40
   3   5   0    7.80    1.65
  -4  -5   0  121.76    9.80
  -4  -5   0  142.82   19.06
  -4  -5   0   97.93    7.40
   3  -6   0   32.81    4.34
   3  -6   0   34.69    3.77
   3  -6   0   36.06    3.34
  -3   6   0   31.81    6.54
  -3   6   0   38.10    3.29
   2  -6   0  149.19   11.18
   2  -6   0  181.72   12.87
   2  -6   0  173.19   11.08
   2  -6   0  185.81   11.27
  -2   6   0  167.28   15.31
  -2   6   0  203.85   11.73
  -2   6   0  186.50   15.46
   1  -6   0 1634.44   88.86
   1  -6   0 1760.28   88.74
   1  -6   0 1743.09   89.18
   1  -6   0 1838.86  103.49
   1  -6   0 1656.84   91.35
   1  -6   0 1707.22   88.59
  -1   6   0 1777.16   92.19
  -1   6   0 1671.06   90.53
  -1   6   0 1821.75   91.47
  -1   6   0 1800.36   88.85
   0  -6   0  158.92   12.39
   0  -6   0  155.13   17.14
   0  -6   0  170.21   11.28
   0  -6   0  172.57   12.00
   0   6   0  182.18   10.73
   0   6   0  162.61    9.98
   0   6   0  167.12   11.89
   0   6   0  149.24   11.32
   0   6   0  178.99   11.01
   0   6   0  179.27   10.24
   0   6   0  169.11   10.50
  -1  -6   0  213.82   13.47
  -1  -6   0  188.14   13.94
  -1  -6   0  182.07   11.78
  -1  -6   0  193.23   11.97
   1   6   0  185.14   11.74
   1   6   0  184.75   11.71
   1   6   0  193.01   11.55
   1   6   0  202.26   11.08
   1   6   0  173.00   12.83
  -2  -6   0   23.21    6.87
  -2  -6   0   28.61    6.15
  -2  -6   0   22.90    3.75
  -2  -6   0   20.92    2.41
  -2  -6   0   25.09    4.05
  -2  -6   0   24.24    4.20
   2   6   0   21.05    2.87
   2   6   0   20.05    2.36
   2   6   0   24.02    2.51
  -3  -6   0   48.96    8.53
   3   6   0   52.68    4.08
   3   6   0   54.43    4.63
   3   6   0   51.82    4.05
  -4  -6   0    8.33    3.47
  -4  -6   0    8.90    1.73
  -4  -6   0   10.50    3.72
  -4  -6   0    9.70    2.30
   2  -7   0    7.65    1.74
   2  -7   0    8.55    2.92
   2  -7   0    5.19    2.54
   2  -7   0    9.28    1.92
  -2   7   0    7.75    2.30
  -2   7   0   11.03    5.54
   1  -7   0  139.32   11.64
   1  -7   0  151.67    9.55
   1  -7   0  156.64   11.32
  -1   7   0  153.94   11.75
  -1   7   0  135.61   10.91
  -1   7   0  156.48   12.83
   0  -7   0 1052.84   52.69
   0  -7   0  831.82   60.47
   0  -7   0  979.57   52.98
   0  -7   0  916.14   53.13
   0   7   0 1026.88   52.40
   0   7   0 1025.85   51.56
   0   7   0 1039.73   57.60
  -1  -7   0  257.63   16.25
  -1  -7   0  278.93   24.07
  -1  -7   0  270.07   18.85
  -1  -7   0  269.13   16.34
   1   7   0  257.97   15.77
   1   7   0  263.52   16.37
   1   7   0  276.32   15.77
   1   7   0  282.36   18.38
  -2  -7   0  270.06   16.53
  -2  -7   0  257.41   20.99
  -2  -7   0  259.32   19.81
  -2  -7   0  267.78   16.28
  -2  -7   0  293.01   18.14
  -2  -7   0  288.51   18.32
   2   7   0  234.84   16.44
   2   7   0  262.97   14.85
   2   7   0  258.90   15.19
   2   7   0  253.83   15.43
   2   7   0  259.96   16.04
  -3  -7   0    0.29    1.48
  -3  -7   0    1.31    1.30
  -3  -7   0    1.91    2.97
  -3  -7   0    1.68    1.62
  -3  -7   0    7.46    4.25
   3   7   0    1.30    0.95
   3   7   0    1.63    1.02
  -4  -7   0   95.01    6.73
  -4  -7   0   88.99    9.25
  -4  -7   0   85.35    6.94
   2  -8   0  202.38   12.73
   2  -8   0  176.62   11.83
  -2   8   0  193.28   21.82
  -2   8   0  197.52   12.04
   1  -8   0   28.70    3.99
   1  -8   0   16.88    3.51
  -1   8   0   21.08    3.89
  -1   8   0   26.69    3.92
   0  -8   0   80.70    7.19
   0  -8   0   85.10    6.45
   0  -8   0   80.76    7.40
   0   8   0   84.07    6.55
   0   8   0   68.44    7.73
   0   8   0   82.49    7.33
   0   8   0   82.89    6.14
   0   8   0   87.01    8.21
  -1  -8   0  298.41   27.42
  -1  -8   0  336.31   19.81
  -1  -8   0  350.28   20.85
  -1  -8   0  337.83   19.08
  -1  -8   0  341.31   19.93
  -1  -8   0  300.79   22.36
   1   8   0  341.16   18.98
   1   8   0  344.94   20.49
   1   8   0  364.85   19.70
   1   8   0  334.83   21.03
   1   8   0  335.05   19.45
  -2  -8   0 1686.10   83.80
  -2  -8   0 1600.59   82.28
  -2  -8   0 1344.09   92.06
  -2  -8   0 1649.04   92.73
  -2  -8   0 1680.99   82.04
  -2  -8   0 1690.02   84.03
   2   8   0 1529.12   82.36
   2   8   0 1467.31   81.16
   2   8   0 1584.85   81.29
  -3  -8   0  309.30   18.76
  -3  -8   0  357.23   20.00
  -3  -8   0  318.80   18.28
  -3  -8   0  325.92   18.23
  -3  -8   0  324.29   25.16
   3   8   0  298.50   17.13
   3   8   0  299.48   17.61
   3   8   0  307.61   17.55
   1  -9   0    1.70    1.48
   1  -9   0    1.14    1.22
  -1   9   0    1.52    1.46
  -1   9   0   -0.61    1.01
   0  -9   0   58.13    5.55
   0   9   0   53.94    6.13
   0   9   0   54.44    4.59
   0   9   0   50.18    4.41
   0   9   0   56.99    5.84
  -1  -9   0  352.65   19.07
  -1  -9   0  302.09   27.12
  -1  -9   0  309.00   20.43
  -1  -9   0  362.09   20.37
  -1  -9   0  365.25   20.19
   1   9   0  365.47   20.22
   1   9   0  367.94   19.59
   1   9   0  359.08   19.98
   1   9   0  360.63   21.69
  -2  -9   0  389.29   21.59
  -2  -9   0  374.66   22.00
  -2  -9   0  363.26   29.18
  -2  -9   0  393.18   23.20
  -2  -9   0  421.37   23.25
   2   9   0  391.57   21.97
   2   9   0  388.73   22.96
   2   9   0  395.58   21.36
   2   9   0  388.83   21.69
  -3  -9   0   17.19    4.73
  -3  -9   0   18.09    2.18
  -3  -9   0   20.69    2.38
  -3  -9   0   13.80    2.35
  -3  -9   0   20.81    3.01
   3   9   0   18.30    2.09
   1 -10   0   41.14    3.49
  -1  10   0   44.03    3.54
   0 -10   0   44.06    4.17
   0  10   0   47.31    4.66
   0  10   0   50.32    4.96
  -1 -10   0   95.10    8.55
  -1 -10   0   68.70    5.01
  -1 -10   0   69.90    5.17
   1  10   0   70.55    5.68
   1  10   0   74.55    6.46
   1  10   0   66.43    5.05
   1  10   0   54.52    6.08
  -2 -10   0   91.90    5.92
  -2 -10   0   79.23    9.91
  -2 -10   0   84.80    6.46
  -2 -10   0   96.07    6.93
  -2 -10   0   98.27    6.30
   2  10   0   92.91    6.52
   2  10   0  101.90    7.14
   2  10   0   97.36    6.24
   2  10   0   92.72    6.04
   2  10  -1   45.15    3.46
   2  10  -1   41.56    4.40
   2  10  -1   48.13    3.68
  -2 -10   1   38.04    3.13
  -2 -10   1   33.53    6.33
  -2 -10   1   41.90    3.63
  -2 -10   1   41.66    4.10
   1  10  -1  281.49   16.27
   1  10  -1  314.64   16.61
   1  10  -1  273.82   17.17
   1  10  -1  306.12   18.04
  -1 -10   1  285.53   16.54
  -1 -10   1  310.26   17.84
  -1 -10   1  293.46   16.42
   0  10  -1    9.68    2.51
   0  10  -1    7.86    2.25
   0 -10   1   10.55    2.27
  -1  10  -1  275.06   15.26
   3   9  -1   75.51    5.13
   3   9  -1   79.61    5.38
  -3  -9   1   84.83    5.58
  -3  -9   1   81.96    5.62
  -3  -9   1   75.11    9.25
  -3  -9   1   85.70    6.39
   2   9  -1    0.17    1.03
   2   9  -1   -0.11    0.77
   2   9  -1   -1.62    1.67
   2   9  -1    0.03    1.42
  -2  -9   1   -0.19    0.89
  -2  -9   1    0.28    0.96
  -2  -9   1    0.39    2.44
  -2  -9   1   -0.36    1.32
  -2  -9   1   -1.35    1.27
   1   9  -1  289.99   16.52
   1   9  -1  316.48   17.20
   1   9  -1  282.40   18.28
  -1  -9   1  278.51   16.02
  -1  -9   1  308.72   17.17
  -1  -9   1  296.60   17.24
  -1  -9   1  239.14   22.94
   0   9  -1  349.93   19.41
   0   9  -1  358.28   21.28
   0   9  -1  358.02   21.84
   0  -9   1  348.11   20.75
   0  -9   1  339.41   20.99
  -1   9  -1  134.02    9.38
  -1   9  -1  129.35    9.17
   1  -9   1  137.59    9.42
   1  -9   1  131.00    9.16
   3   8  -1   29.10    3.55
   3   8  -1   37.71    3.49
  -3  -8   1   43.45    4.90
  -3  -8   1   42.04    7.66
  -3  -8   1   38.12    3.92
  -3  -8   1   36.37    3.92
   2   8  -1   27.43    3.38
   2   8  -1   26.20    3.16
   2   8  -1   27.03    3.38
   2   8  -1   22.90    4.47
   2   8  -1   18.47    5.27
  -2  -8   1   24.03    7.11
  -2  -8   1   26.79    3.68
  -2  -8   1   28.57    5.17
  -2  -8   1   29.59    4.39
  -2  -8   1   22.40    3.63
  -2  -8   1   26.74    2.79
   1   8  -1  277.29   16.53
   1   8  -1  282.70   18.01
   1   8  -1  263.13   16.21
   1   8  -1  271.26   17.28
   1   8  -1  284.99   15.88
  -1  -8   1  279.49   16.05
  -1  -8   1  249.26   18.94
  -1  -8   1  280.80   17.39
  -1  -8   1  275.92   16.71
  -1  -8   1  285.47   16.90
  -1  -8   1  251.82   23.83
   0   8  -1  482.66   25.48
   0   8  -1  429.43   23.68
   0   8  -1  408.06   25.05
   0   8  -1  428.10   23.21
   0  -8   1  424.08   24.92
   0  -8   1  389.80   24.82
   0  -8   1  407.17   23.57
  -1   8  -1   15.05    3.25
  -1   8  -1   11.38    3.02
   1  -8   1    8.79    3.09
   1  -8   1   13.71    3.02
  -2   8  -1   99.92    7.10
  -2   8  -1   80.37   10.29
   2  -8   1  113.65    7.89
   2  -8   1   93.15    7.00
  -4  -7   1   17.44    4.31
  -4  -7   1   20.13    2.61
  -4  -7   1   19.21    2.67
   3   7  -1    5.43    1.30
   3   7  -1    7.45    1.83
   3   7  -1    6.34    1.36
  -3  -7   1    5.91    3.44
  -3  -7   1    8.15    4.40
  -3  -7   1    9.94    2.52
  -3  -7   1    1.92    2.34
  -3  -7   1   12.32    2.80
  -3  -7   1    8.82    2.60
   2   7  -1  911.29   53.38
   2   7  -1  983.41   51.47
   2   7  -1 1009.88   51.92
   2   7  -1 1010.28   52.24
   2   7  -1 1002.94   53.01
  -2  -7   1 1055.98   53.34
  -2  -7   1 1004.76   53.33
  -2  -7   1  945.91   51.66
  -2  -7   1  980.22   59.41
  -2  -7   1 1038.40   55.18
  -2  -7   1 1130.27   55.41
  -2  -7   1  935.15   56.90
   1   7  -1  207.92   13.43
   1   7  -1  214.30   12.29
   1   7  -1  192.82   12.51
   1   7  -1  191.56   13.99
   1   7  -1  216.06   12.90
  -1  -7   1  223.84   13.67
  -1  -7   1  210.62   13.28
  -1  -7   1  193.72   15.18
  -1  -7   1  217.29   20.26
   0   7  -1   41.62    4.24
   0   7  -1   40.71    4.88
   0   7  -1   35.46    4.06
   0   7  -1   42.56    3.83
   0   7  -1   36.93    5.13
   0   7  -1   40.36    4.71
   0  -7   1   36.78    5.25
   0  -7   1   30.07    4.82
   0  -7   1   28.87    7.91
   0  -7   1   35.92    4.47
  -1   7  -1 1051.11   59.84
  -1   7  -1 1170.64   60.76
  -1   7  -1 1154.57   62.18
   1  -7   1 1146.13   60.08
   1  -7   1 1068.82   60.57
   1  -7   1 1129.51   57.94
  -2   7  -1    2.26    3.81
  -2   7  -1    4.66    1.90
   2  -7   1    5.72    1.60
   2  -7   1    6.84    2.85
   2  -7   1    5.58    2.26
   2  -7   1    4.14    1.34
  -4  -6   1  134.66    9.37
  -4  -6   1  150.25   10.63
  -4  -6   1  185.63   13.86
  -4  -6   1  158.82   14.29
   3   6  -1   84.88    6.50
   3   6  -1   80.33    5.67
   3   6  -1   86.22    5.68
  -3  -6   1   91.99    8.06
   2   6  -1   67.68    6.06
   2   6  -1   69.27    4.93
   2   6  -1   64.71    4.73
   2   6  -1   70.15    5.61
  -2  -6   1   65.64    5.04
  -2  -6   1   69.39    6.16
  -2  -6   1   67.08    6.14
  -2  -6   1   71.30    8.24
  -2  -6   1   72.30    7.24
   1   6  -1  689.54   37.27
   1   6  -1  708.55   37.33
   1   6  -1  643.95   38.49
   1   6  -1  727.09   37.80
   1   6  -1  717.82   39.43
   1   6  -1  735.40   36.73
  -1  -6   1  674.41   39.91
  -1  -6   1  692.90   37.80
  -1  -6   1  770.77   39.44
  -1  -6   1  697.14   37.84
  -1  -6   1  718.25   43.87
   0   6  -1   69.12    5.10
   0   6  -1   64.38    4.68
   0   6  -1   57.12    6.14
   0   6  -1   67.96    5.21
   0   6  -1   55.76    5.62
   0   6  -1   57.95    4.56
   0   6  -1   55.54    5.13
   0  -6   1   48.27    4.70
   0  -6   1   55.90    6.15
   0  -6   1   56.94    9.79
   0  -6   1   62.82    5.84
   0  -6   1   60.93    5.55
  -1   6  -1  438.48   23.65
  -1   6  -1  426.87   25.45
  -1   6  -1  444.91   26.97
  -1   6  -1  452.02   26.07
   1  -6   1  413.93   24.13
   1  -6   1  410.40   26.23
   1  -6   1  416.02   23.68
   1  -6   1  426.40   23.92
   1  -6   1  480.64   37.05
   1  -6   1  437.79   23.83
  -2   6  -1  564.08   35.44
  -2   6  -1  592.43   36.10
   2  -6   1  581.39   31.34
   2  -6   1  527.74   31.38
   2  -6   1  661.30   39.05
   2  -6   1  564.45   31.20
   2  -6   1  603.09   33.25
  -3   6  -1  164.01    9.31
  -3   6  -1  132.30   14.81
   3  -6   1  154.16    9.33
   3  -6   1  159.94    9.81
   3  -6   1  159.87   10.69
  -4  -5   1    6.04    2.04
  -4  -5   1    4.31    2.95
  -4  -5   1    4.36    2.71
  -4  -5   1    5.79    4.93
  -4  -5   1    2.11    1.33
   3   5  -1  793.12   42.35
   3   5  -1  821.53   41.69
   3   5  -1  760.16   41.58
  -3  -5   1  813.78   46.13
  -3  -5   1  798.27   43.70
  -3  -5   1  900.66   54.84
  -3  -5   1  795.46   43.67
   2   5  -1    1.20    0.80
   2   5  -1    0.53    0.63
   2   5  -1   -1.58    0.75
  -2  -5   1   -1.27    1.38
  -2  -5   1   -0.29    1.17
  -2  -5   1   -3.99    2.29
  -2  -5   1   -1.05    2.02
  -2  -5   1    0.87    1.73
  -2  -5   1    0.13    1.39
  -2  -5   1    0.79    2.03
  -2  -5   1    2.02    1.18
   1   5  -1  285.49   15.96
   1   5  -1  283.06   15.27
   1   5  -1  295.96   15.45
   1   5  -1  280.58   15.72
  -1  -5   1  273.91   17.81
   0   5  -1 2778.40  137.13
   0   5  -1 2600.31  136.63
   0   5  -1 2812.69  136.74
   0  -5   1 2469.39  136.08
   0  -5   1 2575.37  137.71
   0  -5   1 2823.07  136.47
   0  -5   1 2934.57  145.62
  -1   5  -1   81.90    6.80
  -1   5  -1   95.15    7.18
  -1   5  -1   96.00    8.10
  -1   5  -1   85.29    6.19
   1  -5   1   79.54    5.99
   1  -5   1   85.90    6.63
   1  -5   1   77.88    7.62
   1  -5   1   88.46    7.54
   1  -5   1   79.86    6.42
   1  -5   1   74.21    7.55
   1  -5   1   89.99    6.28
   1  -5   1   97.74   13.43
   1  -5   1   90.12    6.18
  -2   5  -1    2.58    3.36
  -2   5  -1    9.70    2.98
  -2   5  -1    4.04    2.82
  -2   5  -1    9.20    2.02
  -2   5  -1    8.73    5.33
  -2   5  -1    3.55    2.43
  -2   5  -1    9.17    2.51
  -2   5  -1    9.50    2.16
   2  -5   1    7.71    2.09
   2  -5   1    8.63    2.05
   2  -5   1    8.85    2.00
   2  -5   1   16.38    4.02
   2  -5   1    7.95    6.38
   2  -5   1    6.93    1.71
  -3   5  -1    0.41    2.81
  -3   5  -1   -2.75    2.39
  -3   5  -1   -0.60    1.90
  -3   5  -1   -1.46    0.57
  -3   5  -1    0.56    0.79
   3  -5   1   -2.25    1.33
   3  -5   1   -0.59    0.69
   3  -5   1    0.32    1.07
  -4  -4   1   40.30    7.61
  -4  -4   1   39.90    4.78
  -4  -4   1   32.43    4.37
  -4  -4   1   40.95    7.42
   3   4  -1   81.67    5.06
   3   4  -1   68.47    8.87
   3   4  -1   75.30    5.90
  -3  -4   1   91.42   12.22
  -3  -4   1   80.16   12.13
  -3  -4   1   71.72    6.68
  -3  -4   1   78.50    6.72
  -3  -4   1   80.17    8.34
  -3  -4   1   79.96    7.77
   2   4  -1 3123.22  151.80
   2   4  -1 2889.66  154.15
   2   4  -1 3096.34  152.66
  -2  -4   1 2831.62  154.05
  -2  -4   1 3113.66  163.48
  -2  -4   1 2944.40  155.70
  -2  -4   1 3245.60  156.66
  -2  -4   1 3161.35  162.00
  -2  -4   1 2910.73  153.51
   1   4  -1   34.22    2.86
   1   4  -1   31.45    2.64
   1   4  -1   24.21    3.95
   1   4  -1   31.29    2.58
  -1  -4   1   31.77    3.81
   0   4  -1  696.38   36.00
   0   4  -1  729.06   35.83
   0   4  -1  675.28   35.42
   0  -4   1  718.49   35.60
   0  -4   1  683.06   36.52
   0  -4   1  658.50   35.54
  -1   4  -1   71.82    6.22
  -1   4  -1   69.37    5.30
  -1   4  -1   79.45    6.59
   1  -4   1   74.46    4.98
   1  -4   1   66.85    6.23
   1  -4   1   72.75    5.29
   1  -4   1   73.03    5.14
   1  -4   1   75.76   10.95
   1  -4   1   68.12    4.91
  -2   4  -1   26.20    3.40
  -2   4  -1   28.33    3.93
  -2   4  -1   18.95    4.94
  -2   4  -1   23.03    4.52
  -2   4  -1   22.23    6.42
  -2   4  -1   18.00    3.86
   2  -4   1   25.96    3.12
   2  -4   1   22.97    2.68
   2  -4   1   22.94    4.81
   2  -4   1   23.22    3.88
   2  -4   1   20.88    3.65
   2  -4   1   26.91    3.34
   2  -4   1   21.75    7.96
  -3   4  -1   48.91   11.75
  -3   4  -1   54.87    5.04
  -3   4  -1   43.37    6.40
  -3   4  -1   46.57    4.35
  -3   4  -1   50.89    8.66
  -3   4  -1   57.22    5.01
   3  -4   1   51.64    4.81
   3  -4   1   55.64    6.34
   3  -4   1   48.78    5.12
   3  -4   1   49.84    4.61
   4   3  -1   12.11    1.95
  -4  -3   1   13.05    3.25
  -4  -3   1   17.54    5.61
  -4  -3   1   11.37    4.52
  -4  -3   1   17.19    4.76
  -4  -3   1   14.66    3.25
   3   3  -1   62.62    7.66
   3   3  -1   66.41    4.38
   3   3  -1   69.79    4.33
  -3  -3   1   60.96    7.34
  -3  -3   1   66.89    5.80
  -3  -3   1   62.11    7.22
  -3  -3   1   70.56   11.23
  -3  -3   1   60.20    7.08
  -3  -3   1   51.17    8.96
  -3  -3   1   65.74   11.49
   2   3  -1  528.59   27.46
   2   3  -1  530.36   27.72
   2   3  -1  542.23   28.10
   2   3  -1  562.28   27.90
  -2  -3   1  598.87   31.66
  -2  -3   1  486.16   29.92
   1   3  -1  898.99   46.32
   1   3  -1  996.08   50.67
   1   3  -1  888.03   46.33
   1   3  -1  936.34   46.01
   1   3  -1  914.58   46.28
  -1  -3   1  889.90   46.26
  -1  -3   1  872.18   47.96
   0   3  -1  983.77   48.54
   0   3  -1  998.85   48.97
   0  -3   1  892.42   48.69
   0  -3   1 1004.81   48.68
   0  -3   1  932.47   49.23
  -1   3  -1  996.79   47.05
  -1   3  -1  943.48   47.96
  -1   3  -1  961.77   49.21
  -1   3  -1  917.75   49.58
   1  -3   1  977.64   47.80
   1  -3   1  929.79   49.01
   1  -3   1  846.32   57.47
   1  -3   1  916.79   47.58
  -2   3  -1   55.14    4.39
  -2   3  -1   64.27    6.22
  -2   3  -1   53.95    4.90
  -2   3  -1   43.43    6.47
  -2   3  -1   49.40    4.93
  -2   3  -1   58.50    6.79
   2  -3   1   55.66    4.67
   2  -3   1   51.56    4.12
   2  -3   1   53.30    5.24
   2  -3   1   49.18    5.22
   2  -3   1   52.24    6.44
  -3   3  -1   58.94    5.58
  -3   3  -1   62.26    5.00
  -3   3  -1   54.86    7.63
  -3   3  -1   62.21    5.25
  -3   3  -1   48.50    9.44
  -3   3  -1   52.23   12.40
  -3   3  -1   55.40    8.07
   3  -3   1   66.70    5.82
   3  -3   1   61.06    5.37
   3  -3   1   54.68    7.19
   3  -3   1   54.89    4.54
   3  -3   1   60.91    5.25
  -4   3  -1    2.14    1.89
  -4   3  -1    1.69    2.42
  -4   3  -1    1.23    0.78
  -4   3  -1    2.46    1.52
   4  -3   1    0.85    1.04
   4  -3   1    1.25    0.91
   4   2  -1   59.20    4.90
  -4  -2   1   74.54   11.45
  -4  -2   1   66.28    5.16
  -4  -2   1   69.30    9.82
  -4  -2   1   67.46   10.55
  -4  -2   1   73.98    7.78
   3   2  -1   92.28    6.00
   3   2  -1  104.27    6.11
   3   2  -1   91.52    8.83
  -3  -2   1  107.88   14.31
  -3  -2   1   85.04   12.12
  -3  -2   1   95.82    7.33
  -3  -2   1  102.71   14.02
  -3  -2   1   87.68    7.14
  -3  -2   1   99.95   10.21
  -3  -2   1   98.03    9.58
   2   2  -1   11.71    1.22
   2   2  -1   12.35    1.30
   2   2  -1   10.20    1.27
  -2  -2   1   12.54    3.11
  -2  -2   1   11.82    3.06
  -2  -2   1   11.15    1.56
   1   2  -1  607.93   29.31
   1   2  -1  593.76   29.20
   1   2  -1  488.57   33.96
  -1  -2   1  598.54   29.40
  -1  -2   1  550.85   30.27
  -1  -2   1  633.89   31.07
   0   2  -1  248.52   12.41
   0   2  -1  252.83   12.69
   0   2  -1  229.67   14.28
   0   2  -1  211.88   15.61
   0  -2   1  236.35   12.39
   0  -2   1  234.60   12.61
   0  -2   1  266.72   12.54
   0  -2   1  243.42   12.84
  -1   2  -1  162.20   10.11
  -1   2  -1  178.11    8.52
  -1   2  -1  174.78    9.19
  -1   2  -1  152.20   11.12
   1  -2   1  162.76    9.28
   1  -2   1  159.68    9.11
   1  -2   1  169.43    9.88
  -2   2  -1 2375.46  114.85
  -2   2  -1 2266.52  114.21
  -2   2  -1 1968.93  117.73
  -2   2  -1 2192.42  115.32
  -2   2  -1 2389.13  119.32
   2  -2   1 2500.76  113.98
   2  -2   1 2343.22  114.23
   2  -2   1 2298.43  113.97
   2  -2   1 1944.09  126.66
   2  -2   1 2311.14  115.25
  -3   2  -1  154.05   14.21
  -3   2  -1  165.87   12.98
  -3   2  -1  155.69   21.04
  -3   2  -1  149.78   17.87
  -3   2  -1  181.31   10.59
  -3   2  -1  164.93   11.67
  -3   2  -1  165.68   14.74
   3  -2   1  172.31   10.58
   3  -2   1  160.60   10.03
   3  -2   1  190.84   13.44
   3  -2   1  173.43   10.73
   3  -2   1  169.90   11.43
  -4   2  -1   96.99    8.74
  -4   2  -1   91.66    6.72
  -4   2  -1   89.27   13.89
  -4   2  -1   91.93   10.83
   4  -2   1   91.64    6.96
   4  -2   1   92.62    7.67
   4  -2   1   96.26    6.36
   4   1  -1  112.39    7.84
  -4  -1   1  112.38    7.80
  -4  -1   1  104.92   12.94
  -4  -1   1  109.04   14.65
  -4  -1   1  120.71   14.22
  -4  -1   1  115.17   10.41
   3   1  -1  343.36   21.66
   3   1  -1  391.11   20.34
   3   1  -1  421.58   20.42
   3   1  -1  380.50   23.48
  -3  -1   1  344.92   29.19
  -3  -1   1  387.25   23.73
  -3  -1   1  394.60   32.46
  -3  -1   1  400.11   26.19
  -3  -1   1  357.56   31.30
  -3  -1   1  355.73   24.58
   2   1  -1    1.36    1.04
   2   1  -1    1.36    0.89
   2   1  -1    2.10    0.64
   2   1  -1    1.41    0.37
   2   1  -1    1.72    0.63
  -2  -1   1    0.93    1.46
   1   1  -1  132.71    7.42
   1   1  -1  145.70    7.53
   1   1  -1  149.55    7.50
  -1  -1   1  159.26    9.00
  -1  -1   1  139.90    7.68
  -1  -1   1  136.60    8.92
  -1  -1   1  140.20    7.52
   0   1  -1   46.81    2.58
   0   1  -1   46.65    2.73
   0   1  -1   48.77    4.54
   0   1  -1   50.90    2.77
   0   1  -1   44.41    2.73
   0   1  -1   43.42    3.02
   0  -1   1   51.09    2.72
   0  -1   1   45.81    2.57
   0  -1   1   44.41    2.75
   0  -1   1   43.48    2.93
  -1   1  -1  109.92    6.71
  -1   1  -1  103.24    6.82
  -1   1  -1   97.13    7.24
   1  -1   1   98.47    5.99
   1  -1   1  104.87    5.76
   1  -1   1  106.32    6.28
  -2   1  -1 1310.99   67.29
  -2   1  -1 1257.50   69.32
   2  -1   1 1288.69   65.63
   2  -1   1 1313.08   66.81
   2  -1   1 1304.00   65.52
  -3   1  -1   41.86    5.45
  -3   1  -1   40.89    6.81
  -3   1  -1   35.12    6.20
  -3   1  -1   35.87   10.22
  -3   1  -1   34.33    8.38
  -3   1  -1   39.29    4.65
  -3   1  -1   41.21    3.93
  -3   1  -1   35.30    9.29
   3  -1   1   40.00    3.86
   3  -1   1   44.00    4.05
   3  -1   1   35.58    4.89
   3  -1   1   45.61    3.85
   3  -1   1   32.31   10.73
  -4   1  -1   31.05    3.57
  -4   1  -1   31.89    5.08
  -4   1  -1   28.38    2.90
  -4   1  -1   33.40    7.05
  -4   1  -1   33.50    8.79
   4  -1   1   34.87    4.40
   4  -1   1   35.78    3.75
   4  -1   1   36.55    3.52
   4   0  -1   16.28    2.71
   4   0  -1   17.59    3.37
   4   0  -1   19.69    2.84
  -4   0   1   18.32    5.41
  -4   0   1   21.12    7.89
  -4   0   1   22.98    4.59
  -4   0   1   19.91    2.74
  -4   0   1   19.61    6.16
   3   0  -1  631.03   34.53
   3   0  -1  616.79   31.75
   3   0  -1  606.28   31.40
   3   0  -1  647.46   31.52
  -3   0   1  561.24   43.92
  -3   0   1  577.83   36.16
  -3   0   1  611.03   37.75
  -3   0   1  557.10   31.31
  -3   0   1  589.77   43.45
  -3   0   1  549.88   41.20
  -3   0   1  608.19   33.06
   2   0  -1   69.53    5.88
   2   0  -1   66.03    4.27
   2   0  -1   70.91    4.46
   2   0  -1   67.18    4.62
  -2   0   1   66.59    4.84
  -2   0   1   64.65    7.05
   1   0  -1   32.77    1.85
   1   0  -1   31.80    2.97
   1   0  -1   32.34    2.13
   1   0  -1   30.13    2.04
  -1   0   1   30.40    2.30
  -1   0   1   33.41    3.57
  -1   0   1   32.02    1.81
   0   0  -1   17.25    1.07
   0   0  -1   19.00    1.16
   0   0  -1   17.59    1.12
   0   0  -1   16.31    1.14
   0   0   1   20.24    1.18
   0   0   1   19.71    1.13
   0   0   1   17.07    1.16
   0   0   1   19.73    2.31
   0   0   1   18.74    1.08
  -2   0  -1  577.10   31.34
  -2   0  -1  577.10   33.39
   2   0   1  583.90   31.21
   2   0   1  569.47   29.70
   2   0   1  598.41   29.76
   2   0   1  586.65   30.25
  -3   0  -1   90.53    7.57
  -3   0  -1   80.67   17.18
  -3   0  -1   72.74   13.36
  -3   0  -1   73.02   12.02
  -3   0  -1   95.33   10.05
  -3   0  -1   84.33    7.25
  -3   0  -1   86.95    6.15
  -3   0  -1   80.22    9.35
   3   0   1   72.35   14.32
   3   0   1   87.46    5.37
   3   0   1   89.26    5.80
   3   0   1   89.44    6.31
   3   0   1   81.19    7.06
  -4   0  -1   38.80    8.02
  -4   0  -1   42.88    6.28
  -4   0  -1   37.96    4.13
  -4   0  -1   45.08    9.61
   4   0   1   45.58    4.62
   4   0   1   35.50    3.77
   4  -1  -1  150.14    9.79
   4  -1  -1  160.38    9.68
   4  -1  -1  162.56   10.38
  -4   1   1  152.70   17.51
  -4   1   1  168.85   10.29
  -4   1   1  158.23   15.34
  -4   1   1  150.91   15.30
  -4   1   1  163.57   12.47
   3  -1  -1   25.01    4.49
   3  -1  -1   22.45    3.31
   3  -1  -1   22.58    2.77
   3  -1  -1   23.00    2.93
  -3   1   1   22.60    8.79
  -3   1   1   18.95    5.04
  -3   1   1   22.51    3.29
  -3   1   1   20.73    6.52
  -3   1   1   28.30    6.99
  -3   1   1   21.88    2.67
  -3   1   1   22.46    8.46
   2  -1  -1   59.40    4.86
   2  -1  -1   56.82    4.05
   2  -1  -1   59.67    5.37
   2  -1  -1   59.25    4.16
  -2   1   1   53.88    6.61
  -2   1   1   58.69    4.79
  -1  -1  -1   39.56    3.09
  -1  -1  -1   40.74    3.46
  -1  -1  -1   43.71    3.73
  -2  -1  -1   57.67    5.17
  -2  -1  -1   47.73    5.47
  -2  -1  -1   46.41    4.20
   2   1   1   51.65    3.00
   2   1   1   52.32    3.00
   2   1   1   46.52    4.37
   2   1   1   50.39    2.95
  -3  -1  -1   20.24    7.38
  -3  -1  -1   23.14    4.98
  -3  -1  -1   22.97    8.53
  -3  -1  -1   20.89    3.37
  -3  -1  -1   17.47    4.87
  -3  -1  -1   23.08    2.93
  -3  -1  -1   23.97    7.43
  -3  -1  -1   22.06    3.79
   3   1   1   16.54    7.88
   3   1   1   17.65    3.44
   3   1   1   19.79    1.77
  -4  -1  -1  220.66   16.31
  -4  -1  -1  204.37   20.10
  -4  -1  -1  225.76   21.81
  -4  -1  -1  198.41   13.24
   4   1   1  221.49   12.26
   4  -2  -1  162.10    9.77
   4  -2  -1  158.86    9.97
   4  -2  -1  146.88    9.48
  -4   2   1  171.98   11.93
  -4   2   1  158.55   10.04
  -4   2   1  171.54   14.94
  -4   2   1  146.24   16.53
   3  -2  -1   44.17    5.25
   3  -2  -1   52.86    4.81
   3  -2  -1   52.92    4.62
   3  -2  -1   50.30    4.35
   3  -2  -1   49.22    7.08
  -3   2   1   49.44    9.52
  -3   2   1   50.56   11.30
  -3   2   1   49.98    4.35
  -3   2   1   54.72    5.31
  -3   2   1   62.70    4.85
  -3   2   1   48.35    7.83
  -3   2   1   51.22   11.21
  -3   2   1   47.55    6.76
   2  -2  -1    7.45    1.58
   2  -2  -1    8.10    1.47
   2  -2  -1    9.25    1.70
   2  -2  -1    6.33    1.64
  -2   2   1    7.77    1.62
  -2   2   1   13.57    2.60
  -2   2   1    8.10    3.33
  -2   2   1    8.24    2.02
  -2   2   1   13.33    2.77
  -2   2   1   10.63    5.86
  -2   2   1    8.02    4.52
   1  -2  -1 1831.66   92.55
   1  -2  -1 1708.18   92.42
  -1   2   1 1837.80   94.66
  -1   2   1 1981.97   91.84
   0  -2  -1    3.66    0.95
   0  -2  -1    5.53    1.15
   0   2   1    5.14    0.92
  -1  -2  -1  146.82    8.46
  -1  -2  -1  147.97    8.99
  -1  -2  -1  132.21    8.08
   1   2   1  141.28    7.18
   1   2   1  133.56    7.21
   1   2   1  144.87    7.65
  -2  -2  -1   13.06    2.25
  -2  -2  -1   11.38    2.85
  -2  -2  -1    7.61    2.31
   2   2   1   11.70    1.27
  -3  -2  -1   23.17    2.92
  -3  -2  -1   25.89    4.26
  -3  -2  -1   15.69    6.88
  -3  -2  -1   20.25    5.22
  -3  -2  -1   17.00    4.86
  -3  -2  -1   27.22    7.56
  -3  -2  -1   22.86    3.43
  -3  -2  -1   22.80    3.42
  -3  -2  -1   22.74    4.61
   3   2   1   20.76    7.38
   3   2   1   19.82    1.50
  -4  -2  -1  104.77    9.76
  -4  -2  -1  122.70   12.50
  -4  -2  -1   99.31    7.55
  -4  -2  -1  117.44   14.21
  -4  -2  -1   93.17   12.40
   4  -3  -1   79.94    5.69
   4  -3  -1   81.88    5.87
  -4   3   1   95.68    8.92
  -4   3   1   83.16    6.64
  -4   3   1   85.63    5.76
  -4   3   1   74.51    9.92
   3  -3  -1  381.06   21.48
   3  -3  -1  377.24   20.93
   3  -3  -1  388.91   21.14
   3  -3  -1  397.97   23.42
   3  -3  -1  347.84   20.48
  -3   3   1  419.52   21.94
  -3   3   1  352.28   26.01
  -3   3   1  352.38   28.75
  -3   3   1  352.21   20.33
  -3   3   1  415.45   21.43
  -3   3   1  339.46   23.84
  -3   3   1  322.95   30.69
  -3   3   1  328.36   31.91
   2  -3  -1 1027.65   54.45
   2  -3  -1 1058.15   54.16
   2  -3  -1  967.07   52.64
   2  -3  -1 1011.73   52.11
   2  -3  -1 1036.01   52.02
  -2   3   1 1054.96   53.17
  -2   3   1 1054.93   56.87
  -2   3   1 1053.08   53.03
  -2   3   1 1162.96   60.69
  -2   3   1  836.73   54.80
  -2   3   1  867.22   62.69
  -2   3   1  974.02   51.81
   1  -3  -1    0.50    0.56
   0  -3  -1  542.51   31.81
   0  -3  -1  577.77   29.88
   0  -3  -1  585.71   30.43
   0  -3  -1  604.63   29.09
   0   3   1  587.42   29.18
   0   3   1  558.19   29.24
   0   3   1  525.06   29.40
   0   3   1  562.13   28.86
  -1  -3  -1  127.36    8.72
   1   3   1  126.43    7.01
   1   3   1  126.51    6.97
   1   3   1  127.36    7.19
  -2  -3  -1  143.28    9.53
  -2  -3  -1  149.74   10.41
  -2  -3  -1  155.44   11.49
   2   3   1  151.90    8.00
   2   3   1  160.13    8.86
   2   3   1  156.56    8.13
  -3  -3  -1   38.37    8.38
  -3  -3  -1   26.82    3.59
  -3  -3  -1   16.30    3.36
  -3  -3  -1   30.13    5.01
  -3  -3  -1   29.18    4.54
  -3  -3  -1   28.10    4.99
  -3  -3  -1   27.41    7.31
  -3  -3  -1   18.47    6.57
  -4  -3  -1    8.12    2.95
  -4  -3  -1    7.80    3.76
  -4  -3  -1    8.76    4.08
  -4  -3  -1    6.31    3.37
   3  -4  -1   85.33    6.44
   3  -4  -1   82.95    8.23
   3  -4  -1   80.47    6.25
   3  -4  -1   82.95    6.79
  -3   4   1   86.91   10.96
  -3   4   1   94.09    6.87
  -3   4   1   90.18    6.80
  -3   4   1   67.41   12.62
  -3   4   1   75.74    7.90
   2  -4  -1  278.35   17.74
   2  -4  -1  271.82   16.27
   2  -4  -1  253.94   15.14
   2  -4  -1  236.76   27.04
   2  -4  -1  269.58   17.58
   2  -4  -1  275.08   15.24
   2  -4  -1  266.70   15.31
  -2   4   1  273.06   18.93
  -2   4   1  305.82   16.51
  -2   4   1  237.73   24.55
  -2   4   1  226.08   17.57
  -2   4   1  240.61   18.62
  -2   4   1  289.77   18.60
  -2   4   1  242.79   21.31
   1  -4  -1   54.37    4.52
   1  -4  -1   53.90    4.32
   1  -4  -1   47.54    8.66
   1  -4  -1   57.61    4.27
   1  -4  -1   61.97    5.63
   1  -4  -1   54.27    4.16
  -1   4   1   60.06    3.57
  -1   4   1   59.50    4.61
  -1   4   1   58.45    4.73
  -1   4   1   56.23    5.74
  -1   4   1   55.27    4.44
   0  -4  -1 1077.01   53.61
   0  -4  -1 1088.48   54.93
   0   4   1 1050.68   54.01
   0   4   1  997.91   53.73
   0   4   1 1068.86   53.47
  -1  -4  -1 1089.57   55.69
   1   4   1 1079.81   53.45
   1   4   1 1048.09   53.01
   1   4   1  984.35   53.33
  -2  -4  -1   43.60    5.21
  -2  -4  -1   48.00    6.36
  -2  -4  -1   41.82    5.64
   2   4   1   43.38    3.04
   2   4   1   39.80    3.04
   2   4   1   42.38    3.58
   2   4   1   40.34    2.68
  -3  -4  -1  184.78   11.83
  -3  -4  -1  214.81   19.86
  -3  -4  -1  171.26   12.54
  -3  -4  -1  213.46   16.28
  -3  -4  -1  164.18   13.06
  -3  -4  -1  182.52   18.06
  -3  -4  -1  195.20   13.82
  -3  -4  -1  171.51   11.70
   3   4   1  152.53   13.41
  -4  -4  -1    4.51    2.49
  -4  -4  -1    6.89    3.18
  -4  -4  -1    6.63    3.48
   3  -5  -1    3.08    2.13
   3  -5  -1   -1.25    1.35
   3  -5  -1    0.43    0.96
   3  -5  -1    2.78    1.49
  -3   5   1    2.04    1.12
  -3   5   1    1.20    1.87
  -3   5   1    0.70    2.18
  -3   5   1   -0.14    3.17
  -3   5   1    1.89    1.02
  -3   5   1    1.12    2.95
   2  -5  -1  216.07   13.38
   2  -5  -1  188.61   24.77
   2  -5  -1  221.63   15.41
   2  -5  -1  218.76   12.97
   2  -5  -1  225.66   12.81
   2  -5  -1  240.95   14.99
   2  -5  -1  231.59   19.13
   2  -5  -1  200.59   12.74
  -2   5   1  225.07   14.29
  -2   5   1  173.30   14.46
  -2   5   1  183.96   21.53
  -2   5   1  192.21   16.70
  -2   5   1  216.16   18.26
  -2   5   1  215.90   16.59
   1  -5  -1   62.79    6.87
   1  -5  -1   70.21    5.20
   1  -5  -1   67.62    6.16
   1  -5  -1   64.24    4.96
   1  -5  -1   70.00    5.10
   1  -5  -1   61.38    6.54
   1  -5  -1   65.15   10.86
   1  -5  -1   61.17    5.48
   1  -5  -1   72.00    5.55
  -1   5   1   69.12    6.65
  -1   5   1   66.02    6.03
  -1   5   1   70.53    5.26
  -1   5   1   62.06    6.21
  -1   5   1   76.38    5.59
   0  -5  -1  595.44   32.05
   0  -5  -1  539.55   27.76
   0  -5  -1  481.00   29.12
   0   5   1  489.55   27.65
   0   5   1  533.70   28.10
   0   5   1  550.75   27.85
   0   5   1  504.58   28.30
  -1  -5  -1  226.42   14.80
   1   5   1  203.08   11.80
   1   5   1  220.04   12.49
   1   5   1  218.32   12.35
   1   5   1  216.20   12.01
  -2  -5  -1  363.31   24.12
  -2  -5  -1  366.63   21.20
  -2  -5  -1  387.20   22.90
  -2  -5  -1  385.07   22.69
  -2  -5  -1  371.37   21.19
   2   5   1  368.87   19.42
   2   5   1  366.31   20.00
   2   5   1  375.17   20.65
   2   5   1  347.46   19.42
  -3  -5  -1  624.59   33.83
  -3  -5  -1  577.79   34.83
  -3  -5  -1  675.69   36.27
  -3  -5  -1  610.11   38.84
  -3  -5  -1  636.74   33.88
   3   5   1  593.35   31.62
   3   5   1  595.00   31.64
  -4  -5  -1   60.63    8.64
  -4  -5  -1   50.35    4.31
  -4  -5  -1   53.56    5.36
   3  -6  -1  135.29    9.65
   3  -6  -1  127.17    8.04
   3  -6  -1  139.93    8.23
  -3   6   1  143.62    8.46
  -3   6   1  114.27   12.53
   2  -6  -1   12.35    2.29
   2  -6  -1    7.28    2.19
   2  -6  -1    6.47    2.81
   2  -6  -1    5.76    1.61
  -2   6   1   -0.46    2.13
  -2   6   1    5.63    4.30
  -2   6   1    4.65    4.24
   1  -6  -1   60.36   10.18
   1  -6  -1   42.54    3.95
   1  -6  -1   44.74    5.76
   1  -6  -1   48.10    4.28
   1  -6  -1   38.72   10.46
   1  -6  -1   39.46    4.72
   1  -6  -1   39.41    5.96
   1  -6  -1   44.27    4.37
   1  -6  -1   41.79    4.09
  -1   6   1   42.19    5.55
  -1   6   1   52.87    4.84
  -1   6   1   41.08    4.83
  -1   6   1   50.98    6.23
   0  -6  -1  440.27   24.38
   0  -6  -1  397.85   24.68
   0  -6  -1  428.75   25.16
   0  -6  -1  379.73   24.81
   0  -6  -1  399.99   32.13
   0  -6  -1  418.38   25.13
   0   6   1  450.43   23.18
   0   6   1  381.01   24.34
   0   6   1  448.97   24.03
   0   6   1  450.63   23.11
   0   6   1  438.04   23.57
   0   6   1  471.48   23.66
   0   6   1  425.73   25.05
  -1  -6  -1  647.36   35.18
  -1  -6  -1  661.38   37.96
  -1  -6  -1  752.59   37.21
  -1  -6  -1  639.27   35.31
  -1  -6  -1  634.99   35.11
  -1  -6  -1  763.60   44.70
  -1  -6  -1  573.21   39.67
   1   6   1  659.63   34.84
   1   6   1  665.13   34.18
   1   6   1  579.80   35.69
   1   6   1  650.65   35.09
  -2  -6  -1  208.66   16.72
  -2  -6  -1  228.55   15.41
  -2  -6  -1  222.33   13.71
  -2  -6  -1  215.40   13.82
  -2  -6  -1  237.12   15.41
  -2  -6  -1  189.10   13.78
   2   6   1  202.73   11.94
   2   6   1  214.20   12.88
  -3  -6  -1    1.61    3.27
  -3  -6  -1    2.51    2.46
  -3  -6  -1   -0.34    1.96
   3   6   1    0.23    1.11
   3   6   1    1.87    1.29
  -4  -6  -1  134.96    8.67
  -4  -6  -1  142.16    9.78
  -4  -6  -1  152.93   13.35
   2  -7  -1  217.04   14.78
   2  -7  -1  207.72   14.52
   2  -7  -1  213.98   12.03
   2  -7  -1  213.72   12.29
  -2   7   1  220.43   13.84
  -2   7   1  181.83   18.97
   1  -7  -1  400.54   24.93
   1  -7  -1  416.12   24.30
   1  -7  -1  411.21   21.95
  -1   7   1  397.67   24.67
  -1   7   1  389.32   25.61
  -1   7   1  395.61   24.11
   0  -7  -1  412.70   25.87
   0  -7  -1  369.82   32.51
   0  -7  -1  455.73   25.01
   0  -7  -1  408.65   25.09
   0   7   1  394.49   25.86
   0   7   1  445.03   25.88
   0   7   1  421.91   24.56
   0   7   1  447.16   23.44
   0   7   1  446.69   23.96
   0   7   1  450.91   24.09
  -1  -7  -1   33.24    8.11
  -1  -7  -1   26.45    4.35
  -1  -7  -1   33.71    3.78
  -1  -7  -1   34.96    4.11
  -1  -7  -1   34.05    5.46
  -1  -7  -1   40.73    6.13
   1   7   1   30.13    3.82
   1   7   1   35.29    3.64
   1   7   1   31.84    3.23
   1   7   1   30.81    3.75
   1   7   1   21.43    5.25
  -2  -7  -1  586.45   31.47
  -2  -7  -1  538.40   29.60
  -2  -7  -1  553.41   31.32
  -2  -7  -1  530.59   29.26
  -2  -7  -1  510.59   33.54
   2   7   1  492.41   27.69
   2   7   1  519.76   28.21
   2   7   1  520.86   29.03
   2   7   1  476.26   28.36
  -3  -7  -1   20.83    3.87
  -3  -7  -1   19.16    6.10
  -3  -7  -1    6.58    3.09
  -3  -7  -1   14.15    2.86
  -3  -7  -1   15.20    2.79
   3   7   1   14.89    2.14
   3   7   1   12.58    1.97
  -4  -7  -1   16.65    2.26
  -4  -7  -1   15.92    2.44
   2  -8  -1  119.21    8.77
   2  -8  -1  136.21    9.54
  -2   8   1  137.07    8.94
   1  -8  -1   14.61    3.32
   1  -8  -1    7.14    2.32
  -1   8   1    7.74    2.29
  -1   8   1   12.25    3.06
   0  -8  -1  706.27   38.39
   0  -8  -1  628.21   40.40
   0  -8  -1  701.65   38.30
   0  -8  -1  699.16   36.84
   0   8   1  694.34   39.47
   0   8   1  690.85   38.61
   0   8   1  703.62   36.83
   0   8   1  678.62   38.67
   0   8   1  722.04   37.32
  -1  -8  -1   -0.92    1.10
  -1  -8  -1   -0.74    0.97
  -1  -8  -1    1.24    2.86
  -1  -8  -1    1.71    2.08
  -1  -8  -1    0.47    1.08
  -1  -8  -1   -1.03    1.10
   1   8   1   -2.27    1.43
   1   8   1   -2.03    1.01
   1   8   1   -1.12    1.29
   1   8   1    1.03    0.97
   1   8   1   -0.21    1.05
  -2  -8  -1    3.38    1.74
  -2  -8  -1   -1.92    1.31
  -2  -8  -1    2.96    1.92
  -2  -8  -1    2.25    4.52
  -2  -8  -1    2.13    1.36
  -2  -8  -1    4.55    2.37
  -2  -8  -1   -0.48    2.07
  -2  -8  -1    2.73    3.29
   2   8   1    2.60    1.09
   2   8   1    2.77    1.46
   2   8   1    2.06    1.79
   2   8   1    6.55    2.24
   2   8   1    2.14    1.36
  -3  -8  -1  682.30   42.44
  -3  -8  -1  605.99   33.89
  -3  -8  -1  645.94   35.04
  -3  -8  -1  676.84   34.07
  -3  -8  -1  691.17   35.84
   3   8   1  610.46   32.95
   3   8   1  570.39   33.26
   3   8   1  597.34   33.21
   1  -9  -1  143.33    9.92
   1  -9  -1  144.20    9.90
  -1   9   1  144.63   10.01
  -1   9   1  153.67   10.49
   0  -9  -1    1.81    1.47
   0   9   1   -1.48    1.60
   0   9   1    0.43    0.96
   0   9   1    0.37    1.22
   0   9   1    3.36    2.36
   0   9   1    0.77    1.47
  -1  -9  -1   82.04    6.32
  -1  -9  -1   64.09   10.98
  -1  -9  -1   74.14    6.02
  -1  -9  -1   68.68    6.69
  -1  -9  -1   77.74    5.46
   1   9   1   74.54    6.30
   1   9   1   76.25    6.18
   1   9   1   79.35    5.87
   1   9   1   83.44    7.59
  -2  -9  -1   11.89    2.20
  -2  -9  -1    7.64    4.22
  -2  -9  -1   10.68    2.49
  -2  -9  -1    5.37    1.82
  -2  -9  -1    8.19    1.93
   2   9   1    7.08    1.58
   2   9   1    8.79    1.92
   2   9   1    6.91    2.52
  -3  -9  -1   30.84    3.58
  -3  -9  -1   22.09    3.11
  -3  -9  -1   31.57    3.01
  -3  -9  -1   32.16    2.90
   3   9   1   32.75    2.73
   3   9   1   33.60    3.03
   1 -10  -1  104.82    6.93
  -1  10   1  118.85    7.12
   0 -10  -1   71.68    5.94
   0 -10  -1   66.90    5.39
   0  10   1   71.11    6.25
   0  10   1   71.00    7.05
  -1 -10  -1  105.39    8.02
  -1 -10  -1   81.51    5.56
  -1 -10  -1   66.73    6.18
  -1 -10  -1   83.19    5.74
   1  10   1   81.04    6.50
   1  10   1   78.97    5.64
   1  10   1   90.92    8.98
   1  10   1   80.16    6.97
  -2 -10  -1   81.19    6.16
  -2 -10  -1   71.42    5.06
  -2 -10  -1   62.77    8.93
  -2 -10  -1   62.88    7.10
  -2 -10  -1   81.38    5.41
   2  10   1   78.56    5.44
   2  10   1   80.85    5.28
   2  10   1   87.32    6.22
   2  10   1   79.61    5.75
   2  10  -2   41.79    3.35
   2  10  -2   44.12    4.37
   2  10  -2   43.05    3.55
  -2 -10   2   31.13    6.74
  -2 -10   2   42.23    3.09
  -2 -10   2   46.29    5.05
  -2 -10   2   43.35    3.66
   1  10  -2   35.08    3.20
   1  10  -2   33.51    3.19
   1  10  -2   31.21    4.13
  -1 -10   2   35.00    4.01
  -1 -10   2   31.95    3.19
  -1 -10   2   28.63    3.11
   0  10  -2    5.18    1.71
   0  10  -2   13.72    2.53
   0 -10   2    9.15    1.93
   3   9  -2    4.08    0.99
   3   9  -2    1.36    1.07
  -3  -9   2    3.06    2.43
  -3  -9   2    5.53    1.33
  -3  -9   2    5.05    1.52
  -3  -9   2    4.42    1.21
   2   9  -2  177.27   10.38
   2   9  -2  165.65   10.63
   2   9  -2  183.78   11.67
  -2  -9   2  173.69   11.22
  -2  -9   2  156.97   16.18
  -2  -9   2  173.08   10.69
  -2  -9   2  170.95   11.77
  -2  -9   2  175.98   12.98
   1   9  -2   49.90    4.55
   1   9  -2   46.09    4.67
  -1  -9   2   35.75    7.63
  -1  -9   2   49.86    4.80
  -1  -9   2   51.01    4.79
   0   9  -2  119.06    9.31
   0   9  -2  124.15    7.86
   0   9  -2  126.77   10.08
   0  -9   2  122.73    9.07
   0  -9   2  122.69    8.23
  -1   9  -2    0.63    1.12
  -1   9  -2    1.18    1.36
   1  -9   2    0.73    1.40
   1  -9   2    0.05    0.96
   3   8  -2   60.03    4.98
   3   8  -2   63.40    5.06
   3   8  -2   68.07    4.85
  -3  -8   2   74.85   10.04
  -3  -8   2   72.96    6.48
  -3  -8   2   63.51    5.43
  -3  -8   2   74.35    6.39
   2   8  -2    5.67    1.82
   2   8  -2    6.11    1.55
   2   8  -2    2.82    2.54
   2   8  -2    6.80    1.43
  -2  -8   2   10.59    3.32
  -2  -8   2    5.57    3.75
  -2  -8   2    5.56    2.05
  -2  -8   2    7.47    2.37
  -2  -8   2    6.94    2.16
  -2  -8   2   10.03    1.83
   1   8  -2  592.30   34.93
   1   8  -2  616.51   34.61
   1   8  -2  629.40   33.32
   1   8  -2  655.61   32.89
  -1  -8   2  581.05   41.83
  -1  -8   2  593.21   34.02
  -1  -8   2  551.80   36.04
  -1  -8   2  667.06   34.24
  -1  -8   2  644.75   34.03
  -1  -8   2  616.25   33.14
   0   8  -2  378.56   20.91
   0   8  -2  386.78   25.55
   0   8  -2  345.57   22.84
   0   8  -2  373.42   20.43
   0  -8   2  371.59   24.34
   0  -8   2  362.39   22.12
  -1   8  -2    0.22    1.05
  -1   8  -2   -1.41    1.39
   1  -8   2   -0.29    1.62
   1  -8   2    0.59    1.22
  -2   8  -2    5.84    1.56
  -2   8  -2    8.09    3.90
   2  -8   2    6.62    2.34
   2  -8   2    8.89    2.28
  -4  -7   2   52.52    4.43
  -4  -7   2   47.39    3.59
  -4  -7   2   49.83    6.56
  -4  -7   2   39.97    6.47
   3   7  -2   29.17    3.71
   3   7  -2   33.29    3.17
  -3  -7   2   44.98    7.83
  -3  -7   2   46.35    8.63
  -3  -7   2   35.34    4.16
  -3  -7   2   38.44    4.50
  -3  -7   2   38.43    5.10
   2   7  -2  999.53   53.00
   2   7  -2  943.04   54.30
   2   7  -2 1000.26   52.31
   2   7  -2 1014.98   53.93
  -2  -7   2 1019.73   54.13
  -2  -7   2 1040.05   61.10
  -2  -7   2 1074.05   56.04
  -2  -7   2 1118.61   56.07
  -2  -7   2 1028.72   54.08
  -2  -7   2  950.31   57.48
  -2  -7   2  991.85   52.72
   1   7  -2 3457.47  168.25
   1   7  -2 3285.80  169.74
   1   7  -2 3471.61  168.85
   1   7  -2 3381.47  168.92
   1   7  -2 3191.47  170.53
  -1  -7   2 3367.47  169.23
  -1  -7   2 3119.30  171.72
  -1  -7   2 3492.68  173.44
  -1  -7   2 3360.90  178.83
  -1  -7   2 3305.47  169.53
   0   7  -2  201.49   13.88
   0   7  -2  185.28   12.87
   0   7  -2  181.61   13.02
   0   7  -2  199.15   11.71
   0   7  -2  198.96   12.15
   0   7  -2  194.43   12.19
   0  -7   2  181.25   13.66
   0  -7   2  203.80   13.14
  -1   7  -2  170.01   13.71
  -1   7  -2  156.41   11.86
  -1   7  -2  181.73   12.74
   1  -7   2  154.86   12.62
   1  -7   2  169.88   10.52
   1  -7   2  160.78   11.89
  -2   7  -2    9.49    2.47
   2  -7   2   11.32    2.12
   2  -7   2   12.82    3.22
   2  -7   2    7.62    2.50
   2  -7   2    4.68    1.86
   2  -7   2   10.89    1.90
  -4  -6   2    1.82    1.25
  -4  -6   2    4.30    3.06
  -4  -6   2    0.58    1.05
  -4  -6   2    1.15    1.71
   3   6  -2  556.06   29.81
   3   6  -2  570.99   29.75
   3   6  -2  547.73   30.92
  -3  -6   2  582.27   33.92
  -3  -6   2  540.62   31.45
  -3  -6   2  604.80   31.98
   2   6  -2   19.12    2.38
   2   6  -2   22.19    2.41
   2   6  -2   18.45    2.77
   2   6  -2   20.55    3.22
   2   6  -2   18.72    4.02
  -2  -6   2   20.59    4.54
  -2  -6   2   16.85    3.59
  -2  -6   2   17.68    4.46
  -2  -6   2   19.74    7.28
  -2  -6   2   22.37    3.95
  -2  -6   2   26.43    6.77
  -2  -6   2   16.39    2.80
   1   6  -2 1193.07   59.91
   1   6  -2 1151.17   59.94
   1   6  -2 1185.14   59.24
   1   6  -2 1198.15   60.50
   1   6  -2 1099.81   61.30
  -1  -6   2 1188.16   67.24
  -1  -6   2 1126.52   60.43
  -1  -6   2 1112.59   62.41
  -1  -6   2 1113.58   60.45
  -1  -6   2 1223.87   61.91
   0   6  -2  580.48   32.37
   0   6  -2  615.99   30.81
   0   6  -2  588.16   31.36
   0   6  -2  596.44   30.70
   0   6  -2  509.26   31.50
   0   6  -2  622.20   30.32
   0  -6   2  540.76   31.98
   0  -6   2  531.43   31.43
   0  -6   2  515.52   38.33
   0  -6   2  584.62   31.78
   0  -6   2  594.25   32.80
  -1   6  -2  304.72   19.63
  -1   6  -2  239.77   19.98
  -1   6  -2  288.39   17.99
   1  -6   2  289.86   16.47
   1  -6   2  282.79   16.47
   1  -6   2  279.27   16.88
   1  -6   2  286.67   19.01
   1  -6   2  323.91   29.75
   1  -6   2  276.10   16.49
   1  -6   2  300.36   18.24
  -2   6  -2  126.34    9.83
  -2   6  -2  136.16   12.34
  -2   6  -2  150.07    8.89
   2  -6   2  127.67    8.83
   2  -6   2  122.01   11.48
   2  -6   2  135.21   10.37
   2  -6   2  125.77    9.18
   2  -6   2  127.27   10.86
   2  -6   2  125.66    8.76
  -3   6  -2   26.17    2.54
  -3   6  -2   24.72    6.44
   3  -6   2   28.36    2.89
   3  -6   2   27.76    4.23
   3  -6   2   26.47    2.71
  -4  -5   2    5.72    3.98
  -4  -5   2    6.09    2.23
  -4  -5   2    5.95    4.51
  -4  -5   2    3.03    1.99
  -4  -5   2    1.71    1.24
   3   5  -2  168.70   10.72
   3   5  -2  158.88    9.80
   3   5  -2  171.31    9.90
  -3  -5   2  154.78   11.37
  -3  -5   2  169.39   11.57
  -3  -5   2  188.38   19.25
  -3  -5   2  176.28   13.69
   2   5  -2  770.60   38.83
   2   5  -2  745.75   39.81
   2   5  -2  755.79   39.69
  -2  -5   2  795.77   43.72
  -2  -5   2  748.23   40.67
  -2  -5   2  833.22   49.71
  -2  -5   2  721.84   42.53
  -2  -5   2  707.11   39.27
  -2  -5   2  716.42   41.82
   1   5  -2   95.39    5.79
   1   5  -2   90.55    6.11
   1   5  -2   98.11    6.52
   1   5  -2   95.53    5.91
  -1  -5   2   93.89    7.89
  -1  -5   2   79.53    6.36
   0   5  -2  179.62   10.09
   0   5  -2  183.70   10.45
   0   5  -2  160.95   11.59
   0   5  -2  180.77   10.83
   0   5  -2  176.75   10.08
   0   5  -2  191.14   10.75
   0  -5   2  166.70   11.01
   0  -5   2  170.52   11.22
   0  -5   2  166.07   10.04
   0  -5   2  179.69   17.48
   0  -5   2  162.53   12.20
  -1   5  -2    3.69    1.89
  -1   5  -2    6.02    2.09
  -1   5  -2    2.23    1.93
  -1   5  -2    7.90    1.80
  -1   5  -2   11.55    2.92
   1  -5   2    4.39    1.93
   1  -5   2    4.72    1.43
   1  -5   2    2.02    2.44
   1  -5   2    3.95    1.37
   1  -5   2    4.65    1.62
   1  -5   2    5.54    3.97
   1  -5   2    5.80    1.49
  -2   5  -2  657.18   43.19
  -2   5  -2  821.31   40.53
  -2   5  -2  806.63   41.50
  -2   5  -2  807.57   44.04
  -2   5  -2  779.18   42.96
  -2   5  -2  755.18   39.86
  -2   5  -2  651.90   46.30
   2  -5   2  756.74   40.60
   2  -5   2  765.51   42.83
   2  -5   2  740.98   39.70
   2  -5   2  719.85   39.84
   2  -5   2  762.70   40.06
  -3   5  -2   43.01    3.97
  -3   5  -2   37.77    9.69
  -3   5  -2   36.18    6.04
  -3   5  -2   38.11    6.35
  -3   5  -2   46.29    3.96
   3  -5   2   46.20    4.24
   3  -5   2   42.88    4.02
   3  -5   2   38.53    4.15
   3  -5   2   44.10    5.44
  -4  -4   2  103.37    9.11
  -4  -4   2  103.86   12.81
  -4  -4   2  132.59    9.60
  -4  -4   2  133.17   13.61
   3   4  -2  125.52    7.52
   3   4  -2  102.59    7.55
   3   4  -2   93.18   11.29
   3   4  -2  123.45    7.21
  -3  -4   2  115.96    8.83
  -3  -4   2  112.90    8.79
  -3  -4   2  130.48   10.34
  -3  -4   2  133.54   15.01
  -3  -4   2  119.54   10.86
  -3  -4   2  125.97   15.89
   2   4  -2  181.47   10.98
   2   4  -2  185.18   10.48
   2   4  -2  188.34   10.31
   2   4  -2  191.88   10.96
  -2  -4   2  212.31   17.42
  -2  -4   2  194.67   12.77
  -2  -4   2  186.05   17.94
  -2  -4   2  182.02   12.00
  -2  -4   2  180.14   13.78
  -2  -4   2  171.11   13.40
   1   4  -2  363.84   19.07
   1   4  -2  352.00   19.57
   1   4  -2  372.98   19.10
   1   4  -2  372.90   19.42
  -1  -4   2  363.56   21.31
   0   4  -2 3849.87  180.69
   0  -4   2 3446.14  180.10
   0  -4   2 3499.68  180.91
  -1   4  -2  197.36   15.27
  -1   4  -2  241.97   13.71
  -1   4  -2  260.29   14.96
  -1   4  -2  257.54   12.73
  -1   4  -2  236.20   14.36
  -1   4  -2  260.03   15.39
   1  -4   2  266.03   22.86
   1  -4   2  249.79   13.32
   1  -4   2  206.58   14.68
   1  -4   2  215.84   14.14
   1  -4   2  211.37   13.49
   1  -4   2  244.08   13.57
   1  -4   2  216.50   17.32
  -2   4  -2  323.94   30.35
  -2   4  -2  379.22   23.68
  -2   4  -2  368.75   20.36
  -2   4  -2  383.35   23.49
  -2   4  -2  380.64   21.53
  -2   4  -2  373.10   23.50
   2  -4   2  369.06   34.43
   2  -4   2  356.24   20.45
   2  -4   2  353.83   20.51
   2  -4   2  345.03   19.96
  -3   4  -2   88.42    6.51
  -3   4  -2   80.16    9.08
  -3   4  -2   94.44    7.17
  -3   4  -2   77.39   11.06
  -3   4  -2   92.77   15.90
  -3   4  -2   99.26    7.06
   3  -4   2   94.81    6.95
   3  -4   2   93.21    7.20
   3  -4   2   96.19    6.82
   3  -4   2   96.82    8.67
   4   3  -2   45.99    3.84
  -4  -3   2   46.98    8.79
  -4  -3   2   52.75    8.95
  -4  -3   2   53.86    6.02
  -4  -3   2   51.80    7.62
  -4  -3   2   49.52    5.68
   3   3  -2   71.68    4.66
   3   3  -2   62.75    8.16
   3   3  -2   55.25    6.90
   3   3  -2   67.92    4.91
  -3  -3   2   71.42    6.18
  -3  -3   2   67.77    7.58
  -3  -3   2   62.02    7.75
  -3  -3   2   67.99   11.81
  -3  -3   2   60.59    9.33
  -3  -3   2   74.40    7.60
  -3  -3   2   73.13   11.48
   2   3  -2 1119.64   54.34
   2   3  -2 1101.27   54.86
   2   3  -2 1102.96   54.82
  -2  -3   2 1045.97   57.22
  -2  -3   2  966.11   57.81
  -2  -3   2 1235.97   58.78
  -2  -3   2 1029.72   62.57
  -2  -3   2 1007.48   64.29
   1   3  -2 1736.12   87.43
   1   3  -2 1872.73   87.07
   1   3  -2 1726.59   87.30
  -1  -3   2 1813.48   89.21
  -1  -3   2 1674.55   87.36
  -1  -3   2 1599.31   87.51
   0   3  -2  361.70   18.04
   0   3  -2  332.11   17.78
   0   3  -2  345.64   18.24
   0  -3   2  351.56   17.93
   0  -3   2  331.95   18.40
   0  -3   2  335.54   17.81
  -1   3  -2 2240.39  109.55
  -1   3  -2 2308.61  107.31
  -1   3  -2 2137.88  108.06
  -1   3  -2 2274.62  109.88
   1  -3   2 2139.13  107.79
   1  -3   2 2043.83  108.15
   1  -3   2 2056.26  108.01
   1  -3   2 1951.27  108.94
  -2   3  -2  457.16   26.58
  -2   3  -2  478.97   25.61
  -2   3  -2  500.95   26.48
  -2   3  -2  461.61   26.19
  -2   3  -2  399.11   29.03
  -2   3  -2  499.73   29.10
  -2   3  -2  515.00   28.24
   2  -3   2  447.57   38.34
   2  -3   2  467.00   25.15
   2  -3   2  493.17   25.83
   2  -3   2  468.92   26.91
   2  -3   2  500.71   25.68
   2  -3   2  457.44   26.31
   2  -3   2  474.15   28.04
  -3   3  -2   36.49    4.37
  -3   3  -2   34.11    8.57
  -3   3  -2   35.06   11.24
  -3   3  -2   38.91   10.78
  -3   3  -2   41.96    4.04
  -3   3  -2   38.42    6.92
   3  -3   2   40.63    4.14
   3  -3   2   38.64    4.00
  -4   3  -2    0.31    1.53
  -4   3  -2    0.84    1.49
  -4   3  -2    0.55    0.66
  -4   3  -2   -0.89    2.14
   4  -3   2   -0.90    0.69
   4   2  -2   28.21    3.05
   4   2  -2   23.04    3.14
  -4  -2   2   24.77    5.85
  -4  -2   2   29.31    4.74
  -4  -2   2   27.04    7.10
  -4  -2   2   27.56    7.47
   3   2  -2  313.59   17.12
   3   2  -2  333.04   16.75
   3   2  -2  301.70   20.70
   3   2  -2  318.57   17.03
  -3  -2   2  305.43   27.79
  -3  -2   2  276.05   24.36
  -3  -2   2  307.40   26.87
  -3  -2   2  294.14   17.75
  -3  -2   2  315.91   20.71
  -3  -2   2  318.20   20.95
  -3  -2   2  292.70   17.88
  -3  -2   2  299.77   21.72
   2   2  -2   57.19    5.76
   2   2  -2   48.05    3.66
   2   2  -2   52.05    3.40
   2   2  -2   59.94    3.82
   2   2  -2   54.18    3.60
  -2  -2   2   55.68    5.96
   1   2  -2 3510.64  185.00
   0   2  -2 1034.79   50.51
   0   2  -2  929.60   51.21
   0   2  -2 1011.87   50.19
   0   2  -2 1013.63   56.68
   0  -2   2 1003.25   50.20
   0  -2   2  998.02   50.57
  -1   2  -2    2.35    1.20
  -1   2  -2    3.52    1.53
   1  -2   2    3.62    2.76
   1  -2   2    4.04    1.11
   1  -2   2    3.38    0.49
   1  -2   2    4.18    0.94
   1  -2   2    3.45    0.97
  -2   2  -2    1.85    1.01
  -2   2  -2    1.28    1.71
  -2   2  -2    0.19    1.23
  -2   2  -2    0.61    1.22
  -2   2  -2    1.93    0.99
  -2   2  -2   -0.39    2.99
  -2   2  -2    1.29    2.32
   2  -2   2    0.47    0.98
   2  -2   2    1.02    0.76
   2  -2   2    0.90    0.72
   2  -2   2    0.47    0.80
   2  -2   2    1.14    2.52
  -3   2  -2   93.94    6.66
  -3   2  -2   82.51    9.97
  -3   2  -2   76.20   12.50
  -3   2  -2   83.79   15.72
  -3   2  -2  111.93    9.78
  -3   2  -2   88.15    7.63
  -3   2  -2   97.08   10.37
   3  -2   2   75.54    7.35
   3  -2   2   92.84    6.14
   3  -2   2   95.53    6.94
   3  -2   2  104.71    6.94
  -4   2  -2  209.55   18.15
  -4   2  -2  221.45   15.52
  -4   2  -2  195.06   12.05
  -4   2  -2  226.32   13.11
   4  -2   2  229.87   13.04
   4  -2   2  232.75   13.17
   4  -2   2  213.88   12.69
   4   1  -2    1.73    1.79
   4   1  -2    0.95    1.54
  -4  -1   2    1.45    2.30
  -4  -1   2    1.52    3.38
  -4  -1   2    0.58    2.88
  -4  -1   2    2.01    2.12
  -4  -1   2    0.33    0.83
   3   1  -2    9.22    1.63
   3   1  -2    6.93    2.80
   3   1  -2   10.47    1.93
   3   1  -2    7.61    1.90
  -3  -1   2   11.54    3.77
  -3  -1   2   10.91    5.57
  -3  -1   2    8.83    4.99
  -3  -1   2    8.30    2.14
  -3  -1   2    9.59    3.65
  -3  -1   2    8.98    5.46
   2   1  -2 2188.64  105.18
   2   1  -2 1964.06  104.78
   2   1  -2 2029.71  107.54
  -2  -1   2 2157.60  109.16
  -2  -1   2 2115.43  104.90
   1   1  -2 1222.35   58.28
   1   1  -2 1251.02   58.14
   1   1  -2 1049.73   58.12
   1   1  -2 1119.18   58.00
  -1  -1   2 1239.23   58.17
  -1  -1   2 1177.48   59.62
  -1  -1   2 1050.41   59.62
   0   1  -2  896.83   46.60
   0   1  -2  898.19   46.29
   0   1  -2  955.26   46.50
   0   1  -2  947.60   46.62
   0  -1   2  918.51   46.30
  -1   1  -2   20.74    2.24
  -1   1  -2   20.41    2.82
   1  -1   2   19.22    2.09
   1  -1   2   23.83    1.98
   1  -1   2   19.54    4.63
   1  -1   2   18.46    1.75
   1  -1   2   21.18    1.27
   1  -1   2   18.11    1.40
   1  -1   2   16.89    1.80
  -2   1  -2  367.93   23.06
  -2   1  -2  395.98   21.78
  -2   1  -2  371.58   22.83
  -2   1  -2  348.16   24.84
   2  -1   2  326.79   29.28
   2  -1   2  385.07   19.62
   2  -1   2  368.44   19.84
   2  -1   2  417.84   20.78
  -3   1  -2   88.59   15.50
  -3   1  -2   77.53    7.34
  -3   1  -2   74.80   12.67
  -3   1  -2   93.69    6.60
  -3   1  -2  100.94   10.38
  -3   1  -2   89.64    9.92
  -3   1  -2   83.24    9.99
   3  -1   2   93.59   16.81
   3  -1   2   88.79    5.74
   3  -1   2   82.40    6.50
   3  -1   2   95.34    6.38
  -4   1  -2    0.59    2.30
  -4   1  -2   -0.24    0.75
  -4   1  -2    1.89    3.52
  -4   1  -2    0.07    0.92
  -4   1  -2    1.29    1.89
   4  -1   2    1.27    1.43
   4  -1   2   -1.62    0.91
   4  -1   2    0.49    1.90
   4   0  -2  174.50   10.53
   4   0  -2  172.50   10.25
   4   0  -2  162.38   10.98
  -4   0   2  174.38   16.50
  -4   0   2  164.65   18.08
  -4   0   2  157.53   17.34
  -4   0   2  178.12   10.72
  -4   0   2  173.44   13.06
   3   0  -2   54.07    4.60
   3   0  -2   50.45    4.24
   3   0  -2   54.24    4.32
   3   0  -2   57.09    6.44
  -3   0   2   50.72   10.48
  -3   0   2   50.38    7.92
  -3   0   2   51.56    9.67
  -3   0   2   48.29    6.69
  -3   0   2   53.69   11.15
  -3   0   2   53.66    5.08
   2   0  -2 4573.02  221.31
  -2   0   2 4283.34  221.42
   1   0  -2 1210.80   58.76
   1   0  -2 1099.03   58.66
   1   0  -2 1089.57   59.72
   1   0  -2 1139.88   58.41
  -1   0   2 1302.50   58.41
  -1   0   2 1126.89   58.48
  -1   0   2 1193.82   60.61
   0   0   2 1072.22   52.39
   0   0   2  973.69   52.49
   0   0   2 1092.08   52.54
  -1   0  -2 1225.19   60.00
  -1   0  -2 1173.42   60.32
  -1   0  -2 1144.02   60.96
   1   0   2 1236.78   59.59
   1   0   2 1143.24   59.29
   1   0   2 1181.09   59.33
  -2   0  -2  289.99   15.90
  -2   0  -2  252.87   16.97
   2   0   2  277.45   14.87
   2   0   2  222.62   21.77
   2   0   2  256.86   13.79
   2   0   2  274.76   14.89
  -3   0  -2  534.60   30.90
  -3   0  -2  550.72   29.40
  -3   0  -2  469.86   39.21
  -3   0  -2  602.90   34.60
  -3   0  -2  518.99   34.22
  -3   0  -2  532.03   42.08
  -3   0  -2  560.27   31.32
   3   0   2  542.70   28.13
   3   0   2  543.81   29.09
   3   0   2  519.38   44.58
   3   0   2  595.43   28.80
  -4   0  -2    4.42    2.58
  -4   0  -2    2.52    3.63
  -4   0  -2    2.63    1.46
  -4   0  -2    3.08    3.20
   4   0   2    0.99    1.32
   4   0   2    1.74    1.98
   4  -1  -2   34.64    3.52
   4  -1  -2   31.10    3.72
   4  -1  -2   36.96    4.15
  -4   1   2   33.02    4.88
  -4   1   2   33.34    7.83
  -4   1   2   31.36    7.37
  -4   1   2   37.37    6.91
  -4   1   2   38.87    3.61
   3  -1  -2  396.57   21.95
   3  -1  -2  394.79   23.95
   3  -1  -2  378.10   24.59
   3  -1  -2  389.03   22.86
   3  -1  -2  411.78   21.88
  -3   1   2  405.07   28.37
  -3   1   2  384.23   33.96
  -3   1   2  360.42   32.93
  -3   1   2  374.43   30.70
  -3   1   2  449.57   22.05
  -3   1   2  429.91   23.23
  -3   1   2  391.89   25.89
   2  -1  -2  262.88   15.26
   2  -1  -2  281.49   17.04
   2  -1  -2  256.27   15.01
   2  -1  -2  293.05   15.43
  -2   1   2  284.68   19.22
  -2   1   2  286.11   15.68
   1  -1  -2   88.62    5.69
   1  -1  -2  101.31    6.74
  -1   1   2  103.38    5.33
  -1   1   2   99.94    5.73
  -1   1   2  106.99    6.01
   0  -1  -2   45.23    2.70
   0  -1  -2   44.52    2.76
   0  -1  -2   38.88    4.61
   0   1   2   43.10    2.92
   0   1   2   42.85    2.62
  -2  -1  -2  717.32   37.32
  -2  -1  -2  759.42   38.06
  -2  -1  -2  665.70   38.60
   2   1   2  751.30   35.33
   2   1   2  668.95   36.68
   2   1   2  604.05   43.81
   2   1   2  682.74   35.16
   2   1   2  748.52   35.41
  -3  -1  -2    5.80    3.15
  -3  -1  -2    6.05    2.17
  -3  -1  -2    3.32    1.59
  -3  -1  -2    3.84    3.73
  -3  -1  -2    4.47    1.62
  -3  -1  -2    3.71    2.82
  -3  -1  -2    2.26    1.69
  -3  -1  -2    6.77    4.85
  -3  -1  -2    4.86    4.29
   3   1   2    2.26    3.97
   3   1   2    4.71    0.83
  -4  -1  -2   25.74    3.51
  -4  -1  -2   26.76    7.13
  -4  -1  -2   29.52    7.90
  -4  -1  -2   32.70    5.36
   4   1   2   30.21    3.45
   4  -2  -2   24.43    2.90
   4  -2  -2   22.41    3.01
   4  -2  -2   25.74    3.16
  -4   2   2   28.95    4.04
  -4   2   2   31.17    5.77
  -4   2   2   28.45    2.95
  -4   2   2   22.90    6.21
  -4   2   2   27.21    6.49
   3  -2  -2   39.94    4.71
   3  -2  -2   39.32    4.26
   3  -2  -2   52.29    6.39
   3  -2  -2   47.37    4.17
   3  -2  -2   44.94    4.06
  -3   2   2   36.75    3.64
  -3   2   2   47.71    4.74
  -3   2   2   39.47    9.93
  -3   2   2   40.13    7.47
  -3   2   2   35.66    8.00
  -3   2   2   41.66   10.81
  -3   2   2   39.18    6.04
  -3   2   2   45.56    4.24
   2  -2  -2   48.71    4.87
   2  -2  -2   43.38    3.54
   2  -2  -2   46.39    3.79
   2  -2  -2   46.54    3.71
  -2   2   2   35.72    5.33
  -2   2   2   41.42    5.94
  -2   2   2   38.10    8.86
  -2   2   2   33.81    3.51
  -2   2   2   41.75    4.05
  -2   2   2   42.40    4.18
  -2   2   2   46.25    6.15
  -2   2   2   35.71    7.02
   1  -2  -2 1987.60  103.04
  -1   2   2 1932.00  102.95
  -1   2   2 2226.12  102.46
  -1  -2  -2    2.83    1.24
  -1  -2  -2    3.70    1.24
   1   2   2    4.74    0.56
   1   2   2    1.85    0.84
   1   2   2    3.25    1.34
  -2  -2  -2   68.85    6.25
  -2  -2  -2   62.90    5.18
  -2  -2  -2   67.71    6.10
   2   2   2   55.85    4.87
   2   2   2   64.30    3.97
   2   2   2   55.86    8.14
  -3  -2  -2   18.68    7.10
  -3  -2  -2   12.58    6.09
  -3  -2  -2   13.32    2.66
  -3  -2  -2   19.40    4.84
  -3  -2  -2   20.61    3.58
  -3  -2  -2   17.79    4.02
  -3  -2  -2    8.57    2.15
  -3  -2  -2   15.51    3.44
  -3  -2  -2   11.91    3.98
   3   2   2   10.34    5.91
  -4  -2  -2   50.42    6.44
  -4  -2  -2   49.52    9.06
  -4  -2  -2   40.00    8.27
  -4  -2  -2   45.69    4.59
   4  -3  -2  118.27    7.51
   4  -3  -2  125.79    7.77
  -4   3   2  140.91    8.48
  -4   3   2  115.48    7.59
  -4   3   2  116.24   11.85
   3  -3  -2   54.07    5.01
   3  -3  -2   48.44    5.86
   3  -3  -2   53.70    5.67
   3  -3  -2   56.57    4.96
  -3   3   2   64.46    5.56
  -3   3   2   54.11    9.37
  -3   3   2   56.23    7.85
  -3   3   2   47.18   10.54
  -3   3   2   59.27    5.48
   2  -3  -2  205.77   11.98
   2  -3  -2  211.40   12.09
   2  -3  -2  222.43   14.06
   2  -3  -2  198.31   12.54
   2  -3  -2  203.04   11.78
   2  -3  -2  206.29   14.25
  -2   3   2  208.33   12.87
  -2   3   2  231.37   12.86
  -2   3   2  216.51   13.69
  -2   3   2  210.35   16.11
  -2   3   2  164.77   13.86
  -2   3   2  166.03   17.11
  -2   3   2  163.07   19.13
  -2   3   2  192.28   11.63
   1  -3  -2   26.55    3.21
   1  -3  -2   27.34    2.48
   1  -3  -2   18.82    2.16
  -1   3   2   22.95    3.60
  -1   3   2   24.42    1.66
  -1  -3  -2  113.31    7.84
   1   3   2  105.48    6.18
   1   3   2  104.91    6.06
   1   3   2  106.02    5.99
   1   3   2  102.57    5.72
  -2  -3  -2   46.84    5.52
  -2  -3  -2   44.51    4.61
  -2  -3  -2   42.15    4.10
   2   3   2   41.10    3.24
   2   3   2   42.24    5.91
   2   3   2   41.31    2.52
   2   3   2   42.49    2.57
  -3  -3  -2   30.65    5.11
  -3  -3  -2   39.23    3.94
  -3  -3  -2   32.18    8.06
  -3  -3  -2   38.24    3.94
  -3  -3  -2   38.09    5.60
  -3  -3  -2   30.17    4.07
  -3  -3  -2   40.61    5.29
  -3  -3  -2   33.76    3.95
  -3  -3  -2   36.88    4.63
  -3  -3  -2   38.45    7.90
  -3  -3  -2   25.65    7.41
  -4  -3  -2   40.95    7.47
  -4  -3  -2   40.18    7.46
  -4  -3  -2   44.21    5.48
  -4  -3  -2   37.66    4.38
   3  -4  -2  281.83   17.14
   3  -4  -2  278.23   16.49
   3  -4  -2  291.81   16.74
   3  -4  -2  287.64   19.03
  -3   4   2  258.41   25.52
  -3   4   2  300.61   17.32
  -3   4   2  302.76   17.25
  -3   4   2  270.46   18.49
  -3   4   2  317.03   23.31
   2  -4  -2 1214.30   61.97
   2  -4  -2 1250.04   61.79
   2  -4  -2 1297.56   65.18
   2  -4  -2 1263.37   62.14
   2  -4  -2 1233.90   62.66
   2  -4  -2 1170.97   63.13
  -2   4   2 1010.93   64.17
  -2   4   2 1362.09   64.01
  -2   4   2 1179.58   66.86
  -2   4   2 1322.42   63.51
  -2   4   2 1040.71   73.82
  -2   4   2 1015.63   64.01
  -2   4   2 1205.92   69.75
   1  -4  -2  577.30   32.10
   1  -4  -2  590.87   29.78
   1  -4  -2  556.67   29.75
   1  -4  -2  567.31   30.46
   1  -4  -2  543.68   30.10
   1  -4  -2  552.28   29.49
   1  -4  -2  579.59   31.68
  -1   4   2  554.13   28.77
  -1   4   2  523.43   32.04
  -1   4   2  586.73   29.76
  -1   4   2  507.98   30.91
  -1   4   2  622.64   30.21
   0  -4  -2    2.29    1.26
   0  -4  -2    2.62    0.83
   0  -4  -2    2.22    1.45
   0  -4  -2    4.17    1.62
   0  -4  -2    1.09    1.48
   0   4   2    2.17    0.66
   0   4   2    2.45    1.08
   0   4   2    1.93    0.90
  -1  -4  -2   61.78    5.73
   1   4   2   53.24    3.94
   1   4   2   55.18    3.91
  -2  -4  -2    1.45    1.80
  -2  -4  -2   -0.89    0.97
  -2  -4  -2    0.27    1.26
  -2  -4  -2   -1.05    1.20
  -2  -4  -2   -0.97    2.09
   2   4   2    0.28    0.44
   2   4   2    3.18    0.96
   2   4   2   -1.12    0.45
   2   4   2   -0.66    0.70
  -3  -4  -2  170.07   16.85
  -3  -4  -2  190.05   12.94
  -3  -4  -2  160.46   11.92
  -3  -4  -2  172.28   14.83
  -3  -4  -2  149.20   10.67
  -3  -4  -2  166.95   10.97
  -3  -4  -2  164.34   10.92
  -3  -4  -2  154.96   12.38
  -4  -4  -2    9.83    2.28
  -4  -4  -2   13.08    6.32
  -4  -4  -2   12.48    4.72
  -4  -4  -2   18.51    3.15
   3  -5  -2  640.10   35.27
   3  -5  -2  691.43   35.81
   3  -5  -2  665.27   35.38
   3  -5  -2  645.90   37.47
  -3   5   2  600.08   44.01
  -3   5   2  702.91   36.13
  -3   5   2  749.47   36.05
   2  -5  -2   -0.49    0.89
   2  -5  -2    1.26    1.19
   2  -5  -2    5.17    2.47
   2  -5  -2    0.92    0.98
   2  -5  -2    1.25    1.27
   2  -5  -2    0.43    1.82
  -2   5   2    0.69    2.12
  -2   5   2   -2.97    2.04
  -2   5   2   -1.83    2.29
  -2   5   2   -0.03    0.90
  -2   5   2    1.79    1.53
  -2   5   2   -0.70    2.45
  -2   5   2   -0.30    2.75
   1  -5  -2  442.87   26.60
   1  -5  -2  461.25   24.32
   1  -5  -2  447.88   24.38
   1  -5  -2  422.87   27.14
   1  -5  -2  463.70   26.16
   1  -5  -2  462.83   24.63
   1  -5  -2  403.92   33.63
   1  -5  -2  441.86   24.77
  -1   5   2  473.10   26.64
  -1   5   2  480.42   24.90
  -1   5   2  494.15   24.60
  -1   5   2  441.56   26.85
  -1   5   2  455.28   25.90
   0  -5  -2  329.41   19.85
   0  -5  -2  327.64   19.29
   0  -5  -2  340.33   28.39
   0   5   2  342.17   18.26
   0   5   2  338.12   18.04
   0   5   2  326.02   18.24
   0   5   2  336.44   18.76
   0   5   2  344.18   18.52
  -1  -5  -2  215.09   14.08
  -1  -5  -2  256.88   15.61
  -1  -5  -2  286.04   21.12
  -1  -5  -2  240.46   16.05
   1   5   2  233.92   13.29
   1   5   2  222.95   13.06
   1   5   2  237.44   13.60
   1   5   2  236.41   13.69
  -2  -5  -2  129.43   10.37
  -2  -5  -2  126.56    9.69
  -2  -5  -2  145.51   10.70
  -2  -5  -2  132.33    9.36
  -2  -5  -2  136.98   12.06
  -2  -5  -2  133.73    9.25
   2   5   2  127.41    7.64
   2   5   2  133.19    8.89
   2   5   2  140.63    8.31
  -3  -5  -2    5.92    3.62
  -3  -5  -2   17.96    6.57
  -3  -5  -2    8.29    2.00
  -3  -5  -2   11.18    3.09
  -3  -5  -2   10.20    2.82
  -3  -5  -2   14.83    3.03
  -4  -5  -2  310.47   18.16
  -4  -5  -2  340.98   19.54
  -4  -5  -2  347.37   23.65
   3  -6  -2  101.81    6.39
   3  -6  -2   92.20    7.53
   3  -6  -2   99.05    6.18
  -3   6   2   89.73   12.32
  -3   6   2   98.86    6.55
   2  -6  -2  107.58   10.47
   2  -6  -2  126.68    8.33
   2  -6  -2  126.00    8.30
   2  -6  -2  125.89    9.69
   2  -6  -2  142.35   11.93
   2  -6  -2  123.78    8.78
  -2   6   2  141.38    8.83
  -2   6   2   98.49   14.18
  -2   6   2  132.69    9.80
  -2   6   2  114.44   14.64
   1  -6  -2   99.22    7.21
   1  -6  -2   92.63    8.22
   1  -6  -2   83.54    9.25
   1  -6  -2  100.01    9.03
   1  -6  -2  112.85    8.75
   1  -6  -2  102.72    7.00
  -1   6   2   96.41    8.25
  -1   6   2  117.95    7.89
  -1   6   2  118.67    9.44
   0  -6  -2  152.80   11.57
   0  -6  -2  164.37   11.99
   0  -6  -2  158.99   17.91
   0  -6  -2  158.37   10.78
   0  -6  -2  182.71   13.02
   0  -6  -2  171.55   11.23
   0   6   2  162.72   10.52
   0   6   2  144.72   11.62
   0   6   2  173.97   10.15
   0   6   2  165.14   10.00
   0   6   2  165.05   11.84
   0   6   2  176.70   10.98
  -1  -6  -2    0.02    1.09
  -1  -6  -2    0.77    1.47
  -1  -6  -2   -1.13    1.18
  -1  -6  -2    1.42    1.73
  -1  -6  -2    1.36    2.43
  -1  -6  -2    0.75    0.93
   1   6   2   -3.07    1.74
   1   6   2   -0.11    1.23
   1   6   2    0.29    0.79
   1   6   2   -0.61    0.63
  -2  -6  -2 1245.61   68.47
  -2  -6  -2 1313.09   65.82
  -2  -6  -2 1206.36   65.42
  -2  -6  -2 1179.84   63.75
  -2  -6  -2 1234.75   63.70
   2   6   2 1129.81   61.90
   2   6   2 1185.29   62.20
   2   6   2 1257.31   63.02
  -3  -6  -2   24.35    3.99
  -3  -6  -2   15.53    3.00
  -3  -6  -2   26.07    4.72
  -3  -6  -2   27.75    7.44
  -3  -6  -2   24.05    6.76
  -3  -6  -2   19.92    3.98
   3   6   2   19.01    2.29
  -4  -6  -2    0.28    2.19
  -4  -6  -2    1.42    1.02
  -4  -6  -2   -2.11    1.08
  -4  -6  -2    1.00    0.89
   2  -7  -2   27.40    4.91
   2  -7  -2   14.15    3.25
  -2   7   2   14.56    7.86
  -2   7   2   15.17    2.99
   1  -7  -2  320.94   21.14
   1  -7  -2  337.06   20.70
   1  -7  -2  344.87   18.40
  -1   7   2  338.88   21.44
  -1   7   2  345.62   22.45
  -1   7   2  328.84   18.57
  -1   7   2  326.69   20.70
   0  -7  -2 1259.53   87.01
   0  -7  -2 1482.17   77.90
   0  -7  -2 1519.83   77.68
   0  -7  -2 1351.88   78.81
   0   7   2 1552.14   76.86
   0   7   2 1534.00   78.87
   0   7   2 1582.54   76.28
   0   7   2 1542.02   77.57
   0   7   2 1535.82   76.75
  -1  -7  -2  295.03   18.02
  -1  -7  -2  262.90   24.29
  -1  -7  -2  253.96   19.10
  -1  -7  -2  273.32   16.36
  -1  -7  -2  295.13   16.13
  -1  -7  -2  261.18   16.24
   1   7   2  268.94   15.44
   1   7   2  243.78   16.98
   1   7   2  256.20   15.87
   1   7   2  276.25   16.53
   1   7   2  274.25   15.93
  -2  -7  -2   38.72    5.17
  -2  -7  -2   37.65    8.45
  -2  -7  -2   35.52    4.11
  -2  -7  -2   34.94    7.23
  -2  -7  -2   38.47    5.56
  -2  -7  -2   34.64    4.38
   2   7   2   25.60    3.73
   2   7   2   37.49    4.03
   2   7   2   33.92    3.41
  -3  -7  -2   79.74    8.32
  -3  -7  -2  103.11    8.75
  -3  -7  -2   97.09    7.27
  -3  -7  -2  116.85   13.72
  -3  -7  -2   93.99    7.33
   3   7   2   91.52    6.12
   3   7   2   87.17    6.33
  -4  -7  -2    2.36    1.49
  -4  -7  -2    2.31    2.17
  -4  -7  -2    1.56    0.75
   2  -8  -2   35.06    4.12
   2  -8  -2   29.08    3.91
  -2   8   2   33.75    3.49
   1  -8  -2  121.87   10.08
   1  -8  -2  136.06    9.89
  -1   8   2  132.58   10.04
  -1   8   2  133.86   10.56
   0  -8  -2   71.51    6.59
   0  -8  -2   74.31    9.30
   0  -8  -2   63.99    6.88
   0   8   2   71.48    6.67
   0   8   2   66.82    7.73
   0   8   2   69.18    6.33
   0   8   2   61.49    7.10
   0   8   2   75.03    6.14
   0   8   2   75.84    5.79
  -1  -8  -2 1122.19   59.22
  -1  -8  -2 1140.24   56.79
  -1  -8  -2 1132.40   57.44
  -1  -8  -2 1103.77   57.52
  -1  -8  -2 1027.25   61.30
  -1  -8  -2  980.08   67.65
   1   8   2 1084.93   58.99
   1   8   2 1179.69   58.49
   1   8   2 1077.92   56.66
   1   8   2 1068.78   58.05
  -2  -8  -2   37.13    4.20
  -2  -8  -2   30.05    8.15
  -2  -8  -2   35.30    4.88
  -2  -8  -2   34.87    5.26
  -2  -8  -2   33.29    3.88
   2   8   2   29.52    5.12
   2   8   2   35.58    3.51
   2   8   2   38.11    3.84
  -3  -8  -2   14.22    5.31
  -3  -8  -2   11.07    2.06
  -3  -8  -2   11.27    2.72
  -3  -8  -2    8.33    1.86
  -3  -8  -2   15.98    3.04
   3   8   2   12.37    2.66
   3   8   2   10.30    1.83
   1  -9  -2  310.35   19.10
   1  -9  -2  349.35   19.22
  -1   9   2  359.94   19.86
  -1   9   2  313.27   19.21
   0  -9  -2  170.34   11.47
   0   9   2  175.25   10.36
   0   9   2  176.98   10.65
   0   9   2  142.32   12.17
   0   9   2  180.89   12.66
  -1  -9  -2   32.28    3.64
  -1  -9  -2   30.43    3.36
  -1  -9  -2   36.04    3.87
  -1  -9  -2   32.57    4.71
  -1  -9  -2   32.53    7.98
  -1  -9  -2   27.71    4.25
   1   9   2   43.40    4.48
   1   9   2   38.53    4.10
   1   9   2   37.52    4.01
   1   9   2   36.21    4.98
  -2  -9  -2  128.96   10.23
  -2  -9  -2  154.73   10.73
  -2  -9  -2  139.34    9.32
  -2  -9  -2  144.62    8.99
  -2  -9  -2  125.58   15.22
   2   9   2  147.24    8.86
   2   9   2  134.90   10.05
   2   9   2  147.77    9.24
  -3  -9  -2  371.95   20.62
  -3  -9  -2  340.89   25.80
  -3  -9  -2  400.02   20.70
  -3  -9  -2  417.65   22.16
   3   9   2  376.21   20.45
   3   9   2  398.78   21.64
   0 -10  -2   20.89    2.89
   0 -10  -2   23.20    2.70
   0  10   2   13.91    2.70
  -1 -10  -2   80.78    6.63
  -1 -10  -2   85.69    5.45
  -1 -10  -2   78.04    5.52
  -1 -10  -2   74.90    5.21
   1  10   2   75.61    6.65
   1  10   2   78.35    5.66
   1  10   2   77.33    5.47
   1  10   2   55.43    7.45
  -2 -10  -2  102.21    7.19
  -2 -10  -2   80.11   10.19
  -2 -10  -2   99.03    5.86
  -2 -10  -2  103.60    6.39
  -2 -10  -2   80.46    6.86
   2  10   2   99.71    6.26
   2  10   2  106.91    8.65
   2  10   2  103.94    6.52
   2  10  -3   -1.16    1.17
   2  10  -3   -0.52    0.69
   2  10  -3   -0.05    0.65
  -2 -10   3   -0.14    0.80
  -2 -10   3   -1.21    1.11
   1  10  -3  179.40   10.21
   1  10  -3  178.08   10.36
   1  10  -3  176.43   11.81
  -1 -10   3  183.27   10.78
  -1 -10   3  181.71   10.69
   0  10  -3    0.45    1.53
   0  10  -3   -0.29    1.00
   0 -10   3   -0.05    0.76
   3   9  -3   49.50    3.89
   3   9  -3   53.79    3.71
  -3  -9   3   50.48    3.88
  -3  -9   3   51.53    3.92
  -3  -9   3   59.63    5.12
  -3  -9   3   43.97    6.66
   2   9  -3   39.16    3.84
   2   9  -3   39.89    4.05
   2   9  -3   36.06    4.52
   2   9  -3   40.94    3.56
  -2  -9   3   43.14    4.24
  -2  -9   3   33.47    4.34
  -2  -9   3   41.70    4.22
   1   9  -3    0.44    1.14
   1   9  -3    3.34    2.00
   1   9  -3   -1.35    1.34
   1   9  -3    1.04    0.83
  -1  -9   3    2.35    1.44
  -1  -9   3    2.07    1.46
  -1  -9   3    1.67    1.05
  -1  -9   3    1.40    2.52
   0   9  -3  416.12   23.19
   0   9  -3  434.81   25.72
   0   9  -3  468.75   27.07
   0  -9   3  477.78   26.10
   0  -9   3  410.84   24.88
  -1   9  -3   45.54    4.33
  -1   9  -3   43.38    4.34
   1  -9   3   42.17    4.22
   1  -9   3   47.61    4.59
   3   8  -3   48.07    4.00
   3   8  -3   41.57    3.80
   3   8  -3   48.62    3.81
  -3  -8   3   60.08   11.68
  -3  -8   3   57.14    6.96
  -3  -8   3   54.94    5.36
  -3  -8   3   33.82    6.52
  -3  -8   3   43.02    4.23
   2   8  -3   42.69    3.96
   2   8  -3   44.16    4.24
   2   8  -3   41.66    5.23
   2   8  -3   46.89    4.37
  -2  -8   3   38.75    4.46
  -2  -8   3   43.07    5.48
  -2  -8   3   37.64    7.73
  -2  -8   3   39.19    4.69
  -2  -8   3   41.57    3.77
  -2  -8   3   45.79    5.24
   1   8  -3   14.54    2.44
   1   8  -3   12.92    2.37
   1   8  -3   11.65    4.27
   1   8  -3    4.47    3.42
   1   8  -3   12.09    3.67
   1   8  -3    7.54    1.61
  -1  -8   3   16.77    3.36
  -1  -8   3    5.05    3.70
   0   8  -3  581.10   32.97
   0   8  -3  550.04   34.27
   0   8  -3  589.15   32.42
   0   8  -3  574.20   30.64
   0  -8   3  632.07   34.81
   0  -8   3  549.05   33.53
  -1   8  -3  472.56   27.37
  -1   8  -3  476.16   27.35
   1  -8   3  483.30   27.18
   1  -8   3  461.89   27.68
  -2   8  -3   77.84    5.79
  -2   8  -3   69.12    9.52
   2  -8   3   87.04    6.53
  -4  -7   3   97.20   13.48
  -4  -7   3  101.61    8.81
  -4  -7   3  113.49    6.25
  -4  -7   3   94.26    8.18
   3   7  -3  105.33    7.12
   3   7  -3  108.91    7.67
   3   7  -3  108.26    7.45
  -3  -7   3  113.86    8.55
  -3  -7   3  109.23    8.34
  -3  -7   3  116.27    9.70
  -3  -7   3  124.39   13.19
  -3  -7   3  137.20   14.31
   2   7  -3  140.58    9.14
   2   7  -3  136.17    8.56
   2   7  -3  123.17   10.20
   2   7  -3  131.94    9.82
  -2  -7   3  141.89   10.20
  -2  -7   3  130.84   12.41
  -2  -7   3  129.84   10.93
  -2  -7   3  141.13   10.06
  -2  -7   3  135.88   14.97
  -2  -7   3  150.63   11.29
  -2  -7   3  136.14    8.91
   1   7  -3  628.45   34.08
   1   7  -3  633.23   37.18
   1   7  -3  642.06   33.87
   1   7  -3  602.68   35.45
   1   7  -3  664.10   33.86
  -1  -7   3  620.18   41.86
  -1  -7   3  632.04   34.69
  -1  -7   3  607.58   34.16
  -1  -7   3  672.34   35.29
  -1  -7   3  576.85   36.16
   0   7  -3 1103.91   62.84
   0   7  -3 1141.14   62.77
   0   7  -3 1250.74   61.62
   0   7  -3 1218.28   63.80
   0   7  -3 1166.69   64.16
   0   7  -3 1220.69   61.74
   0  -7   3 1193.55   63.81
   0  -7   3 1190.86   62.83
  -1   7  -3  593.77   32.71
  -1   7  -3  586.36   34.46
  -1   7  -3  532.18   32.07
   1  -7   3  563.48   32.12
   1  -7   3  571.92   30.43
   1  -7   3  542.18   33.05
  -2   7  -3   63.65    5.67
   2  -7   3   56.46    6.19
   2  -7   3   71.50    4.95
   2  -7   3   59.96    6.29
   2  -7   3   62.44    4.98
   2  -7   3   51.25    5.26
  -4  -6   3   39.62    6.52
  -4  -6   3   32.80    3.93
  -4  -6   3   33.75    6.03
  -4  -6   3   34.30    3.22
   3   6  -3  170.65   10.39
   3   6  -3  160.53   10.71
   3   6  -3  165.19   10.17
  -3  -6   3  180.05   13.69
  -3  -6   3  209.86   19.53
  -3  -6   3  170.31   11.84
  -3  -6   3  175.39   11.97
   2   6  -3  196.33   11.00
   2   6  -3  183.66   11.10
   2   6  -3  195.57   11.67
  -2  -6   3  178.15   11.45
  -2  -6   3  185.74   12.55
  -2  -6   3  190.56   14.10
  -2  -6   3  176.96   14.76
   1   6  -3  782.62   41.27
   1   6  -3  792.27   40.27
   1   6  -3  742.06   42.12
   1   6  -3  803.11   39.98
   1   6  -3  756.27   40.50
  -1  -6   3  790.64   41.37
  -1  -6   3  750.97   42.28
  -1  -6   3  756.39   42.97
  -1  -6   3  746.23   41.16
  -1  -6   3  783.82   47.95
   0   6  -3 1026.88   52.99
   0   6  -3 1010.00   54.55
   0   6  -3 1078.12   55.24
   0   6  -3 1070.14   53.26
   0   6  -3 1055.17   54.08
   0   6  -3 1134.45   52.88
   0  -6   3 1031.22   52.62
   0  -6   3  943.49   65.97
   0  -6   3 1088.14   54.63
   0  -6   3  866.45   60.40
   0  -6   3  950.98   53.53
   0  -6   3 1042.89   55.44
  -1   6  -3  131.69    9.99
   1  -6   3  129.64    9.20
   1  -6   3  133.04    8.90
   1  -6   3  137.63   10.18
   1  -6   3  123.96   10.93
   1  -6   3  137.10    8.90
   1  -6   3  136.54    8.92
   1  -6   3  136.18   19.51
  -2   6  -3  582.98   33.15
  -2   6  -3  494.68   34.21
  -2   6  -3  682.68   31.73
   2  -6   3  574.32   31.72
   2  -6   3  606.43   32.31
   2  -6   3  583.54   31.76
   2  -6   3  601.74   34.56
  -3   6  -3   19.18    5.72
  -3   6  -3   14.10    1.70
   3  -6   3   13.31    1.88
   3  -6   3   17.41    2.28
   3  -6   3   19.25    3.25
   4   5  -3   97.47    6.39
  -4  -5   3   97.95    6.86
  -4  -5   3  107.87    8.39
   3   5  -3  322.51   19.28
   3   5  -3  331.40   18.21
  -3  -5   3  373.10   29.52
  -3  -5   3  340.23   20.21
  -3  -5   3  319.05   22.23
  -3  -5   3  326.38   20.05
   2   5  -3  419.06   21.83
   2   5  -3  430.63   21.79
   2   5  -3  403.43   22.68
   2   5  -3  375.77   24.89
  -2  -5   3  412.09   25.59
  -2  -5   3  403.34   22.40
  -2  -5   3  395.03   23.49
  -2  -5   3  365.42   24.36
  -2  -5   3  464.01   32.01
  -2  -5   3  408.52   26.02
   1   5  -3   -0.46    0.64
   1   5  -3    2.07    3.43
   1   5  -3    0.01    0.82
   1   5  -3    1.05    0.69
   1   5  -3    2.54    1.21
  -1  -5   3    0.58    2.22
  -1  -5   3    1.42    1.40
   0   5  -3  214.00   14.08
   0   5  -3  219.52   12.11
   0   5  -3  210.27   11.78
   0   5  -3  227.42   11.82
   0   5  -3  220.52   12.65
   0  -5   3  203.97   11.82
   0  -5   3  200.48   13.75
   0  -5   3  193.18   12.45
   0  -5   3  208.03   20.94
   0  -5   3  196.23   12.85
   0  -5   3  185.49   11.69
   0  -5   3  203.89   12.17
  -1   5  -3  134.83    8.44
  -1   5  -3  129.24    9.84
  -1   5  -3  123.79   10.23
  -1   5  -3  129.26    9.31
   1  -5   3  105.80   10.06
   1  -5   3  118.96   10.21
   1  -5   3  145.92   26.80
   1  -5   3  124.22    8.43
   1  -5   3  124.56    9.42
   1  -5   3  125.66    8.83
   1  -5   3  136.65    8.28
  -2   5  -3  112.97    7.95
  -2   5  -3  112.81    7.61
  -2   5  -3   88.66   10.18
  -2   5  -3  111.70    8.68
  -2   5  -3  103.11   10.09
   2  -5   3  102.63    8.09
   2  -5   3  106.72    7.41
   2  -5   3  104.36    7.76
   2  -5   3  103.76    9.70
   2  -5   3  102.03    7.64
  -3   5  -3  334.41   18.21
  -3   5  -3  286.16   20.22
  -3   5  -3  347.06   18.05
  -3   5  -3  301.55   28.72
  -3   5  -3  318.22   21.73
   3  -5   3  304.79   17.76
   3  -5   3  324.12   20.12
   3  -5   3  316.29   17.83
   3  -5   3  323.54   18.22
   4   4  -3  533.25   28.89
   4   4  -3  531.81   28.88
  -4  -4   3  595.04   38.49
  -4  -4   3  574.16   32.52
   3   4  -3    8.25    1.49
   3   4  -3   10.93    1.76
   3   4  -3    8.96    2.01
  -3  -4   3   10.01    4.63
  -3  -4   3    9.39    5.56
  -3  -4   3    9.11    3.41
  -3  -4   3   10.51    3.04
  -3  -4   3    6.99    2.14
   2   4  -3 2250.67  109.58
   2   4  -3 2274.27  109.47
   2   4  -3 2114.44  110.10
   2   4  -3 2208.32  110.28
  -2  -4   3 2265.13  114.00
  -2  -4   3 2134.63  110.19
  -2  -4   3 2123.88  111.26
  -2  -4   3 2166.33  120.58
  -2  -4   3 2053.90  113.41
   1   4  -3  145.73   10.04
   1   4  -3  142.29    8.87
   1   4  -3  151.23    8.35
   1   4  -3  155.95    8.40
  -1  -4   3  136.61   10.12
   0   4  -3  105.50    6.78
   0   4  -3  114.74    7.25
   0   4  -3  115.83    6.72
   0   4  -3  112.69    6.65
   0  -4   3  133.67    7.33
   0  -4   3  106.68    6.84
   0  -4   3   99.00    7.05
   0  -4   3   95.83    6.86
   0  -4   3  124.11   13.79
  -1   4  -3 2591.82  135.95
  -1   4  -3 2952.42  134.41
  -1   4  -3 2692.64  136.52
  -1   4  -3 2300.34  135.79
  -1   4  -3 2645.65  134.96
   1  -4   3 2724.55  135.08
   1  -4   3 2542.63  135.60
   1  -4   3 2507.83  137.11
   1  -4   3 3034.07  149.88
   1  -4   3 2771.05  134.80
  -2   4  -3   -0.91    1.04
  -2   4  -3    0.34    1.19
  -2   4  -3    0.66    1.59
  -2   4  -3    1.13    2.28
  -2   4  -3    0.32    0.84
  -2   4  -3    0.40    0.72
  -2   4  -3    0.83    1.21
   2  -4   3    1.22    1.46
   2  -4   3    0.12    0.66
   2  -4   3   -0.05    1.90
   2  -4   3   -0.43    2.52
   2  -4   3   -0.06    1.10
   2  -4   3   -0.12    0.83
  -3   4  -3   24.59    3.28
  -3   4  -3   26.49    2.99
  -3   4  -3   25.29    3.23
  -3   4  -3   28.59    5.48
  -3   4  -3   21.88    5.97
  -3   4  -3   23.52   10.17
   3  -4   3   25.55    3.58
   3  -4   3   24.28    3.34
   3  -4   3   27.38    3.45
   3  -4   3   34.48    4.97
   4   3  -3   21.38    2.77
   4   3  -3   23.75    2.94
  -4  -3   3   34.58    4.78
  -4  -3   3   29.19    4.44
  -4  -3   3   30.50    6.09
  -4  -3   3   28.38    6.96
  -4  -3   3   33.28    6.99
   3   3  -3  262.77   14.24
   3   3  -3  262.36   14.46
   3   3  -3  254.77   14.84
   3   3  -3  254.96   19.27
  -3  -3   3  265.08   25.29
  -3  -3   3  271.64   17.89
  -3  -3   3  262.62   18.47
  -3  -3   3  246.65   20.84
  -3  -3   3  244.17   15.81
  -3  -3   3  254.50   23.19
  -3  -3   3  232.40   18.22
   2   3  -3  173.77    9.55
   2   3  -3  176.69    9.31
   2   3  -3  162.60    9.63
  -2  -3   3  160.48   11.59
  -2  -3   3  163.12   11.89
  -2  -3   3  162.64   16.94
  -2  -3   3  156.20   16.73
   0   3  -3  456.80   23.09
   0   3  -3  449.21   23.87
   0   3  -3  456.43   22.94
   0  -3   3  417.29   22.92
   0  -3   3  503.44   31.41
   0  -3   3  427.50   22.95
   0  -3   3  405.59   23.14
   0  -3   3  431.82   23.34
  -1   3  -3  576.32   31.48
  -1   3  -3  591.16   31.54
  -1   3  -3  550.52   29.94
   1  -3   3  569.93   30.07
   1  -3   3  627.24   40.26
   1  -3   3  582.02   29.72
   1  -3   3  531.61   30.06
   1  -3   3  549.54   29.12
  -2   3  -3   26.13    2.96
  -2   3  -3   23.92    3.12
  -2   3  -3   20.96    7.41
  -2   3  -3   21.75    3.26
  -2   3  -3   20.34    3.97
  -2   3  -3   21.50    3.16
  -2   3  -3   25.42    6.17
  -2   3  -3   23.23    4.11
   2  -3   3   21.63    2.35
   2  -3   3   27.64    3.06
   2  -3   3   19.83    2.97
   2  -3   3   27.35    3.99
   2  -3   3   23.89    7.99
   2  -3   3   27.05    5.02
   2  -3   3   18.11    3.08
  -3   3  -3   -0.26    1.00
  -3   3  -3   -0.50    5.22
  -3   3  -3    0.97    2.55
  -3   3  -3    0.22    0.91
  -3   3  -3    0.56    2.21
  -3   3  -3    0.13    0.99
  -3   3  -3    1.57    2.64
   3  -3   3   -4.50    1.90
   3  -3   3    1.31    0.94
   3  -3   3    1.48    1.61
   3  -3   3    0.34    0.99
   3  -3   3    2.96    1.25
  -4   3  -3    4.04    1.12
  -4   3  -3    2.81    2.58
  -4   3  -3    4.48    2.08
  -4   3  -3    3.35    3.25
   4  -3   3    3.31    1.13
   4  -3   3    2.37    1.35
   4   2  -3    4.80    1.37
   4   2  -3    3.01    1.67
  -4  -2   3    5.48    3.21
  -4  -2   3    6.50    3.54
  -4  -2   3    7.80    3.06
  -4  -2   3    3.58    3.02
  -4  -2   3    6.73    4.10
   3   2  -3   13.39    4.08
   3   2  -3   16.81    2.60
   3   2  -3   18.07    2.32
   3   2  -3   19.63    2.52
  -3  -2   3   24.58    6.32
  -3  -2   3   20.44    4.91
  -3  -2   3   20.25    8.03
  -3  -2   3   17.12    5.49
  -3  -2   3   21.99    5.20
  -3  -2   3   17.11    3.58
  -3  -2   3   16.64    6.47
  -3  -2   3   15.85    4.25
   2   2  -3  826.13   40.91
   2   2  -3  837.23   40.73
   2   2  -3  835.58   41.28
   2   2  -3  792.21   43.96
   2   2  -3  727.15   41.01
  -2  -2   3  770.10   44.35
   1   2  -3  740.38   37.06
   1   2  -3  723.00   37.26
   1   2  -3  767.26   36.96
  -1  -2   3  771.38   37.20
  -1  -2   3  701.18   36.92
  -1  -2   3  659.61   38.33
  -1  -2   3  740.04   38.69
   0   2  -3 3295.40  156.26
   0   2  -3 3004.09  157.32
   0  -2   3 3079.84  156.47
  -1   2  -3   98.15    7.13
  -1   2  -3  101.81    6.99
   1  -2   3   86.84    5.73
   1  -2   3   83.86    6.07
   1  -2   3   88.02    5.85
   1  -2   3   94.80    5.53
   1  -2   3  103.18   11.69
  -2   2  -3  350.78   21.76
  -2   2  -3  380.51   20.78
  -2   2  -3  403.59   22.76
  -2   2  -3  329.84   24.48
  -2   2  -3  415.38   23.98
  -2   2  -3  318.19   21.22
  -2   2  -3  376.50   22.27
   2  -2   3  385.51   20.54
   2  -2   3  371.80   21.08
   2  -2   3  390.42   32.73
   2  -2   3  396.12   20.04
   2  -2   3  381.73   20.64
  -3   2  -3   42.94    7.31
  -3   2  -3   67.73    7.46
  -3   2  -3   49.97    4.96
  -3   2  -3   46.87   12.32
  -3   2  -3   41.84    9.56
  -3   2  -3   52.29    7.43
  -3   2  -3   53.64    4.65
  -3   2  -3   48.19    5.28
   3  -2   3   48.53    3.92
   3  -2   3   47.73    4.68
   3  -2   3   46.78    5.46
   3  -2   3   56.81    4.72
  -4   2  -3    0.55    0.87
  -4   2  -3   -0.28    1.35
  -4   2  -3   -0.14    1.84
  -4   2  -3    0.67    2.75
  -4   2  -3    0.71    0.74
   4  -2   3    0.67    1.17
   4  -2   3   -0.16    0.94
   4  -2   3    0.89    2.14
   4   1  -3    2.09    1.33
   4   1  -3    0.07    1.17
   4   1  -3   -0.02    1.79
  -4  -1   3    2.34    3.23
  -4  -1   3    1.60    2.53
  -4  -1   3    1.12    2.10
  -4  -1   3   -1.72    1.72
  -4  -1   3    3.09    1.40
  -4  -1   3    1.51    1.77
   3   1  -3   65.88    4.71
   3   1  -3   59.58    4.90
   3   1  -3   63.13    7.42
   3   1  -3   66.40    4.97
  -3  -1   3   57.29    7.07
  -3  -1   3   56.53    9.55
  -3  -1   3   59.81    8.50
  -3  -1   3   57.47    7.47
  -3  -1   3   62.00   11.06
  -3  -1   3   55.39   11.51
  -3  -1   3   59.91    5.22
   2   1  -3  447.07   22.85
   2   1  -3  455.33   22.78
   2   1  -3  429.13   23.11
   2   1  -3  430.82   23.21
   2   1  -3  432.33   25.59
  -2  -1   3  433.77   26.85
   1   1  -3 1388.64   71.48
   1   1  -3 1487.70   71.82
   1   1  -3 1477.16   71.83
  -1  -1   3 1414.04   73.55
  -1  -1   3 1362.18   71.46
  -1  -1   3 1420.99   71.56
   0   1  -3 1279.65   64.28
   0   1  -3 1124.74   57.46
   0   1  -3 1075.18   57.75
   0   1  -3 1148.48   57.66
   0  -1   3 1090.66   57.41
  -1   1  -3  299.04   16.96
  -1   1  -3  320.54   17.61
  -1   1  -3  309.03   16.35
   1  -1   3  265.78   16.09
   1  -1   3  305.31   15.55
   1  -1   3  320.08   22.63
   1  -1   3  304.41   15.72
   1  -1   3  302.73   16.01
  -2   1  -3    2.96    1.47
  -2   1  -3    3.93    1.50
  -2   1  -3    5.89    3.16
  -2   1  -3    4.61    4.08
  -2   1  -3    5.56    2.28
  -2   1  -3    5.75    2.00
   2  -1   3    4.68    1.15
   2  -1   3    5.54    3.99
   2  -1   3    6.13    1.36
   2  -1   3    6.49    1.13
  -3   1  -3  483.60   28.31
  -3   1  -3  419.43   35.98
  -3   1  -3  438.10   38.77
  -3   1  -3  449.76   27.03
  -3   1  -3  463.21   25.47
  -3   1  -3  439.66   30.81
  -3   1  -3  460.65   25.83
  -3   1  -3  534.03   30.86
   3  -1   3  491.14   25.22
   3  -1   3  451.49   24.42
  -4   1  -3   14.68   10.53
  -4   1  -3    6.83    1.78
  -4   1  -3   10.78    1.71
  -4   1  -3    8.47    3.31
  -4   1  -3    8.83    4.07
   4  -1   3   12.92    2.18
   4  -1   3   10.91    2.48
   4   0  -3    0.79    1.14
   4   0  -3    1.41    1.26
   4   0  -3   -0.71    1.33
  -4   0   3    1.49    1.59
  -4   0   3   -0.29    2.24
  -4   0   3   -0.17    2.10
  -4   0   3    0.18    0.74
  -4   0   3    0.59    1.95
   3   0  -3  440.69   23.44
   3   0  -3  453.23   23.22
  -3   0   3  389.17   33.60
  -3   0   3  471.45   23.11
  -3   0   3  401.32   26.59
  -3   0   3  399.08   31.70
  -3   0   3  422.36   27.13
  -3   0   3  460.62   24.32
  -3   0   3  389.56   34.89
   2   0  -3  631.13   32.43
   2   0  -3  617.78   31.95
   2   0  -3  626.07   34.55
   2   0  -3  602.86   32.21
  -2   0   3  614.74   36.51
   1   0  -3  903.02   47.79
   1   0  -3  980.32   48.15
   1   0  -3  895.93   49.14
   1   0  -3  961.74   47.78
  -1   0   3  919.10   47.85
  -1   0   3 1024.43   47.75
   0   0  -3   41.98    2.76
   0   0  -3   35.34    2.66
   0   0  -3   44.98    2.82
   0   0  -3   45.73    5.96
   0   0   3   37.84    2.52
   0   0   3   39.80    2.60
   0   0   3   37.09    5.70
  -1   0  -3  496.78   24.42
  -1   0  -3  455.09   25.00
  -1   0  -3  486.07   25.66
   1   0   3  489.80   29.92
   1   0   3  456.81   24.01
   1   0   3  462.86   23.76
   1   0   3  464.66   23.62
   1   0   3  439.30   24.06
  -2   0  -3   25.65    3.74
  -2   0  -3   28.56    4.21
   2   0   3   29.07    2.05
   2   0   3   25.84    6.64
   2   0   3   25.00    1.59
   2   0   3   26.04    2.53
   2   0   3   27.25    2.23
   2   0   3   28.90    2.52
   2   0   3   28.76    1.62
  -3   0  -3  358.71   20.94
  -3   0  -3  357.81   18.88
  -3   0  -3  304.28   19.97
  -3   0  -3  305.35   23.22
  -3   0  -3  268.44   27.46
  -3   0  -3  320.45   19.00
  -3   0  -3  368.99   27.58
  -3   0  -3  302.97   29.32
   3   0   3  331.33   18.27
   3   0   3  343.06   17.99
  -4   0  -3   31.79    5.61
  -4   0  -3   33.23    3.93
  -4   0  -3   30.67    4.05
  -4   0  -3   30.89    7.58
  -4   0  -3   30.88    8.07
   4   0   3   34.19    3.68
   4   0   3   49.06    4.71
   4  -1  -3   73.52    5.27
   4  -1  -3   77.61    5.45
   4  -1  -3   67.89    5.43
  -4   1   3   68.86   12.16
  -4   1   3   60.65    5.40
  -4   1   3   59.55   10.31
  -4   1   3   89.08   10.52
  -4   1   3   78.38    9.53
   3  -1  -3  268.05   14.86
   3  -1  -3  251.54   15.02
   3  -1  -3  247.83   15.66
   3  -1  -3  255.12   15.04
   3  -1  -3  256.86   18.98
   3  -1  -3  262.21   17.78
  -3   1   3  236.67   25.86
  -3   1   3  260.96   18.46
  -3   1   3  241.70   22.47
  -3   1   3  248.70   20.96
  -3   1   3  225.54   24.01
  -3   1   3  278.60   15.85
  -3   1   3  277.51   15.12
   2  -1  -3  516.31   28.80
   2  -1  -3  589.26   31.20
   2  -1  -3  533.36   28.60
  -2   1   3  551.34   29.57
  -2   1   3  551.80   29.53
  -2   1   3  546.38   33.51
   1  -1  -3   39.74    3.79
   1  -1  -3   40.20    3.10
   1  -1  -3   35.14    2.74
  -1   1   3   43.65    2.79
  -1   1   3   40.66    4.59
   0  -1  -3    9.68    3.09
   0  -1  -3   10.92    1.53
   0  -1  -3    8.61    1.23
   0  -1  -3   11.63    1.34
   0   1   3    8.87    1.33
   0   1   3    7.12    2.86
   0   1   3    9.91    1.10
  -1  -1  -3    8.41    1.71
  -1  -1  -3   11.52    2.41
  -1  -1  -3   10.31    1.81
   1   1   3    9.43    0.91
   1   1   3   10.31    0.86
   1   1   3   11.47    3.14
   1   1   3    8.56    0.93
   2   1   3 9999.00  498.19
  -3  -1  -3   10.04    3.06
  -3  -1  -3    9.58    2.34
  -3  -1  -3    8.12    3.81
  -3  -1  -3   12.05    3.18
  -3  -1  -3    9.01    5.07
  -3  -1  -3   17.28    4.66
  -3  -1  -3    9.75    5.66
  -3  -1  -3   11.49    2.45
   3   1   3   18.73    8.02
   3   1   3   15.29    1.94
   3   1   3   11.07    1.18
  -4  -1  -3   30.90    5.23
  -4  -1  -3   26.06    7.03
  -4  -1  -3   23.93    3.42
  -4  -1  -3   29.94    7.45
  -4  -1  -3   31.08    3.27
   4  -2  -3  248.70   14.35
   4  -2  -3  265.97   14.67
  -4   2   3  233.96   19.92
  -4   2   3  227.44   20.38
  -4   2   3  293.45   16.12
  -4   2   3  265.32   14.63
   3  -2  -3  407.81   23.07
   3  -2  -3  405.46   23.64
   3  -2  -3  420.92   22.91
   3  -2  -3  439.80   25.83
   3  -2  -3  369.59   22.96
  -3   2   3  483.09   24.18
  -3   2   3  419.90   31.61
  -3   2   3  389.03   26.01
  -3   2   3  367.04   33.11
  -3   2   3  455.07   23.64
  -3   2   3  403.82   29.64
   2  -2  -3   11.54    2.14
   2  -2  -3   11.48    2.06
   2  -2  -3   15.31    3.71
   2  -2  -3   14.77    1.99
   2  -2  -3    8.35    2.46
   2  -2  -3   15.19    3.03
  -2   2   3   10.72    2.09
  -2   2   3    9.33    4.48
  -2   2   3   13.56    9.47
  -2   2   3    6.45    1.57
  -2   2   3   14.78    4.67
  -2   2   3   13.71    2.21
  -2   2   3    7.81    3.05
  -2   2   3   12.16    2.49
   1  -2  -3    6.32    1.55
   1  -2  -3    5.49    1.32
  -1   2   3    9.33    1.56
  -1   2   3    5.75    0.97
  -1   2   3    5.25    2.17
   0   2   3 3788.32  189.46
  -1  -2  -3   82.91    5.79
  -1  -2  -3   89.47    6.43
   1   2   3   84.44    4.78
   1   2   3   94.24    5.39
   1   2   3   83.23    4.93
  -2  -2  -3   23.21    3.26
  -2  -2  -3   29.18    3.99
  -2  -2  -3   27.01    3.78
   2   2   3   22.38    2.55
   2   2   3   25.01    1.49
   2   2   3   22.01    5.09
   2   2   3   26.05    2.17
   2   2   3   22.85    1.59
  -3  -2  -3   21.97    7.42
  -3  -2  -3   22.41    7.30
  -3  -2  -3   17.19    3.27
  -3  -2  -3   20.59    3.09
  -3  -2  -3   23.11    3.75
  -3  -2  -3   27.93    5.09
  -3  -2  -3   23.35    3.71
  -3  -2  -3   26.55    3.88
  -3  -2  -3   18.33    5.07
   3   2   3   25.91    8.55
  -4  -2  -3    2.89    2.20
  -4  -2  -3    2.28    1.30
  -4  -2  -3    3.31    2.91
   4  -3  -3    6.55    1.48
   4  -3  -3    4.57    1.12
  -4   3   3    7.16    3.61
  -4   3   3    8.14    3.14
   3  -3  -3  651.49   33.61
   3  -3  -3  630.09   33.32
   3  -3  -3  555.13   33.43
   3  -3  -3  657.06   36.50
   3  -3  -3  686.39   35.48
  -3   3   3  655.87   36.06
  -3   3   3  596.28   36.07
  -3   3   3  659.18   49.05
  -3   3   3  558.33   39.72
  -3   3   3  542.66   44.77
  -3   3   3  671.61   34.40
   2  -3  -3   26.48    5.16
   2  -3  -3   33.99    3.21
   2  -3  -3   30.48    3.33
   2  -3  -3   31.83    3.36
   2  -3  -3   23.99    3.74
   2  -3  -3   31.08    4.42
  -2   3   3   28.14    3.81
  -2   3   3   19.85    4.26
  -2   3   3   35.68    3.63
  -2   3   3   29.73    8.10
  -2   3   3   25.76    6.15
  -2   3   3   31.72    5.67
  -2   3   3   29.73    3.62
   1  -3  -3   21.26    2.26
   1  -3  -3   20.33    2.37
   1  -3  -3   21.91    2.42
   1  -3  -3   25.58    3.19
  -1   3   3   18.62    2.61
  -1   3   3   25.12    2.14
  -1   3   3   22.73    3.73
  -1   3   3   22.86    2.43
   0  -3  -3  634.71   32.34
   0  -3  -3  598.36   31.24
   0  -3  -3  611.77   32.42
   0   3   3  586.08   31.40
  -1  -3  -3  656.30   35.66
  -1  -3  -3  732.32   37.05
   1   3   3  677.21   34.72
   1   3   3  659.05   34.94
   1   3   3  682.77   34.50
  -2  -3  -3   77.76    6.13
  -2  -3  -3   84.36    6.14
  -2  -3  -3   89.29    8.03
  -2  -3  -3   69.39    6.74
  -2  -3  -3   76.41    6.37
  -2  -3  -3   89.48    8.14
  -2  -3  -3   79.37    6.41
   2   3   3   80.53    4.71
   2   3   3   87.47    8.68
   2   3   3   83.10    4.66
   2   3   3   81.44    5.48
  -3  -3  -3    3.79    1.94
  -3  -3  -3    5.30    2.18
  -3  -3  -3    1.65    3.19
  -3  -3  -3    4.85    2.08
  -3  -3  -3    5.06    1.91
  -3  -3  -3    3.62    3.75
  -3  -3  -3    8.08    4.38
  -3  -3  -3    8.27    2.08
  -3  -3  -3    4.96    2.84
  -3  -3  -3    4.77    1.92
  -3  -3  -3    4.36    1.47
  -4  -3  -3    4.35    2.17
  -4  -3  -3    2.66    2.00
  -4  -3  -3    3.44    2.93
  -4  -3  -3    0.34    3.59
   3  -4  -3  103.90    7.46
   3  -4  -3  103.84    9.33
   3  -4  -3   96.69    7.65
   3  -4  -3  105.58    7.36
  -3   4   3  108.05    7.95
  -3   4   3  108.31    8.84
  -3   4   3   81.35   12.60
  -3   4   3  115.46   12.00
  -3   4   3  122.00    8.01
   2  -4  -3  720.72   39.80
   2  -4  -3  720.80   40.41
   2  -4  -3  711.89   38.22
   2  -4  -3  678.04   37.87
   2  -4  -3  721.34   37.74
   2  -4  -3  712.07   38.83
   2  -4  -3  750.48   37.66
   2  -4  -3  735.38   40.89
  -2   4   3  769.86   39.27
  -2   4   3  765.48   46.30
  -2   4   3  604.41   39.36
  -2   4   3  656.42   42.58
  -2   4   3  651.51   39.97
  -2   4   3  758.22   39.59
   1  -4  -3 2508.05  128.02
   1  -4  -3 2447.36  129.01
   1  -4  -3 2741.21  129.41
   1  -4  -3 2470.36  127.26
   1  -4  -3 2531.00  126.86
   1  -4  -3 2535.23  126.71
   1  -4  -3 2471.29  127.07
  -1   4   3 2565.79  126.95
  -1   4   3 2508.21  126.04
  -1   4   3 2712.95  127.84
  -1   4   3 2653.38  127.56
  -1   4   3 2261.80  129.78
  -1   4   3 2331.20  128.06
  -1   4   3 2496.84  128.86
   0  -4  -3 1476.92   70.21
   0  -4  -3 1345.22   68.44
   0  -4  -3 1315.26   70.36
   0   4   3 1371.92   68.72
   0   4   3 1324.44   68.83
   0   4   3 1266.52   69.76
   0   4   3 1358.07   68.50
  -1  -4  -3  513.14   28.42
   1   4   3  483.05   25.60
   1   4   3  501.90   25.99
   1   4   3  481.67   25.85
  -2  -4  -3   84.77    6.39
  -2  -4  -3   78.36    6.88
  -2  -4  -3   85.33    7.48
  -2  -4  -3  101.40    9.26
  -2  -4  -3   84.42    6.52
  -2  -4  -3   90.15    7.59
   2   4   3   91.92    6.07
   2   4   3   86.15    5.26
   2   4   3   71.12    4.76
  -3  -4  -3   22.16    3.53
  -3  -4  -3   14.71    4.59
  -3  -4  -3   19.74    4.09
  -3  -4  -3   12.97    4.99
  -3  -4  -3   13.44    2.80
  -3  -4  -3   18.49    3.91
  -3  -4  -3   23.67    6.50
  -3  -4  -3   12.98    2.98
  -3  -4  -3   16.76    2.97
  -4  -4  -3   -1.53    2.14
  -4  -4  -3    0.42    1.55
  -4  -4  -3   -1.41    1.56
  -4  -4  -3   -0.86    1.55
  -4  -4  -3   -3.04    1.30
  -4  -4  -3   -1.16    2.28
   3  -5  -3   64.86    5.31
   3  -5  -3   67.04    6.75
   3  -5  -3   70.04    5.47
   3  -5  -3   71.66    5.25
  -3   5   3   51.78    8.75
  -3   5   3   73.15    5.68
  -3   5   3   73.82    5.46
   2  -5  -3  569.77   32.06
   2  -5  -3  528.92   30.43
   2  -5  -3  556.44   29.91
   2  -5  -3  488.06   31.13
   2  -5  -3  569.90   30.64
   2  -5  -3  561.82   32.85
   2  -5  -3  571.75   30.14
  -2   5   3  605.35   32.13
  -2   5   3  592.53   31.84
  -2   5   3  530.59   33.61
   1  -5  -3  254.76   15.58
   1  -5  -3  207.64   21.90
   1  -5  -3  256.13   14.45
   1  -5  -3  243.78   14.39
   1  -5  -3  229.51   16.55
   1  -5  -3  258.13   15.81
   1  -5  -3  243.82   13.87
   1  -5  -3  261.06   14.11
   1  -5  -3  236.48   16.16
  -1   5   3  245.60   15.56
  -1   5   3  253.85   16.28
  -1   5   3  214.14   16.41
  -1   5   3  271.82   14.72
  -1   5   3  264.23   14.66
   0  -5  -3  155.09   10.74
   0  -5  -3  149.72   11.25
   0  -5  -3  133.06   15.45
   0  -5  -3  151.24   10.06
   0   5   3  146.81    9.48
   0   5   3  153.76    8.87
   0   5   3  157.25    9.62
   0   5   3  155.90    9.37
   0   5   3  152.74    9.11
   0   5   3  142.27   10.61
   0   5   3  146.32   10.13
  -1  -5  -3  580.88   32.64
  -1  -5  -3  671.60   34.94
  -1  -5  -3  566.10   32.75
  -1  -5  -3  617.26   35.27
  -1  -5  -3  673.67   41.41
  -1  -5  -3  594.17   32.66
   1   5   3  606.18   32.65
   1   5   3  631.87   32.37
   1   5   3  579.37   31.91
  -2  -5  -3  261.54   15.79
  -2  -5  -3  274.67   19.59
  -2  -5  -3  274.54   17.42
  -2  -5  -3  244.47   16.40
  -2  -5  -3  295.74   17.67
  -2  -5  -3  258.46   15.89
   2   5   3  244.11   14.25
   2   5   3  254.32   14.28
   2   5   3  275.98   14.89
  -3  -5  -3    0.02    1.18
  -3  -5  -3    1.12    1.83
  -3  -5  -3    0.65    2.38
  -3  -5  -3   -2.49    2.71
  -3  -5  -3    0.39    1.35
  -3  -5  -3   -0.16    1.07
  -3  -5  -3    2.26    3.41
  -3  -5  -3   -1.73    1.15
   3   5   3   -1.54    1.26
  -4  -5  -3   12.48    4.19
  -4  -5  -3   14.20    2.06
  -4  -5  -3   15.27    2.78
   3  -6  -3   15.33    1.98
   3  -6  -3   15.75    1.84
   3  -6  -3   20.37    3.43
  -3   6   3   10.46    3.90
  -3   6   3   16.68    2.14
   2  -6  -3   37.89    3.69
   2  -6  -3   36.01    3.91
   2  -6  -3   31.49    4.64
   2  -6  -3   35.66    3.97
   2  -6  -3   39.53    5.59
  -2   6   3   25.62    7.92
  -2   6   3   33.43    4.20
   1  -6  -3  208.39   14.23
   1  -6  -3  221.33   12.78
   1  -6  -3  212.27   14.94
   1  -6  -3  203.82   14.42
   1  -6  -3  215.39   12.38
  -1   6   3  213.13   14.97
  -1   6   3  224.81   13.18
  -1   6   3  204.63   14.18
   0  -6  -3   74.53    6.14
   0  -6  -3   56.85    6.35
   0  -6  -3   64.01    6.60
   0  -6  -3   65.79    6.88
   0  -6  -3   58.08   10.83
   0   6   3   73.77    5.25
   0   6   3   73.55    6.39
   0   6   3   62.40    6.47
   0   6   3   68.10    5.71
   0   6   3   61.30    6.19
   0   6   3   62.11    5.40
   0   6   3   71.44    5.63
  -1  -6  -3  299.65   19.91
  -1  -6  -3  290.46   17.12
  -1  -6  -3  285.05   16.93
  -1  -6  -3  302.49   24.98
  -1  -6  -3  316.03   18.86
  -1  -6  -3  283.02   16.80
   1   6   3  315.91   17.66
   1   6   3  298.19   16.51
   1   6   3  294.26   16.92
   1   6   3  292.65   16.16
   1   6   3  263.36   16.58
   1   6   3  247.80   17.60
  -2  -6  -3   17.87    4.08
  -2  -6  -3   19.28    5.61
  -2  -6  -3   25.56    6.88
  -2  -6  -3   20.82    3.58
  -2  -6  -3   15.26    2.94
  -2  -6  -3   16.54    3.69
  -2  -6  -3    7.15    3.05
   2   6   3   17.97    2.25
   2   6   3   18.93    2.58
  -3  -6  -3  245.96   15.27
  -3  -6  -3  275.40   26.32
  -3  -6  -3  277.79   17.32
  -3  -6  -3  229.81   16.70
  -3  -6  -3  287.65   23.08
  -3  -6  -3  243.17   15.30
   3   6   3  217.44   13.71
  -4  -6  -3   58.08    4.58
  -4  -6  -3   72.46    4.83
  -4  -6  -3   76.00   10.53
  -4  -6  -3   68.79    5.57
   2  -7  -3  242.80   16.23
   2  -7  -3  247.87   13.65
   2  -7  -3  258.85   16.04
  -2   7   3  232.20   15.23
   1  -7  -3   16.71    3.66
   1  -7  -3   20.16    4.58
   1  -7  -3   21.22    4.72
  -1   7   3   17.34    3.90
  -1   7   3   16.92    3.51
  -1   7   3   14.60    3.84
  -1   7   3   28.16    3.18
   0  -7  -3  208.24   13.65
   0  -7  -3  202.91   14.01
   0  -7  -3  172.36   20.37
   0  -7  -3  188.01   14.35
   0  -7  -3  246.40   18.63
   0   7   3  190.80   13.58
   0   7   3  214.49   13.10
   0   7   3  215.57   13.05
   0   7   3  210.82   13.65
   0   7   3  208.37   14.58
  -1  -7  -3  511.49   27.49
  -1  -7  -3  561.44   30.18
  -1  -7  -3  490.03   27.74
  -1  -7  -3  504.36   27.87
  -1  -7  -3  508.22   37.93
   1   7   3  478.85   27.45
   1   7   3  461.23   28.87
   1   7   3  486.96   27.39
  -2  -7  -3   37.56    5.35
  -2  -7  -3   40.50    4.45
  -2  -7  -3   39.52    8.75
  -2  -7  -3   45.18    5.68
  -2  -7  -3   40.53    8.48
  -2  -7  -3   41.06    4.67
   2   7   3   39.89    3.86
   2   7   3   35.14    3.47
   2   7   3   39.71    4.11
   2   7   3   37.53    4.32
  -3  -7  -3   64.44    6.54
  -3  -7  -3   59.59    5.37
  -3  -7  -3   59.84    5.19
  -3  -7  -3   60.28    9.75
  -3  -7  -3   57.47    6.43
   3   7   3   53.30    4.37
  -4  -7  -3    5.95    1.45
  -4  -7  -3    8.03    1.42
   2  -8  -3   99.30    7.42
   2  -8  -3   87.53    6.75
  -2   8   3  103.24    7.01
   1  -8  -3  131.64   10.24
   1  -8  -3  135.59   10.03
  -1   8   3  134.88   10.17
  -1   8   3  150.76   11.01
   0  -8  -3   72.68    6.52
   0  -8  -3   56.39    8.24
   0  -8  -3   71.25    9.77
   0   8   3   59.40    8.90
   0   8   3   70.68    6.63
   0   8   3   80.56    9.03
   0   8   3   71.47    6.79
   0   8   3   69.93    6.15
   0   8   3   73.60    5.81
  -1  -8  -3  169.28   12.46
  -1  -8  -3  160.74   12.49
  -1  -8  -3  172.29   11.13
  -1  -8  -3  171.82   11.01
  -1  -8  -3  161.22   14.35
  -1  -8  -3  171.35   10.54
  -1  -8  -3  154.68   18.56
   1   8   3  174.30   11.89
   1   8   3  157.70   12.19
   1   8   3  175.73   11.34
   1   8   3  162.24   10.45
   1   8   3  164.33   10.99
  -2  -8  -3  182.74   19.68
  -2  -8  -3  208.97   12.42
  -2  -8  -3  198.11   12.55
  -2  -8  -3  194.08   12.78
  -2  -8  -3  220.06   14.54
  -2  -8  -3  192.69   13.93
   2   8   3  187.06   11.66
   2   8   3  198.20   12.09
   2   8   3  180.16   13.07
  -3  -8  -3  156.77   10.16
  -3  -8  -3  178.10   10.35
  -3  -8  -3  168.96   22.44
  -3  -8  -3  173.12   11.39
  -3  -8  -3  166.77   11.60
   3   8   3  155.10   10.20
   3   8   3  155.24    9.50
   3   8   3  157.19    9.71
   1  -9  -3  103.10    7.47
   1  -9  -3   92.25    7.77
   1  -9  -3  104.96    7.25
  -1   9   3   99.10    7.37
  -1   9   3  107.73    7.92
   0  -9  -3   82.53    7.03
   0  -9  -3   78.29    6.59
   0   9   3   71.89    6.73
   0   9   3   82.11    7.68
   0   9   3   81.32    5.76
   0   9   3   78.31    5.89
  -1  -9  -3   94.81    6.95
  -1  -9  -3  105.77    8.43
  -1  -9  -3   81.78    7.81
  -1  -9  -3   79.87   12.36
  -1  -9  -3   97.24    6.77
   1   9   3  104.11    7.31
   1   9   3  103.46    7.45
   1   9   3  102.75    8.52
  -2  -9  -3    2.11    0.96
  -2  -9  -3    4.08    1.97
  -2  -9  -3    3.20    1.84
  -2  -9  -3    3.67    1.42
  -2  -9  -3    2.84    3.04
  -2  -9  -3    3.05    1.40
   2   9   3    0.46    2.12
   2   9   3    3.14    1.49
   2   9   3    1.47    0.88
   2   9   3    2.23    1.38
  -3  -9  -3    2.91    1.10
  -3  -9  -3    1.52    0.98
  -3  -9  -3    1.77    1.22
  -3  -9  -3    2.41    2.39
  -3  -9  -3    1.52    1.49
   3   9   3    1.38    0.88
   0 -10  -3   63.24    5.22
   0 -10  -3   62.57    4.94
   0  10   3   66.52    5.80
  -1 -10  -3   10.13    2.36
  -1 -10  -3    9.35    1.71
  -1 -10  -3    5.33    1.83
  -1 -10  -3   10.69    1.68
  -1 -10  -3    9.19    1.52
   1  10   3    8.29    2.26
   1  10   3    5.35    1.25
   1  10   3    9.01    2.29
   1  10   3    4.71    1.75
  -2 -10  -3    0.93    0.96
  -2 -10  -3    0.97    0.80
  -2 -10  -3    0.92    1.14
  -2 -10  -3   -0.40    1.80
  -2 -10  -3   -0.65    1.03
   2  10   3    1.23    0.89
   2  10   3   -0.34    0.68
   2  10  -4  114.73    7.22
   2  10  -4   88.48    5.76
   2  10  -4   84.95    6.34
  -2 -10   4   89.89    5.99
   1  10  -4  185.33   10.48
   1  10  -4  189.27   12.00
  -1 -10   4  189.75   10.98
  -1 -10   4  187.75   11.60
  -1 -10   4  187.62   10.99
   0  10  -4   17.24    3.34
   0  10  -4   19.89    2.93
   0 -10   4   20.70    2.46
   3   9  -4   48.45    3.49
   3   9  -4   37.04    4.14
  -3  -9   4   47.95    3.60
  -3  -9   4   37.12    5.29
  -3  -9   4   48.47    3.48
   2   9  -4  224.69   13.84
   2   9  -4  201.59   12.16
   2   9  -4  194.83   12.85
   2   9  -4  195.17   11.55
  -2  -9   4  200.86   12.16
  -2  -9   4  195.64   12.42
  -2  -9   4  196.42   12.40
  -2  -9   4  208.32   11.93
  -2  -9   4  192.00   10.74
   1   9  -4   34.35    4.62
   1   9  -4   26.04    3.95
   1   9  -4   34.47    3.31
   1   9  -4   34.61    3.57
  -1  -9   4   32.14    3.69
  -1  -9   4   39.73    4.03
   0   9  -4    9.36    2.08
   0   9  -4   11.44    2.64
   0  -9   4   20.27    3.44
   0  -9   4   16.10    2.61
   0  -9   4    9.45    2.21
  -1   9  -4   72.19    5.78
   1  -9   4   72.03    5.85
   1  -9   4   70.98    5.69
   3   8  -4    2.24    1.02
   3   8  -4    0.88    0.96
   3   8  -4    1.51    1.06
  -3  -8   4    2.47    1.03
  -3  -8   4    1.59    2.00
  -3  -8   4    1.19    2.48
  -3  -8   4    0.52    1.01
  -3  -8   4    1.70    1.27
   2   8  -4   62.40    6.46
   2   8  -4   69.75    5.57
   2   8  -4   66.18    5.13
   2   8  -4   67.21    5.61
  -2  -8   4   64.44    9.59
  -2  -8   4   70.45    5.98
  -2  -8   4   66.34    5.17
  -2  -8   4   71.54    6.48
  -2  -8   4   69.84    6.13
  -2  -8   4   75.98    6.85
   1   8  -4  334.58   19.15
   1   8  -4  335.42   19.02
   1   8  -4  309.04   20.76
   1   8  -4  339.59   20.97
  -1  -8   4  344.71   19.10
  -1  -8   4  323.01   19.65
   0   8  -4    2.77    1.23
   0   8  -4    2.41    1.67
   0   8  -4    4.53    2.38
   0  -8   4    6.80    2.24
   0  -8   4    7.30    2.35
  -1   8  -4  112.83    8.63
  -1   8  -4  112.71    8.78
   1  -8   4  103.02    8.93
   1  -8   4  115.27    8.61
  -2   8  -4   27.77    5.94
  -2   8  -4   32.89    3.19
   2  -8   4   35.86    3.98
   3   7  -4  550.18   32.08
   3   7  -4  550.13   31.93
   3   7  -4  532.00   29.82
  -3  -7   4  666.54   39.43
  -3  -7   4  554.98   31.29
  -3  -7   4  565.09   31.32
  -3  -7   4  590.79   32.93
  -3  -7   4  553.70   36.87
   2   7  -4  288.88   18.98
   2   7  -4  304.42   17.57
   2   7  -4  324.78   17.64
   2   7  -4  292.53   18.55
   2   7  -4  302.12   16.95
  -2  -7   4  301.41   18.55
  -2  -7   4  308.66   19.71
  -2  -7   4  312.88   18.65
  -2  -7   4  297.74   17.50
  -2  -7   4  304.04   24.69
   1   7  -4    6.09    2.78
   1   7  -4    1.89    2.11
   1   7  -4    5.36    1.72
   1   7  -4    5.70    1.49
   1   7  -4    9.45    2.79
   1   7  -4    6.81    1.85
  -1  -7   4    4.33    3.57
  -1  -7   4    5.00    1.89
  -1  -7   4    6.86    1.89
  -1  -7   4    4.35    1.93
   0   7  -4  390.58   21.50
   0   7  -4  391.22   21.72
   0   7  -4  352.67   22.74
   0   7  -4  399.61   24.33
   0   7  -4  353.53   23.51
   0   7  -4  393.34   21.10
   0   7  -4  378.88   23.51
   0  -7   4  405.34   23.04
   0  -7   4  385.61   23.70
  -1   7  -4   51.57    6.84
  -1   7  -4   58.10    7.74
  -1   7  -4   45.30    6.78
  -1   7  -4   67.65   11.70
   1  -7   4   57.76    5.92
   1  -7   4   53.47    5.49
  -2   7  -4   68.06    5.93
   2  -7   4   70.47    5.16
   2  -7   4   71.22    6.81
   2  -7   4   71.64    5.31
  -4  -6   4   16.79    2.39
  -4  -6   4   21.20    3.06
  -4  -6   4   22.33    5.10
  -4  -6   4   19.33    4.73
   3   6  -4   27.72    2.91
   3   6  -4   29.47    3.08
   3   6  -4   30.76    3.52
  -3  -6   4   33.31    4.50
  -3  -6   4   22.58    4.41
  -3  -6   4   19.02    3.27
  -3  -6   4   34.16    7.58
  -3  -6   4   27.87    3.88
   2   6  -4    4.50    1.72
   2   6  -4    3.49    1.38
   2   6  -4    1.17    0.96
   2   6  -4    1.10    0.97
   2   6  -4   -0.27    2.10
  -2  -6   4    0.70    1.40
  -2  -6   4    5.14    4.15
  -2  -6   4    1.31    1.60
  -2  -6   4    1.31    1.04
  -2  -6   4    2.58    3.03
  -2  -6   4    2.97    2.22
   1   6  -4 1039.92   52.08
   1   6  -4 1039.63   52.42
   1   6  -4  981.48   53.43
   1   6  -4 1017.78   52.67
   1   6  -4  938.73   54.32
  -1  -6   4 1026.71   53.66
  -1  -6   4  964.55   53.34
  -1  -6   4  915.88   53.53
  -1  -6   4  997.39   54.93
  -1  -6   4 1018.72   54.60
  -1  -6   4 1026.21   60.84
  -1  -6   4 1179.15   61.45
   0   6  -4 3487.69  171.91
   0   6  -4 3436.18  171.13
   0   6  -4 3305.77  173.10
   0   6  -4 3482.09  172.75
   0   6  -4 3308.48  173.79
   0   6  -4 3682.07  171.83
   0  -6   4 3379.83  171.10
   0  -6   4 2872.20  187.44
   0  -6   4 3467.53  174.18
   0  -6   4 3634.56  173.25
  -1   6  -4    5.52    2.32
  -1   6  -4    7.02    2.18
  -1   6  -4    7.41    2.95
   1  -6   4    4.71    6.59
   1  -6   4    7.89    3.28
   1  -6   4    4.86    2.18
   1  -6   4    8.86    2.11
   1  -6   4    6.43    1.79
   1  -6   4    7.79    2.13
   1  -6   4    4.44    1.69
  -2   6  -4  144.15   12.67
  -2   6  -4  164.50   11.38
   2  -6   4  159.42   10.28
   2  -6   4  172.83   12.71
   2  -6   4  166.26   10.69
   2  -6   4  154.37   10.20
  -3   6  -4   25.63    6.37
   3  -6   4   32.04    2.86
   3  -6   4   30.40    4.47
   3  -6   4   25.69    2.60
   4   5  -4   62.42    4.23
  -4  -5   4   67.50    6.10
  -4  -5   4   63.81    8.66
  -4  -5   4   51.10    4.75
   3   5  -4   31.16    3.18
   3   5  -4   29.10    4.81
   3   5  -4   22.82    2.86
  -3  -5   4   28.96    5.48
  -3  -5   4   29.06    5.25
  -3  -5   4   34.31    8.15
   2   5  -4 1339.11   72.01
   2   5  -4 1332.67   71.42
   2   5  -4 1333.78   73.16
   2   5  -4 1417.45   70.87
   2   5  -4 1419.31   71.00
  -2  -5   4 1449.37   77.80
  -2  -5   4 1485.98   85.79
  -2  -5   4 1387.69   71.75
   1   5  -4  156.05   10.06
   1   5  -4  166.17    9.64
   1   5  -4  163.13   10.53
   1   5  -4  171.73   10.40
   1   5  -4  179.20   15.45
   1   5  -4  164.14    9.78
  -1  -5   4  148.70   11.48
  -1  -5   4  155.35   10.63
  -1  -5   4  194.44   16.15
  -1  -5   4  143.05   11.65
  -1  -5   4  191.31   16.02
   0   5  -4 1338.20   67.52
   0   5  -4 1309.32   69.32
   0   5  -4 1395.90   67.72
   0   5  -4 1423.76   67.28
   0   5  -4 1314.34   69.20
   0   5  -4 1200.13   68.68
   0   5  -4 1335.58   68.33
   0   5  -4 1359.69   67.75
   0  -5   4 1310.43   69.85
   0  -5   4 1261.08   67.27
   0  -5   4 1282.37   82.26
   0  -5   4 1326.85   67.53
   0  -5   4 1315.34   68.83
  -1   5  -4  329.95   20.66
  -1   5  -4  345.28   19.50
  -1   5  -4  358.21   22.17
  -1   5  -4  360.51   21.24
   1  -5   4  343.21   19.72
   1  -5   4  329.48   21.79
   1  -5   4  338.97   19.63
   1  -5   4  358.53   21.14
   1  -5   4  345.08   20.17
   1  -5   4  335.81   19.37
   1  -5   4  399.93   34.07
  -2   5  -4   20.23    5.33
  -2   5  -4   25.72    3.83
  -2   5  -4   19.72    6.63
  -2   5  -4   23.70    3.04
  -2   5  -4   16.27    4.35
  -2   5  -4   23.84    3.23
   2  -5   4   22.46    3.65
   2  -5   4   28.49    3.61
   2  -5   4   21.26    4.54
   2  -5   4   20.99    2.84
   2  -5   4   28.46    3.44
  -3   5  -4   28.77    8.44
  -3   5  -4   33.39    2.96
  -3   5  -4   35.51    2.89
  -3   5  -4   30.36    3.07
  -3   5  -4   27.33    4.53
  -3   5  -4   24.36    7.64
   3  -5   4   34.83    3.90
   3  -5   4   29.37    3.25
   3  -5   4   25.59    4.12
   3  -5   4   26.84    3.18
   4   4  -4   62.43    4.82
   4   4  -4   65.59    4.86
  -4  -4   4   68.21    9.87
  -4  -4   4   80.65    8.22
   3   4  -4   42.37    3.58
   3   4  -4   41.37    3.70
   3   4  -4   37.02    4.09
  -3  -4   4   38.97    9.20
  -3  -4   4   45.50    5.04
  -3  -4   4   41.49    6.16
   2   4  -4  533.01   32.62
   2   4  -4  548.26   31.81
   2   4  -4  573.76   29.17
   2   4  -4  581.31   30.16
  -2  -4   4  579.69   39.59
  -2  -4   4  558.37   29.88
  -2  -4   4  530.13   32.97
   1   4  -4 3181.23  166.28
   1   4  -4 3406.34  165.94
   1   4  -4 3426.92  166.03
   1   4  -4 3313.10  166.79
  -1  -4   4 3239.66  168.25
   0   4  -4  232.63   13.14
   0   4  -4  228.98   13.72
   0   4  -4  229.81   12.36
   0   4  -4  232.90   12.53
   0  -4   4  181.60   13.77
   0  -4   4  210.04   12.68
   0  -4   4  231.83   12.54
   0  -4   4  241.86   22.47
  -1   4  -4   32.80    4.39
  -1   4  -4   30.10    3.71
  -1   4  -4   31.70    2.85
  -1   4  -4   27.06    3.28
   1  -4   4   28.76    3.25
   1  -4   4   39.48    8.89
   1  -4   4   27.94    3.16
   1  -4   4   27.25    4.86
   1  -4   4   26.47    3.74
  -2   4  -4  105.18   11.58
  -2   4  -4  121.47   13.76
  -2   4  -4   94.12   13.31
  -2   4  -4  120.72    8.04
  -2   4  -4  121.34    8.84
  -2   4  -4  133.10    9.26
  -2   4  -4  110.74    8.63
   2  -4   4  115.96    8.72
   2  -4   4  114.91   10.07
   2  -4   4  122.54   19.52
   2  -4   4  120.66    8.25
  -3   4  -4  133.44   12.46
  -3   4  -4  125.48   14.29
  -3   4  -4  129.36    8.82
  -3   4  -4  120.41   18.73
  -3   4  -4  152.88    9.24
  -3   4  -4  148.86    9.75
   3  -4   4  163.45   13.19
   3  -4   4  151.51    9.86
   3  -4   4  153.43    9.53
   3  -4   4  154.47    9.52
   4   3  -4  473.44   25.05
   4   3  -4  441.36   24.44
   4   3  -4  469.69   24.66
  -4  -3   4  483.00   31.57
   3   3  -4  600.30   32.82
   3   3  -4  592.37   33.31
   3   3  -4  645.47   32.06
  -3  -3   4  602.45   39.22
  -3  -3   4  596.85   33.74
  -3  -3   4  584.53   36.47
  -3  -3   4  521.84   36.67
  -3  -3   4  696.70   36.14
  -3  -3   4  561.27   43.97
  -3  -3   4  675.82   43.22
   2   3  -4    3.66    1.17
   2   3  -4    5.67    1.18
   2   3  -4    7.69    1.83
   2   3  -4    6.82    1.45
  -2  -3   4    3.42    2.42
  -2  -3   4    7.02    3.55
  -2  -3   4    6.34    2.28
  -2  -3   4    3.39    1.91
  -2  -3   4    6.18    1.53
  -2  -3   4    5.35    3.71
   1   3  -4  838.62   41.05
   1   3  -4  714.52   40.25
   1   3  -4  839.31   40.69
  -1  -3   4  782.04   41.79
   0   3  -4 1784.17   88.38
   0   3  -4 1730.77   89.30
   0   3  -4 1799.03   88.45
   0   3  -4 1758.32   88.84
   0  -3   4 1702.80   88.64
   0  -3   4 1755.85   88.43
  -1   3  -4 1104.28   55.99
  -1   3  -4 1090.04   53.81
   1  -3   4 1012.68   53.84
   1  -3   4 1162.79   66.56
   1  -3   4  957.28   54.24
   1  -3   4 1039.68   53.48
   1  -3   4 1033.88   54.34
  -2   3  -4  160.43   11.16
  -2   3  -4  151.28   14.51
  -2   3  -4  177.36   12.98
  -2   3  -4  152.77   11.28
  -2   3  -4  171.70   10.59
  -2   3  -4  175.33   11.19
  -2   3  -4  196.73   13.66
   2  -3   4  172.09   10.81
   2  -3   4  173.05   10.12
   2  -3   4  162.21   10.57
   2  -3   4  165.93   11.31
   2  -3   4  183.13   21.94
   2  -3   4  153.88   12.47
  -3   3  -4   73.85    6.75
  -3   3  -4   91.31    6.34
  -3   3  -4   65.25   11.20
  -3   3  -4   81.15   10.04
  -3   3  -4   79.81    6.69
   3  -3   4   82.87    6.98
   3  -3   4   98.57    8.72
   3  -3   4   85.42    6.54
   3  -3   4   91.37    6.52
  -4   3  -4   28.60    8.04
  -4   3  -4   31.99    4.72
  -4   3  -4   39.87    6.43
   4  -3   4   30.56    3.01
   4  -3   4   41.20    3.25
   4   2  -4   30.99    3.99
   4   2  -4   27.51    3.19
   4   2  -4   28.86    3.35
  -4  -2   4   34.31    7.13
  -4  -2   4   40.77    5.00
  -4  -2   4   38.18    7.09
  -4  -2   4   39.14    6.55
  -4  -2   4   29.55    7.60
   3   2  -4  234.87   13.56
   3   2  -4  207.98   17.18
   3   2  -4  243.66   13.29
   3   2  -4  224.40   13.86
  -3  -2   4  223.54   21.69
  -3  -2   4  238.85   14.74
  -3  -2   4  251.13   16.89
  -3  -2   4  215.27   23.33
  -3  -2   4  233.25   17.32
  -3  -2   4  235.65   20.39
   2   2  -4  270.44   14.03
   2   2  -4  257.46   14.01
   2   2  -4  267.02   17.15
   2   2  -4  268.74   13.79
  -2  -2   4  224.69   21.76
  -2  -2   4  240.54   20.39
  -2  -2   4  256.51   16.35
  -2  -2   4  232.93   21.25
  -2  -2   4  253.13   17.43
   1   2  -4  143.84    8.26
   1   2  -4  153.16    8.74
   1   2  -4  166.94    8.68
   1   2  -4  155.16    9.04
  -1  -2   4  163.91   11.18
  -1  -2   4  155.72    8.87
   0   2  -4 1715.19   88.66
   0   2  -4 1848.76   88.37
   0   2  -4 1809.67   88.38
   0   2  -4 1753.44   89.01
   0  -2   4 1646.36   88.61
   0  -2   4 1779.47   88.37
  -1   2  -4    1.19    1.10
  -1   2  -4    0.31    1.00
  -1   2  -4   -0.04    0.93
   1  -2   4    1.57    0.82
   1  -2   4    0.74    1.96
   1  -2   4    0.88    0.46
   1  -2   4    1.43    0.63
   1  -2   4    1.12    0.87
  -2   2  -4  685.06   37.48
  -2   2  -4  756.96   40.71
  -2   2  -4  604.24   38.34
  -2   2  -4  662.81   42.43
  -2   2  -4  732.24   38.01
  -2   2  -4  716.89   37.76
  -2   2  -4  758.63   39.76
  -2   2  -4  674.54   37.96
   2  -2   4  714.50   36.70
   2  -2   4  823.53   62.01
   2  -2   4  656.18   42.33
   2  -2   4  731.76   37.35
   2  -2   4  701.84   37.34
  -3   2  -4  266.94   17.75
  -3   2  -4  266.87   29.37
  -3   2  -4  230.48   24.88
  -3   2  -4  278.52   17.02
  -3   2  -4  325.30   20.27
  -3   2  -4  276.32   22.01
  -3   2  -4  341.21   21.73
  -3   2  -4  295.73   16.65
   3  -2   4  280.58   15.80
   3  -2   4  295.58   16.80
   3  -2   4  284.78   17.30
  -4   2  -4   24.84    2.73
  -4   2  -4   23.66    4.18
  -4   2  -4   23.36    2.51
  -4   2  -4   19.91    6.16
  -4   2  -4   24.33    5.51
   4  -2   4   24.32    3.49
   4  -2   4   33.17    3.13
   4   1  -4  192.48   11.85
   4   1  -4  208.05   12.48
   4   1  -4  197.13   12.00
  -4  -1   4  244.76   18.49
  -4  -1   4  209.04   19.08
  -4  -1   4  243.54   14.96
  -4  -1   4  189.82   20.14
  -4  -1   4  178.82   11.67
   3   1  -4   42.56    3.77
   3   1  -4   45.17    5.75
   3   1  -4   44.69    4.19
   3   1  -4   37.38    6.19
   3   1  -4   45.67    4.21
  -3  -1   4   40.39    6.44
  -3  -1   4   43.40    9.32
  -3  -1   4   34.61    7.52
  -3  -1   4   39.44    3.95
  -3  -1   4   44.58    5.97
  -3  -1   4   34.18    9.62
  -3  -1   4   37.30    7.72
   2   1  -4  369.17   18.85
   2   1  -4  383.00   19.50
   2   1  -4  354.15   19.08
   2   1  -4  364.72   18.87
   2   1  -4  368.29   21.92
  -2  -1   4  305.91   27.16
  -2  -1   4  402.62   19.43
  -2  -1   4  347.18   21.53
  -2  -1   4  318.96   26.08
  -2  -1   4  325.35   24.57
  -2  -1   4  359.33   23.30
   1   1  -4    5.97    1.05
   1   1  -4    7.43    1.44
   1   1  -4    7.47    1.14
  -1  -1   4   10.73    1.33
  -1  -1   4   10.89    2.70
   0   1  -4 2505.82  122.28
   0   1  -4 2312.00  122.32
   0  -1   4 2513.23  122.31
  -1   1  -4  856.91   44.79
  -1   1  -4  970.73   46.96
  -1   1  -4  833.99   46.09
   1  -1   4  876.33   44.73
   1  -1   4  837.87   44.62
   1  -1   4  997.16   54.06
   1  -1   4  815.81   45.02
  -2   1  -4   22.18    7.83
  -2   1  -4   27.87    6.74
  -2   1  -4   30.31    4.11
  -2   1  -4   22.65    3.47
  -2   1  -4   24.89    2.96
  -2   1  -4   27.22    4.24
   2  -1   4   27.47    2.24
   2  -1   4   28.58    7.38
   2  -1   4   21.70    2.89
   2  -1   4   23.01    2.55
  -3   1  -4    0.40    2.64
  -3   1  -4    0.65    1.27
  -3   1  -4    0.44    2.16
  -3   1  -4    0.32    3.47
  -3   1  -4    1.35    2.78
  -3   1  -4    1.64    2.11
  -3   1  -4    1.35    1.12
  -3   1  -4    0.06    1.06
   3  -1   4    0.21    1.04
   3  -1   4    1.52    0.82
   3  -1   4    1.04    1.01
  -4   1  -4   72.81    5.03
  -4   1  -4   76.77   11.22
  -4   1  -4   68.69    5.96
  -4   1  -4   69.84   11.40
  -4   1  -4   66.97    8.37
   4  -1   4   75.20    6.36
   4  -1   4   73.47    5.74
   4   0  -4   55.91    5.06
   4   0  -4   62.82    4.88
   4   0  -4   52.44    4.65
  -4   0   4   68.20    8.82
  -4   0   4   56.26   10.38
  -4   0   4   57.53    4.58
  -4   0   4   65.38    9.67
  -4   0   4   73.43    6.65
   3   0  -4    7.45    3.46
   3   0  -4    4.32    1.44
   3   0  -4    4.73    1.67
   3   0  -4    3.61    1.60
   3   0  -4    3.16    1.94
   3   0  -4    0.66    1.85
  -3   0   4    5.71    1.54
  -3   0   4    2.72    2.49
  -3   0   4    6.93    3.11
  -3   0   4    3.07    1.38
  -3   0   4    3.80    3.36
  -3   0   4    4.03    4.23
  -3   0   4    4.63    5.20
  -3   0   4    1.32    2.47
   2   0  -4   26.39    2.72
   2   0  -4   25.37    2.84
   2   0  -4   26.30    3.98
   2   0  -4   28.26    2.50
  -2   0   4   25.81    4.92
  -2   0   4   24.06    2.82
  -2   0   4   20.36    5.07
  -2   0   4   20.21    3.72
  -2   0   4   24.11   11.59
  -1   0   4 4099.09  204.67
   0   0  -4  828.60   41.52
   0   0  -4  877.66   41.50
   0   0  -4  739.27   41.32
   0   0   4  837.15   41.23
   0   0   4  809.52   41.47
   0   0   4  835.40   41.29
   0   0   4  773.99   48.02
  -1   0  -4  540.86   31.06
  -1   0  -4  577.12   30.30
  -1   0  -4  657.18   32.05
   1   0   4  644.83   31.06
   1   0   4  535.41   29.98
   1   0   4  557.40   29.78
   1   0   4  641.93   37.20
   1   0   4  548.58   29.98
  -2   0  -4    2.02    1.60
  -2   0  -4    2.88    3.39
  -2   0  -4    3.07    2.11
  -2   0  -4    1.74    1.22
  -2   0  -4    3.91    1.96
  -2   0  -4    4.57    3.09
  -2   0  -4    2.71    1.67
   2   0   4    4.21    3.46
   2   0   4    3.99    0.92
   2   0   4    3.37    0.73
   2   0   4    2.27    0.64
  -3   0  -4   15.55    3.06
  -3   0  -4   14.75    3.55
  -3   0  -4   11.33    6.32
  -3   0  -4   20.43    5.21
  -3   0  -4   10.54    2.30
  -3   0  -4   12.89    4.82
  -3   0  -4   14.86    7.48
  -3   0  -4   12.72    3.47
   3   0   4   19.81    9.26
   3   0   4   16.47    1.70
   3   0   4   17.38    2.75
   3   0   4   18.02    2.59
  -4   0  -4   17.14    4.38
  -4   0  -4   21.43    3.20
  -4   0  -4   24.59    3.33
  -4   0  -4   17.54    6.46
   4   0   4   22.81    3.29
   4  -1  -4   19.06    2.49
   4  -1  -4   16.45    2.48
   4  -1  -4   17.31    2.40
  -4   1   4   21.64    8.45
  -4   1   4   13.27    5.31
  -4   1   4   17.02    2.17
  -4   1   4   17.88    5.03
   3  -1  -4  384.89   23.83
   3  -1  -4  376.69   21.76
   3  -1  -4  392.86   21.03
   3  -1  -4  365.26   21.40
   3  -1  -4  381.24   21.25
  -3   1   4  363.79   28.20
  -3   1   4  386.49   29.52
  -3   1   4  345.29   30.61
  -3   1   4  425.86   21.60
  -3   1   4  377.11   24.35
  -3   1   4  330.55   33.22
  -3   1   4  356.75   24.36
  -3   1   4  424.01   22.00
   2  -1  -4    1.70    1.00
   2  -1  -4    0.84    0.92
   2  -1  -4    4.01    1.12
   2  -1  -4    1.11    1.07
  -2   1   4    3.02    2.35
  -2   1   4    1.54    1.76
  -2   1   4    5.46    4.30
  -2   1   4   -0.20    1.59
   0  -1  -4 2031.34  109.40
   0  -1  -4 2174.18  102.55
   0   1   4 1973.76  102.43
   0   1   4 1985.37  102.48
  -1  -1  -4  139.70    8.79
  -1  -1  -4  152.27    8.91
   1   1   4  139.79    7.58
   1   1   4  126.45    7.60
   1   1   4  131.28    7.88
   1   1   4  160.98   12.80
  -2  -1  -4  489.26   29.38
  -2  -1  -4  563.75   30.13
  -2  -1  -4  551.22   30.37
  -2  -1  -4  489.07   30.41
  -2  -1  -4  548.17   30.20
   2   1   4  517.54   28.36
   2   1   4  510.65   27.84
   2   1   4  587.39   28.37
   2   1   4  617.52   38.81
   2   1   4  582.86   27.83
  -3  -1  -4   80.22    9.45
  -3  -1  -4   79.45    5.96
  -3  -1  -4   78.99    6.77
  -3  -1  -4   93.87    9.42
  -3  -1  -4   94.43   11.23
  -3  -1  -4   75.77   12.43
  -3  -1  -4   81.47    6.54
  -3  -1  -4   73.74    7.40
  -3  -1  -4   65.53   12.59
   3   1   4   74.73   17.65
   3   1   4   86.47    5.55
  -4  -1  -4  123.22    9.16
  -4  -1  -4  133.92    9.63
  -4  -1  -4  113.12   14.69
  -4  -1  -4  130.43   11.26
   4  -2  -4    0.61    1.08
   4  -2  -4   -0.59    0.76
   4  -2  -4    1.47    1.07
  -4   2   4    0.80    1.88
  -4   2   4    0.34    2.49
  -4   2   4    1.24    1.21
  -4   2   4    0.28    1.63
   3  -2  -4   38.65    5.41
   3  -2  -4   33.19    4.19
   3  -2  -4   29.43    5.49
   3  -2  -4   27.64    3.48
   3  -2  -4   34.95    3.80
  -3   2   4   21.55    6.33
  -3   2   4   36.27    3.92
  -3   2   4   30.18    4.97
  -3   2   4   34.18    3.83
  -3   2   4   31.30    8.35
  -3   2   4   35.59    7.39
   2  -2  -4 2059.03  102.08
   2  -2  -4 2041.43  102.70
   2  -2  -4 2051.75  102.49
   2  -2  -4 2082.95  104.81
   2  -2  -4 1900.03  102.69
  -2   2   4 2243.61  102.85
  -2   2   4 1940.67  109.65
  -2   2   4 2021.75  108.13
  -2   2   4 1713.98  104.52
  -2   2   4 2068.03  103.07
   1  -2  -4  377.81   20.85
   1  -2  -4  403.49   21.95
  -1   2   4  371.78   20.74
  -1   2   4  396.03   20.37
  -1   2   4  389.40   23.58
   0  -2  -4   14.76    1.89
   0  -2  -4   11.80    3.73
   0  -2  -4   14.31    1.65
   0   2   4   13.15    1.63
   0   2   4   10.75    1.57
  -1  -2  -4   70.12    5.15
  -1  -2  -4   70.21    5.68
   1   2   4   65.93    4.31
   1   2   4   67.01    4.11
   1   2   4   63.60    7.19
   1   2   4   70.29    4.06
  -2  -2  -4 6577.81  329.96
  -2  -2  -4 6590.19  331.18
  -2  -2  -4 5905.89  331.35
  -2  -2  -4 6707.63  332.01
  -2  -2  -4 6130.47  330.31
   2   2   4 7036.76  328.75
   2   2   4 7153.13  329.24
   2   2   4 6629.64  328.71
  -3  -2  -4  256.84   15.66
  -3  -2  -4  250.04   16.49
  -3  -2  -4  230.33   18.01
  -3  -2  -4  205.28   22.85
  -3  -2  -4  253.35   23.10
  -3  -2  -4  249.48   15.14
  -3  -2  -4  271.84   14.63
  -4  -2  -4   -0.12    1.02
  -4  -2  -4   -1.07    1.98
  -4  -2  -4   -0.66    2.44
  -4  -2  -4   -2.04    1.71
  -4  -2  -4   -0.85    1.37
  -4  -2  -4   -0.35    1.53
   4  -3  -4  241.45   12.45
   4  -3  -4  222.55   11.98
  -4   3   4  191.46   17.23
   3  -3  -4    0.40    1.06
   3  -3  -4    3.76    1.52
   3  -3  -4    3.00    2.34
   3  -3  -4    3.21    1.43
  -3   3   4    4.10    1.59
  -3   3   4    3.96    3.18
  -3   3   4    4.05    3.10
  -3   3   4    4.04    1.64
  -3   3   4    5.18    2.51
  -3   3   4    4.81    4.77
   2  -3  -4  502.70   29.61
   2  -3  -4  513.48   27.11
   2  -3  -4  519.38   29.76
   2  -3  -4  488.05   26.82
   2  -3  -4  486.17   27.56
   2  -3  -4  526.46   27.61
  -2   3   4  538.26   34.46
  -2   3   4  473.29   32.30
  -2   3   4  444.24   28.96
  -2   3   4  517.19   28.73
  -2   3   4  496.34   28.12
   1  -3  -4   21.47    2.46
   1  -3  -4   24.81    2.34
   1  -3  -4   22.18    3.09
   1  -3  -4   19.53    2.39
  -1   3   4   23.96    2.62
  -1   3   4   16.48    3.51
  -1   3   4   19.24    2.66
   0  -3  -4  624.46   41.44
   0  -3  -4  732.24   37.24
   0  -3  -4  743.56   36.11
   0  -3  -4  748.34   37.28
   0   3   4  684.82   36.21
   0   3   4  671.97   36.02
  -1  -3  -4 2403.38  116.21
  -1  -3  -4 2397.86  117.59
   1   3   4 2291.17  114.87
   1   3   4 2249.31  114.99
   1   3   4 2121.97  115.39
  -2  -3  -4   21.63    3.25
  -2  -3  -4   23.42    3.08
  -2  -3  -4   16.34    3.23
  -2  -3  -4   21.36    3.57
  -2  -3  -4   20.55    3.80
  -2  -3  -4   17.66    3.19
  -2  -3  -4   15.95    3.75
   2   3   4   25.82    2.55
   2   3   4   22.16    1.74
   2   3   4   18.71    1.85
   2   3   4   19.61    4.31
   2   3   4   17.63    1.53
   2   3   4   18.52    2.26
  -3  -3  -4    0.59    2.66
  -3  -3  -4    1.28    1.18
  -3  -3  -4    4.00    2.08
  -3  -3  -4    2.56    2.09
  -3  -3  -4    4.29    1.74
  -3  -3  -4    3.70    2.01
  -3  -3  -4    0.72    1.74
  -3  -3  -4    1.02    3.03
  -3  -3  -4    2.18    1.58
  -3  -3  -4    3.89    2.47
  -4  -3  -4    4.81    2.20
  -4  -3  -4    2.63    3.18
  -4  -3  -4    5.29    1.39
  -4  -3  -4   -1.39    1.53
  -4  -3  -4    2.98    1.36
   3  -4  -4   26.02    4.69
   3  -4  -4   31.98    3.81
   3  -4  -4   28.13    3.47
  -3   4   4   36.34    6.40
  -3   4   4   31.07    3.53
  -3   4   4   29.06    3.62
  -3   4   4   22.66    6.42
   2  -4  -4  100.87    7.26
   2  -4  -4  106.07   12.15
   2  -4  -4   98.69    7.70
   2  -4  -4  107.63    8.02
   2  -4  -4   94.89    8.25
   2  -4  -4  103.58    7.62
   2  -4  -4  105.49    9.54
   2  -4  -4  114.00    9.46
  -2   4   4  103.81   11.51
  -2   4   4  125.47    8.18
  -2   4   4  104.59    8.37
  -2   4   4  127.28   12.78
  -2   4   4  106.31    9.08
   1  -4  -4  378.08   21.70
   1  -4  -4  352.53   19.13
   1  -4  -4  338.45   21.32
   1  -4  -4  360.79   19.76
   1  -4  -4  361.27   19.78
   1  -4  -4  346.32   20.81
  -1   4   4  318.72   22.38
  -1   4   4  369.03   20.09
  -1   4   4  346.25   18.64
  -1   4   4  341.56   21.24
  -1   4   4  358.96   19.48
  -1   4   4  376.69   20.01
   0  -4  -4  376.12   21.38
   0  -4  -4  368.98   21.05
   0  -4  -4  362.22   19.47
   0   4   4  358.99   19.52
   0   4   4  358.36   21.32
   0   4   4  369.18   19.81
   0   4   4  351.17   19.87
   1   4   4 4320.74  211.71
   1   4   4 4131.65  211.38
  -2  -4  -4  152.10   12.04
  -2  -4  -4  173.52   12.45
  -2  -4  -4  181.13   11.21
  -2  -4  -4  190.84   14.56
  -2  -4  -4  175.26   11.24
  -2  -4  -4  192.62   12.65
  -2  -4  -4  181.73   12.01
   2   4   4  158.70    9.59
   2   4   4  178.69   10.02
   2   4   4  193.00   11.04
  -3  -4  -4   15.59    3.65
  -3  -4  -4   26.66    6.11
  -3  -4  -4   18.78    3.69
  -3  -4  -4   24.61    3.69
  -3  -4  -4   28.09    4.15
  -3  -4  -4   26.12    6.73
  -3  -4  -4   25.80    3.42
  -3  -4  -4   24.01    4.10
  -4  -4  -4    0.10    1.67
  -4  -4  -4   -0.62    1.12
  -4  -4  -4   -0.32    1.11
  -4  -4  -4   -2.71    3.73
  -4  -4  -4   -0.50    1.77
   3  -5  -4    0.81    0.97
   3  -5  -4    2.07    1.07
   3  -5  -4    2.06    1.33
   3  -5  -4   -0.83    2.88
  -3   5   4   -0.78    2.12
  -3   5   4    0.76    0.90
  -3   5   4    1.39    2.56
   2  -5  -4  195.37   14.78
   2  -5  -4  205.00   12.29
   2  -5  -4  178.84   13.80
   2  -5  -4  210.72   12.90
   2  -5  -4  206.98   14.15
   2  -5  -4  198.52   13.01
   2  -5  -4  221.32   12.59
  -2   5   4  226.89   14.51
  -2   5   4  233.36   13.24
  -2   5   4  196.98   13.64
  -2   5   4  177.55   16.58
   1  -5  -4  752.60   42.27
   1  -5  -4  697.91   41.11
   1  -5  -4  718.39   40.70
   1  -5  -4  777.96   38.79
   1  -5  -4  754.91   39.08
   1  -5  -4  725.71   40.57
   1  -5  -4  740.95   38.58
  -1   5   4  694.39   42.48
  -1   5   4  781.12   39.54
  -1   5   4  790.55   39.11
  -1   5   4  705.40   40.41
  -1   5   4  761.19   41.42
   0  -5  -4  937.60   62.95
   0  -5  -4 1042.66   54.22
   0  -5  -4  990.08   55.62
   0  -5  -4 1036.58   56.05
   0  -5  -4  999.64   54.70
   0  -5  -4 1103.43   55.50
   0   5   4 1054.35   53.72
   0   5   4 1043.73   52.89
   0   5   4  927.35   54.45
   0   5   4 1035.89   55.13
   0   5   4 1109.49   53.20
   0   5   4 1077.94   53.52
  -1  -5  -4    7.34    2.43
  -1  -5  -4    7.70    2.19
  -1  -5  -4    5.96    1.81
  -1  -5  -4    3.68    3.33
  -1  -5  -4    2.71    1.48
  -1  -5  -4    3.69    1.98
   1   5   4    5.60    1.40
   1   5   4    2.83    0.91
   1   5   4    3.26    1.19
   1   5   4    5.14    1.48
  -2  -5  -4   82.46   10.88
  -2  -5  -4   69.50    7.25
  -2  -5  -4   60.73    6.39
  -2  -5  -4   73.34    7.97
  -2  -5  -4   70.60    7.58
  -2  -5  -4   71.02    8.60
  -2  -5  -4   60.76    6.30
  -2  -5  -4   69.04    8.09
   2   5   4   56.63    4.86
   2   5   4   64.37    4.84
   2   5   4   58.26    4.42
  -3  -5  -4    8.31    2.21
  -3  -5  -4    8.44    4.47
  -3  -5  -4    8.40    3.85
  -3  -5  -4    6.41    1.86
  -3  -5  -4   11.08    3.11
  -3  -5  -4    7.31    2.50
  -3  -5  -4   13.28    3.19
   3   5   4    8.50    1.53
  -4  -5  -4    4.36    2.29
  -4  -5  -4    6.73    1.73
  -4  -5  -4    0.94    1.80
  -4  -5  -4    7.12    2.20
   3  -6  -4   51.21    4.85
   3  -6  -4   54.59    3.61
  -3   6   4   39.83    6.85
  -3   6   4   56.57    4.07
   2  -6  -4  785.69   43.64
   2  -6  -4  808.89   44.82
   2  -6  -4  859.94   42.21
   2  -6  -4  811.17   41.61
  -2   6   4  759.43   43.37
  -2   6   4  766.14   43.27
   1  -6  -4   18.02    4.53
   1  -6  -4   25.52    4.87
   1  -6  -4   23.59    3.09
   1  -6  -4   26.85    3.87
   1  -6  -4   31.82    6.95
  -1   6   4   15.72    3.29
  -1   6   4   29.63    3.56
  -1   6   4   29.70    4.68
   0  -6  -4  639.14   34.78
   0  -6  -4  619.30   35.78
   0  -6  -4  568.34   43.53
   0  -6  -4  578.91   35.66
   0  -6  -4  624.61   34.25
   0  -6  -4  613.34   33.15
   0   6   4  651.91   33.70
   0   6   4  637.20   33.14
   0   6   4  667.99   34.20
   0   6   4  691.54   33.81
   0   6   4  548.73   34.76
   0   6   4  589.97   34.44
   0   6   4  640.70   33.11
  -1  -6  -4   82.37    7.64
  -1  -6  -4   82.52   12.09
  -1  -6  -4   86.03    6.40
  -1  -6  -4   86.00    8.79
  -1  -6  -4   80.33    6.47
  -1  -6  -4   87.42    7.94
  -1  -6  -4   81.51    6.35
   1   6   4   84.94    5.88
   1   6   4   88.68    6.58
   1   6   4   76.04    7.32
   1   6   4   81.97    6.08
  -2  -6  -4    0.61    1.73
  -2  -6  -4   -0.01    1.24
  -2  -6  -4   -1.13    0.98
  -2  -6  -4   -0.10    1.59
  -2  -6  -4    0.35    2.00
  -2  -6  -4    1.41    2.74
  -2  -6  -4    2.39    1.67
   2   6   4   -0.11    0.74
   2   6   4    0.39    0.92
   2   6   4    0.98    0.85
  -3  -6  -4    4.40    1.97
  -3  -6  -4    4.45    2.43
  -3  -6  -4    0.99    1.10
  -3  -6  -4    3.63    1.86
  -3  -6  -4    6.93    3.99
  -3  -6  -4    4.24    1.92
   3   6   4    4.60    1.41
  -4  -6  -4    2.80    1.33
  -4  -6  -4    2.88    1.09
  -4  -6  -4    3.62    1.43
   2  -7  -4  223.32   15.01
   2  -7  -4  230.74   14.43
   2  -7  -4  234.00   12.57
  -2   7   4  223.82   14.35
   1  -7  -4  482.01   27.35
   1  -7  -4  471.88   31.70
   1  -7  -4  455.37   28.13
  -1   7   4  445.99   27.32
  -1   7   4  482.93   28.47
   0  -7  -4   41.40    4.68
   0  -7  -4   34.84    5.31
   0  -7  -4   38.72    5.58
   0  -7  -4   31.89    8.71
   0  -7  -4   48.61    5.59
   0   7   4   41.42    4.58
   0   7   4   43.83    4.30
   0   7   4   48.17    5.79
   0   7   4   45.13    4.65
   0   7   4   43.01    4.95
   0   7   4   39.25    4.92
  -1  -7  -4   -0.78    1.32
  -1  -7  -4    1.65    1.89
  -1  -7  -4    0.90    1.94
  -1  -7  -4    2.78    1.43
  -1  -7  -4    2.01    1.28
  -1  -7  -4    3.45    4.17
  -1  -7  -4    1.05    1.55
   1   7   4    1.06    1.11
   1   7   4    3.37    1.23
   1   7   4    2.44    1.31
   1   7   4    0.50    1.28
   1   7   4    1.17    1.49
  -2  -7  -4   24.20    3.67
  -2  -7  -4   21.19    3.91
  -2  -7  -4   28.21    7.17
  -2  -7  -4   18.94    4.06
  -2  -7  -4   25.55    8.29
  -2  -7  -4   21.27    4.13
  -2  -7  -4   23.90    3.34
   2   7   4   20.17    2.63
   2   7   4   24.72    3.16
  -3  -7  -4  181.00   17.31
  -3  -7  -4  193.09   12.78
  -3  -7  -4  192.12   12.87
  -3  -7  -4  174.38   11.05
  -3  -7  -4  153.45   10.91
  -3  -7  -4  186.87   11.19
   3   7   4  160.19   10.25
   3   7   4  160.98   10.07
   2  -8  -4   56.89    4.98
   2  -8  -4   53.03    4.58
  -2   8   4   56.31    4.58
   1  -8  -4    0.54    1.99
   1  -8  -4    2.47    1.71
   1  -8  -4    4.38    2.04
  -1   8   4    3.09    1.64
  -1   8   4    4.81    2.26
   0  -8  -4  225.65   19.32
   0  -8  -4  251.66   15.74
   0   8   4  232.49   15.75
   0   8   4  250.48   16.97
   0   8   4  247.39   14.73
   0   8   4  276.22   15.59
  -1  -8  -4  499.92   34.16
  -1  -8  -4  607.16   31.80
  -1  -8  -4  562.42   31.33
  -1  -8  -4  518.15   29.12
   1   8   4  561.49   29.33
   1   8   4  475.24   34.99
   1   8   4  530.19   29.74
   1   8   4  545.02   30.84
  -2  -8  -4   74.69    6.15
  -2  -8  -4   80.55    7.47
  -2  -8  -4   73.26    5.93
  -2  -8  -4   82.92    6.91
  -2  -8  -4   81.90    7.76
  -2  -8  -4   71.59   11.71
   2   8   4   73.01    7.37
   2   8   4   69.37    5.82
   2   8   4   75.13    5.59
   2   8   4   71.68    5.89
  -3  -8  -4    2.16    1.57
  -3  -8  -4    2.46    1.30
  -3  -8  -4    1.52    1.39
  -3  -8  -4    2.50    2.93
  -3  -8  -4    3.61    1.64
   3   8   4    1.77    0.99
   3   8   4    2.92    1.38
   1  -9  -4    7.70    1.90
   1  -9  -4   10.23    2.39
  -1   9   4    7.37    2.03
  -1   9   4    7.34    1.79
   0  -9  -4  152.82   10.37
   0  -9  -4  145.87   10.03
   0   9   4  138.59   10.25
   0   9   4  156.65   11.35
   0   9   4  152.04    9.44
   0   9   4  140.88    9.10
  -1  -9  -4   17.38    2.72
  -1  -9  -4    9.48    1.99
  -1  -9  -4   13.13    3.30
  -1  -9  -4    8.23    4.62
  -1  -9  -4    9.00    1.78
  -1  -9  -4    7.01    2.18
   1   9   4   12.80    2.94
   1   9   4   10.26    1.87
   1   9   4   14.71    2.62
   1   9   4   12.02    2.36
  -2  -9  -4  405.98   22.96
  -2  -9  -4  422.14   24.81
  -2  -9  -4  357.24   29.78
  -2  -9  -4  425.95   24.36
  -2  -9  -4  469.67   25.28
  -2  -9  -4  414.07   22.96
   2   9   4  431.74   23.19
   2   9   4  419.86   23.05
   2   9   4  426.76   25.11
   2   9   4  429.25   22.75
  -3  -9  -4    0.72    0.85
  -3  -9  -4    1.07    1.62
  -3  -9  -4    0.17    0.61
  -3  -9  -4   -0.46    2.65
  -3  -9  -4    0.31    0.83
   0 -10  -4  231.66   13.73
   0 -10  -4  234.17   14.12
   0  10   4  261.84   14.96
  -1 -10  -4  157.87   10.06
  -1 -10  -4  153.78    9.30
  -1 -10  -4  142.38    8.50
   1  10   4  153.60   10.32
   1  10   4  149.10    9.02
   1  10   4  152.90    9.22
  -2 -10  -4   28.34    3.16
  -2 -10  -4   24.65    2.48
  -2 -10  -4   24.19    2.95
   2  10   4   25.09    2.57
   2  10   4   24.71    2.45
   1  10  -5   46.01    4.26
   1  10  -5   38.51    2.67
  -1 -10   5   36.69    3.19
  -1 -10   5   40.97    3.34
  -1 -10   5   45.08    4.05
   0  10  -5  241.29   14.98
   0 -10   5  212.79   12.79
   2   9  -5  575.59   30.62
   2   9  -5  569.23   30.33
   2   9  -5  567.06   30.97
   2   9  -5  610.61   31.90
  -2  -9   5  607.65   31.24
  -2  -9   5  568.49   29.92
  -2  -9   5  604.07   30.68
  -2  -9   5  540.24   38.75
   1   9  -5   78.48    5.37
   1   9  -5   75.61    5.55
   1   9  -5   79.92    7.13
   1   9  -5   67.99    6.02
  -1  -9   5   75.42    6.06
  -1  -9   5   79.90    6.17
   0   9  -5  294.48   17.66
   0   9  -5  296.64   17.90
   0  -9   5  290.29   16.50
   0  -9   5  296.76   17.43
  -1   9  -5    2.04    1.15
   1  -9   5    0.24    0.99
   1  -9   5    2.50    1.44
   3   8  -5  148.38    8.59
   3   8  -5  137.71    9.00
   3   8  -5  147.00    8.88
  -3  -8   5  159.30    9.94
  -3  -8   5  136.23   12.54
  -3  -8   5  148.99    9.17
  -3  -8   5  150.25    9.25
   2   8  -5  106.68    7.63
   2   8  -5  114.36    7.33
   2   8  -5  116.31    9.02
   2   8  -5  111.33    7.76
  -2  -8   5  110.00    7.39
  -2  -8   5  105.26   11.79
  -2  -8   5  111.34    8.39
  -2  -8   5  109.12    8.27
  -2  -8   5  117.68    8.25
   1   8  -5  266.93   15.29
   1   8  -5  256.86   14.76
   1   8  -5  256.58   15.38
   1   8  -5  252.30   16.96
  -1  -8   5  259.76   16.05
  -1  -8   5  256.28   15.18
   0   8  -5   39.20    5.15
   0   8  -5   36.15    3.37
   0   8  -5   33.33    4.42
   0  -8   5   37.83    4.99
   0  -8   5   33.67    4.23
  -1   8  -5  164.42   11.43
  -1   8  -5  183.78   12.11
   1  -8   5  159.63   11.72
   1  -8   5  162.08   11.25
  -2   8  -5   25.27    5.42
  -2   8  -5   32.39    2.91
   2  -8   5   34.93    3.60
   3   7  -5  129.84    9.43
   3   7  -5  145.33    8.68
   3   7  -5  144.00    9.04
  -3  -7   5  135.35    9.70
  -3  -7   5  142.22   11.72
  -3  -7   5  152.17   10.99
  -3  -7   5  170.04   15.06
  -3  -7   5  139.70   14.10
   2   7  -5  310.76   19.38
   2   7  -5  313.35   17.88
   2   7  -5  296.45   19.48
   2   7  -5  314.73   17.49
   2   7  -5  301.15   17.98
  -2  -7   5  298.24   18.86
  -2  -7   5  319.85   18.28
  -2  -7   5  366.87   25.85
  -2  -7   5  311.75   19.99
  -2  -7   5  310.52   25.94
   1   7  -5   26.05    3.25
   1   7  -5   23.07    4.09
   1   7  -5   19.76    4.07
   1   7  -5   20.94    3.08
   1   7  -5   19.32    4.39
   1   7  -5   23.83    2.95
  -1  -7   5   23.28    3.44
  -1  -7   5   16.67    5.83
  -1  -7   5   23.60    3.41
   0   7  -5    6.20    2.29
   0   7  -5    0.83    1.48
   0   7  -5    3.89    2.06
   0   7  -5    4.68    1.60
   0   7  -5    1.67    1.04
   0  -7   5    3.74    2.34
   0  -7   5    2.30    1.64
  -1   7  -5  633.63   33.39
  -1   7  -5  500.07   34.09
  -1   7  -5  571.54   33.02
   1  -7   5  606.09   33.18
   1  -7   5  614.62   31.44
   1  -7   5  607.55   34.40
  -2   7  -5  204.55   12.63
  -2   7  -5  161.93   14.50
   2  -7   5  215.63   12.02
   2  -7   5  185.94   11.26
   2  -7   5  248.54   16.27
  -4  -6   5   26.43    2.54
  -4  -6   5   26.31    3.16
  -4  -6   5   25.13    4.90
  -4  -6   5   25.95    4.81
   3   6  -5  174.14   10.07
   3   6  -5  168.28   10.37
   3   6  -5  166.63   10.12
  -3  -6   5  166.58   11.36
  -3  -6   5  157.98   11.48
  -3  -6   5  161.10   12.79
   2   6  -5   54.66    5.65
   2   6  -5   59.95    4.75
   2   6  -5   57.35    5.16
   2   6  -5   58.37    6.45
   2   6  -5   59.97    4.90
  -2  -6   5   62.59    5.97
  -2  -6   5   55.78    6.68
  -2  -6   5   62.14    5.32
  -2  -6   5   77.12   10.80
  -2  -6   5   70.16   10.31
   1   6  -5  169.14   12.31
   1   6  -5  160.93   11.64
   1   6  -5  181.13   10.79
   1   6  -5  174.53   11.59
   1   6  -5  168.65   10.10
   1   6  -5  175.85   10.50
  -1  -6   5  175.50   15.98
  -1  -6   5  165.94   11.38
  -1  -6   5  172.74   16.99
  -1  -6   5  158.15   11.94
  -1  -6   5  158.66   11.82
   0   6  -5 1406.67   70.26
   0   6  -5 1381.50   69.75
   0   6  -5 1319.69   72.56
   0   6  -5 1364.57   72.25
   0   6  -5 1375.67   70.33
   0   6  -5 1485.42   73.59
   0   6  -5 1335.09   71.47
   0  -6   5 1312.27   72.56
   0  -6   5 1353.36   72.80
   0  -6   5 1357.42   71.68
   0  -6   5 1343.86   69.77
  -1   6  -5 1666.31   90.37
  -1   6  -5 1759.97   89.06
  -1   6  -5 1702.05   88.63
   1  -6   5 1550.93   87.03
   1  -6   5 1718.02   88.64
   1  -6   5 1779.14   90.36
   1  -6   5 1710.72   86.97
   1  -6   5 1733.20   87.52
   1  -6   5 1686.61   87.04
  -2   6  -5  189.79   12.23
  -2   6  -5  166.21   13.79
   2  -6   5  184.74   11.49
   2  -6   5  149.63   12.22
   2  -6   5  181.97   11.21
   2  -6   5  190.00   13.37
  -3   6  -5   74.80    9.61
   3  -6   5   77.05    4.95
   3  -6   5   80.09    5.79
   3  -6   5   73.27    5.00
   4   5  -5   10.14    1.45
   4   5  -5   11.89    1.79
  -4  -5   5    8.30    2.11
  -4  -5   5   12.44    3.85
  -4  -5   5    8.31    2.20
   3   5  -5   37.58    3.95
   3   5  -5   46.67    3.73
   3   5  -5   44.65    3.85
   3   5  -5   33.62    4.50
  -3  -5   5   42.59    6.13
  -3  -5   5   44.84    9.00
  -3  -5   5   37.68    4.66
   2   5  -5  302.65   18.40
   2   5  -5  318.75   17.29
   2   5  -5  300.00   17.06
  -2  -5   5  342.45   26.34
  -2  -5   5  304.46   20.84
  -2  -5   5  302.92   18.01
   1   5  -5 1272.19   65.98
   1   5  -5 1248.18   68.03
   1   5  -5 1300.10   67.04
   1   5  -5 1365.05   65.80
   1   5  -5 1187.43   66.36
   1   5  -5 1242.27   66.90
   1   5  -5 1313.34   66.31
  -1  -5   5 1335.39   80.26
  -1  -5   5 1489.81   75.00
  -1  -5   5 1214.00   67.71
  -1  -5   5 1230.61   67.06
   0   5  -5  164.58   11.55
   0   5  -5  180.38   10.59
   0   5  -5  189.72   10.27
   0   5  -5  177.81   11.30
   0   5  -5  164.92   12.01
   0   5  -5  189.57   10.75
   0   5  -5  180.85   12.15
   0   5  -5  169.85   10.56
   0  -5   5  165.93   10.69
   0  -5   5  166.53   11.47
   0  -5   5  183.48   10.74
   0  -5   5  161.33   21.30
   0  -5   5  162.47   12.41
  -1   5  -5 1351.82   70.87
  -1   5  -5 1338.80   68.40
  -1   5  -5 1298.12   69.20
   1  -5   5 1297.55   68.52
   1  -5   5 1309.67   68.08
   1  -5   5 1346.47   87.09
   1  -5   5 1278.03   70.59
   1  -5   5 1277.03   67.96
   1  -5   5 1291.08   67.76
   1  -5   5 1390.45   69.75
  -2   5  -5  123.66   14.70
  -2   5  -5  120.95    9.18
  -2   5  -5  124.23    8.38
  -2   5  -5   93.87   11.74
   2  -5   5  132.55    8.68
   2  -5   5  124.36    8.61
   2  -5   5  126.81   10.84
   2  -5   5  120.04    9.05
  -3   5  -5  144.65    8.78
  -3   5  -5  160.96    8.71
  -3   5  -5  127.64   13.06
  -3   5  -5  129.05   10.80
  -3   5  -5  146.96   17.46
   3  -5   5  137.61    8.84
   3  -5   5  149.57    8.94
   3  -5   5  149.85   10.30
   3  -5   5  148.86    9.18
   4   4  -5  564.20   31.10
   4   4  -5  555.55   30.42
  -4  -4   5  610.70   33.54
  -4  -4   5  634.00   39.10
   3   4  -5  265.62   16.44
   3   4  -5  269.30   15.81
   3   4  -5  275.91   15.26
  -3  -4   5  285.75   17.40
  -3  -4   5  274.18   19.62
  -3  -4   5  266.03   25.24
   2   4  -5  291.86   19.14
   2   4  -5  328.76   18.31
   2   4  -5  298.76   19.90
   2   4  -5  321.96   17.09
   2   4  -5  321.07   17.06
   2   4  -5  313.35   17.64
  -2  -4   5  317.34   22.11
  -2  -4   5  292.72   20.67
  -2  -4   5  314.31   17.87
  -2  -4   5  316.22   26.15
   1   4  -5 1105.60   57.09
   1   4  -5 1062.43   57.28
   1   4  -5 1156.45   57.49
   1   4  -5 1155.19   56.74
   1   4  -5 1090.46   57.57
   1   4  -5 1054.06   58.62
   1   4  -5 1051.29   57.06
  -1  -4   5 1093.68   57.82
  -1  -4   5 1240.81   59.10
   0   4  -5  347.27   20.10
   0   4  -5  357.43   19.02
   0   4  -5  338.42   20.42
   0   4  -5  372.40   18.98
   0   4  -5  360.90   18.56
   0   4  -5  350.22   19.47
   0  -4   5  326.84   19.34
   0  -4   5  346.33   19.02
   0  -4   5  346.04   18.85
   0  -4   5  336.35   30.68
   0  -4   5  351.85   19.01
   0  -4   5  330.31   20.74
  -1   4  -5    3.22    4.25
  -1   4  -5    8.06    2.77
  -1   4  -5   10.20    2.34
  -1   4  -5    6.87    1.66
  -1   4  -5    7.40    2.48
  -1   4  -5    8.57    2.15
   1  -4   5    7.93    2.98
   1  -4   5    7.86    2.06
   1  -4   5    6.51    1.76
   1  -4   5   11.27    2.48
   1  -4   5    9.53    8.86
   1  -4   5    6.84    1.37
   1  -4   5    8.61    1.95
  -2   4  -5   24.52    8.23
  -2   4  -5   25.28    3.68
  -2   4  -5   31.59    5.86
  -2   4  -5   34.97    3.59
  -2   4  -5   34.44    6.67
  -2   4  -5   32.81    4.17
  -2   4  -5   31.05    4.24
   2  -4   5   35.50    4.27
   2  -4   5   35.34    4.00
   2  -4   5   28.66    5.42
   2  -4   5   30.70    3.65
   2  -4   5   31.80    3.29
  -3   4  -5   -0.02    2.90
  -3   4  -5    1.12    2.24
  -3   4  -5    1.03    0.83
  -3   4  -5    0.91    1.01
  -3   4  -5    1.32    0.89
  -3   4  -5    1.18    1.99
   3  -4   5    2.21    1.19
   3  -4   5    2.09    1.04
   3  -4   5    2.70    1.52
   4   3  -5  146.46    9.19
   4   3  -5  145.44    8.83
  -4  -3   5  147.55   11.41
  -4  -3   5  139.79   16.95
  -4  -3   5  172.84   13.02
   3   3  -5 2103.27  112.36
   3   3  -5 2221.39  111.35
   3   3  -5 2201.81  112.01
   3   3  -5 2287.02  111.30
  -3  -3   5 2120.68  116.25
  -3  -3   5 2534.01  124.03
  -3  -3   5 2089.93  125.47
  -3  -3   5 2324.84  113.53
  -3  -3   5 1919.64  116.36
   2   3  -5  464.66   28.81
   2   3  -5  433.57   24.94
   2   3  -5  482.43   25.38
   2   3  -5  488.73   24.44
   2   3  -5  468.25   26.81
   2   3  -5  454.84   24.84
   2   3  -5  500.18   24.46
  -2  -3   5  425.71   27.88
  -2  -3   5  407.21   27.38
  -2  -3   5  459.85   25.07
  -2  -3   5  441.30   33.99
  -2  -3   5  481.42   32.46
   1   3  -5 2683.18  135.91
   1   3  -5 2821.00  135.58
   1   3  -5 2705.92  135.69
   1   3  -5 2649.10  136.30
   1   3  -5 2774.63  135.55
  -1  -3   5 2585.58  137.57
   0   3  -5 1299.84   67.44
   0   3  -5 1346.78   66.23
   0   3  -5 1312.59   66.50
   0   3  -5 1349.65   67.02
   0  -3   5 1272.18   66.73
   0  -3   5 1264.25   66.72
   0  -3   5 1302.34   66.46
   0  -3   5 1332.08   79.73
  -1   3  -5   -1.06    0.62
  -1   3  -5    0.54    1.06
  -1   3  -5    0.70    1.14
   1  -3   5    0.42    0.59
   1  -3   5    0.28    0.86
   1  -3   5   -0.18    0.65
   1  -3   5   -1.49    1.18
   1  -3   5    0.44    1.97
  -2   3  -5  883.25   55.68
  -2   3  -5  990.73   50.56
  -2   3  -5 1001.78   52.79
  -2   3  -5  938.66   49.69
  -2   3  -5  941.21   50.61
   2  -3   5  959.03   49.85
   2  -3   5 1046.14   68.55
   2  -3   5  961.40   52.38
   2  -3   5  897.22   49.10
   2  -3   5  925.01   51.09
   2  -3   5  923.65   49.88
  -3   3  -5    6.47    1.69
  -3   3  -5    4.34    5.02
  -3   3  -5   -1.13    1.76
  -3   3  -5    3.84    3.21
  -3   3  -5    3.13    2.96
  -3   3  -5    3.79    1.67
  -3   3  -5    5.56    1.88
   3  -3   5    5.68    2.19
   3  -3   5    5.79    1.79
   3  -3   5   11.78    3.51
   3  -3   5    6.69    1.88
   4   2  -5  305.13   16.88
   4   2  -5  306.98   16.87
   4   2  -5  322.29   17.38
  -4  -2   5  300.81   25.61
  -4  -2   5  312.07   19.79
   3   2  -5   20.22    2.89
   3   2  -5   22.64    3.52
   3   2  -5   23.53    3.17
   3   2  -5   30.14    6.72
   3   2  -5   19.80    2.82
  -3  -2   5   19.95    7.91
  -3  -2   5   26.28    6.02
  -3  -2   5   21.44    6.85
  -3  -2   5   23.92    5.78
  -3  -2   5   16.52    3.29
  -3  -2   5   27.61    4.68
  -3  -2   5   17.65    5.14
   2   2  -5  955.97   55.03
   2   2  -5 1020.48   52.28
   2   2  -5 1120.56   54.05
   2   2  -5 1027.77   51.37
   2   2  -5 1004.36   51.76
  -2  -2   5  843.56   61.02
  -2  -2   5  988.64   59.43
  -2  -2   5  956.81   55.95
  -2  -2   5 1098.13   54.46
  -2  -2   5 1042.32   52.41
   1   2  -5  692.79   36.07
   1   2  -5  687.54   35.67
   1   2  -5  682.80   35.45
  -1  -2   5  719.92   38.36
  -1  -2   5  674.93   35.79
   0  -2   5 6013.54  300.18
  -1   2  -5  691.27   34.76
  -1   2  -5  623.96   35.43
   1  -2   5  627.48   34.30
   1  -2   5  603.48   34.28
   1  -2   5  648.00   33.85
   1  -2   5  642.90   33.74
   1  -2   5  762.96   46.10
  -2   2  -5  103.64    7.53
  -2   2  -5   89.50   13.60
  -2   2  -5  110.18   11.89
  -2   2  -5  107.08    8.04
  -2   2  -5  125.84    9.66
  -2   2  -5   90.07    8.11
  -2   2  -5  118.60    7.90
  -2   2  -5  110.08    7.60
  -2   2  -5  121.99   10.03
   2  -2   5  113.41    7.47
   2  -2   5   85.93    8.17
   2  -2   5  114.16    6.87
   2  -2   5  126.94   17.26
   2  -2   5   99.61    7.32
   2  -2   5  104.94    9.50
  -3   2  -5   33.57    5.87
  -3   2  -5   41.14    6.42
  -3   2  -5   16.67    4.60
   3  -2   5   28.11    2.82
   3  -2   5   29.65    3.46
   3  -2   5   31.57    3.69
   3  -2   5   30.37    4.22
  -4   2  -5    4.83    1.29
  -4   2  -5    3.60    1.93
  -4   2  -5    3.22    0.98
  -4   2  -5    4.75    2.72
  -4   2  -5    5.27    3.49
   4  -2   5    2.14    1.44
   4  -2   5    1.42    1.54
   4   1  -5  103.91    7.37
   4   1  -5  118.83    7.34
   4   1  -5  112.61    7.35
  -4  -1   5  138.20   12.82
  -4  -1   5  100.40    8.82
  -4  -1   5  107.60   14.14
   3   1  -5  103.15    7.89
   3   1  -5  104.35    7.22
   3   1  -5   87.94    7.41
   3   1  -5  100.28    6.94
   3   1  -5  106.09    9.53
  -3  -1   5  106.89    7.29
  -3  -1   5   96.33   10.25
  -3  -1   5  108.19   12.71
  -3  -1   5  101.24   13.64
  -3  -1   5  105.16   12.66
  -3  -1   5  107.30    7.03
  -3  -1   5   94.93   15.33
  -3  -1   5  114.12    9.94
   2   1  -5   37.30    3.16
   2   1  -5   34.62    3.28
   2   1  -5   37.54    3.63
   2   1  -5   37.36    5.11
  -2  -1   5   31.83    7.96
  -2  -1   5   39.80    6.51
  -2  -1   5   41.44    4.80
   1   1  -5 1641.53   82.49
   1   1  -5 1650.41   82.13
   1   1  -5 1630.74   81.99
   1   1  -5 1560.53   83.74
  -1  -1   5 1791.47   85.90
  -1  -1   5 1658.89   82.13
  -1  -1   5 1458.24   82.07
   0   1  -5  429.99   20.97
   0   1  -5  375.82   20.61
   0   1  -5  378.29   20.80
   0  -1   5  415.68   20.62
   0  -1   5  383.30   20.79
   0  -1   5  373.59   29.03
  -1   1  -5 1949.94   96.98
   1  -1   5 1741.54   97.40
   1  -1   5 1982.25   95.37
   1  -1   5 1911.44   95.80
  -2   1  -5    2.08    3.44
  -2   1  -5    4.10    1.64
  -2   1  -5    5.00    1.86
  -2   1  -5    6.67    3.50
  -2   1  -5    3.93    1.81
  -2   1  -5    3.33    1.45
  -2   1  -5    4.59    2.24
   2  -1   5    6.24    4.40
   2  -1   5    5.51    1.44
   2  -1   5    3.46    1.15
   2  -1   5    4.62    1.03
  -3   1  -5   64.87    5.59
  -3   1  -5   64.68    6.56
  -3   1  -5   73.03    7.98
  -3   1  -5   66.19    9.68
  -3   1  -5   67.94    6.08
  -3   1  -5   66.81   12.69
  -3   1  -5   67.47   13.08
   3  -1   5   76.67    5.80
   3  -1   5   68.81    4.80
   3  -1   5   75.79    5.62
  -4   1  -5   17.41    4.63
  -4   1  -5   28.11    3.23
  -4   1  -5   30.52    6.56
  -4   1  -5   26.83    2.62
  -4   1  -5   28.97    6.54
   4  -1   5   26.25    3.54
   4  -1   5   32.68    3.65
   4   0  -5   57.51    4.36
   4   0  -5   52.14    4.14
   4   0  -5   48.87    4.40
  -4   0   5   55.20    8.02
  -4   0   5   48.14    9.94
   3   0  -5    8.58    2.04
   3   0  -5    4.50    1.59
   3   0  -5    8.33    1.81
   3   0  -5   10.03    3.21
  -3   0   5    6.80    3.46
  -3   0   5    8.14    5.94
  -3   0   5    6.79    4.34
  -3   0   5    7.83    1.88
  -3   0   5    6.12    3.85
  -3   0   5    6.76    4.04
  -3   0   5   10.79    2.24
  -3   0   5    8.44    3.08
   2   0  -5   44.54    4.07
   2   0  -5   46.41    5.46
   2   0  -5   42.87    3.51
  -2   0   5   44.76    3.83
  -2   0   5   39.12    7.64
  -2   0   5   40.58    5.16
  -2   0   5   40.13    6.56
  -2   0   5   46.34    7.15
  -2   0   5   45.42    4.14
   1   0  -5  556.76   31.73
   1   0  -5  596.11   30.70
  -1   0   5  608.52   30.27
  -1   0   5  615.39   34.08
  -1   0   5  551.91   30.39
   0   0   5 3548.55  174.22
   0   0   5 3417.18  174.37
  -1   0  -5  550.63   28.47
  -1   0  -5  538.95   29.44
   1   0   5  538.39   28.01
   1   0   5  524.86   28.24
   1   0   5  597.87   36.77
   1   0   5  531.89   28.31
  -2   0  -5  119.74    8.65
  -2   0  -5  139.27    9.29
  -2   0  -5  146.88   10.08
  -2   0  -5  123.53    9.64
  -2   0  -5  116.22   11.65
  -2   0  -5  154.84   11.02
  -2   0  -5  109.42   15.34
  -2   0  -5  127.10    8.35
   2   0   5  129.78    8.32
   2   0   5  136.16    7.47
   2   0   5  131.42    7.89
  -3   0  -5    1.84    3.28
  -3   0  -5   -1.59    2.18
  -3   0  -5   -2.77    1.45
  -3   0  -5    0.48    1.21
  -3   0  -5   -0.06    1.13
  -3   0  -5    0.78    2.81
  -3   0  -5    1.65    1.21
  -3   0  -5   -1.58    1.10
   3   0   5    0.84    0.64
   3   0   5    3.64    1.32
   3   0   5    2.32    1.05
  -4   0  -5   30.94    5.49
  -4   0  -5   41.08    7.56
  -4   0  -5   43.27    3.54
  -4   0  -5   37.33    4.65
   4   0   5   50.16    5.17
   4  -1  -5  100.64    7.79
   4  -1  -5   89.86    6.09
   4  -1  -5   76.03    5.77
  -4   1   5   89.41    9.61
   3  -1  -5    4.31    1.59
   3  -1  -5    0.44    1.62
   3  -1  -5    3.63    1.68
   3  -1  -5    4.47    2.42
   3  -1  -5    1.57    1.20
  -3   1   5    3.92    3.14
  -3   1   5    1.56    4.39
  -3   1   5    3.70    3.58
  -3   1   5    3.16    1.60
  -3   1   5    1.44    2.77
  -3   1   5    4.80    2.55
  -3   1   5    3.01    1.34
   2  -1  -5  977.85   61.04
   2  -1  -5 1088.77   56.22
   2  -1  -5 1156.03   59.51
   2  -1  -5 1126.99   57.12
   2  -1  -5 1074.90   57.24
   2  -1  -5 1112.56   56.52
  -2   1   5 1087.92   63.71
  -2   1   5 1206.92   57.09
  -2   1   5 1081.38   62.89
  -2   1   5 1108.45   57.43
  -2   1   5 1038.23   58.79
   1  -1  -5  280.17   15.39
  -1   1   5  270.68   15.12
  -1   1   5  256.46   15.02
  -1   1   5  290.33   15.21
  -1   1   5  278.26   18.36
   0   1   5 4301.46  215.40
   0   1   5 4312.07  215.36
  -1  -1  -5   52.20    4.44
  -1  -1  -5   59.77    4.59
   1   1   5   43.14    3.68
   1   1   5   55.47    7.80
   1   1   5   47.11    3.45
   1   1   5   54.37    3.35
   1   1   5   49.24    3.74
  -2  -1  -5  284.74   16.13
  -2  -1  -5  287.52   16.19
  -2  -1  -5  265.29   15.90
  -2  -1  -5  283.92   16.92
  -2  -1  -5  253.41   16.97
  -2  -1  -5  230.09   18.46
  -2  -1  -5  283.24   16.52
   2   1   5  266.03   14.49
  -3  -1  -5  178.24   11.69
  -3  -1  -5  166.16   12.65
  -3  -1  -5  154.66   18.20
  -3  -1  -5  181.44   13.17
  -3  -1  -5  171.99   14.93
  -3  -1  -5  174.15   10.59
  -3  -1  -5  169.79   11.25
  -3  -1  -5  138.19   19.11
   3   1   5  167.29    9.36
   3   1   5  179.40   10.29
   3   1   5  186.31   23.39
  -4  -1  -5   28.84    3.81
  -4  -1  -5   22.34    6.80
  -4  -1  -5   34.04    3.15
  -4  -1  -5   34.37    6.54
  -4  -1  -5   24.16    6.73
   4  -2  -5   57.85    4.31
   4  -2  -5   52.59    4.04
  -4   2   5   59.02    6.56
   3  -2  -5   69.47    6.98
   3  -2  -5   66.16    5.46
   3  -2  -5   62.77    5.50
  -3   2   5   72.71    6.60
  -3   2   5   40.63   13.54
  -3   2   5   81.58   13.24
   2  -2  -5  748.39   41.77
   2  -2  -5  738.76   41.64
   2  -2  -5  733.05   39.66
   2  -2  -5  747.43   39.15
   2  -2  -5  702.91   39.49
   2  -2  -5  712.60   38.81
  -2   2   5  781.67   46.65
  -2   2   5  761.00   41.34
  -2   2   5  743.64   45.59
  -2   2   5  753.39   40.20
  -2   2   5  688.59   41.08
  -2   2   5  832.90   39.83
   1  -2  -5   31.28    3.11
   1  -2  -5   29.43    2.69
   1  -2  -5   42.19    4.10
   1  -2  -5   33.12    2.99
  -1   2   5   26.17    3.11
  -1   2   5   30.50    2.82
  -1   2   5   32.05    3.01
  -1   2   5   32.13    4.91
   0  -2  -5    5.42    1.21
   0  -2  -5    5.07    1.23
   0   2   5    3.11    1.09
   0   2   5    3.97    1.13
  -1  -2  -5   55.22    4.54
  -1  -2  -5   57.85    5.16
   1   2   5   49.78    3.93
   1   2   5   51.78    3.52
   1   2   5   46.61    7.02
   1   2   5   52.98    3.46
  -2  -2  -5    3.27    1.49
  -2  -2  -5    3.28    1.39
  -2  -2  -5    3.81    1.95
  -2  -2  -5    1.97    1.58
  -2  -2  -5    4.19    1.77
  -2  -2  -5    2.55    1.69
  -2  -2  -5    4.02    1.68
   2   2   5    1.28    0.72
   2   2   5    3.72    2.79
  -3  -2  -5 2855.42  143.40
  -3  -2  -5 2627.43  144.85
  -3  -2  -5 2386.87  153.48
  -3  -2  -5 2878.89  140.44
  -3  -2  -5 2979.80  143.27
  -3  -2  -5 2842.23  141.35
   3   2   5 2858.67  139.49
  -4  -2  -5   11.83    2.22
  -4  -2  -5   14.94    3.75
  -4  -2  -5   11.33    1.96
  -4  -2  -5   10.31    2.87
   3  -3  -5  800.38   43.85
   3  -3  -5  793.41   44.01
   3  -3  -5  811.58   46.56
   3  -3  -5  809.31   44.53
  -3   3   5  847.86   44.90
  -3   3   5  852.80   44.64
  -3   3   5  960.32   46.36
   2  -3  -5  375.96   21.15
   2  -3  -5  374.67   21.65
   2  -3  -5  388.09   24.01
   2  -3  -5  375.62   20.94
   2  -3  -5  339.26   21.52
   2  -3  -5  384.68   23.34
  -2   3   5  403.33   23.10
  -2   3   5  371.13   22.27
  -2   3   5  441.73   22.01
  -2   3   5  382.66   23.04
  -2   3   5  362.07   26.80
   1  -3  -5   83.25    5.49
   1  -3  -5   84.36    5.67
   1  -3  -5   86.13    6.08
   1  -3  -5   78.60    5.89
   1  -3  -5   96.43    7.28
   1  -3  -5   77.96    7.22
  -1   3   5   77.84    6.39
  -1   3   5   88.82    6.01
  -1   3   5   77.95    7.24
  -1   3   5   80.17    5.85
  -1   3   5   88.91    6.70
  -1   3   5   80.51    5.96
  -1   3   5   79.50    8.24
   0  -3  -5   39.37    4.03
   0  -3  -5   41.88    3.94
   0  -3  -5   41.08    3.23
   0   3   5   37.92    3.32
   0   3   5   34.89    3.28
   0   3   5   37.64    3.22
  -1  -3  -5  940.91   47.45
  -1  -3  -5  831.59   45.57
   1   3   5  841.73   44.45
   1   3   5  881.63   45.14
   1   3   5  861.65   44.56
  -2  -3  -5  319.44   18.15
  -2  -3  -5  315.60   19.36
  -2  -3  -5  297.07   19.82
  -2  -3  -5  316.89   19.16
  -2  -3  -5  340.31   18.26
  -2  -3  -5  299.04   18.64
  -2  -3  -5  344.63   21.34
  -2  -3  -5  348.71   19.67
   2   3   5  346.70   17.83
   2   3   5  293.46   16.68
   2   3   5  334.88   16.95
   2   3   5  270.61   22.00
  -3  -3  -5    3.28    1.89
  -3  -3  -5    0.49    2.85
  -3  -3  -5    1.00    1.92
  -3  -3  -5    0.57    1.59
  -3  -3  -5   -0.17    3.57
  -3  -3  -5    0.49    1.25
  -3  -3  -5    3.25    1.40
  -3  -3  -5   -1.71    1.36
  -3  -3  -5   -2.38    1.38
  -3  -3  -5   -1.45    2.99
  -3  -3  -5    1.37    1.55
  -4  -3  -5   18.46    3.49
  -4  -3  -5   13.38    2.37
  -4  -3  -5   12.76    4.54
  -4  -3  -5   19.46    2.51
  -4  -3  -5   16.35    2.68
   3  -4  -5  151.90    9.14
   3  -4  -5  142.17   11.00
   3  -4  -5  142.19    9.61
   3  -4  -5  148.02    9.48
  -3   4   5  155.07    9.87
  -3   4   5  116.29   16.53
   2  -4  -5 1031.22   53.06
   2  -4  -5 1017.69   50.85
   2  -4  -5  908.54   52.52
   2  -4  -5  898.57   54.14
   2  -4  -5  995.88   53.83
   2  -4  -5  980.86   50.57
   2  -4  -5  933.30   51.45
   2  -4  -5 1005.80   51.26
  -2   4   5  876.90   56.73
  -2   4   5 1045.93   52.92
  -2   4   5 1022.06   52.45
   1  -4  -5    4.90    1.31
   1  -4  -5    4.55    1.97
   1  -4  -5    6.42    1.68
   1  -4  -5    1.91    1.11
   1  -4  -5    5.42    2.39
   1  -4  -5    5.42    1.96
   1  -4  -5    4.79    1.23
   1  -4  -5    4.67    1.45
  -1   4   5    4.23    1.44
  -1   4   5    6.73    2.35
  -1   4   5    4.54    2.43
  -1   4   5    6.11    2.00
  -1   4   5    3.92    1.45
  -1   4   5    4.55    1.75
  -1   4   5    7.38    1.80
   0  -4  -5   24.22    3.13
   0  -4  -5   24.56    3.53
   0  -4  -5   25.47    3.56
   0   4   5   27.10    2.94
   0   4   5   25.60    2.82
   0   4   5   23.68    2.62
  -1  -4  -5   27.34    4.00
  -1  -4  -5   23.75    4.16
  -1  -4  -5   30.95    3.25
  -1  -4  -5   25.58    3.25
  -1  -4  -5   28.88    4.35
   1   4   5   26.74    2.61
   1   4   5   28.43    2.81
   1   4   5   26.76    2.59
  -2  -4  -5  671.50   38.91
  -2  -4  -5  624.57   34.38
  -2  -4  -5  611.05   35.70
  -2  -4  -5  722.05   42.07
  -2  -4  -5  709.37   36.32
  -2  -4  -5  550.43   35.77
  -2  -4  -5  656.92   34.42
  -2  -4  -5  632.68   35.27
   2   4   5  646.20   33.30
   2   4   5  557.11   32.83
   2   4   5  647.98   34.24
  -3  -4  -5    7.47    2.09
  -3  -4  -5    3.45    4.14
  -3  -4  -5    7.85    2.34
  -3  -4  -5    9.84    2.88
  -3  -4  -5    9.28    2.97
  -3  -4  -5   10.02    2.96
  -3  -4  -5    7.51    1.93
  -4  -4  -5    1.98    1.17
  -4  -4  -5    6.01    1.75
  -4  -4  -5    5.01    1.63
  -4  -4  -5   -0.50    1.65
   3  -5  -5   76.12    5.64
   3  -5  -5   71.86    5.47
   3  -5  -5   70.43    6.65
   3  -5  -5   69.49    4.97
  -3   5   5   68.49    5.44
   2  -5  -5   69.67    7.73
   2  -5  -5   82.45    6.39
   2  -5  -5   78.42    7.88
   2  -5  -5   83.15    6.44
   2  -5  -5   68.06    6.98
   2  -5  -5   86.89    6.05
   2  -5  -5   62.01    6.60
  -2   5   5   75.14    6.83
  -2   5   5   78.54    7.48
   1  -5  -5  892.15   47.54
   1  -5  -5  881.85   45.30
   1  -5  -5  975.89   46.42
   1  -5  -5  839.00   47.82
   1  -5  -5  872.99   49.24
  -1   5   5  795.24   49.78
  -1   5   5  807.72   47.10
  -1   5   5  923.77   46.41
  -1   5   5  906.72   45.91
   0  -5  -5 2324.95  113.92
   0  -5  -5 2268.96  112.96
   0  -5  -5 2261.36  111.48
   0  -5  -5 2271.65  112.43
   0  -5  -5 2142.50  113.91
   0  -5  -5 1876.24  121.34
   0  -5  -5 2130.30  114.30
   0   5   5 2059.78  113.67
   0   5   5 2328.46  111.37
   0   5   5 2164.42  111.60
   0   5   5 2208.21  113.38
   0   5   5 2332.08  112.06
   0   5   5 2189.35  111.74
  -1  -5  -5   21.07    3.32
  -1  -5  -5   21.09    5.84
  -1  -5  -5   18.24    2.54
  -1  -5  -5   17.57    3.41
  -1  -5  -5   17.63    4.02
  -1  -5  -5   19.66    3.09
  -1  -5  -5   21.02    3.75
   1   5   5   17.93    2.38
   1   5   5   14.59    2.25
   1   5   5   16.85    2.99
   1   5   5   12.54    3.57
   1   5   5   21.86    2.68
   1   5   5   18.25    2.25
  -2  -5  -5  183.82   13.04
  -2  -5  -5  185.62   11.54
  -2  -5  -5  189.93   11.74
  -2  -5  -5  153.04   12.40
  -2  -5  -5  189.10   12.74
  -2  -5  -5  199.04   13.36
  -2  -5  -5  214.12   26.66
  -2  -5  -5  156.52   14.92
   2   5   5  164.96   10.22
   2   5   5  164.95   10.29
   2   5   5  175.05   10.77
  -3  -5  -5   31.75    3.52
  -3  -5  -5   18.00    3.67
  -3  -5  -5   22.94    3.65
  -3  -5  -5   14.60    5.20
  -3  -5  -5   22.92    6.63
  -3  -5  -5   30.48    4.45
  -3  -5  -5   31.10    4.76
   3   5   5   28.63    2.75
  -4  -5  -5   -1.02    1.00
  -4  -5  -5   -1.80    1.20
  -4  -5  -5   -4.44    2.18
  -4  -5  -5   -1.10    1.09
   3  -6  -5    0.20    0.65
   3  -6  -5    1.34    1.19
  -3   6   5    1.10    0.79
  -3   6   5    0.89    2.10
   2  -6  -5  157.84    9.28
   2  -6  -5  155.07   11.18
   2  -6  -5  157.03    9.60
   2  -6  -5  161.93   12.10
  -2   6   5  157.85   11.02
  -2   6   5  142.37   10.78
   1  -6  -5 1277.59   65.76
   1  -6  -5 1187.26   66.24
   1  -6  -5 1289.11   63.20
   1  -6  -5 1141.97   66.40
  -1   6   5 1309.83   64.23
  -1   6   5 1206.84   65.52
  -1   6   5 1244.69   66.61
   0  -6  -5   29.70    3.80
   0  -6  -5   22.67    4.23
   0  -6  -5   20.31    3.25
   0  -6  -5   24.26    8.75
   0  -6  -5   33.00    4.81
   0   6   5   28.61    3.56
   0   6   5   27.09    4.34
   0   6   5   28.85    3.63
   0   6   5   27.19    3.65
   0   6   5   26.91    3.24
   0   6   5   30.30    4.77
  -1  -6  -5  253.29   17.99
  -1  -6  -5  260.39   16.99
  -1  -6  -5  283.18   18.33
  -1  -6  -5  233.01   16.19
  -1  -6  -5  269.41   25.38
  -1  -6  -5  189.07   16.66
   1   6   5  258.00   14.95
   1   6   5  259.79   14.55
   1   6   5  209.58   14.26
   1   6   5  228.62   13.91
   1   6   5  237.37   15.83
  -2  -6  -5  234.11   15.91
  -2  -6  -5  223.68   18.57
  -2  -6  -5  231.47   15.23
  -2  -6  -5  218.70   15.49
  -2  -6  -5  223.11   21.18
  -2  -6  -5  222.72   14.07
  -2  -6  -5  237.52   14.10
   2   6   5  236.75   13.78
   2   6   5  217.61   13.14
   2   6   5  211.12   12.88
  -3  -6  -5   14.13    3.24
  -3  -6  -5   24.73    4.11
  -3  -6  -5   24.37    6.56
  -3  -6  -5   24.00    3.35
  -3  -6  -5   22.38    3.10
   3   6   5   22.80    2.74
  -4  -6  -5    2.21    0.86
  -4  -6  -5   -0.28    0.70
   2  -7  -5    1.09    1.65
  -2   7   5    0.33    0.82
   1  -7  -5  107.57    8.50
   1  -7  -5   88.64    7.53
   1  -7  -5  108.02    8.94
  -1   7   5   91.45    8.07
  -1   7   5  117.69    9.62
   0  -7  -5    6.26    2.16
   0  -7  -5    8.10    2.74
   0  -7  -5    4.88    2.41
   0  -7  -5    3.50    1.88
   0  -7  -5    5.57    2.76
   0   7   5    6.60    1.92
   0   7   5    6.04    2.04
   0   7   5    5.49    2.46
   0   7   5    4.01    1.59
   0   7   5    7.75    2.30
   0   7   5    4.34    2.06
  -1  -7  -5   26.24    8.09
  -1  -7  -5   29.53    3.62
  -1  -7  -5   31.44    5.20
  -1  -7  -5   28.61    3.39
  -1  -7  -5   24.71    3.55
  -1  -7  -5   28.87    4.74
  -1  -7  -5   22.33    5.08
   1   7   5   29.08    3.32
   1   7   5   27.34    4.36
   1   7   5   32.85    4.03
   1   7   5   30.11    3.68
   1   7   5   36.17    3.95
  -2  -7  -5   24.43    7.58
  -2  -7  -5   18.73    4.39
  -2  -7  -5   24.01    5.79
   2   7   5   21.88    2.68
   2   7   5   25.14    3.07
   2   7   5   17.34    2.87
  -3  -7  -5    1.90    1.12
  -3  -7  -5    2.11    1.66
  -3  -7  -5    3.20    1.78
  -3  -7  -5    1.50    2.72
  -3  -7  -5    1.97    1.77
  -3  -7  -5    2.45    1.26
   3   7   5    1.44    1.20
   2  -8  -5   12.80    2.29
   2  -8  -5   20.12    2.70
  -2   8   5   16.82    2.21
   1  -8  -5  118.76    8.74
   1  -8  -5  113.51    8.60
  -1   8   5  116.32    9.24
  -1   8   5  103.68    8.30
   0  -8  -5    0.36    1.22
   0  -8  -5   -0.31    1.39
   0  -8  -5   -0.27    1.37
   0   8   5    1.40    1.75
   0   8   5    1.05    1.03
   0   8   5    1.74    1.13
   0   8   5   -1.75    1.43
   0   8   5    0.41    1.77
  -1  -8  -5  173.15   20.21
  -1  -8  -5  200.80   12.45
  -1  -8  -5  226.73   14.65
  -1  -8  -5  191.04   14.88
  -1  -8  -5  219.41   13.10
  -1  -8  -5  213.20   12.67
   1   8   5  207.31   14.41
   1   8   5  218.85   13.29
   1   8   5  220.55   13.38
   1   8   5  218.65   12.81
  -2  -8  -5  174.17   18.64
  -2  -8  -5  202.72   14.09
  -2  -8  -5  192.67   11.89
  -2  -8  -5  191.74   13.41
  -2  -8  -5  198.74   12.06
  -2  -8  -5  193.22   12.64
   2   8   5  199.06   11.61
   2   8   5  181.06   11.81
   2   8   5  199.06   11.99
  -3  -8  -5    0.79    1.20
  -3  -8  -5    2.30    1.47
  -3  -8  -5    0.72    0.90
  -3  -8  -5    0.00    2.30
  -3  -8  -5    0.78    1.13
  -3  -8  -5    0.85    0.70
   3   8   5   -0.01    0.87
   1  -9  -5  128.52    8.49
  -1   9   5  138.09    8.95
  -1   9   5  125.72    8.52
   0  -9  -5   35.02    4.08
   0  -9  -5   35.64    3.93
   0   9   5   39.92    3.73
   0   9   5   39.09    3.81
   0   9   5   39.02    4.97
  -1  -9  -5    3.71    1.33
  -1  -9  -5    0.79    1.51
  -1  -9  -5    2.25    1.47
  -1  -9  -5    4.62    1.79
  -1  -9  -5    0.92    1.11
  -1  -9  -5    0.04    1.38
   1   9   5    9.50    2.52
   1   9   5    3.03    1.62
   1   9   5    2.24    1.15
   1   9   5    2.67    1.25
  -2  -9  -5   41.90    3.62
  -2  -9  -5   40.84    3.94
  -2  -9  -5   52.17    6.73
  -2  -9  -5   34.75    9.03
  -2  -9  -5   41.06    3.68
   2   9   5   39.47    3.67
   2   9   5   46.65    4.12
   2   9   5   41.03    3.87
  -3  -9  -5  131.40    9.40
  -3  -9  -5  136.98    7.66
  -3  -9  -5  121.62    7.47
  -3  -9  -5  124.63    7.80
   0 -10  -5   14.27    1.84
   0  10   5    8.60    2.13
  -1 -10  -5   95.43    6.83
  -1 -10  -5   96.61    6.41
   1  10   5  101.53    7.26
   1  10   5   92.04    6.27
   1  10   5   95.67    6.16
  -2 -10  -5    1.29    0.72
  -2 -10  -5    2.69    1.17
  -2 -10  -5    0.69    1.22
   2  10   5    0.46    0.80
   1  10  -6  174.95   14.05
  -1 -10   6  210.50   11.23
  -1 -10   6  212.74   11.31
   2   9  -6  184.15   11.73
   2   9  -6  192.48   10.76
   2   9  -6  177.18   10.42
  -2  -9   6  183.55   11.12
  -2  -9   6  186.33   10.66
   1   9  -6  413.42   22.26
  -1  -9   6  469.24   26.44
  -1  -9   6  394.87   24.08
   0   9  -6   87.25    6.83
   0   9  -6   86.93    6.81
   0  -9   6   85.45    5.92
   0  -9   6   87.85    6.56
   1  -9   6  111.02    6.87
   1  -9   6   99.52    6.74
   3   8  -6  220.40   12.06
   3   8  -6  207.15   11.73
  -3  -8   6  218.15   12.36
  -3  -8   6  182.76   14.51
  -3  -8   6  245.36   12.23
   2   8  -6    2.47    1.68
   2   8  -6    2.01    0.99
   2   8  -6    0.70    1.23
   2   8  -6    0.31    0.96
  -2  -8   6    0.26    1.16
  -2  -8   6   -0.90    0.93
  -2  -8   6   -0.69    0.99
  -2  -8   6    0.18    0.77
  -2  -8   6   -0.53    2.18
   1   8  -6  392.12   22.31
   1   8  -6  402.30   22.05
   1   8  -6  388.44   23.85
  -1  -8   6  410.03   23.10
  -1  -8   6  401.00   22.20
   0   8  -6    2.57    2.12
   0   8  -6    3.42    1.79
   0  -8   6    3.62    1.95
   0  -8   6    4.32    1.58
  -1   8  -6    0.29    1.34
  -1   8  -6    0.94    1.24
   1  -8   6    0.88    1.22
   1  -8   6    0.66    1.27
   3   7  -6   97.30    7.06
   3   7  -6  106.27    8.92
   3   7  -6  108.88    7.19
   3   7  -6  104.72    6.83
  -3  -7   6  124.42   11.76
  -3  -7   6  115.94    9.67
  -3  -7   6  113.40    7.69
  -3  -7   6  111.42    8.52
   2   7  -6   17.08    2.43
   2   7  -6   13.81    2.42
   2   7  -6   16.28    3.50
  -2  -7   6   19.43    2.75
  -2  -7   6   11.51    5.29
  -2  -7   6   22.12    5.58
  -2  -7   6   17.54    3.50
  -2  -7   6   18.68    3.61
   1   7  -6   56.48    6.48
   1   7  -6   67.64    6.73
   1   7  -6   62.11    4.93
   1   7  -6   57.03    6.38
   1   7  -6   65.13    5.34
   1   7  -6   60.06    6.65
  -1  -7   6   57.72    5.71
  -1  -7   6   67.16    5.85
   0   7  -6  148.25   13.93
   0   7  -6  173.83   10.34
   0   7  -6  165.15   12.03
   0   7  -6  175.50   12.52
   0  -7   6  160.32   11.73
   0  -7   6  178.90   12.92
  -1   7  -6   31.83    5.71
  -1   7  -6   42.02    4.74
  -1   7  -6   43.64    4.97
   1  -7   6   43.41    3.94
   1  -7   6   43.68    5.79
   1  -7   6   41.11    4.76
  -2   7  -6   65.17    5.21
  -2   7  -6   54.26    5.72
   2  -7   6   73.27    4.63
   2  -7   6   65.96    5.94
   3   6  -6   90.72    6.49
   3   6  -6   97.37    6.74
   3   6  -6   89.41    7.80
   3   6  -6   98.36    6.34
  -3  -6   6   87.64    9.92
  -3  -6   6   77.27    7.35
  -3  -6   6   94.69    7.53
  -3  -6   6   90.56    8.55
  -3  -6   6  113.55   12.36
  -3  -6   6  115.90   12.72
   2   6  -6 1318.26   69.63
   2   6  -6 1312.53   70.77
   2   6  -6 1309.09   71.36
   2   6  -6 1268.39   69.25
   2   6  -6 1351.71   68.79
  -2  -6   6 1342.42   72.42
  -2  -6   6 1328.02   70.71
  -2  -6   6 1343.84   69.87
  -2  -6   6 1532.70   79.50
   1   6  -6  444.48   26.79
   1   6  -6  443.46   25.97
   1   6  -6  435.84   23.85
   1   6  -6  505.64   28.04
   1   6  -6  408.41   24.86
  -1  -6   6  405.52   25.01
  -1  -6   6  408.91   31.08
  -1  -6   6  424.51   24.81
   0   6  -6    6.59    1.36
   0   6  -6    8.18    2.69
   0   6  -6    6.81    1.68
   0   6  -6   11.17    2.90
   0   6  -6    7.99    2.80
   0  -6   6    6.28    1.76
   0  -6   6    1.43    6.06
   0  -6   6    8.24    3.04
   0  -6   6    7.63    2.29
  -1   6  -6   84.02    8.50
  -1   6  -6   81.22    7.43
  -1   6  -6   88.58    7.80
   1  -6   6   93.48    8.89
   1  -6   6   84.34    7.44
   1  -6   6   86.06    6.54
   1  -6   6   86.89    6.85
   1  -6   6   73.56    6.81
   1  -6   6   89.45    8.91
  -2   6  -6    9.00    3.12
  -2   6  -6   10.92    2.32
   2  -6   6   19.86    4.37
   2  -6   6   12.23    2.08
   2  -6   6   13.38    2.82
   2  -6   6   16.81    2.80
   4   5  -6   63.09    5.52
   4   5  -6   72.00    5.03
  -4  -5   6   80.17    6.49
  -4  -5   6   83.16    8.93
  -4  -5   6   91.86    9.21
   3   5  -6  133.70    8.32
   3   5  -6  116.12   10.10
   3   5  -6  137.60    8.78
   3   5  -6  134.88    8.51
  -3  -5   6  137.81   11.74
  -3  -5   6  136.61   10.04
  -3  -5   6  150.57   15.99
   2   5  -6    0.45    0.90
   2   5  -6    1.24    1.13
   2   5  -6   -1.22    1.09
   2   5  -6   -2.90    1.43
   2   5  -6    1.46    0.99
  -2  -5   6    1.09    2.40
  -2  -5   6    0.92    1.79
  -2  -5   6    0.61    1.00
  -2  -5   6    4.84    3.94
  -2  -5   6    3.58    2.25
   1   5  -6   75.42    6.31
   1   5  -6   78.09    5.54
   1   5  -6   64.11    6.64
   1   5  -6   81.03    7.33
   1   5  -6   80.53    5.30
   1   5  -6   73.34    6.12
   1   5  -6   73.59    5.71
  -1  -5   6   82.32   10.43
  -1  -5   6   74.89    6.29
  -1  -5   6   69.45    7.01
  -1  -5   6   65.03    7.11
  -1  -5   6   82.72   10.61
   0   5  -6  199.49   13.35
   0   5  -6  172.48   11.46
   0   5  -6  201.94   11.32
   0   5  -6  180.82   12.26
   0   5  -6  196.16   12.93
   0   5  -6  173.18   12.61
   0   5  -6  190.77   10.72
   0   5  -6  192.24   11.18
   0  -5   6  183.85   12.31
   0  -5   6  179.00   10.95
   0  -5   6  156.32   22.79
   0  -5   6  182.53   11.38
   0  -5   6  185.82   13.34
  -1   5  -6 1648.84   90.06
  -1   5  -6 2028.52   97.33
  -1   5  -6 1739.07   90.49
  -1   5  -6 1762.41   88.66
   1  -5   6 1738.53   89.18
   1  -5   6 1688.91   91.73
   1  -5   6 1676.07   90.40
   1  -5   6 1658.16   89.44
   1  -5   6 1676.61   88.97
   1  -5   6 1592.28   88.69
   1  -5   6 1965.54  133.19
  -2   5  -6  194.32   11.47
  -2   5  -6  192.13   11.46
  -2   5  -6  163.01   15.08
  -2   5  -6  184.19   12.39
  -2   5  -6  189.06   17.49
   2  -5   6  183.01   13.73
   2  -5   6  177.17   11.60
   2  -5   6  187.54   12.09
   2  -5   6  181.99   11.68
  -3   5  -6   81.91    7.51
  -3   5  -6   83.52   11.75
  -3   5  -6   82.28    5.46
   3  -5   6   79.05    5.82
   3  -5   6   99.44    7.37
   3  -5   6   85.93    5.90
   3  -5   6   84.51    6.86
   4   4  -6   27.29    2.97
   4   4  -6   29.63    2.67
  -4  -4   6   31.17    5.97
  -4  -4   6   33.92    4.27
   3   4  -6  415.18   23.79
   3   4  -6  444.58   23.49
   3   4  -6  444.20   23.40
   3   4  -6  419.77   25.25
   3   4  -6  403.43   24.79
  -3  -4   6  465.44   25.70
  -3  -4   6  453.63   35.34
  -3  -4   6  435.92   28.50
   2   4  -6  353.96   18.54
   2   4  -6  346.40   18.99
   2   4  -6  294.67   20.29
   2   4  -6  347.07   19.91
   2   4  -6  350.93   18.46
  -2  -4   6  317.09   22.21
  -2  -4   6  321.01   36.02
  -2  -4   6  359.82   19.65
   1   4  -6 1336.23   70.63
   1   4  -6 1407.20   70.64
   1   4  -6 1378.38   70.89
   1   4  -6 1405.79   71.42
   1   4  -6 1380.53   70.25
   1   4  -6 1345.57   72.36
   1   4  -6 1468.73   70.17
  -1  -4   6 1470.37   72.68
  -1  -4   6 1377.85   71.53
  -1  -4   6 1245.82   73.05
   0   4  -6  334.31   18.33
   0   4  -6  336.52   18.12
   0   4  -6  329.06   19.74
   0   4  -6  343.99   18.90
   0   4  -6  365.94   17.81
   0   4  -6  334.05   19.42
   0  -4   6  303.09   17.99
   0  -4   6  323.20   20.14
   0  -4   6  321.24   18.25
   0  -4   6  319.23   18.62
   0  -4   6  304.10   31.12
   0  -4   6  324.42   18.26
  -1   4  -6  350.75   22.57
  -1   4  -6  383.82   20.65
  -1   4  -6  362.96   21.85
  -1   4  -6  388.84   22.37
  -1   4  -6  355.90   21.59
   1  -4   6  411.45   36.32
   1  -4   6  366.94   21.51
   1  -4   6  363.76   20.53
   1  -4   6  383.86   21.05
   1  -4   6  377.57   22.16
   1  -4   6  367.96   21.04
   1  -4   6  372.99   23.06
  -2   4  -6   49.55    4.32
  -2   4  -6   39.37    4.83
  -2   4  -6   48.23    4.91
  -2   4  -6   42.62    7.93
  -2   4  -6   50.47    6.39
  -2   4  -6   33.75    8.37
  -2   4  -6   37.92    4.48
   2  -4   6   44.33    4.47
   2  -4   6   40.50    4.77
   2  -4   6   49.30    6.29
   2  -4   6   42.72    3.95
   2  -4   6   44.40    4.42
  -3   4  -6    0.00    0.81
  -3   4  -6    0.24    3.61
  -3   4  -6    0.17    1.51
  -3   4  -6    0.47    0.83
  -3   4  -6    0.97    2.19
   3  -4   6    0.83    0.94
   3  -4   6   -1.25    1.66
   3  -4   6    0.72    0.88
   3  -4   6    0.69    1.06
   4   3  -6  191.89   10.93
   4   3  -6  189.53   11.22
  -4  -3   6  196.66   13.62
  -4  -3   6  205.53   18.04
   3   3  -6   44.44    3.95
   3   3  -6   39.01    5.61
   3   3  -6   35.55    4.39
   3   3  -6   45.67    5.59
   3   3  -6   34.02    4.02
  -3  -3   6   39.70    6.55
  -3  -3   6   51.24    9.09
  -3  -3   6   41.38    5.09
  -3  -3   6   37.85    9.42
  -3  -3   6   49.48    7.67
  -3  -3   6   31.39    9.89
   2   3  -6  596.91   30.62
   2   3  -6  566.00   31.46
   2   3  -6  615.82   30.74
   2   3  -6  612.96   33.28
   2   3  -6  560.00   34.99
   2   3  -6  600.53   31.29
   2   3  -6  581.73   31.87
  -2  -3   6  552.47   40.64
  -2  -3   6  605.09   31.69
  -2  -3   6  545.82   34.58
   1   3  -6  492.77   24.44
   1   3  -6  422.83   23.91
   1   3  -6  479.21   25.13
   1   3  -6  463.93   25.32
   1   3  -6  486.02   24.36
   1   3  -6  451.43   24.84
  -1  -3   6  450.09   25.46
  -1  -3   6  466.92   27.04
   0   3  -6 4444.39  216.95
   0   3  -6 4462.55  216.33
   0   3  -6 4460.80  217.42
   0   3  -6 4190.31  217.59
   0  -3   6 4132.01  216.92
   0  -3   6 4272.54  217.02
  -1   3  -6    2.68    1.24
  -1   3  -6    3.61    3.85
  -1   3  -6    0.49    1.14
  -1   3  -6    1.39    1.10
  -1   3  -6    0.63    0.80
  -1   3  -6   -1.32    1.96
  -1   3  -6    2.08    1.41
   1  -3   6    0.19    0.88
   1  -3   6    1.33    0.80
   1  -3   6    0.67    2.58
   1  -3   6    0.44    0.88
   1  -3   6    3.20    2.36
   1  -3   6    2.03    1.49
  -2   3  -6    0.92    1.00
  -2   3  -6    0.64    2.61
  -2   3  -6    1.34    1.22
  -2   3  -6    0.70    2.75
  -2   3  -6    1.65    1.32
  -2   3  -6    0.05    1.05
   2  -3   6   -1.37    2.87
   2  -3   6    0.99    1.98
   2  -3   6    0.34    0.86
   2  -3   6    1.35    1.72
   2  -3   6    2.53    1.43
  -3   3  -6   68.89   13.28
  -3   3  -6   83.18    5.81
  -3   3  -6   56.56   10.17
  -3   3  -6   73.40    6.27
  -3   3  -6   75.60    9.64
  -3   3  -6   68.91    6.17
   3  -3   6   98.97    8.30
   3  -3   6   76.56    6.12
   3  -3   6   74.27    5.82
   3  -3   6   76.49    6.28
   4   2  -6    8.34    1.53
   4   2  -6    8.05    1.64
   4   2  -6    9.91    1.93
  -4  -2   6    9.79    3.07
  -4  -2   6    7.91    3.03
  -4  -2   6    5.50    3.37
   3   2  -6  342.67   20.87
   3   2  -6  321.68   19.70
   3   2  -6  363.27   18.86
   3   2  -6  340.91   19.31
   3   2  -6  349.81   18.65
  -3  -2   6  370.19   27.78
  -3  -2   6  317.56   20.00
  -3  -2   6  311.93   29.76
  -3  -2   6  315.66   22.93
  -3  -2   6  298.49   24.51
  -3  -2   6  326.56   18.43
   2   2  -6 1394.50   72.88
   2   2  -6 1320.09   74.32
   2   2  -6 1355.95   71.32
   2   2  -6 1434.30   70.46
   2   2  -6 1292.24   70.78
   2   2  -6 1295.85   70.85
   2   2  -6 1425.90   70.35
  -2  -2   6 1350.81   75.84
  -2  -2   6 1421.62   71.43
  -2  -2   6 1514.26   79.22
   1   2  -6  222.32   13.21
   1   2  -6  223.11   12.33
   1   2  -6  232.46   12.42
   1   2  -6  214.16   12.76
  -1  -2   6  226.75   13.00
  -1  -2   6  235.98   15.82
   0   2  -6  411.66   22.57
   0   2  -6  416.72   23.45
   0   2  -6  475.99   22.85
   0   2  -6  458.24   23.21
   0  -2   6  416.27   23.19
   0  -2   6  437.01   22.94
   0  -2   6  426.90   34.64
  -1   2  -6 1307.30   69.52
  -1   2  -6 1337.71   70.36
  -1   2  -6 1366.08   69.79
   1  -2   6 1410.34   69.14
   1  -2   6 1381.89   68.51
   1  -2   6 1291.50   68.96
  -2   2  -6   69.91    5.92
  -2   2  -6   59.70   15.55
  -2   2  -6   78.13    6.94
  -2   2  -6   81.44    7.80
  -2   2  -6   87.97    6.42
   2  -2   6   76.34    5.99
   2  -2   6   80.11    5.38
   2  -2   6   89.45   15.07
   2  -2   6   80.92    6.01
   2  -2   6   66.75    6.49
   2  -2   6   71.44    7.74
  -3   2  -6   35.24    4.10
  -3   2  -6   25.45    7.88
  -3   2  -6   31.78   10.14
  -3   2  -6   22.57    6.43
  -3   2  -6   29.40    4.03
  -3   2  -6   32.30    3.54
   3  -2   6   34.55    3.84
   3  -2   6   29.91    3.50
   3  -2   6   31.66    4.23
  -4   2  -6   17.15    3.20
  -4   2  -6   15.81    2.18
  -4   2  -6   22.67    5.91
  -4   2  -6   15.55    4.07
  -4   2  -6   19.54    2.27
   4  -2   6   16.31    2.50
   4   1  -6  294.36   15.85
   4   1  -6  303.10   16.19
   4   1  -6  297.09   16.09
  -4  -1   6  258.80   23.55
   3   1  -6  113.74    9.08
   3   1  -6  131.98    9.10
   3   1  -6  133.71    8.48
   3   1  -6  135.69    8.67
   3   1  -6  134.36   10.89
  -3  -1   6  135.67   15.42
  -3  -1   6  158.36   15.25
  -3  -1   6  116.22   17.01
  -3  -1   6  136.60    8.72
  -3  -1   6  119.61    8.37
  -3  -1   6  127.38   12.37
  -3  -1   6  121.80   14.44
   2   1  -6  491.73   26.65
   2   1  -6  491.59   27.48
   2   1  -6  472.21   27.13
   2   1  -6  531.89   32.29
   2   1  -6  504.64   29.49
  -2  -1   6  560.74   33.65
  -2  -1   6  506.62   27.65
  -2  -1   6  572.03   29.59
  -2  -1   6  463.62   33.45
  -2  -1   6  434.95   26.62
  -2  -1   6  504.36   32.78
   1   1  -6  560.78   28.23
   1   1  -6  516.62   30.10
   1   1  -6  557.09   28.96
   1   1  -6  548.63   28.11
   1   1  -6  528.10   28.51
  -1  -1   6  542.11   28.63
   0   1  -6  191.36   10.55
   0   1  -6  179.52   10.77
   0   1  -6  170.53   10.45
   0   1  -6  195.13    9.92
   0  -1   6  158.49   19.86
   0  -1   6  174.88   10.06
  -1   1  -6  448.10   25.10
   1  -1   6  413.18   23.79
   1  -1   6  423.66   23.82
   1  -1   6  449.05   23.43
   1  -1   6  503.23   35.01
  -2   1  -6   54.07   11.20
  -2   1  -6   63.37    5.16
  -2   1  -6   66.88    5.82
  -2   1  -6   60.54    5.26
  -2   1  -6   55.21    5.93
  -2   1  -6   66.76    6.66
  -2   1  -6   62.45    5.08
   2  -1   6   61.71    4.36
   2  -1   6   76.71   13.19
   2  -1   6   60.47    4.99
   2  -1   6   62.95    4.93
  -3   1  -6  104.60    9.18
  -3   1  -6  143.18   11.06
  -3   1  -6  103.59   16.63
  -3   1  -6   98.38   12.89
  -3   1  -6  124.43    8.55
   3  -1   6  129.08    8.17
   3  -1   6  120.82    8.15
   3  -1   6  101.18    8.96
  -4   1  -6  100.09    6.14
  -4   1  -6   95.06    6.75
  -4   1  -6  104.40   10.95
  -4   1  -6   97.46   11.38
   4  -1   6  100.25    6.78
   4  -1   6   83.91    7.22
   4   0  -6  185.16   11.00
   4   0  -6  176.03   11.26
  -4   0   6  225.02   15.89
  -4   0   6  160.08   17.65
   3   0  -6  811.61   44.28
   3   0  -6  835.17   46.40
   3   0  -6  826.45   43.82
   3   0  -6  880.63   44.63
   3   0  -6  765.65   44.58
  -3   0   6  743.69   52.46
  -3   0   6  960.58   47.54
  -3   0   6  778.58   52.90
  -3   0   6  973.17   53.71
  -3   0   6  848.17   44.09
  -3   0   6  705.45   56.80
  -3   0   6  878.09   44.27
   2   0  -6   68.06    5.60
   2   0  -6   63.62    6.93
   2   0  -6   63.20    5.48
   2   0  -6   68.08    5.71
   2   0  -6   62.70    6.95
   2   0  -6   65.40    4.99
  -2   0   6   68.06    9.41
  -2   0   6   69.08    5.65
  -2   0   6   71.12    9.11
  -2   0   6   66.94    5.05
  -2   0   6   72.97    6.76
  -2   0   6   54.73    8.98
   1   0  -6  169.61   10.96
   1   0  -6  164.13    9.85
   1   0  -6  162.94    9.25
   1   0  -6  162.28    9.12
  -1   0   6  148.79    9.59
  -1   0   6  155.92    9.57
   0   0  -6   15.79    1.83
   0   0  -6   19.32    2.06
   0   0  -6   17.76    2.06
   0   0  -6   21.04    2.19
   0   0   6   17.07    5.83
  -1   0  -6   81.22    6.34
  -1   0  -6   87.52    5.52
   1   0   6   90.90   11.83
   1   0   6   75.94    5.49
   1   0   6   85.45    5.19
   1   0   6   80.05    5.48
  -2   0  -6  294.13   18.10
  -2   0  -6  291.11   16.76
  -2   0  -6  276.59   16.33
  -2   0  -6  282.74   18.04
  -2   0  -6  269.61   20.65
  -2   0  -6  305.22   16.13
  -2   0  -6  282.97   16.18
  -2   0  -6  247.46   26.09
  -2   0  -6  300.41   17.29
   2   0   6  292.57   15.88
   2   0   6  294.93   15.34
   2   0   6  260.90   15.75
  -3   0  -6   36.83    3.75
  -3   0  -6   36.32    5.59
  -3   0  -6   34.41    3.96
  -3   0  -6   31.85    7.83
  -3   0  -6   34.43    4.87
  -3   0  -6   34.48    4.38
  -3   0  -6   29.04    9.24
  -3   0  -6   33.43    8.93
   3   0   6   37.28    3.89
   3   0   6   36.23    2.99
   3   0   6   44.87    4.72
  -4   0  -6   -0.63    3.64
  -4   0  -6    0.22    2.44
  -4   0  -6    1.31    2.08
  -4   0  -6    1.10    1.71
  -4   0  -6    0.78    0.76
  -4   0  -6    0.20    0.94
   4  -1  -6  122.20    7.33
   4  -1  -6  111.55    7.03
   4  -1  -6  111.43    8.38
  -4   1   6  131.68   13.24
  -4   1   6   99.77   12.85
   3  -1  -6   53.34    4.75
   3  -1  -6   49.40    4.78
   3  -1  -6   62.33    7.20
   3  -1  -6   56.67    7.73
  -3   1   6   67.96    9.73
  -3   1   6   65.45    7.17
  -3   1   6   52.10    4.88
  -3   1   6   44.44   11.81
  -3   1   6   56.88    5.70
   2  -1  -6   55.41    6.68
   2  -1  -6   58.46    6.66
   2  -1  -6   55.57    5.16
   2  -1  -6   63.42    4.96
   2  -1  -6   61.99    4.67
   2  -1  -6   55.24    5.26
  -2   1   6   61.76    8.92
  -2   1   6   60.56    4.89
  -2   1   6   65.08    5.58
  -2   1   6   74.65    9.38
  -2   1   6   66.28    6.47
  -2   1   6   51.83    8.93
   1  -1  -6  386.32   20.51
   1  -1  -6  383.45   20.65
   1  -1  -6  401.47   21.43
   1  -1  -6  386.52   22.32
  -1   1   6  422.23   25.54
  -1   1   6  378.32   21.10
  -1   1   6  368.44   20.92
   0  -1  -6 1747.03   84.41
   0   1   6 1584.63   84.08
  -1  -1  -6    5.63    1.61
  -1  -1  -6    8.82    2.11
   1   1   6    6.95    3.92
   1   1   6    4.20    1.07
   1   1   6    5.69    1.10
  -2  -1  -6   75.24   13.48
  -2  -1  -6   92.01    7.38
  -2  -1  -6   93.25    6.43
  -2  -1  -6   90.08    6.93
  -2  -1  -6   96.29    7.80
  -2  -1  -6   95.31    8.20
  -2  -1  -6   91.20    7.57
  -2  -1  -6   85.64    9.32
   2   1   6  100.47   13.59
   2   1   6   88.38    5.83
   2   1   6   93.79    5.53
   2   1   6   74.50    5.92
  -3  -1  -6   32.42    3.47
  -3  -1  -6   20.85    8.91
  -3  -1  -6   32.49    5.12
  -3  -1  -6   30.74    3.93
  -3  -1  -6   28.42    5.93
  -3  -1  -6   30.68    4.14
  -3  -1  -6   22.43    4.56
   3   1   6   26.48    3.45
   3   1   6   31.65    2.58
   3   1   6   30.66    3.19
  -4  -1  -6   11.31    2.62
  -4  -1  -6   15.33    3.79
  -4  -1  -6    6.80    4.25
  -4  -1  -6   11.66    1.92
  -4  -1  -6   12.68    2.24
   4  -2  -6   41.17    3.30
   4  -2  -6   47.73    3.55
  -4   2   6   48.82    5.69
   3  -2  -6   26.65    5.10
   3  -2  -6   24.74    3.30
   3  -2  -6   24.86    3.29
   3  -2  -6   28.99    3.91
  -3   2   6   27.81    3.43
  -3   2   6   28.12    3.30
  -3   2   6   35.62    6.89
  -3   2   6   21.34    6.09
   2  -2  -6  409.07   24.25
   2  -2  -6  452.23   26.39
   2  -2  -6  406.21   24.19
   2  -2  -6  441.87   23.63
   2  -2  -6  451.47   26.52
   2  -2  -6  432.38   23.36
  -2   2   6  457.45   25.51
  -2   2   6  361.56   29.84
  -2   2   6  464.76   24.22
  -2   2   6  468.90   25.82
  -2   2   6  426.09   26.95
  -2   2   6  402.17   29.93
   1  -2  -6  131.18    8.21
   1  -2  -6  150.83    9.97
   1  -2  -6  136.59    8.90
   1  -2  -6  129.62   10.52
   1  -2  -6  135.16    8.14
   1  -2  -6  139.16    8.75
  -1   2   6  131.09    8.72
  -1   2   6  138.54    8.55
  -1   2   6  149.36   12.27
   0   2   6 4969.14  248.59
  -1  -2  -6  885.26   43.33
   1   2   6  820.22   41.99
   1   2   6  774.79   50.41
   1   2   6  795.71   41.93
  -2  -2  -6    3.89    1.81
  -2  -2  -6    3.83    1.64
  -2  -2  -6    7.31    2.00
  -2  -2  -6    4.87    2.16
  -2  -2  -6    2.66    1.89
  -2  -2  -6    4.03    2.39
  -2  -2  -6    0.74    4.07
  -2  -2  -6    3.53    1.60
  -2  -2  -6    5.88    2.43
   2   2   6    5.10    1.11
   2   2   6    4.11    3.40
   2   2   6    3.73    1.06
  -3  -2  -6  171.67   10.51
  -3  -2  -6  170.58   12.73
  -3  -2  -6  164.24   11.46
  -3  -2  -6  170.87   12.98
  -3  -2  -6  168.81   11.19
  -3  -2  -6  150.74   13.45
  -3  -2  -6  132.98   18.78
   3   2   6  170.64    9.85
   3   2   6  166.02    9.07
  -4  -2  -6  146.87    8.61
  -4  -2  -6  128.21   14.22
  -4  -2  -6  139.55    8.71
  -4  -2  -6  116.50    9.30
  -4  -2  -6  145.69   10.19
   3  -3  -6    6.14    2.62
   3  -3  -6    9.08    2.10
   3  -3  -6    4.41    1.64
   3  -3  -6    7.37    1.85
  -3   3   6    5.53    1.65
  -3   3   6    5.64    3.06
  -3   3   6    9.03    2.56
  -3   3   6    7.55    3.83
   2  -3  -6   14.25    2.67
   2  -3  -6   14.74    5.64
   2  -3  -6    6.79    3.04
   2  -3  -6   13.86    2.39
   2  -3  -6   11.12    2.25
   2  -3  -6   17.78    4.33
   2  -3  -6   17.93    2.65
  -2   3   6   17.40    3.44
  -2   3   6   10.53    3.48
  -2   3   6   17.08    3.43
  -2   3   6   18.64    2.63
  -2   3   6    9.84    4.27
   1  -3  -6 3090.76  154.84
   1  -3  -6 2989.58  155.76
   1  -3  -6 3403.50  156.68
   1  -3  -6 2977.98  153.79
   1  -3  -6 3123.63  154.42
   1  -3  -6 3256.35  154.46
   1  -3  -6 2964.74  156.34
  -1   3   6 2743.87  155.16
  -1   3   6 2943.52  159.04
  -1   3   6 3164.26  154.37
  -1   3   6 3071.83  154.95
  -1   3   6 3010.13  156.37
  -1   3   6 3084.06  154.68
   0  -3  -6  261.52   15.48
   0  -3  -6  265.62   14.21
   0  -3  -6  264.91   15.15
   0   3   6  244.61   14.31
   0   3   6  244.39   14.30
   0   3   6  230.64   14.03
  -1  -3  -6    0.97    0.95
  -1  -3  -6   -1.17    0.90
  -1  -3  -6   -0.38    1.00
  -1  -3  -6    0.36    1.34
   1   3   6   -1.39    0.58
   1   3   6    0.55    0.73
   1   3   6   -0.16    0.66
  -2  -3  -6   48.41    6.34
  -2  -3  -6   59.02    4.95
  -2  -3  -6   66.70    7.38
  -2  -3  -6   59.30    5.65
  -2  -3  -6   58.44    6.02
  -2  -3  -6   63.57    6.14
  -2  -3  -6   59.74    5.99
  -2  -3  -6   48.51   10.33
  -2  -3  -6   72.10    5.38
   2   3   6   58.19    4.17
   2   3   6   53.43    4.05
  -3  -3  -6  695.58   37.64
  -3  -3  -6  655.93   36.35
  -3  -3  -6  645.85   34.92
  -3  -3  -6  666.70   36.06
  -3  -3  -6  647.47   34.92
  -3  -3  -6  603.13   37.36
  -4  -3  -6   39.84    6.86
  -4  -3  -6   33.73    3.34
  -4  -3  -6   29.17    3.65
  -4  -3  -6   35.86    3.70
   3  -4  -6  298.81   16.77
   3  -4  -6  292.32   18.76
   3  -4  -6  310.71   17.03
   3  -4  -6  300.63   16.65
  -3   4   6  303.65   17.52
   2  -4  -6   49.40    5.67
   2  -4  -6   53.70    4.90
   2  -4  -6   45.49    5.64
   2  -4  -6   49.11    4.47
   2  -4  -6   41.36    5.03
   2  -4  -6   51.18    4.45
   2  -4  -6   55.36    6.70
  -2   4   6   46.73    5.26
  -2   4   6   47.37    8.27
  -2   4   6   50.72    5.99
  -2   4   6   62.81    8.43
   1  -4  -6 1467.52   72.98
   1  -4  -6 1428.53   76.11
   1  -4  -6 1392.59   73.97
   1  -4  -6 1457.32   75.54
   1  -4  -6 1446.85   75.17
   1  -4  -6 1449.78   72.91
   1  -4  -6 1382.28   75.63
   1  -4  -6 1464.57   73.41
  -1   4   6 1333.98   74.59
  -1   4   6 1431.75   73.90
  -1   4   6 1406.51   73.44
  -1   4   6 1406.75   78.50
  -1   4   6 1607.46   79.92
  -1   4   6 1396.42   75.73
   0  -4  -6    1.43    1.28
   0  -4  -6    2.32    1.21
   0  -4  -6    1.34    1.80
   0  -4  -6    3.27    1.98
   0  -4  -6    2.18    1.34
   0  -4  -6    3.31    4.24
   0   4   6    2.35    0.98
   0   4   6    2.44    1.18
   0   4   6    2.80    1.11
  -1  -4  -6   86.46    7.46
  -1  -4  -6   88.49    6.44
  -1  -4  -6   90.35    7.41
  -1  -4  -6   92.82    7.98
  -1  -4  -6   75.68   11.18
  -1  -4  -6   92.65    8.45
  -1  -4  -6   88.80    6.47
   1   4   6   93.61    6.23
   1   4   6   85.94    5.84
   1   4   6   89.35    6.10
  -2  -4  -6  232.67   17.73
  -2  -4  -6  277.74   22.28
  -2  -4  -6  300.13   18.18
  -2  -4  -6  268.39   19.96
  -2  -4  -6  280.97   18.17
  -2  -4  -6  285.62   16.91
  -2  -4  -6  263.12   19.25
   2   4   6  283.43   15.13
   2   4   6  244.94   14.72
   2   4   6  244.26   14.68
  -3  -4  -6   38.38    5.83
  -3  -4  -6   39.83    6.09
   3   4   6   38.30    3.42
  -4  -4  -6   -1.91    1.04
  -4  -4  -6   -0.96    1.10
  -4  -4  -6   -1.63    0.84
  -4  -4  -6    0.43    1.11
   3  -5  -6  224.35   11.86
   3  -5  -6  212.45   11.58
   3  -5  -6  217.60   13.54
  -3   5   6  180.55   18.95
  -3   5   6  215.64   12.41
   2  -5  -6   48.62    4.85
   2  -5  -6   63.41    5.23
   2  -5  -6   53.39    5.92
   2  -5  -6   64.81    7.29
   2  -5  -6   62.50    4.81
   2  -5  -6   56.99    7.44
  -2   5   6   60.84    5.94
  -2   5   6   60.84    6.32
  -2   5   6   52.54   12.85
   1  -5  -6  141.19   10.33
   1  -5  -6  145.95    8.69
   1  -5  -6  131.61   10.65
   1  -5  -6  142.65   10.95
   1  -5  -6  128.04   11.41
  -1   5   6  130.41    8.77
  -1   5   6  145.61    9.40
  -1   5   6  122.63   12.34
  -1   5   6  129.16    9.89
  -1   5   6  137.32   10.96
   0  -5  -6  256.54   17.84
   0  -5  -6  258.65   18.47
   0  -5  -6  285.47   16.84
   0  -5  -6  282.86   17.18
   0  -5  -6  292.41   18.23
   0  -5  -6  268.78   16.81
   0  -5  -6  255.53   15.78
   0   5   6  283.31   15.84
   0   5   6  290.49   16.57
   0   5   6  260.49   16.06
   0   5   6  277.05   17.69
   0   5   6  282.64   16.18
   0   5   6  269.05   19.65
  -1  -5  -6  406.61   32.38
  -1  -5  -6  466.72   24.71
  -1  -5  -6  462.73   26.10
  -1  -5  -6  490.50   28.25
  -1  -5  -6  486.51   27.21
  -1  -5  -6  439.62   24.50
  -1  -5  -6  435.94   24.52
   1   5   6  485.27   24.80
   1   5   6  404.36   25.68
   1   5   6  394.77   24.37
   1   5   6  435.96   24.23
   1   5   6  431.22   23.92
  -2  -5  -6  850.59   43.99
  -2  -5  -6  807.20   51.02
  -2  -5  -6  824.69   42.65
  -2  -5  -6  730.04   44.22
  -2  -5  -6  881.59   45.03
  -2  -5  -6  806.68   44.28
  -2  -5  -6  836.01   42.66
   2   5   6  709.29   41.20
   2   5   6  747.92   41.48
  -3  -5  -6   93.30    7.09
  -3  -5  -6   86.45    7.73
  -3  -5  -6  107.47    8.67
  -3  -5  -6  102.85    7.26
  -3  -5  -6   97.01    8.34
  -3  -5  -6   88.98    7.94
   3   5   6   88.60    6.26
  -4  -5  -6   12.39    1.66
  -4  -5  -6   14.25    2.18
  -4  -5  -6    9.09    1.95
   3  -6  -6    3.38    1.33
  -3   6   6    1.66    1.83
  -3   6   6    4.33    1.06
   2  -6  -6    1.88    1.03
   2  -6  -6    3.07    1.95
   2  -6  -6    1.79    1.58
  -2   6   6    4.00    1.96
  -2   6   6    2.22    1.55
   1  -6  -6   85.48    7.59
   1  -6  -6   69.31    8.07
   1  -6  -6   89.14    8.40
  -1   6   6   91.57    6.68
  -1   6   6   83.26    7.41
  -1   6   6   88.35    8.44
   0  -6  -6   25.83    4.77
   0  -6  -6   31.59    4.04
   0  -6  -6   29.48    4.31
   0  -6  -6   28.93    4.61
   0  -6  -6   29.50    5.99
   0  -6  -6   30.60    4.98
   0   6   6   28.91    3.99
   0   6   6   33.40    3.83
   0   6   6   24.74    4.12
   0   6   6   32.45    3.66
   0   6   6   30.88    3.76
   0   6   6   29.60    5.17
  -1  -6  -6  400.49   23.57
  -1  -6  -6  413.73   22.17
  -1  -6  -6  347.19   30.39
  -1  -6  -6  394.28   25.82
  -1  -6  -6  374.05   21.77
  -1  -6  -6  402.85   24.61
  -1  -6  -6  388.57   21.85
   1   6   6  359.18   21.84
   1   6   6  401.69   22.56
   1   6   6  383.94   21.44
   1   6   6  369.01   23.21
   1   6   6  416.58   22.00
  -2  -6  -6   42.97    5.59
  -2  -6  -6   33.41    8.33
  -2  -6  -6   45.54    5.44
  -2  -6  -6   39.06    4.10
  -2  -6  -6   38.15    5.28
  -2  -6  -6   39.38    4.34
   2   6   6   46.05    4.68
   2   6   6   38.03    4.03
   2   6   6   33.04    3.45
   2   6   6   38.55    3.77
  -3  -6  -6   61.74    6.29
  -3  -6  -6   52.91    5.64
  -3  -6  -6   61.75    5.26
  -3  -6  -6   60.45    5.21
  -3  -6  -6   63.92    6.41
   3   6   6   62.86    6.09
   3   6   6   66.76    4.90
   2  -7  -6   33.67    4.17
   2  -7  -6   36.24    3.92
  -2   7   6   28.97    3.49
   1  -7  -6  368.92   22.28
   1  -7  -6  383.92   22.79
  -1   7   6  390.51   23.28
  -1   7   6  355.26   22.10
   0  -7  -6   33.99    5.52
   0  -7  -6   36.45    5.92
   0  -7  -6   38.11    4.55
   0  -7  -6   35.46    4.62
   0   7   6   36.75    4.19
   0   7   6   36.84    5.23
   0   7   6   39.34    4.73
   0   7   6   45.08    5.73
   0   7   6   39.93    4.12
   0   7   6   43.21    7.14
  -1  -7  -6  247.25   15.04
  -1  -7  -6  240.81   18.83
  -1  -7  -6  217.16   23.12
  -1  -7  -6  248.44   16.47
  -1  -7  -6  258.71   14.82
  -1  -7  -6  255.06   14.84
  -1  -7  -6  244.90   17.44
   1   7   6  239.40   16.34
   1   7   6  242.54   14.64
   1   7   6  265.18   15.30
   1   7   6  238.83   15.05
   1   7   6  274.04   16.04
  -2  -7  -6    6.62    1.87
  -2  -7  -6    7.18    4.75
  -2  -7  -6    7.70    2.14
  -2  -7  -6   11.74    3.40
  -2  -7  -6    8.53    2.73
  -2  -7  -6    9.51    2.58
   2   7   6    6.18    1.45
   2   7   6    8.79    2.10
   2   7   6    7.23    1.81
  -3  -7  -6    1.28    1.28
  -3  -7  -6    2.09    1.25
  -3  -7  -6    1.06    1.08
  -3  -7  -6    2.63    1.28
  -3  -7  -6    2.50    3.06
  -3  -7  -6    3.14    1.71
   3   7   6   -0.20    1.20
   2  -8  -6   -1.02    0.98
   2  -8  -6    2.21    1.00
  -2   8   6    1.64    0.96
   1  -8  -6  188.37   12.34
   1  -8  -6  207.38   15.16
  -1   8   6  179.22   12.37
  -1   8   6  196.53   13.08
   0  -8  -6  514.69   28.63
   0  -8  -6  483.98   28.40
   0   8   6  491.77   28.72
   0   8   6  535.26   28.54
   0   8   6  521.41   28.08
   0   8   6  507.37   29.88
  -1  -8  -6   28.97    3.35
  -1  -8  -6   22.42    2.92
  -1  -8  -6   26.75    3.00
  -1  -8  -6   22.91    7.25
  -1  -8  -6   28.11    4.17
  -1  -8  -6   23.67    4.51
   1   8   6   28.59    4.32
   1   8   6   30.54    3.63
   1   8   6   26.57    3.32
   1   8   6   24.14    3.38
  -2  -8  -6   38.91    8.49
  -2  -8  -6   43.39    4.13
  -2  -8  -6   46.98    5.17
  -2  -8  -6   48.04    5.73
  -2  -8  -6   43.26    4.07
  -2  -8  -6   49.69    4.89
   2   8   6   41.80    4.13
   2   8   6   42.29    4.22
   2   8   6   44.94    3.98
  -3  -8  -6   14.79    2.60
  -3  -8  -6   12.86    1.85
  -3  -8  -6   14.67    2.03
  -3  -8  -6   18.83    2.20
  -3  -8  -6   17.49    5.47
  -3  -8  -6   15.26    2.72
   3   8   6   14.43    2.44
   1  -9  -6  140.92    9.24
  -1   9   6  162.19    9.72
  -1   9   6  152.92    9.37
   0  -9  -6   28.81    3.70
   0  -9  -6   39.41    4.38
   0   9   6   46.36    8.39
   0   9   6   31.93    3.49
   0   9   6   32.56    3.19
  -1  -9  -6   94.25    8.06
  -1  -9  -6   94.91    5.93
  -1  -9  -6   93.19    6.18
  -1  -9  -6  100.24    7.19
   1   9   6   91.24    8.30
   1   9   6  100.78    7.26
   1   9   6   95.74    6.57
   1   9   6   84.98    6.59
  -2  -9  -6   90.25    5.78
  -2  -9  -6   79.91    7.14
  -2  -9  -6   85.98    5.75
  -2  -9  -6   88.58    6.83
  -2  -9  -6   83.76    6.09
   2   9   6   90.64    6.37
   2   9   6   92.10    6.83
   2   9   6   89.39    6.07
   0 -10  -6    0.52    0.71
   0 -10  -6    0.80    1.29
  -1 -10  -6   42.98    3.82
  -1 -10  -6   44.23    3.76
   1  10   6   45.82    3.56
   1  10   6   41.73    4.01
   1  10   6   43.39    4.21
   2   9  -7    0.29    1.16
   2   9  -7   -0.34    0.75
  -2  -9   7    1.10    0.82
  -2  -9   7   -1.73    0.70
   1   9  -7  498.51   27.04
   1   9  -7  469.49   25.02
  -1  -9   7  500.87   26.16
  -1  -9   7  471.07   26.12
   0   9  -7    3.49    1.80
   0   9  -7    5.85    1.79
   0  -9   7    3.52    1.11
   0  -9   7    2.55    1.18
   3   8  -7   28.68    2.53
  -3  -8   7   24.19    2.94
   2   8  -7    8.57    2.43
   2   8  -7    8.07    1.52
   2   8  -7    7.91    1.48
   2   8  -7   10.98    1.88
  -2  -8   7    8.86    2.56
  -2  -8   7   10.10    1.72
  -2  -8   7    7.23    2.44
   1   8  -7  684.98   35.62
   1   8  -7  662.62   36.02
   1   8  -7  675.24   37.61
   1   8  -7  676.07   37.20
   1   8  -7  681.95   35.27
  -1  -8   7  681.17   36.75
   0   8  -7  253.93   15.99
   0   8  -7  262.83   16.36
   0  -8   7  255.67   16.02
   0  -8   7  259.56   15.82
  -1   8  -7  144.61    9.66
   1  -8   7  141.55    9.40
   1  -8   7  146.34   10.02
   3   7  -7  225.05   13.92
   3   7  -7  235.44   13.33
   3   7  -7  231.97   13.39
  -3  -7   7  204.08   17.40
  -3  -7   7  262.04   14.87
  -3  -7   7  241.76   14.00
  -3  -7   7  251.19   17.30
  -3  -7   7  246.45   14.68
   2   7  -7  528.86   29.14
   2   7  -7  554.81   31.10
  -2  -7   7  571.03   30.31
  -2  -7   7  493.76   35.80
  -2  -7   7  562.11   34.83
  -2  -7   7  539.58   30.61
  -2  -7   7  550.42   29.60
   1   7  -7   77.53    6.06
   1   7  -7   79.47    7.28
   1   7  -7   84.48    7.86
   1   7  -7   75.98    5.63
   1   7  -7   81.59    6.24
  -1  -7   7   73.87    6.65
  -1  -7   7   81.21    6.58
   0   7  -7  413.75   24.58
   0   7  -7  423.40   24.88
   0  -7   7  405.26   25.05
   0  -7   7  416.13   24.37
  -1   7  -7   67.67    7.60
  -1   7  -7   74.34    6.50
  -1   7  -7   76.81    6.43
   1  -7   7   70.26    6.17
   1  -7   7   76.73    5.16
   1  -7   7   72.57    7.35
  -2   7  -7    8.53    4.03
  -2   7  -7    7.00    1.46
  -2   7  -7    6.09    2.74
   2  -7   7   10.26    2.08
   3   6  -7    1.06    1.13
   3   6  -7    3.41    0.99
   3   6  -7    3.38    1.25
   3   6  -7    6.93    2.05
  -3  -6   7    2.15    3.15
  -3  -6   7    2.05    1.41
  -3  -6   7    2.59    1.76
  -3  -6   7    4.85    3.52
   2   6  -7  560.36   30.42
   2   6  -7  550.23   32.73
   2   6  -7  599.77   32.75
   2   6  -7  559.65   30.00
   2   6  -7  542.72   32.22
  -2  -6   7  631.61   37.91
  -2  -6   7  558.75   31.29
  -2  -6   7  530.35   33.44
   1   6  -7 1135.51   56.48
   1   6  -7 1111.99   58.79
   1   6  -7 1076.01   58.13
   1   6  -7 1071.91   58.07
   1   6  -7 1121.97   55.86
  -1  -6   7 1116.71   57.76
  -1  -6   7 1067.32   57.85
  -1  -6   7  985.60   64.29
   0   6  -7  191.42   14.44
   0   6  -7  219.07   14.36
   0   6  -7  217.12   14.67
   0   6  -7  216.25   12.53
   0  -6   7  219.71   15.34
   0  -6   7  216.08   14.18
  -1   6  -7   21.88    4.32
  -1   6  -7   12.66    3.09
   1  -6   7   23.24    3.39
   1  -6   7   19.77    3.66
   1  -6   7   27.79    7.02
   1  -6   7   24.07    3.07
  -2   6  -7  406.58   22.13
   2  -6   7  382.09   21.09
   2  -6   7  368.64   21.22
   2  -6   7  391.34   23.21
   2  -6   7  388.61   21.42
   4   5  -7  179.71   12.12
  -4  -5   7  223.76   13.12
  -4  -5   7  216.76   15.46
  -4  -5   7  230.80   15.30
   3   5  -7  289.01   17.67
   3   5  -7  305.50   19.17
   3   5  -7  313.15   17.38
   3   5  -7  304.70   17.56
  -3  -5   7  316.91   21.01
  -3  -5   7  315.01   19.14
  -3  -5   7  338.11   19.86
  -3  -5   7  359.25   26.17
   2   5  -7   45.66    4.24
   2   5  -7   51.53    4.57
   2   5  -7   47.52    5.32
   2   5  -7   45.97    5.55
   2   5  -7   51.05    4.15
  -2  -5   7   49.17    5.95
  -2  -5   7   55.18    8.94
  -2  -5   7   51.15    4.87
  -2  -5   7   42.98    6.15
   1   5  -7    5.90    1.27
   1   5  -7    7.30    2.71
   1   5  -7    8.28    2.49
   1   5  -7    6.05    1.50
   1   5  -7   11.23    2.90
  -1  -5   7    6.81    2.54
  -1  -5   7    7.29    4.41
   0   5  -7  116.69    9.12
   0   5  -7  119.74    6.85
   0   5  -7  100.03    8.42
   0   5  -7  106.18    8.30
   0   5  -7  107.91    7.19
   0  -5   7   98.67    7.02
   0  -5   7   82.92   17.70
   0  -5   7   89.00    8.38
   0  -5   7  105.60    9.31
   0  -5   7  115.31    8.47
  -1   5  -7  837.14   47.65
  -1   5  -7  887.19   46.44
  -1   5  -7  830.57   46.15
  -1   5  -7  870.43   44.56
   1  -5   7  853.63   45.10
   1  -5   7  808.57   45.01
   1  -5   7  838.81   45.07
   1  -5   7  867.07   45.61
   1  -5   7  866.63   46.52
   1  -5   7  871.69   47.91
  -2   5  -7  977.91   59.40
  -2   5  -7 1089.04   54.29
  -2   5  -7  880.81   60.78
  -2   5  -7 1113.36   55.58
   2  -5   7 1104.82   54.85
   2  -5   7 1072.19   54.69
   2  -5   7 1072.49   55.12
   2  -5   7 1080.24   57.19
  -3   5  -7    2.55    2.74
  -3   5  -7    2.70    1.66
   3  -5   7    2.70    1.03
   3  -5   7   -1.36    1.36
   3  -5   7    2.65    0.90
   4   4  -7   42.51    3.35
   4   4  -7   43.82    3.18
  -4  -4   7   48.96    6.69
  -4  -4   7   42.27    4.39
  -4  -4   7   44.21    4.68
   3   4  -7   25.96    2.98
   3   4  -7   26.11    4.34
   3   4  -7   27.88    3.10
   3   4  -7   28.30    3.23
  -3  -4   7   26.53    5.17
  -3  -4   7   28.92    7.42
  -3  -4   7   29.09    4.20
   2   4  -7  224.88   17.13
   2   4  -7  203.32   17.02
   2   4  -7  226.46   12.52
   2   4  -7  217.22   12.72
   2   4  -7  214.08   14.48
  -2  -4   7  206.32   13.23
  -2  -4   7  203.30   15.97
  -2  -4   7  199.39   19.71
   1   4  -7   84.27    5.91
   1   4  -7   84.93    6.16
   1   4  -7   86.22    7.48
   1   4  -7   84.80    7.62
   1   4  -7   84.52    6.88
   1   4  -7   90.12    5.80
  -1  -4   7   99.65   11.28
  -1  -4   7   87.44    8.25
  -1  -4   7   88.81    6.93
  -1  -4   7   81.64    7.64
   0   4  -7 1464.83   80.17
   0   4  -7 1541.03   80.87
   0   4  -7 1585.88   80.18
   0   4  -7 1545.79   79.63
   0   4  -7 1594.28   78.93
   0   4  -7 1655.59   79.02
   0   4  -7 1570.85   80.58
   0   4  -7 1652.40   78.52
   0  -4   7 1482.05  113.54
   0  -4   7 1497.63   81.37
   0  -4   7 1458.64   79.48
   0  -4   7 1574.36   80.39
   0  -4   7 1531.07   79.20
   0  -4   7 1535.76   79.21
   0  -4   7 1545.41   79.25
  -1   4  -7   -1.08    1.85
  -1   4  -7    1.13    1.49
  -1   4  -7    2.01    1.03
  -1   4  -7    2.01    1.29
  -1   4  -7    1.43    1.51
  -1   4  -7    0.02    3.23
   1  -4   7    0.45    1.07
   1  -4   7    1.24    3.18
   1  -4   7    2.61    2.15
   1  -4   7    1.91    1.31
   1  -4   7    0.29    0.95
   1  -4   7    1.21    1.75
   1  -4   7    0.54    0.81
  -2   4  -7  489.61   27.76
  -2   4  -7  498.41   31.59
  -2   4  -7  476.80   32.68
  -2   4  -7  504.27   26.37
  -2   4  -7  517.70   27.53
  -2   4  -7  419.98   40.07
  -2   4  -7  438.66   29.38
   2  -4   7  466.90   27.19
   2  -4   7  498.50   26.88
   2  -4   7  482.47   26.69
   2  -4   7  534.14   29.66
   2  -4   7  454.53   27.29
  -3   4  -7   45.39    6.47
  -3   4  -7   39.86    6.62
  -3   4  -7   44.74    3.79
  -3   4  -7   46.02    9.33
  -3   4  -7   47.29    3.82
   3  -4   7   51.58    4.36
   3  -4   7   46.46    5.48
   3  -4   7   45.01    3.96
   3  -4   7   46.15    4.04
   4   3  -7   74.25    4.87
   4   3  -7   70.00    5.31
  -4  -3   7   74.20    6.75
  -4  -3   7   81.22    9.56
   3   3  -7 1242.47   62.26
   3   3  -7 1189.67   62.23
   3   3  -7 1235.57   62.80
   3   3  -7 1206.69   64.51
   3   3  -7 1164.01   63.95
  -3  -3   7 1177.83   67.21
  -3  -3   7 1270.43   64.67
  -3  -3   7 1197.01   62.14
  -3  -3   7 1151.66   74.52
  -3  -3   7 1303.38   69.41
   2   3  -7  190.16   12.33
   2   3  -7  170.17   14.66
   2   3  -7  219.96   11.11
   2   3  -7  191.27   13.51
   2   3  -7  187.50   10.90
  -2  -3   7  142.21   23.95
  -2  -3   7  200.22   12.04
  -2  -3   7  180.95   15.94
  -2  -3   7  170.43   14.72
   1   3  -7  112.85    6.81
   1   3  -7  113.96    6.70
   1   3  -7  105.66    7.75
   1   3  -7  109.13    8.63
   1   3  -7   97.86    6.90
   1   3  -7   98.49    7.26
  -1  -3   7  119.49    8.77
  -1  -3   7   89.59    8.58
  -1  -3   7  113.63    9.56
  -1  -3   7   97.84    7.54
   0   3  -7  950.38   49.89
   0   3  -7  936.14   50.74
   0   3  -7  987.98   51.53
   0   3  -7 1004.14   49.76
   0   3  -7 1017.34   49.01
   0   3  -7 1009.60   49.32
   0   3  -7  940.17   50.39
   0   3  -7 1045.77   50.52
   0  -3   7  910.08   49.67
   0  -3   7  900.45   49.72
   0  -3   7  929.18   50.60
   0  -3   7  874.48   65.97
   0  -3   7  960.28   52.09
   0  -3   7  980.86   49.65
   0  -3   7  952.31   50.48
  -1   3  -7  695.34   36.33
  -1   3  -7  571.73   35.69
  -1   3  -7  606.90   35.29
  -1   3  -7  673.54   36.83
  -1   3  -7  640.48   35.62
  -1   3  -7  645.48   35.76
  -1   3  -7  653.32   34.72
   1  -3   7  651.19   36.33
   1  -3   7  650.21   35.64
   1  -3   7  673.99   35.17
   1  -3   7  645.70   36.99
   1  -3   7  672.69   35.21
   1  -3   7  705.36   34.75
   1  -3   7  715.37   52.59
  -2   3  -7   23.13    4.80
  -2   3  -7   26.20    3.68
  -2   3  -7   23.59    3.41
  -2   3  -7   14.01    6.45
  -2   3  -7   17.20    3.42
  -2   3  -7   23.05    3.05
   2  -3   7   24.09    4.58
   2  -3   7   20.60    3.46
   2  -3   7   23.89    3.25
   2  -3   7   23.12    2.76
  -3   3  -7    1.47    2.46
  -3   3  -7    0.24    0.98
  -3   3  -7   -0.20    2.76
  -3   3  -7   -0.74    1.72
  -3   3  -7   -0.13    0.72
  -3   3  -7    0.20    0.76
   3  -3   7   -0.07    0.99
   3  -3   7   -0.22    0.88
   3  -3   7    5.07    2.50
   3  -3   7   -0.45    0.93
   4   2  -7   63.91    4.21
   4   2  -7   55.03    4.22
   4   2  -7   62.82    4.38
  -4  -2   7   53.15    5.89
   3   2  -7  182.51   13.37
   3   2  -7  191.72   12.94
   3   2  -7  179.99   10.80
   3   2  -7  156.99   12.65
   3   2  -7  185.87   10.89
  -3  -2   7  167.34   17.27
  -3  -2   7  160.84   12.58
  -3  -2   7  186.77   11.34
   2   2  -7 4247.95  218.95
   2   2  -7 4314.93  217.57
   2   2  -7 4355.42  217.62
   2   2  -7 4133.33  218.10
   2   2  -7 4314.96  220.27
   2   2  -7 4144.74  222.12
  -2  -2   7 4454.96  218.93
  -2  -2   7 4292.83  224.55
  -2  -2   7 4807.03  225.52
   1   2  -7 1967.50   95.18
   1   2  -7 1891.65   97.44
   1   2  -7 1847.71   95.53
   1   2  -7 2010.47   96.49
   1   2  -7 1766.06   97.73
   1   2  -7 1760.99   95.80
  -1  -2   7 2078.02  100.63
  -1  -2   7 1799.00   97.31
  -1  -2   7 1860.45   96.54
   0   2  -7  983.36   48.78
   0   2  -7  903.84   48.61
   0   2  -7  976.52   47.58
   0   2  -7  939.12   48.44
   0  -2   7  924.51   48.34
   0  -2   7  848.95   62.76
   0  -2   7  951.96   48.47
   0  -2   7  947.42   48.16
  -1   2  -7 1220.86   64.37
  -1   2  -7 1231.17   63.23
  -1   2  -7 1231.65   63.59
  -1   2  -7 1068.35   63.73
  -1   2  -7 1210.77   63.42
  -1   2  -7 1161.80   62.75
   1  -2   7 1206.30   62.92
   1  -2   7 1321.60   79.93
   1  -2   7 1264.81   62.99
   1  -2   7 1290.39   62.49
  -2   2  -7   30.34    3.73
  -2   2  -7   25.88    8.39
  -2   2  -7   33.62    4.16
  -2   2  -7   31.73    3.54
  -2   2  -7   32.68    3.74
  -2   2  -7   29.62    4.20
  -2   2  -7   32.99    4.87
   2  -2   7   30.61    3.55
   2  -2   7   30.38    4.19
   2  -2   7   41.02   21.03
   2  -2   7   29.01    5.56
   2  -2   7   29.40    3.54
   2  -2   7   29.96    3.16
  -3   2  -7  174.99   11.05
  -3   2  -7  153.61   18.75
  -3   2  -7  166.00   10.20
  -3   2  -7  147.42   11.04
  -3   2  -7  140.39   17.98
   3  -2   7  176.08   10.45
   3  -2   7  170.33   10.95
   4   1  -7   15.00    2.08
   4   1  -7   13.32    1.87
   4   1  -7   11.31    1.74
  -4  -1   7    7.61    2.92
  -4  -1   7   14.20    3.55
   3   1  -7 1414.05   75.89
   3   1  -7 1366.32   71.03
   3   1  -7 1317.30   70.88
  -3  -1   7 1422.70   89.37
  -3  -1   7 1418.08  100.17
   2   1  -7   11.96    2.69
   2   1  -7    9.90    3.22
   2   1  -7    7.07    1.61
   2   1  -7    8.81    2.08
   2   1  -7   11.76    3.42
  -2  -1   7   15.14    4.32
  -2  -1   7    7.01    2.02
  -2  -1   7   13.49    4.85
  -2  -1   7   15.71    7.00
  -2  -1   7   14.09    5.02
  -2  -1   7   13.29    3.33
   1   1  -7 1863.25   90.42
   1   1  -7 1759.68   89.87
   1   1  -7 1740.79   91.71
   1   1  -7 1796.40   89.29
   1   1  -7 1847.87   89.30
   1   1  -7 1588.51   93.02
  -1  -1   7 1778.43   90.69
  -1  -1   7 1770.46   90.06
   0   1  -7 1103.62   53.17
   0   1  -7 1063.00   53.94
   0   1  -7 1092.06   54.02
   0   1  -7  997.90   53.73
   0  -1   7 1079.12   53.83
   0  -1   7  881.95   66.23
   0  -1   7 1049.58   53.84
   0  -1   7 1098.91   53.63
  -1   1  -7  889.00   48.36
  -1   1  -7  959.70   48.28
  -1   1  -7  945.67   49.32
  -1   1  -7  932.97   48.76
   1  -1   7  957.16   62.08
   1  -1   7  809.00   47.74
   1  -1   7  950.07   48.05
   1  -1   7  964.75   47.57
  -2   1  -7  201.20   11.81
  -2   1  -7  186.99   13.47
  -2   1  -7  194.18   13.66
  -2   1  -7  191.00   12.70
  -2   1  -7  165.59   20.91
  -2   1  -7  183.80   11.90
   2  -1   7  172.33   13.23
   2  -1   7  215.09   24.29
   2  -1   7  168.50   12.09
   2  -1   7  181.79   11.43
   2  -1   7  176.82   10.77
   2  -1   7  189.39   11.51
  -3   1  -7    2.66    3.33
  -3   1  -7    3.82    1.64
  -3   1  -7    3.40    4.30
  -3   1  -7    3.86    1.92
  -3   1  -7    2.99    1.32
  -3   1  -7    2.38    3.36
   3  -1   7    5.33    1.51
   3  -1   7    4.57    1.73
   3  -1   7    4.58    1.49
  -4   1  -7    4.78    1.35
  -4   1  -7    5.01    2.63
  -4   1  -7    6.16    2.40
  -4   1  -7    5.86    1.12
   4   0  -7    9.73    1.69
   4   0  -7    8.68    1.39
  -4   0   7    9.29    4.24
  -4   0   7   14.25    3.67
  -4   0   7   12.37    3.51
   3   0  -7  433.68   26.22
   3   0  -7  436.23   24.38
   3   0  -7  433.44   23.72
   3   0  -7  386.37   24.70
   3   0  -7  440.18   23.62
  -3   0   7  446.03   31.31
  -3   0   7  447.31   24.31
   2   0  -7  822.85   44.17
   2   0  -7  832.31   42.71
   2   0  -7  746.63   44.64
   2   0  -7  810.73   41.32
   2   0  -7  801.81   41.95
   2   0  -7  826.37   41.48
  -2   0   7  753.15   49.36
  -2   0   7  835.60   42.82
  -2   0   7  792.82   48.76
  -2   0   7  717.19   42.69
   1   0  -7  115.37    6.98
   1   0  -7  119.95    7.91
   1   0  -7  112.04    8.62
   1   0  -7  115.93    7.57
   1   0  -7  123.56    7.16
  -1   0   7  119.35    9.80
  -1   0   7  105.12    7.49
  -1   0   7  109.67    7.40
  -1   0   7  121.55   11.14
  -1   0   7  107.47    7.64
   0   0  -7  629.26   31.42
   0   0  -7  636.54   31.05
   0   0  -7  587.62   31.08
   0   0   7  574.49   31.18
   0   0   7  561.41   31.05
   0   0   7  562.62   30.88
  -1   0  -7   82.85    6.70
  -1   0  -7   86.94    5.77
  -1   0  -7   86.65    6.05
   1   0   7  101.33    6.13
   1   0   7   85.50    5.89
   1   0   7   80.87    5.50
   1   0   7   82.37   12.66
  -2   0  -7  382.48   21.19
  -2   0  -7  364.35   20.58
  -2   0  -7  338.14   21.86
  -2   0  -7  324.44   31.88
  -2   0  -7  373.44   19.91
  -2   0  -7  388.70   22.35
  -2   0  -7  348.39   20.02
  -2   0  -7  343.56   20.18
  -2   0  -7  333.34   24.93
   2   0   7  349.45   19.21
   2   0   7  364.09   19.82
   2   0   7  381.52   33.43
   2   0   7  348.99   19.75
  -3   0  -7   13.93    3.61
  -3   0  -7   10.04    8.84
  -3   0  -7    8.60    4.75
  -3   0  -7    8.44    1.97
  -3   0  -7   10.83    3.68
  -3   0  -7   15.64    4.14
  -3   0  -7    9.88    2.39
   3   0   7   13.58    2.26
   3   0   7   14.74    1.95
   3   0   7   13.10    2.41
  -4   0  -7    1.62    1.24
  -4   0  -7    2.08    0.90
  -4   0  -7    0.88    2.44
  -4   0  -7    3.02    1.32
  -4   0  -7    3.58    2.32
   4  -1  -7   21.58    2.20
   4  -1  -7   18.93    2.13
  -4   1   7   27.25    2.83
  -4   1   7   17.50    5.15
   3  -1  -7   22.93    2.95
   3  -1  -7   23.58    4.75
   3  -1  -7   16.47    2.47
   3  -1  -7   12.79    2.44
  -3   1   7   14.74    7.31
  -3   1   7   17.28    5.81
  -3   1   7   20.33    2.88
   2  -1  -7    7.05    2.35
   2  -1  -7   14.37    3.66
   2  -1  -7    7.30    1.82
   2  -1  -7   10.53    2.28
   2  -1  -7    9.34    1.88
  -2   1   7   12.43    3.04
  -2   1   7    6.89    3.48
  -2   1   7   15.94    3.41
  -2   1   7   10.16    4.72
  -2   1   7   10.34    2.99
   1  -1  -7  108.94    6.43
   1  -1  -7   90.36    8.08
   1  -1  -7  103.01    6.50
   1  -1  -7  105.16    7.29
   1  -1  -7  107.38    8.06
   1  -1  -7   87.63    6.67
  -1   1   7   87.57    7.19
  -1   1   7  101.03    6.78
  -1   1   7   96.01    6.92
  -1   1   7  115.43   10.77
  -1   1   7  120.53   11.23
  -1   1   7  101.10    8.33
   0  -1  -7   90.11    6.16
   0  -1  -7   87.97    5.98
   0  -1  -7   98.46    5.99
   0   1   7   86.40    6.02
   0   1   7   88.55    6.15
   0   1   7   88.19    5.99
  -1  -1  -7 1354.41   68.30
  -1  -1  -7 1346.80   68.97
  -1  -1  -7 1468.26   69.39
   1   1   7 1184.17   67.53
   1   1   7 1329.62   67.79
   1   1   7 1254.44   79.76
   1   1   7 1371.73   67.59
  -2  -1  -7   83.03    7.00
  -2  -1  -7   78.91    7.86
  -2  -1  -7   81.99    5.69
  -2  -1  -7   74.40    8.92
  -2  -1  -7   92.71    7.89
  -2  -1  -7   79.67    6.21
  -2  -1  -7   87.13    6.83
  -2  -1  -7   92.48    6.37
  -2  -1  -7   77.01   13.93
   2   1   7   85.39   19.80
   2   1   7   93.41    5.60
   2   1   7   78.75    5.92
   2   1   7   75.87    5.79
  -3  -1  -7   16.95    8.54
  -3  -1  -7   24.57    3.81
  -3  -1  -7   24.12    3.43
  -3  -1  -7   20.91    4.39
   3   1   7   20.72    3.00
   3   1   7   22.48    2.85
   3   1   7   29.67    3.43
  -4  -1  -7    0.79    1.15
  -4  -1  -7    1.02    0.84
  -4  -1  -7    2.60    2.34
  -4  -1  -7    1.08    1.52
  -4  -1  -7   -0.69    1.93
   3  -2  -7  169.84   10.36
   3  -2  -7  172.60   10.77
   3  -2  -7  164.78   10.33
   3  -2  -7  173.28   12.67
  -3   2   7  142.41   19.78
  -3   2   7  170.10   15.37
  -3   2   7  178.02   11.25
   2  -2  -7    6.29    3.10
   2  -2  -7   10.70    2.12
   2  -2  -7   11.93    3.20
   2  -2  -7    7.15    1.97
   2  -2  -7    9.65    1.95
   2  -2  -7    6.97    2.14
   2  -2  -7   16.75    3.29
  -2   2   7   11.76    4.54
  -2   2   7   11.44    5.45
  -2   2   7   11.66    5.36
  -2   2   7    8.78    2.45
   1  -2  -7 1088.52   55.82
   1  -2  -7 1062.45   58.05
   1  -2  -7 1041.68   56.00
   1  -2  -7 1177.97   58.09
   1  -2  -7 1145.05   56.89
   1  -2  -7 1089.21   55.58
   1  -2  -7 1106.51   57.65
  -1   2   7 1062.61   58.00
  -1   2   7 1044.66   56.29
  -1   2   7  989.90   56.97
  -1   2   7 1080.90   56.07
  -1   2   7 1187.60   62.22
   0  -2  -7   16.40    2.66
   0  -2  -7   15.84    2.33
   0  -2  -7   16.26    2.13
   0   2   7   15.01    2.08
   0   2   7   16.36    2.25
   0   2   7   13.99    2.28
  -1  -2  -7 2746.68  143.12
  -1  -2  -7 2922.25  144.25
  -1  -2  -7 2950.90  142.85
  -1  -2  -7 2809.17  142.86
  -1  -2  -7 2949.13  143.54
  -1  -2  -7 2961.33  142.67
   1   2   7 2554.26  156.28
   1   2   7 2689.37  142.20
   1   2   7 2752.45  142.09
   1   2   7 2934.82  142.41
  -2  -2  -7   85.60    8.45
  -2  -2  -7   86.59    6.37
  -2  -2  -7   93.27    7.48
  -2  -2  -7   86.19    6.93
  -2  -2  -7   90.22    7.75
  -2  -2  -7   89.55    6.30
  -2  -2  -7   95.29    8.01
  -2  -2  -7   63.93    8.20
  -2  -2  -7   70.29   13.38
   2   2   7   83.65    5.87
   2   2   7   78.18   13.15
   2   2   7   86.62    5.56
   2   2   7   77.17    5.69
  -3  -2  -7   70.96    7.98
  -3  -2  -7   77.59    6.70
  -3  -2  -7   79.37    8.32
  -3  -2  -7   65.67   18.13
   3   2   7   71.28    5.33
   3   2   7   72.94    5.48
  -4  -2  -7  159.68    9.56
  -4  -2  -7  140.90   14.41
  -4  -2  -7  160.46   10.10
  -4  -2  -7  163.35    9.45
   3  -3  -7   72.27    5.55
   3  -3  -7   71.20    5.26
   3  -3  -7   64.97    6.91
  -3   3   7   70.13    5.78
   2  -3  -7   25.23    3.21
   2  -3  -7   21.30    3.11
   2  -3  -7   22.55    4.16
   2  -3  -7   26.48    3.79
   2  -3  -7   22.41    3.37
   2  -3  -7   18.64    4.38
  -2   3   7   23.12    4.30
  -2   3   7   28.98    3.86
  -2   3   7   21.27    5.95
   1  -3  -7  676.89   34.82
   1  -3  -7  738.99   37.80
   1  -3  -7  672.01   36.89
   1  -3  -7  669.77   35.24
   1  -3  -7  675.53   34.85
   1  -3  -7  668.52   37.54
   1  -3  -7  634.78   35.91
  -1   3   7  655.81   40.61
  -1   3   7  712.72   41.29
  -1   3   7  675.43   35.81
  -1   3   7  656.99   37.53
  -1   3   7  654.66   35.35
  -1   3   7  614.70   36.37
  -1   3   7  664.91   35.83
   0  -3  -7 1015.27   49.73
   0  -3  -7  902.30   50.96
   0  -3  -7  948.86   49.18
   0  -3  -7  937.14   49.93
   0   3   7  951.11   48.90
   0   3   7  963.27   48.93
   0   3   7  903.31   50.27
   0   3   7  875.78   48.97
  -1  -3  -7   26.04    5.10
  -1  -3  -7   23.10    4.12
  -1  -3  -7   22.11    3.23
  -1  -3  -7   20.35    3.17
  -1  -3  -7   22.13    2.83
  -1  -3  -7   22.98    3.22
   1   3   7   26.56    2.67
   1   3   7   18.89    2.51
  -2  -3  -7   46.67    7.43
  -2  -3  -7   39.57    4.52
  -2  -3  -7   41.54    5.99
  -2  -3  -7   43.89    6.18
  -2  -3  -7   27.46    8.79
  -2  -3  -7   43.04    5.10
  -2  -3  -7   40.67    4.28
  -2  -3  -7   40.97    5.10
  -2  -3  -7   38.90    4.99
   2   3   7   44.32    3.53
   2   3   7   35.14    3.44
   2   3   7   35.99    3.34
  -3  -3  -7    0.11    1.57
  -3  -3  -7    0.58    1.80
  -3  -3  -7    2.12    1.26
  -3  -3  -7   -0.33    2.19
  -3  -3  -7    1.53    1.04
  -3  -3  -7    1.11    1.72
  -3  -3  -7    0.82    1.41
  -3  -3  -7    0.62    2.64
   3   3   7   -1.47    0.79
  -4  -3  -7  494.64   33.76
  -4  -3  -7  549.78   27.78
  -4  -3  -7  582.03   28.11
  -4  -3  -7  473.13   28.30
   3  -4  -7    7.87    2.29
   3  -4  -7   12.61    3.56
   3  -4  -7   11.19    1.71
   3  -4  -7    5.42    2.66
  -3   4   7   13.71    2.98
   2  -4  -7 1247.66   67.78
   2  -4  -7 1350.79   69.67
   2  -4  -7 1302.04   68.48
   2  -4  -7 1329.79   66.20
   2  -4  -7 1175.41   68.87
   2  -4  -7 1330.62   66.62
  -2   4   7 1342.87   68.68
  -2   4   7 1368.73   68.38
  -2   4   7 1166.12   73.80
   1  -4  -7   45.78    4.44
   1  -4  -7   32.89    8.85
   1  -4  -7   37.60    3.55
   1  -4  -7   42.79    4.91
   1  -4  -7   39.02    5.01
   1  -4  -7   43.58    5.60
  -1   4   7   34.79    6.99
  -1   4   7   45.46    4.25
  -1   4   7   51.98    5.02
  -1   4   7   38.57    4.52
  -1   4   7   38.67    6.49
   0  -4  -7  318.97   18.68
   0  -4  -7  265.57   17.32
   0  -4  -7  277.31   19.29
   0  -4  -7  275.76   17.88
   0  -4  -7  299.97   16.90
   0  -4  -7  290.04   17.73
   0  -4  -7  302.45   17.45
   0   4   7  280.49   18.26
   0   4   7  274.03   17.46
   0   4   7  299.35   17.00
   0   4   7  295.08   16.99
   0   4   7  286.09   16.42
  -1  -4  -7    7.72    1.91
  -1  -4  -7    8.05    4.89
  -1  -4  -7    6.31    1.83
  -1  -4  -7    8.00    1.80
  -1  -4  -7    5.30    2.19
  -1  -4  -7    5.85    1.95
  -1  -4  -7    4.48    2.24
  -1  -4  -7    9.10    3.00
   1   4   7    7.90    1.95
   1   4   7    5.07    1.29
   1   4   7    6.24    1.58
   1   4   7   10.75    3.90
  -2  -4  -7  109.07    8.80
  -2  -4  -7   90.65    7.74
  -2  -4  -7   90.12    6.91
  -2  -4  -7   73.75    9.60
  -2  -4  -7   94.51    6.99
  -2  -4  -7   93.05    8.26
   2   4   7   78.72    5.95
   2   4   7   92.83    6.37
   2   4   7   84.43    6.08
  -3  -4  -7   76.53    6.99
  -3  -4  -7   55.27    6.67
  -3  -4  -7   75.17    5.84
  -3  -4  -7   77.28    6.81
  -3  -4  -7   73.53    5.77
   3   4   7   68.40    5.21
  -4  -4  -7    5.93    1.79
  -4  -4  -7    4.32    1.74
  -4  -4  -7    5.64    1.59
  -4  -4  -7    9.19    1.58
   3  -5  -7   -0.78    1.28
   3  -5  -7   -0.10    0.71
  -3   5   7    0.08    2.03
  -3   5   7   -0.39    0.68
   2  -5  -7  445.08   25.62
   2  -5  -7  459.34   23.80
   2  -5  -7  417.25   24.83
   2  -5  -7  446.71   26.59
  -2   5   7  431.04   25.41
  -2   5   7  432.77   25.52
   1  -5  -7  503.43   29.36
   1  -5  -7  480.39   29.54
   1  -5  -7  469.11   30.43
   1  -5  -7  507.17   28.67
   1  -5  -7  534.45   26.32
  -1   5   7  498.54   29.58
  -1   5   7  514.62   27.36
  -1   5   7  471.98   28.26
  -1   5   7  470.34   32.78
   0  -5  -7    4.07    2.12
   0  -5  -7    5.10    1.72
   0  -5  -7   -0.39    1.59
   0  -5  -7    0.06    1.08
   0  -5  -7    0.00    1.18
   0  -5  -7    1.85    3.40
   0   5   7    0.48    1.18
   0   5   7   -0.38    1.47
   0   5   7   -2.77    1.31
   0   5   7    0.82    0.94
   0   5   7    1.31    0.88
   0   5   7    1.68    2.61
  -1  -5  -7    2.04    3.46
  -1  -5  -7    2.40    2.11
  -1  -5  -7    3.39    2.16
  -1  -5  -7    1.85    2.07
   1   5   7    2.51    1.22
   1   5   7    2.27    1.15
   1   5   7    1.35    2.04
   1   5   7    1.59    1.14
  -2  -5  -7    4.42    1.94
  -2  -5  -7    6.46    4.64
  -2  -5  -7    4.83    1.67
  -2  -5  -7    5.83    2.29
  -2  -5  -7    6.15    1.72
  -2  -5  -7    7.43    3.71
  -2  -5  -7    6.46    2.75
  -2  -5  -7    5.03    2.54
   2   5   7    5.14    1.65
   2   5   7    3.66    1.22
   2   5   7    6.24    1.56
  -3  -5  -7  182.76   12.40
  -3  -5  -7  159.46   12.07
  -3  -5  -7  180.26   12.16
  -3  -5  -7  176.49   11.14
  -3  -5  -7  185.22   11.35
  -3  -5  -7  187.36   12.76
  -4  -5  -7   -0.84    0.79
   2  -6  -7   57.84    5.18
   2  -6  -7   40.41    3.41
   1  -6  -7   34.13    5.32
   1  -6  -7   35.77    4.62
   1  -6  -7   58.05   12.54
  -1   6   7   41.20    5.64
  -1   6   7   32.75    4.43
   0  -6  -7  656.75   42.56
   0  -6  -7  773.97   40.76
   0  -6  -7  748.79   39.62
   0  -6  -7  799.30   40.69
   0  -6  -7  790.92   43.40
   0  -6  -7  731.07   40.54
   0   6   7  720.74   40.76
   0   6   7  762.95   39.68
   0   6   7  748.53   40.10
   0   6   7  757.64   42.05
   0   6   7  695.66   40.61
  -1  -6  -7  660.20   49.79
  -1  -6  -7  812.49   40.77
  -1  -6  -7  784.93   40.60
  -1  -6  -7  790.39   45.08
  -1  -6  -7  764.25   42.05
  -1  -6  -7  782.09   43.78
  -1  -6  -7  761.34   40.28
   1   6   7  767.78   40.22
   1   6   7  759.00   40.59
   1   6   7  717.02   40.55
   1   6   7  794.97   41.26
   1   6   7  727.31   42.05
  -2  -6  -7   17.84    9.96
  -2  -6  -7   12.18    5.07
  -2  -6  -7   17.59    6.46
  -2  -6  -7   16.82    3.92
  -2  -6  -7   14.26    3.13
  -2  -6  -7   14.40    3.12
  -2  -6  -7   25.26    3.28
  -2  -6  -7   21.35    3.01
   2   6   7   19.05    2.59
   2   6   7   12.54    3.36
   2   6   7   18.88    2.70
  -3  -6  -7   24.44    2.95
  -3  -6  -7   21.04    3.56
  -3  -6  -7   21.33    3.48
  -3  -6  -7   27.28    3.78
  -3  -6  -7   23.48    2.92
   3   6   7   18.88    3.29
   3   6   7   19.60    2.81
   2  -7  -7   20.47    3.14
   2  -7  -7   22.51    3.44
  -2   7   7   17.99    2.49
   1  -7  -7  160.68   11.02
   1  -7  -7  133.35   10.33
  -1   7   7  155.90   10.76
  -1   7   7  151.21   11.45
   0  -7  -7  840.42   52.39
   0  -7  -7  972.42   52.36
   0  -7  -7  969.39   57.23
   0  -7  -7  896.01   49.51
   0   7   7  963.28   48.87
   0   7   7  958.60   50.82
   0   7   7  842.91   55.92
   0   7   7  909.80   49.86
   0   7   7  998.48   49.69
  -1  -7  -7    7.51    3.01
  -1  -7  -7    8.39    4.09
  -1  -7  -7    5.68    4.22
   1   7   7    5.01    1.59
   1   7   7    7.59    3.47
   1   7   7    5.64    1.80
  -2  -7  -7  104.06   13.91
  -2  -7  -7  127.26   10.54
  -2  -7  -7  134.26    8.69
  -2  -7  -7  117.82    9.58
  -2  -7  -7  140.76    9.63
  -2  -7  -7  117.66    8.31
   2   7   7  128.41    8.49
   2   7   7  120.87    8.33
   2   7   7  116.62    9.07
  -3  -7  -7   55.50    4.94
  -3  -7  -7   48.30    4.32
  -3  -7  -7   53.76    4.20
  -3  -7  -7   51.32    5.24
  -3  -7  -7   46.45    3.99
   3   7   7   44.25    3.90
   1  -8  -7    3.80    1.53
   1  -8  -7    3.47    1.62
  -1   8   7    2.09    1.21
  -1   8   7    5.40    2.17
   0  -8  -7  103.72    7.94
   0  -8  -7  110.40    8.12
   0   8   7  102.40    7.60
   0   8   7  110.57    7.42
   0   8   7  106.85    8.98
   0   8   7  110.71    8.37
  -1  -8  -7   43.49    3.84
  -1  -8  -7   43.14    3.96
  -1  -8  -7   44.48    4.05
  -1  -8  -7   46.10    5.02
  -1  -8  -7   46.41    4.77
  -1  -8  -7   40.71    5.57
   1   8   7   60.92    5.40
   1   8   7   42.29    5.24
   1   8   7   47.52    4.78
   1   8   7   41.23    4.38
  -2  -8  -7   14.11    2.60
  -2  -8  -7    8.37    5.64
  -2  -8  -7    8.62    1.93
  -2  -8  -7    8.60    1.65
  -2  -8  -7   10.51    2.66
  -2  -8  -7   16.85    2.27
   2   8   7   11.66    2.16
   2   8   7    9.67    1.75
   2   8   7   13.52    2.44
  -3  -8  -7    1.06    0.71
  -3  -8  -7    1.38    0.79
  -3  -8  -7    2.42    1.17
  -3  -8  -7    0.09    0.82
  -3  -8  -7    0.42    0.84
   1  -9  -7  118.08    7.41
  -1   9   7  120.27    7.50
   0  -9  -7    0.33    0.90
   0   9   7    0.29    0.84
   0   9   7    0.95    1.18
  -1  -9  -7    6.29    1.22
  -1  -9  -7    4.98    1.85
  -1  -9  -7    7.01    1.94
  -1  -9  -7    7.07    1.67
   1   9   7    6.00    1.69
   1   9   7    5.30    1.91
   1   9   7    4.99    1.33
   1   9   7    6.03    1.57
  -2  -9  -7   96.54    6.04
  -2  -9  -7   95.25    6.18
  -2  -9  -7  104.02    7.08
  -2  -9  -7   90.64    7.57
  -2  -9  -7  102.55    6.64
   2   9   7  106.11    6.46
   2   9   7  100.03    6.59
   1   9  -8    4.38    1.59
  -1  -9   8    5.40    1.43
  -1  -9   8    3.43    1.18
   0   9  -8  310.34   17.01
   0   9  -8  269.39   16.76
   0  -9   8  321.46   16.28
   0  -9   8  312.75   16.90
   2   8  -8   54.22    5.07
   2   8  -8   48.74    3.94
  -2  -8   8   51.54    4.22
  -2  -8   8   52.83    4.38
  -2  -8   8   49.62    3.73
   1   8  -8   55.51    5.48
   1   8  -8   46.80    4.74
   1   8  -8   40.89    4.50
  -1  -8   8   53.98    4.70
  -1  -8   8   48.98    4.11
   0   8  -8  611.91   33.86
   0   8  -8  534.44   36.04
   0  -8   8  708.91   35.15
   0  -8   8  629.48   33.68
  -1   8  -8    1.66    0.99
   1  -8   8    2.66    1.50
   1  -8   8    0.31    1.01
   3   7  -8   -0.62    0.68
   3   7  -8    1.04    2.02
   3   7  -8   -0.22    0.68
  -3  -7   8    0.51    0.97
  -3  -7   8    0.10    0.81
  -3  -7   8    0.25    2.02
   2   7  -8  433.55   24.70
   2   7  -8  447.05   26.43
   2   7  -8  442.71   24.31
   2   7  -8  544.19   27.25
  -2  -7   8  436.59   25.57
  -2  -7   8  451.47   25.14
  -2  -7   8  470.82   25.87
   1   7  -8  144.96   10.72
   1   7  -8  152.08   10.55
   1   7  -8  139.30    9.57
   1   7  -8  147.55    9.33
   1   7  -8  136.80   10.93
  -1  -7   8  151.37    9.96
  -1  -7   8  152.80   10.44
   0   7  -8  273.41   17.88
   0   7  -8  301.09   18.04
   0  -7   8  278.26   18.22
   0  -7   8  291.67   17.71
  -1   7  -8   69.45    9.18
  -1   7  -8   79.73    6.59
   1  -7   8   83.91    7.48
   1  -7   8   82.40    6.50
  -2   7  -8    0.52    1.75
  -2   7  -8    1.46    0.97
   2  -7   8    0.77    1.13
   3   6  -8   48.70    3.90
   3   6  -8   48.82    3.75
   3   6  -8   45.56    5.13
   3   6  -8   41.25    3.91
  -3  -6   8   49.30    4.58
  -3  -6   8   50.11    8.66
  -3  -6   8   53.25    6.82
  -3  -6   8   48.15    5.23
   2   6  -8   93.55    6.86
   2   6  -8   94.47    6.50
   2   6  -8  104.18    7.03
   2   6  -8  106.43    8.87
  -2  -6   8   95.20    8.43
  -2  -6   8  111.10   11.09
  -2  -6   8   88.61   11.72
  -2  -6   8   97.76    7.99
  -2  -6   8   95.46    7.32
   1   6  -8  182.73   13.27
   1   6  -8  140.90   11.08
   1   6  -8  157.55    9.90
   1   6  -8  142.69   11.81
   1   6  -8  158.86   11.97
   1   6  -8  157.46    9.43
  -1  -6   8  149.34   11.16
  -1  -6   8  159.94   11.09
   0   6  -8    4.81    2.29
   0   6  -8    8.38    2.71
   0   6  -8    7.21    1.55
   0  -6   8    8.89    2.38
   0  -6   8    9.74    3.31
  -1   6  -8    4.42    1.88
  -1   6  -8    3.15    1.80
   1  -6   8    0.56    1.82
   1  -6   8    4.29    1.73
   1  -6   8    6.50    3.03
   1  -6   8    7.19    1.89
  -2   6  -8   10.57    3.57
  -2   6  -8    8.89    1.98
   2  -6   8   14.93    2.16
   2  -6   8    8.98    2.37
   2  -6   8   10.57    3.04
   3   5  -8  305.08   16.86
   3   5  -8  294.83   18.13
   3   5  -8  295.61   16.45
   3   5  -8  298.62   18.24
  -3  -5   8  268.46   19.18
  -3  -5   8  315.82   18.21
  -3  -5   8  265.19   18.11
  -3  -5   8  348.13   23.74
  -3  -5   8  322.01   23.18
   2   5  -8    9.99    2.98
   2   5  -8    4.70    1.38
   2   5  -8    7.04    1.61
   2   5  -8   10.36    3.03
   2   5  -8    7.72    1.67
  -2  -5   8    5.35    3.81
  -2  -5   8   11.06    4.74
  -2  -5   8    4.68    2.54
  -2  -5   8    8.29    2.04
   1   5  -8 1357.69   77.76
   1   5  -8 1458.20   72.45
   1   5  -8 1421.67   74.82
   1   5  -8 1410.82   72.30
   1   5  -8 1472.40   71.93
   1   5  -8 1432.60   74.26
  -1  -5   8 1366.79   74.61
  -1  -5   8 1440.90   73.82
  -1  -5   8 1321.27   80.42
  -1  -5   8 1418.12   74.47
   0   5  -8  124.55    9.56
   0   5  -8  108.08    8.72
   0   5  -8  108.97    9.16
   0   5  -8  124.06    7.56
   0  -5   8  120.65   10.07
   0  -5   8  115.69    7.92
   0  -5   8   88.06   19.61
   0  -5   8  123.79    9.07
  -1   5  -8    1.88    1.16
  -1   5  -8    1.94    1.18
  -1   5  -8    2.37    3.72
  -1   5  -8    2.83    1.92
  -1   5  -8    1.81    1.97
   1  -5   8   -1.21    1.38
   1  -5   8    2.36    1.99
   1  -5   8    2.53    1.37
   1  -5   8    1.43    1.28
   1  -5   8    1.85    1.39
   1  -5   8    0.76    1.92
  -2   5  -8   11.16    2.44
  -2   5  -8   11.56    1.83
  -2   5  -8    7.41    4.36
  -2   5  -8    9.30    3.74
   2  -5   8   14.24    3.67
   2  -5   8   12.91    2.36
   2  -5   8   11.21    2.09
   2  -5   8   10.76    2.14
  -3   5  -8   52.41    4.76
  -3   5  -8   48.81    6.24
   3  -5   8   58.24    3.83
  -4  -4   8   24.23    4.22
   3   4  -8  126.54    8.17
   3   4  -8  122.30    8.03
   3   4  -8  120.06    9.39
   3   4  -8  124.34    7.85
  -3  -4   8  126.11    9.50
  -3  -4   8  115.33   10.66
  -3  -4   8  131.90   14.37
   2   4  -8  366.79   20.56
   2   4  -8  368.15   20.29
   2   4  -8  345.31   21.86
   2   4  -8  367.99   20.06
   2   4  -8  365.11   22.56
  -2  -4   8  420.58   23.31
  -2  -4   8  352.46   24.07
  -2  -4   8  368.88   21.34
  -2  -4   8  356.15   27.94
   1   4  -8    3.54    1.10
   1   4  -8    0.72    0.84
   1   4  -8    3.23    1.99
   1   4  -8   -0.52    1.54
   1   4  -8    0.26    0.89
  -1  -4   8    1.15    3.16
  -1  -4   8   -1.03    1.53
  -1  -4   8    0.28    0.73
   0   4  -8   71.10    6.60
   0   4  -8   76.62    5.13
   0   4  -8   71.59    6.59
   0   4  -8   81.47    5.59
   0  -4   8   90.98    7.43
   0  -4   8   80.99    6.74
   0  -4   8   80.33    6.51
   0  -4   8   63.97   15.34
   0  -4   8   72.68    5.80
  -1   4  -8    1.04    1.92
  -1   4  -8    3.09    1.38
  -1   4  -8    0.90    3.34
  -1   4  -8    1.84    1.84
  -1   4  -8    2.81    1.73
  -1   4  -8    1.81    1.51
   1  -4   8    1.35    1.08
   1  -4   8    3.23    4.90
   1  -4   8    2.87    1.34
   1  -4   8    1.70    2.15
   1  -4   8    2.56    1.96
   1  -4   8    3.33    1.47
  -2   4  -8  266.38   25.63
  -2   4  -8  329.69   24.40
  -2   4  -8  363.78   19.60
  -2   4  -8  311.12   19.62
  -2   4  -8  340.21   18.37
  -2   4  -8  315.07   18.78
   2  -4   8  333.82   18.89
   2  -4   8  353.55   21.22
   2  -4   8  315.85   19.22
   2  -4   8  338.80   18.96
  -3   4  -8  137.93   14.10
  -3   4  -8  135.80   11.04
  -3   4  -8  145.87    8.25
  -3   4  -8  125.61   13.12
  -3   4  -8  134.88    7.98
   3  -4   8  134.41    8.87
   3  -4   8  140.40    8.57
   3  -4   8  154.42    9.71
   3  -4   8  142.05    8.67
   4   3  -8   74.53    4.98
   4   3  -8   75.19    5.58
  -4  -3   8   75.48    8.78
  -4  -3   8   95.33    9.35
  -4  -3   8   75.78    5.96
  -4  -3   8   86.96    7.89
   3   3  -8   64.93    6.53
   3   3  -8   60.19    4.66
   3   3  -8   64.35    5.09
   3   3  -8   58.96    4.80
  -3  -3   8   61.93   10.48
  -3  -3   8   60.08    4.64
  -3  -3   8   59.23    7.54
  -3  -3   8   58.51    6.18
   2   3  -8 1344.37   76.00
   2   3  -8 1420.48   72.52
   2   3  -8 1386.07   70.62
   2   3  -8 1386.18   70.63
   2   3  -8 1449.18   73.51
   2   3  -8 1398.12   71.07
  -2  -3   8 1315.51   76.35
  -2  -3   8 1430.19   72.04
  -2  -3   8 1318.05   81.01
   1   3  -8  660.71   33.94
   1   3  -8  635.08   35.88
   1   3  -8  658.48   35.20
   1   3  -8  607.79   35.46
   1   3  -8  561.65   37.36
   1   3  -8  645.12   33.62
   1   3  -8  680.97   33.51
  -1  -3   8  647.66   36.03
  -1  -3   8  623.93   34.97
  -1  -3   8  710.58   41.05
  -1  -3   8  609.25   35.84
  -1  -3   8  666.58   38.12
   0   3  -8  553.90   30.90
   0   3  -8  599.94   28.79
   0   3  -8  610.78   29.16
   0   3  -8  539.78   30.33
   0   3  -8  532.15   30.13
   0   3  -8  563.34   30.69
   0  -3   8  560.41   29.72
   0  -3   8  525.52   29.45
   0  -3   8  563.07   30.05
   0  -3   8  545.99   30.47
   0  -3   8  540.30   31.57
   0  -3   8  459.20   45.21
   0  -3   8  549.33   29.57
  -1   3  -8  192.66   13.41
  -1   3  -8  210.42   16.09
  -1   3  -8  192.49   12.47
  -1   3  -8  199.00   11.44
  -1   3  -8  154.92   12.07
  -1   3  -8  210.90   13.03
   1  -3   8  193.56   17.68
   1  -3   8  189.70   11.51
   1  -3   8  182.92   11.80
   1  -3   8  191.19   12.00
   1  -3   8  185.18   12.79
   1  -3   8  187.23   25.20
  -2   3  -8   21.51    3.41
  -2   3  -8   17.36    6.96
  -2   3  -8   20.49    3.76
  -2   3  -8   20.22    4.85
  -2   3  -8   25.01    3.46
  -2   3  -8   15.99    2.56
   2  -3   8   19.76    3.24
   2  -3   8   19.48    4.16
   2  -3   8   21.13    4.60
   2  -3   8   13.59    2.66
   2  -3   8   19.50    2.64
  -3   3  -8    0.49    2.87
  -3   3  -8    1.16    1.96
  -3   3  -8    0.45    3.55
  -3   3  -8    0.52    0.74
  -3   3  -8   -0.83    0.69
  -3   3  -8    1.31    0.89
   3  -3   8    0.00    0.96
   3  -3   8    0.35    1.09
   3  -3   8    0.48    0.90
   3  -3   8   -0.43    2.29
   4   2  -8   97.89    6.08
  -4  -2   8   79.39    9.30
  -4  -2   8  108.20   10.75
  -4  -2   8  123.70    7.72
   3   2  -8   32.18    4.78
   3   2  -8   29.21    3.18
   3   2  -8   30.28    3.50
   3   2  -8   28.67    3.13
  -3  -2   8   27.39    3.11
  -3  -2   8   29.82    6.32
  -3  -2   8   28.21    6.29
  -3  -2   8   23.80    7.33
   2   2  -8    1.24    0.84
   2   2  -8    2.98    1.91
   2   2  -8    0.35    1.74
   2   2  -8   -1.15    1.62
   2   2  -8    1.20    0.91
   2   2  -8   -0.45    1.09
  -2  -2   8    1.46    2.45
  -2  -2   8    4.40    2.46
  -2  -2   8    3.14    2.50
  -2  -2   8    0.62    1.03
  -2  -2   8    0.54    2.90
  -2  -2   8    1.49    3.32
   1   2  -8 1928.65   94.75
   1   2  -8 1831.55   95.10
   1   2  -8 1756.45   96.76
   1   2  -8 1827.95   94.80
   1   2  -8 1745.68   97.62
   1   2  -8 1922.65   96.36
   1   2  -8 1817.33   97.14
  -1  -2   8 2125.07   97.73
  -1  -2   8 1770.10   97.13
  -1  -2   8 1892.71   96.45
  -1  -2   8 2026.33  101.20
   0   2  -8   18.15    2.71
   0   2  -8   15.40    2.60
   0   2  -8   13.77    2.52
   0   2  -8   15.41    2.93
   0   2  -8   21.29    3.44
   0   2  -8   16.14    2.21
   0   2  -8   16.43    1.97
   0   2  -8   16.03    2.42
   0  -2   8   11.54    1.99
   0  -2   8   18.66    2.27
   0  -2   8   17.15    2.94
   0  -2   8   12.11    7.03
   0  -2   8   12.51    3.35
   0  -2   8   15.61    2.60
   0  -2   8   14.75    2.87
  -1   2  -8 2166.99  103.59
  -1   2  -8 1809.17  103.33
  -1   2  -8 1962.02  102.12
  -1   2  -8 2117.38  103.15
  -1   2  -8 2105.45  104.21
  -1   2  -8 2002.78  103.03
  -1   2  -8 2026.79  102.79
   1  -2   8 1912.89  104.22
   1  -2   8 1961.52  102.95
   1  -2   8 1952.11  122.00
   1  -2   8 2035.84  101.95
   1  -2   8 2070.09  102.59
   1  -2   8 2015.43  102.43
  -2   2  -8  182.70   11.35
  -2   2  -8  181.49   11.01
  -2   2  -8  178.57   11.73
  -2   2  -8  154.17   11.81
  -2   2  -8  161.47   11.03
  -2   2  -8  173.34   13.09
  -2   2  -8  138.47   19.08
   2  -2   8  184.19   11.18
   2  -2   8  171.98   11.59
   2  -2   8  168.29   10.40
   2  -2   8  164.67   10.92
   2  -2   8  168.52   12.66
  -3   2  -8    2.39    2.72
  -3   2  -8    3.72    3.76
  -3   2  -8    2.25    1.18
  -3   2  -8    1.62    2.74
  -3   2  -8    4.26    1.24
  -3   2  -8    2.45    1.33
   3  -2   8    3.85    1.58
   3  -2   8    3.67    1.49
   3  -2   8    3.39    1.37
   4   1  -8    2.26    0.81
   4   1  -8    2.08    1.12
  -4  -1   8    3.88    2.56
  -4  -1   8    5.51    1.86
  -4  -1   8    1.87    1.89
  -4  -1   8    1.93    1.55
   3   1  -8    5.71    2.64
   3   1  -8    2.08    1.26
   3   1  -8    5.35    1.58
   3   1  -8    5.26    1.59
  -3  -1   8    9.85    2.98
  -3  -1   8    6.12    3.56
  -3  -1   8    6.88    3.77
  -3  -1   8    2.30    2.52
  -3  -1   8    3.12    3.32
  -3  -1   8   -0.77    1.87
  -3  -1   8    4.87    1.75
   2   1  -8    0.62    1.22
   2   1  -8    0.82    1.74
   2   1  -8    2.11    1.97
   2   1  -8    1.64    1.05
   2   1  -8   -0.79    0.86
   2   1  -8    0.68    1.26
  -2  -1   8   -2.54    3.23
  -2  -1   8    0.58    0.87
  -2  -1   8    0.76    2.64
  -2  -1   8    3.06    2.23
  -2  -1   8   -0.90    2.42
  -2  -1   8    1.49    2.21
   1   1  -8  931.24   47.59
   1   1  -8  983.01   48.71
   1   1  -8  936.33   47.13
   1   1  -8  902.92   49.75
   1   1  -8  935.85   49.64
   1   1  -8  917.07   49.24
   1   1  -8  946.14   47.21
  -1  -1   8  915.85   49.73
  -1  -1   8  843.59   47.62
  -1  -1   8  897.03   48.65
   0   1  -8  642.42   34.67
   0   1  -8  623.67   34.87
   0   1  -8  688.91   33.81
   0   1  -8  613.19   33.75
   0   1  -8  672.89   33.11
   0   1  -8  639.16   34.26
   0  -1   8  620.32   34.25
   0  -1   8  635.54   35.63
   0  -1   8  667.80   33.80
   0  -1   8  643.52   33.84
   0  -1   8  675.53   34.06
   0  -1   8  549.99   47.90
  -1   1  -8    2.65    1.46
  -1   1  -8    2.95    1.29
  -1   1  -8    0.36    1.59
  -1   1  -8    2.90    1.38
  -1   1  -8    4.72    1.76
  -1   1  -8    3.86    1.70
   1  -1   8    3.05    1.08
   1  -1   8    1.93    1.27
   1  -1   8    1.55    1.62
   1  -1   8    1.26    2.92
   1  -1   8    0.21    2.00
   1  -1   8    3.93    1.19
  -2   1  -8  337.78   33.12
  -2   1  -8  314.06   25.99
  -2   1  -8  344.82   22.58
  -2   1  -8  415.09   21.55
  -2   1  -8  318.65   29.03
  -2   1  -8  404.11   22.25
  -2   1  -8  379.68   21.31
  -2   1  -8  388.47   21.41
   2  -1   8  366.75   23.26
   2  -1   8  433.26   22.16
   2  -1   8  385.11   21.25
   2  -1   8  370.20   21.76
   2  -1   8  398.72   21.29
  -3   1  -8    1.85    3.02
  -3   1  -8    0.51    1.05
  -3   1  -8    2.18    2.90
  -3   1  -8    1.50    1.04
  -3   1  -8   -0.45    1.13
  -3   1  -8    0.60    3.20
  -3   1  -8    0.53    1.18
   3  -1   8    0.35    1.10
   3  -1   8    1.41    1.25
   3  -1   8   -0.82    1.30
   4   0  -8   36.09    3.59
   4   0  -8   44.26    3.40
  -4   0   8   41.76    3.56
  -4   0   8   35.67    6.38
   3   0  -8  209.84   14.62
   3   0  -8  214.98   12.42
   3   0  -8  217.59   12.42
   3   0  -8  211.39   12.84
  -3   0   8  175.69   21.33
  -3   0   8  214.85   12.99
   2   0  -8  328.90   21.47
   2   0  -8  321.70   22.11
   2   0  -8  324.27   18.84
   2   0  -8  331.48   20.26
   2   0  -8  343.86   19.51
   2   0  -8  343.36   19.00
  -2   0   8  403.27   25.96
  -2   0   8  331.67   20.21
   1   0  -8  180.20   10.15
   1   0  -8  168.55   11.75
   1   0  -8  173.94   12.14
   1   0  -8  177.52   10.55
   1   0  -8  175.81   12.26
   1   0  -8  184.01   11.43
   1   0  -8  188.92   10.23
  -1   0   8  164.65   10.51
  -1   0   8  178.82   10.91
  -1   0   8  169.00   11.41
  -1   0   8  181.54   12.59
   0   0  -8  298.43   16.38
   0   0  -8  278.20   17.02
   0   0  -8  275.49   17.40
   0   0  -8  319.32   15.69
   0   0  -8  283.01   15.88
   0   0  -8  292.80   16.83
   0   0   8  269.56   16.43
   0   0   8  280.43   17.66
   0   0   8  291.09   16.17
   0   0   8  242.71   27.06
   0   0   8  279.07   15.98
  -1   0  -8  131.32    8.62
  -1   0  -8  135.59    9.26
  -1   0  -8  130.73    9.86
  -1   0  -8  124.51    9.20
  -1   0  -8  128.89    9.02
  -1   0  -8  119.77    8.58
  -1   0  -8  129.78    8.45
   1   0   8  132.96    8.31
   1   0   8  114.93   16.97
   1   0   8  132.51    8.38
   1   0   8  130.07    8.93
   1   0   8  128.87    7.99
   1   0   8  124.36    9.95
  -2   0  -8   83.97    7.72
  -2   0  -8   76.06    6.51
  -2   0  -8   65.76    6.29
  -2   0  -8   63.43    6.83
  -2   0  -8   64.68   13.69
  -2   0  -8   74.47    5.74
  -2   0  -8   69.08    5.98
  -2   0  -8   68.96    9.28
  -2   0  -8   65.05    7.31
   2   0   8   66.10   13.94
   2   0   8   70.21    5.56
   2   0   8   71.74    7.39
   2   0   8   76.80    6.58
   2   0   8   66.42    5.54
   2   0   8   69.32    5.07
  -3   0  -8   14.89    7.30
  -3   0  -8   22.06    6.45
  -3   0  -8   26.77    3.38
  -3   0  -8   24.99    3.68
  -3   0  -8   20.84    3.10
  -3   0  -8   24.27    4.66
   3   0   8   25.81    3.16
   3   0   8   26.48    4.85
   3   0   8   22.45    3.63
  -4   0  -8   12.01    5.07
  -4   0  -8   11.02    1.68
  -4   0  -8    6.69    1.85
  -4   0  -8   13.95    2.59
  -4   0  -8   11.85    1.86
   3  -1  -8  225.69   15.82
   3  -1  -8  220.30   13.57
   3  -1  -8  222.30   13.56
   3  -1  -8  226.62   13.95
  -3   1   8  277.72   20.49
  -3   1   8  272.84   19.25
  -3   1   8  186.57   22.68
  -3   1   8  232.47   14.27
   2  -1  -8 1400.72   73.51
   2  -1  -8 1397.09   74.11
   2  -1  -8 1395.14   71.01
   2  -1  -8 1304.94   72.40
   2  -1  -8 1495.42   74.12
   2  -1  -8 1395.34   71.61
  -2   1   8 1356.07   72.94
  -2   1   8 1327.82   72.50
  -2   1   8 1427.40   78.06
   1  -1  -8   56.20    5.56
   1  -1  -8   55.58    5.54
   1  -1  -8   57.12    6.00
   1  -1  -8   57.38    4.20
   1  -1  -8   61.74    4.24
   1  -1  -8   54.72    4.97
   1  -1  -8   60.50    4.62
  -1   1   8   54.49    6.11
  -1   1   8   54.53    4.92
  -1   1   8   61.73    8.44
  -1   1   8   51.02    4.60
  -1   1   8   50.97    5.01
   0  -1  -8   61.33    5.99
   0  -1  -8   63.81    5.72
   0  -1  -8   63.89    4.84
   0  -1  -8   73.18    4.78
   0  -1  -8   59.51    5.32
   0   1   8   66.93    5.03
   0   1   8   70.45    5.26
   0   1   8   59.07    6.24
   0   1   8   61.54    5.42
   0   1   8   66.64    5.08
  -1  -1  -8    9.42    2.40
  -1  -1  -8    8.06    1.98
  -1  -1  -8    7.80    1.76
  -1  -1  -8   10.53    2.41
  -1  -1  -8    6.05    2.01
  -1  -1  -8    5.41    3.14
   1   1   8    5.64    1.36
   1   1   8    7.02    5.07
   1   1   8    6.79    1.60
   1   1   8    5.11    1.32
  -2  -1  -8   12.99    7.55
  -2  -1  -8   16.00    3.48
  -2  -1  -8   23.30    4.63
  -2  -1  -8   24.07    3.09
  -2  -1  -8   23.78    4.13
  -2  -1  -8   27.14    2.84
  -2  -1  -8   24.10    3.40
   2   1   8   21.58    2.39
   2   1   8   21.32    2.78
   2   1   8   21.54    2.72
   2   1   8   14.00    7.14
  -3  -1  -8   51.44    4.97
  -3  -1  -8   51.84    6.21
  -3  -1  -8   54.28    4.61
  -3  -1  -8   50.91    5.35
  -3  -1  -8   44.17    6.86
   3   1   8   52.42    4.77
   3   1   8   51.26    4.51
  -4  -1  -8    8.84    1.38
  -4  -1  -8    8.98    2.78
  -4  -1  -8    7.71    1.58
  -4  -1  -8    8.08    3.59
  -4  -1  -8    8.27    1.84
   3  -2  -8  365.09   20.07
   3  -2  -8  359.87   22.27
   3  -2  -8  364.83   20.38
   3  -2  -8  365.70   19.98
  -3   2   8  367.43   20.87
  -3   2   8  312.23   30.42
  -3   2   8  415.03   26.69
   2  -2  -8   42.92    6.13
   2  -2  -8   43.08    4.22
   2  -2  -8   46.72    5.06
   2  -2  -8   45.45    4.21
   2  -2  -8   32.00    5.09
   2  -2  -8   44.36    4.47
  -2   2   8   37.70    5.69
  -2   2   8   58.76    8.51
  -2   2   8   54.19    9.25
  -2   2   8   44.91    5.02
   1  -2  -8  159.70   11.38
   1  -2  -8  166.50   10.90
   1  -2  -8  161.96   11.59
   1  -2  -8  168.80    9.65
   1  -2  -8  166.85   10.03
   1  -2  -8  170.97    9.65
   1  -2  -8  164.72   12.00
  -1   2   8  165.35   10.29
  -1   2   8  164.14   12.09
  -1   2   8  172.18   15.10
  -1   2   8  159.08   10.45
  -1   2   8  142.85   10.79
   0  -2  -8  478.67   25.46
   0  -2  -8  457.56   23.92
   0  -2  -8  422.21   24.40
   0  -2  -8  424.93   24.80
   0   2   8  448.13   23.79
   0   2   8  438.97   23.90
   0   2   8  381.48   24.77
   0   2   8  431.09   23.94
  -1  -2  -8  172.61   11.09
  -1  -2  -8  184.07   11.08
  -1  -2  -8  182.31   11.51
  -1  -2  -8  176.50   10.58
  -1  -2  -8  169.11   11.40
  -1  -2  -8  183.59   12.52
   1   2   8  166.84   10.25
   1   2   8  177.02   10.37
   1   2   8  171.70   10.46
   1   2   8  146.56   18.51
   1   2   8  168.27   12.07
   1   2   8  149.91   10.81
  -2  -2  -8   90.94    8.81
  -2  -2  -8   87.09    7.05
  -2  -2  -8   83.51    7.27
  -2  -2  -8   84.07    6.36
  -2  -2  -8   65.38   13.50
  -2  -2  -8   83.09    7.68
  -2  -2  -8   91.15    6.67
   2   2   8   81.76    5.94
   2   2   8   77.33    5.79
  -3  -2  -8    7.19    1.91
  -3  -2  -8    4.01    2.43
  -3  -2  -8    3.30    1.53
  -3  -2  -8    5.70    1.86
  -3  -2  -8    2.59    3.36
   3   2   8    6.88    1.64
  -4  -2  -8   22.57    5.76
  -4  -2  -8   20.31    2.23
  -4  -2  -8   17.36    2.45
  -4  -2  -8   21.16    2.52
   3  -3  -8  144.88    8.50
   3  -3  -8  137.38   10.38
   3  -3  -8  143.38    8.64
   3  -3  -8  147.44    8.82
  -3   3   8  121.00   16.13
  -3   3   8  140.80    9.24
   2  -3  -8   26.18    3.20
   2  -3  -8   22.18    4.54
   2  -3  -8   27.76    3.11
   2  -3  -8   25.32    3.35
   2  -3  -8   30.08    4.99
   2  -3  -8   15.49    3.41
  -2   3   8   27.50    6.07
  -2   3   8   21.06    6.76
  -2   3   8   23.70    4.42
  -2   3   8   23.50    3.60
   1  -3  -8  226.46   13.12
   1  -3  -8  256.53   20.62
   1  -3  -8  250.23   15.69
   1  -3  -8  217.07   14.64
   1  -3  -8  230.55   12.74
  -1   3   8  206.51   14.28
  -1   3   8  218.29   13.33
  -1   3   8  225.87   18.48
  -1   3   8  219.19   13.78
  -1   3   8  223.66   19.98
   0  -3  -8  217.11   13.32
   0  -3  -8  233.70   14.38
   0  -3  -8  199.87   12.43
   0  -3  -8  221.57   13.43
   0  -3  -8  187.75   15.10
   0  -3  -8  212.77   13.75
   0  -3  -8  217.82   13.42
   0   3   8  220.49   12.68
   0   3   8  205.42   12.99
   0   3   8  194.34   13.37
   0   3   8  207.83   12.88
   0   3   8  206.42   14.17
   0   3   8  213.04   12.92
  -1  -3  -8  859.75   44.81
  -1  -3  -8  841.96   45.79
  -1  -3  -8  812.48   47.16
  -1  -3  -8  876.55   45.04
  -1  -3  -8  859.93   44.56
  -1  -3  -8  961.44   48.14
  -1  -3  -8  825.47   45.21
   1   3   8  782.06   44.79
   1   3   8  788.14   45.92
   1   3   8  975.47   44.85
   1   3   8  808.44   44.18
   1   3   8  819.17   44.46
  -2  -3  -8  207.67   12.46
  -2  -3  -8  203.34   13.66
  -2  -3  -8  191.94   14.10
  -2  -3  -8  250.17   17.80
  -2  -3  -8  210.94   12.74
  -2  -3  -8  168.88   20.80
  -2  -3  -8  205.60   13.23
  -2  -3  -8  221.99   15.72
  -2  -3  -8  175.85   14.70
   2   3   8  191.70   11.78
   2   3   8  197.76   11.98
  -3  -3  -8   23.58    5.23
  -3  -3  -8   27.32    3.26
  -3  -3  -8   26.64    3.77
  -3  -3  -8   29.48    3.96
  -3  -3  -8   31.03    3.46
  -3  -3  -8   22.86    7.36
   3   3   8   26.21    3.16
   3   3   8   24.97    3.21
  -4  -3  -8   42.04    3.47
  -4  -3  -8   34.84    3.42
  -4  -3  -8   41.86    3.73
   3  -4  -8    0.65    0.93
   3  -4  -8   -0.10    1.17
   3  -4  -8   -0.47    0.67
  -3   4   8   -0.19    0.61
  -3   4   8   -1.55    2.06
   2  -4  -8    2.65    2.16
   2  -4  -8    4.54    1.35
   2  -4  -8    2.95    1.53
   2  -4  -8    6.90    2.52
   2  -4  -8    1.52    2.28
   2  -4  -8    5.37    1.58
  -2   4   8    4.96    2.15
  -2   4   8    4.65    2.27
  -2   4   8    1.96    5.92
   1  -4  -8  308.33   20.68
   1  -4  -8  329.80   20.26
   1  -4  -8  316.26   19.46
   1  -4  -8  336.11   17.49
  -1   4   8  312.08   20.32
  -1   4   8  294.94   23.16
  -1   4   8  292.33   17.80
  -1   4   8  331.13   18.47
  -1   4   8  323.90   19.44
   0  -4  -8 1236.39   63.40
   0  -4  -8 1175.52   62.29
   0  -4  -8 1273.30   64.12
   0  -4  -8 1191.96   63.64
   0  -4  -8 1267.06   65.39
   0  -4  -8 1087.48   66.01
   0  -4  -8 1121.98   64.23
   0  -4  -8 1288.09   63.97
   0   4   8 1259.89   63.38
   0   4   8 1157.13   63.89
   0   4   8 1151.75   64.73
   0   4   8 1218.16   63.41
   0   4   8 1318.60   63.05
   0   4   8 1267.80   63.65
  -1  -4  -8  174.33   10.85
  -1  -4  -8  198.11   14.28
  -1  -4  -8  165.46   14.28
  -1  -4  -8  176.94   13.20
  -1  -4  -8  193.01   13.94
  -1  -4  -8  175.87   10.69
  -1  -4  -8  139.73   16.53
  -1  -4  -8  168.88   11.80
   1   4   8  165.70   10.33
   1   4   8  155.73   10.53
   1   4   8  184.44   11.00
   1   4   8  157.08   11.92
   1   4   8  149.43   10.73
  -2  -4  -8    0.64    1.21
  -2  -4  -8   -0.87    1.12
  -2  -4  -8    1.11    2.42
  -2  -4  -8    1.45    3.20
  -2  -4  -8    0.21    1.33
  -2  -4  -8   -0.55    1.12
  -2  -4  -8    0.69    1.88
  -2  -4  -8    0.59    1.65
   2   4   8   -0.97    0.57
   2   4   8    0.30    0.86
   2   4   8   -0.36    0.82
  -3  -4  -8   10.68    2.51
  -3  -4  -8    8.19    2.84
  -3  -4  -8    6.85    1.70
  -3  -4  -8   11.01    2.16
  -3  -4  -8   13.40    3.01
   3   4   8   12.24    2.67
   3   4   8    9.77    2.16
  -4  -4  -8   50.78    3.56
  -4  -4  -8   50.69    3.69
   3  -5  -8    4.35    1.89
  -3   5   8    2.01    2.78
  -3   5   8    2.70    0.93
   2  -5  -8  147.57   11.95
   2  -5  -8  143.22   11.10
   2  -5  -8  150.35    8.76
  -2   5   8  145.78   10.48
  -2   5   8  147.51   10.49
   1  -5  -8  197.86   13.34
   1  -5  -8  187.04   14.32
   1  -5  -8  194.55   13.86
  -1   5   8  187.54   16.93
  -1   5   8  198.98   14.32
  -1   5   8  184.22   13.05
  -1   5   8  202.72   12.17
   0  -5  -8 1044.37   66.08
   0  -5  -8 1264.79   64.13
   0  -5  -8 1176.43   63.26
   0  -5  -8 1224.74   63.93
   0   5   8 1265.08   68.13
   0   5   8 1302.72   64.36
   0   5   8 1248.95   63.67
   0   5   8 1156.30   65.11
   0   5   8 1220.44   66.86
   0   5   8 1215.52   64.49
   0   5   8 1248.53   63.63
  -1  -5  -8   11.99    3.47
  -1  -5  -8   14.48    2.69
  -1  -5  -8   13.77    6.26
  -1  -5  -8   13.77    3.22
  -1  -5  -8   13.08    2.77
  -1  -5  -8   13.80    2.43
  -1  -5  -8   12.87    2.43
   1   5   8   12.44    2.54
   1   5   8    9.33    2.25
   1   5   8   14.57    3.52
   1   5   8   18.87    3.59
  -2  -5  -8   36.46    5.29
  -2  -5  -8   39.77    4.30
  -2  -5  -8   41.05    5.20
  -2  -5  -8   32.62    5.12
  -2  -5  -8   38.09    4.12
  -2  -5  -8   33.32    4.75
  -2  -5  -8   34.64    7.33
   2   5   8   37.51    3.59
   2   5   8   37.13    5.05
   2   5   8   42.05    4.36
   2   5   8   35.10    3.80
  -3  -5  -8    7.95    1.69
  -3  -5  -8    9.30    2.14
  -3  -5  -8    7.40    2.16
  -3  -5  -8    8.44    2.43
  -3  -5  -8    6.85    2.16
  -3  -5  -8    4.86    2.54
   3   5   8    7.91    1.71
   3   5   8    5.28    2.11
   2  -6  -8   97.62    7.29
   2  -6  -8   89.37    7.82
  -2   6   8  105.84    7.70
   1  -6  -8  269.41   17.35
   1  -6  -8  275.52   17.09
  -1   6   8  277.12   17.07
  -1   6   8  251.81   17.70
  -1   6   8  275.33   15.29
   0  -6  -8  109.35    8.20
   0  -6  -8  120.64   10.96
   0  -6  -8  104.25    8.66
   0  -6  -8  104.16   10.44
   0  -6  -8  125.68    9.07
   0   6   8  124.31    8.85
   0   6   8  122.20   10.04
   0   6   8  108.02    8.70
   0   6   8  119.30    8.32
   0   6   8  124.35    8.81
   0   6   8  119.39    9.59
  -1  -6  -8  292.98   20.28
  -1  -6  -8  274.02   17.31
  -1  -6  -8  278.01   16.87
  -1  -6  -8  247.22   18.49
  -1  -6  -8  264.80   15.54
  -1  -6  -8  276.52   16.07
  -1  -6  -8  271.67   15.98
   1   6   8  276.92   16.79
   1   6   8  246.78   15.99
   1   6   8  264.40   15.73
   1   6   8  258.07   17.38
   1   6   8  268.47   16.20
  -2  -6  -8  220.61   13.48
  -2  -6  -8  235.22   14.50
  -2  -6  -8  216.99   13.20
  -2  -6  -8  214.98   14.68
  -2  -6  -8  218.68   15.63
  -2  -6  -8  208.52   14.52
   2   6   8  224.33   13.31
   2   6   8  215.66   12.85
   2   6   8  204.97   13.25
  -3  -6  -8   80.55    7.04
  -3  -6  -8   86.46    6.78
  -3  -6  -8   83.37    5.90
   3   6   8   79.40    6.60
   3   6   8   89.73    5.86
   2  -7  -8   18.10    2.57
   2  -7  -8   26.23    3.00
  -2   7   8   26.99    2.77
   1  -7  -8   -0.61    1.35
   1  -7  -8   -0.05    1.22
  -1   7   8    1.37    1.22
  -1   7   8    0.99    1.58
   0  -7  -8    6.71    2.09
   0  -7  -8    4.24    1.96
   0   7   8    7.47    2.54
   0   7   8    8.23    1.98
   0   7   8    8.51    2.56
   0   7   8    7.83    2.11
   0   7   8    6.92    1.74
  -1  -7  -8   75.04    5.73
  -1  -7  -8   70.85    6.57
  -1  -7  -8   58.86    7.32
  -1  -7  -8   69.71    6.37
  -1  -7  -8   72.99    5.60
  -1  -7  -8   65.23    5.14
   1   7   8   74.17    6.18
   1   7   8   65.85    5.85
   1   7   8   66.74    5.59
   1   7   8   66.21    6.73
  -2  -7  -8   31.58    3.43
  -2  -7  -8   31.52    4.84
  -2  -7  -8   33.91    4.28
  -2  -7  -8   35.98    4.07
  -2  -7  -8   32.49    3.40
   2   7   8   33.68    3.40
   2   7   8   22.91    3.38
   2   7   8   35.35    3.72
  -3  -7  -8   27.52    2.96
  -3  -7  -8   25.13    3.04
  -3  -7  -8   29.17    2.80
  -3  -7  -8   31.73    2.77
  -3  -7  -8   22.65    3.43
   1  -8  -8    8.18    1.91
  -1   8   8    6.42    1.68
  -1   8   8    8.72    2.29
   0  -8  -8   52.37    4.84
   0  -8  -8   47.16    5.58
   0   8   8   57.21    4.72
   0   8   8   59.34    7.71
   0   8   8   52.75    5.80
   0   8   8   53.54    4.54
  -1  -8  -8   10.95    2.97
  -1  -8  -8   16.06    3.10
  -1  -8  -8   19.17    3.81
  -1  -8  -8   14.18    2.73
  -1  -8  -8   16.01    2.13
  -1  -8  -8   16.86    2.07
   1   8   8   13.55    2.94
   1   8   8   13.68    2.21
   1   8   8   19.39    2.88
   1   8   8   19.37    3.39
  -2  -8  -8   21.81    3.16
  -2  -8  -8   24.43    4.33
  -2  -8  -8   21.06    2.92
  -2  -8  -8   23.43    2.48
  -2  -8  -8   23.94    2.71
   2   8   8   27.53    2.99
   2   8   8   25.73    2.95
   2   8   8   22.26    2.66
   0  -9  -8   36.40    3.21
   0  -9  -8   40.04    3.53
   0   9   8   43.12    4.23
   0   9   8   32.98    2.83
  -1  -9  -8  173.37   10.57
  -1  -9  -8  162.57   10.31
   1   9   8  176.49   11.18
   1   9   8  185.27   10.50
  -2  -9  -8   26.63    3.49
  -2  -9  -8   20.41    2.05
  -2  -9  -8   17.61    2.51
  -2  -9  -8   17.48    2.77
   2   9   8   24.44    2.51
   2   9   8   24.81    2.30
   2   8  -9  362.91   20.07
   2   8  -9  365.37   18.82
  -2  -8   9  384.90   19.49
  -2  -8   9  314.10   18.70
  -2  -8   9  360.11   19.21
   1   8  -9    7.90    2.25
   1   8  -9    8.13    2.40
  -1  -8   9    6.67    1.57
  -1  -8   9    7.13    1.52
   0   8  -9  214.50   12.92
   0   8  -9  215.54   12.87
   0  -8   9  208.50   12.66
   0  -8   9  205.24   12.64
  -1   8  -9   39.30    3.76
   1  -8   9   49.34    3.89
   3   7  -9   -0.65    0.59
   3   7  -9   -0.34    0.80
  -3  -7   9   -0.23    0.73
   2   7  -9    1.24    1.14
   2   7  -9    0.06    1.48
   2   7  -9   -0.06    0.85
   2   7  -9    1.72    0.92
  -2  -7   9    0.77    0.95
  -2  -7   9   -0.05    1.07
   1   7  -9   62.28    4.48
   1   7  -9   64.51    6.33
   1   7  -9   58.25    5.93
   1   7  -9   63.66    4.76
  -1  -7   9   61.97    5.26
  -1  -7   9   65.02    5.65
   0   7  -9  253.09   15.73
   0   7  -9  242.79   15.58
   0  -7   9  247.52   15.99
   0  -7   9  251.85   15.51
  -1   7  -9  220.79   13.00
  -1   7  -9  185.18   13.97
   1  -7   9  220.61   13.72
   1  -7   9  208.61   12.75
   3   6  -9    0.32    0.69
   3   6  -9   -0.47    1.45
   3   6  -9    0.58    0.70
  -3  -6   9    0.69    1.01
  -3  -6   9   -0.08    0.82
   2   6  -9  152.44    9.30
   2   6  -9  149.84    9.41
   2   6  -9  144.49   10.85
   2   6  -9  146.88    8.88
  -2  -6   9  144.58   10.65
  -2  -6   9  155.89   10.49
  -2  -6   9  157.76    9.97
  -2  -6   9  134.41   14.28
   1   6  -9  645.35   32.96
   1   6  -9  631.27   35.36
   1   6  -9  597.15   34.53
   1   6  -9  606.19   33.03
   1   6  -9  645.66   32.48
  -1  -6   9  581.40   34.10
  -1  -6   9  627.18   34.37
   0   6  -9   10.54    2.92
   0   6  -9   15.37    3.45
   0  -6   9   14.35    3.18
   0  -6   9   13.95    3.60
  -1   6  -9  156.04   11.00
   1  -6   9  157.37   10.92
   1  -6   9  166.01   12.19
   1  -6   9  162.40    9.86
  -2   6  -9   31.95    6.80
  -2   6  -9   30.55    4.41
  -2   6  -9   39.34    3.31
   2  -6   9   37.45    3.03
   2  -6   9   36.39    4.12
   2  -6   9   36.60    4.30
   3   5  -9  163.88    9.65
   3   5  -9  148.70    9.76
   3   5  -9  172.13   11.06
   3   5  -9  160.62    9.98
  -3  -5   9  167.30   10.94
  -3  -5   9  177.73   15.77
  -3  -5   9  190.85   14.22
  -3  -5   9  148.98   12.55
   2   5  -9   47.47    4.36
   2   5  -9   56.23    4.21
   2   5  -9   49.81    5.94
   2   5  -9   48.66    4.33
  -2  -5   9   44.73    7.37
  -2  -5   9   46.13    5.99
  -2  -5   9   48.74    8.51
  -2  -5   9   53.87    4.97
   1   5  -9  667.13   34.33
   1   5  -9  642.84   36.96
   1   5  -9  680.98   37.35
   1   5  -9  671.92   34.85
   1   5  -9  664.72   36.68
   1   5  -9  676.43   34.86
  -1  -5   9  624.56   36.68
  -1  -5   9  674.16   36.36
  -1  -5   9  607.84   36.42
   0   5  -9 1396.42   99.73
   0   5  -9 1608.44   80.35
   0   5  -9 1523.79   79.76
   0  -5   9 1495.92   77.85
   0  -5   9 1596.16   79.90
   0  -5   9 1518.36   80.89
  -1   5  -9  178.26   12.37
  -1   5  -9  175.10   10.72
   1  -5   9  198.70   14.04
   1  -5   9  183.41   12.53
   1  -5   9  180.90   11.61
   1  -5   9  181.05   11.82
   1  -5   9  194.58   11.59
  -2   5  -9   47.58    6.79
  -2   5  -9   53.72    4.57
  -2   5  -9   49.65    3.85
   2  -5   9   48.48    5.60
   2  -5   9   50.25    4.30
   2  -5   9   52.38    4.52
   2  -5   9   52.48    4.55
   3   4  -9  337.01   19.18
   3   4  -9  348.76   19.20
   3   4  -9  357.25   21.50
   3   4  -9  348.23   18.80
  -3  -4   9  350.80   21.08
  -3  -4   9  354.69   20.52
  -3  -4   9  341.50   22.20
  -3  -4   9  353.96   18.57
   2   4  -9  904.81   47.69
   2   4  -9  955.27   48.01
   2   4  -9  926.16   47.42
   2   4  -9  930.85   50.23
   2   4  -9  920.75   51.03
  -2  -4   9  913.56   65.10
  -2  -4   9  890.73   50.20
  -2  -4   9  946.25   48.97
  -2  -4   9  876.68   51.59
   1   4  -9   22.53    2.99
   1   4  -9   21.45    2.76
   1   4  -9   21.09    4.14
   1   4  -9   24.27    3.01
   1   4  -9   26.51    4.39
   1   4  -9   22.82    4.14
   1   4  -9   16.23    5.78
  -1  -4   9   23.96    6.13
  -1  -4   9   22.53    4.09
  -1  -4   9   26.29    3.56
  -1  -4   9   14.27    3.60
   0   4  -9   87.04    5.83
   0   4  -9   82.99    7.62
   0   4  -9   78.36    7.31
   0   4  -9   90.88    7.52
   0  -4   9   69.13   21.79
   0  -4   9   99.13    7.49
   0  -4   9   80.53    6.55
   0  -4   9   83.04    6.26
   0  -4   9   86.92    8.25
  -1   4  -9   44.34    5.98
  -1   4  -9   44.39    4.92
  -1   4  -9   48.36    5.35
  -1   4  -9   50.06    5.21
  -1   4  -9   51.87    4.22
   1  -4   9   44.48    4.65
   1  -4   9   46.12    4.67
   1  -4   9   41.90    4.43
   1  -4   9   51.17    6.50
   1  -4   9   45.67    4.96
   1  -4   9   51.79    5.35
  -2   4  -9  240.95   19.38
  -2   4  -9  250.96   13.93
  -2   4  -9  247.36   14.85
  -2   4  -9  219.93   15.07
  -2   4  -9  246.50   15.73
   2  -4   9  249.47   16.44
   2  -4   9  255.97   15.98
   2  -4   9  237.72   14.51
   2  -4   9  242.69   14.93
  -3   4  -9  326.65   22.32
  -3   4  -9  294.64   17.14
  -3   4  -9  311.40   19.42
   3  -4   9  322.45   17.22
   3  -4   9  332.81   17.11
   3   3  -9  150.35    9.09
   3   3  -9  142.52   10.49
   3   3  -9  141.98    9.06
   3   3  -9  141.19    8.75
  -3  -3   9  148.81   12.28
  -3  -3   9  143.07   10.26
  -3  -3   9  144.96    8.85
  -3  -3   9  141.40   15.27
   2   3  -9   16.58    2.56
   2   3  -9   17.58    3.91
   2   3  -9   16.62    3.47
   2   3  -9   17.99    2.53
  -2  -3   9   26.02    7.07
  -2  -3   9   21.23    4.12
  -2  -3   9    9.18    5.38
  -2  -3   9   20.35    6.08
  -2  -3   9   20.77    3.12
   1   3  -9  689.88   42.80
   1   3  -9  739.59   41.58
   1   3  -9  786.10   41.56
   1   3  -9  810.66   39.46
   1   3  -9  752.97   42.06
   1   3  -9  784.64   39.89
   1   3  -9  788.00   39.71
  -1  -3   9  672.53   48.89
  -1  -3   9  775.48   41.28
  -1  -3   9  800.64   45.09
  -1  -3   9  771.30   42.41
   0   3  -9   18.55    2.48
   0   3  -9   19.46    3.60
   0   3  -9   24.44    3.62
   0   3  -9   21.81    3.51
   0  -3   9   24.56    3.20
   0  -3   9   20.02    2.81
   0  -3   9   20.34    2.92
   0  -3   9   14.96    8.96
   0  -3   9   19.09    2.95
  -1   3  -9  653.12   33.29
  -1   3  -9  646.45   34.76
  -1   3  -9  668.61   34.79
  -1   3  -9  553.47   34.31
  -1   3  -9  652.66   34.82
   1  -3   9  683.01   36.45
   1  -3   9  638.12   36.26
   1  -3   9  630.69   34.55
   1  -3   9  548.24   53.27
   1  -3   9  624.53   34.14
  -2   3  -9   32.10    3.77
  -2   3  -9   32.12    8.45
  -2   3  -9   23.61    3.39
  -2   3  -9   40.78    7.61
  -2   3  -9   30.30    3.27
  -2   3  -9   30.99    3.96
  -2   3  -9   20.84    7.75
   2  -3   9   24.54    3.55
   2  -3   9   34.15    4.98
   2  -3   9   28.22    3.59
   2  -3   9   26.72    3.53
   2  -3   9   27.48    3.87
  -3   3  -9   63.10    4.76
  -3   3  -9   58.36    8.29
  -3   3  -9   51.28    9.58
  -3   3  -9   68.28    7.48
  -3   3  -9   71.44    4.65
   3  -3   9   61.51    5.01
   3  -3   9   64.53    5.30
   3  -3   9   84.75    6.41
   3  -3   9   73.71    5.19
   3   2  -9  336.72   18.79
   3   2  -9  362.46   18.98
   3   2  -9  359.66   19.26
   3   2  -9  364.07   21.05
  -3  -2   9  324.05   27.61
  -3  -2   9  304.25   19.98
  -3  -2   9  351.15   23.29
  -3  -2   9  344.16   19.15
   2   2  -9 1201.62   61.91
   2   2  -9 1179.06   59.71
   2   2  -9 1203.69   62.63
   2   2  -9 1166.87   59.55
  -2  -2   9 1160.34   68.17
  -2  -2   9 1220.24   61.42
  -2  -2   9 1011.51   69.43
   1   2  -9    3.91    1.85
   1   2  -9    7.76    1.40
   1   2  -9    3.43    1.25
   1   2  -9    6.63    1.98
   1   2  -9    3.23    1.21
   1   2  -9    1.89    1.83
   1   2  -9    1.58    2.34
  -1  -2   9    2.00    2.54
  -1  -2   9    4.01    2.16
  -1  -2   9    3.41    1.70
  -1  -2   9    4.86    1.85
  -1  -2   9    3.63    3.28
  -1  -2   9    4.56    2.30
   0   2  -9    0.36    1.25
   0   2  -9    0.17    1.10
   0   2  -9   -1.74    1.58
   0   2  -9    1.59    1.68
   0   2  -9   -0.06    2.11
   0   2  -9   -1.41    0.93
   0   2  -9   -0.22    1.04
   0  -2   9    0.88    0.99
   0  -2   9   -0.84    0.88
   0  -2   9   -1.86    1.13
   0  -2   9    2.10    1.54
   0  -2   9    1.55    3.81
   0  -2   9    0.58    1.18
   0  -2   9   -1.47    0.68
  -1   2  -9  224.82   16.22
  -1   2  -9  272.27   17.03
  -1   2  -9  271.62   16.25
  -1   2  -9  258.19   15.21
  -1   2  -9  276.53   16.47
  -1   2  -9  267.53   16.06
  -1   2  -9  274.18   18.24
   1  -2   9  260.20   15.34
   1  -2   9  271.72   15.75
   1  -2   9  275.52   15.89
   1  -2   9  278.61   16.38
   1  -2   9  244.05   30.37
  -2   2  -9  377.39   21.05
  -2   2  -9  423.77   21.92
  -2   2  -9  321.65   31.69
  -2   2  -9  391.32   22.13
  -2   2  -9  385.96   23.95
  -2   2  -9  360.87   21.47
  -2   2  -9  329.91   22.07
   2  -2   9  375.74   23.22
   2  -2   9  366.66   20.88
   2  -2   9  393.40   22.02
   2  -2   9  398.84   21.52
  -3   2  -9    0.16    0.86
  -3   2  -9   -0.05    1.83
  -3   2  -9    0.75    2.96
  -3   2  -9    0.51    0.64
  -3   2  -9    0.02    2.36
  -3   2  -9    0.54    1.05
   3  -2   9    0.05    0.89
   3  -2   9    1.02    1.02
   3  -2   9    0.34    0.95
   3   1  -9  202.03   12.04
   3   1  -9  217.99   12.44
   3   1  -9  202.54   14.00
  -3  -1   9  206.51   16.36
  -3  -1   9  196.56   20.72
  -3  -1   9  206.43   12.47
   2   1  -9  262.07   19.29
   2   1  -9  284.22   15.54
   2   1  -9  293.02   18.40
   2   1  -9  284.19   17.50
   2   1  -9  278.16   15.97
   2   1  -9  290.11   15.57
  -2  -1   9  249.75   22.87
  -2  -1   9  286.59   17.07
  -2  -1   9  237.02   24.05
   1   1  -9 3595.77  176.41
   1   1  -9 3706.74  178.03
   1   1  -9 3590.36  175.98
   1   1  -9 3405.70  178.58
   1   1  -9 3449.45  178.25
   1   1  -9 3449.61  178.93
  -1  -1   9 3056.33  184.29
  -1  -1   9 3535.38  177.94
  -1  -1   9 3719.41  178.82
  -1  -1   9 3441.14  178.99
  -1  -1   9 3414.06  176.56
  -1  -1   9 3762.49  184.45
   0   1  -9 1735.48   88.01
   0   1  -9 1692.01   87.26
   0   1  -9 1729.32   87.73
   0   1  -9 1679.67   86.69
   0   1  -9 1760.00   86.47
   0  -1   9 1639.15   86.69
   0  -1   9 1717.49   87.32
   0  -1   9 1700.21   87.87
   0  -1   9 1659.58   86.91
   0  -1   9 1671.57   88.83
  -1   1  -9   39.19    4.20
  -1   1  -9   52.56    4.82
  -1   1  -9   49.10    5.01
  -1   1  -9   47.00    4.91
  -1   1  -9   50.22    5.32
  -1   1  -9   54.20    4.76
  -1   1  -9   45.83    5.22
   1  -1   9   48.97    4.61
   1  -1   9   55.70    4.81
   1  -1   9   48.93    4.21
   1  -1   9   45.49    5.68
   1  -1   9   49.33    4.96
   1  -1   9   44.62   12.14
  -2   1  -9  307.28   21.08
  -2   1  -9  367.91   20.85
  -2   1  -9  364.10   20.02
  -2   1  -9  312.43   31.81
  -2   1  -9  336.37   20.00
  -2   1  -9  380.70   20.19
  -2   1  -9  365.62   22.43
   2  -1   9  346.62   19.46
   2  -1   9  335.85   20.38
   2  -1   9  343.71   19.89
   2  -1   9  361.05   20.11
  -3   1  -9   24.10    2.81
  -3   1  -9   23.57    3.38
  -3   1  -9   19.64    5.37
  -3   1  -9   24.97    3.33
  -3   1  -9   27.52    7.94
   3  -1   9   26.76    3.13
   3   0  -9    3.92    2.41
   3   0  -9    3.25    1.17
   3   0  -9    3.70    1.29
   3   0  -9    2.78    1.20
  -3   0   9    3.05    2.63
  -3   0   9    5.97    4.12
  -3   0   9    3.27    3.90
  -3   0   9    9.06    3.00
  -3   0   9    2.99    1.27
   2   0  -9 1835.15  100.58
   2   0  -9 1895.22   98.21
   2   0  -9 2058.39  109.42
   2   0  -9 1897.17   98.24
   2   0  -9 1895.84  100.23
   2   0  -9 1958.45  101.38
   2   0  -9 1998.06   98.84
  -2   0   9 1889.74   99.94
  -2   0   9 2016.33  106.72
   1   0  -9  112.35    8.47
   1   0  -9  113.60    7.04
   1   0  -9  113.87    7.37
   1   0  -9  111.05    9.17
   1   0  -9  107.77    6.88
   1   0  -9  108.96    8.94
  -1   0   9  105.62    9.15
  -1   0   9  103.65    7.69
  -1   0   9  107.48    8.28
  -1   0   9  118.23    8.86
  -1   0   9  135.09   13.15
   0   0  -9 1230.94   57.91
   0   0  -9 1052.35   57.96
   0   0  -9 1120.39   56.86
   0   0  -9 1087.74   57.87
   0   0  -9 1059.30   58.18
   0   0  -9 1115.87   57.30
   0   0   9 1091.92   57.21
   0   0   9 1130.40   57.69
   0   0   9 1072.68   57.48
   0   0   9 1102.94   57.03
   0   0   9 1091.51   58.98
   0   0   9 1051.71   57.86
  -1   0  -9  564.51   28.89
  -1   0  -9  503.20   28.66
  -1   0  -9  530.65   29.44
  -1   0  -9  543.33   29.32
  -1   0  -9  509.43   29.67
  -1   0  -9  526.38   28.95
  -1   0  -9  516.78   30.30
   1   0   9  525.10   29.18
   1   0   9  542.42   28.46
   1   0   9  474.47   43.84
   1   0   9  545.17   30.70
   1   0   9  545.39   28.80
   1   0   9  547.46   28.64
  -2   0  -9   74.23    9.71
  -2   0  -9   73.15    7.50
  -2   0  -9   84.08    6.49
  -2   0  -9   84.80    6.29
  -2   0  -9   67.62    6.29
  -2   0  -9   69.02    7.26
  -2   0  -9   79.17    5.99
  -2   0  -9   87.74    6.98
  -2   0  -9   65.93   14.05
   2   0   9   79.28    6.58
   2   0   9   72.68    7.53
   2   0   9   80.27    6.14
   2   0   9   81.67    6.21
   2   0   9   59.86   16.28
   2   0   9   79.72    5.74
  -3   0  -9   24.95    3.33
  -3   0  -9   28.46    3.12
  -3   0  -9   24.44    3.80
  -3   0  -9   19.18    4.90
  -3   0  -9   25.78    3.04
   3   0   9   24.70    3.21
   3   0   9   22.07    3.05
   3  -1  -9   91.77    6.19
   3  -1  -9   80.28    7.62
   3  -1  -9   80.47    5.74
  -3   1   9   77.95   12.40
  -3   1   9   83.24    6.34
   2  -1  -9  736.26   38.75
   2  -1  -9  716.20   40.57
   2  -1  -9  754.24   39.28
   2  -1  -9  741.06   38.72
   2  -1  -9  704.17   41.52
  -2   1   9  739.74   40.80
  -2   1   9  732.13   49.11
  -2   1   9  742.67   40.58
  -2   1   9  783.43   46.69
   1  -1  -9 1794.98   91.77
   1  -1  -9 1818.26   91.87
   1  -1  -9 1794.66   95.17
   1  -1  -9 1923.09   93.91
   1  -1  -9 1803.29   94.72
   1  -1  -9 1835.87   92.23
   1  -1  -9 1833.96   94.12
  -1   1   9 1783.63   92.84
  -1   1   9 1708.99   93.83
  -1   1   9 1798.55   93.86
  -1   1   9 2078.93  101.44
  -1   1   9 1719.79   94.90
  -1   1   9 1757.40   92.36
   0  -1  -9  114.70    8.64
   0  -1  -9  110.61    8.18
   0  -1  -9  114.91    8.62
   0  -1  -9  125.40    9.21
   0  -1  -9  105.06    7.94
   0   1   9  121.07    7.93
   0   1   9  116.46    7.94
   0   1   9  114.64    7.72
   0   1   9  105.86    8.98
   0   1   9   97.92    8.18
   0   1   9  111.24    8.18
  -1  -1  -9   95.55    6.68
  -1  -1  -9   97.18    6.88
  -1  -1  -9   82.07    7.11
  -1  -1  -9   87.25    7.13
  -1  -1  -9   90.14    7.12
  -1  -1  -9   85.57    6.75
   1   1   9   94.66    6.68
   1   1   9   95.60    6.63
   1   1   9   78.63   16.14
   1   1   9   86.58    7.06
   1   1   9   90.96    8.09
  -2  -1  -9    6.84    6.06
  -2  -1  -9   15.70    3.06
  -2  -1  -9   11.88    3.99
  -2  -1  -9   13.10    2.62
  -2  -1  -9   12.07    2.78
  -2  -1  -9    7.86    2.25
  -2  -1  -9   15.92    2.28
  -2  -1  -9    9.95    2.37
  -2  -1  -9   14.83    4.01
   2   1   9   12.97    9.84
   2   1   9   17.77    3.47
   2   1   9   18.58    3.99
   2   1   9   15.71    2.14
   2   1   9   13.53    2.49
   2   1   9   12.19    2.49
  -3  -1  -9   12.99    2.37
  -3  -1  -9   19.47    3.10
  -3  -1  -9   14.13    3.36
  -3  -1  -9   16.41    2.61
  -3  -1  -9   25.80    4.79
   3   1   9   25.02    2.92
   3   1   9   19.30    2.79
   3  -2  -9  214.66   12.18
   3  -2  -9  222.91   14.35
   3  -2  -9  228.35   12.60
   3  -2  -9  204.21   12.31
  -3   2   9  180.28   20.15
  -3   2   9  238.16   13.17
  -3   2   9  224.29   13.08
   2  -2  -9   30.98    3.64
   2  -2  -9   25.31    4.83
   2  -2  -9   29.89    3.60
   2  -2  -9   29.69    4.36
   2  -2  -9   37.48    4.99
   2  -2  -9   30.26    3.29
  -2   2   9   32.61    4.14
  -2   2   9   33.88    9.17
  -2   2   9   20.16    4.02
   1  -2  -9    1.38    1.55
   1  -2  -9    1.56    2.40
   1  -2  -9    2.75    1.84
   1  -2  -9    0.58    0.83
   1  -2  -9   -0.07    0.99
   1  -2  -9    0.06    1.47
  -1   2   9   -1.73    1.72
  -1   2   9    4.91    3.52
  -1   2   9    7.19    2.74
  -1   2   9    4.10    1.52
  -1   2   9    4.76    1.52
  -1   2   9    4.49    1.86
   0  -2  -9  165.13   11.25
   0  -2  -9  155.67   11.12
   0  -2  -9  177.71   11.71
   0  -2  -9  163.77   10.99
   0  -2  -9  164.34   10.25
   0   2   9  175.12   10.91
   0   2   9  171.57   10.47
   0   2   9  162.08   10.88
   0   2   9  140.19   11.56
   0   2   9  161.74   10.60
  -1  -2  -9    7.79    2.93
  -1  -2  -9    9.19    2.14
  -1  -2  -9   10.97    2.52
  -1  -2  -9   10.51    2.61
  -1  -2  -9    8.47    2.89
  -1  -2  -9    8.17    2.00
  -1  -2  -9   11.65    2.13
  -1  -2  -9    9.32    2.44
   1   2   9   13.05    2.39
   1   2   9    8.68    1.80
   1   2   9   11.47    2.23
   1   2   9    9.16    2.77
   1   2   9    8.51    5.86
   1   2   9   11.78    2.50
  -2  -2  -9  167.10   12.51
  -2  -2  -9  184.23   12.01
  -2  -2  -9  144.94   20.52
  -2  -2  -9  176.88   11.57
  -2  -2  -9  172.31   11.24
  -2  -2  -9  176.99   10.97
  -2  -2  -9  170.43   13.38
   2   2   9  172.39   10.58
   2   2   9  167.93   10.64
   2   2   9  161.99   10.49
   2   2   9  163.07   11.34
  -3  -2  -9    3.09    3.86
  -3  -2  -9   -0.10    1.09
  -3  -2  -9    2.92    1.16
  -3  -2  -9    1.13    1.23
  -3  -2  -9    2.93    2.11
  -3  -2  -9    4.24    1.66
   3   2   9    3.14    1.38
   3   2   9    1.05    1.32
   3  -3  -9   87.83    7.10
   3  -3  -9   86.47    5.49
   3  -3  -9   92.46    5.66
  -3   3   9   76.07   11.49
  -3   3   9   88.30    6.14
  -3   3   9   84.33    7.38
   2  -3  -9  380.50   20.60
   2  -3  -9  371.27   20.29
   2  -3  -9  376.43   20.13
   2  -3  -9  373.48   22.33
   2  -3  -9  384.75   23.54
  -2   3   9  373.10   22.10
  -2   3   9  323.44   27.85
  -2   3   9  376.95   22.38
   1  -3  -9    2.24    2.10
   1  -3  -9    3.38    1.91
   1  -3  -9    0.99    1.58
   1  -3  -9    2.40    1.19
   1  -3  -9    3.09    2.31
  -1   3   9   -0.83    1.07
  -1   3   9    0.19    1.92
  -1   3   9    4.13    4.30
  -1   3   9    3.22    1.66
  -1   3   9    2.60    2.01
  -1   3   9    3.44    1.42
   0  -3  -9  326.88   18.95
   0  -3  -9  356.96   20.51
   0  -3  -9  298.23   22.09
   0  -3  -9  337.96   19.61
   0  -3  -9  356.77   21.31
   0  -3  -9  313.98   19.91
   0  -3  -9  352.75   20.23
   0   3   9  346.45   20.00
   0   3   9  363.00   20.02
   0   3   9  358.86   19.53
   0   3   9  328.08   20.20
   0   3   9  328.38   21.10
   0   3   9  369.72   19.95
  -1  -3  -9    1.51    2.83
  -1  -3  -9    1.45    1.17
  -1  -3  -9    1.05    1.53
  -1  -3  -9    0.88    1.51
   1   3   9    1.50    1.11
   1   3   9    3.63    1.61
   1   3   9   -1.92    1.61
   1   3   9    0.77    0.89
   1   3   9    0.69    0.93
  -2  -3  -9  707.21   54.63
  -2  -3  -9  839.44   44.39
  -2  -3  -9  845.54   46.65
  -2  -3  -9  780.04   44.98
  -2  -3  -9  843.60   44.00
  -2  -3  -9  730.46   44.78
  -2  -3  -9  882.00   43.63
  -2  -3  -9  865.12   43.17
   2   3   9  805.86   42.60
   2   3   9  753.25   43.14
   2   3   9  817.75   42.83
   2   3   9  883.63   43.02
  -3  -3  -9   44.18    4.07
  -3  -3  -9   43.15    4.02
  -3  -3  -9   39.03    8.63
  -3  -3  -9   33.17    5.09
  -3  -3  -9   40.72    4.27
  -3  -3  -9   36.32    4.43
   3   3   9   44.74    4.23
   3  -4  -9    2.11    0.86
   3  -4  -9    3.80    1.73
  -3   4   9    3.62    0.94
  -3   4   9    3.01    3.09
   2  -4  -9   51.66    5.41
   2  -4  -9   52.01    4.06
   2  -4  -9   47.91    5.94
  -2   4   9   48.07    5.59
  -2   4   9   47.02    5.07
   1  -4  -9   26.62    4.28
   1  -4  -9   23.21    4.18
   1  -4  -9   27.07    4.74
   1  -4  -9   17.86    2.32
  -1   4   9   27.70    5.49
  -1   4   9   14.91    4.70
  -1   4   9   17.50    3.53
   0  -4  -9  114.30    8.44
   0  -4  -9  116.66    8.61
   0  -4  -9  114.94    8.78
   0  -4  -9  102.72    7.36
   0  -4  -9   86.92    9.89
   0  -4  -9  111.56    9.61
   0   4   9  120.70    8.68
   0   4   9  105.92    9.38
   0   4   9  125.41    8.51
   0   4   9  121.47    8.53
   0   4   9   97.77    8.35
  -1  -4  -9  718.11   38.80
  -1  -4  -9  733.95   38.28
  -1  -4  -9  764.57   38.67
  -1  -4  -9  714.61   39.17
  -1  -4  -9  786.24   42.18
  -1  -4  -9  655.48   40.82
  -1  -4  -9  690.18   37.72
   1   4   9  741.39   38.31
   1   4   9  688.21   37.90
   1   4   9  665.30   38.27
   1   4   9  683.93   39.58
  -2  -4  -9   38.87    3.96
  -2  -4  -9   38.74    4.53
  -2  -4  -9   36.67    4.07
  -2  -4  -9   30.90    5.08
  -2  -4  -9   40.73    4.91
  -2  -4  -9   29.34    7.12
  -2  -4  -9   35.79    5.52
   2   4   9   36.91    3.88
   2   4   9   37.31    3.76
   2   4   9   31.86    4.21
  -3  -4  -9    6.94    2.65
  -3  -4  -9    7.88    2.04
  -3  -4  -9    5.61    1.47
  -3  -4  -9    4.87    1.74
  -3  -4  -9    3.97    1.27
   3   4   9    6.90    1.75
   3   4   9    4.25    1.55
   2  -5  -9    6.70    2.24
   2  -5  -9    2.25    1.68
  -2   5   9    5.49    1.73
  -2   5   9    5.94    2.09
   1  -5  -9  927.30   52.51
  -1   5   9  868.95   49.69
  -1   5   9  867.77   54.63
  -1   5   9  981.59   48.59
   0  -5  -9   29.96    3.88
   0  -5  -9   24.78    5.32
   0  -5  -9   17.42    3.34
   0  -5  -9   16.12    2.88
   0  -5  -9   19.43    4.65
   0  -5  -9   23.78    3.78
   0   5   9   27.31    3.69
   0   5   9   13.75    2.54
   0   5   9   19.22    5.11
   0   5   9   22.87    4.14
   0   5   9   28.28    3.54
   0   5   9   34.40    4.42
   0   5   9   23.54    4.55
  -1  -5  -9  295.93   18.32
  -1  -5  -9  290.96   17.26
  -1  -5  -9  274.86   20.27
  -1  -5  -9  300.21   18.76
  -1  -5  -9  324.59   17.89
  -1  -5  -9  282.94   20.93
  -1  -5  -9  318.94   18.14
   1   5   9  331.63   18.64
   1   5   9  301.12   17.94
   1   5   9  310.53   18.14
   1   5   9  302.69   19.26
  -2  -5  -9    0.26    1.34
  -2  -5  -9    0.73    1.72
  -2  -5  -9   -0.23    1.35
  -2  -5  -9   -0.27    1.40
  -2  -5  -9    2.13    1.16
  -2  -5  -9   -0.20    0.93
   2   5   9   -0.10    0.81
   2   5   9   -0.45    1.18
   2   5   9    1.00    0.99
   2   5   9    0.84    1.09
  -3  -5  -9    6.00    1.96
  -3  -5  -9    5.70    1.78
  -3  -5  -9    9.87    2.66
  -3  -5  -9    6.12    1.93
  -3  -5  -9    4.73    1.27
   3   5   9    8.57    1.75
   2  -6  -9    1.71    1.26
   2  -6  -9    3.68    1.57
  -2   6   9    1.54    0.98
   1  -6  -9  448.72   26.17
   1  -6  -9  474.64   26.32
  -1   6   9  458.80   27.19
  -1   6   9  449.85   26.19
   0  -6  -9   50.02    6.98
   0  -6  -9   45.01    5.02
   0  -6  -9   41.61    4.48
   0   6   9   52.56    4.69
   0   6   9   46.40    6.77
   0   6   9   42.68    5.26
   0   6   9   46.95    5.10
   0   6   9   49.67    6.22
   0   6   9   52.82    6.10
  -1  -6  -9    1.77    1.46
  -1  -6  -9   -2.22    1.18
  -1  -6  -9    1.63    1.21
  -1  -6  -9   -2.04    1.68
  -1  -6  -9   -0.07    1.06
  -1  -6  -9    0.97    1.21
  -1  -6  -9    1.16    2.60
   1   6   9    1.13    1.19
   1   6   9    0.04    1.55
   1   6   9   -1.16    1.27
   1   6   9    0.24    0.73
   1   6   9   -0.47    0.97
  -2  -6  -9    3.45    1.29
  -2  -6  -9    5.82    1.91
  -2  -6  -9    6.00    2.39
  -2  -6  -9    3.41    1.64
  -2  -6  -9    3.91    2.08
  -2  -6  -9    4.34    1.85
   2   6   9    4.15    1.36
   2   6   9    3.26    1.48
   2   6   9    2.88    1.69
  -3  -6  -9   10.98    1.78
  -3  -6  -9    9.35    1.99
  -3  -6  -9    5.64    1.45
  -3  -6  -9    6.93    1.68
  -3  -6  -9    8.53    2.04
  -3  -6  -9    5.66    1.32
   1  -7  -9    1.12    1.41
   1  -7  -9    2.66    1.67
  -1   7   9    1.90    1.68
  -1   7   9    4.72    1.77
   0  -7  -9   13.40    2.60
   0   7   9   18.58    3.04
   0   7   9   20.47    2.79
   0   7   9   11.19    2.87
  -1  -7  -9  409.02   21.98
  -1  -7  -9  402.41   22.37
  -1  -7  -9  345.80   24.55
  -1  -7  -9  424.88   23.14
  -1  -7  -9  404.22   23.04
  -1  -7  -9  375.11   23.10
  -1  -7  -9  405.18   21.57
   1   7   9  411.49   23.86
   1   7   9  404.59   22.71
   1   7   9  418.07   22.87
  -2  -7  -9   92.08    8.40
  -2  -7  -9   92.53    7.39
  -2  -7  -9   97.19    6.47
  -2  -7  -9   94.85    6.81
  -2  -7  -9   94.37    7.19
   2   7   9   99.39    6.96
   2   7   9  101.42    6.73
   2   7   9  102.75    7.10
  -3  -7  -9    4.29    1.35
  -3  -7  -9    4.85    1.14
  -3  -7  -9    3.97    0.88
  -3  -7  -9    2.27    1.16
  -3  -7  -9    2.43    1.18
   1  -8  -9   13.30    2.00
   1  -8  -9   13.28    1.90
  -1   8   9   13.32    1.95
  -1   8   9   11.26    2.23
   0  -8  -9   79.44    5.94
   0  -8  -9   74.13    5.72
   0   8   9   76.77    5.52
   0   8   9   75.24    5.46
   0   8   9   90.95    7.69
  -1  -8  -9  268.94   14.73
  -1  -8  -9  309.09   17.60
  -1  -8  -9  255.42   15.66
  -1  -8  -9  253.58   15.28
   1   8   9  274.65   15.59
   1   8   9  283.48   16.09
   1   8   9  287.00   16.84
  -2  -8  -9    9.96    1.43
  -2  -8  -9    6.62    1.34
  -2  -8  -9    9.76    1.87
  -2  -8  -9    8.32    1.50
  -2  -8  -9    5.70    1.69
   2   8   9    8.26    1.47
   2   8   9    9.11    1.73
   2   8   9   11.03    2.04
   0  -9  -9    0.18    0.68
   0  -9  -9    0.54    0.75
  -1  -9  -9   37.23    3.43
   1   9   9   47.96    3.52
   1   9   9   41.81    4.08
   1   8 -10   70.64    5.62
  -1  -8  10   67.56    5.00
   0   8 -10    9.72    2.01
   0  -8  10   10.35    1.93
   2   7 -10  164.45    9.38
   2   7 -10  161.90   10.58
   2   7 -10  148.44    9.06
  -2  -7  10  160.68    9.68
  -2  -7  10  172.83   10.14
  -2  -7  10  179.70   10.04
   1   7 -10   12.36    1.84
   1   7 -10    9.63    2.36
   1   7 -10   12.79    2.87
  -1  -7  10   14.19    2.71
  -1  -7  10   12.88    2.16
   0   7 -10    5.99    2.15
   0   7 -10    3.25    2.08
   0  -7  10    3.75    1.86
   0  -7  10    2.74    1.34
  -1   7 -10  312.70   17.03
  -1   7 -10  288.27   18.82
   1  -7  10  313.31   17.55
   1  -7  10  284.43   16.58
   3   6 -10  240.99   15.57
   3   6 -10  234.16   12.91
  -3  -6  10  241.04   13.56
   2   6 -10    4.30    1.07
   2   6 -10    4.33    2.03
   2   6 -10    4.18    1.26
  -2  -6  10    5.47    1.67
  -2  -6  10    2.10    1.38
  -2  -6  10    2.88    1.45
   1   6 -10  423.89   22.14
   1   6 -10  389.60   21.62
   1   6 -10  408.94   24.39
   1   6 -10  396.19   23.89
  -1  -6  10  436.00   23.81
   0   6 -10  313.89   18.88
   0   6 -10  300.78   18.71
   0  -6  10  314.12   18.67
   0  -6  10  308.95   19.51
  -1   6 -10   86.47    6.86
   1  -6  10   89.50    5.67
   1  -6  10   88.58    7.78
   1  -6  10   88.92    6.81
  -2   6 -10   47.44    6.52
  -2   6 -10   58.07    3.43
  -2   6 -10   44.56    4.68
   2  -6  10   47.61    6.35
   3   5 -10   17.57    2.88
   3   5 -10   19.81    2.11
   3   5 -10   16.05    1.98
  -3  -5  10   18.42    2.99
  -3  -5  10   14.17    4.20
  -3  -5  10   17.74    2.48
   2   5 -10  181.76   12.47
   2   5 -10  174.93   10.11
   2   5 -10  177.23   10.47
   2   5 -10  174.06   10.58
  -2  -5  10  191.88   11.50
  -2  -5  10  164.25   12.33
  -2  -5  10  150.15   15.17
   1   5 -10   14.05    3.22
   1   5 -10   13.81    2.73
   1   5 -10   12.06    1.83
   1   5 -10   13.42    2.22
  -1  -5  10   16.81    3.58
  -1  -5  10   10.99    2.57
   0   5 -10  149.83   16.63
   0   5 -10  176.43   12.40
   0   5 -10  200.34   13.21
   0  -5  10  199.18   14.23
   0  -5  10  201.22   12.73
  -1   5 -10  135.04    9.60
  -1   5 -10  108.18   12.94
   1  -5  10  134.61    8.89
   1  -5  10  135.43    8.63
   1  -5  10  147.71    9.89
   1  -5  10  139.26   10.84
  -2   5 -10   16.90    2.15
  -2   5 -10   12.35    4.91
  -2   5 -10   16.70    4.10
   2  -5  10   14.89    3.03
   2  -5  10   13.40    2.26
   2  -5  10   13.97    2.14
   3   4 -10    3.34    1.25
   3   4 -10    4.54    1.17
   3   4 -10    5.42    1.20
   3   4 -10    6.20    2.14
  -3  -4  10    7.11    1.41
  -3  -4  10    7.40    2.34
  -3  -4  10    7.84    3.04
  -3  -4  10    6.35    1.98
  -3  -4  10    6.25    2.91
   2   4 -10  629.83   33.91
   2   4 -10  658.29   36.28
   2   4 -10  658.67   33.64
   2   4 -10  666.58   34.08
  -2  -4  10  605.99   37.19
  -2  -4  10  646.36   35.07
  -2  -4  10  632.69   40.70
   1   4 -10   86.95    8.51
   1   4 -10  102.03    6.63
   1   4 -10   92.55    6.10
   1   4 -10   92.55    7.79
   1   4 -10   94.29    6.67
   1   4 -10  104.26    8.58
  -1  -4  10   77.95    8.03
  -1  -4  10   94.46    7.56
  -1  -4  10   91.11    8.38
   0   4 -10  687.07   37.63
   0   4 -10  679.68   37.46
   0  -4  10  665.51   37.15
   0  -4  10  667.31   36.03
   0  -4  10  666.32   38.42
  -1   4 -10   -1.49    2.52
  -1   4 -10    0.87    1.57
  -1   4 -10   -2.05    2.33
  -1   4 -10   -0.99    1.73
  -1   4 -10   -0.43    1.05
   1  -4  10    1.05    1.60
   1  -4  10    0.04    1.33
   1  -4  10    3.66    1.59
   1  -4  10   -1.32    0.91
   1  -4  10   -0.26    2.37
   1  -4  10    0.46    1.20
  -2   4 -10   -0.74    1.91
  -2   4 -10   -1.62    0.99
  -2   4 -10    0.27    0.84
   2  -4  10   -1.33    1.44
   2  -4  10    1.15    1.18
   2  -4  10   -0.25    0.89
   2  -4  10   -0.04    0.96
   3   3 -10  263.91   14.51
   3   3 -10  255.80   14.74
   3   3 -10  271.34   14.86
   3   3 -10  262.73   16.24
  -3  -3  10  241.97   17.56
  -3  -3  10  258.80   20.18
  -3  -3  10  263.15   16.57
  -3  -3  10  288.28   19.57
  -3  -3  10  259.32   14.60
  -3  -3  10  283.76   16.09
   2   3 -10   30.90    3.27
   2   3 -10   30.02    3.02
   2   3 -10   23.60    4.50
   2   3 -10   29.44    7.17
  -2  -3  10   29.46    7.24
  -2  -3  10   34.24    7.16
  -2  -3  10   24.51    6.44
  -2  -3  10   33.77    6.51
   1   3 -10  335.15   21.25
   1   3 -10  360.27   19.17
   1   3 -10  366.60   19.57
   1   3 -10  370.99   19.67
   1   3 -10  368.90   21.96
  -1  -3  10  317.90   25.04
  -1  -3  10  358.17   22.11
  -1  -3  10  358.98   21.05
   0   3 -10   64.65    6.07
   0   3 -10   66.03    6.36
   0  -3  10   49.62   15.22
   0  -3  10   59.44    5.42
   0  -3  10   63.37    5.26
   0  -3  10   47.26    5.24
   0  -3  10   58.76    5.29
   0  -3  10   68.14    6.03
   0  -3  10   67.01    6.89
  -1   3 -10    5.86    2.23
  -1   3 -10   -2.50    1.79
  -1   3 -10    5.29    1.98
  -1   3 -10    3.02    3.58
  -1   3 -10    0.86    1.52
  -1   3 -10    1.75    2.13
  -1   3 -10    3.62    1.38
   1  -3  10    1.19    1.14
   1  -3  10    5.12    2.55
   1  -3  10    5.36    1.71
   1  -3  10    3.32    1.53
   1  -3  10    2.46    1.37
   1  -3  10    7.43    2.31
  -2   3 -10   21.91    2.59
  -2   3 -10   19.17    3.10
  -2   3 -10   18.13    2.84
  -2   3 -10   16.97    6.28
  -2   3 -10   24.42    3.14
  -2   3 -10   14.16    5.83
  -2   3 -10   18.59    5.45
   2  -3  10   26.73    3.34
   2  -3  10   25.24    3.16
   2  -3  10   20.89    3.40
   2  -3  10   32.69    5.37
  -3   3 -10   27.79    2.33
  -3   3 -10   17.46    2.09
  -3   3 -10   13.55    4.80
  -3   3 -10   23.75    3.83
   3  -3  10   21.53    2.47
   3  -3  10   22.57    2.31
   3   2 -10  186.63   10.51
   3   2 -10  170.34   10.64
   3   2 -10  175.18   10.71
  -3  -2  10  226.10   24.72
  -3  -2  10  175.60   11.14
  -3  -2  10  184.36   11.54
  -3  -2  10  184.65   12.50
  -3  -2  10  163.91   13.63
   2   2 -10  213.05   14.38
   2   2 -10  203.29   12.17
   2   2 -10  203.43   12.99
   2   2 -10  183.98   13.74
   2   2 -10  204.19   11.82
  -2  -2  10  212.35   14.41
  -2  -2  10  188.32   18.84
  -2  -2  10  195.85   13.11
  -2  -2  10  173.69   18.32
  -2  -2  10  241.21   18.15
   1   2 -10 1786.47  105.45
   1   2 -10 2093.53  105.44
   1   2 -10 2031.52  102.34
   1   2 -10 2073.28  102.86
   1   2 -10 1978.12  104.72
   1   2 -10 2061.75  104.90
   1   2 -10 2041.35  102.66
  -1  -2  10 2034.07  104.50
  -1  -2  10 1971.49  105.41
  -1  -2  10 2228.43  110.91
   0   2 -10  173.83   11.32
   0   2 -10  144.78   10.80
   0   2 -10  167.78   11.42
   0   2 -10  153.36   10.66
   0  -2  10  164.53   10.77
   0  -2  10  166.80   12.21
   0  -2  10  157.47   10.22
   0  -2  10  168.41   10.60
   0  -2  10  158.52   11.81
   0  -2  10  134.41   23.41
  -1   2 -10  112.41    7.76
  -1   2 -10  104.15    8.76
  -1   2 -10  126.82    8.95
  -1   2 -10  118.11    8.77
  -1   2 -10  119.28    8.75
  -1   2 -10  122.83    9.83
   1  -2  10  122.79    8.25
   1  -2  10  117.71    8.79
   1  -2  10  128.57    8.72
   1  -2  10  125.07    8.48
   1  -2  10  113.31    9.96
   1  -2  10   95.52   19.73
  -2   2 -10   31.46    7.76
  -2   2 -10   18.02    3.12
  -2   2 -10   26.25    2.99
  -2   2 -10   21.61    8.43
  -2   2 -10   30.39    3.45
  -2   2 -10   27.05    3.65
   2  -2  10   30.61    3.89
   2  -2  10   32.02    5.39
   2  -2  10   31.18    3.69
   2  -2  10   28.75    3.58
  -3   2 -10    0.30    1.92
  -3   2 -10    0.05    0.86
  -3   2 -10    0.45    0.82
  -3   2 -10   -0.11    0.58
  -3   2 -10    0.92    1.70
   3  -2  10    1.02    1.34
   3  -2  10    0.49    0.83
   3   1 -10  138.35    8.70
   3   1 -10  146.33    8.86
   3   1 -10  136.40    8.42
   3   1 -10  142.95   10.38
  -3  -1  10  136.60    8.96
  -3  -1  10  123.18   14.50
  -3  -1  10  139.86   12.17
  -3  -1  10  174.08   10.87
   2   1 -10   90.49    5.92
   2   1 -10  104.43    8.31
   2   1 -10   84.28    8.09
   2   1 -10   81.80    6.18
   2   1 -10   77.39    7.45
   2   1 -10   71.06    7.52
  -2  -1  10   86.35    7.09
  -2  -1  10   73.52   11.83
  -2  -1  10   67.41   11.37
  -2  -1  10   99.97    8.24
   1   1 -10    4.49    1.50
   1   1 -10    4.38    1.22
   1   1 -10    2.30    1.20
   1   1 -10    4.32    2.21
   1   1 -10    8.54    2.34
   1   1 -10    6.03    2.33
   1   1 -10    1.48    1.64
  -1  -1  10    4.46    3.54
  -1  -1  10    3.63    1.56
  -1  -1  10    3.40    1.75
  -1  -1  10    4.74    2.59
   0   1 -10 1887.94   98.95
   0   1 -10 1987.92  100.37
   0   1 -10 2113.68  101.90
   0   1 -10 1804.79   99.52
   0  -1  10 1887.53   99.96
   0  -1  10 1944.52   99.40
   0  -1  10 1993.95   99.24
   0  -1  10 1931.19   99.41
  -1   1 -10   42.94    4.55
  -1   1 -10   42.25    4.46
  -1   1 -10   32.38    4.66
  -1   1 -10   42.13    6.75
  -1   1 -10   39.71    5.09
  -1   1 -10   39.59    4.21
   1  -1  10   43.45    4.44
   1  -1  10   41.30   13.73
   1  -1  10   38.95    4.12
   1  -1  10   46.47    5.58
   1  -1  10   37.05    3.88
   1  -1  10   39.07    4.61
  -2   1 -10  508.87   38.55
  -2   1 -10  438.29   41.59
  -2   1 -10  566.38   29.41
  -2   1 -10  407.66   29.56
  -2   1 -10  539.59   29.91
   2  -1  10  520.75   27.67
   2  -1  10  503.78   27.44
  -3   1 -10  132.02   16.43
  -3   1 -10  115.52    9.12
  -3   1 -10  133.78   11.74
   3  -1  10  142.40    8.73
   3  -1  10  146.84    8.76
   3  -1  10  147.73    9.08
   3   0 -10    2.68    1.24
   3   0 -10    0.87    0.97
   3   0 -10    0.89    0.84
   3   0 -10    1.50    1.72
  -3   0  10    1.10    1.95
  -3   0  10    0.98    0.83
  -3   0  10   -0.19    1.71
   2   0 -10    6.05    2.36
   2   0 -10    0.39    2.16
   2   0 -10    5.11    1.24
   2   0 -10    4.33    1.39
   2   0 -10    8.95    2.78
  -2   0  10    5.24    1.93
  -2   0  10    4.26    3.93
  -2   0  10   11.39    3.25
  -2   0  10    3.03    4.34
   1   0 -10  421.44   23.05
   1   0 -10  433.18   25.58
   1   0 -10  416.76   22.90
   1   0 -10  395.08   24.66
   1   0 -10  413.15   25.35
   1   0 -10  425.40   25.09
   1   0 -10  438.17   22.77
  -1   0  10  474.38   31.31
  -1   0  10  440.84   24.88
  -1   0  10  449.62   26.19
   0   0 -10  169.99   11.70
   0   0 -10  187.07   11.89
   0   0 -10  167.70   11.13
   0   0 -10  179.40   11.53
   0   0  10  162.92   11.23
   0   0  10  179.57   11.20
   0   0  10  174.03   10.97
   0   0  10  173.29   11.64
   0   0  10  166.31   12.56
   0   0  10  159.33   11.00
  -1   0 -10  459.23   25.02
  -1   0 -10  435.69   25.39
  -1   0 -10  416.20   26.04
  -1   0 -10  478.98   24.93
  -1   0 -10  437.15   25.76
  -1   0 -10  449.95   25.19
  -1   0 -10  418.71   25.55
   1   0  10  450.98   26.63
   1   0  10  464.77   24.85
   1   0  10  364.60   40.24
   1   0  10  442.69   25.10
   1   0  10  466.56   24.57
   1   0  10  467.93   24.72
  -2   0 -10   42.88    3.85
  -2   0 -10   37.42    4.18
  -2   0 -10   42.95    7.08
  -2   0 -10   42.57    4.46
  -2   0 -10   37.33    4.23
  -2   0 -10   31.71   10.30
  -2   0 -10   41.69    5.21
  -2   0 -10   36.45    5.32
  -2   0 -10   39.71    4.56
   2   0  10   33.80    5.55
   2   0  10   36.33    3.96
   2   0  10   38.86    3.83
   2   0  10   40.01    4.47
  -3   0 -10   63.94    9.90
  -3   0 -10   68.89    6.32
  -3   0 -10   64.82   11.65
  -3   0 -10   76.85    5.92
   3   0  10   68.89    5.48
   3   0  10   75.35    5.61
   3   0  10   80.17    5.92
   3  -1 -10   31.49    2.90
   3  -1 -10   30.57    3.21
   3  -1 -10   21.42    4.05
   3  -1 -10   36.10    3.18
  -3   1  10   39.81    4.18
  -3   1  10   33.98    3.78
  -3   1  10   31.34    9.53
   2  -1 -10    4.29    4.11
   2  -1 -10    9.55    1.98
   2  -1 -10   12.25    3.51
   2  -1 -10    8.60    1.54
   2  -1 -10    2.12    3.45
   2  -1 -10   10.03    1.89
  -2   1  10   11.59    2.90
  -2   1  10   16.34    8.42
   1  -1 -10  378.67   20.66
   1  -1 -10  390.24   23.40
   1  -1 -10  379.02   23.04
   1  -1 -10  370.16   20.26
  -1   1  10  375.44   22.47
  -1   1  10  395.84   23.98
  -1   1  10  417.43   28.84
  -1   1  10  363.25   21.36
   0  -1 -10   11.51    2.24
   0  -1 -10   17.81    3.57
   0  -1 -10   16.71    2.98
   0  -1 -10   12.16    2.74
   0  -1 -10   18.45    4.10
   0   1  10   16.02    2.85
   0   1  10   17.51    2.68
   0   1  10   15.17    3.66
   0   1  10   14.22    3.06
   0   1  10   11.57    3.06
   0   1  10   14.44    2.63
  -1  -1 -10   50.81    5.33
  -1  -1 -10   56.10    5.14
  -1  -1 -10   58.07    4.96
  -1  -1 -10   50.62    5.42
  -1  -1 -10   54.65    6.15
  -1  -1 -10   50.56    5.27
   1   1  10   56.67    4.91
   1   1  10   55.77    5.02
   1   1  10   54.51    4.90
   1   1  10   50.57    5.07
   1   1  10   61.98    8.29
  -2  -1 -10   18.72    4.12
  -2  -1 -10   18.03    8.68
  -2  -1 -10   14.58    2.69
  -2  -1 -10   13.95    3.99
  -2  -1 -10   18.98    4.29
  -2  -1 -10   18.71    3.59
  -2  -1 -10   19.15    3.09
  -2  -1 -10   19.33    3.51
   2   1  10   21.13    3.53
   2   1  10   15.42    3.75
   2   1  10   17.10    3.14
   2   1  10   20.48    3.09
  -3  -1 -10    5.31    1.36
  -3  -1 -10    7.58    2.39
  -3  -1 -10   11.59    3.35
  -3  -1 -10    6.97    1.73
  -3  -1 -10    5.76    3.78
   3   1  10    8.14    1.75
   3   1  10    7.32    2.24
   3   1  10    6.47    1.68
   3  -2 -10   66.44    5.91
   3  -2 -10   64.64    4.35
   3  -2 -10   72.55    4.60
  -3   2  10   58.21    9.45
  -3   2  10   67.30    5.01
   2  -2 -10   69.55    5.33
   2  -2 -10   64.84    4.81
   2  -2 -10   70.85    7.26
   2  -2 -10   61.09    5.04
  -2   2  10   77.36   12.08
  -2   2  10   69.94    6.76
  -2   2  10   67.34    6.26
   1  -2 -10  787.97   44.58
   1  -2 -10  815.89   43.99
   1  -2 -10  800.60   41.55
   1  -2 -10  831.84   44.71
  -1   2  10  857.80   50.67
  -1   2  10  773.98   43.69
  -1   2  10  775.92   44.96
  -1   2  10  800.73   42.55
   0  -2 -10   31.66    3.98
   0  -2 -10   42.12    5.03
   0  -2 -10   37.07    4.85
   0  -2 -10   50.41    5.59
   0  -2 -10   40.93    4.29
   0  -2 -10   46.07    4.73
   0   2  10   45.30    4.63
   0   2  10   43.25    4.68
   0   2  10   44.73    4.70
   0   2  10   44.12    4.50
   0   2  10   43.16    4.30
   0   2  10   45.95    5.64
  -1  -2 -10   66.59    5.42
  -1  -2 -10   56.69    5.92
  -1  -2 -10   55.20    5.50
  -1  -2 -10   69.23    6.06
  -1  -2 -10   68.89    6.17
  -1  -2 -10   71.28    7.32
  -1  -2 -10   63.75    5.55
   1   2  10   61.85    5.56
   1   2  10   61.15    5.79
   1   2  10   64.30    6.79
   1   2  10   73.22    5.77
   1   2  10   65.71    5.41
  -2  -2 -10    3.20    2.26
  -2  -2 -10    4.00    1.62
  -2  -2 -10    3.54    5.00
  -2  -2 -10    0.98    1.19
  -2  -2 -10    3.85    1.90
  -2  -2 -10   -1.47    2.46
  -2  -2 -10    2.95    1.55
  -2  -2 -10    2.07    1.59
   2   2  10    3.14    1.77
   2   2  10    5.16    2.86
   2   2  10    3.46    1.37
   2   2  10    5.28    1.61
  -3  -2 -10    7.80    1.66
  -3  -2 -10    8.91    1.98
  -3  -2 -10   12.73    2.21
  -3  -2 -10    8.09    2.57
  -3  -2 -10    7.44    4.24
   3   2  10    7.55    2.50
   3   2  10   11.67    2.13
   3   2  10   12.37    2.12
   3  -3 -10  151.04    8.23
   3  -3 -10  159.36    9.92
  -3   3  10  136.82   14.14
  -3   3  10  153.73    8.98
  -3   3  10  149.57    9.87
   2  -3 -10  506.70   29.18
   2  -3 -10  463.01   25.79
   2  -3 -10  493.62   26.23
   2  -3 -10  524.64   28.55
  -2   3  10  507.12   28.31
  -2   3  10  487.62   28.02
   1  -3 -10  128.93    9.78
   1  -3 -10  125.15   10.28
   1  -3 -10  128.97   10.64
   1  -3 -10  123.15    7.40
  -1   3  10  130.29   10.72
  -1   3  10  127.25    8.58
  -1   3  10  119.21   13.53
  -1   3  10  119.39    9.41
   0  -3 -10  103.55    9.15
   0  -3 -10  109.40    8.52
   0  -3 -10   93.08    7.49
   0  -3 -10   99.97    8.34
   0  -3 -10  112.42    8.41
   0   3  10  106.44    8.25
   0   3  10  107.36    9.32
   0   3  10   99.74    8.00
   0   3  10  113.60    8.14
   0   3  10  108.78    7.98
  -1  -3 -10  126.73    8.28
  -1  -3 -10  121.65   10.83
  -1  -3 -10  115.00    8.64
  -1  -3 -10  123.28    8.54
  -1  -3 -10  126.86    9.10
  -1  -3 -10  112.44    8.74
  -1  -3 -10   98.17    9.99
   1   3  10  130.90    8.86
   1   3  10  113.73    8.42
   1   3  10  129.75    8.41
   1   3  10  115.10    8.69
   1   3  10  123.28    9.90
  -2  -3 -10    5.99    2.19
  -2  -3 -10    7.59    2.29
  -2  -3 -10    5.11    2.11
  -2  -3 -10    7.28    3.07
  -2  -3 -10    7.19    2.04
   2   3  10    5.75    1.76
   2   3  10    6.63    1.59
  -3  -3 -10   64.64    4.77
  -3  -3 -10   57.80    4.93
  -3  -3 -10   57.48    4.67
  -3  -3 -10   56.37    5.09
  -3  -3 -10   56.92    6.09
  -3  -3 -10   49.14    8.98
   3   3  10   61.10    6.50
   3   3  10   52.42    4.55
   3   3  10   60.07    6.23
   2  -4 -10  181.01   12.17
   2  -4 -10  183.37   10.61
   2  -4 -10  156.20   12.11
  -2   4  10  170.67   11.39
  -2   4  10  142.84   13.38
   1  -4 -10   10.04    2.61
   1  -4 -10   18.02    3.95
   1  -4 -10   12.46    4.56
  -1   4  10   12.16    3.25
  -1   4  10    4.74    4.73
  -1   4  10   15.25    3.39
   0  -4 -10  100.77    8.14
   0  -4 -10  100.85    7.75
   0  -4 -10  106.25    8.24
   0  -4 -10  102.53    9.49
   0  -4 -10  101.06    8.09
   0   4  10   97.32    8.18
   0   4  10  107.44    7.76
   0   4  10  112.07    8.24
   0   4  10  103.88    8.05
   0   4  10  108.02    8.49
   0   4  10  105.10    9.25
  -1  -4 -10   76.49    8.50
  -1  -4 -10   79.64    8.80
  -1  -4 -10   90.15    6.37
  -1  -4 -10   91.59    7.10
  -1  -4 -10   78.65    6.90
  -1  -4 -10   82.02    6.91
   1   4  10   87.81    6.83
   1   4  10   80.29    6.43
   1   4  10   90.46    7.09
   1   4  10   71.57    6.64
   1   4  10   79.85    7.81
  -2  -4 -10   35.44    4.08
  -2  -4 -10   29.97    3.99
  -2  -4 -10   32.04    4.15
  -2  -4 -10   33.28    5.07
  -2  -4 -10   25.03    4.51
  -2  -4 -10   37.71    3.75
   2   4  10   34.42    4.02
   2   4  10   35.62    3.71
   2   4  10   30.88    3.43
  -3  -4 -10   19.62    2.59
  -3  -4 -10   15.39    3.16
  -3  -4 -10   16.86    3.27
  -3  -4 -10   22.38    2.86
  -3  -4 -10   17.86    3.40
   3   4  10   18.08    2.51
   2  -5 -10    9.96    2.47
   2  -5 -10   11.32    2.39
  -2   5  10    7.41    1.73
   1  -5 -10   -0.57    1.72
   1  -5 -10    1.20    1.30
  -1   5  10   -0.32    1.04
  -1   5  10    0.39    1.78
  -1   5  10   -0.44    1.11
   0  -5 -10  497.25   28.04
   0  -5 -10  481.65   31.36
   0  -5 -10  465.83   27.87
   0  -5 -10  452.14   28.74
   0   5  10  559.46   32.33
   0   5  10  516.85   27.38
   0   5  10  493.11   27.74
   0   5  10  530.39   28.00
   0   5  10  460.55   29.17
  -1  -5 -10  109.19   11.16
  -1  -5 -10  141.04   15.09
  -1  -5 -10  143.44   11.29
  -1  -5 -10  158.99   12.48
  -1  -5 -10  142.26   16.50
   1   5  10  143.69   12.08
   1   5  10  142.23    9.53
   1   5  10  156.83   10.11
  -2  -5 -10   79.06    7.80
  -2  -5 -10   76.72    7.82
  -2  -5 -10   87.45    6.82
  -2  -5 -10   85.61    7.12
  -2  -5 -10   97.62    7.31
  -2  -5 -10   86.62    6.32
   2   5  10   92.79    8.11
   2   5  10   88.64    6.60
   2   5  10   85.65    6.82
  -3  -5 -10    0.96    0.91
  -3  -5 -10   -0.55    0.68
  -3  -5 -10    0.44    0.90
  -3  -5 -10    0.95    1.16
  -3  -5 -10    0.66    0.81
   3   5  10   -1.96    1.19
   2  -6 -10    1.58    1.10
   2  -6 -10    1.04    1.12
  -2   6  10    1.66    0.85
   1  -6 -10   13.92    2.62
   1  -6 -10   10.72    2.06
   1  -6 -10   13.60    2.66
  -1   6  10   16.99    2.95
  -1   6  10   16.77    3.55
   0  -6 -10  187.82   12.13
   0  -6 -10  162.95   11.67
   0  -6 -10  201.08   12.56
   0   6  10  196.18   12.46
   0   6  10  195.30   11.82
   0   6  10  192.98   13.69
   0   6  10  188.47   12.12
   0   6  10  189.44   13.26
  -1  -6 -10  496.68   25.41
  -1  -6 -10  388.67   27.81
  -1  -6 -10  450.55   26.02
  -1  -6 -10  455.87   24.80
  -1  -6 -10  470.76   25.88
  -1  -6 -10  465.14   26.04
   1   6  10  446.84   25.82
   1   6  10  459.24   27.09
   1   6  10  498.18   25.69
   1   6  10  494.22   26.15
  -2  -6 -10   17.06    2.59
  -2  -6 -10   17.48    2.96
  -2  -6 -10   13.89    3.32
  -2  -6 -10   14.77    3.06
  -2  -6 -10   14.58    2.78
  -2  -6 -10   14.88    2.94
   2   6  10   20.80    2.59
   2   6  10   23.23    4.31
   2   6  10   17.20    3.42
  -3  -6 -10   26.37    2.61
  -3  -6 -10   25.71    2.43
  -3  -6 -10   24.44    2.60
  -3  -6 -10   25.00    2.74
   1  -7 -10   -0.65    0.93
  -1   7  10    0.16    1.01
  -1   7  10   -0.89    1.05
   0  -7 -10  177.40   11.31
   0  -7 -10  175.76   11.44
   0   7  10  193.80   11.36
   0   7  10  174.77   12.79
   0   7  10  188.43   12.82
   0   7  10  183.78   11.00
  -1  -7 -10   75.67    5.79
  -1  -7 -10   80.20    6.19
  -1  -7 -10   60.60    6.92
  -1  -7 -10   72.47    4.97
  -1  -7 -10   72.15    5.81
   1   7  10   81.87    6.12
   1   7  10   73.76    6.12
   1   7  10   78.51    5.76
   1   7  10   77.19    7.37
  -2  -7 -10  212.54   12.68
  -2  -7 -10  190.07   13.74
  -2  -7 -10  217.80   12.78
  -2  -7 -10  200.63   12.40
  -2  -7 -10  216.17   11.95
   2   7  10  216.45   12.49
   2   7  10  222.90   12.59
   2   7  10  217.67   12.29
   0  -8 -10   -1.17    1.10
   0  -8 -10    1.56    0.93
   0  -8 -10    1.20    0.96
   0   8  10    0.82    1.12
   0   8  10   -0.61    0.89
  -1  -8 -10    0.83    0.73
  -1  -8 -10    1.25    1.16
  -1  -8 -10    0.37    1.08
   1   8  10    1.77    1.60
   1   8  10    1.14    0.94
   1   8  10    2.92    1.14
  -2  -8 -10   72.88    4.99
  -2  -8 -10   73.13    5.08
  -2  -8 -10   70.74    4.72
  -2  -8 -10   76.27    5.29
   2   8  10   81.86    5.22
   2   8  10   76.85    5.13
   2   7 -11  197.18   11.29
   2   7 -11  182.44    9.63
  -2  -7  11  155.84   10.31
  -2  -7  11  178.87    9.62
  -2  -7  11  154.65   10.42
   1   7 -11  549.53   29.36
   1   7 -11  518.44   28.95
  -1  -7  11  549.41   28.88
  -1  -7  11  531.82   28.88
   0   7 -11    3.74    1.26
   0   7 -11    7.71    1.89
   0  -7  11    5.24    1.44
   0  -7  11    6.76    1.81
  -1   7 -11   42.14    3.42
  -1   7 -11   40.49    5.16
   1  -7  11   43.95    3.75
   2   6 -11   55.95    3.98
   2   6 -11   58.70    5.54
   2   6 -11   56.37    4.09
  -2  -6  11   63.35    4.67
  -2  -6  11   62.94    4.61
  -2  -6  11   64.22    5.02
   1   6 -11   40.19    2.99
   1   6 -11   42.31    4.74
   1   6 -11   39.26    4.41
  -1  -6  11   41.34    4.20
   0   6 -11   75.29    6.15
   0   6 -11   66.56    5.95
   0  -6  11   73.65    6.63
   0  -6  11   78.38    6.08
   0  -6  11   62.12    5.31
  -1   6 -11   10.70    1.97
   1  -6  11   13.12    2.52
   1  -6  11   20.45    3.50
   3   5 -11   99.26    7.16
   3   5 -11  120.77    7.63
  -3  -5  11  133.11    7.51
  -3  -5  11  126.28    7.82
   2   5 -11   14.27    2.01
   2   5 -11   14.96    2.03
   2   5 -11    9.46    2.31
   2   5 -11   10.58    2.31
  -2  -5  11   15.70    2.86
  -2  -5  11   16.89    2.39
   1   5 -11   23.09    3.85
   1   5 -11   16.42    3.31
   1   5 -11   23.97    2.56
  -1  -5  11   26.54    4.01
  -1  -5  11   25.54    3.38
   0   5 -11  212.27   13.56
   0   5 -11  222.76   13.80
   0   5 -11  170.20   17.09
   0  -5  11  220.14   14.64
   0  -5  11  220.98   13.63
  -1   5 -11   -0.79    3.17
  -1   5 -11    0.59    0.99
   1  -5  11    2.58    1.61
   1  -5  11   -0.38    1.21
   1  -5  11    3.50    1.51
   1  -5  11    1.70    1.19
  -2   5 -11    8.05    1.30
  -2   5 -11    6.64    2.49
   2  -5  11    4.96    1.04
   2  -5  11    7.08    1.82
   3   4 -11   69.71    4.70
   3   4 -11   73.15    5.80
   3   4 -11   70.96    4.50
  -3  -4  11   75.98    5.38
  -3  -4  11   67.48    6.07
   2   4 -11   86.50    7.42
   2   4 -11   90.40    5.98
   2   4 -11   82.30    5.50
  -2  -4  11   91.23    6.76
  -2  -4  11   88.82    8.10
  -2  -4  11   68.10    9.07
   1   4 -11  113.63    9.24
   1   4 -11  104.38    6.64
   1   4 -11  103.29    8.53
   1   4 -11  114.18    7.13
  -1  -4  11  121.96    8.70
  -1  -4  11  101.62    8.76
  -1  -4  11  103.87    8.99
   0   4 -11  242.99   15.92
   0   4 -11  244.07   16.17
   0  -4  11  262.36   18.53
   0  -4  11  243.95   15.69
   0  -4  11  252.61   14.52
  -1   4 -11  933.90   51.07
   1  -4  11  960.42   50.60
   1  -4  11 1046.26   51.80
   1  -4  11  910.83   50.24
   1  -4  11  969.03   52.65
  -2   4 -11   30.67    6.16
  -2   4 -11   25.62    3.38
  -2   4 -11   38.97    5.59
  -2   4 -11   38.61    3.20
  -2   4 -11   25.64    8.90
   2  -4  11   41.91    3.67
   2  -4  11   37.86    4.44
   2  -4  11   40.14    3.45
   3   3 -11    8.22    2.08
   3   3 -11    7.13    1.30
   3   3 -11    7.60    1.38
  -3  -3  11    6.06    3.03
  -3  -3  11    5.13    1.87
  -3  -3  11    7.66    2.86
  -3  -3  11   10.13    1.65
  -3  -3  11   11.57    2.11
   2   3 -11  202.13   11.84
   2   3 -11  196.46   13.67
   2   3 -11  205.46   11.82
   2   3 -11  209.36   11.56
  -2  -3  11  184.55   14.65
  -2  -3  11  211.07   12.92
  -2  -3  11  190.44   16.39
   1   3 -11  866.92   44.48
   1   3 -11  870.84   44.91
   1   3 -11  856.97   47.06
   1   3 -11  896.35   47.58
  -1  -3  11  886.76   47.77
  -1  -3  11  836.16   46.56
  -1  -3  11  857.12   52.85
   0   3 -11  164.59   11.89
   0   3 -11  169.12   11.84
   0  -3  11  176.39   11.02
   0  -3  11  172.84   12.92
   0  -3  11  162.64   10.55
   0  -3  11  164.27   11.52
  -1   3 -11   16.35    3.31
  -1   3 -11   13.16    2.91
  -1   3 -11   10.95    5.37
   1  -3  11    8.39    1.86
   1  -3  11   17.93    4.36
   1  -3  11   13.59    2.78
   1  -3  11   14.08    2.66
   1  -3  11    9.18    2.72
   1  -3  11   13.64    3.54
  -2   3 -11   14.61    2.35
  -2   3 -11   17.85    5.69
  -2   3 -11   17.75    2.82
  -2   3 -11   21.24    2.55
  -2   3 -11   20.20    2.25
  -2   3 -11   20.21    5.60
   2  -3  11   25.75    4.34
   2  -3  11   13.47    2.27
   2  -3  11   20.64    2.96
   2  -3  11   15.55    2.52
   3   2 -11  382.34   19.48
   3   2 -11  394.02   21.09
   3   2 -11  346.97   19.55
   3   2 -11  356.68   19.13
  -3  -2  11  364.70   19.45
  -3  -2  11  313.72   21.20
  -3  -2  11  368.63   24.24
  -3  -2  11  368.84   22.53
   2   2 -11  228.78   15.56
   2   2 -11  223.65   13.27
   2   2 -11  231.63   13.02
   2   2 -11  246.28   13.54
   2   2 -11  224.28   15.03
  -2  -2  11  236.46   17.94
  -2  -2  11  223.18   19.13
  -2  -2  11  238.13   14.62
   1   2 -11   17.66    3.34
   1   2 -11   12.12    2.00
   1   2 -11   16.56    2.09
   1   2 -11   11.09    3.15
  -1  -2  11   11.46    3.19
  -1  -2  11   14.90    3.09
  -1  -2  11   24.79    7.09
   0   2 -11  998.04   52.39
   0   2 -11 1059.39   52.60
   0   2 -11  871.49   52.23
   0   2 -11  990.45   52.96
   0  -2  11  997.12   51.40
   0  -2  11  934.90   51.99
   0  -2  11  956.68   52.01
   0  -2  11  958.03   53.34
   0  -2  11  988.60   51.09
   0  -2  11 1000.33   51.59
  -1   2 -11   70.12    6.11
  -1   2 -11   53.00    5.78
  -1   2 -11   68.22    6.09
  -1   2 -11   74.96    7.18
  -1   2 -11   66.27    4.99
  -1   2 -11   67.28    5.96
   1  -2  11   65.65    7.38
   1  -2  11   72.29    5.87
   1  -2  11   57.79    6.98
   1  -2  11   60.06    5.70
   1  -2  11   66.64    6.01
  -2   2 -11  112.63    8.78
  -2   2 -11  130.03   12.63
  -2   2 -11  105.96   15.12
  -2   2 -11  129.60    7.99
  -2   2 -11  117.74    8.78
  -2   2 -11  139.46    8.54
   2  -2  11  151.17   10.01
   2  -2  11  127.57    9.99
   2  -2  11  127.14    8.91
   2  -2  11  130.36    8.78
  -3   2 -11    4.06    2.36
  -3   2 -11    4.47    0.97
  -3   2 -11    5.26    2.17
  -3   2 -11    6.45    1.51
   3  -2  11    5.36    1.10
   3  -2  11    6.21    1.57
   3   1 -11  237.66   14.22
   3   1 -11  221.52   12.35
   3   1 -11  240.02   12.67
   3   1 -11  217.61   12.86
  -3  -1  11  210.19   17.65
  -3  -1  11  232.80   12.87
  -3  -1  11  223.46   15.63
   2   1 -11  710.13   36.44
   2   1 -11  716.69   36.51
   2   1 -11  723.41   36.14
   2   1 -11  711.11   39.00
   2   1 -11  680.17   38.18
  -2  -1  11  602.46   43.80
  -2  -1  11  717.65   38.09
   1   1 -11  405.20   22.65
   1   1 -11  421.16   25.55
   1   1 -11  420.40   25.20
   1   1 -11  441.75   23.16
  -1  -1  11  430.22   25.02
  -1  -1  11  480.93   31.46
  -1  -1  11  428.75   26.13
   0   1 -11  142.87   10.33
   0   1 -11  141.58   10.53
   0   1 -11  143.98   10.13
   0   1 -11  156.02   10.74
   0  -1  11  142.59   10.12
   0  -1  11  137.16   10.07
   0  -1  11  148.88   11.68
   0  -1  11  147.18   10.11
  -1   1 -11   35.81    4.06
  -1   1 -11   27.76    4.22
  -1   1 -11   34.83    4.01
  -1   1 -11   36.72    3.64
  -1   1 -11   34.42    4.02
  -1   1 -11   29.38    4.64
   1  -1  11   40.07    4.28
   1  -1  11   30.50    3.72
   1  -1  11   33.36    3.93
   1  -1  11   27.17    4.95
   1  -1  11   30.65    4.03
  -2   1 -11   28.24    3.64
  -2   1 -11   28.30    5.93
  -2   1 -11   31.98    3.77
  -2   1 -11   25.03    9.26
  -2   1 -11   23.76    3.75
  -2   1 -11   31.45    3.19
  -2   1 -11   25.83    3.09
   2  -1  11   23.71    3.36
   2  -1  11   29.91    3.93
   2  -1  11   23.08    4.09
   2  -1  11   25.82    3.37
  -3   1 -11  108.64    7.41
  -3   1 -11  100.28   12.11
  -3   1 -11  118.01    7.49
  -3   1 -11  111.31    9.08
  -3   1 -11  115.61    6.80
   3  -1  11  118.55    7.39
   3  -1  11  109.12    7.29
   3  -1  11  113.17    7.18
   3   0 -11  225.24   11.99
   3   0 -11  216.80   11.72
   3   0 -11  207.83   13.18
  -3   0  11  207.08   14.72
  -3   0  11  217.45   12.12
  -3   0  11  183.87   16.89
   2   0 -11  214.97   14.47
   2   0 -11  204.33   13.81
   2   0 -11  207.32   12.04
   2   0 -11  211.04   12.13
   2   0 -11  211.34   11.73
  -2   0  11  222.11   13.73
  -2   0  11  175.50   18.78
   1   0 -11  394.19   23.65
   1   0 -11  403.88   21.41
   1   0 -11  399.54   24.09
  -1   0  11  381.34   23.30
  -1   0  11  392.27   24.57
  -1   0  11  423.40   29.72
   0   0 -11 1101.02   57.09
   0   0 -11 1030.09   56.28
   0   0 -11 1079.70   57.02
   0   0  11 1209.21   58.94
   0   0  11 1045.74   56.48
   0   0  11 1063.23   56.36
   0   0  11 1046.79   56.61
   0   0  11 1058.21   58.29
   0   0  11 1037.19   56.85
  -1   0 -11  548.33   29.41
  -1   0 -11  515.72   28.57
  -1   0 -11  437.66   29.54
  -1   0 -11  575.24   29.65
  -1   0 -11  545.09   29.31
  -1   0 -11  507.70   30.50
   1   0  11  551.35   29.37
   1   0  11  510.79   29.44
   1   0  11  539.92   29.07
   1   0  11  546.31   31.17
   1   0  11  540.30   29.22
  -2   0 -11    5.79    2.03
  -2   0 -11    4.65    5.40
  -2   0 -11    5.54    1.83
  -2   0 -11    3.02    1.46
  -2   0 -11    3.68    1.79
  -2   0 -11    6.44    3.19
  -2   0 -11    5.11    1.40
   2   0  11    5.71    2.42
   2   0  11    5.80    1.63
   2   0  11    5.29    1.72
   2   0  11    7.18    2.00
  -3   0 -11   33.46    4.61
  -3   0 -11   38.21    3.11
  -3   0 -11   34.89    3.80
  -3   0 -11   33.01    7.35
  -3   0 -11   33.75    3.46
  -3   0 -11   31.64    3.16
   3   0  11   35.26    4.10
   3   0  11   32.33    3.34
   3   0  11   38.55    3.62
   3  -1 -11   93.57    7.21
   3  -1 -11   99.32    5.75
   3  -1 -11  103.93    5.92
  -3   1  11  101.54    6.38
  -3   1  11   90.93    8.17
  -3   1  11   92.22   10.78
   2  -1 -11   -1.20    1.34
   2  -1 -11   -0.67    1.44
   2  -1 -11   -0.64    1.43
   2  -1 -11    0.46    0.81
  -2   1  11    0.46    1.07
  -2   1  11    0.50    1.85
  -2   1  11   -0.20    2.12
   1  -1 -11 1057.12   54.02
   1  -1 -11 1016.06   56.48
   1  -1 -11 1047.13   56.99
  -1   1  11 1148.63   64.23
  -1   1  11 1070.81   57.85
  -1   1  11 1023.27   54.71
  -1   1  11 1052.39   56.34
   0  -1 -11  108.14    8.78
   0  -1 -11  102.24    7.64
   0  -1 -11  104.64    8.35
   0  -1 -11  108.48    8.39
   0   1  11  102.38    9.39
   0   1  11  111.72    8.10
   0   1  11  103.73    8.33
   0   1  11  100.86    8.01
   0   1  11  109.12    8.27
  -1  -1 -11  202.01   12.60
  -1  -1 -11  195.16   13.41
  -1  -1 -11  195.87   14.18
  -1  -1 -11  200.87   12.74
  -1  -1 -11  190.69   12.36
  -1  -1 -11  202.17   12.81
  -1  -1 -11  193.46   13.39
   1   1  11  209.77   12.91
   1   1  11  201.51   14.28
   1   1  11  207.73   12.64
   1   1  11  197.25   12.75
   1   1  11  206.89   13.10
  -2  -1 -11  128.10    9.58
  -2  -1 -11  131.38   10.77
  -2  -1 -11  134.19    9.22
  -2  -1 -11  132.97    9.67
  -2  -1 -11  140.55    9.30
  -2  -1 -11  133.71   18.92
   2   1  11  140.91    9.69
   2   1  11  145.33    9.48
   2   1  11  142.40    9.30
   2   1  11  144.72   10.63
  -3  -1 -11    6.92    1.57
  -3  -1 -11    6.12    3.73
  -3  -1 -11    0.32    2.22
  -3  -1 -11    5.41    1.79
  -3  -1 -11    4.43    1.14
  -3  -1 -11    5.58    1.47
   3   1  11    7.76    1.72
   3   1  11    4.48    1.76
   3   1  11    6.69    1.56
   3  -2 -11    0.34    1.19
   3  -2 -11    2.17    1.03
  -3   2  11    1.54    0.75
  -3   2  11    1.07    1.72
  -3   2  11    1.44    2.29
   2  -2 -11   97.60    8.65
   2  -2 -11  106.30    6.54
   2  -2 -11   94.53    6.14
   2  -2 -11  110.02    8.36
  -2   2  11  105.41    8.09
   1  -2 -11  602.58   33.42
   1  -2 -11  619.57   33.97
   1  -2 -11  585.70   34.35
  -1   2  11  577.24   33.18
  -1   2  11  582.02   31.64
  -1   2  11  602.19   39.85
  -1   2  11  583.69   34.51
   0  -2 -11 1302.00   65.66
   0  -2 -11 1211.64   66.75
   0  -2 -11 1203.69   64.53
   0  -2 -11 1112.71   64.32
   0  -2 -11 1210.52   66.09
   0   2  11 1273.69   65.53
   0   2  11 1287.52   67.41
   0   2  11 1299.89   65.43
   0   2  11 1312.14   66.01
   0   2  11 1315.25   65.07
   0   2  11 1221.40   65.75
  -1  -2 -11   66.03    5.65
  -1  -2 -11   68.99    6.35
  -1  -2 -11   63.60    5.71
  -1  -2 -11   65.44    5.83
  -1  -2 -11   71.28    5.83
   1   2  11   66.56    5.67
   1   2  11   64.27    5.92
   1   2  11   68.15    5.90
   1   2  11   68.13    5.93
   1   2  11   72.24    7.21
  -2  -2 -11   33.82    5.09
  -2  -2 -11   37.44    3.92
  -2  -2 -11   33.62    4.04
  -2  -2 -11   35.44    4.10
  -2  -2 -11   37.45    4.10
   2   2  11   31.18    3.73
   2   2  11   34.48    3.72
   2   2  11   29.85    3.95
   2   2  11   27.35    5.15
  -3  -2 -11    5.33    1.44
  -3  -2 -11    5.81    1.43
  -3  -2 -11    5.41    3.48
  -3  -2 -11    4.22    1.32
  -3  -2 -11    4.96    2.03
   3   2  11    5.86    1.50
   2  -3 -11  435.92   23.73
   2  -3 -11  432.21   25.71
  -2   3  11  463.14   25.33
   1  -3 -11  150.61   13.92
  -1   3  11  188.03   19.05
  -1   3  11  198.11   12.20
   0  -3 -11   16.22    3.21
   0  -3 -11   10.57    2.39
   0  -3 -11    7.83    2.59
   0  -3 -11   16.80    2.40
   0  -3 -11    5.30    1.86
   0  -3 -11   12.56    3.65
   0   3  11   14.08    2.99
   0   3  11   11.76    2.47
   0   3  11   11.99    2.67
   0   3  11    7.56    2.08
   0   3  11    9.01    2.37
   0   3  11   11.02    3.19
  -1  -3 -11   89.40    9.69
  -1  -3 -11  106.55    8.35
  -1  -3 -11  101.10    7.82
  -1  -3 -11  100.64    7.84
  -1  -3 -11  104.67    7.75
  -1  -3 -11  108.38    7.52
   1   3  11  111.08    8.28
   1   3  11  110.89    8.02
   1   3  11  107.25    8.12
   1   3  11  105.38    7.69
   1   3  11  104.64    9.18
  -2  -3 -11   26.93    3.50
  -2  -3 -11   30.62    3.46
  -2  -3 -11   28.92    3.76
  -2  -3 -11   16.43    6.45
  -2  -3 -11   22.06    4.44
   2   3  11   29.36    3.39
   2   3  11   25.44    3.48
   2   3  11   24.25    4.63
   2   3  11   25.13    3.11
  -3  -3 -11    2.66    3.05
  -3  -3 -11    2.88    1.43
  -3  -3 -11    4.07    1.39
  -3  -3 -11    4.80    1.27
  -3  -3 -11    3.23    1.17
  -3  -3 -11    4.05    1.22
   3   3  11    9.17    2.06
   3   3  11    1.63    1.33
   3   3  11    1.22    1.20
   2  -4 -11   17.91    4.00
   1  -4 -11  429.04   26.14
   1  -4 -11  474.14   26.61
  -1   4  11  482.83   27.75
  -1   4  11  447.81   26.29
   0  -4 -11    1.51    1.37
   0  -4 -11    0.06    1.56
   0  -4 -11    2.32    2.84
   0   4  11    1.65    1.73
   0   4  11    1.90    1.50
   0   4  11    1.14    1.24
   0   4  11    1.17    1.50
   0   4  11    3.84    1.84
   0   4  11   -2.40    3.99
  -1  -4 -11   73.59    6.95
  -1  -4 -11   65.15    7.36
  -1  -4 -11   64.70    5.86
  -1  -4 -11   62.10    6.85
   1   4  11   63.20    5.55
   1   4  11   61.50    5.79
   1   4  11   68.48    8.46
   1   4  11   62.61    6.20
  -2  -4 -11   -1.21    2.15
  -2  -4 -11    1.40    1.41
  -2  -4 -11    0.21    0.99
  -2  -4 -11    1.01    1.46
  -2  -4 -11    0.60    1.82
  -2  -4 -11    0.65    0.97
   2   4  11    2.29    1.10
   2   4  11   -0.08    1.00
   2   4  11   -1.22    0.77
  -3  -4 -11  138.57    8.62
  -3  -4 -11  138.62    9.61
  -3  -4 -11  148.63    8.91
  -3  -4 -11  149.51    9.08
  -3  -4 -11  143.24    8.81
   3   4  11  155.51   10.52
   2  -5 -11    1.73    1.25
   2  -5 -11    2.48    1.38
  -2   5  11    2.05    1.08
   1  -5 -11    9.68    2.52
   1  -5 -11    9.26    2.36
   1  -5 -11   13.23    2.67
  -1   5  11   12.57    2.72
  -1   5  11    8.80    2.58
   0  -5 -11   35.21    4.15
   0  -5 -11   32.62    3.95
   0  -5 -11   31.70    4.00
   0   5  11   39.27    4.35
   0   5  11   36.36    4.55
   0   5  11   40.23    4.04
   0   5  11   41.39    5.59
   0   5  11   41.49    4.69
  -1  -5 -11    8.23    1.96
  -1  -5 -11    3.82    1.59
  -1  -5 -11    4.81    1.52
  -1  -5 -11    6.02    1.69
  -1  -5 -11    4.95    1.36
   1   5  11    6.51    2.62
   1   5  11    6.38    1.92
   1   5  11    3.85    1.37
   1   5  11    5.68    1.84
  -2  -5 -11  160.61    9.60
  -2  -5 -11  155.01   10.19
  -2  -5 -11  129.21   10.88
  -2  -5 -11  159.63   10.25
  -2  -5 -11  161.04   10.31
  -2  -5 -11  151.41   11.11
   2   5  11  162.13    9.74
   2   5  11  161.18   10.58
  -3  -5 -11   27.98    2.40
  -3  -5 -11   14.71    3.02
  -3  -5 -11   25.02    2.54
  -3  -5 -11   22.01    2.49
  -3  -5 -11   25.50    2.51
   1  -6 -11    0.77    1.49
   1  -6 -11    0.02    1.76
   1  -6 -11    1.67    1.19
  -1   6  11    2.45    1.12
  -1   6  11    3.30    1.65
   0  -6 -11  224.09   14.18
   0  -6 -11  231.93   13.90
   0   6  11  240.17   14.11
   0   6  11  239.96   15.68
   0   6  11  240.08   13.73
   0   6  11  229.43   14.34
  -1  -6 -11   50.47    5.45
  -1  -6 -11   65.23    5.32
  -1  -6 -11   55.45    4.37
  -1  -6 -11   52.10    4.97
  -1  -6 -11   60.76    4.78
   1   6  11   56.15    4.80
   1   6  11   51.58    5.72
   1   6  11   57.76    5.43
   1   6  11   58.10    5.17
  -2  -6 -11  136.49    9.09
  -2  -6 -11  134.20    9.50
  -2  -6 -11  156.16   10.26
  -2  -6 -11  138.03    8.56
  -2  -6 -11  144.61    9.55
   2   6  11  143.13    9.10
   2   6  11  147.33    9.10
   2   6  11  145.24    8.90
   1  -7 -11    0.84    0.91
  -1   7  11    1.09    0.83
  -1   7  11    2.74    1.54
   0  -7 -11  167.30   10.80
   0  -7 -11  186.06   11.08
   0   7  11  181.54   11.21
   0   7  11  193.96   12.40
   0   7  11  192.62   10.78
  -1  -7 -11    0.96    1.27
  -1  -7 -11    1.42    0.87
  -1  -7 -11    0.11    0.84
  -1  -7 -11    1.53    1.04
  -1  -7 -11    0.98    0.78
   1   7  11    0.83    0.92
   1   7  11    1.99    1.30
   1   7  11    1.28    1.00
   1   7  11    0.47    1.42
  -2  -7 -11    1.08    0.83
  -2  -7 -11    0.00    0.78
  -2  -7 -11    1.28    0.84
  -2  -7 -11   -1.56    1.32
  -2  -7 -11   -1.06    1.00
   2   7  11    0.03    0.66
   2   7  11    0.04    0.86
   0  -8 -11    8.61    1.30
   0   8  11    7.00    2.32
  -1  -8 -11    4.87    1.36
   1   8  11    3.95    1.44
   1   8  11    3.42    0.95
   1   8  11    2.20    1.06
   1   7 -12  733.46   36.81
  -1  -7  12  598.79   34.32
   0  -7  12  172.66   10.00
   2   6 -12  480.51   26.85
  -2  -6  12  491.36   26.14
  -2  -6  12  525.74   26.57
   1   6 -12   72.50    5.74
   1   6 -12   60.95    5.35
  -1  -6  12   67.14    4.99
  -1  -6  12   60.35    5.05
   0   6 -12    6.39    1.79
   0   6 -12    7.35    1.92
   0  -6  12    4.86    1.76
  -1   6 -12   -0.43    1.28
  -1   6 -12   -0.19    0.58
   1  -6  12    0.47    1.14
   2   5 -12  534.58   28.88
   2   5 -12  521.65   27.05
  -2  -5  12  516.51   28.00
  -2  -5  12  491.98   27.78
  -2  -5  12  559.62   28.54
   1   5 -12    3.84    1.76
   1   5 -12   -0.35    1.25
  -1  -5  12    4.35    1.59
  -1  -5  12   -1.12    1.49
   0   5 -12  179.95   11.51
   0   5 -12  180.37   11.83
   0  -5  12  184.61   11.77
   0  -5  12  178.35   12.45
  -1   5 -12  137.87    9.32
   1  -5  12  148.44   11.00
   1  -5  12  149.74   10.37
   1  -5  12  145.04    8.20
   2   4 -12   16.46    2.61
   2   4 -12   18.07    3.30
  -2  -4  12   20.14    3.23
  -2  -4  12   17.62    2.50
   1   4 -12  155.41   10.89
   1   4 -12  146.57   10.29
   1   4 -12  144.89    8.33
  -1  -4  12  146.21   10.05
  -1  -4  12  135.46   10.32
   0   4 -12   -0.85    1.18
   0   4 -12    1.20    1.08
   0  -4  12    1.07    1.85
   0  -4  12   -0.45    1.01
   0  -4  12    2.09    1.36
  -1   4 -12   52.32    4.95
   1  -4  12   50.73    5.16
   1  -4  12   50.84    4.49
   1  -4  12   59.96    6.08
   1  -4  12   60.21    4.70
  -2   4 -12  126.45   10.06
  -2   4 -12  119.02    7.09
   2  -4  12  144.06    8.99
   2  -4  12  131.34    7.71
   2  -4  12  138.82    7.87
   3   3 -12   67.42    5.40
   3   3 -12   75.84    4.84
  -3  -3  12   78.29    6.88
   2   3 -12   -0.35    0.77
   2   3 -12    1.82    1.69
   2   3 -12    2.81    1.86
   2   3 -12   -0.13    0.78
  -2  -3  12    3.21    1.79
  -2  -3  12    1.22    1.04
   1   3 -12  626.98   34.07
   1   3 -12  613.86   33.74
   1   3 -12  630.68   31.36
  -1  -3  12  530.81   33.70
  -1  -3  12  601.28   33.36
  -1  -3  12  618.83   34.19
   0   3 -12  213.60   14.15
   0   3 -12  217.17   14.32
   0  -3  12  220.02   13.19
   0  -3  12  222.42   15.34
   0  -3  12  225.45   14.17
  -1   3 -12   96.07    7.51
  -1   3 -12  105.30    7.74
  -1   3 -12   84.17   12.80
   1  -3  12  106.45    7.58
   1  -3  12  108.17    7.60
   1  -3  12  115.44    9.12
  -2   3 -12   10.54    1.47
  -2   3 -12    5.19    3.33
  -2   3 -12    6.72    2.58
  -2   3 -12    5.37    1.99
   2  -3  12   10.62    2.63
   2  -3  12    8.80    1.82
   2  -3  12    9.31    1.71
   2  -3  12    6.41    2.71
   3   2 -12    5.30    1.58
   3   2 -12    5.66    1.04
  -3  -2  12    3.76    1.50
  -3  -2  12    5.37    0.88
   2   2 -12  620.11   31.85
   2   2 -12  616.44   34.40
   2   2 -12  634.43   32.20
   2   2 -12  558.88   32.22
   2   2 -12  641.28   34.10
  -2  -2  12  626.22   33.57
   1   2 -12   12.12    2.99
   1   2 -12    9.16    1.49
   1   2 -12   10.79    2.75
  -1  -2  12   14.95    3.06
  -1  -2  12    9.73    2.90
   0   2 -12   67.99    6.34
   0   2 -12   75.92    7.92
   0  -2  12   69.63    7.27
   0  -2  12   67.78    5.89
   0  -2  12   68.55    6.40
   0  -2  12   64.28    5.53
  -1   2 -12  162.12   10.53
  -1   2 -12  135.30   10.21
  -1   2 -12  157.52   10.67
   1  -2  12  160.51   10.27
   1  -2  12  155.43   10.60
   1  -2  12  156.81   11.85
   1  -2  12  165.93   10.51
  -2   2 -12    7.87    3.04
  -2   2 -12    3.07    1.15
  -2   2 -12    6.41    3.82
  -2   2 -12    5.95    1.18
  -2   2 -12    8.84    1.53
  -2   2 -12    3.42    1.52
   2  -2  12    7.59    1.67
   2  -2  12    5.62    1.58
   2  -2  12    6.95    1.87
   2  -2  12    6.91    2.37
   3   1 -12    7.87    1.15
   3   1 -12    9.56    2.09
  -3  -1  12   11.17    1.70
  -3  -1  12   10.04    2.65
   2   1 -12  243.40   13.26
   2   1 -12  204.29   16.09
   2   1 -12  247.40   15.49
   2   1 -12  231.20   12.84
  -2  -1  12  243.16   14.68
   1   1 -12  379.83   26.98
   1   1 -12  411.94   26.41
  -1  -1  12  355.52   30.88
  -1  -1  12  360.99   23.57
   0   1 -12 1204.56   68.02
   0   1 -12 1326.11   68.33
   0   1 -12 1267.84   67.94
   0  -1  12 1361.24   67.24
   0  -1  12 1222.00   68.28
   0  -1  12 1368.77   69.94
   0  -1  12 1288.10   68.41
   0  -1  12 1349.26   67.72
   0  -1  12 1296.67   68.11
  -1   1 -12    2.74    1.73
  -1   1 -12    5.93    1.99
  -1   1 -12    5.33    1.72
  -1   1 -12    6.63    2.28
  -1   1 -12    4.75    2.37
   1  -1  12    7.76    2.32
   1  -1  12   12.60    2.83
   1  -1  12    9.94    2.80
   1  -1  12    6.43    1.79
   1  -1  12    5.60    1.75
  -2   1 -12    9.04    4.80
  -2   1 -12   11.39    2.20
  -2   1 -12   15.03    2.03
  -2   1 -12   10.18    2.02
  -2   1 -12   14.49    4.30
  -2   1 -12   16.95    3.09
   2  -1  12   17.31    3.58
   2  -1  12    9.95    2.11
   2  -1  12   13.89    2.40
   2  -1  12   11.44    2.11
  -3   1 -12   -0.36    0.57
  -3   1 -12    0.25    0.56
  -3   1 -12   -0.20    1.58
  -3   1 -12   -1.29    1.01
  -3   1 -12    2.46    1.88
   3  -1  12   -0.60    0.64
   3  -1  12   -0.62    0.66
   3   0 -12   94.64    6.88
  -3   0  12   92.83    7.85
  -3   0  12  113.00    6.45
   2   0 -12   19.10    3.66
   2   0 -12   18.40    2.30
   2   0 -12   24.65    2.48
   2   0 -12   30.42    5.14
  -2   0  12   22.21    3.20
   1   0 -12  324.58   20.32
   1   0 -12  309.23   20.27
   1   0 -12  368.21   23.75
  -1   0  12  318.06   19.63
  -1   0  12  279.06   23.00
   0   0 -12  103.20    7.91
   0   0 -12  100.10    8.17
   0   0 -12   98.26    8.12
   0   0  12  106.53    8.09
   0   0  12  111.34    9.66
   0   0  12  102.50    7.92
   0   0  12  109.53    8.28
   0   0  12   99.92    7.62
   0   0  12  105.35    8.44
  -1   0 -12  940.61   48.84
  -1   0 -12  955.11   50.21
  -1   0 -12  923.56   48.80
  -1   0 -12  800.33   50.98
   1   0  12  940.99   48.47
   1   0  12  942.54   53.58
   1   0  12  915.69   48.64
  -2   0 -12   33.35    3.72
  -2   0 -12   33.49    5.56
  -2   0 -12   33.04    3.71
  -2   0 -12   36.18    3.44
  -2   0 -12   31.67    4.18
  -2   0 -12   31.28    8.66
   2   0  12   29.18    3.52
   2   0  12   31.28    3.87
   2   0  12   34.57    3.86
   2   0  12   40.70    4.81
  -3   0 -12   64.94    8.75
  -3   0 -12   79.78    5.06
  -3   0 -12   68.20    4.84
  -3   0 -12   59.42    4.81
   3   0  12   67.56    4.65
   3   0  12   71.07    4.86
  -3   1  12  117.92   10.85
  -3   1  12  118.94    8.76
  -3   1  12  110.11    6.58
   2  -1 -12   48.87    3.53
   2  -1 -12   43.16    5.20
   2  -1 -12   50.83    5.99
  -2   1  12   45.51    4.65
   1  -1 -12    3.66    1.89
   1  -1 -12   -1.89    1.99
  -1   1  12    5.12    3.84
  -1   1  12    2.44    1.31
  -1   1  12   -0.93    1.56
   0  -1 -12  557.49   30.55
   0  -1 -12  533.43   29.94
   0  -1 -12  484.69   29.36
   0   1  12  533.91   31.80
   0   1  12  552.12   29.62
   0   1  12  558.93   30.06
   0   1  12  551.51   30.10
   0   1  12  534.21   30.34
   0   1  12  557.78   30.82
  -1  -1 -12    4.09    2.30
  -1  -1 -12    5.13    2.26
  -1  -1 -12    4.85    1.82
  -1  -1 -12    3.34    1.45
   1   1  12    1.85    1.24
   1   1  12    3.92    1.45
   1   1  12    5.54    3.85
   1   1  12    2.77    1.49
  -2  -1 -12  111.90    7.93
  -2  -1 -12  103.50   15.42
  -2  -1 -12  110.19    7.61
  -2  -1 -12  108.89    9.08
  -2  -1 -12  112.82    8.10
   2   1  12  117.57    8.25
   2   1  12  116.89    9.01
   2   1  12  117.53    8.10
   2   1  12  120.52    8.00
  -3  -1 -12   26.80    5.98
  -3  -1 -12   25.19    2.95
  -3  -1 -12   26.96    2.75
  -3  -1 -12   27.90    2.44
  -3  -1 -12   25.74    2.61
   3   1  12   29.28    2.75
   3   1  12   26.68    2.85
   2  -2 -12    4.06    0.84
   2  -2 -12    5.85    2.01
   2  -2 -12    4.96    2.04
  -2   2  12    5.97    1.89
  -2   2  12    5.10    3.35
   1  -2 -12   28.57    3.78
   1  -2 -12   28.62    4.20
  -1   2  12   25.95    3.65
  -1   2  12   17.04    3.76
   0  -2 -12  193.47   12.75
   0  -2 -12  212.98   13.36
   0  -2 -12  219.06   14.03
   0  -2 -12  202.75   15.13
   0   2  12  214.95   13.24
   0   2  12  208.09   13.73
   0   2  12  216.56   13.65
   0   2  12  202.18   14.30
   0   2  12  220.83   15.34
   0   2  12  244.17   15.18
  -1  -2 -12  101.43   11.10
  -1  -2 -12  100.55    7.29
  -1  -2 -12   91.03    7.11
  -1  -2 -12   96.97    9.04
  -1  -2 -12   99.14    7.71
   1   2  12   95.17    7.81
   1   2  12  101.98    7.69
   1   2  12  101.64    7.41
   1   2  12   98.74   10.58
  -2  -2 -12    1.78    1.21
  -2  -2 -12    4.48    2.23
  -2  -2 -12    1.56    3.49
  -2  -2 -12    2.72    1.28
  -2  -2 -12    1.84    1.04
  -2  -2 -12    1.56    0.84
   2   2  12    1.34    1.22
   2   2  12    2.39    1.38
   2   2  12    1.63    1.18
  -3  -2 -12    4.66    1.26
  -3  -2 -12    6.23    1.42
  -3  -2 -12    3.43    2.58
  -3  -2 -12    5.45    1.60
  -3  -2 -12    3.18    0.89
   3   2  12    5.36    1.70
   3   2  12    2.58    1.19
   2  -3 -12   44.69    4.52
   2  -3 -12   50.68    6.22
  -2   3  12   50.33    4.53
   1  -3 -12    0.13    1.46
  -1   3  12   -0.15    1.64
  -1   3  12    1.28    1.35
   0  -3 -12  168.46   10.71
   0  -3 -12  154.85   10.42
   0  -3 -12  154.62   13.34
   0  -3 -12  178.38   11.86
   0   3  12  197.17   13.77
   0   3  12  168.52   11.67
   0   3  12  183.56   11.76
   0   3  12  174.12   11.58
   0   3  12  186.69   11.31
  -1  -3 -12   12.26    2.32
  -1  -3 -12   12.03    2.37
  -1  -3 -12    9.43    1.97
  -1  -3 -12    7.35    2.26
  -1  -3 -12   18.48    3.08
  -1  -3 -12   18.18    4.22
   1   3  12   10.55    2.12
   1   3  12    8.53    2.04
   1   3  12   11.85    3.04
   1   3  12   10.05    2.18
  -2  -3 -12   50.42    5.53
  -2  -3 -12   41.54    4.36
  -2  -3 -12   43.30    3.95
  -2  -3 -12   42.34    4.12
  -2  -3 -12   35.34    8.01
  -2  -3 -12   41.17    4.22
   2   3  12   47.05    4.35
   2   3  12   45.08    5.33
   2   3  12   39.45    4.20
   2   3  12   45.43    4.08
  -3  -3 -12    9.83    3.58
  -3  -3 -12   12.96    1.89
  -3  -3 -12    7.79    1.74
  -3  -3 -12    9.01    1.45
  -3  -3 -12   13.35    1.71
   3   3  12   13.83    2.28
   2  -4 -12   57.81    4.84
   2  -4 -12   72.05    5.16
  -2   4  12   52.13    7.52
   1  -4 -12  295.88   17.69
  -1   4  12  306.82   19.03
  -1   4  12  299.07   17.96
   0  -4 -12  203.95   13.36
   0   4  12  226.67   15.71
   0   4  12  238.92   14.24
   0   4  12  223.96   14.42
   0   4  12  240.65   14.38
   0   4  12  232.61   13.73
  -1  -4 -12   36.64    3.62
  -1  -4 -12   34.93    3.73
  -1  -4 -12   34.68    3.50
  -1  -4 -12   33.15    4.15
  -1  -4 -12   41.28    4.16
  -1  -4 -12   35.24    4.82
   1   4  12   34.69    4.11
   1   4  12   36.64    4.15
   1   4  12   34.54    4.93
   1   4  12   37.80    4.02
  -2  -4 -12   12.64    2.82
  -2  -4 -12    8.21    1.95
  -2  -4 -12   11.95    2.04
  -2  -4 -12    8.64    1.84
  -2  -4 -12    8.19    1.93
  -2  -4 -12    5.97    3.30
   2   4  12   12.37    3.38
   2   4  12    8.64    1.90
   2   4  12    7.34    1.80
  -3  -4 -12   -0.22    0.64
  -3  -4 -12    0.26    0.74
  -3  -4 -12   -0.45    0.87
   1  -5 -12   48.53    4.31
   1  -5 -12   53.96    5.25
  -1   5  12   50.86    4.60
   0  -5 -12    1.72    1.57
   0   5  12    3.94    1.41
   0   5  12    0.68    1.19
   0   5  12    6.31    2.18
   0   5  12    6.39    2.26
  -1  -5 -12   79.04    6.10
  -1  -5 -12   73.93    5.47
  -1  -5 -12   77.25    7.11
  -1  -5 -12   77.21    6.56
  -1  -5 -12   71.66    6.28
  -1  -5 -12   76.27    5.65
   1   5  12   81.36    6.31
   1   5  12   74.21    7.03
   1   5  12   77.62    6.84
   1   5  12   86.48    6.07
  -2  -5 -12    2.97    1.07
  -2  -5 -12    6.20    1.85
  -2  -5 -12    4.12    1.41
  -2  -5 -12    4.10    1.75
  -2  -5 -12    4.07    1.23
   2   5  12    1.15    1.16
   2   5  12    5.10    1.41
   2   5  12    3.10    1.20
  -1   6  12   13.78    2.46
  -1   6  12   14.44    2.09
   0  -6 -12   -0.04    0.93
   0   6  12   -0.43    1.22
   0   6  12    0.29    0.90
  -1  -6 -12  212.53   12.01
  -1  -6 -12  194.81   13.13
  -1  -6 -12  194.93   12.44
  -1  -6 -12  199.88   12.28
  -1  -6 -12  200.03   11.42
   1   6  12  218.05   12.66
   1   6  12  226.04   13.58
   1   6  12  224.59   12.41
  -2  -6 -12   -0.06    0.67
  -2  -6 -12    0.67    0.85
  -2  -6 -12    0.83    1.00
  -2  -6 -12    1.08    0.86
  -2  -6 -12   -0.12    1.48
   2   6  12   -0.54    0.74
   2   6  12   -0.58    0.74
   0  -7 -12    0.75    0.98
   0  -7 -12    0.64    0.76
   0  -7 -12   -1.13    0.85
   0   7  12   -0.03    0.92
  -1  -7 -12   64.30    5.20
  -1  -7 -12   72.95    5.01
   1   7  12   78.71    4.99
   1   7  12   62.97    7.22
   1   7  12   79.33    5.24
   1   6 -13   11.88    2.18
   1   6 -13   13.42    2.49
  -1  -6  13    7.52    1.49
  -1  -6  13   11.51    1.68
   0   6 -13  348.46   19.42
   0  -6  13  322.15   18.57
   0  -6  13  356.59   18.54
   2   5 -13 1026.34   54.48
  -2  -5  13 1058.51   53.93
  -2  -5  13 1083.15   54.23
   1   5 -13  228.28   13.69
   1   5 -13  209.75   13.35
  -1  -5  13  240.00   13.56
   0   5 -13   19.98    2.65
   0   5 -13   24.27    3.03
   0  -5  13   25.89    2.94
   0  -5  13   24.27    3.54
  -1   5 -13   37.60    4.77
  -1   5 -13   40.02    3.39
   1  -5  13   41.00    4.12
   2   4 -13   58.87    4.87
   2   4 -13   47.08    3.11
  -2  -4  13   43.58    4.12
  -2  -4  13   55.77    4.21
   1   4 -13   34.15    4.20
   1   4 -13   37.18    3.93
  -1  -4  13   36.84    4.28
  -1  -4  13   35.81    3.81
   0   4 -13   -0.62    0.95
   0   4 -13    0.37    1.72
   0   4 -13    0.11    2.04
   0  -4  13   -1.56    0.83
   0  -4  13    0.34    1.43
  -1   4 -13   17.71    4.75
  -1   4 -13   24.04    2.78
   1  -4  13   26.72    3.65
   1  -4  13   25.78    2.49
   2   3 -13  143.89    7.85
   2   3 -13  145.87    9.70
  -2  -3  13  137.48    9.90
  -2  -3  13  136.03    8.98
   1   3 -13   21.20    3.66
   1   3 -13   15.74    3.20
  -1  -3  13   17.90    3.39
  -1  -3  13   13.75    2.90
  -1  -3  13   13.10    2.58
   0   3 -13   99.36    7.42
   0   3 -13   97.01    7.63
   0  -3  13   94.94    8.36
   0  -3  13   92.16    7.33
   0  -3  13  100.10    6.28
  -1   3 -13   32.79    3.53
  -1   3 -13   27.80    6.61
   1  -3  13   32.20    4.40
   1  -3  13   33.54    3.45
   1  -3  13   34.96    3.46
   1  -3  13   37.04    4.78
  -2   3 -13  274.94   17.65
   2  -3  13  281.55   15.48
   2  -3  13  293.39   15.57
   2  -3  13  291.25   17.03
   2   2 -13   -3.46    2.30
   2   2 -13    0.65    0.68
   2   2 -13   -0.32    1.26
  -2  -2  13   -0.82    0.72
  -2  -2  13    0.12    1.11
   1   2 -13    8.51    2.29
   1   2 -13    7.71    2.59
  -1  -2  13    8.68    2.22
  -1  -2  13    9.78    2.72
   0   2 -13  286.09   17.69
   0   2 -13  301.14   17.44
   0  -2  13  291.17   18.80
   0  -2  13  297.23   16.64
   0  -2  13  277.84   17.41
  -1   2 -13   88.96    6.87
  -1   2 -13   86.54   12.67
  -1   2 -13   84.76    6.59
  -1   2 -13   94.03    7.04
   1  -2  13  101.91    7.16
   1  -2  13  101.34    8.45
   1  -2  13  109.89    8.46
   1  -2  13  103.23    6.92
  -2   2 -13    5.25    1.41
  -2   2 -13    6.17    2.36
  -2   2 -13    8.08    2.87
  -2   2 -13    6.33    3.40
   2  -2  13    9.55    2.31
   2  -2  13    6.11    1.46
   2  -2  13    5.94    1.70
   2  -2  13    7.71    1.56
   2   1 -13  170.10   11.38
   2   1 -13  169.15    9.27
   2   1 -13  168.05   11.14
  -2  -1  13  165.45   10.73
   1   1 -13  156.82   11.06
   1   1 -13  167.77   11.46
  -1  -1  13  158.17   11.67
  -1  -1  13  157.08   10.85
   0   1 -13  106.51    7.97
   0   1 -13   89.51    7.62
   0   1 -13  106.94    8.26
   0  -1  13  118.06    7.88
   0  -1  13  110.80    8.11
   0  -1  13  111.22    7.48
   0  -1  13  101.42    9.03
  -1   1 -13  601.95   31.22
  -1   1 -13  504.72   31.44
  -1   1 -13  580.97   31.50
   1  -1  13  590.24   31.40
   1  -1  13  592.96   31.57
   1  -1  13  585.51   33.04
  -2   1 -13   11.64    2.08
  -2   1 -13   11.85    2.17
  -2   1 -13    8.45    2.81
  -2   1 -13    7.47    4.12
  -2   1 -13    9.12    1.91
   2  -1  13   12.84    2.71
   2  -1  13   10.17    1.83
   2  -1  13    8.86    1.80
   2  -1  13    8.18    1.67
   2   0 -13  179.80    9.82
   2   0 -13  177.98   11.76
   2   0 -13  182.73   12.06
  -2   0  13  198.21   11.77
   1   0 -13  527.97   30.21
   1   0 -13  539.65   30.35
  -1   0  13  535.53   31.08
  -1   0  13  551.29   30.20
   0   0 -13   27.76    3.78
   0   0 -13   24.08    3.55
   0   0 -13   25.34    3.61
   0   0  13   27.18    3.37
   0   0  13   23.63    4.71
   0   0  13   23.10    3.45
   0   0  13   21.88    3.30
  -1   0 -13   56.53    5.97
  -1   0 -13   67.12    5.69
  -1   0 -13   62.16    5.34
  -1   0 -13   64.96    5.71
   1   0  13   74.11    6.00
   1   0  13   75.14    5.78
   1   0  13   69.25    6.87
   1   0  13   66.34    5.80
  -2   0 -13   38.78    3.35
  -2   0 -13   36.60    3.64
  -2   0 -13   32.91    7.75
  -2   0 -13   31.15    3.86
  -2   0 -13   47.92    5.37
  -2   0 -13   39.09    3.80
   2   0  13   38.94    4.39
   2   0  13   39.02    3.73
   2   0  13   38.11    3.84
   2  -1 -13  347.23   19.59
  -2   1  13  334.02   20.10
   1  -1 -13   41.44    4.92
   1  -1 -13   44.91    4.80
  -1   1  13   48.86    5.74
  -1   1  13   45.25    4.77
   0  -1 -13  254.09   16.15
   0   1  13  269.02   17.68
   0   1  13  264.24   15.84
   0   1  13  262.39   15.88
   0   1  13  266.54   15.44
   0   1  13  251.15   15.95
  -1  -1 -13  104.57    7.63
  -1  -1 -13  117.25    8.07
  -1  -1 -13  125.25    8.58
  -1  -1 -13  129.06    8.55
  -1  -1 -13  116.01    9.40
   1   1  13  126.68    9.97
   1   1  13  128.46    8.79
   1   1  13  125.93    8.52
   1   1  13  122.50    8.83
  -2  -1 -13   81.23    5.94
  -2  -1 -13   64.80    6.29
  -2  -1 -13   81.85    7.28
  -2  -1 -13   79.85    5.37
  -2  -1 -13   67.54   10.96
   2   1  13   86.02    6.16
   2   1  13   87.67    5.99
   2   1  13   86.41    6.81
   2  -2 -13  163.95   10.72
   2  -2 -13  164.07   10.59
  -2   2  13  164.25   10.34
   1  -2 -13    0.53    1.33
   1  -2 -13    1.41    1.40
  -1   2  13    0.60    0.97
  -1   2  13    0.14    1.66
   0  -2 -13  190.50   12.55
   0   2  13  196.02   13.89
   0   2  13  197.38   12.47
   0   2  13  183.40   12.15
   0   2  13  197.07   11.89
   0   2  13  184.53   12.53
  -1  -2 -13   35.27    3.77
  -1  -2 -13   38.17    4.79
  -1  -2 -13   32.37    3.65
  -1  -2 -13   38.87    3.85
  -1  -2 -13   41.46    3.65
   1   2  13   38.03    4.23
   1   2  13   37.14    4.28
   1   2  13   36.01    5.08
   1   2  13   37.71    4.15
  -2  -2 -13   10.75    2.07
  -2  -2 -13    6.34    1.40
  -2  -2 -13    7.81    1.81
  -2  -2 -13    6.42    2.10
  -2  -2 -13    5.24    4.91
   2   2  13    5.60    1.43
   2   2  13    6.38    2.61
   2   2  13    7.05    1.86
   2   2  13   10.42    2.05
   2  -3 -13    0.57    1.03
   2  -3 -13    1.88    1.22
  -2   3  13    0.48    0.70
   1  -3 -13   38.54    4.07
   1  -3 -13   35.42    4.08
  -1   3  13   39.22    4.86
  -1   3  13   36.08    4.10
   0  -3 -13  232.69   15.34
   0   3  13  231.59   15.78
   0   3  13  276.46   16.93
   0   3  13  259.87   14.84
   0   3  13  260.81   16.95
   0   3  13  258.18   15.18
  -1  -3 -13  359.67   23.56
  -1  -3 -13  413.11   22.19
  -1  -3 -13  375.11   23.11
  -1  -3 -13  413.83   22.28
  -1  -3 -13  383.51   22.09
  -1  -3 -13  393.82   24.04
   1   3  13  438.63   22.69
   1   3  13  422.84   24.22
   1   3  13  411.52   22.87
   1   3  13  424.08   22.99
  -2  -3 -13   23.37    4.47
  -2  -3 -13   25.60    2.88
  -2  -3 -13   17.80    4.90
  -2  -3 -13   21.60    2.58
  -2  -3 -13   22.72    2.69
  -2  -3 -13   21.32    2.97
   2   3  13   20.36    2.86
   2   3  13   27.63    3.04
   2   3  13   24.42    2.85
   2   3  13   22.73    4.84
   1  -4 -13  324.71   18.66
   1  -4 -13  315.04   17.83
  -1   4  13  318.02   18.58
  -1   4  13  342.58   19.70
   0  -4 -13  169.63   10.94
   0   4  13  173.50   10.65
   0   4  13  152.08   10.90
   0   4  13  172.59   12.24
   0   4  13  169.80   10.29
  -1  -4 -13   56.90    5.76
  -1  -4 -13   66.32    6.17
  -1  -4 -13   55.46    5.31
  -1  -4 -13   60.31    4.58
  -1  -4 -13   66.54    5.98
   1   4  13   61.11    5.26
   1   4  13   59.59    5.30
   1   4  13   59.38    4.93
   1   4  13   63.21    6.06
  -2  -4 -13   28.06    3.18
  -2  -4 -13   30.29    2.80
  -2  -4 -13   23.95    3.29
  -2  -4 -13   31.31    2.85
  -2  -4 -13   32.24    2.93
  -2  -4 -13   19.42    6.05
   2   4  13   30.85    4.07
   2   4  13   30.67    3.08
   1  -5 -13    8.16    1.72
  -1   5  13    5.89    1.35
  -1   5  13   10.37    2.20
   0   5  13  193.13   11.60
   0   5  13  214.18   11.94
  -1  -5 -13    0.80    1.21
  -1  -5 -13    1.29    1.10
  -1  -5 -13    0.38    0.93
  -1  -5 -13    1.60    0.75
   1   5  13    1.61    1.00
   1   5  13    2.14    1.40
   1   5  13    0.94    1.78
   1   5  13    0.33    1.26
  -2  -5 -13   15.71    1.81
  -2  -5 -13   15.13    1.93
  -2  -5 -13   19.28    2.02
  -2  -5 -13   15.26    2.22
  -2  -5 -13   15.18    2.31
   2   5  13   21.85    2.34
   2   5  13   18.45    2.18
   0  -6 -13    0.11    0.79
   0   6  13    0.74    1.11
   0   6  13   -0.36    0.95
  -1  -6 -13   13.12    2.23
  -1  -6 -13   17.26    2.49
   1   6  13   25.25    3.18
   1   6  13   22.20    2.47
   1   6  13   21.60    2.35
   1   5 -14  710.61   36.34
   1   5 -14  654.89   36.47
  -1  -5  14  708.53   36.18
  -1  -5  14  732.36   36.65
   0   5 -14   -0.57    0.59
   0  -5  14    0.41    0.82
   0  -5  14    1.08    1.19
   1   4 -14  438.17   24.67
   1   4 -14  470.25   24.79
  -1  -4  14  458.33   24.76
   0   4 -14   23.04    5.31
   0   4 -14   27.32    3.03
   0  -4  14   24.72    3.39
   0  -4  14   24.55    2.91
  -1   4 -14   41.84    3.34
  -1   4 -14   40.69    4.69
   1  -4  14   43.83    4.20
   2   3 -14  256.16   14.79
  -2  -3  14  262.21   14.46
   1   3 -14   37.74    3.93
   1   3 -14   43.56    4.25
  -1  -3  14   38.26    4.18
  -1  -3  14   39.80    3.85
   0   3 -14   31.12    3.74
   0  -3  14   33.04    4.63
   0  -3  14   34.06    3.53
  -1   3 -14    1.06    0.76
  -1   3 -14    1.74    2.22
   1  -3  14    0.35    0.81
   1  -3  14    1.85    1.27
   2   2 -14   77.75    5.80
  -2  -2  14   72.94    6.76
  -2  -2  14   75.22    5.36
   1   2 -14    9.41    2.09
   1   2 -14    8.80    2.09
  -1  -2  14   12.10    2.67
  -1  -2  14    9.54    2.61
  -1  -2  14    8.58    2.15
   0   2 -14  291.85   16.72
   0  -2  14  275.16   17.36
   0  -2  14  264.77   16.32
  -1   2 -14   98.34    6.95
  -1   2 -14   87.87   11.67
   1  -2  14   96.96    8.46
   1  -2  14  104.74    6.83
  -2   2 -14    2.47    2.09
  -2   2 -14    2.33    1.32
   2  -2  14    4.15    1.59
   2   1 -14    0.33    1.92
   2   1 -14    0.15    0.94
  -2  -1  14    0.66    0.67
  -2  -1  14    0.05    1.09
   1   1 -14  488.70   27.92
   1   1 -14  504.26   27.91
  -1  -1  14  510.69   28.51
  -1  -1  14  516.11   27.90
   0   1 -14   40.78    4.23
   0   1 -14   35.62    3.95
   0  -1  14   40.83    3.62
   0  -1  14   41.35    4.99
  -1   1 -14   11.50    2.19
  -1   1 -14   13.55    5.71
  -1   1 -14   15.03    2.60
   1  -1  14   11.65    2.31
   1  -1  14   17.34    3.47
   1  -1  14   15.05    2.30
   1  -1  14   17.18    2.47
  -2   1 -14   79.34    9.68
  -2   1 -14   90.08    7.36
  -2   1 -14   87.04    5.72
   2  -1  14   93.88    5.97
   2  -1  14  100.21    6.54
   2  -1  14   94.04    5.84
   2   0 -14   27.41    3.20
   2   0 -14   24.25    3.06
  -2   0  14   28.94    2.89
   1   0 -14  181.96   12.22
   1   0 -14  207.80   12.95
   1   0 -14  215.81   12.95
  -1   0  14  210.21   12.83
  -1   0  14  211.05   13.50
   0   0 -14  206.31   14.07
   0   0 -14  238.89   14.44
   0   0  14  236.83   15.50
   0   0  14  229.18   14.95
   0   0  14  249.50   13.75
  -1   0 -14  466.68   25.86
  -1   0 -14  472.47   26.60
   1   0  14  489.28   26.13
   1   0  14  478.42   26.08
   1   0  14  487.63   25.75
   1   0  14  456.79   27.21
  -2   0 -14   59.46    4.69
  -2   0 -14   51.18    7.98
  -2   0 -14   54.36    4.42
   2   0  14   60.84    4.47
   2   0  14   62.07    4.39
   2   0  14   60.96    5.21
   2  -1 -14  313.44   17.55
   2  -1 -14  295.57   17.36
  -2   1  14  332.11   17.49
   1  -1 -14   12.64    2.41
   1  -1 -14   13.91    3.24
  -1   1  14   21.53    3.60
  -1   1  14   19.15    3.41
   0  -1 -14  209.03   13.36
   0  -1 -14  191.33   13.61
   0   1  14  214.99   12.55
   0   1  14  225.39   14.82
   0   1  14  212.46   13.34
   0   1  14  239.51   13.10
  -1  -1 -14  168.12   10.42
  -1  -1 -14  167.74   10.56
  -1  -1 -14  155.18   11.20
   1   1  14  167.87   11.72
   1   1  14  178.61   10.92
   1   1  14  172.54   10.85
   1   1  14  174.25   10.54
  -2  -1 -14  245.82   13.83
  -2  -1 -14  257.94   13.13
  -2  -1 -14  278.19   14.12
  -2  -1 -14  203.14   18.79
  -2  -1 -14  202.26   14.05
   2   1  14  260.78   14.48
   2   1  14  243.11   14.53
   2   1  14  251.18   13.79
   2   1  14  262.64   14.05
   2  -2 -14   75.58    5.34
   2  -2 -14   54.96    4.51
  -2   2  14   58.40    4.41
   1  -2 -14  112.73    7.75
   1  -2 -14  122.83    8.63
  -1   2  14  114.34    8.08
   0  -2 -14    1.80    1.35
   0   2  14   -0.27    1.28
   0   2  14    0.81    0.98
   0   2  14    0.53    1.33
   0   2  14    0.65    1.30
  -1  -2 -14  202.15   11.82
  -1  -2 -14  180.70   12.85
   1   2  14  202.72   12.05
   1   2  14  204.06   13.43
   1   2  14  207.33   12.46
   1   2  14  206.33   12.41
  -2  -2 -14    0.92    0.78
  -2  -2 -14    0.68    1.00
  -2  -2 -14   -0.44    1.88
  -2  -2 -14   -0.40    0.75
   2   2  14    0.03    0.82
   2   2  14    0.15    0.87
   2   2  14    3.35    2.10
   1  -3 -14    2.81    2.46
   1  -3 -14    1.90    1.29
  -1   3  14    2.06    1.04
  -1   3  14    5.41    1.98
   0  -3 -14   26.51    3.16
   0   3  14   23.60    3.27
   0   3  14   23.00    3.81
   0   3  14   28.92    4.12
  -1  -3 -14   65.47    5.04
  -1  -3 -14   60.60    6.07
  -1  -3 -14   83.22    6.27
  -1  -3 -14   77.86    5.06
  -1  -3 -14   62.66    9.43
   1   3  14   69.82    5.66
   1   3  14   73.05    5.47
   1   3  14   75.49    5.72
   1   3  14   76.94    6.71
  -2  -3 -14   40.06    3.90
  -2  -3 -14   43.77    3.20
  -2  -3 -14   39.57    5.82
  -2  -3 -14   45.89    3.50
  -2  -3 -14   38.11    3.06
   2   3  14   49.48    3.78
   2   3  14   51.35    3.71
   1  -4 -14   22.98    2.61
  -1   4  14   23.82    2.57
  -1   4  14   23.22    3.06
   0   4  14   15.88    2.15
   0   4  14   17.00    3.38
  -1  -4 -14   16.98    1.76
  -1  -4 -14   14.62    2.83
  -1  -4 -14   14.59    4.77
  -1  -4 -14   16.39    3.06
  -1  -4 -14   17.84    2.10
   1   4  14   13.49    2.32
   1   4  14   20.24    2.53
   1   4  14   16.83    2.91
   1   4  14   14.65    2.62
  -2  -4 -14    0.84    0.81
  -2  -4 -14    0.71    1.02
  -2  -4 -14    0.12    0.70
   2   4  14    0.24    1.02
   2   4  14    0.22    0.86
   0  -5 -14   66.11    4.66
   0  -5 -14   60.99    5.19
   0   5  14   73.12    5.81
  -1  -5 -14  120.42    8.86
   1   5  14  155.67   10.95
   1   5  14  142.14    8.31
   1   5  14  149.52    8.56
   0   4 -15  242.54   13.99
   0  -4  15  264.57   14.16
   1   3 -15    0.05    0.98
   1   3 -15    1.11    1.13
  -1  -3  15    0.13    0.59
   0   3 -15    7.28    1.54
   0  -3  15    7.51    1.92
   0  -3  15    6.02    1.30
  -1   3 -15   -1.54    0.99
  -1   3 -15   -0.36    0.55
   1  -3  15    0.96    1.02
   1   2 -15  171.58    9.54
   1   2 -15  152.74    9.68
  -1  -2  15  144.49    9.94
  -1  -2  15  152.23    9.54
   0   2 -15    6.66    1.49
   0  -2  15    8.13    2.07
   0  -2  15    5.03    1.56
  -1   2 -15   42.01    3.17
  -1   2 -15   35.10    4.40
  -1   2 -15   34.69    5.97
   1  -2  15   45.61    4.26
   1  -2  15   50.22    3.68
   1   1 -15    4.85    1.59
   1   1 -15    5.60    1.52
  -1  -1  15    4.85    1.52
  -1  -1  15    3.59    1.59
  -1  -1  15    1.64    1.43
   0   1 -15   19.77    2.69
   0  -1  15   16.86    3.10
   0  -1  15   15.14    2.76
  -1   1 -15   36.94    2.96
  -1   1 -15   25.67    4.07
  -1   1 -15   30.13    6.11
   1  -1  15   39.19    3.96
   1  -1  15   35.50    2.97
   1   0 -15   10.15    1.96
   1   0 -15   12.60    2.10
  -1   0  15   14.27    2.56
  -1   0  15    9.33    1.77
   0   0 -15   41.25    4.48
   0   0  15   52.78    6.76
   0   0  15   43.42    4.33
   0   0  15   43.72    4.81
  -1   0 -15  100.53    6.04
  -1   0 -15   84.90   10.82
  -1   0 -15   80.12    6.42
   1   0  15   96.14    6.08
   1   0  15   98.99    6.22
   1   0  15   94.53    7.18
   1  -1 -15   36.69    3.20
   1  -1 -15   30.98    4.18
   1  -1 -15   39.73    3.68
  -1   1  15   45.28    4.17
  -1   1  15   39.33    3.59
   0  -1 -15  117.48    8.64
   0  -1 -15  144.24    8.97
   0   1  15  126.18    8.72
   0   1  15  143.49    7.88
   0   1  15  151.80   10.66
  -1  -1 -15    4.90    3.27
  -1  -1 -15    5.44    1.19
  -1  -1 -15    5.56    1.62
   1   1  15    4.53    1.33
   1   1  15    7.61    2.20
   1   1  15    6.00    1.39
   1  -2 -15  214.93   12.29
   1  -2 -15  182.71   11.97
  -1   2  15  215.28   12.48
  -1   2  15  231.07   12.64
   0  -2 -15    2.30    1.32
   0  -2 -15    3.18    1.20
   0   2  15    3.43    1.09
   0   2  15    3.23    1.62
  -1  -2 -15   61.03    8.66
  -1  -2 -15   76.30    4.70
  -1  -2 -15   66.95    5.60
   1   2  15   78.69    6.06
   1   2  15   75.43    5.12
   1   2  15   80.13    5.32
   1  -3 -15   85.46    6.15
   1  -3 -15  115.46    7.09
  -1   3  15   95.46    6.12
  -1   3  15   97.26    6.34
   0  -3 -15    2.43    1.37
   0  -3 -15    1.57    0.77
   0   3  15    0.85    1.25
  -1  -3 -15    6.55    1.73
  -1  -3 -15    4.96    2.75
   1   3  15    8.05    1.53
   1   3  15    7.56    1.28
   1   3  15    9.00    2.05
   0  -4 -15    4.76    1.31
   0  -4 -15    4.22    1.00
   0   4  15    4.72    1.64
  -1  -4 -15   58.33    4.70
   1   4  15   64.65    4.81
   0   2 -16   42.24    5.81
   0   2 -16   50.40    3.62
   0  -2  16   54.81    4.11
   0   1 -16   20.86    4.53
   0   1 -16   21.93    2.35
   0  -1  16   26.06    2.95
   1   0 -16   -0.69    0.71
  -1   0  16   -0.72    0.61
   0   0 -16  138.04    8.46
   0   0  16  142.64    9.09
  -1   0 -16   11.74    3.41
   1   0  16   14.41    2.22
   0  -1 -16   95.31    6.34
   0   1  16  108.66    7.23
  -1  -1 -16   47.24    6.48
   1   1  16   60.32    3.53
   1   1  16   61.97    4.54
   0  -2 -16   41.87    3.38
   0  -2 -16   47.49    3.58
   0   2  16   56.08    4.53
   0   0   0    0.00    0.00


 _exptl_absorpt_process_details
)
 SADABS 2016/2: Krause, L., Herbst-Irmer, R., Sheldrick G.M. & Stalke D.,
 J. Appl. Cryst. 48 (2015) 3-10
)
 _exptl_absorpt_correction_type   multi-scan
 _exptl_absorpt_correction_T_max  0.7536
 _exptl_absorpt_correction_T_min  0.4965
 _exptl_special_details
)
 The following wavelength and cell were deduced by SADABS from the
 direction cosines etc. They are given here for emergency use only:
 CELL 1.54181    3.834    8.842   13.262   88.728   89.782   78.841
)

_computing_structure_solution     'SHELXT 2014/5 (Sheldrick, 2014)'
;
_shelx_hkl_checksum              21775
loop_
_space_group_symop_operation_xyz
'x, y, z'
'-x, -y, -z'
loop_
_atom_site_label
_atom_site_type_symbol
_atom_site_fract_x
_atom_site_fract_y
_atom_site_fract_z
_atom_site_U_iso_or_equiv
_atom_site_adp_type
_atom_site_occupancy
_atom_site_site_symmetry_order
_atom_site_calc_flag
_atom_site_refinement_flags_posn
_atom_site_refinement_flags_adp
_atom_site_refinement_flags_occupancy
_atom_site_disorder_assembly
_atom_site_disorder_group
C1 C 0.9265(4) 0.48541(17) 0.04576(11) 0.0244(3) Uani 1 1 d . . . . .
C2 C 0.7175(4) 0.61071(18) 0.11240(12) 0.0299(4) Uani 1 1 d . . . . .
C3 C 0.6145(4) 0.53376(18) 0.20381(12) 0.0269(3) Uani 1 1 d . . . . .
C4 C 0.7400(4) 0.37472(17) 0.19588(11) 0.0242(3) Uani 1 1 d . . . . .
C5 C 0.9268(4) 0.33870(17) 0.10277(11) 0.0245(3) Uani 1 1 d . . . . .
C6 C 1.0582(5) 0.18421(19) 0.08766(13) 0.0338(4) Uani 1 1 d . . . . .
H6 H 1.180259 0.153148 0.028609 0.041 Uiso 1 1 calc R U . . .
C7 C 1.0079(5) 0.07397(19) 0.16118(14) 0.0352(4) Uani 1 1 d . . . . .
H7 H 1.099430 -0.029354 0.149069 0.042 Uiso 1 1 calc R U . . .
C8 C 0.8308(4) 0.11057(19) 0.24999(12) 0.0307(4) Uani 1 1 d . . . . .
C9 C 0.6846(4) 0.26745(18) 0.27182(11) 0.0265(3) Uani 1 1 d . . . . .
C10 C 0.4907(4) 0.3347(2) 0.35760(12) 0.0297(3) Uani 1 1 d . . . . .
C11 C 0.3709(4) 0.4917(2) 0.36418(12) 0.0332(4) Uani 1 1 d . . . . .
H11 H 0.246851 0.530489 0.421386 0.040 Uiso 1 1 calc R U . . .
C12 C 0.4310(4) 0.5940(2) 0.28713(13) 0.0325(4) Uani 1 1 d . . . . .
H12 H 0.349015 0.699683 0.292269 0.039 Uiso 1 1 calc R U . . .
Cl1 Cl 0.38834(13) 0.22513(5) 0.45934(3) 0.04481(19) Uani 1 1 d . . . . .
Cl2 Cl 0.79668(13) -0.04139(5) 0.33117(4) 0.0496(2) Uani 1 1 d . . . . .
O1 O 0.6396(5) 0.74782(15) 0.09571(11) 0.0568(4) Uani 1 1 d . . . . .
loop_
_atom_site_aniso_label
_atom_site_aniso_U_11
_atom_site_aniso_U_22
_atom_site_aniso_U_33
_atom_site_aniso_U_23
_atom_site_aniso_U_13
_atom_site_aniso_U_12
C1 0.0251(7) 0.0222(7) 0.0262(8) 0.0006(6) 0.0033(5) -0.0052(5)
C2 0.0356(8) 0.0242(8) 0.0293(8) 0.0007(6) 0.0070(6) -0.0048(6)
C3 0.0279(7) 0.0249(8) 0.0278(8) 0.0009(6) 0.0045(6) -0.0053(6)
C4 0.0235(7) 0.0242(7) 0.0253(7) 0.0013(6) 0.0029(5) -0.0058(5)
C5 0.0264(7) 0.0244(8) 0.0232(7) 0.0013(5) 0.0053(5) -0.0068(5)
C6 0.0423(9) 0.0260(8) 0.0321(8) -0.0001(6) 0.0110(7) -0.0044(7)
C7 0.0446(9) 0.0217(8) 0.0383(9) 0.0018(7) 0.0111(7) -0.0042(6)
C8 0.0333(8) 0.0272(8) 0.0322(8) 0.0066(6) 0.0056(6) -0.0082(6)
C9 0.0250(7) 0.0280(8) 0.0272(8) 0.0032(6) 0.0022(5) -0.0078(6)
C10 0.0285(7) 0.0357(9) 0.0260(8) 0.0037(6) 0.0051(6) -0.0095(6)
C11 0.0347(8) 0.0369(9) 0.0281(8) -0.0024(7) 0.0101(6) -0.0072(7)
C12 0.0369(8) 0.0278(8) 0.0315(8) -0.0028(6) 0.0085(6) -0.0030(6)
Cl1 0.0591(3) 0.0436(3) 0.0326(3) 0.00755(19) 0.01725(19) -0.0133(2)
Cl2 0.0659(3) 0.0297(3) 0.0504(3) 0.0143(2) 0.0228(2) -0.0043(2)
O1 0.0932(11) 0.0244(7) 0.0469(8) 0.0037(6) 0.0365(7) 0.0021(7)
loop_
_atom_type_symbol
_atom_type_description
_atom_type_scat_dispersion_real
_atom_type_scat_dispersion_imag
_atom_type_scat_source
C C 0.0181 0.0091 'International Tables Vol C Tables 4.2.6.8 and 6.1.1.4'
H H 0.0000 0.0000 'International Tables Vol C Tables 4.2.6.8 and 6.1.1.4'
Cl Cl 0.3639 0.7018 'International Tables Vol C Tables 4.2.6.8 and 6.1.1.4'
O O 0.0492 0.0322 'International Tables Vol C Tables 4.2.6.8 and 6.1.1.4'
loop_
_geom_angle_atom_site_label_1
_geom_angle_atom_site_label_2
_geom_angle_atom_site_label_3
_geom_angle
_geom_angle_site_symmetry_1
_geom_angle_site_symmetry_3
_geom_angle_publ_flag
C1 C1 C5 131.34(18) 2_765 . ?
C1 C1 C2 123.97(17) 2_765 . ?
C5 C1 C2 104.69(12) . . ?
O1 C2 C3 124.12(15) . . ?
O1 C2 C1 128.59(15) . . ?
C3 C2 C1 107.28(13) . . ?
C12 C3 C4 121.29(15) . . ?
C12 C3 C2 130.33(15) . . ?
C4 C3 C2 108.38(13) . . ?
C3 C4 C9 122.63(14) . . ?
C3 C4 C5 111.43(14) . . ?
C9 C4 C5 125.94(14) . . ?
C6 C5 C4 115.70(14) . . ?
C6 C5 C1 136.10(14) . . ?
C4 C5 C1 108.21(13) . . ?
C5 C6 C7 120.11(15) . . ?
C5 C6 H6 119.9 . . ?
C7 C6 H6 119.9 . . ?
C8 C7 C6 123.39(16) . . ?
C8 C7 H7 118.3 . . ?
C6 C7 H7 118.3 . . ?
C7 C8 C9 120.36(15) . . ?
C7 C8 Cl2 116.59(13) . . ?
C9 C8 Cl2 123.06(12) . . ?
C4 C9 C8 114.50(14) . . ?
C4 C9 C10 114.46(14) . . ?
C8 C9 C10 131.04(15) . . ?
C11 C10 C9 122.01(15) . . ?
C11 C10 Cl1 115.49(12) . . ?
C9 C10 Cl1 122.50(13) . . ?
C10 C11 C12 121.70(15) . . ?
C10 C11 H11 119.1 . . ?
C12 C11 H11 119.1 . . ?
C3 C12 C11 117.90(15) . . ?
C3 C12 H12 121.0 . . ?
C11 C12 H12 121.0 . . ?
loop_
_geom_bond_atom_site_label_1
_geom_bond_atom_site_label_2
_geom_bond_distance
_geom_bond_site_symmetry_2
_geom_bond_publ_flag
C1 C1 1.376(3) 2_765 ?
C1 C5 1.486(2) . ?
C1 C2 1.531(2) . ?
C2 O1 1.206(2) . ?
C2 C3 1.467(2) . ?
C3 C12 1.369(2) . ?
C3 C4 1.401(2) . ?
C4 C9 1.411(2) . ?
C4 C5 1.436(2) . ?
C5 C6 1.380(2) . ?
C6 C7 1.402(2) . ?
C6 H6 0.9300 . ?
C7 C8 1.371(2) . ?
C7 H7 0.9300 . ?
C8 C9 1.427(2) . ?
C8 Cl2 1.7266(17) . ?
C9 C10 1.433(2) . ?
C10 C11 1.379(2) . ?
C10 Cl1 1.7309(17) . ?
C11 C12 1.397(2) . ?
C11 H11 0.9300 . ?
C12 H12 0.9300 . ?
