#------------------------------------------------------------------------------
#$Date: 2021-11-05 04:33:30 +0200 (Fri, 05 Nov 2021) $
#$Revision: 270323 $
#$URL: file:///home/coder/svn-repositories/cod/cif/7/24/38/7243852.cif $
#------------------------------------------------------------------------------
#
# This file is available in the Crystallography Open Database (COD),
# http://www.crystallography.net/
#
# All data on this site have been placed in the public domain by the
# contributors.
#
data_7243852
loop_
_publ_author_name
'Dowarah, Jayanta'
'Patel, Devanshi'
'Marak, Brilliant N.'
'Yadav, Umesh Chand Singh'
'Shah, Pramod Kumar'
'Shukla, Pradeep Kumar'
'Singh, Ved Prakash'
_publ_section_title
;
 Green synthesis, structural analysis and anticancer activity of
 dihydropyrimidinone derivatives
;
_journal_issue                   57
_journal_name_full               'RSC Advances'
_journal_page_first              35737
_journal_page_last               35753
_journal_paper_doi               10.1039/D1RA03969E
_journal_volume                  11
_journal_year                    2021
_chemical_formula_moiety         'C15 H18 N2 O2 S'
_chemical_formula_sum            'C15 H18 N2 O2 S'
_chemical_formula_weight         290.39
_space_group_crystal_system      triclinic
_space_group_IT_number           2
_space_group_name_Hall           '-P 1'
_space_group_name_H-M_alt        'P -1'
_symmetry_Int_Tables_number      2
_audit_creation_date             2019-05-25
_audit_creation_method
;
Olex2 1.2
(compiled 2018.05.29 svn.r3508 for OlexSys, GUI svn.r5506)
;
_audit_update_record
;
2019-06-29 deposited with the CCDC.	2021-10-14 downloaded from the CCDC.
;
_cell_angle_alpha                74.216(4)
_cell_angle_beta                 88.729(4)
_cell_angle_gamma                69.819(4)
_cell_formula_units_Z            2
_cell_length_a                   7.3603(10)
_cell_length_b                   9.4648(12)
_cell_length_c                   12.2076(16)
_cell_measurement_reflns_used    8510
_cell_measurement_temperature    296(2)
_cell_measurement_theta_max      27.05
_cell_measurement_theta_min      2.39
_cell_volume                     765.70(18)
_computing_molecular_graphics    'Olex2 (Dolomanov et al., 2009)'
_computing_publication_material  'Olex2 (Dolomanov et al., 2009)'
_computing_structure_refinement  'olex2.refine (Bourhis et al., 2015)'
_diffrn_ambient_temperature      296.15
_diffrn_measured_fraction_theta_full 0.9959
_diffrn_measured_fraction_theta_max 0.9959
_diffrn_measurement_device_type  'Bruker APEX-II CCD'
_diffrn_measurement_method       '\f and \w scans'
_diffrn_radiation_type           'Mo K\a'
_diffrn_radiation_wavelength     0.71073
_diffrn_reflns_av_R_equivalents  0.0330
_diffrn_reflns_av_unetI/netI     0.0205
_diffrn_reflns_limit_h_max       9
_diffrn_reflns_limit_h_min       -9
_diffrn_reflns_limit_k_max       12
_diffrn_reflns_limit_k_min       -12
_diffrn_reflns_limit_l_max       15
_diffrn_reflns_limit_l_min       -15
_diffrn_reflns_number            18180
_diffrn_reflns_theta_full        27.1526
_diffrn_reflns_theta_max         27.15
_diffrn_reflns_theta_min         2.96
_diffrn_standards_number         0
_exptl_absorpt_coefficient_mu    0.214
_exptl_absorpt_correction_type   none
_exptl_crystal_colour            colourless
_exptl_crystal_density_diffrn    1.2594
_exptl_crystal_description       Block
_exptl_crystal_F_000             308.3750
_exptl_crystal_size_max          0.22
_exptl_crystal_size_mid          0.20
_exptl_crystal_size_min          0.18
_refine_diff_density_max         0.3425
_refine_diff_density_min         -0.3842
_refine_diff_density_rms         0.0562
_refine_ls_d_res_high            0.7787
_refine_ls_d_res_low             6.8867
_refine_ls_goodness_of_fit_ref   1.0675
_refine_ls_hydrogen_treatment    mixed
_refine_ls_matrix_type           full
_refine_ls_number_constraints    25
_refine_ls_number_parameters     192
_refine_ls_number_reflns         3387
_refine_ls_number_restraints     0
_refine_ls_restrained_S_all      1.0675
_refine_ls_R_factor_all          0.0487
_refine_ls_R_factor_gt           0.0423
_refine_ls_shift/su_max          0.0000
_refine_ls_shift/su_mean         0.0000
_refine_ls_structure_factor_coef Fsqd
_refine_ls_weighting_details
'w=1/[\s^2^(Fo^2^)+(0.0746P)^2^+0.2118P] where P=(Fo^2^+2Fc^2^)/3'
_refine_ls_weighting_scheme      calc
_refine_ls_wR_factor_gt          0.1218
_refine_ls_wR_factor_ref         0.1298
_reflns_Friedel_coverage         0.0
_reflns_limit_h_max              9
_reflns_limit_h_min              -9
_reflns_limit_k_max              12
_reflns_limit_k_min              -11
_reflns_limit_l_max              15
_reflns_limit_l_min              0
_reflns_number_gt                2926
_reflns_number_total             3387
_reflns_threshold_expression     I>=2u(I)
_iucr_refine_instructions_details
;
TITL VPS_I_5_0m_a.res in P-1
CELL 0.71073 7.3603 9.4648 12.2076 74.216 88.729 69.819
ZERR 2 0.001 0.0012 0.0016 0.004 0.004 0.004
LATT 1
SFAC C H N O S
UNIT 30 36 4 4 2

L.S. 4
PLAN  -4 0 0
TEMP 23
ACTA 
FMAP 2
HTAB 
BOND $H
CONF 
WGHT 0.074601 0.211786
FVAR 0.887951
REM <olex2.extras>
REM <HklSrc "%.\\VPS_I_5_0m.hkl">
REM </olex2.extras>

S1    5     0.19813  0.09771  0.04389  11.00000  0.03126  0.04657  0.05685 =
 -0.02838  0.00407 -0.01530 
O0aa  4     0.79276  0.44427  0.14794  11.00000  0.02797  0.05403  0.07569 =
 -0.03195  0.01289 -0.01882 
O1    4     0.53187  0.57744  0.22205  11.00000  0.03559  0.05436  0.08635 =
 -0.04556  0.01753 -0.02350 
N2    3     0.23137  0.31622  0.13030  11.00000  0.02202  0.03916  0.04660 =
 -0.02120  0.00773 -0.01120 
N3    3     0.51388  0.15927  0.08076  11.00000  0.02575  0.03957  0.04125 =
 -0.02323  0.00261 -0.00753 
C1    1     0.97057 -0.25611  0.57465  11.00000  0.08089  0.08085  0.06003 =
 0.01468 -0.01843 -0.03044 
AFIX 137
H1a   2     0.94557 -0.20838  0.63611  11.00000 -1.50000 
H1b   2     0.91227 -0.33500  0.58692  11.00000 -1.50000 
H1c   2     1.10818 -0.30347  0.57183  11.00000 -1.50000 
AFIX 0
C2    1     0.88508 -0.13248  0.46305  11.00000  0.04644  0.05423  0.04701 =
 -0.00170 -0.00811 -0.02385 
C3    1     0.95883 -0.15045  0.35991  11.00000  0.03543  0.04449  0.06052 =
 -0.00549 -0.00307 -0.00477 
AFIX 43
H3a   2     1.06356 -0.24014  0.35962  11.00000 -1.20000 
AFIX 0
C4    1     0.87976 -0.03773  0.25762  11.00000  0.03125  0.04311  0.04587 =
 -0.01330  0.00547 -0.00687 
AFIX 43
H4    2     0.93274 -0.05207  0.18986  11.00000 -1.20000 
AFIX 0
C5    1     0.72194  0.09666  0.25525  11.00000  0.02444  0.03462  0.03749 =
 -0.01422  0.00236 -0.01214 
C6    1     0.63392  0.21571  0.14067  11.00000  0.02256  0.03352  0.03542 =
 -0.01514  0.00475 -0.00954 
AFIX 13
H6    2     0.74056  0.22687  0.09368  11.00000 -1.20000 
AFIX 0
C7    1     0.51264  0.37572  0.15146  11.00000  0.02546  0.03036  0.03613 =
 -0.01257  0.00395 -0.00887 
C8    1     0.62615  0.46880  0.17100  11.00000  0.02858  0.03217  0.03925 =
 -0.01084  0.00320 -0.01051 
C9    1     0.63208  0.67416  0.24762  11.00000  0.04445  0.05008  0.07272 =
 -0.03067  0.01011 -0.02737 
AFIX 23
H9a   2     0.75929  0.60899  0.28606  11.00000 -1.20000 
H9b   2     0.64839  0.74612  0.17780  11.00000 -1.20000 
AFIX 0
C10   1     0.51161  0.76151  0.32199  11.00000  0.06700  0.09392  0.11868 =
 -0.07401  0.03326 -0.04756 
AFIX 137
H10a  2     0.38406  0.82111  0.28457  11.00000 -1.50000 
H10b  2     0.50244  0.68916  0.39242  11.00000 -1.50000 
H10c  2     0.56964  0.83131  0.33755  11.00000 -1.50000 
AFIX 0
C11   1     0.31717  0.41877  0.14906  11.00000  0.02687  0.03152  0.03564 =
 -0.01281  0.00511 -0.00997 
C12   1     0.17211  0.56786  0.16230  11.00000  0.02846  0.03785  0.07350 =
 -0.02560  0.00537 -0.00588 
AFIX 137
H12a  2     0.14678  0.55503  0.24121  11.00000 -1.50000 
H12b  2     0.22270  0.65117  0.13662  11.00000 -1.50000 
H12c  2     0.05367  0.59313  0.11756  11.00000 -1.50000 
AFIX 0
C13   1     0.32415  0.19336  0.08740  11.00000  0.02769  0.03261  0.03054 =
 -0.01151  0.00173 -0.00921 
C14   1     0.73010  0.00166  0.46032  11.00000  0.06157  0.06204  0.03678 =
 -0.01559  0.00745 -0.02640 
AFIX 43
H14   2     0.67922  0.01693  0.52835  11.00000 -1.20000 
AFIX 0
C15   1     0.64818  0.11464  0.35808  11.00000  0.04176  0.04576  0.04234 =
 -0.01861  0.00786 -0.01174 
AFIX 43
H15   2     0.54241  0.20357  0.35857  11.00000 -1.20000 
AFIX 0
H2    2     0.11461  0.34023  0.13333  11.00000  0.04042 
H3    2     0.57459  0.08390  0.04845  11.00000  0.05159 
HKLF 4

END
Q1 1 0.583333 0.65625 0.375 11 0.05 0.34
Q2 1 0.25 0.15625 0.075 11 0.05 0.3
Q3 1 0.666667 0.09375 0.3 11 0.05 0.26
Q4 1 0.041667 0.5625 0.175 11 0.05 0.26
Q5 1 0.875 -0.28125 0.625 11 0.05 0.24
Q6 1 0.416667 0.40625 0.175 11 0.05 0.23
Q7 1 0.583333 0.40625 0.175 11 0.05 0.23
Q8 1 0.958333 -0.125 0.425 11 0.05 0.23
Q9 1 0.666667 0.15625 0.2 11 0.05 0.22
Q10 1 0.791667 0.0625 0.25 11 0.05 0.21
Q11 1 1.083333 -0.21875 0.625 11 0.05 0.2
Q12 1 0.416667 0.71875 0.35 11 0.05 0.19
Q13 1 0.083333 0.65625 0.05 11 0.05 0.19
Q14 1 0.583333 0.1875 0.1 11 0.05 0.19
Q15 1 0.541667 0.625 0.15 11 0.05 0.18
Q16 1 0.291667 0.25 0.1 11 0.05 0.18
Q17 1 0.208333 0.625 0.2 11 0.05 0.18
Q18 1 0.958333 0 0.2 11 0.05 0.17
Q19 1 0.083333 0.09375 0.1 11 0.05 0.17
Q20 1 0.125 0.0625 0.025 11 0.05 0.17

  REM The information below was added by Olex2.
  REM
  REM R1 = 0.0423 for 2926 Fo > 4sig(Fo) and 0.0487 for all 3387 data
  REM 192 parameters refined using 0 restraints
  REM Highest difference peak 0.3425, deepest hole -0.3842
  REM Mean Shift 0.0000, Max Shift 0.0000.

  REM +++ Tabular Listing of Refinement Information +++
  REM R1_all = 0.0487
  REM R1_gt = 0.0423
  REM wR_ref = 0.1298
  REM GOOF = 1.0675
  REM Shift_max = 0.0000
  REM Shift_mean = 0.0000
  REM Reflections_all = 3387
  REM Reflections_gt = 2926
  REM Parameters = 192
  REM Hole = -0.3842
  REM Peak = 0.3425
  REM Flack = n/a

  
;
_cod_data_source_file            d1ra03969e2.cif
_cod_data_source_block           VPS_I_5_0m
_cod_database_code               7243852
_publcif_datablock.id            {8fe66cb3-3e40-439e-949e-b37b6d0bb8e2}
_olex2_refinement_description
;
1. Fixed Uiso
 At 1.2 times of:
  All C(H) groups, All C(H,H) groups
 At 1.5 times of:
  All C(H,H,H) groups
2.a Ternary CH refined with riding coordinates:
 C6(H6)
2.b Secondary CH2 refined with riding coordinates:
 C9(H9a,H9b)
2.c Aromatic/amide H refined with riding coordinates:
 C3(H3a), C4(H4), C14(H14), C15(H15)
2.d Idealised Me refined as rotating group:
 C1(H1a,H1b,H1c), C10(H10a,H10b,H10c), C12(H12a,H12b,H12c)
;
_iucr_refine_fcf_details
;
data_VPS_I_5_0m_CCDC1
_computing_structure_refinement   'olex2.refine (Bourhis et al., 2015)'
_shelx_refln_list_code            4
loop_
  _space_group_symop_id
  _space_group_symop_operation_xyz
  1  x,y,z
  2  -x,-y,-z

_space_group_crystal_system       triclinic
_space_group_IT_number            2
_space_group_name_H-M_alt         'P -1'
_space_group_name_Hall            '-P 1'
_symmetry_space_group_name_H-M    'P -1'
_symmetry_space_group_name_Hall   '-P 1'
_symmetry_Int_Tables_number       2
_cell_length_a                    7.3603(10)
_cell_length_b                    9.4648(12)
_cell_length_c                    12.2076(16)
_cell_angle_alpha                 74.216(4)
_cell_angle_beta                  88.729(4)
_cell_angle_gamma                 69.819(4)
_cell_volume                      765.70(18)
loop_
  _refln_index_h
  _refln_index_k
  _refln_index_l
  _refln_F_squared_calc
  _refln_F_squared_meas
  _refln_F_squared_sigma
  _refln_F_squared_weight
  _refln_observed_status
-9 -6 1 0.320 0.150 0.683 246.780 o
-9 -6 2 7.356 7.688 0.887 48.090 o
-9 -5 1 4.815 5.063 0.731 75.561 o
-9 -5 2 7.395 9.711 1.088 39.224 o
-9 -5 3 17.549 18.015 1.381 17.404 o
-9 -4 1 5.230 6.420 1.099 50.029 o
-9 -4 2 1.152 2.326 0.743 144.295 o
-9 -4 3 65.377 70.555 2.442 2.848 o
-9 -4 4 34.490 36.186 2.141 6.834 o
-9 -3 1 28.758 29.462 1.662 9.485 o
-9 -3 2 44.715 44.080 2.178 5.113 o
-9 -3 3 132.809 143.141 4.774 0.831 o
-9 -3 4 0.416 1.450 0.830 151.063 o
-9 -2 1 6.703 6.464 0.927 51.388 o
-9 -2 2 0.192 -0.902 0.769 208.313 o
-9 -2 3 36.099 40.366 1.978 6.540 o
-9 -2 4 24.500 31.319 4.820 3.917 o
-9 -1 1 36.619 46.316 2.862 5.057 o
-9 -1 2 22.753 27.124 1.703 11.408 o
-9 -1 3 4.703 7.644 1.462 36.599 o
-8 -9 1 17.799 17.739 1.585 16.025 o
-8 -8 1 13.695 12.450 1.064 26.143 o
-8 -8 2 4.088 3.990 0.782 82.475 o
-8 -8 3 1.037 1.223 0.823 140.601 o
-8 -7 1 0.005 1.855 0.668 222.133 o
-8 -7 2 87.410 93.985 2.531 1.838 o
-8 -7 3 35.790 38.926 1.840 6.874 o
-8 -7 4 5.793 7.616 0.913 53.309 o
-8 -6 1 2.554 2.148 0.621 138.458 o
-8 -6 2 19.151 18.754 1.170 17.383 o
-8 -6 3 2.852 3.685 0.704 106.183 o
-8 -6 4 4.196 5.482 0.761 76.761 o
-8 -6 5 24.185 26.184 1.665 11.227 o
-8 -6 6 1.695 1.741 1.078 83.608 o
-8 -5 1 50.393 54.230 1.703 4.487 o
-8 -5 2 61.730 62.872 1.872 3.378 o
-8 -5 3 22.338 20.014 1.147 15.208 o
-8 -5 4 2.133 2.076 0.615 151.426 o
-8 -5 5 17.143 16.762 1.321 18.504 o
-8 -5 6 1.136 2.141 0.773 139.733 o
-8 -4 1 43.250 43.513 1.379 5.982 o
-8 -4 2 5.425 4.785 0.599 79.829 o
-8 -4 3 11.270 12.105 0.894 32.303 o
-8 -4 4 0.053 -0.012 0.598 352.327 o
-8 -4 5 13.398 16.143 1.270 22.271 o
-8 -4 6 1.631 1.283 0.720 151.147 o
-8 -4 7 1.119 1.231 0.682 179.647 o
-8 -3 1 2.994 3.574 0.558 123.564 o
-8 -3 2 69.666 65.501 1.671 2.982 o
-8 -3 3 32.729 35.254 1.472 8.284 o
-8 -3 4 50.109 47.778 2.287 4.408 o
-8 -3 5 0.048 0.188 0.570 373.466 o
-8 -3 6 7.852 10.268 1.056 38.274 o
-8 -3 7 5.345 8.127 1.373 37.528 o
-8 -2 1 0.264 -0.357 0.375 724.656 o
-8 -2 2 2.774 2.319 0.510 150.882 o
-8 -2 3 4.870 6.701 0.747 68.306 o
-8 -2 4 7.461 6.237 1.034 45.356 o
-8 -2 5 55.176 58.005 2.375 3.675 o
-8 -2 6 32.712 34.423 1.531 8.280 o
-8 -2 7 34.615 37.601 1.778 7.253 o
-8 -2 8 23.953 20.927 2.410 9.474 o
-8 -1 1 42.142 43.385 1.514 6.024 o
-8 -1 2 42.093 43.224 2.307 5.289 o
-8 -1 3 8.714 10.006 1.026 37.278 o
-8 -1 4 0.077 0.277 0.629 301.958 o
-8 -1 5 136.492 136.298 3.566 0.887 o
-8 -1 6 50.347 48.300 2.011 4.553 o
-8 -1 7 1.730 1.606 0.712 146.324 o
-8 0 1 4.419 4.425 0.817 75.210 o
-8 0 2 25.511 22.724 1.448 12.076 o
-8 0 3 47.637 43.665 1.899 5.081 o
-8 0 4 31.378 28.669 2.143 7.943 o
-8 0 5 50.387 51.381 2.103 4.369 o
-8 0 6 2.258 3.201 0.873 95.910 o
-8 0 7 8.132 7.831 1.144 38.235 o
-8 1 1 120.446 107.394 3.101 1.179 o
-8 1 2 56.925 56.164 2.184 3.718 o
-8 1 3 7.587 8.432 0.988 43.111 o
-8 1 4 0.088 0.008 0.605 340.057 o
-8 1 5 6.204 6.720 1.082 46.869 o
-8 1 6 7.611 8.465 1.024 41.992 o
-8 2 1 5.728 4.706 0.874 62.330 o
-8 2 2 2.568 2.134 0.721 120.924 o
-8 2 3 7.192 4.592 0.922 53.396 o
-8 2 4 0.462 0.295 0.601 287.260 o
-8 2 5 3.159 7.483 1.902 27.340 o
-7 -10 1 0.332 -0.819 0.737 218.244 o
-7 -9 1 0.056 -0.072 0.512 477.218 o
-7 -9 2 11.180 11.797 1.142 29.036 o
-7 -9 3 14.611 16.480 1.217 21.476 o
-7 -8 1 17.752 18.178 1.050 19.302 o
-7 -8 2 25.535 28.644 1.307 11.434 o
-7 -8 3 11.853 14.053 1.162 26.305 o
-7 -8 4 0.738 0.547 0.629 238.225 o
-7 -8 5 3.960 2.594 0.703 98.743 o
-7 -7 1 0.022 -0.307 0.473 567.784 o
-7 -7 2 0.870 0.193 0.489 340.999 o
-7 -7 3 7.468 6.705 0.698 55.881 o
-7 -7 4 1.045 0.287 0.501 305.219 o
-7 -7 5 0.507 -0.613 0.537 357.541 o
-7 -7 6 0.143 -0.128 0.554 394.195 o
-7 -6 1 2.978 2.772 0.602 125.594 o
-7 -6 2 0.332 -0.008 0.474 473.642 o
-7 -6 3 15.770 15.352 1.031 22.465 o
-7 -6 4 4.291 2.746 0.560 108.007 o
-7 -6 5 29.887 24.889 1.144 10.992 o
-7 -6 6 24.491 22.078 1.648 11.867 o
-7 -6 7 1.810 1.203 0.769 136.149 o
-7 -5 1 0.385 0.307 0.371 601.662 o
-7 -5 2 13.475 11.858 1.135 25.973 o
-7 -5 3 150.389 146.405 3.104 0.781 o
-7 -5 4 5.397 5.840 0.736 68.248 o
-7 -5 5 13.301 14.459 0.985 26.225 o
-7 -5 6 28.473 30.536 1.270 10.288 o
-7 -5 7 36.767 36.994 1.801 6.925 o
-7 -5 8 17.747 18.236 1.408 17.037 o
-7 -4 1 100.271 95.242 2.030 1.628 o
-7 -4 2 3.552 4.230 0.785 86.154 o
-7 -4 3 15.021 16.404 0.865 24.026 o
-7 -4 4 96.604 100.054 2.154 1.640 o
-7 -4 5 42.288 42.062 1.462 6.136 o
-7 -4 6 42.683 43.218 2.232 5.304 o
-7 -4 7 43.625 49.920 2.017 5.074 o
-7 -4 8 0.785 1.052 0.696 191.325 o
-7 -4 9 0.020 0.341 0.754 216.061 o
-7 -3 1 77.734 70.460 1.646 2.565 o
-7 -3 2 56.160 58.542 1.488 3.984 o
-7 -3 3 133.907 141.462 2.638 0.924 o
-7 -3 4 67.439 67.188 1.632 3.054 o
-7 -3 5 2.581 2.673 0.564 141.634 o
-7 -3 6 0.727 -0.505 0.446 424.853 o
-7 -3 7 60.842 60.771 2.125 3.391 o
-7 -3 8 45.367 48.114 1.971 5.030 o
-7 -3 9 0.972 1.290 0.679 185.115 o
-7 -2 1 28.970 28.857 1.069 10.799 o
-7 -2 2 15.415 13.838 0.761 25.934 o
-7 -2 3 72.318 72.542 1.681 2.722 o
-7 -2 4 19.993 15.097 0.801 20.105 o
-7 -2 5 157.721 151.593 3.165 0.724 o
-7 -2 6 119.203 113.716 2.635 1.187 o
-7 -2 7 1.549 2.622 0.593 166.189 o
-7 -2 8 57.786 55.411 2.142 3.708 o
-7 -2 9 53.734 54.399 3.075 3.473 o
-7 -2 10 0.002 0.488 0.862 165.443 o
-7 -1 1 46.120 44.769 1.323 5.593 o
-7 -1 2 314.941 290.689 4.635 0.211 o
-7 -1 3 514.162 491.565 7.313 0.081 o
-7 -1 4 1.680 3.352 0.587 152.289 o
-7 -1 5 120.113 113.002 2.577 1.185 o
-7 -1 6 13.140 11.688 0.870 29.753 o
-7 -1 7 33.798 31.832 1.349 8.615 o
-7 -1 8 2.337 3.526 0.637 125.464 o
-7 -1 9 0.410 0.543 0.538 333.235 o
-7 -1 10 0.475 0.772 0.839 155.745 o
-7 0 1 87.544 79.045 1.994 2.083 o
-7 0 2 4.356 3.501 0.502 106.792 o
-7 0 3 23.598 16.978 1.064 15.692 o
-7 0 4 98.087 90.827 2.309 1.683 o
-7 0 5 55.701 55.450 1.802 3.995 o
-7 0 6 33.553 29.666 1.455 8.739 o
-7 0 7 15.861 15.383 1.195 21.030 o
-7 0 8 37.449 39.982 1.767 6.642 o
-7 0 9 28.216 27.678 1.596 10.016 o
-7 0 10 2.710 3.952 0.988 76.156 o
-7 1 1 23.102 17.499 0.975 16.188 o
-7 1 2 11.102 8.745 0.884 36.190 o
-7 1 3 15.112 15.908 1.192 21.488 o
-7 1 4 24.007 23.050 1.424 12.669 o
-7 1 5 47.239 44.787 1.834 5.114 o
-7 1 6 1.122 1.016 0.641 199.011 o
-7 1 7 23.698 22.310 1.439 12.885 o
-7 1 8 18.820 21.401 1.418 15.454 o
-7 1 9 31.974 36.727 1.801 7.750 o
-7 2 1 40.229 37.994 1.716 6.446 o
-7 2 2 2.338 2.578 0.680 127.912 o
-7 2 3 45.852 38.601 1.707 5.697 o
-7 2 4 19.300 16.797 1.261 17.411 o
-7 2 5 4.209 3.467 0.764 85.283 o
-7 2 6 24.530 26.511 2.308 9.076 o
-7 2 7 51.421 55.070 2.160 4.124 o
-7 2 8 18.510 21.279 1.712 14.078 o
-7 2 9 3.167 3.286 0.833 90.079 o
-7 3 1 36.908 33.199 1.741 7.291 o
-7 3 2 0.010 -0.407 0.557 413.482 o
-7 3 3 22.976 22.969 1.470 12.929 o
-7 3 4 32.420 36.726 1.760 7.737 o
-7 3 5 22.802 27.061 1.579 11.832 o
-7 3 6 27.825 29.925 1.665 9.654 o
-7 3 7 0.175 1.202 0.664 233.582 o
-7 3 8 5.471 7.962 1.080 47.322 o
-7 4 1 4.913 7.996 1.243 42.928 o
-7 4 2 18.186 22.212 1.507 15.104 o
-7 4 3 33.043 32.273 1.751 8.054 o
-7 4 4 7.233 8.795 1.021 42.670 o
-7 4 5 0.451 1.026 0.660 224.474 o
-7 4 6 2.474 1.899 0.779 115.134 o
-6 -10 1 5.307 3.604 1.318 44.943 o
-6 -10 2 0.877 1.270 0.792 152.116 o
-6 -10 3 0.015 -0.903 0.673 282.997 o
-6 -9 1 2.296 3.187 0.924 89.403 o
-6 -9 2 2.821 2.494 0.675 120.256 o
-6 -9 3 7.488 6.167 1.000 46.520 o
-6 -9 4 13.148 13.105 1.288 23.856 o
-6 -9 5 19.836 18.804 1.499 15.171 o
-6 -8 1 45.589 41.652 1.557 5.671 o
-6 -8 2 3.547 1.894 0.575 126.900 o
-6 -8 3 42.957 39.560 1.541 6.143 o
-6 -8 4 14.894 14.191 1.049 23.846 o
-6 -8 5 5.262 4.644 0.772 71.193 o
-6 -8 6 38.642 44.320 2.049 5.875 o
-6 -7 1 46.770 45.973 1.541 5.310 o
-6 -7 2 3.347 2.998 0.588 118.424 o
-6 -7 3 8.855 12.216 0.923 36.608 o
-6 -7 4 0.298 -0.761 0.475 481.623 o
-6 -7 5 57.502 60.371 1.951 3.659 o
-6 -7 6 8.841 11.828 0.984 35.887 o
-6 -7 7 1.257 2.583 0.665 157.514 o
-6 -7 8 40.060 41.928 2.053 5.844 o
-6 -6 1 1.500 2.066 0.472 216.086 o
-6 -6 2 62.774 59.898 1.559 3.502 o
-6 -6 3 124.791 130.782 2.850 1.035 o
-6 -6 4 2.231 2.764 0.620 139.031 o
-6 -6 5 190.309 197.447 4.056 0.488 o
-6 -6 6 389.745 391.002 6.775 0.132 o
-6 -6 7 34.091 37.023 1.531 7.753 o
-6 -6 8 4.976 4.094 0.704 80.019 o
-6 -6 9 0.156 1.424 0.852 151.566 o
-6 -5 1 51.633 56.085 2.579 3.833 o
-6 -5 2 548.618 552.167 8.060 0.069 o
-6 -5 3 550.803 556.453 8.167 0.068 o
-6 -5 4 292.474 288.592 5.137 0.230 o
-6 -5 5 35.155 32.870 1.304 8.274 o
-6 -5 6 2.761 1.652 0.535 156.166 o
-6 -5 7 3.774 3.360 0.641 102.692 o
-6 -5 8 3.717 3.980 0.840 80.887 o
-6 -5 9 15.967 13.244 1.193 21.928 o
-6 -5 10 8.622 8.751 2.029 20.218 o
-6 -4 1 639.928 635.876 9.145 0.052 o
-6 -4 2 350.607 335.084 5.154 0.169 o
-6 -4 3 2.062 2.430 0.441 188.378 o
-6 -4 4 0.023 0.088 0.346 995.525 o
-6 -4 5 27.726 28.252 0.978 11.502 o
-6 -4 6 0.206 -0.288 0.392 704.448 o
-6 -4 7 9.328 8.142 0.758 44.246 o
-6 -4 8 11.661 10.392 1.117 29.749 o
-6 -4 9 3.941 3.848 0.783 84.385 o
-6 -4 10 43.453 46.598 2.288 5.015 o
-6 -3 1 27.302 28.119 1.125 11.362 o
-6 -3 2 85.495 88.418 1.807 2.038 o
-6 -3 3 19.858 20.981 0.936 17.316 o
-6 -3 4 0.688 0.361 0.332 548.532 o
-6 -3 5 45.426 40.306 1.169 6.058 o
-6 -3 6 0.752 1.087 0.400 371.506 o
-6 -3 7 64.642 68.157 1.864 3.102 o
-6 -3 8 46.205 51.153 1.860 4.890 o
-6 -3 9 51.912 57.175 2.014 4.095 o
-6 -3 10 1.833 3.245 0.842 105.075 o
-6 -3 11 0.191 -0.233 0.703 247.224 o
-6 -2 1 6.892 6.221 0.494 67.674 o
-6 -2 2 4.273 2.884 0.392 123.728 o
-6 -2 3 20.668 16.225 0.740 19.340 o
-6 -2 4 25.831 22.131 0.848 13.857 o
-6 -2 5 186.654 172.851 2.962 0.556 o
-6 -2 6 117.614 117.014 2.249 1.208 o
-6 -2 7 10.671 11.687 0.841 34.684 o
-6 -2 8 0.007 -0.615 0.415 742.747 o
-6 -2 9 25.226 26.839 1.266 11.979 o
-6 -2 10 1.631 1.361 0.713 151.902 o
-6 -2 11 1.508 2.380 0.830 118.468 o
-6 -1 1 56.923 61.122 1.397 3.876 o
-6 -1 2 223.586 182.822 3.051 0.430 o
-6 -1 3 192.581 165.117 2.813 0.550 o
-6 -1 4 1.009 1.378 0.354 346.196 o
-6 -1 5 55.573 62.615 1.420 3.909 o
-6 -1 6 8.904 10.116 0.744 42.844 o
-6 -1 7 12.910 12.926 0.836 29.531 o
-6 -1 8 38.546 35.017 1.371 7.333 o
-6 -1 9 47.602 46.643 1.542 5.187 o
-6 -1 10 1.264 -0.020 0.601 236.834 o
-6 -1 11 13.004 11.049 1.597 21.413 o
-6 0 1 153.751 149.771 2.611 0.765 o
-6 0 2 1.362 1.801 0.406 259.035 o
-6 0 3 2.946 2.829 0.376 160.267 o
-6 0 4 2.976 3.504 0.389 147.300 o
-6 0 5 462.096 450.491 7.411 0.098 o
-6 0 6 63.745 64.985 1.743 3.258 o
-6 0 7 0.014 0.001 0.403 784.327 o
-6 0 8 16.642 16.747 0.990 21.254 o
-6 0 9 5.433 4.670 0.644 77.590 o
-6 0 10 0.000 -0.303 0.569 397.963 o
-6 0 11 1.050 1.001 0.676 188.933 o
-6 1 1 119.744 112.326 2.107 1.217 o
-6 1 2 188.267 179.275 3.015 0.538 o
-6 1 3 125.785 123.473 2.242 1.087 o
-6 1 4 5.846 7.996 0.645 62.978 o
-6 1 5 23.732 26.010 1.080 13.291 o
-6 1 6 97.306 103.767 2.356 1.577 o
-6 1 7 9.545 10.017 0.782 40.369 o
-6 1 8 33.703 33.024 1.266 8.627 o
-6 1 9 17.636 17.302 0.993 20.106 o
-6 1 10 2.241 1.406 0.585 165.181 o
-6 1 11 3.832 5.028 0.861 74.164 o
-6 2 1 84.334 86.114 2.024 2.070 o
-6 2 2 6.468 5.355 0.563 70.985 o
-6 2 3 58.434 54.392 1.613 3.924 o
-6 2 4 0.068 -0.693 0.877 165.216 o
-6 2 5 149.748 143.709 3.435 0.783 o
-6 2 6 5.810 6.679 0.958 53.305 o
-6 2 7 16.446 16.343 1.151 20.444 o
-6 2 8 0.119 0.396 0.549 371.866 o
-6 2 9 2.987 3.392 0.721 104.319 o
-6 2 10 10.399 11.170 1.292 28.256 o
-6 2 11 37.149 36.995 2.137 6.414 o
-6 3 1 26.890 24.145 1.100 12.306 o
-6 3 2 39.534 43.940 1.395 6.445 o
-6 3 3 42.420 44.160 1.727 5.756 o
-6 3 4 0.060 0.116 0.525 440.722 o
-6 3 5 29.655 28.797 1.448 9.820 o
-6 3 6 20.428 22.368 1.379 14.578 o
-6 3 7 11.924 10.575 1.010 30.798 o
-6 3 8 7.233 7.446 0.880 49.193 o
-6 3 9 13.868 14.192 1.186 23.624 o
-6 3 10 18.110 22.057 1.734 13.966 o
-6 4 1 15.228 11.907 0.845 26.759 o
-6 4 2 44.530 38.205 1.638 5.941 o
-6 4 3 27.836 22.350 2.270 8.929 o
-6 4 4 0.796 0.531 0.548 284.451 o
-6 4 5 18.102 18.372 1.629 15.428 o
-6 4 6 24.973 26.673 1.549 11.261 o
-6 4 7 14.533 14.772 1.166 22.826 o
-6 4 8 26.100 29.364 1.579 10.416 o
-6 4 9 2.765 2.482 0.737 112.222 o
-6 5 1 0.060 -0.893 0.666 284.749 o
-6 5 2 1.932 2.589 0.876 103.191 o
-6 5 3 34.809 32.211 1.868 7.537 o
-6 5 4 26.762 28.514 1.603 10.285 o
-6 5 5 31.261 31.012 1.670 8.702 o
-6 5 6 0.703 0.181 0.604 269.187 o
-6 5 7 0.005 -0.269 0.610 345.062 o
-6 5 8 56.539 62.437 2.343 3.488 o
-6 6 2 10.277 9.437 1.387 28.012 o
-6 6 3 0.018 -0.430 0.788 206.688 o
-6 6 4 1.883 2.140 0.963 94.323 o
-6 6 5 12.574 17.629 2.917 10.174 o
-5 -11 1 0.004 -1.104 0.683 276.106 o
-5 -10 1 7.935 11.622 1.189 33.694 o
-5 -10 2 19.249 17.453 1.385 16.508 o
-5 -10 3 28.160 22.976 1.568 10.784 o
-5 -10 4 21.017 22.537 1.610 13.242 o
-5 -9 1 165.342 147.588 3.212 0.694 o
-5 -9 2 0.193 0.475 0.934 138.078 o
-5 -9 3 12.328 10.819 1.126 28.312 o
-5 -9 4 11.333 12.672 1.227 26.997 o
-5 -9 5 13.249 12.112 1.166 25.731 o
-5 -9 6 1.354 2.109 0.860 117.764 o
-5 -8 1 2.024 0.856 0.461 224.525 o
-5 -8 2 21.146 19.837 1.122 16.040 o
-5 -8 3 26.142 25.099 1.205 12.132 o
-5 -8 4 25.823 27.117 1.256 11.739 o
-5 -8 5 2.449 1.514 0.697 133.720 o
-5 -8 6 1.323 0.168 0.757 165.854 o
-5 -8 7 20.244 19.766 1.496 14.746 o
-5 -7 1 56.640 55.699 1.958 3.854 o
-5 -7 2 44.829 45.616 1.489 5.581 o
-5 -7 3 7.914 7.620 0.723 51.164 o
-5 -7 4 38.550 39.405 1.436 6.896 o
-5 -7 5 34.643 36.325 1.416 7.875 o
-5 -7 6 60.968 61.729 1.879 3.448 o
-5 -7 7 25.249 23.103 1.452 12.089 o
-5 -7 8 6.621 5.773 0.938 52.659 o
-5 -7 9 1.817 3.067 1.268 61.063 o
-5 -6 1 10.838 10.925 0.792 35.926 o
-5 -6 2 307.047 309.189 5.357 0.207 o
-5 -6 3 343.895 340.824 5.834 0.169 o
-5 -6 4 30.698 29.977 1.198 9.871 o
-5 -6 5 5.887 5.901 0.657 68.766 o
-5 -6 6 3.599 2.734 0.568 118.752 o
-5 -6 7 28.642 27.731 1.400 10.363 o
-5 -6 8 34.508 32.269 1.387 8.354 o
-5 -6 9 3.665 5.846 0.851 73.119 o
-5 -6 10 2.299 6.088 1.776 32.382 o
-5 -5 1 202.457 199.976 2.947 0.464 o
-5 -5 2 13.108 15.517 0.750 28.094 o
-5 -5 3 0.239 0.170 0.266 1100.390 o
-5 -5 4 4.946 5.098 0.577 84.191 o
-5 -5 5 0.111 0.060 0.386 763.902 o
-5 -5 6 6.288 5.915 0.644 66.703 o
-5 -5 7 4.114 3.929 0.624 96.230 o
-5 -5 8 105.327 114.715 2.632 1.351 o
-5 -5 9 4.232 3.262 0.631 98.275 o
-5 -5 10 7.383 6.473 1.031 45.334 o
-5 -4 1 0.301 0.308 0.215 1160.990 o
-5 -4 2 28.557 24.869 0.677 12.383 o
-5 -4 3 22.997 22.090 0.661 15.882 o
-5 -4 4 106.354 105.071 1.988 1.450 o
-5 -4 5 68.608 73.307 1.570 2.880 o
-5 -4 6 30.525 32.402 1.015 9.888 o
-5 -4 7 18.699 17.907 0.944 19.263 o
-5 -4 8 86.485 91.427 2.189 1.932 o
-5 -4 9 2.076 2.208 0.652 143.269 o
-5 -4 10 5.692 6.152 0.943 55.582 o
-5 -4 11 2.507 3.306 0.917 87.525 o
-5 -3 1 67.621 64.585 1.371 3.167 o
-5 -3 2 267.128 254.256 3.938 0.283 o
-5 -3 3 27.463 28.733 0.869 11.722 o
-5 -3 4 176.594 204.357 3.023 0.535 o
-5 -3 5 24.933 24.334 0.850 13.754 o
-5 -3 6 8.197 7.695 0.547 54.608 o
-5 -3 7 2.968 3.353 0.433 143.651 o
-5 -3 8 1.266 -0.045 0.354 418.483 o
-5 -3 9 7.917 8.529 0.764 48.227 o
-5 -3 10 4.143 6.201 0.955 62.402 o
-5 -3 11 0.035 0.652 0.841 169.727 o
-5 -3 12 6.439 7.153 1.088 45.260 o
-5 -2 1 88.197 107.214 1.925 1.753 o
-5 -2 2 10.216 10.795 0.553 41.377 o
-5 -2 3 10.545 5.240 0.413 52.407 o
-5 -2 4 172.323 166.880 2.776 0.626 o
-5 -2 5 6.163 4.327 0.423 84.403 o
-5 -2 6 44.369 40.153 0.956 6.350 o
-5 -2 7 54.713 54.361 1.302 4.316 o
-5 -2 8 4.530 4.499 0.589 90.829 o
-5 -2 9 0.206 -0.127 0.424 615.963 o
-5 -2 10 5.951 4.769 0.742 67.831 o
-5 -2 11 0.094 -0.372 0.604 340.594 o
-5 -2 12 5.551 5.658 0.978 55.691 o
-5 -1 1 293.686 256.595 3.928 0.250 o
-5 -1 2 138.762 152.546 2.545 0.852 o
-5 -1 3 129.380 132.950 2.070 1.016 o
-5 -1 4 66.635 56.895 1.101 3.481 o
-5 -1 5 0.496 -0.147 0.167 1307.220 o
-5 -1 6 2.159 2.734 0.343 199.242 o
-5 -1 7 1.528 1.236 0.311 313.395 o
-5 -1 8 0.216 -0.334 0.364 791.013 o
-5 -1 9 3.100 2.273 0.506 143.391 o
-5 -1 10 40.535 35.750 1.789 6.477 o
-5 -1 11 4.084 3.312 0.879 77.406 o
-5 -1 12 8.907 11.662 1.081 34.022 o
-5 0 1 110.363 98.676 1.804 1.449 o
-5 0 2 41.814 36.045 1.201 6.871 o
-5 0 3 14.165 12.419 0.485 31.120 o
-5 0 4 35.989 33.263 0.752 8.677 o
-5 0 5 13.507 17.483 0.533 27.701 o
-5 0 6 18.932 18.001 0.858 19.487 o
-5 0 7 0.824 0.398 0.385 436.773 o
-5 0 8 1.842 2.187 0.452 201.267 o
-5 0 9 8.063 8.173 0.702 50.057 o
-5 0 10 2.711 3.345 0.693 112.304 o
-5 0 11 40.277 40.454 1.696 6.291 o
-5 0 12 19.587 20.806 1.366 15.475 o
-5 0 13 43.537 49.278 2.776 4.468 o
-5 1 1 40.966 46.347 0.943 6.402 o
-5 1 2 85.905 85.581 1.451 2.103 o
-5 1 3 7.915 8.609 0.714 49.449 o
-5 1 4 105.103 102.437 1.679 1.509 o
-5 1 5 4.991 3.806 0.477 97.699 o
-5 1 6 60.750 60.515 1.538 3.608 o
-5 1 7 101.634 103.479 2.256 1.517 o
-5 1 8 13.377 16.137 0.887 26.015 o
-5 1 9 5.180 5.376 0.624 77.919 o
-5 1 10 47.593 49.127 1.836 4.872 o
-5 1 11 198.302 197.493 4.423 0.460 o
-5 1 12 85.414 86.779 2.617 1.950 o
-5 1 13 5.740 7.241 1.280 40.559 o
-5 2 1 10.863 10.057 0.614 39.682 o
-5 2 2 3.489 3.508 0.318 141.602 o
-5 2 3 2.399 1.769 0.473 180.480 o
-5 2 4 43.134 38.636 1.333 6.364 o
-5 2 5 9.178 8.577 0.642 46.642 o
-5 2 6 93.308 86.655 2.002 1.854 o
-5 2 7 189.888 187.610 3.527 0.512 o
-5 2 8 272.123 271.452 4.802 0.262 o
-5 2 9 284.404 280.053 4.982 0.243 o
-5 2 10 60.357 65.472 2.097 3.305 o
-5 2 11 0.003 -0.020 0.552 421.860 o
-5 2 12 33.034 34.682 1.937 7.515 o
-5 3 1 4.938 2.709 0.445 108.731 o
-5 3 2 1.176 1.680 0.384 291.237 o
-5 3 3 1.350 0.810 0.346 343.551 o
-5 3 4 2.247 2.272 0.608 147.156 o
-5 3 5 118.797 111.614 2.826 1.192 o
-5 3 6 272.467 270.735 5.479 0.258 o
-5 3 7 594.033 588.954 10.712 0.059 o
-5 3 8 29.064 31.838 1.574 9.311 o
-5 3 9 17.711 17.896 1.196 18.531 o
-5 3 10 61.228 64.341 4.170 2.470 o
-5 3 11 3.594 2.138 0.873 87.416 o
-5 3 12 0.888 0.940 0.909 125.928 o
-5 4 1 7.862 9.214 0.691 49.128 o
-5 4 2 1.132 1.265 0.404 306.487 o
-5 4 3 362.360 336.997 5.760 0.160 o
-5 4 4 443.000 426.023 8.063 0.105 o
-5 4 5 133.579 131.999 3.247 0.939 o
-5 4 6 4.163 5.089 0.750 79.502 o
-5 4 7 1.211 1.806 0.596 193.820 o
-5 4 8 20.011 20.265 1.257 15.933 o
-5 4 9 8.366 7.058 1.044 41.293 o
-5 4 10 27.212 32.347 1.953 8.826 o
-5 4 11 1.396 0.370 0.828 140.838 o
-5 5 1 251.453 245.698 4.544 0.307 o
-5 5 2 129.393 126.528 2.740 1.018 o
-5 5 3 95.609 88.203 2.545 1.729 o
-5 5 4 2.299 2.573 0.594 144.624 o
-5 5 5 10.910 11.806 1.065 30.618 o
-5 5 6 0.025 0.492 0.518 419.714 o
-5 5 7 6.953 6.434 0.815 54.674 o
-5 5 8 10.443 11.675 1.045 31.837 o
-5 5 9 5.841 6.194 0.879 57.727 o
-5 5 10 45.521 45.403 2.284 4.886 o
-5 5 11 43.882 51.620 3.932 3.452 o
-5 6 1 0.144 0.298 0.525 406.168 o
-5 6 2 6.452 5.139 0.999 52.088 o
-5 6 3 2.956 2.771 0.890 88.739 o
-5 6 4 1.083 2.665 0.693 154.067 o
-5 6 5 0.614 0.814 0.605 250.981 o
-5 6 6 0.816 0.441 0.605 249.883 o
-5 6 7 76.216 79.203 2.547 2.299 o
-5 6 8 109.958 116.407 3.774 1.193 o
-5 6 9 69.120 77.665 2.590 2.537 o
-5 7 1 21.494 24.386 1.922 11.443 o
-5 7 2 24.359 26.564 2.016 9.997 o
-5 7 3 0.751 1.437 0.879 130.784 o
-5 7 4 32.217 31.915 2.187 7.435 o
-5 7 5 87.587 85.028 3.312 1.809 o
-5 7 6 115.055 138.209 4.479 0.991 o
-5 7 7 69.203 79.069 8.054 1.177 o
-4 -11 1 0.334 0.663 0.746 197.603 o
-4 -11 2 2.674 0.408 0.778 124.776 o
-4 -10 1 4.394 5.281 1.130 53.842 o
-4 -10 2 4.062 3.657 0.822 80.853 o
-4 -10 3 5.959 4.541 1.336 41.346 o
-4 -10 4 0.584 -0.228 0.686 232.353 o
-4 -9 1 20.951 21.892 1.629 13.314 o
-4 -9 2 9.905 12.142 1.254 28.877 o
-4 -9 3 9.906 9.167 1.046 35.209 o
-4 -9 4 7.561 5.819 0.903 50.235 o
-4 -9 5 6.516 6.351 1.006 49.292 o
-4 -9 6 8.416 7.110 1.030 41.493 o
-4 -8 1 50.832 48.521 1.529 4.790 o
-4 -8 2 19.779 19.059 1.026 17.609 o
-4 -8 3 7.379 8.817 0.721 50.961 o
-4 -8 4 5.762 3.361 0.747 73.757 o
-4 -8 5 17.293 14.608 1.179 20.254 o
-4 -8 6 17.983 18.651 1.347 17.142 o
-4 -8 7 5.171 7.399 1.263 42.336 o
-4 -8 8 1.406 0.837 0.748 156.079 o
-4 -7 1 1.005 0.234 0.347 457.397 o
-4 -7 2 0.542 0.213 0.363 573.979 o
-4 -7 3 144.633 136.065 2.819 0.860 o
-4 -7 4 1.911 1.912 0.453 204.223 o
-4 -7 5 0.951 1.733 0.493 253.463 o
-4 -7 6 0.709 0.766 0.568 268.349 o
-4 -7 7 0.001 0.138 0.586 364.959 o
-4 -7 8 3.177 3.297 0.791 94.375 o
-4 -7 9 18.376 19.386 1.586 15.285 o
-4 -6 1 67.735 60.830 1.561 3.210 o
-4 -6 2 12.216 10.640 0.708 34.462 o
-4 -6 3 71.638 64.546 1.654 2.920 o
-4 -6 4 4.027 4.041 0.544 103.903 o
-4 -6 5 3.325 5.157 0.612 99.476 o
-4 -6 6 239.991 250.391 6.220 0.307 o
-4 -6 7 19.365 17.223 1.004 18.686 o
-4 -6 8 9.515 11.979 0.904 35.767 o
-4 -6 9 0.002 -0.393 0.545 433.954 o
-4 -6 10 4.851 3.921 1.193 51.513 o
-4 -5 1 16.923 19.379 1.075 19.324 o
-4 -5 2 7.759 7.690 0.568 56.140 o
-4 -5 3 126.649 125.226 2.503 1.059 o
-4 -5 4 255.738 261.939 5.587 0.283 o
-4 -5 5 58.958 61.627 1.611 3.659 o
-4 -5 6 59.902 65.654 1.712 3.454 o
-4 -5 7 100.462 101.660 2.321 1.545 o
-4 -5 8 0.071 0.418 0.443 545.858 o
-4 -5 9 27.950 25.556 1.182 11.450 o
-4 -5 10 4.032 4.199 0.701 88.847 o
-4 -5 11 7.405 4.945 0.920 51.889 o
-4 -4 1 347.773 373.938 4.991 0.159 o
-4 -4 2 271.902 297.306 4.048 0.251 o
-4 -4 3 1.978 0.577 0.181 352.546 o
-4 -4 4 0.058 0.129 0.186 2477.860 o
-4 -4 5 16.559 12.749 0.523 26.763 o
-4 -4 6 95.280 85.260 1.721 1.854 o
-4 -4 7 0.359 -0.315 0.310 877.140 o
-4 -4 8 3.604 2.533 0.454 135.284 o
-4 -4 9 66.968 65.679 3.280 2.603 o
-4 -4 10 0.162 0.520 0.480 443.124 o
-4 -4 11 0.020 0.113 0.930 147.120 o
-4 -4 12 0.403 1.319 0.795 164.064 o
-4 -3 1 29.745 25.123 0.605 11.963 o
-4 -3 2 242.455 241.935 3.369 0.331 o
-4 -3 3 10.019 6.272 0.350 53.500 o
-4 -3 4 144.985 149.492 2.257 0.828 o
-4 -3 5 29.893 30.968 0.785 10.632 o
-4 -3 6 0.745 0.814 0.299 504.868 o
-4 -3 7 3.517 2.145 0.398 150.097 o
-4 -3 8 6.247 5.510 0.509 74.447 o
-4 -3 9 68.587 64.155 1.520 3.097 o
-4 -3 10 4.927 6.726 0.651 73.008 o
-4 -3 11 7.076 7.094 1.026 45.503 o
-4 -3 12 35.792 41.424 2.150 6.284 o
-4 -2 1 246.739 242.015 3.353 0.324 o
-4 -2 2 190.628 158.473 2.164 0.578 o
-4 -2 3 189.731 214.651 2.653 0.482 o
-4 -2 4 6.571 3.935 0.307 87.033 o
-4 -2 5 191.459 204.235 2.942 0.489 o
-4 -2 6 27.459 37.422 0.962 10.129 o
-4 -2 7 27.831 28.233 0.878 11.661 o
-4 -2 8 0.467 0.328 0.308 697.062 o
-4 -2 9 52.486 49.604 1.262 4.721 o
-4 -2 10 119.097 125.029 3.027 1.107 o
-4 -2 11 29.772 33.280 1.503 9.110 o
-4 -2 12 28.158 29.143 1.768 9.419 o
-4 -2 13 1.895 1.755 0.812 120.386 o
-4 -1 1 31.567 39.226 0.801 8.978 o
-4 -1 2 146.168 148.096 2.170 0.827 o
-4 -1 3 156.909 208.422 2.915 0.602 o
-4 -1 4 106.857 131.181 1.974 1.265 o
-4 -1 5 74.648 91.758 1.494 2.334 o
-4 -1 6 149.580 170.155 2.502 0.734 o
-4 -1 7 191.132 206.632 2.971 0.486 o
-4 -1 8 86.087 94.562 1.807 1.949 o
-4 -1 9 127.607 125.717 2.298 1.057 o
-4 -1 10 26.635 26.992 1.300 11.359 o
-4 -1 11 5.126 5.500 0.753 70.267 o
-4 -1 12 3.283 3.437 0.719 100.249 o
-4 -1 13 0.143 1.542 0.654 230.253 o
-4 0 1 85.928 109.120 1.564 1.812 o
-4 0 2 152.296 190.269 2.337 0.671 o
-4 0 3 3.290 7.128 0.344 107.158 o
-4 0 4 271.171 271.033 3.685 0.268 o
-4 0 5 257.239 242.162 3.331 0.308 o
-4 0 6 194.886 201.912 3.134 0.480 o
-4 0 7 98.123 92.581 1.982 1.697 o
-4 0 8 73.135 72.379 1.735 2.683 o
-4 0 9 43.683 39.397 1.240 6.307 o
-4 0 10 0.004 -0.124 0.460 608.199 o
-4 0 11 35.707 38.828 1.565 7.258 o
-4 0 12 25.682 24.097 1.375 11.993 o
-4 0 13 6.976 6.720 0.867 52.024 o
-4 1 1 472.235 500.978 6.649 0.090 o
-4 1 2 133.175 109.174 1.552 1.109 o
-4 1 3 183.719 194.336 2.534 0.534 o
-4 1 4 54.369 56.824 0.929 4.366 o
-4 1 5 339.145 335.657 5.462 0.175 o
-4 1 6 18.789 17.171 0.752 20.498 o
-4 1 7 19.652 17.509 0.814 19.316 o
-4 1 8 230.525 219.851 3.911 0.368 o
-4 1 9 232.315 224.299 4.022 0.359 o
-4 1 10 4.258 4.020 0.879 73.425 o
-4 1 11 119.921 122.221 3.028 1.112 o
-4 1 12 81.373 90.702 2.590 2.003 o
-4 1 13 27.705 26.485 1.509 10.553 o
-4 1 14 0.035 0.254 1.141 97.149 o
-4 2 1 95.286 108.250 1.841 1.616 o
-4 2 2 2.721 3.723 0.301 163.096 o
-4 2 3 57.692 49.047 0.856 4.432 o
-4 2 4 62.376 63.120 1.007 3.568 o
-4 2 5 948.040 904.259 12.515 0.025 o
-4 2 6 324.390 320.136 5.320 0.190 o
-4 2 7 125.467 124.188 2.476 1.077 o
-4 2 8 78.334 77.325 1.802 2.402 o
-4 2 9 407.469 408.438 6.736 0.122 o
-4 2 10 207.815 208.668 4.583 0.421 o
-4 2 11 13.313 13.780 1.040 26.051 o
-4 2 12 18.944 15.032 1.123 19.143 o
-4 2 13 1.488 1.977 0.707 148.900 o
-4 3 1 111.880 106.799 2.168 1.347 o
-4 3 2 294.239 294.051 4.921 0.227 o
-4 3 3 869.450 879.734 12.195 0.028 o
-4 3 4 682.860 648.588 7.800 0.047 o
-4 3 5 21.601 20.165 0.841 16.807 o
-4 3 6 1240.140 1203.500 18.191 0.014 o
-4 3 7 454.035 452.212 7.316 0.100 o
-4 3 8 1.575 2.480 0.540 181.858 o
-4 3 9 0.034 -0.508 0.368 919.001 o
-4 3 10 0.083 -0.138 0.392 778.414 o
-4 3 11 16.502 16.622 1.121 20.501 o
-4 3 12 12.890 13.523 1.093 26.154 o
-4 3 13 16.817 15.808 1.186 20.103 o
-4 4 1 796.734 769.991 11.950 0.034 o
-4 4 2 38.188 42.116 1.244 6.928 o
-4 4 3 274.121 252.848 4.393 0.273 o
-4 4 4 379.314 363.237 6.015 0.144 o
-4 4 5 26.435 26.440 1.173 11.857 o
-4 4 6 54.947 54.393 1.784 4.093 o
-4 4 7 8.075 6.884 0.745 51.340 o
-4 4 8 0.016 -0.122 0.372 915.336 o
-4 4 9 106.210 102.571 2.311 1.448 o
-4 4 10 46.123 47.924 1.578 5.250 o
-4 4 11 18.709 18.773 2.153 12.204 o
-4 4 12 0.032 -0.465 0.732 238.229 o
-4 4 13 1.812 1.643 0.913 105.312 o
-4 5 1 57.441 61.763 1.619 3.746 o
-4 5 2 136.607 118.799 2.503 0.999 o
-4 5 3 5.376 6.362 0.559 75.708 o
-4 5 4 17.050 18.889 0.837 20.851 o
-4 5 5 95.188 89.959 2.422 1.735 o
-4 5 6 144.727 140.828 3.327 0.826 o
-4 5 7 49.623 45.393 1.940 4.786 o
-4 5 8 0.049 -0.931 0.394 795.633 o
-4 5 9 6.339 7.549 0.871 52.807 o
-4 5 10 3.578 3.460 0.734 94.905 o
-4 5 11 0.432 0.703 0.725 201.979 o
-4 5 12 8.274 9.683 1.288 32.715 o
-4 6 1 5.663 6.375 0.779 62.852 o
-4 6 2 157.663 141.117 3.244 0.751 o
-4 6 3 102.624 93.232 2.161 1.593 o
-4 6 4 25.272 30.613 1.424 10.888 o
-4 6 5 36.029 35.720 1.542 7.503 o
-4 6 6 0.301 0.937 0.507 350.416 o
-4 6 7 0.122 0.594 0.659 260.826 o
-4 6 8 6.922 7.539 0.867 50.648 o
-4 6 9 0.344 0.440 0.536 350.540 o
-4 6 10 1.821 2.916 0.873 102.967 o
-4 6 11 8.527 10.145 1.277 32.139 o
-4 7 1 29.294 27.720 1.451 10.061 o
-4 7 2 41.954 45.560 1.760 5.699 o
-4 7 3 12.309 12.912 3.107 9.776 o
-4 7 4 0.428 0.010 0.607 299.175 o
-4 7 5 6.300 5.501 0.879 57.193 o
-4 7 6 1.590 2.614 0.653 150.344 o
-4 7 7 0.505 0.535 0.590 280.944 o
-4 7 8 23.631 29.101 1.600 11.144 o
-4 7 9 0.008 -0.536 0.575 387.767 o
-4 7 10 2.928 2.703 0.895 88.837 o
-4 8 1 1.262 1.266 0.596 204.085 o
-4 8 2 1.787 0.127 0.805 140.233 o
-4 8 3 2.117 2.112 0.926 96.884 o
-4 8 4 0.003 -0.074 0.779 212.271 o
-4 8 5 1.905 0.447 0.792 137.296 o
-4 8 6 3.043 3.409 1.004 74.266 o
-4 8 7 1.043 0.016 0.779 170.051 o
-3 -11 1 4.105 3.436 0.920 73.530 o
-3 -11 2 4.478 6.126 1.574 34.965 o
-3 -10 1 14.087 12.538 1.185 24.290 o
-3 -10 2 9.252 11.144 1.188 31.818 o
-3 -10 3 14.212 14.052 1.666 18.697 o
-3 -10 4 33.099 30.456 1.867 8.007 o
-3 -10 5 14.607 13.255 1.902 16.658 o
-3 -9 1 33.373 33.247 1.625 8.110 o
-3 -9 2 166.253 149.982 3.733 0.671 o
-3 -9 3 16.185 14.794 1.415 19.206 o
-3 -9 4 0.006 0.540 0.681 255.850 o
-3 -9 5 15.801 18.324 1.389 18.415 o
-3 -9 6 0.031 -0.006 0.636 314.922 o
-3 -8 1 9.748 12.421 0.763 37.170 o
-3 -8 2 1.752 0.507 0.696 165.772 o
-3 -8 3 2.243 0.433 0.915 107.343 o
-3 -8 4 0.002 0.290 0.531 425.493 o
-3 -8 5 48.010 46.849 1.899 4.895 o
-3 -8 6 2.233 1.849 0.716 131.004 o
-3 -8 7 0.146 -0.125 0.601 337.782 o
-3 -8 8 11.017 9.573 1.075 32.168 o
-3 -7 1 107.051 102.325 2.209 1.445 o
-3 -7 2 152.708 140.059 2.811 0.795 o
-3 -7 3 36.216 35.723 1.194 7.906 o
-3 -7 4 0.475 0.428 0.352 580.152 o
-3 -7 5 13.295 12.714 1.068 26.451 o
-3 -7 6 20.307 21.675 1.446 14.492 o
-3 -7 7 53.351 55.285 2.032 4.052 o
-3 -7 8 19.648 17.487 1.281 16.852 o
-3 -7 9 0.297 0.023 0.679 255.178 o
-3 -6 1 4.038 4.828 0.454 105.570 o
-3 -6 2 26.217 28.835 0.985 11.936 o
-3 -6 3 52.027 55.096 1.451 4.441 o
-3 -6 4 220.725 213.574 3.867 0.395 o
-3 -6 5 90.378 86.948 2.072 1.908 o
-3 -6 6 31.343 29.501 1.189 9.776 o
-3 -6 7 0.026 0.235 0.400 713.282 o
-3 -6 8 0.704 0.228 0.723 201.099 o
-3 -6 9 0.036 -0.142 0.582 374.205 o
-3 -6 10 0.565 0.097 0.681 233.795 o
-3 -5 1 731.451 699.115 10.740 0.041 o
-3 -5 2 1052.050 1079.170 16.287 0.019 o
-3 -5 3 208.111 212.641 4.462 0.417 o
-3 -5 4 1.360 2.480 0.391 239.984 o
-3 -5 5 3.486 2.955 0.274 153.949 o
-3 -5 6 8.140 8.247 0.430 56.288 o
-3 -5 7 13.877 13.446 0.691 29.042 o
-3 -5 8 1.441 1.807 0.496 217.998 o
-3 -5 9 1.293 0.650 0.482 275.490 o
-3 -5 10 2.082 2.704 1.295 58.790 o
-3 -5 11 7.043 5.969 1.007 48.093 o
-3 -4 1 126.935 141.051 2.525 0.986 o
-3 -4 2 28.387 21.994 0.832 12.767 o
-3 -4 3 2.303 0.444 0.243 298.565 o
-3 -4 4 4.683 6.214 0.319 95.298 o
-3 -4 5 40.950 37.683 0.933 7.095 o
-3 -4 6 10.094 8.652 0.404 47.468 o
-3 -4 7 10.156 8.868 0.662 42.589 o
-3 -4 8 194.830 185.927 3.121 0.505 o
-3 -4 9 0.220 0.302 0.359 708.073 o
-3 -4 10 8.529 12.136 0.958 36.743 o
-3 -4 11 9.239 10.477 0.915 37.885 o
-3 -4 12 7.595 7.875 0.911 46.217 o
-3 -3 1 69.226 65.059 1.069 3.133 o
-3 -3 2 107.267 118.857 1.752 1.351 o
-3 -3 3 6.093 9.141 0.369 66.974 o
-3 -3 4 28.946 27.567 0.643 11.750 o
-3 -3 5 0.452 0.596 0.185 909.916 o
-3 -3 6 3.887 1.605 0.241 166.246 o
-3 -3 7 3.874 2.495 0.338 142.733 o
-3 -3 8 449.185 472.679 7.533 0.098 o
-3 -3 9 1.213 -0.008 0.360 423.469 o
-3 -3 10 34.477 36.932 1.240 8.078 o
-3 -3 11 6.551 8.315 0.695 56.518 o
-3 -3 12 0.570 1.141 0.713 191.481 o
-3 -3 13 0.126 -0.835 0.699 254.626 o
-3 -2 1 83.460 105.746 1.255 1.928 o
-3 -2 2 17.636 15.271 0.652 23.113 o
-3 -2 3 112.319 121.416 1.668 1.272 o
-3 -2 4 102.874 104.543 1.503 1.539 o
-3 -2 5 259.345 242.391 3.121 0.305 o
-3 -2 6 458.881 464.434 6.631 0.097 o
-3 -2 7 279.945 280.559 3.903 0.252 o
-3 -2 8 189.734 187.055 2.798 0.523 o
-3 -2 9 40.873 41.032 1.239 6.597 o
-3 -2 10 3.264 4.205 0.532 115.903 o
-3 -2 11 1.436 1.024 0.494 243.900 o
-3 -2 12 5.532 6.058 0.821 62.416 o
-3 -2 13 0.210 0.495 0.562 338.649 o
-3 -1 1 333.526 397.783 4.314 0.162 o
-3 -1 2 369.889 356.423 4.099 0.154 o
-3 -1 3 1035.860 1073.330 11.860 0.020 o
-3 -1 4 2294.850 2484.100 28.777 0.004 o
-3 -1 5 92.358 73.863 1.222 2.108 o
-3 -1 6 8.937 8.268 0.349 53.895 o
-3 -1 7 1.720 2.294 0.257 262.285 o
-3 -1 8 1.809 0.759 0.251 335.322 o
-3 -1 9 0.733 -0.087 0.294 674.245 o
-3 -1 10 0.000 -0.106 0.304 1396.270 o
-3 -1 11 5.879 5.793 0.657 69.202 o
-3 -1 12 2.796 3.707 0.726 104.150 o
-3 -1 13 15.447 19.398 1.118 20.241 o
-3 -1 14 38.012 40.139 1.572 6.774 o
-3 0 1 2796.900 3028.680 45.195 0.003 o
-3 0 2 531.070 507.977 6.074 0.077 o
-3 0 3 54.662 49.418 0.789 4.699 o
-3 0 4 284.219 264.603 3.523 0.257 o
-3 0 5 1.500 5.369 0.193 191.807 o
-3 0 6 110.778 104.373 1.590 1.412 o
-3 0 7 8.015 7.743 0.369 59.514 o
-3 0 8 30.146 24.426 0.755 11.722 o
-3 0 9 3.648 2.996 0.319 144.148 o
-3 0 10 1.213 2.111 0.341 286.469 o
-3 0 11 79.920 82.327 2.038 2.240 o
-3 0 12 25.942 27.503 1.240 11.668 o
-3 0 13 7.075 7.967 0.805 51.292 o
-3 0 14 7.649 7.584 0.845 48.566 o
-3 1 1 1216.020 1245.600 14.510 0.015 o
-3 1 2 273.086 307.692 3.766 0.245 o
-3 1 3 387.183 378.178 4.573 0.139 o
-3 1 4 35.313 28.380 0.677 9.535 o
-3 1 5 170.185 174.576 3.010 0.615 o
-3 1 6 15.666 15.527 0.680 25.120 o
-3 1 7 5.328 7.787 0.520 72.261 o
-3 1 8 88.431 90.441 1.863 1.936 o
-3 1 9 98.579 102.667 2.096 1.587 o
-3 1 10 3.238 4.248 0.643 103.712 o
-3 1 11 48.299 40.162 1.542 5.458 o
-3 1 12 7.130 7.586 0.730 54.339 o
-3 1 13 14.187 17.412 1.079 22.626 o
-3 1 14 2.959 3.768 0.765 97.100 o
-3 2 1 371.835 382.633 5.466 0.144 o
-3 2 2 59.671 68.025 1.005 3.583 o
-3 2 3 163.253 180.086 2.326 0.644 o
-3 2 4 0.950 0.327 0.151 703.738 o
-3 2 5 19.575 18.607 1.204 16.969 o
-3 2 6 203.165 208.664 3.573 0.444 o
-3 2 7 228.056 211.507 3.654 0.383 o
-3 2 8 14.040 12.087 0.676 30.024 o
-3 2 9 24.850 25.175 0.933 13.386 o
-3 2 10 43.121 47.284 2.141 5.145 o
-3 2 11 95.457 88.284 2.378 1.751 o
-3 2 12 1.245 0.420 0.611 220.583 o
-3 2 13 2.074 2.022 0.648 146.442 o
-3 2 14 3.653 4.445 0.817 81.386 o
-3 3 1 96.983 118.715 2.231 1.472 o
-3 3 2 49.789 47.548 1.005 5.198 o
-3 3 3 367.966 372.103 5.350 0.149 o
-3 3 4 787.084 737.235 8.759 0.036 o
-3 3 5 19.998 22.180 0.700 17.719 o
-3 3 6 3.312 2.769 0.294 160.253 o
-3 3 7 354.210 361.119 5.900 0.158 o
-3 3 8 36.162 35.420 1.079 8.077 o
-3 3 9 6.380 7.995 0.605 61.413 o
-3 3 10 0.908 1.059 0.376 368.545 o
-3 3 11 6.865 4.833 0.676 65.042 o
-3 3 12 0.788 0.494 0.575 268.728 o
-3 3 13 0.748 2.139 0.654 185.832 o
-3 3 14 0.441 2.226 0.728 170.370 o
-3 4 1 377.992 390.806 6.298 0.138 o
-3 4 2 333.278 318.255 5.238 0.185 o
-3 4 3 30.012 27.946 0.773 11.110 o
-3 4 4 39.008 33.582 0.821 7.925 o
-3 4 5 48.829 46.904 0.797 5.420 o
-3 4 6 3.131 4.238 0.425 130.142 o
-3 4 7 259.532 263.900 4.508 0.283 o
-3 4 8 16.972 15.376 0.792 22.946 o
-3 4 9 0.066 -0.567 0.316 1176.630 o
-3 4 10 7.864 9.065 0.673 49.848 o
-3 4 11 9.552 6.913 0.770 45.231 o
-3 4 12 1.436 1.259 0.590 198.129 o
-3 4 13 0.582 -0.070 0.560 324.513 o
-3 4 14 0.548 2.064 0.735 167.516 o
-3 5 1 0.106 0.046 0.360 872.214 o
-3 5 2 69.004 77.360 1.752 2.743 o
-3 5 3 128.487 123.203 2.451 1.054 o
-3 5 4 16.190 18.651 0.793 22.047 o
-3 5 5 1.738 0.790 0.318 311.372 o
-3 5 6 0.568 0.475 0.255 713.805 o
-3 5 7 138.043 140.410 2.731 0.894 o
-3 5 8 2.567 2.319 0.436 171.568 o
-3 5 9 0.165 -0.534 0.337 938.717 o
-3 5 10 0.415 0.281 0.447 462.330 o
-3 5 11 0.657 0.851 0.495 321.652 o
-3 5 12 6.557 9.162 0.895 48.049 o
-3 5 13 27.076 32.535 2.014 8.691 o
-3 6 1 7.990 5.907 0.537 60.489 o
-3 6 2 2.877 3.645 0.463 138.173 o
-3 6 3 15.341 10.556 0.707 28.860 o
-3 6 4 0.175 0.416 0.276 987.340 o
-3 6 5 14.339 19.366 0.872 23.084 o
-3 6 6 39.884 43.733 1.584 6.235 o
-3 6 7 12.861 10.352 0.884 31.162 o
-3 6 8 40.134 40.554 1.940 6.041 o
-3 6 9 13.159 16.123 1.105 24.163 o
-3 6 10 15.262 19.892 1.238 19.334 o
-3 6 11 8.903 7.892 1.085 37.887 o
-3 6 12 19.406 17.384 1.512 15.696 o
-3 6 13 37.504 42.684 2.249 5.874 o
-3 7 1 0.615 -0.037 0.604 284.518 o
-3 7 2 3.517 3.400 0.632 106.995 o
-3 7 3 91.685 91.930 2.491 1.777 o
-3 7 4 0.200 -0.200 0.323 970.296 o
-3 7 5 5.802 7.138 0.824 58.049 o
-3 7 6 6.447 8.087 0.838 52.457 o
-3 7 7 13.802 16.470 1.131 23.033 o
-3 7 8 16.783 15.648 1.208 20.027 o
-3 7 9 14.104 11.022 1.120 25.888 o
-3 7 10 31.994 33.593 1.612 8.378 o
-3 7 11 22.451 25.201 2.502 9.041 o
-3 7 12 36.077 40.659 3.092 5.073 o
-3 8 1 2.304 1.469 0.587 161.652 o
-3 8 2 0.217 0.198 0.489 453.654 o
-3 8 3 0.048 0.100 0.450 595.782 o
-3 8 4 6.126 4.357 0.920 58.815 o
-3 8 5 0.008 0.411 0.651 283.832 o
-3 8 6 5.561 6.214 1.495 35.346 o
-3 8 7 72.563 71.934 2.294 2.591 o
-3 8 8 40.981 43.478 1.804 5.898 o
-3 8 9 23.250 26.449 1.886 10.738 o
-3 8 10 31.606 32.569 3.043 5.937 o
-3 9 1 3.862 5.313 0.900 70.204 o
-3 9 2 2.184 2.791 0.686 127.890 o
-3 9 3 1.798 4.064 0.964 85.495 o
-3 9 4 35.797 32.998 2.277 6.662 o
-3 9 5 57.373 51.511 2.513 3.665 o
-3 9 6 34.748 41.276 2.362 6.137 o
-3 9 7 14.351 15.946 1.634 18.256 o
-3 9 8 0.013 -0.127 1.268 79.983 o
-2 -11 1 0.835 1.125 0.811 149.704 o
-2 -11 2 0.024 -0.617 0.774 213.941 o
-2 -10 1 3.659 4.184 0.797 84.271 o
-2 -10 2 69.823 68.764 2.171 2.783 o
-2 -10 3 22.035 17.605 1.229 15.677 o
-2 -10 4 4.367 3.884 1.318 47.244 o
-2 -9 1 52.547 57.226 3.139 3.425 o
-2 -9 2 76.067 73.448 2.255 2.455 o
-2 -9 3 72.786 76.278 2.192 2.531 o
-2 -9 4 20.656 20.163 1.390 14.960 o
-2 -9 5 6.683 5.210 0.891 55.538 o
-2 -9 6 0.109 0.450 0.686 248.823 o
-2 -8 1 226.785 236.656 4.423 0.355 o
-2 -8 2 29.099 25.738 1.802 9.521 o
-2 -8 3 0.093 -0.410 0.432 644.415 o
-2 -8 4 4.882 2.357 0.607 97.922 o
-2 -8 5 22.886 21.714 1.400 13.502 o
-2 -8 6 56.406 55.507 2.548 3.589 o
-2 -8 7 20.299 23.986 2.014 11.507 o
-2 -8 8 2.130 3.076 0.845 101.813 o
-2 -7 1 6.865 6.543 0.299 72.579 o
-2 -7 2 15.682 14.843 0.544 26.407 o
-2 -7 3 61.147 56.940 1.707 3.636 o
-2 -7 4 173.295 175.203 5.522 0.547 o
-2 -7 5 63.524 71.353 2.229 2.974 o
-2 -7 6 0.432 1.642 0.665 206.540 o
-2 -7 7 59.558 55.070 3.000 3.215 o
-2 -7 8 8.663 7.955 0.940 42.051 o
-2 -7 9 1.049 0.822 0.713 178.851 o
-2 -6 1 304.463 294.464 3.525 0.222 o
-2 -6 2 342.522 344.134 4.733 0.172 o
-2 -6 3 63.621 69.204 1.411 3.243 o
-2 -6 4 44.723 50.509 1.167 5.515 o
-2 -6 5 47.017 44.635 1.494 5.387 o
-2 -6 6 3.855 2.521 0.425 133.184 o
-2 -6 7 45.251 48.841 2.105 4.902 o
-2 -6 8 0.943 -0.687 0.545 298.033 o
-2 -6 9 0.029 -0.466 0.540 435.350 o
-2 -6 10 2.814 3.135 0.874 90.020 o
-2 -5 1 53.987 62.909 1.222 4.074 o
-2 -5 2 309.827 326.738 4.790 0.200 o
-2 -5 3 12.440 12.074 0.351 36.014 o
-2 -5 4 172.304 159.874 2.317 0.649 o
-2 -5 5 7.417 8.006 0.445 60.391 o
-2 -5 6 2.284 1.844 0.336 217.947 o
-2 -5 7 12.186 11.926 0.689 33.435 o
-2 -5 8 1.220 1.419 0.361 312.672 o
-2 -5 9 6.965 6.729 1.229 39.855 o
-2 -5 10 2.751 3.252 0.817 96.584 o
-2 -5 11 0.001 -0.395 0.689 271.118 o
-2 -4 1 111.793 108.967 2.245 1.329 o
-2 -4 2 37.258 34.080 0.780 8.274 o
-2 -4 3 150.803 154.173 2.173 0.779 o
-2 -4 4 248.513 253.413 3.441 0.312 o
-2 -4 5 92.375 97.005 2.262 1.738 o
-2 -4 6 133.357 136.576 3.016 0.932 o
-2 -4 7 16.073 16.448 0.703 23.918 o
-2 -4 8 24.250 26.205 0.894 13.524 o
-2 -4 9 9.975 8.774 0.671 43.102 o
-2 -4 10 0.284 0.282 0.404 575.654 o
-2 -4 11 5.637 3.830 0.677 77.307 o
-2 -4 12 4.175 5.096 1.201 51.452 o
-2 -3 1 46.547 47.223 0.680 5.714 o
-2 -3 2 563.777 565.722 6.367 0.067 o
-2 -3 3 390.294 364.488 4.435 0.141 o
-2 -3 4 77.936 84.042 1.558 2.344 o
-2 -3 5 9.803 8.612 0.439 48.119 o
-2 -3 6 76.775 68.861 1.324 2.681 o
-2 -3 7 69.037 68.602 2.127 2.829 o
-2 -3 8 73.491 74.047 1.553 2.671 o
-2 -3 9 59.327 62.760 1.431 3.659 o
-2 -3 10 0.602 0.521 0.404 449.125 o
-2 -3 11 6.705 6.192 0.627 63.959 o
-2 -3 12 2.532 1.536 0.775 117.786 o
-2 -3 13 5.789 4.886 0.773 66.806 o
-2 -2 1 20.393 29.839 0.501 15.480 o
-2 -2 2 73.754 65.087 0.776 2.957 o
-2 -2 3 16.038 10.993 0.287 30.168 o
-2 -2 4 170.822 161.351 1.815 0.660 o
-2 -2 5 71.097 80.969 1.238 2.679 o
-2 -2 6 41.248 37.344 0.791 7.169 o
-2 -2 7 4.565 5.107 0.360 102.210 o
-2 -2 8 73.696 68.839 1.299 2.808 o
-2 -2 9 30.704 28.684 0.922 10.533 o
-2 -2 10 181.558 175.297 3.297 0.565 o
-2 -2 11 18.605 17.460 1.302 17.400 o
-2 -2 12 8.007 7.529 0.709 51.362 o
-2 -2 13 1.174 1.206 0.539 234.360 o
-2 -2 14 7.942 7.573 1.068 41.067 o
-2 -1 1 1019.900 1023.190 11.226 0.021 o
-2 -1 2 1068.510 998.881 11.324 0.020 o
-2 -1 3 22.292 22.350 0.367 16.881 o
-2 -1 4 371.411 418.578 4.510 0.138 o
-2 -1 5 49.157 55.086 0.993 4.885 o
-2 -1 6 39.257 34.202 0.627 7.948 o
-2 -1 7 75.388 69.144 1.202 2.748 o
-2 -1 8 54.208 49.842 0.997 4.658 o
-2 -1 9 8.991 7.833 0.506 51.718 o
-2 -1 10 119.618 126.142 2.536 1.122 o
-2 -1 11 4.481 3.784 0.519 101.455 o
-2 -1 12 30.981 33.410 1.221 9.301 o
-2 -1 13 0.209 0.761 0.585 302.323 o
-2 -1 14 9.793 9.789 1.007 35.571 o
-2 0 1 33.909 41.186 0.888 8.137 o
-2 0 2 5.067 7.937 0.333 81.101 o
-2 0 3 455.879 440.966 4.482 0.103 o
-2 0 4 3.375 4.306 0.176 145.213 o
-2 0 5 44.303 41.728 0.655 6.397 o
-2 0 6 120.134 145.484 1.934 1.047 o
-2 0 7 27.259 27.130 0.575 12.607 o
-2 0 8 11.380 10.563 0.363 40.620 o
-2 0 9 171.665 154.783 2.284 0.665 o
-2 0 10 197.325 197.178 3.535 0.476 o
-2 0 11 2.442 2.120 0.432 181.019 o
-2 0 12 23.231 23.105 1.076 14.215 o
-2 0 13 0.019 0.045 0.548 420.852 o
-2 0 14 6.334 9.040 1.318 36.170 o
-2 1 1 62.494 73.268 0.871 3.298 o
-2 1 2 92.191 97.491 1.116 1.833 o
-2 1 3 249.763 225.334 2.416 0.337 o
-2 1 4 19.646 25.733 0.544 17.172 o
-2 1 5 169.358 195.189 2.695 0.582 o
-2 1 6 670.101 718.820 8.024 0.045 o
-2 1 7 340.645 303.798 3.574 0.189 o
-2 1 8 94.332 99.605 1.511 1.740 o
-2 1 9 115.393 109.146 1.564 1.316 o
-2 1 10 52.989 57.810 1.435 4.264 o
-2 1 11 10.494 11.125 0.680 38.250 o
-2 1 12 7.766 9.321 0.835 45.455 o
-2 1 13 45.493 51.319 2.087 4.784 o
-2 1 14 0.716 1.202 0.643 213.238 o
-2 1 15 0.113 0.315 0.654 276.003 o
-2 2 1 140.037 134.125 1.898 0.927 o
-2 2 2 535.518 592.425 6.582 0.069 o
-2 2 3 28.308 19.884 0.351 14.089 o
-2 2 4 669.284 626.600 7.983 0.050 o
-2 2 5 410.616 411.050 5.366 0.122 o
-2 2 6 272.917 292.620 4.275 0.251 o
-2 2 7 157.804 149.459 2.241 0.751 o
-2 2 8 252.592 224.578 2.738 0.332 o
-2 2 9 0.745 0.009 0.240 781.133 o
-2 2 10 162.677 155.018 2.848 0.697 o
-2 2 11 14.248 12.924 0.970 26.147 o
-2 2 12 3.144 3.322 0.629 113.825 o
-2 2 13 0.473 0.752 0.565 291.822 o
-2 2 14 3.451 2.296 0.696 108.646 o
-2 2 15 10.542 12.838 1.025 30.983 o
-2 3 1 281.738 286.213 3.830 0.247 o
-2 3 2 89.081 61.274 1.040 2.411 o
-2 3 3 624.692 679.203 8.039 0.052 o
-2 3 4 183.164 193.478 2.463 0.538 o
-2 3 5 818.238 791.188 9.328 0.033 o
-2 3 6 23.695 27.140 0.829 13.727 o
-2 3 7 77.454 76.108 1.612 2.481 o
-2 3 8 36.450 39.109 0.960 7.766 o
-2 3 9 1.520 2.314 0.334 253.819 o
-2 3 10 0.464 -0.060 0.269 932.443 o
-2 3 11 3.610 2.486 0.524 126.515 o
-2 3 12 0.269 0.941 0.477 386.605 o
-2 3 13 68.771 65.221 1.884 2.976 o
-2 3 14 33.340 34.686 1.782 7.720 o
-2 3 15 28.711 30.405 1.489 9.769 o
-2 4 1 75.053 81.389 1.531 2.485 o
-2 4 2 27.018 20.036 1.067 13.196 o
-2 4 3 504.531 550.919 7.725 0.077 o
-2 4 4 21.951 22.021 0.457 17.060 o
-2 4 5 0.116 0.024 0.162 2908.690 o
-2 4 6 106.224 114.558 1.514 1.408 o
-2 4 7 35.713 24.329 0.858 9.783 o
-2 4 8 0.589 0.456 0.329 571.697 o
-2 4 9 66.332 62.809 1.519 3.242 o
-2 4 10 88.415 89.067 1.960 1.942 o
-2 4 11 48.782 46.993 1.622 5.001 o
-2 4 12 7.898 8.646 0.848 45.777 o
-2 4 13 49.633 49.014 1.636 4.817 o
-2 4 14 25.804 33.634 1.497 10.101 o
-2 5 1 153.576 152.887 2.496 0.760 o
-2 5 2 6.618 6.278 0.408 72.398 o
-2 5 3 20.581 15.732 0.647 20.013 o
-2 5 4 15.636 9.693 0.536 30.548 o
-2 5 5 14.940 15.010 0.535 27.398 o
-2 5 6 395.133 372.144 4.649 0.137 o
-2 5 7 9.662 9.731 0.476 46.005 o
-2 5 8 4.037 4.560 0.353 115.501 o
-2 5 9 98.673 107.280 2.261 1.533 o
-2 5 10 16.462 17.060 0.858 22.170 o
-2 5 11 70.477 72.479 2.089 2.706 o
-2 5 12 76.142 75.373 2.249 2.422 o
-2 5 13 55.548 46.950 1.768 4.333 o
-2 5 14 1.401 1.915 0.662 164.220 o
-2 6 1 1.073 1.563 0.355 325.140 o
-2 6 2 47.305 42.900 1.744 5.270 o
-2 6 3 48.461 44.106 1.203 5.434 o
-2 6 4 28.468 26.164 0.919 11.731 o
-2 6 5 12.201 15.568 0.575 31.109 o
-2 6 6 100.149 108.866 1.973 1.519 o
-2 6 7 0.110 0.388 0.332 838.438 o
-2 6 8 14.568 14.744 0.904 25.233 o
-2 6 9 495.211 473.597 7.723 0.087 o
-2 6 10 139.168 131.009 2.735 0.920 o
-2 6 11 14.374 14.706 1.032 24.299 o
-2 6 12 14.629 13.906 1.048 24.315 o
-2 6 13 17.913 17.689 1.214 18.341 o
-2 6 14 16.303 16.753 1.248 19.668 o
-2 7 1 14.958 14.079 0.925 24.973 o
-2 7 2 24.230 20.818 0.905 14.844 o
-2 7 3 0.389 2.471 0.396 327.880 o
-2 7 4 18.416 26.032 0.974 16.448 o
-2 7 5 68.251 71.297 1.734 2.902 o
-2 7 6 205.655 188.828 3.542 0.464 o
-2 7 7 193.961 170.489 3.789 0.522 o
-2 7 8 43.829 43.636 1.653 5.684 o
-2 7 9 15.403 15.179 1.090 22.433 o
-2 7 10 22.029 19.529 1.226 15.170 o
-2 7 11 20.067 18.500 1.484 15.212 o
-2 7 12 20.630 22.132 2.137 11.173 o
-2 7 13 0.085 -0.688 0.714 246.732 o
-2 8 1 15.232 18.921 1.272 19.483 o
-2 8 2 61.044 63.203 1.930 3.386 o
-2 8 3 29.318 30.982 1.404 9.711 o
-2 8 4 99.181 93.237 2.542 1.618 o
-2 8 5 183.871 163.409 3.258 0.579 o
-2 8 6 4.269 4.003 0.666 90.288 o
-2 8 7 5.857 4.123 0.707 72.638 o
-2 8 8 0.457 0.032 0.525 375.697 o
-2 8 9 1.499 2.412 0.635 160.374 o
-2 8 10 5.308 3.089 0.714 80.843 o
-2 8 11 13.328 10.482 1.229 25.833 o
-2 8 12 43.504 49.071 2.379 4.821 o
-2 9 1 19.245 17.548 1.317 16.877 o
-2 9 2 97.890 96.732 2.866 1.575 o
-2 9 3 26.146 20.262 1.234 13.011 o
-2 9 4 0.654 -0.115 0.487 389.728 o
-2 9 5 1.423 1.899 0.788 132.850 o
-2 9 6 2.796 2.299 0.779 107.170 o
-2 9 7 0.186 -0.410 0.638 297.162 o
-2 9 8 0.139 -0.484 0.723 237.540 o
-2 9 9 37.083 44.689 2.069 6.018 o
-2 9 10 24.087 25.546 1.619 11.515 o
-2 10 2 0.965 0.549 0.692 195.919 o
-2 10 3 1.023 0.258 0.580 256.293 o
-2 10 4 0.588 -0.539 0.811 173.598 o
-2 10 5 0.850 -0.132 0.687 216.893 o
-2 10 6 2.190 0.418 0.743 142.258 o
-2 10 7 7.048 7.873 1.568 29.910 o
-1 -11 1 10.735 10.052 1.417 26.565 o
-1 -10 1 32.584 33.632 4.101 4.319 o
-1 -10 2 87.391 83.967 3.279 1.829 o
-1 -10 3 26.742 25.248 1.973 9.698 o
-1 -10 4 5.331 5.087 0.958 59.004 o
-1 -9 1 28.335 31.599 1.485 9.717 o
-1 -9 2 57.038 62.269 2.106 3.567 o
-1 -9 3 0.443 0.198 0.532 357.685 o
-1 -9 4 0.040 0.614 0.546 370.499 o
-1 -9 5 0.224 -0.640 0.510 440.675 o
-1 -9 6 4.218 4.586 0.793 77.892 o
-1 -8 1 0.774 1.293 0.418 338.980 o
-1 -8 2 92.804 100.147 2.299 1.696 o
-1 -8 3 0.020 0.609 0.529 395.841 o
-1 -8 4 3.973 3.956 0.681 92.539 o
-1 -8 5 0.344 -0.255 0.476 467.663 o
-1 -8 6 7.967 7.892 0.961 43.566 o
-1 -8 7 14.812 15.046 1.105 22.967 o
-1 -8 8 1.095 1.574 0.754 152.841 o
-1 -7 1 9.285 8.458 0.503 49.296 o
-1 -7 2 114.640 101.291 2.170 1.347 o
-1 -7 3 94.068 90.727 2.066 1.788 o
-1 -7 4 67.332 66.401 2.138 2.943 o
-1 -7 5 36.311 37.119 1.521 7.357 o
-1 -7 6 11.008 11.334 0.986 32.086 o
-1 -7 7 0.254 -0.384 0.505 441.932 o
-1 -7 8 0.137 -0.761 0.493 490.415 o
-1 -7 9 0.509 -0.847 0.649 261.180 o
-1 -6 1 73.546 70.954 1.396 2.756 o
-1 -6 2 49.827 52.997 1.164 4.853 o
-1 -6 3 7.984 8.020 0.562 54.462 o
-1 -6 4 0.645 0.323 0.346 547.116 o
-1 -6 5 30.289 32.926 1.130 9.696 o
-1 -6 6 10.822 6.472 0.616 45.138 o
-1 -6 7 19.365 17.445 0.903 19.132 o
-1 -6 8 9.517 9.703 0.836 39.771 o
-1 -6 9 0.560 0.876 0.632 237.241 o
-1 -6 10 11.328 10.554 1.238 28.247 o
-1 -5 1 30.850 29.627 0.614 10.750 o
-1 -5 2 338.842 347.449 4.632 0.173 o
-1 -5 3 29.242 27.947 0.633 11.582 o
-1 -5 4 46.057 39.294 0.759 6.274 o
-1 -5 5 16.429 14.228 0.513 25.977 o
-1 -5 6 5.774 5.655 0.501 78.135 o
-1 -5 7 15.922 14.337 0.649 25.763 o
-1 -5 8 32.038 28.784 1.167 9.722 o
-1 -5 9 15.669 16.201 0.956 22.724 o
-1 -5 10 11.102 11.029 1.227 28.407 o
-1 -5 11 0.521 0.251 0.710 215.774 o
-1 -4 1 242.911 220.977 2.616 0.352 o
-1 -4 2 201.071 232.480 2.914 0.426 o
-1 -4 3 129.169 141.240 1.900 0.987 o
-1 -4 4 13.741 12.816 0.408 32.076 o
-1 -4 5 33.831 37.819 0.768 8.635 o
-1 -4 6 181.716 176.000 3.204 0.564 o
-1 -4 7 87.008 84.544 2.424 1.967 o
-1 -4 8 20.657 18.562 1.134 16.662 o
-1 -4 9 2.738 1.973 0.415 175.836 o
-1 -4 10 0.451 0.620 0.544 318.309 o
-1 -4 11 1.341 1.697 0.606 187.112 o
-1 -4 12 36.761 40.466 3.679 4.350 o
-1 -3 1 27.527 24.218 0.353 13.408 o
-1 -3 2 6.844 6.925 0.252 72.314 o
-1 -3 3 161.934 159.965 1.969 0.705 o
-1 -3 4 266.019 225.885 2.881 0.309 o
-1 -3 5 344.784 347.633 4.864 0.169 o
-1 -3 6 5.467 8.177 0.425 73.366 o
-1 -3 7 1.641 3.023 0.390 207.220 o
-1 -3 8 4.094 2.179 0.535 118.713 o
-1 -3 9 16.001 16.769 0.750 23.520 o
-1 -3 10 99.148 97.228 2.193 1.617 o
-1 -3 11 104.003 98.148 2.550 1.496 o
-1 -3 12 31.029 33.384 1.299 9.162 o
-1 -3 13 5.518 5.749 0.821 63.369 o
-1 -2 1 1585.130 1715.100 19.870 0.008 o
-1 -2 2 716.714 650.084 8.091 0.044 o
-1 -2 3 0.005 0.532 0.091 2757.770 o
-1 -2 4 0.388 0.193 0.169 1318.950 o
-1 -2 5 690.845 728.398 8.670 0.043 o
-1 -2 6 3.972 5.307 0.336 111.325 o
-1 -2 7 253.498 278.091 5.167 0.278 o
-1 -2 8 1012.390 1046.980 13.967 0.021 o
-1 -2 9 15.264 15.057 0.893 24.305 o
-1 -2 10 33.524 33.438 1.158 8.775 o
-1 -2 11 0.376 0.172 0.398 573.894 o
-1 -2 12 2.846 2.087 0.530 148.475 o
-1 -2 13 0.265 0.159 0.460 494.112 o
-1 -2 14 2.502 2.316 0.660 130.725 o
-1 -1 2 1520.150 1505.060 22.053 0.009 o
-1 -1 3 544.281 503.772 5.326 0.075 o
-1 -1 4 386.721 362.154 3.574 0.145 o
-1 -1 5 1300.570 1339.980 13.961 0.013 o
-1 -1 6 952.100 1033.800 18.363 0.022 o
-1 -1 7 164.359 169.933 2.787 0.655 o
-1 -1 8 254.387 259.004 3.563 0.299 o
-1 -1 9 159.506 158.629 2.365 0.714 o
-1 -1 10 49.119 46.876 1.365 5.126 o
-1 -1 11 18.078 17.474 0.892 20.252 o
-1 -1 12 3.663 2.378 0.536 125.005 o
-1 -1 13 1.038 2.059 0.538 217.696 o
-1 -1 14 5.583 4.348 0.901 62.646 o
-1 0 1 3727.900 3358.080 83.327 0.002 o
-1 0 2 5158.880 4479.420 91.457 0.001 o
-1 0 3 2395.160 2417.440 27.987 0.004 o
-1 0 4 1246.550 1410.070 18.573 0.013 o
-1 0 5 92.847 81.731 1.040 2.007 o
-1 0 6 118.884 130.674 1.864 1.136 o
-1 0 7 198.991 195.096 2.980 0.480 o
-1 0 8 104.096 83.681 1.723 1.689 o
-1 0 9 52.585 58.945 1.428 4.254 o
-1 0 10 41.676 37.264 1.403 6.613 o
-1 0 11 11.578 13.592 0.756 32.201 o
-1 0 12 51.141 49.748 1.449 4.749 o
-1 0 13 68.457 68.408 1.802 2.940 o
-1 0 14 15.253 13.401 1.268 21.835 o
-1 0 15 1.373 1.087 0.938 111.008 o
-1 1 1 54.831 52.961 1.282 4.370 o
-1 1 2 2062.850 2121.260 26.312 0.005 o
-1 1 3 621.225 669.236 7.852 0.052 o
-1 1 4 2083.000 2019.440 19.937 0.005 o
-1 1 5 0.238 1.254 0.121 929.403 o
-1 1 6 74.900 67.889 1.118 2.805 o
-1 1 7 18.655 25.308 0.641 17.750 o
-1 1 8 12.347 14.127 0.700 30.949 o
-1 1 9 19.475 19.906 1.028 17.516 o
-1 1 10 128.716 125.029 2.435 1.044 o
-1 1 11 47.575 46.134 1.295 5.368 o
-1 1 12 29.961 27.285 1.054 10.761 o
-1 1 13 3.581 5.068 0.672 91.547 o
-1 1 14 1.720 3.924 0.722 119.809 o
-1 1 15 1.628 1.060 0.779 139.636 o
-1 2 1 2145.080 2251.750 25.265 0.005 o
-1 2 2 83.801 72.448 0.887 2.414 o
-1 2 3 161.964 162.991 1.845 0.699 o
-1 2 4 236.777 250.956 2.433 0.337 o
-1 2 5 0.537 0.540 0.085 1048.030 o
-1 2 6 443.827 446.342 5.353 0.105 o
-1 2 7 165.422 171.052 2.726 0.648 o
-1 2 8 758.454 794.748 10.938 0.036 o
-1 2 9 127.345 125.817 2.113 1.066 o
-1 2 10 10.548 8.267 0.573 43.896 o
-1 2 11 10.737 10.448 0.664 38.738 o
-1 2 12 3.037 3.380 0.479 135.307 o
-1 2 13 10.128 10.031 0.888 36.871 o
-1 2 14 19.700 19.293 1.414 15.570 o
-1 2 15 0.489 1.774 0.816 149.069 o
-1 3 1 1903.170 2155.380 24.903 0.006 o
-1 3 2 278.650 326.055 3.372 0.232 o
-1 3 3 842.619 894.773 9.388 0.029 o
-1 3 4 15.128 20.477 0.385 24.208 o
-1 3 5 2097.870 2324.330 25.375 0.005 o
-1 3 6 936.944 927.134 10.304 0.025 o
-1 3 7 32.051 27.235 0.549 10.817 o
-1 3 8 21.593 20.305 0.480 17.878 o
-1 3 9 0.032 0.041 0.147 4453.920 o
-1 3 10 5.950 7.853 0.582 65.220 o
-1 3 11 141.886 130.365 2.569 0.908 o
-1 3 12 14.258 12.954 0.975 26.064 o
-1 3 13 7.500 10.347 1.020 39.916 o
-1 3 14 0.132 0.160 0.575 356.688 o
-1 3 15 4.039 4.013 1.087 60.602 o
-1 4 1 164.166 188.009 2.392 0.622 o
-1 4 2 1423.430 1684.080 18.459 0.010 o
-1 4 3 2419.700 2611.410 27.180 0.004 o
-1 4 4 162.528 179.865 2.338 0.648 o
-1 4 5 26.736 34.937 0.659 11.192 o
-1 4 6 2.235 1.063 0.319 251.878 o
-1 4 7 36.643 29.021 0.623 9.147 o
-1 4 8 98.495 97.135 1.381 1.691 o
-1 4 9 152.115 151.612 2.004 0.782 o
-1 4 10 62.530 57.625 1.211 3.680 o
-1 4 11 21.919 22.157 1.281 14.321 o
-1 4 12 14.567 10.182 0.884 28.538 o
-1 4 13 0.014 -0.009 0.588 369.876 o
-1 4 14 2.011 3.818 0.768 109.003 o
-1 4 15 0.663 -1.060 0.725 207.668 o
-1 5 1 256.863 260.864 3.297 0.295 o
-1 5 2 49.311 44.364 0.821 5.502 o
-1 5 3 30.895 31.557 0.621 10.419 o
-1 5 4 10.563 4.702 0.323 55.052 o
-1 5 5 45.627 49.195 0.869 5.632 o
-1 5 6 186.443 195.038 2.786 0.521 o
-1 5 7 414.355 399.033 5.313 0.123 o
-1 5 8 6.644 7.823 0.387 67.239 o
-1 5 9 7.533 7.198 0.441 62.132 o
-1 5 10 25.218 22.194 0.711 14.480 o
-1 5 11 0.155 0.063 0.439 588.623 o
-1 5 12 59.870 54.739 1.636 3.809 o
-1 5 13 10.459 9.253 0.918 36.435 o
-1 5 14 2.342 3.938 0.676 115.813 o
-1 5 15 0.003 -0.612 0.622 332.991 o
-1 6 1 39.762 42.551 0.747 7.004 o
-1 6 2 149.061 149.480 2.066 0.806 o
-1 6 3 99.544 103.385 1.440 1.610 o
-1 6 4 39.505 31.621 0.730 8.096 o
-1 6 5 14.537 12.910 0.480 30.066 o
-1 6 6 26.131 21.651 0.714 14.146 o
-1 6 7 336.236 327.776 5.395 0.179 o
-1 6 8 26.764 29.249 0.878 11.870 o
-1 6 9 23.338 20.905 0.785 15.686 o
-1 6 10 45.461 37.532 1.222 6.203 o
-1 6 11 23.790 22.724 1.226 13.528 o
-1 6 12 17.526 17.436 1.324 17.985 o
-1 6 13 2.270 2.192 0.643 140.465 o
-1 6 14 2.058 2.556 0.639 142.041 o
-1 7 1 19.298 20.311 0.852 18.323 o
-1 7 2 24.965 25.808 0.721 13.683 o
-1 7 3 39.303 31.142 0.860 8.083 o
-1 7 4 62.201 56.855 1.266 3.710 o
-1 7 5 96.095 84.097 1.938 1.828 o
-1 7 6 0.481 0.859 0.530 312.765 o
-1 7 7 38.167 29.239 0.914 8.485 o
-1 7 8 293.055 273.803 4.295 0.240 o
-1 7 9 1.264 1.443 0.474 250.328 o
-1 7 10 0.128 0.336 0.424 580.354 o
-1 7 11 14.260 14.118 1.015 24.939 o
-1 7 12 28.689 29.560 1.420 10.042 o
-1 7 13 17.100 20.849 1.299 17.294 o
-1 7 14 3.459 4.584 0.929 73.293 o
-1 8 1 51.945 43.923 1.708 4.795 o
-1 8 2 95.533 86.864 2.438 1.757 o
-1 8 3 54.658 49.785 1.606 4.372 o
-1 8 4 72.514 68.552 1.690 2.792 o
-1 8 5 71.294 61.192 1.591 3.024 o
-1 8 6 2.929 1.347 0.408 182.224 o
-1 8 7 2.588 2.834 0.480 154.228 o
-1 8 8 115.334 111.878 2.837 1.229 o
-1 8 9 21.517 22.211 1.922 11.781 o
-1 8 10 7.375 9.894 0.911 43.727 o
-1 8 11 9.076 10.345 1.210 32.385 o
-1 8 12 14.285 16.310 1.439 19.866 o
-1 8 13 24.797 26.463 3.060 7.036 o
-1 9 1 0.321 0.090 0.484 449.670 o
-1 9 2 12.195 11.087 1.327 25.535 o
-1 9 3 0.495 -0.059 0.503 397.626 o
-1 9 4 24.990 21.551 1.195 13.359 o
-1 9 5 24.115 24.807 1.239 12.896 o
-1 9 6 58.263 60.761 1.997 3.584 o
-1 9 7 42.226 44.817 1.776 5.696 o
-1 9 8 5.929 4.941 0.752 66.896 o
-1 9 9 0.007 -0.154 0.505 503.797 o
-1 9 10 13.297 17.843 1.270 21.572 o
-1 9 11 26.562 25.865 2.778 7.509 o
-1 10 1 3.993 3.153 0.912 75.994 o
-1 10 2 6.894 7.885 0.963 46.890 o
-1 10 3 27.076 28.623 1.544 10.334 o
-1 10 4 58.532 51.780 2.151 3.769 o
-1 10 5 0.702 0.914 0.555 271.417 o
-1 10 6 0.029 -0.082 0.643 308.191 o
-1 10 7 20.034 19.870 1.495 14.828 o
-1 10 8 14.898 16.341 1.561 18.375 o
-1 10 9 9.683 10.954 1.366 28.163 o
0 -10 1 0.812 0.778 0.772 167.418 o
0 -10 2 1.409 2.443 0.941 101.175 o
0 -10 3 4.819 7.144 1.983 24.350 o
0 -9 1 0.318 -0.090 0.630 291.081 o
0 -9 2 0.631 0.766 0.738 186.545 o
0 -9 3 18.285 14.032 1.416 17.991 o
0 -9 4 12.329 10.735 1.307 25.862 o
0 -9 5 4.078 6.132 2.043 24.261 o
0 -8 1 288.311 257.049 4.651 0.252 o
0 -8 2 3.654 2.903 0.513 122.864 o
0 -8 3 6.937 6.499 0.669 60.123 o
0 -8 4 0.135 0.534 0.483 443.244 o
0 -8 5 0.028 -0.280 0.489 529.795 o
0 -8 6 1.678 1.805 0.653 159.497 o
0 -8 7 2.392 2.059 0.677 132.687 o
0 -7 1 105.050 102.567 2.208 1.474 o
0 -7 2 16.654 16.136 0.830 22.630 o
0 -7 3 4.331 5.677 0.616 84.795 o
0 -7 4 26.674 25.867 1.103 12.051 o
0 -7 5 26.273 22.503 1.248 12.458 o
0 -7 6 5.719 6.891 0.735 63.064 o
0 -7 7 0.524 1.133 0.587 256.823 o
0 -7 8 16.186 16.843 1.300 19.337 o
0 -7 9 7.597 8.012 1.123 39.851 o
0 -6 1 175.756 168.915 3.084 0.603 o
0 -6 2 1.335 1.062 0.362 319.723 o
0 -6 3 0.187 0.048 0.334 911.665 o
0 -6 4 47.532 49.953 1.423 5.098 o
0 -6 5 80.372 75.692 1.870 2.352 o
0 -6 6 37.466 40.729 2.120 6.154 o
0 -6 7 13.380 15.515 0.932 25.977 o
0 -6 8 4.425 3.417 0.609 96.865 o
0 -6 9 5.622 5.420 0.781 65.794 o
0 -6 10 5.659 4.596 0.965 58.251 o
0 -5 1 23.201 17.131 0.985 16.202 o
0 -5 2 161.021 157.151 2.870 0.700 o
0 -5 3 100.962 104.181 2.109 1.533 o
0 -5 4 255.996 270.529 5.545 0.277 o
0 -5 5 39.254 42.897 1.272 6.673 o
0 -5 6 0.228 0.178 0.319 877.498 o
0 -5 7 51.103 43.279 1.376 5.101 o
0 -5 8 5.937 6.720 0.660 65.663 o
0 -5 9 14.157 14.940 0.934 25.340 o
0 -5 10 7.624 8.702 1.208 36.747 o
0 -5 11 0.829 1.891 0.828 136.458 o
0 -4 1 348.840 388.011 5.083 0.155 o
0 -4 2 290.921 326.484 4.369 0.217 o
0 -4 3 104.622 112.202 1.942 1.426 o
0 -4 4 7.192 6.724 0.511 63.569 o
0 -4 5 48.761 48.409 0.960 5.281 o
0 -4 6 55.335 60.281 2.280 3.645 o
0 -4 7 133.813 138.301 3.025 0.922 o
0 -4 8 4.904 3.063 0.426 107.989 o
0 -4 9 42.942 40.913 1.224 6.317 o
0 -4 10 78.713 78.608 2.327 2.279 o
0 -4 11 14.506 10.798 0.995 26.949 o
0 -4 12 8.470 9.453 1.072 37.404 o
0 -3 1 44.568 55.521 0.833 5.402 o
0 -3 2 8.077 10.126 0.325 53.945 o
0 -3 3 3.606 5.224 0.231 125.436 o
0 -3 4 918.772 1008.670 12.675 0.024 o
0 -3 5 3.938 5.083 0.326 114.499 o
0 -3 6 42.261 31.033 0.819 7.539 o
0 -3 7 414.729 426.622 10.635 0.109 o
0 -3 8 218.908 222.214 3.564 0.392 o
0 -3 9 96.411 87.045 1.778 1.805 o
0 -3 10 2.085 2.132 0.477 184.722 o
0 -3 11 34.305 30.509 1.211 8.860 o
0 -3 12 8.357 5.298 0.778 52.399 o
0 -3 13 1.082 1.326 0.725 165.274 o
0 -2 1 622.138 708.647 11.054 0.049 o
0 -2 2 0.569 8.327 0.437 140.881 o
0 -2 3 373.578 470.465 4.789 0.126 o
0 -2 4 2771.970 3073.520 35.571 0.003 o
0 -2 5 1786.700 1823.260 22.660 0.007 o
0 -2 6 1089.940 1173.500 13.843 0.017 o
0 -2 7 1.970 1.457 0.264 274.767 o
0 -2 8 15.265 18.388 0.961 21.990 o
0 -2 9 96.590 97.563 1.897 1.686 o
0 -2 10 34.572 37.681 1.242 7.981 o
0 -2 11 0.361 0.209 0.443 491.148 o
0 -2 12 1.756 2.202 0.524 184.526 o
0 -2 13 2.066 1.636 0.585 167.335 o
0 -2 14 19.064 19.912 2.790 9.223 o
0 -1 1 71.445 34.509 1.348 3.811 o
0 -1 2 11402.400 10458.500 238.068 0.000 o
0 -1 3 12870.500 11570.500 174.019 0.000 o
0 -1 4 1398.430 1571.090 16.812 0.010 o
0 -1 5 268.670 348.765 7.379 0.214 o
0 -1 6 574.210 685.090 8.715 0.056 o
0 -1 7 419.225 422.365 5.536 0.117 o
0 -1 8 52.228 50.373 0.993 4.817 o
0 -1 9 6.404 8.433 0.433 65.529 o
0 -1 10 5.883 4.734 0.516 80.513 o
0 -1 11 0.070 0.051 0.401 737.738 o
0 -1 12 43.094 38.932 1.648 6.068 o
0 -1 13 32.288 34.737 1.519 8.354 o
0 -1 14 10.989 15.992 1.139 26.456 o
0 0 2 452.271 288.072 10.907 0.119 o
0 0 3 1678.950 1727.860 25.866 0.008 o
0 0 4 764.419 849.564 9.337 0.034 o
0 0 5 36.551 25.928 0.464 9.707 o
0 0 6 4.634 4.031 0.293 113.571 o
0 0 7 33.493 30.006 0.839 9.635 o
0 0 8 19.023 18.070 0.729 20.003 o
0 0 9 66.314 59.132 1.434 3.360 o
0 0 10 627.588 623.776 9.753 0.053 o
0 0 11 3.183 6.144 1.336 46.590 o
0 0 12 0.176 0.003 0.379 763.396 o
0 0 13 9.783 9.253 0.863 39.116 o
0 0 14 0.044 0.479 0.577 345.566 o
0 0 15 0.005 -0.127 0.897 160.016 o
0 1 2 50.043 22.829 1.015 6.762 o
0 1 3 4.306 11.901 0.364 69.981 o
0 1 4 633.010 602.447 6.707 0.055 o
0 1 5 128.833 146.468 2.160 0.960 o
0 1 6 327.355 324.153 4.991 0.188 o
0 1 7 414.383 388.010 5.556 0.125 o
0 1 8 337.127 323.297 5.192 0.181 o
0 1 9 10.752 10.709 0.601 39.305 o
0 1 10 57.567 53.041 1.398 4.113 o
0 1 11 117.721 120.182 2.461 1.178 o
0 1 12 11.645 14.011 1.097 27.427 o
0 1 13 5.657 4.066 0.595 81.213 o
0 1 14 22.844 20.981 1.831 11.920 o
0 1 15 2.187 2.671 0.873 99.894 o
0 2 0 37.947 54.692 0.989 6.210 o
0 2 1 8.453 15.107 0.415 42.015 o
0 2 2 580.930 589.321 6.905 0.062 o
0 2 3 626.337 669.698 7.010 0.052 o
0 2 4 151.762 145.442 1.586 0.811 o
0 2 5 904.679 952.031 9.954 0.026 o
0 2 6 673.129 749.417 9.490 0.044 o
0 2 7 36.237 60.404 1.065 6.010 o
0 2 8 13.939 13.453 0.599 29.726 o
0 2 9 41.472 36.184 1.494 6.634 o
0 2 10 93.038 94.171 1.957 1.785 o
0 2 11 4.755 4.716 0.527 91.556 o
0 2 12 22.045 21.518 1.602 13.062 o
0 2 13 1.085 1.473 0.477 261.361 o
0 2 14 13.199 14.641 1.314 22.737 o
0 2 15 1.012 1.233 0.799 147.267 o
0 3 0 548.068 556.658 8.080 0.069 o
0 3 1 571.277 628.743 9.505 0.060 o
0 3 2 482.953 550.717 5.835 0.082 o
0 3 3 752.487 754.756 7.387 0.038 o
0 3 4 81.583 82.626 0.952 2.316 o
0 3 5 70.985 83.403 1.025 2.663 o
0 3 6 321.880 309.308 3.813 0.200 o
0 3 7 8.769 4.348 0.225 68.091 o
0 3 8 77.585 75.219 1.449 2.516 o
0 3 9 39.385 39.451 1.052 7.118 o
0 3 10 0.014 -0.045 0.296 1436.370 o
0 3 11 0.011 -0.722 0.311 1310.690 o
0 3 12 2.633 2.897 0.658 122.696 o
0 3 13 0.140 -0.339 0.414 672.436 o
0 3 14 0.592 0.127 0.897 143.465 o
0 3 15 25.605 27.164 1.757 10.371 o
0 4 0 541.509 622.477 13.264 0.061 o
0 4 1 310.036 307.912 3.317 0.211 o
0 4 2 85.814 109.281 1.332 1.830 o
0 4 3 79.395 56.787 0.801 2.888 o
0 4 4 66.207 58.394 0.808 3.516 o
0 4 5 239.082 233.606 2.791 0.347 o
0 4 6 162.995 168.965 2.243 0.673 o
0 4 7 5.496 8.046 0.431 73.425 o
0 4 8 10.526 8.905 0.389 45.653 o
0 4 9 3.694 2.541 0.264 154.935 o
0 4 10 0.831 0.678 0.334 459.321 o
0 4 11 11.990 10.277 0.660 35.984 o
0 4 12 7.046 6.639 0.594 61.850 o
0 4 13 50.505 52.198 1.793 4.512 o
0 4 14 16.881 15.126 1.318 19.322 o
0 4 15 51.632 54.666 3.677 3.213 o
0 5 0 4.374 3.000 0.352 123.976 o
0 5 1 1.161 0.385 0.110 619.646 o
0 5 2 50.893 33.749 0.646 6.035 o
0 5 3 835.209 925.235 10.945 0.029 o
0 5 4 3.728 2.485 0.259 155.208 o
0 5 5 4.831 2.819 0.254 123.643 o
0 5 6 77.777 68.095 1.219 2.672 o
0 5 7 0.136 0.140 0.202 1847.340 o
0 5 8 58.830 63.768 1.307 3.694 o
0 5 9 0.895 0.589 0.274 522.579 o
0 5 10 73.515 70.955 2.061 2.628 o
0 5 11 25.325 27.009 1.046 12.498 o
0 5 12 48.647 53.034 1.515 4.792 o
0 5 13 185.574 190.244 4.165 0.511 o
0 5 14 49.608 51.638 2.515 4.149 o
0 5 15 13.472 14.750 1.414 21.400 o
0 6 0 134.256 130.079 2.499 0.971 o
0 6 1 21.156 17.610 0.599 18.916 o
0 6 2 26.132 29.715 0.614 12.482 o
0 6 3 17.151 20.205 0.519 21.632 o
0 6 4 5.097 5.316 0.367 93.456 o
0 6 5 53.589 59.446 1.239 4.228 o
0 6 6 2.443 2.127 0.290 211.337 o
0 6 7 2.742 1.778 0.331 196.764 o
0 6 8 141.943 146.222 2.317 0.858 o
0 6 9 134.009 144.357 2.323 0.922 o
0 6 10 113.500 113.660 1.991 1.291 o
0 6 11 149.232 149.104 2.917 0.786 o
0 6 12 55.488 54.363 1.816 4.041 o
0 6 13 18.673 16.834 1.122 18.671 o
0 6 14 9.408 7.556 1.048 37.997 o
0 6 15 2.253 1.522 1.015 87.185 o
0 7 0 37.979 34.996 1.125 7.708 o
0 7 1 3.965 1.938 0.381 142.783 o
0 7 2 62.262 68.384 1.242 3.374 o
0 7 3 151.876 157.952 2.298 0.759 o
0 7 4 17.547 18.268 0.666 21.569 o
0 7 5 325.197 325.721 4.901 0.189 o
0 7 6 246.159 260.658 4.046 0.307 o
0 7 7 0.021 -0.058 0.274 1650.950 o
0 7 8 134.421 127.065 2.305 0.989 o
0 7 9 332.706 332.657 5.082 0.181 o
0 7 10 2.072 1.822 0.368 222.722 o
0 7 11 0.478 0.634 0.454 402.943 o
0 7 12 2.462 1.971 0.568 153.525 o
0 7 13 10.766 10.620 0.909 34.487 o
0 7 14 1.341 0.681 0.641 196.421 o
0 8 0 10.361 10.296 0.801 37.589 o
0 8 1 2.073 0.946 0.398 241.244 o
0 8 2 137.232 134.993 2.759 0.919 o
0 8 3 115.053 112.111 2.287 1.265 o
0 8 4 32.868 35.209 0.967 8.969 o
0 8 5 40.703 40.680 0.965 6.864 o
0 8 6 162.942 160.973 2.785 0.683 o
0 8 7 10.298 11.464 0.658 38.657 o
0 8 8 6.816 6.378 0.545 65.794 o
0 8 9 125.610 129.976 2.423 1.050 o
0 8 10 0.539 0.956 0.452 367.803 o
0 8 11 4.117 2.244 0.654 104.229 o
0 8 12 5.325 5.304 0.764 68.969 o
0 8 13 21.491 23.311 1.418 13.692 o
0 9 0 95.928 93.782 3.057 1.611 o
0 9 1 39.737 40.034 1.660 6.433 o
0 9 2 2.055 2.039 0.606 156.154 o
0 9 3 17.549 19.127 1.084 18.881 o
0 9 4 98.612 96.337 2.368 1.618 o
0 9 5 37.375 36.874 1.059 7.710 o
0 9 6 7.555 8.181 0.583 55.516 o
0 9 7 14.796 14.484 0.724 26.626 o
0 9 8 28.092 26.937 0.924 11.716 o
0 9 9 16.499 12.750 0.855 24.514 o
0 9 10 57.725 55.445 1.732 3.889 o
0 9 11 39.081 45.485 2.734 5.020 o
0 9 12 27.585 24.527 1.726 10.279 o
0 10 0 14.144 14.924 1.893 16.537 o
0 10 1 66.144 67.781 4.497 2.180 o
0 10 2 31.787 29.043 1.922 8.290 o
0 10 3 0.094 0.117 0.552 394.918 o
0 10 4 4.044 4.171 0.777 82.474 o
0 10 5 37.681 34.175 1.591 7.283 o
0 10 6 1.023 0.781 0.575 240.773 o
0 10 7 0.003 -0.400 0.466 591.365 o
0 10 8 2.520 2.210 0.737 118.455 o
0 10 9 22.694 28.497 1.411 12.173 o
0 10 10 58.472 57.006 1.903 3.721 o
0 10 11 53.899 54.664 4.439 2.712 o
0 11 1 2.161 2.319 0.920 95.969 o
0 11 2 3.164 2.188 1.039 74.667 o
0 11 3 3.356 1.925 0.841 94.513 o
0 11 4 5.609 5.926 1.050 51.652 o
0 11 5 5.925 6.211 1.060 49.525 o
0 11 6 13.889 15.079 1.262 22.383 o
0 11 7 20.026 23.316 1.910 12.146 o
0 11 8 41.221 41.887 3.848 3.886 o
1 -10 0 0.180 1.063 0.849 156.750 o
1 -10 1 3.062 2.850 0.941 82.149 o
1 -9 0 21.406 23.760 1.483 13.364 o
1 -9 1 16.763 12.880 1.124 21.943 o
1 -9 2 5.043 4.414 1.142 52.418 o
1 -9 3 2.074 6.033 1.601 38.481 o
1 -9 4 0.179 -0.158 0.673 269.343 o
1 -8 0 4.335 4.769 0.860 71.534 o
1 -8 1 10.975 13.892 1.190 27.172 o
1 -8 2 10.883 10.214 0.945 34.050 o
1 -8 3 4.952 5.549 0.792 69.026 o
1 -8 4 19.699 20.127 1.351 15.673 o
1 -8 5 13.211 12.242 1.349 23.539 o
1 -8 6 16.437 18.055 1.622 16.448 o
1 -7 0 1.303 0.763 0.339 357.665 o
1 -7 1 119.206 130.593 2.749 1.093 o
1 -7 2 134.557 134.883 2.786 0.939 o
1 -7 3 0.084 0.476 0.403 618.979 o
1 -7 4 9.074 9.861 0.767 42.226 o
1 -7 5 2.694 2.814 0.542 140.832 o
1 -7 6 1.638 0.039 0.575 225.587 o
1 -7 7 6.705 10.053 0.976 43.679 o
1 -7 8 2.801 2.182 1.190 64.333 o
1 -6 0 0.251 0.493 0.329 719.792 o
1 -6 1 73.555 64.178 1.572 2.863 o
1 -6 2 348.623 376.447 9.313 0.147 o
1 -6 3 14.531 12.618 0.793 27.729 o
1 -6 4 3.208 4.097 0.677 101.474 o
1 -6 5 15.364 12.444 0.854 26.128 o
1 -6 6 52.954 52.495 3.267 3.447 o
1 -6 7 43.353 49.524 2.972 4.304 o
1 -6 8 9.357 8.385 0.811 42.588 o
1 -6 9 0.382 0.684 0.581 292.145 o
1 -5 0 520.894 593.551 6.756 0.071 o
1 -5 1 76.391 98.621 2.269 2.078 o
1 -5 2 5.530 6.619 0.721 65.704 o
1 -5 3 841.237 944.566 19.735 0.027 o
1 -5 4 138.813 167.624 6.172 0.670 o
1 -5 5 66.081 70.305 1.853 2.990 o
1 -5 6 0.093 0.324 0.552 377.410 o
1 -5 7 7.171 5.202 0.609 64.819 o
1 -5 8 0.858 0.672 0.486 315.691 o
1 -5 9 2.183 2.199 0.547 163.198 o
1 -5 10 23.545 21.723 1.362 13.362 o
1 -5 11 8.573 14.712 2.156 17.117 o
1 -4 0 604.680 698.001 8.246 0.053 o
1 -4 1 717.627 841.195 14.396 0.036 o
1 -4 2 310.658 368.914 6.069 0.181 o
1 -4 3 157.194 171.375 7.613 0.541 o
1 -4 4 0.140 0.206 0.151 2251.730 o
1 -4 5 5.252 8.204 0.374 76.821 o
1 -4 6 0.191 -0.118 0.249 1446.480 o
1 -4 7 222.157 204.705 3.611 0.403 o
1 -4 8 53.290 59.819 2.746 3.538 o
1 -4 9 1.357 0.146 0.432 327.029 o
1 -4 10 11.201 11.101 0.993 31.846 o
1 -4 11 26.247 22.549 1.668 11.142 o
1 -4 12 1.362 0.652 0.982 106.414 o
1 -3 0 58.546 48.863 0.661 4.414 o
1 -3 1 18.442 19.394 0.410 21.117 o
1 -3 2 365.334 459.406 5.864 0.130 o
1 -3 3 0.766 0.643 0.175 688.671 o
1 -3 4 358.719 388.328 5.508 0.149 o
1 -3 5 309.274 320.601 4.645 0.203 o
1 -3 6 13.902 11.681 0.505 32.147 o
1 -3 7 11.089 11.088 0.588 38.126 o
1 -3 8 81.552 84.527 2.167 2.143 o
1 -3 9 38.506 29.166 0.976 8.354 o
1 -3 10 0.128 0.566 0.443 506.272 o
1 -3 11 0.206 0.600 0.607 292.032 o
1 -3 12 3.504 3.062 1.021 70.957 o
1 -2 0 424.985 460.693 6.111 0.108 o
1 -2 1 629.927 788.884 10.973 0.045 o
1 -2 2 1143.130 1460.760 17.830 0.014 o
1 -2 3 69.888 54.331 1.222 3.346 o
1 -2 4 13.275 12.392 0.367 33.710 o
1 -2 5 228.534 232.546 3.196 0.365 o
1 -2 6 80.503 74.969 1.439 2.423 o
1 -2 7 0.659 0.004 0.265 782.943 o
1 -2 8 0.020 0.301 0.290 1187.670 o
1 -2 9 52.385 50.551 1.342 4.653 o
1 -2 10 2.065 1.893 0.472 192.188 o
1 -2 11 1.660 1.763 0.500 206.095 o
1 -2 12 3.614 5.788 0.769 79.770 o
1 -2 13 5.615 8.514 1.048 47.130 o
1 -1 0 2632.960 2722.370 53.461 0.003 o
1 -1 1 552.352 541.455 15.030 0.064 o
1 -1 2 1549.990 1691.740 19.171 0.009 o
1 -1 3 781.944 821.295 8.204 0.034 o
1 -1 4 2.518 7.712 0.258 120.730 o
1 -1 5 204.618 245.585 3.131 0.401 o
1 -1 6 266.306 269.769 3.433 0.276 o
1 -1 7 90.915 85.726 2.286 1.884 o
1 -1 8 31.151 23.553 0.701 11.594 o
1 -1 9 0.780 1.909 0.777 150.402 o
1 -1 10 1.696 2.296 0.459 203.759 o
1 -1 11 9.595 9.714 0.711 42.065 o
1 -1 12 1.992 2.663 0.616 146.968 o
1 -1 13 0.004 0.365 0.553 388.066 o
1 -1 14 17.213 19.113 1.446 16.852 o
1 0 0 951.291 508.480 11.883 0.033 o
1 0 1 21.143 13.048 0.571 21.029 o
1 0 2 16.242 20.209 0.488 22.696 o
1 0 3 541.769 502.482 5.313 0.076 o
1 0 4 367.382 352.665 3.480 0.157 o
1 0 5 39.395 45.376 0.864 6.763 o
1 0 6 242.290 274.273 4.506 0.300 o
1 0 7 1.333 2.272 0.202 318.317 o
1 0 8 114.786 114.002 1.660 1.288 o
1 0 9 35.298 35.244 0.874 8.495 o
1 0 10 72.238 70.773 2.386 2.600 o
1 0 11 13.619 12.766 0.943 27.391 o
1 0 12 5.639 6.064 0.805 62.561 o
1 0 13 9.552 9.348 0.903 38.751 o
1 0 14 3.547 3.086 0.720 98.999 o
1 1 0 0.038 1.902 0.380 449.045 o
1 1 1 17.913 9.425 1.966 15.472 o
1 1 2 1202.150 1327.360 19.443 0.014 o
1 1 3 13.294 24.369 0.445 23.849 o
1 1 4 23.986 19.877 0.351 16.601 o
1 1 5 24.737 22.299 0.500 15.149 o
1 1 6 174.820 183.397 2.343 0.589 o
1 1 7 66.305 49.822 1.235 3.682 o
1 1 8 81.328 72.397 1.292 2.457 o
1 1 9 62.273 53.009 1.184 3.853 o
1 1 10 278.010 292.061 4.893 0.244 o
1 1 11 14.058 13.332 0.751 28.292 o
1 1 12 4.007 5.569 0.791 75.861 o
1 1 13 0.437 -0.068 0.484 435.120 o
1 1 14 8.988 7.972 0.952 40.834 o
1 1 15 10.774 11.227 1.175 29.552 o
1 2 0 6.860 9.654 0.247 62.866 o
1 2 1 1452.140 1462.990 30.668 0.010 o
1 2 2 3951.030 4056.230 59.664 0.001 o
1 2 3 109.017 115.631 1.659 1.354 o
1 2 4 200.789 224.685 2.267 0.441 o
1 2 5 72.408 50.800 0.727 3.390 o
1 2 6 162.435 173.792 2.239 0.664 o
1 2 7 168.354 182.202 2.614 0.613 o
1 2 8 34.987 34.182 0.808 8.754 o
1 2 9 36.506 36.804 0.943 8.001 o
1 2 10 34.843 33.420 1.064 8.596 o
1 2 11 1.538 0.964 0.400 283.106 o
1 2 12 94.179 95.293 2.579 1.685 o
1 2 13 22.884 21.891 1.159 14.393 o
1 2 14 27.645 27.604 1.393 10.698 o
1 2 15 16.162 16.693 1.159 20.483 o
1 3 0 52.404 44.114 0.607 5.237 o
1 3 1 198.432 192.567 2.928 0.486 o
1 3 2 2936.560 2930.330 53.143 0.003 o
1 3 3 349.521 356.856 4.649 0.164 o
1 3 4 323.906 327.013 3.146 0.193 o
1 3 5 50.267 39.553 0.612 5.750 o
1 3 6 99.501 106.771 1.493 1.578 o
1 3 7 32.427 28.823 0.570 10.417 o
1 3 8 11.303 10.918 0.342 40.528 o
1 3 9 1.075 1.529 0.304 357.563 o
1 3 10 4.932 4.902 0.630 81.849 o
1 3 11 45.396 47.484 1.321 5.521 o
1 3 12 250.856 248.381 5.309 0.300 o
1 3 13 68.635 66.238 2.025 2.922 o
1 3 14 26.014 29.167 1.403 10.938 o
1 3 15 0.014 1.261 1.343 67.908 o
1 4 0 622.976 624.654 6.603 0.055 o
1 4 1 447.707 488.698 5.522 0.098 o
1 4 2 32.513 31.512 0.482 10.055 o
1 4 3 9.986 11.252 0.274 44.695 o
1 4 4 3.510 4.373 0.249 136.119 o
1 4 5 101.399 119.534 1.679 1.434 o
1 4 6 248.129 264.889 3.377 0.304 o
1 4 7 4.812 4.054 0.271 111.565 o
1 4 8 137.957 150.747 2.105 0.876 o
1 4 9 146.139 140.236 2.105 0.855 o
1 4 10 332.844 337.440 5.575 0.178 o
1 4 11 220.474 215.634 3.845 0.393 o
1 4 12 43.179 41.606 1.303 6.176 o
1 4 13 5.990 5.478 1.007 52.905 o
1 4 14 6.204 5.106 0.729 65.830 o
1 4 15 13.348 13.115 1.417 22.211 o
1 5 0 1.224 1.489 0.128 423.956 o
1 5 1 199.561 223.591 2.871 0.441 o
1 5 2 53.467 57.079 0.951 4.424 o
1 5 3 43.571 37.292 0.691 6.838 o
1 5 4 16.210 16.731 0.774 23.158 o
1 5 5 111.296 100.816 1.505 1.435 o
1 5 6 93.611 84.479 1.348 1.933 o
1 5 7 350.651 350.706 4.771 0.165 o
1 5 8 650.159 663.097 8.633 0.050 o
1 5 9 75.881 70.441 1.304 2.688 o
1 5 10 65.166 62.112 1.358 3.360 o
1 5 11 160.058 150.437 3.985 0.692 o
1 5 12 1.650 1.622 0.483 216.388 o
1 5 13 32.287 35.803 1.469 8.323 o
1 5 14 88.324 78.659 2.921 1.927 o
1 5 15 51.356 48.956 2.291 4.268 o
1 6 0 14.329 13.300 0.444 30.322 o
1 6 1 0.039 -0.032 0.120 6454.450 o
1 6 2 174.872 178.342 2.424 0.597 o
1 6 3 112.347 100.256 1.646 1.416 o
1 6 4 41.035 42.047 0.855 6.773 o
1 6 5 322.822 329.146 4.213 0.191 o
1 6 6 239.685 238.683 3.170 0.339 o
1 6 7 131.845 133.158 2.160 0.990 o
1 6 8 311.171 297.883 4.536 0.211 o
1 6 9 283.513 279.020 4.293 0.247 o
1 6 10 1.193 0.812 0.482 277.302 o
1 6 11 196.809 192.053 3.571 0.484 o
1 6 12 281.836 283.023 4.965 0.244 o
1 6 13 14.941 14.605 1.284 21.425 o
1 6 14 0.130 0.462 0.725 223.303 o
1 6 15 0.694 0.733 0.799 162.932 o
1 7 0 30.156 29.740 0.946 10.501 o
1 7 1 31.456 32.486 0.744 9.973 o
1 7 2 93.954 101.954 1.698 1.711 o
1 7 3 75.381 74.421 1.495 2.603 o
1 7 4 33.435 28.288 0.867 9.856 o
1 7 5 417.266 423.918 5.792 0.117 o
1 7 6 773.230 756.771 9.250 0.037 o
1 7 7 315.095 318.287 4.207 0.201 o
1 7 8 312.883 325.443 4.302 0.200 o
1 7 9 323.535 327.693 5.010 0.189 o
1 7 10 78.901 74.188 1.622 2.463 o
1 7 11 13.043 12.375 0.774 30.454 o
1 7 12 7.583 7.445 0.696 53.748 o
1 7 13 0.099 -0.568 0.632 311.893 o
1 7 14 7.984 8.264 1.121 38.670 o
1 8 0 0.016 0.130 0.346 980.586 o
1 8 1 90.039 90.343 1.796 1.907 o
1 8 2 221.785 208.310 3.400 0.402 o
1 8 3 401.721 392.327 5.888 0.128 o
1 8 4 301.733 297.255 4.630 0.220 o
1 8 5 5.639 5.904 0.521 77.260 o
1 8 6 258.537 265.556 3.664 0.288 o
1 8 7 106.706 104.569 1.691 1.467 o
1 8 8 131.698 128.726 2.217 1.009 o
1 8 9 1.293 1.853 0.467 236.828 o
1 8 10 10.166 8.451 0.586 44.609 o
1 8 11 45.752 45.456 1.317 5.600 o
1 8 12 43.157 46.854 1.573 5.640 o
1 8 13 12.039 12.009 1.355 24.828 o
1 8 14 6.922 7.216 1.112 42.968 o
1 9 0 36.657 35.650 1.546 7.392 o
1 9 1 354.486 354.572 6.119 0.159 o
1 9 2 56.709 52.982 1.575 4.109 o
1 9 3 48.264 53.909 1.579 4.751 o
1 9 4 147.605 143.003 2.612 0.823 o
1 9 5 4.436 2.659 0.432 118.958 o
1 9 6 0.874 0.105 0.318 550.150 o
1 9 7 37.546 36.961 1.167 7.561 o
1 9 8 166.257 166.434 2.644 0.657 o
1 9 9 2.879 4.011 0.533 124.750 o
1 9 10 27.153 27.563 1.105 11.558 o
1 9 11 49.185 50.503 1.824 4.677 o
1 9 12 10.089 13.423 1.101 30.071 o
1 9 13 0.344 -0.935 0.888 153.885 o
1 10 0 11.899 13.403 1.196 26.216 o
1 10 1 1.901 1.299 0.623 168.499 o
1 10 2 13.854 10.213 1.026 27.887 o
1 10 3 0.054 0.124 0.483 515.562 o
1 10 4 27.778 28.857 1.213 10.882 o
1 10 5 23.299 22.384 1.155 14.081 o
1 10 6 31.087 31.961 1.131 9.609 o
1 10 7 60.017 61.109 1.482 3.652 o
1 10 8 89.774 88.890 1.735 1.936 o
1 10 9 1.503 1.903 0.490 214.166 o
1 10 10 1.357 0.460 0.524 255.352 o
1 10 11 0.060 -0.234 0.551 412.586 o
1 11 0 0.275 -0.137 0.824 179.456 o
1 11 1 3.295 2.104 0.892 88.463 o
1 11 2 3.801 3.167 0.956 73.779 o
1 11 3 17.779 13.766 3.065 8.956 o
1 11 4 61.305 66.579 2.792 2.976 o
1 11 5 38.098 48.168 2.667 5.060 o
1 11 6 41.817 42.964 1.975 5.662 o
1 11 7 10.920 11.632 1.028 31.319 o
1 11 8 3.305 4.412 0.669 99.056 o
1 11 9 24.724 24.758 2.018 10.128 o
2 -9 0 15.354 13.851 1.490 19.531 o
2 -9 1 16.641 19.294 1.439 17.194 o
2 -9 2 0.481 -0.064 0.660 255.803 o
2 -8 0 0.292 -0.882 0.461 506.245 o
2 -8 1 0.510 0.035 0.548 342.620 o
2 -8 2 1.003 0.032 0.543 291.945 o
2 -8 3 0.805 0.553 0.656 219.728 o
2 -8 4 1.064 0.418 0.670 203.511 o
2 -8 5 5.314 5.596 1.289 43.376 o
2 -7 0 6.100 7.475 1.041 47.485 o
2 -7 1 4.486 4.956 0.731 78.692 o
2 -7 2 2.975 2.184 0.599 132.275 o
2 -7 3 8.351 6.393 0.822 48.856 o
2 -7 4 21.948 25.380 1.523 12.656 o
2 -7 5 15.932 18.497 1.317 18.780 o
2 -7 6 0.009 -0.726 0.795 203.173 o
2 -7 7 0.249 0.850 0.778 183.501 o
2 -6 0 17.325 12.213 0.542 25.968 o
2 -6 1 277.348 278.627 14.204 0.187 o
2 -6 2 3.126 2.508 0.386 158.077 o
2 -6 3 30.648 33.904 1.729 8.411 o
2 -6 4 11.745 11.014 0.784 34.012 o
2 -6 5 0.304 3.623 1.466 52.404 o
2 -6 6 12.936 13.103 0.922 28.372 o
2 -6 7 14.372 12.687 1.355 22.127 o
2 -6 8 22.799 27.056 1.629 11.659 o
2 -5 0 109.738 130.453 1.911 1.238 o
2 -5 1 165.205 177.487 2.972 0.631 o
2 -5 2 91.549 108.455 2.454 1.627 o
2 -5 3 89.741 108.475 3.315 1.560 o
2 -5 4 154.826 179.578 7.786 0.530 o
2 -5 5 23.993 21.912 1.126 13.966 o
2 -5 6 0.896 1.365 0.434 308.530 o
2 -5 7 0.043 -0.169 0.405 758.791 o
2 -5 8 2.363 3.060 0.602 135.599 o
2 -5 9 6.398 6.314 0.740 60.698 o
2 -5 10 3.161 3.776 0.816 89.382 o
2 -4 0 271.882 287.280 4.462 0.255 o
2 -4 1 269.280 292.162 4.188 0.256 o
2 -4 2 0.065 0.609 0.274 1008.660 o
2 -4 3 6.169 7.831 0.512 66.472 o
2 -4 4 76.691 89.546 2.318 2.183 o
2 -4 5 0.944 1.175 0.306 407.774 o
2 -4 6 0.183 -0.219 0.292 1158.310 o
2 -4 7 5.349 4.517 0.573 83.325 o
2 -4 8 5.824 6.509 0.669 66.633 o
2 -4 9 8.802 8.412 0.771 45.196 o
2 -4 10 1.965 1.471 0.638 159.741 o
2 -4 11 10.681 14.254 1.304 25.769 o
2 -3 0 6.523 6.075 0.333 76.364 o
2 -3 1 16.598 25.642 0.769 18.706 o
2 -3 2 25.300 32.462 0.877 11.819 o
2 -3 3 60.624 72.296 1.468 3.304 o
2 -3 4 136.559 150.940 3.101 0.854 o
2 -3 5 116.342 123.606 3.529 1.109 o
2 -3 6 38.920 42.251 1.361 6.692 o
2 -3 7 27.241 23.687 1.168 12.083 o
2 -3 8 1.582 2.990 0.451 194.739 o
2 -3 9 59.529 66.045 2.087 3.336 o
2 -3 10 16.527 16.158 1.243 19.762 o
2 -3 11 0.933 0.814 0.850 140.693 o
2 -3 12 0.740 0.406 0.626 244.200 o
2 -2 0 411.003 501.765 6.012 0.106 o
2 -2 1 210.865 225.401 4.993 0.391 o
2 -2 2 1.501 1.964 0.191 320.027 o
2 -2 3 68.543 74.794 1.713 2.821 o
2 -2 4 34.271 32.933 0.691 9.195 o
2 -2 5 73.552 68.601 1.241 2.829 o
2 -2 6 220.744 230.136 3.917 0.377 o
2 -2 7 257.314 275.368 4.621 0.278 o
2 -2 8 18.591 15.813 0.691 21.629 o
2 -2 9 5.820 5.038 0.558 77.577 o
2 -2 10 0.028 0.541 0.472 484.952 o
2 -2 11 0.455 1.459 0.564 263.428 o
2 -2 12 28.743 29.742 1.739 9.276 o
2 -2 13 4.929 4.963 0.913 63.883 o
2 -1 0 34.114 25.114 0.416 10.602 o
2 -1 1 111.536 121.531 2.268 1.252 o
2 -1 2 0.672 2.120 0.208 435.988 o
2 -1 3 385.785 391.797 4.059 0.138 o
2 -1 4 2572.750 2727.200 31.586 0.003 o
2 -1 5 0.035 0.369 0.180 2026.550 o
2 -1 6 3.496 5.931 0.365 112.152 o
2 -1 7 3.559 3.925 0.333 133.337 o
2 -1 8 0.069 -0.173 0.260 1669.620 o
2 -1 9 124.158 113.895 1.957 1.165 o
2 -1 10 49.132 48.838 1.459 4.974 o
2 -1 11 7.887 9.613 1.043 39.277 o
2 -1 12 0.011 0.698 0.525 394.177 o
2 -1 13 15.292 13.852 1.069 23.417 o
2 0 0 340.674 354.128 4.546 0.170 o
2 0 1 4011.330 4163.430 63.254 0.001 o
2 0 2 863.834 901.901 16.631 0.027 o
2 0 3 124.258 114.713 1.662 1.171 o
2 0 4 30.277 36.207 0.816 9.695 o
2 0 5 106.103 130.980 1.775 1.285 o
2 0 6 354.861 370.292 5.695 0.155 o
2 0 7 250.059 250.247 3.511 0.312 o
2 0 8 144.961 146.168 2.061 0.844 o
2 0 9 3.149 2.328 0.333 168.197 o
2 0 10 22.286 20.421 0.793 16.452 o
2 0 11 30.593 27.527 1.262 10.124 o
2 0 12 24.235 27.343 1.359 11.977 o
2 0 13 11.708 13.768 1.045 28.176 o
2 0 14 24.907 24.567 1.422 12.046 o
2 1 0 1105.060 1165.400 12.749 0.017 o
2 1 1 2650.000 2687.820 36.561 0.003 o
2 1 2 385.054 421.213 5.288 0.130 o
2 1 3 1437.220 1463.530 15.796 0.011 o
2 1 4 813.760 899.981 11.932 0.030 o
2 1 5 73.317 75.519 1.437 2.669 o
2 1 6 6.002 6.225 0.371 79.031 o
2 1 7 6.899 5.801 0.279 75.813 o
2 1 8 3.637 2.298 0.222 164.773 o
2 1 9 61.642 56.227 1.019 3.829 o
2 1 10 89.097 90.780 1.793 1.924 o
2 1 11 27.849 23.896 1.315 11.435 o
2 1 12 95.134 86.840 2.365 1.773 o
2 1 13 44.171 48.313 1.763 5.300 o
2 1 14 7.939 8.635 1.065 39.804 o
2 2 0 9306.690 8507.680 91.745 0.000 o
2 2 1 755.503 778.302 10.586 0.037 o
2 2 2 549.180 591.616 6.059 0.067 o
2 2 3 93.698 77.868 0.978 2.038 o
2 2 4 56.458 61.749 1.205 3.945 o
2 2 5 0.195 1.247 0.410 451.714 o
2 2 6 41.825 48.057 0.993 6.131 o
2 2 7 0.095 0.437 0.228 1334.120 o
2 2 8 243.012 235.709 3.024 0.337 o
2 2 9 503.041 495.369 8.117 0.082 o
2 2 10 542.658 550.231 7.912 0.070 o
2 2 11 1.919 1.157 0.477 216.302 o
2 2 12 14.135 15.662 1.028 24.073 o
2 2 13 1.166 0.604 0.622 214.673 o
2 2 14 1.841 1.881 0.646 155.235 o
2 2 15 2.296 3.930 0.890 89.543 o
2 3 0 532.362 475.436 4.654 0.081 o
2 3 1 1319.160 1260.430 18.294 0.013 o
2 3 2 80.443 73.394 1.125 2.489 o
2 3 3 1030.080 1161.630 11.096 0.019 o
2 3 4 278.583 321.145 4.549 0.230 o
2 3 5 671.245 692.337 8.215 0.046 o
2 3 6 1287.550 1338.080 15.716 0.013 o
2 3 7 738.486 779.384 9.405 0.038 o
2 3 8 343.735 358.940 4.455 0.167 o
2 3 9 54.903 52.717 1.091 4.442 o
2 3 10 38.323 36.469 1.021 7.604 o
2 3 11 126.927 133.717 2.757 1.008 o
2 3 12 24.324 25.232 1.650 11.387 o
2 3 13 0.223 -0.547 0.511 440.338 o
2 3 14 0.255 0.545 0.567 324.284 o
2 3 15 11.237 11.709 1.078 29.965 o
2 4 0 281.879 307.955 4.483 0.234 o
2 4 1 220.158 211.823 2.568 0.408 o
2 4 2 21.614 15.775 0.414 19.848 o
2 4 3 989.493 1049.190 11.645 0.021 o
2 4 4 1951.370 2311.800 26.844 0.005 o
2 4 5 788.317 811.349 9.098 0.034 o
2 4 6 294.054 287.895 3.435 0.235 o
2 4 7 0.998 0.333 0.220 595.801 o
2 4 8 41.991 41.752 0.809 6.672 o
2 4 9 21.384 21.499 0.575 17.355 o
2 4 10 1.371 1.496 0.275 333.783 o
2 4 11 30.677 28.913 1.159 10.100 o
2 4 12 5.000 5.222 0.748 72.494 o
2 4 13 51.922 54.378 1.882 4.267 o
2 4 14 62.135 64.095 2.088 3.253 o
2 4 15 26.686 26.105 2.300 8.698 o
2 5 0 612.250 613.028 7.353 0.057 o
2 5 1 1447.200 1587.770 18.551 0.010 o
2 5 2 523.205 560.998 7.393 0.073 o
2 5 3 81.595 55.288 1.087 2.793 o
2 5 4 208.838 210.656 3.011 0.433 o
2 5 5 152.571 157.736 2.577 0.750 o
2 5 6 218.204 227.459 3.047 0.392 o
2 5 7 12.497 14.603 0.517 31.944 o
2 5 8 45.623 46.001 1.285 5.603 o
2 5 9 1.330 1.075 0.304 353.411 o
2 5 10 109.319 105.651 1.853 1.410 o
2 5 11 273.923 279.095 4.937 0.255 o
2 5 12 87.459 87.902 2.394 1.923 o
2 5 13 1.673 0.532 0.570 211.867 o
2 5 14 5.940 6.841 0.826 58.004 o
2 5 15 0.065 0.533 0.799 187.998 o
2 6 0 124.246 141.530 1.876 1.030 o
2 6 1 37.360 24.088 0.633 9.603 o
2 6 2 97.404 97.626 1.427 1.705 o
2 6 3 371.044 393.706 4.927 0.143 o
2 6 4 54.735 46.540 1.102 4.722 o
2 6 5 128.018 128.782 2.076 1.047 o
2 6 6 68.736 61.444 1.242 3.216 o
2 6 7 94.159 97.967 1.729 1.743 o
2 6 8 308.099 283.826 4.043 0.222 o
2 6 9 679.894 674.567 8.879 0.046 o
2 6 10 97.206 99.497 1.816 1.663 o
2 6 11 39.370 40.114 1.351 6.797 o
2 6 12 10.534 8.972 0.863 37.622 o
2 6 13 5.194 6.296 0.902 59.520 o
2 6 14 6.146 4.627 0.783 64.900 o
2 6 15 21.344 21.829 2.016 11.507 o
2 7 0 95.614 94.872 1.394 1.770 o
2 7 1 67.701 66.058 1.077 3.182 o
2 7 2 183.423 171.791 2.467 0.576 o
2 7 3 531.478 543.548 7.266 0.073 o
2 7 4 6.976 8.792 0.542 58.032 o
2 7 5 266.104 259.842 3.769 0.281 o
2 7 6 1217.120 1158.060 14.838 0.015 o
2 7 7 483.240 494.060 6.709 0.088 o
2 7 8 19.541 17.173 0.702 20.059 o
2 7 9 48.374 47.112 1.672 5.003 o
2 7 10 0.502 0.044 0.307 763.245 o
2 7 11 6.843 5.562 0.618 65.399 o
2 7 12 45.840 41.516 1.903 5.368 o
2 7 13 68.805 70.719 2.163 2.787 o
2 7 14 1.085 1.425 0.773 150.000 o
2 8 0 192.498 187.833 2.919 0.511 o
2 8 1 83.125 82.731 1.599 2.203 o
2 8 2 45.157 45.222 1.111 5.812 o
2 8 3 470.404 465.026 6.383 0.095 o
2 8 4 1062.900 1046.490 13.528 0.019 o
2 8 5 50.178 55.369 1.607 4.508 o
2 8 6 91.741 90.556 1.745 1.871 o
2 8 7 36.322 39.819 0.949 7.731 o
2 8 8 53.991 54.196 1.218 4.412 o
2 8 9 75.844 75.937 1.608 2.541 o
2 8 10 39.436 38.330 1.112 7.154 o
2 8 11 28.068 28.299 1.125 11.072 o
2 8 12 3.308 2.760 0.664 111.361 o
2 8 13 0.008 -0.477 0.725 244.750 o
2 8 14 15.727 16.869 1.902 15.199 o
2 9 0 347.906 336.499 6.041 0.168 o
2 9 1 338.683 336.547 6.009 0.173 o
2 9 2 102.417 91.390 2.003 1.627 o
2 9 3 26.980 23.931 0.829 12.961 o
2 9 4 2.223 1.878 0.349 217.341 o
2 9 5 53.306 48.455 1.143 4.749 o
2 9 6 52.070 56.214 1.330 4.443 o
2 9 7 4.161 3.901 0.443 111.851 o
2 9 8 57.910 55.958 1.507 3.946 o
2 9 9 32.480 37.670 1.273 8.376 o
2 9 10 23.100 26.913 1.108 13.287 o
2 9 11 0.094 -0.355 0.444 611.546 o
2 9 12 1.014 0.865 0.541 256.460 o
2 9 13 1.564 0.428 0.683 177.616 o
2 10 0 49.863 47.713 1.759 4.781 o
2 10 1 2.590 2.096 0.617 138.908 o
2 10 2 10.061 10.467 0.892 36.456 o
2 10 3 59.503 61.864 2.277 3.373 o
2 10 4 32.449 29.582 1.411 9.084 o
2 10 5 1.803 1.872 0.493 198.784 o
2 10 6 0.073 -0.563 0.365 896.531 o
2 10 7 2.577 2.588 0.443 165.233 o
2 10 8 10.222 8.480 0.803 40.205 o
2 10 9 32.713 36.850 1.332 8.331 o
2 10 10 13.951 13.122 0.875 27.390 o
2 10 11 1.352 -0.504 0.596 233.991 o
2 10 12 1.200 -0.380 1.268 72.301 o
2 11 0 74.046 77.790 2.426 2.413 o
2 11 1 14.539 15.541 1.202 22.108 o
2 11 2 4.667 5.245 0.799 71.618 o
2 11 3 0.717 0.044 0.555 310.997 o
2 11 4 1.764 1.343 0.553 193.949 o
2 11 5 1.883 2.189 0.707 136.806 o
2 11 6 3.719 4.381 0.792 83.193 o
2 11 7 7.431 7.707 0.799 50.574 o
2 11 8 1.762 0.988 0.631 176.533 o
2 11 9 0.699 0.938 0.558 268.396 o
2 11 10 45.511 42.117 1.670 5.564 o
2 12 4 8.595 10.676 1.688 24.312 o
2 12 5 2.960 2.790 1.395 49.386 o
3 -9 0 7.343 6.817 1.028 45.034 o
3 -8 0 17.607 18.425 1.360 17.371 o
3 -8 1 5.388 6.145 1.756 28.923 o
3 -8 2 0.110 0.386 0.825 177.831 o
3 -8 3 0.990 0.299 0.696 198.579 o
3 -7 0 0.473 0.000 0.420 529.135 o
3 -7 1 0.396 1.165 0.564 280.553 o
3 -7 2 19.639 20.177 1.357 15.664 o
3 -7 3 41.218 56.302 3.162 4.064 o
3 -7 4 7.468 9.493 1.084 39.407 o
3 -7 5 11.945 13.067 1.217 26.098 o
3 -6 0 38.941 42.178 1.586 6.471 o
3 -6 1 85.460 103.706 5.628 1.318 o
3 -6 2 11.706 11.027 0.975 31.298 o
3 -6 3 28.649 34.453 3.954 4.715 o
3 -6 4 61.649 76.655 4.394 2.215 o
3 -6 5 16.596 15.427 1.886 15.245 o
3 -6 6 0.018 0.443 0.666 269.666 o
3 -6 7 57.457 68.018 2.758 3.125 o
3 -5 0 32.773 26.561 0.955 10.174 o
3 -5 1 459.666 498.954 9.123 0.090 o
3 -5 2 159.586 184.449 8.156 0.497 o
3 -5 3 24.090 33.098 1.593 10.422 o
3 -5 4 13.652 13.008 1.064 25.850 o
3 -5 5 53.045 59.674 2.047 3.917 o
3 -5 6 26.697 37.722 3.295 5.744 o
3 -5 7 12.307 15.429 1.206 24.433 o
3 -5 8 2.166 1.354 0.799 121.576 o
3 -5 9 0.002 -0.303 0.772 215.901 o
3 -4 0 59.363 62.050 1.937 3.508 o
3 -4 1 5.195 6.095 0.483 82.282 o
3 -4 2 26.762 27.727 1.039 11.819 o
3 -4 3 379.805 451.412 14.499 0.107 o
3 -4 4 19.319 16.521 1.012 18.947 o
3 -4 5 9.120 7.892 0.548 50.168 o
3 -4 6 23.023 23.648 1.069 14.208 o
3 -4 7 17.301 22.415 1.481 15.656 o
3 -4 8 27.627 28.627 1.280 10.815 o
3 -4 9 22.465 25.276 1.335 13.161 o
3 -4 10 3.291 4.842 0.891 76.587 o
3 -3 0 2.511 4.936 0.468 130.957 o
3 -3 1 0.460 0.253 0.114 1332.950 o
3 -3 2 13.167 16.738 0.463 29.259 o
3 -3 3 764.687 794.549 14.450 0.035 o
3 -3 4 0.076 0.117 0.276 1355.010 o
3 -3 5 81.809 87.773 2.326 2.070 o
3 -3 6 90.459 93.016 2.326 1.810 o
3 -3 7 83.991 84.133 2.259 2.071 o
3 -3 8 1.360 1.004 0.491 251.151 o
3 -3 9 17.126 16.262 1.044 20.662 o
3 -3 10 0.013 0.485 0.651 280.087 o
3 -3 11 0.073 -0.594 0.591 358.070 o
3 -2 0 248.676 227.845 3.395 0.332 o
3 -2 1 474.988 489.134 5.918 0.091 o
3 -2 2 208.825 229.838 4.129 0.400 o
3 -2 3 227.473 248.952 5.238 0.336 o
3 -2 4 75.891 74.140 2.760 2.336 o
3 -2 5 54.531 53.974 1.456 4.284 o
3 -2 6 1.070 1.554 0.344 332.257 o
3 -2 7 9.110 5.572 0.594 54.055 o
3 -2 8 7.508 5.444 0.518 65.331 o
3 -2 9 0.469 0.429 0.359 569.177 o
3 -2 10 0.499 0.066 0.489 409.128 o
3 -2 11 6.731 4.782 0.852 58.023 o
3 -2 12 3.592 3.861 1.149 59.202 o
3 -1 0 14.626 19.624 0.455 25.084 o
3 -1 1 526.525 558.938 7.796 0.072 o
3 -1 2 1005.110 1051.320 15.942 0.021 o
3 -1 3 13.826 11.004 0.393 33.831 o
3 -1 4 0.136 0.258 0.222 1484.350 o
3 -1 5 12.422 13.379 0.511 33.345 o
3 -1 6 1.368 2.314 0.284 284.234 o
3 -1 7 0.019 -0.364 0.257 1871.620 o
3 -1 8 25.083 22.243 0.846 14.204 o
3 -1 9 34.348 27.951 1.068 9.375 o
3 -1 10 3.922 5.553 0.635 88.230 o
3 -1 11 23.145 23.371 1.283 13.469 o
3 -1 12 13.022 14.509 1.070 25.632 o
3 -1 13 0.527 -0.214 0.681 239.053 o
3 0 0 429.437 450.361 6.043 0.108 o
3 0 1 11.508 10.881 0.465 38.801 o
3 0 2 82.937 89.055 1.290 2.152 o
3 0 3 51.006 70.009 1.216 4.035 o
3 0 4 13.271 14.788 0.467 30.724 o
3 0 5 0.431 0.415 0.199 984.749 o
3 0 6 46.892 44.988 0.898 5.722 o
3 0 7 41.032 34.517 0.790 7.464 o
3 0 8 66.963 72.751 1.480 2.982 o
3 0 9 130.002 131.126 2.638 0.997 o
3 0 10 7.238 7.658 0.778 52.118 o
3 0 11 29.814 31.854 1.281 9.703 o
3 0 12 5.955 4.749 0.750 67.457 o
3 0 13 2.046 4.102 0.783 104.439 o
3 1 0 32.469 42.304 0.645 8.531 o
3 1 1 0.211 3.187 0.175 438.601 o
3 1 2 5.643 3.966 0.224 101.363 o
3 1 3 4.412 4.998 0.230 112.307 o
3 1 4 4.802 4.343 0.232 111.156 o
3 1 5 38.279 35.218 0.954 7.794 o
3 1 6 672.177 718.795 11.000 0.044 o
3 1 7 98.783 87.805 1.840 1.743 o
3 1 8 176.246 176.727 3.219 0.583 o
3 1 9 53.116 52.110 1.399 4.498 o
3 1 10 1.757 2.132 0.461 204.251 o
3 1 11 0.080 0.055 0.449 593.215 o
3 1 12 3.035 2.091 0.546 140.651 o
3 1 13 0.812 0.334 0.600 257.371 o
3 1 14 3.357 4.182 0.835 83.641 o
3 2 0 256.203 259.923 2.907 0.298 o
3 2 1 2.089 1.449 0.133 296.419 o
3 2 2 316.538 328.285 3.827 0.197 o
3 2 3 260.371 294.656 3.920 0.266 o
3 2 4 179.113 190.097 2.931 0.552 o
3 2 5 401.124 435.975 6.836 0.119 o
3 2 6 1404.950 1350.580 20.145 0.011 o
3 2 7 28.817 26.934 0.894 11.509 o
3 2 8 0.039 0.745 0.323 790.622 o
3 2 9 100.937 99.447 2.105 1.574 o
3 2 10 13.718 16.254 1.004 24.430 o
3 2 11 3.159 4.159 0.693 100.009 o
3 2 12 0.973 0.550 0.588 245.141 o
3 2 13 0.048 -0.313 0.540 431.239 o
3 2 14 1.126 0.907 0.683 185.233 o
3 3 0 48.518 64.711 1.091 4.475 o
3 3 1 18.538 16.064 0.442 22.625 o
3 3 2 2143.050 2328.610 27.007 0.005 o
3 3 3 1031.780 1041.820 12.275 0.020 o
3 3 4 1314.710 1364.720 17.071 0.012 o
3 3 5 12.579 13.505 0.709 30.992 o
3 3 6 43.406 45.709 1.286 5.890 o
3 3 7 91.674 99.891 2.027 1.747 o
3 3 8 5.627 7.712 0.550 69.109 o
3 3 9 18.238 19.142 0.806 19.849 o
3 3 10 105.243 108.561 2.268 1.422 o
3 3 11 18.324 16.535 1.069 19.381 o
3 3 12 36.163 35.696 1.377 7.696 o
3 3 13 13.927 12.509 0.957 26.989 o
3 3 14 33.583 33.014 1.823 7.758 o
3 4 0 626.280 639.979 8.868 0.053 o
3 4 1 1525.220 1670.300 20.831 0.009 o
3 4 2 3007.760 3168.270 34.620 0.002 o
3 4 3 1070.900 1189.310 14.007 0.018 o
3 4 4 88.768 112.258 1.756 1.707 o
3 4 5 0.622 0.895 0.196 670.037 o
3 4 6 22.088 20.732 0.599 17.069 o
3 4 7 2.668 4.593 0.440 134.741 o
3 4 8 10.427 8.609 1.000 35.608 o
3 4 9 26.891 23.736 0.962 12.735 o
3 4 10 1.541 1.338 0.393 269.007 o
3 4 11 159.952 161.291 3.616 0.677 o
3 4 12 148.878 157.768 3.281 0.752 o
3 4 13 4.721 5.404 0.726 75.260 o
3 4 14 0.060 -0.265 0.601 348.174 o
3 5 0 0.660 1.384 1.128 87.802 o
3 5 1 188.579 207.518 2.918 0.493 o
3 5 2 472.430 418.688 5.544 0.101 o
3 5 3 24.756 27.519 0.761 13.299 o
3 5 4 12.519 17.767 0.576 28.708 o
3 5 5 81.055 75.574 1.351 2.406 o
3 5 6 1.524 5.797 0.354 161.369 o
3 5 7 115.135 120.512 1.939 1.231 o
3 5 8 131.759 134.944 2.131 0.984 o
3 5 9 104.038 103.822 1.967 1.497 o
3 5 10 20.742 16.856 0.854 18.528 o
3 5 11 3.615 2.733 0.622 111.911 o
3 5 12 41.672 42.507 1.492 6.162 o
3 5 13 0.648 1.124 0.708 190.451 o
3 5 14 10.877 9.658 0.975 34.088 o
3 6 0 154.967 142.671 2.697 0.776 o
3 6 1 19.517 18.113 0.990 18.313 o
3 6 2 127.341 134.952 2.122 1.023 o
3 6 3 96.029 92.857 1.605 1.767 o
3 6 4 49.943 39.160 0.939 5.686 o
3 6 5 104.682 107.028 1.991 1.460 o
3 6 6 27.714 26.883 0.874 11.967 o
3 6 7 192.499 178.053 2.757 0.529 o
3 6 8 27.639 27.352 1.163 11.292 o
3 6 9 0.018 -0.864 0.302 1374.790 o
3 6 10 115.637 117.099 2.471 1.218 o
3 6 11 81.254 78.749 2.240 2.219 o
3 6 12 0.003 -0.714 0.491 532.826 o
3 6 13 18.280 14.652 1.006 20.610 o
3 6 14 1.041 -0.061 0.751 180.672 o
3 7 0 43.910 41.578 1.245 6.122 o
3 7 1 6.971 4.742 0.341 78.003 o
3 7 2 122.525 122.975 1.993 1.133 o
3 7 3 47.436 55.365 1.348 4.883 o
3 7 4 98.798 86.877 1.743 1.761 o
3 7 5 68.217 54.784 1.214 3.427 o
3 7 6 0.401 1.574 1.093 94.301 o
3 7 7 99.007 94.924 1.770 1.676 o
3 7 8 242.279 246.284 3.984 0.324 o
3 7 9 0.045 0.185 0.377 795.748 o
3 7 10 3.476 3.772 0.548 114.144 o
3 7 11 0.498 -0.084 0.833 168.477 o
3 7 12 0.016 -0.061 0.490 530.656 o
3 7 13 1.575 1.505 0.654 167.204 o
3 7 14 0.342 -0.767 0.625 293.517 o
3 8 0 50.154 46.976 1.421 4.987 o
3 8 1 110.851 104.947 2.316 1.364 o
3 8 2 147.773 142.049 2.535 0.827 o
3 8 3 2.780 1.714 0.652 132.548 o
3 8 4 0.247 -0.609 0.329 897.552 o
3 8 5 155.198 146.184 2.255 0.775 o
3 8 6 57.044 53.633 1.388 4.134 o
3 8 7 0.390 0.142 0.316 778.379 o
3 8 8 0.186 0.117 0.325 917.688 o
3 8 9 11.973 15.011 0.830 29.423 o
3 8 10 13.041 12.346 0.842 29.711 o
3 8 11 5.580 5.601 0.746 67.305 o
3 8 12 32.791 34.038 1.416 8.488 o
3 8 13 12.947 13.138 1.074 26.550 o
3 9 0 17.549 18.937 1.494 16.402 o
3 9 1 0.659 -0.473 0.726 207.210 o
3 9 2 10.484 9.902 0.762 38.461 o
3 9 3 12.953 11.609 0.737 31.708 o
3 9 4 1.346 0.792 0.368 331.418 o
3 9 5 20.775 20.339 1.078 16.307 o
3 9 6 19.695 20.121 0.856 18.079 o
3 9 7 35.034 36.326 1.096 8.199 o
3 9 8 18.212 20.811 0.845 18.996 o
3 9 9 7.658 8.026 0.631 54.050 o
3 9 10 25.314 23.833 1.055 13.145 o
3 9 11 60.498 63.575 1.841 3.436 o
3 9 12 36.875 38.667 1.686 6.928 o
3 9 13 9.909 11.155 1.210 30.355 o
3 10 0 0.541 0.909 0.626 241.076 o
3 10 1 30.899 32.782 1.613 8.698 o
3 10 2 1.428 0.369 0.594 219.452 o
3 10 3 1.867 1.738 0.677 149.139 o
3 10 4 24.675 23.805 1.201 12.990 o
3 10 5 24.481 21.727 1.125 13.783 o
3 10 6 14.993 15.275 0.979 23.766 o
3 10 7 21.604 21.711 0.937 15.966 o
3 10 8 79.317 79.047 1.653 2.366 o
3 10 9 8.231 8.411 0.693 49.180 o
3 10 10 33.234 35.370 1.728 7.765 o
3 10 11 56.227 60.041 1.905 3.766 o
3 11 0 0.785 0.058 1.025 110.330 o
3 11 1 44.313 47.018 2.252 4.950 o
3 11 2 1.679 1.985 0.897 107.393 o
3 11 3 0.065 -0.475 0.565 391.998 o
3 11 4 2.836 2.291 0.755 109.904 o
3 11 5 2.160 0.919 0.626 165.534 o
3 11 6 44.176 50.239 2.026 4.999 o
3 11 7 51.488 52.385 1.820 4.410 o
3 11 8 37.765 39.285 1.432 7.035 o
3 11 9 6.041 6.728 0.862 56.245 o
3 11 10 62.395 59.558 2.132 3.339 o
3 12 2 6.472 5.454 1.522 33.680 o
3 12 3 10.444 10.952 1.391 26.778 o
3 12 4 24.418 27.541 1.726 10.754 o
3 12 5 6.435 4.962 0.940 55.082 o
3 12 6 21.144 22.808 1.575 13.282 o
4 -8 0 48.684 59.928 3.529 3.315 o
4 -7 0 72.679 71.519 2.161 2.625 o
4 -7 1 25.575 29.057 1.625 10.489 o
4 -7 2 1.790 1.750 0.731 138.763 o
4 -7 3 6.300 4.539 0.917 57.683 o
4 -6 0 4.129 3.277 0.662 96.530 o
4 -6 1 22.722 23.160 1.476 12.968 o
4 -6 2 0.484 1.056 0.592 259.617 o
4 -6 3 7.457 8.707 0.991 43.001 o
4 -6 4 61.272 75.806 4.577 2.173 o
4 -6 5 70.118 80.938 5.126 1.786 o
4 -6 6 0.730 1.053 0.783 162.151 o
4 -5 0 0.034 0.432 0.372 740.641 o
4 -5 1 148.767 164.552 3.307 0.734 o
4 -5 2 167.669 190.930 7.537 0.486 o
4 -5 3 127.439 147.700 8.293 0.652 o
4 -5 4 23.695 29.580 1.731 10.651 o
4 -5 5 0.030 0.104 0.568 385.920 o
4 -5 6 6.813 9.475 1.031 42.587 o
4 -5 7 0.855 1.021 0.779 160.239 o
4 -4 0 512.001 502.529 8.090 0.080 o
4 -4 1 212.581 206.744 3.791 0.421 o
4 -4 2 33.929 27.365 1.094 9.523 o
4 -4 3 18.131 15.408 0.983 20.559 o
4 -4 4 0.065 -0.236 0.525 452.462 o
4 -4 5 1.463 1.881 0.628 172.308 o
4 -4 6 43.810 45.656 2.032 5.253 o
4 -4 7 15.562 18.788 1.481 17.751 o
4 -4 8 0.002 0.487 0.699 246.326 o
4 -4 9 43.025 47.965 4.239 3.342 o
4 -3 0 6.677 6.286 0.520 67.960 o
4 -3 1 0.025 -0.047 0.267 1719.460 o
4 -3 2 39.473 37.963 1.371 6.931 o
4 -3 3 368.569 383.319 5.707 0.145 o
4 -3 4 167.265 171.537 3.848 0.617 o
4 -3 5 5.380 5.394 0.504 82.811 o
4 -3 6 49.061 43.225 1.220 5.407 o
4 -3 7 58.414 56.411 2.105 3.657 o
4 -3 8 6.081 6.325 0.757 61.656 o
4 -3 9 1.676 1.584 0.556 191.327 o
4 -3 10 5.265 3.838 1.144 52.567 o
4 -2 0 242.215 230.282 3.203 0.342 o
4 -2 1 189.401 191.824 2.739 0.517 o
4 -2 2 18.947 12.093 0.598 23.713 o
4 -2 3 0.038 0.156 0.202 2253.140 o
4 -2 4 65.417 61.029 2.085 3.168 o
4 -2 5 305.999 321.132 6.213 0.200 o
4 -2 6 0.299 -0.494 0.329 856.130 o
4 -2 7 3.574 3.709 0.475 120.889 o
4 -2 8 0.168 -0.567 0.385 749.740 o
4 -2 9 4.391 3.857 0.584 96.683 o
4 -2 10 2.559 2.517 0.741 114.578 o
4 -2 11 6.469 6.440 1.040 48.047 o
4 -1 0 0.160 0.293 0.208 1486.660 o
4 -1 1 278.679 340.781 4.559 0.221 o
4 -1 2 275.909 307.647 5.203 0.237 o
4 -1 3 21.543 22.906 0.813 16.076 o
4 -1 4 21.278 25.086 0.832 15.525 o
4 -1 5 168.813 158.347 2.680 0.663 o
4 -1 6 0.052 -0.148 0.320 1171.140 o
4 -1 7 7.251 6.493 0.555 62.448 o
4 -1 8 0.762 0.416 0.407 422.750 o
4 -1 9 49.486 51.700 1.535 4.765 o
4 -1 10 11.046 10.180 0.915 34.256 o
4 -1 11 5.150 6.012 0.703 71.135 o
4 -1 12 8.065 9.350 1.623 26.652 o
4 0 0 173.057 185.720 2.636 0.587 o
4 0 1 59.529 73.040 1.250 3.395 o
4 0 2 1.119 -0.004 0.135 718.400 o
4 0 3 33.124 25.982 0.653 10.560 o
4 0 4 34.910 38.468 0.826 8.269 o
4 0 5 48.111 44.083 0.940 5.610 o
4 0 6 38.683 42.248 0.970 7.065 o
4 0 7 51.782 52.031 1.598 4.518 o
4 0 8 3.277 2.179 0.469 145.743 o
4 0 9 105.869 103.517 2.319 1.446 o
4 0 10 0.183 -0.096 0.469 523.961 o
4 0 11 1.763 0.107 0.539 231.918 o
4 0 12 0.740 0.626 0.558 278.285 o
4 1 0 11.391 13.999 0.450 35.428 o
4 1 1 382.094 365.111 4.873 0.144 o
4 1 2 27.919 26.441 0.660 12.350 o
4 1 3 191.635 192.277 2.571 0.511 o
4 1 4 335.756 314.280 4.258 0.187 o
4 1 5 5.563 7.234 0.467 74.776 o
4 1 6 105.158 105.128 2.147 1.457 o
4 1 7 14.148 13.166 0.742 28.365 o
4 1 8 1.067 0.363 0.398 380.046 o
4 1 9 15.159 13.271 0.822 26.140 o
4 1 10 0.026 0.072 0.436 648.000 o
4 1 11 3.715 2.829 0.670 104.009 o
4 1 12 12.982 13.590 1.208 24.678 o
4 1 13 45.452 42.207 2.349 4.979 o
4 2 0 200.472 223.790 3.389 0.434 o
4 2 1 316.004 301.052 4.080 0.207 o
4 2 2 13.781 8.510 0.407 36.623 o
4 2 3 32.979 37.658 0.806 8.821 o
4 2 4 158.331 142.178 1.981 0.774 o
4 2 5 33.008 34.562 1.017 8.951 o
4 2 6 46.701 43.111 1.215 5.690 o
4 2 7 44.349 47.968 1.335 5.605 o
4 2 8 9.011 10.349 0.971 37.398 o
4 2 9 54.827 56.124 1.547 4.143 o
4 2 10 125.705 123.619 2.613 1.071 o
4 2 11 103.935 94.649 2.783 1.503 o
4 2 12 17.290 18.744 1.209 18.440 o
4 2 13 2.438 3.031 0.639 128.129 o
4 3 0 177.804 172.749 2.517 0.596 o
4 3 1 4.735 8.999 0.429 75.815 o
4 3 2 435.107 432.429 5.724 0.110 o
4 3 3 15.614 8.884 0.534 31.330 o
4 3 4 3.085 3.669 0.274 155.298 o
4 3 5 7.191 10.219 0.561 53.107 o
4 3 6 1.626 1.025 0.367 287.624 o
4 3 7 145.815 141.127 2.737 0.837 o
4 3 8 265.959 269.628 4.661 0.271 o
4 3 9 108.554 103.950 2.255 1.408 o
4 3 10 15.398 14.880 0.855 24.556 o
4 3 11 0.651 0.507 0.769 178.663 o
4 3 12 27.643 25.587 1.399 10.998 o
4 3 13 9.409 9.681 1.074 35.123 o
4 3 14 1.447 1.298 0.722 155.466 o
4 4 0 350.705 336.228 4.249 0.170 o
4 4 1 686.564 744.929 9.566 0.043 o
4 4 2 283.901 284.510 3.930 0.245 o
4 4 3 18.068 22.545 0.689 19.092 o
4 4 4 385.126 344.266 4.694 0.148 o
4 4 5 393.484 419.179 5.587 0.127 o
4 4 6 23.440 21.158 0.798 15.515 o
4 4 7 0.073 -0.681 0.314 1183.650 o
4 4 8 126.852 117.569 2.435 1.097 o
4 4 9 166.117 157.041 3.061 0.671 o
4 4 10 118.014 115.521 2.463 1.200 o
4 4 11 7.721 8.798 0.893 44.859 o
4 4 12 28.265 32.251 1.710 9.157 o
4 4 13 0.877 -0.734 0.553 298.770 o
4 4 14 7.918 6.062 0.839 50.571 o
4 5 0 3.892 3.210 0.343 133.057 o
4 5 1 510.869 476.258 6.295 0.084 o
4 5 2 36.086 37.245 0.819 8.153 o
4 5 3 3.101 3.455 0.383 145.402 o
4 5 4 12.672 8.101 0.517 38.799 o
4 5 5 64.551 54.020 1.122 3.688 o
4 5 6 301.104 287.738 4.022 0.226 o
4 5 7 284.544 278.063 3.653 0.249 o
4 5 8 176.116 179.961 3.384 0.575 o
4 5 9 5.237 5.069 0.599 80.219 o
4 5 10 0.009 -0.350 0.401 793.111 o
4 5 11 62.270 61.568 1.976 3.349 o
4 5 12 4.397 6.668 0.867 64.673 o
4 5 13 32.072 28.552 1.812 8.507 o
4 5 14 4.399 2.643 0.727 90.921 o
4 6 0 124.627 120.988 2.450 1.102 o
4 6 1 1.475 1.808 0.220 323.475 o
4 6 2 25.996 38.034 0.924 10.540 o
4 6 3 143.552 145.210 2.156 0.855 o
4 6 4 945.626 1019.980 14.143 0.023 o
4 6 5 204.294 185.229 3.104 0.478 o
4 6 6 55.966 55.404 1.333 4.168 o
4 6 7 0.708 1.350 0.345 403.783 o
4 6 8 15.671 17.087 0.795 23.412 o
4 6 9 14.704 11.096 0.779 28.743 o
4 6 10 91.737 83.215 2.030 1.925 o
4 6 11 55.099 54.855 1.959 3.984 o
4 6 12 25.014 24.416 1.401 12.099 o
4 6 13 4.378 4.657 0.952 65.573 o
4 6 14 26.098 26.456 1.561 10.902 o
4 7 0 80.394 75.886 1.921 2.340 o
4 7 1 237.328 230.120 4.155 0.344 o
4 7 2 145.558 147.894 2.317 0.828 o
4 7 3 70.343 61.475 1.179 3.147 o
4 7 4 145.541 155.277 2.511 0.800 o
4 7 5 8.721 7.788 0.574 51.430 o
4 7 6 0.291 0.764 0.323 642.610 o
4 7 7 143.943 129.309 2.430 0.901 o
4 7 8 31.840 25.014 1.189 10.272 o
4 7 9 12.208 10.748 0.761 33.668 o
4 7 10 0.210 0.215 0.474 477.315 o
4 7 11 11.144 13.450 1.052 29.140 o
4 7 12 31.812 37.881 1.739 7.778 o
4 7 13 71.514 78.152 2.215 2.537 o
4 8 0 81.217 82.923 2.056 2.192 o
4 8 1 29.746 26.628 1.096 10.855 o
4 8 2 58.125 62.225 1.685 3.666 o
4 8 3 40.350 40.590 1.711 6.257 o
4 8 4 22.812 21.254 1.104 14.796 o
4 8 5 70.815 60.054 2.106 2.939 o
4 8 6 42.316 41.779 1.212 6.353 o
4 8 7 2.540 3.712 0.498 140.582 o
4 8 8 1.889 0.995 0.452 231.802 o
4 8 9 116.389 121.478 2.672 1.174 o
4 8 10 106.784 108.107 2.487 1.387 o
4 8 11 42.672 46.892 1.784 5.521 o
4 8 12 46.029 50.309 1.925 4.899 o
4 8 13 12.563 13.146 1.036 27.524 o
4 9 0 40.139 40.462 1.455 6.553 o
4 9 1 1.275 0.126 0.438 334.377 o
4 9 2 3.181 2.126 0.507 143.055 o
4 9 3 2.971 0.710 0.438 186.918 o
4 9 4 40.635 42.100 1.454 6.366 o
4 9 5 0.023 0.201 0.276 1374.390 o
4 9 6 67.528 63.874 1.613 3.133 o
4 9 7 113.841 115.731 2.354 1.254 o
4 9 8 40.920 42.147 1.255 6.494 o
4 9 9 59.085 56.806 1.715 3.764 o
4 9 10 30.359 31.483 1.344 9.491 o
4 9 11 2.963 2.464 0.677 117.675 o
4 9 12 17.198 18.899 1.170 18.702 o
4 10 0 1.600 1.753 0.703 149.829 o
4 10 1 1.037 0.893 0.679 190.571 o
4 10 2 2.790 1.361 0.663 134.346 o
4 10 3 23.171 23.235 1.393 13.084 o
4 10 4 154.556 156.385 3.318 0.724 o
4 10 5 25.956 25.992 1.148 12.186 o
4 10 6 4.870 5.228 0.619 81.615 o
4 10 7 19.345 20.110 1.183 16.754 o
4 10 8 44.977 49.812 1.284 5.459 o
4 10 9 46.798 48.528 1.629 5.116 o
4 10 10 23.695 21.067 1.193 14.073 o
4 10 11 0.372 0.731 0.595 280.178 o
4 11 0 58.213 56.940 2.321 3.557 o
4 11 1 10.321 11.630 1.207 29.406 o
4 11 2 13.446 11.666 1.281 24.379 o
4 11 3 3.183 2.587 0.777 100.163 o
4 11 4 17.784 14.771 1.267 19.151 o
4 11 5 20.627 20.588 1.415 14.751 o
4 11 6 32.608 38.109 1.461 8.036 o
4 11 7 62.133 62.387 2.029 3.317 o
4 11 8 30.854 36.489 1.758 8.057 o
4 11 9 27.962 31.297 1.627 9.536 o
4 12 3 40.621 43.466 2.090 5.653 o
4 12 4 47.544 49.269 2.563 4.345 o
4 12 5 14.459 16.839 1.390 19.952 o
4 12 6 5.726 6.088 1.902 25.518 o
5 -7 0 0.562 0.756 0.798 166.749 o
5 -6 0 50.829 48.395 1.895 4.582 o
5 -6 1 60.642 55.378 1.933 3.628 o
5 -6 2 113.629 126.732 5.998 0.930 o
5 -6 3 9.101 9.722 1.135 34.425 o
5 -5 0 65.293 69.276 2.167 2.961 o
5 -5 1 8.449 10.830 0.980 37.969 o
5 -5 2 0.360 1.045 0.511 331.901 o
5 -5 3 1.589 2.919 0.779 121.443 o
5 -5 4 1.500 1.433 0.714 154.348 o
5 -5 5 1.125 0.842 0.878 129.495 o
5 -4 0 9.995 10.395 0.749 39.305 o
5 -4 1 9.120 8.942 0.726 44.373 o
5 -4 2 3.881 4.179 1.003 66.525 o
5 -4 3 0.299 0.811 0.505 361.745 o
5 -4 4 0.161 0.008 0.544 403.032 o
5 -4 5 0.087 -0.709 0.560 394.877 o
5 -4 6 2.320 1.400 0.838 111.881 o
5 -4 7 13.315 14.216 1.392 22.004 o
5 -3 0 10.173 9.005 0.660 42.361 o
5 -3 1 33.732 37.102 1.222 8.238 o
5 -3 2 2.796 4.212 0.718 101.656 o
5 -3 3 40.450 41.319 1.360 6.533 o
5 -3 4 1.292 0.085 0.381 380.795 o
5 -3 5 21.715 21.136 1.140 15.271 o
5 -3 6 2.470 4.543 0.889 85.017 o
5 -3 7 0.178 0.529 0.679 245.988 o
5 -3 8 1.125 0.860 0.754 162.098 o
5 -2 0 0.002 -0.044 0.225 2527.080 o
5 -2 1 51.088 46.590 1.094 5.074 o
5 -2 2 94.125 86.029 1.702 1.873 o
5 -2 3 119.380 121.558 2.220 1.164 o
5 -2 4 134.693 123.569 2.264 1.004 o
5 -2 5 18.429 17.683 0.837 20.157 o
5 -2 6 27.050 28.316 1.107 11.456 o
5 -2 7 21.543 22.840 1.066 15.193 o
5 -2 8 32.709 27.423 1.702 8.714 o
5 -2 9 27.566 28.877 1.782 9.563 o
5 -1 0 2.545 1.944 0.230 222.137 o
5 -1 1 3.265 3.789 0.307 144.988 o
5 -1 2 12.095 14.329 0.700 31.219 o
5 -1 3 204.103 196.989 3.211 0.461 o
5 -1 4 11.443 10.598 0.583 37.917 o
5 -1 5 169.532 165.739 2.882 0.639 o
5 -1 6 79.453 76.667 1.875 2.365 o
5 -1 7 28.581 32.291 1.224 10.094 o
5 -1 8 1.095 0.445 0.466 315.963 o
5 -1 9 0.383 0.117 0.454 478.668 o
5 -1 10 0.099 -0.465 0.594 351.293 o
5 0 0 9.456 9.181 0.505 47.253 o
5 0 1 264.778 258.610 3.978 0.283 o
5 0 2 122.050 110.353 1.987 1.208 o
5 0 3 22.658 22.241 0.766 15.749 o
5 0 4 0.029 -0.191 0.271 1656.240 o
5 0 5 102.636 106.694 1.995 1.495 o
5 0 6 97.916 98.791 2.245 1.620 o
5 0 7 7.704 5.974 0.629 58.889 o
5 0 8 35.632 28.241 1.378 8.561 o
5 0 9 36.307 34.552 1.308 7.865 o
5 0 10 24.145 26.354 1.530 11.651 o
5 0 11 41.181 38.007 2.148 5.836 o
5 1 0 63.386 81.657 1.585 2.922 o
5 1 1 57.301 65.543 1.358 3.720 o
5 1 2 142.103 147.710 2.493 0.847 o
5 1 3 143.453 146.459 2.147 0.851 o
5 1 4 171.713 161.200 2.470 0.647 o
5 1 5 1.492 1.211 0.317 315.990 o
5 1 6 41.385 39.002 1.617 6.320 o
5 1 7 171.482 173.635 3.337 0.606 o
5 1 8 106.188 103.736 2.339 1.438 o
5 1 9 86.885 84.290 2.477 1.966 o
5 1 10 39.885 42.844 2.014 5.852 o
5 1 11 46.347 48.975 1.869 4.973 o
5 1 12 0.004 0.026 0.787 207.059 o
5 2 0 99.354 89.727 1.700 1.724 o
5 2 1 499.284 497.213 7.134 0.084 o
5 2 2 68.874 75.504 1.525 2.831 o
5 2 3 74.683 77.749 1.422 2.579 o
5 2 4 100.155 91.112 1.486 1.711 o
5 2 5 99.669 95.057 1.614 1.673 o
5 2 6 155.416 160.407 3.072 0.716 o
5 2 7 277.149 261.400 4.617 0.263 o
5 2 8 255.717 257.878 4.603 0.292 o
5 2 9 44.043 45.314 1.467 5.706 o
5 2 10 27.605 26.805 1.476 10.622 o
5 2 11 0.658 -0.373 0.553 322.528 o
5 2 12 4.266 4.046 1.095 58.974 o
5 3 0 3.232 1.613 0.316 181.328 o
5 3 1 67.576 66.599 1.398 3.114 o
5 3 2 24.350 21.204 0.750 15.120 o
5 3 3 44.201 56.285 1.396 5.130 o
5 3 4 270.221 261.744 3.714 0.275 o
5 3 5 930.111 892.715 10.711 0.026 o
5 3 6 625.246 634.072 10.012 0.053 o
5 3 7 18.285 20.030 0.994 18.493 o
5 3 8 6.924 5.684 0.754 59.003 o
5 3 9 5.539 4.923 0.601 78.099 o
5 3 10 0.019 0.378 0.461 532.675 o
5 3 11 6.491 6.436 0.854 55.191 o
5 3 12 0.021 0.179 0.590 354.367 o
5 3 13 1.835 0.946 0.727 148.420 o
5 4 0 40.023 42.121 0.993 6.837 o
5 4 1 169.179 178.633 2.947 0.612 o
5 4 2 1152.330 1148.510 15.809 0.016 o
5 4 3 944.228 927.290 12.892 0.024 o
5 4 4 72.785 73.965 1.421 2.722 o
5 4 5 2.820 2.080 0.288 193.692 o
5 4 6 41.227 31.207 1.017 7.556 o
5 4 7 16.898 15.395 0.862 22.550 o
5 4 8 6.599 7.993 0.696 57.031 o
5 4 9 0.742 0.124 0.494 358.363 o
5 4 10 3.625 6.101 0.655 86.963 o
5 4 11 42.590 45.448 1.813 5.586 o
5 4 12 46.669 50.143 1.958 4.825 o
5 4 13 21.627 19.590 1.356 14.774 o
5 5 0 709.640 663.852 8.117 0.044 o
5 5 1 476.352 473.409 6.357 0.092 o
5 5 2 101.152 107.305 2.263 1.493 o
5 5 3 41.888 45.470 1.200 6.165 o
5 5 4 146.754 147.230 2.592 0.815 o
5 5 5 13.431 14.152 0.641 29.639 o
5 5 6 0.427 0.528 0.444 434.884 o
5 5 7 43.654 39.505 1.185 6.345 o
5 5 8 17.109 17.811 0.966 20.508 o
5 5 9 44.678 44.138 1.468 5.700 o
5 5 10 18.470 16.199 0.942 20.172 o
5 5 11 97.767 109.121 4.101 1.346 o
5 5 12 3.071 4.642 0.786 88.740 o
5 5 13 4.936 3.493 0.804 75.779 o
5 6 0 0.787 0.701 0.189 645.124 o
5 6 1 168.654 169.486 2.457 0.642 o
5 6 2 369.127 380.868 5.259 0.146 o
5 6 3 292.061 301.508 4.674 0.226 o
5 6 4 4.206 4.248 0.484 104.946 o
5 6 5 3.497 2.892 0.444 134.808 o
5 6 6 33.394 30.274 1.006 9.410 o
5 6 7 132.688 121.185 2.371 1.028 o
5 6 8 93.109 87.192 2.107 1.841 o
5 6 9 22.407 24.729 1.170 13.897 o
5 6 10 0.025 0.106 0.449 604.499 o
5 6 11 38.899 44.159 1.781 6.140 o
5 6 12 30.987 32.210 1.635 8.699 o
5 6 13 1.192 0.015 0.676 204.522 o
5 7 0 10.883 10.836 0.784 36.039 o
5 7 1 0.064 0.412 0.353 790.098 o
5 7 2 26.347 25.481 0.860 12.833 o
5 7 3 170.182 159.370 2.822 0.652 o
5 7 4 29.038 24.410 0.949 11.783 o
5 7 5 108.323 92.690 1.943 1.519 o
5 7 6 103.028 96.298 2.013 1.572 o
5 7 7 69.785 89.309 2.125 2.427 o
5 7 8 0.984 3.205 0.515 199.130 o
5 7 9 8.405 10.264 0.816 42.516 o
5 7 10 38.501 37.938 1.546 6.898 o
5 7 11 25.460 22.327 1.362 12.452 o
5 7 12 9.165 10.836 1.098 33.974 o
5 7 13 5.996 3.541 0.832 66.454 o
5 8 0 14.862 15.279 0.963 24.042 o
5 8 1 32.407 27.512 1.233 9.678 o
5 8 2 179.648 165.960 3.362 0.588 o
5 8 3 211.147 193.446 3.429 0.445 o
5 8 4 45.476 51.208 1.574 5.150 o
5 8 5 0.077 2.033 0.511 307.765 o
5 8 6 0.017 0.507 0.366 748.694 o
5 8 7 67.007 67.660 1.709 3.044 o
5 8 8 46.499 43.368 1.354 5.610 o
5 8 9 10.766 9.793 0.836 36.620 o
5 8 10 38.627 39.314 1.525 6.795 o
5 8 11 0.843 0.329 0.696 204.868 o
5 8 12 12.025 11.104 1.356 25.329 o
5 9 0 62.273 58.110 1.854 3.485 o
5 9 1 43.979 44.815 1.580 5.657 o
5 9 2 19.760 22.618 1.170 15.818 o
5 9 3 8.485 5.176 0.628 56.970 o
5 9 4 1.392 1.050 0.441 271.572 o
5 9 5 65.319 61.103 1.838 3.249 o
5 9 6 70.954 67.954 1.798 2.845 o
5 9 7 54.608 52.585 1.548 4.293 o
5 9 8 11.818 12.846 0.853 31.215 o
5 9 9 18.010 20.227 1.066 18.234 o
5 9 10 2.937 4.269 0.699 101.618 o
5 9 11 14.144 13.690 1.131 24.158 o
5 10 0 0.035 -0.085 0.598 355.789 o
5 10 1 0.025 -0.623 0.557 410.403 o
5 10 2 29.395 28.471 1.385 10.073 o
5 10 3 25.128 26.108 1.321 11.990 o
5 10 4 30.652 30.482 1.280 9.665 o
5 10 5 35.627 38.172 1.556 7.339 o
5 10 6 0.217 0.747 0.545 337.672 o
5 10 7 2.299 3.403 0.769 107.737 o
5 10 8 9.364 11.457 0.958 35.667 o
5 10 9 29.545 33.482 1.573 9.003 o
5 10 10 27.591 33.103 1.510 9.661 o
5 11 0 8.797 9.338 1.159 34.881 o
5 11 1 11.065 9.567 1.124 31.254 o
5 11 2 6.965 6.939 0.998 47.042 o
5 11 3 1.063 2.191 0.768 142.215 o
5 11 4 6.867 6.157 1.023 47.807 o
5 11 5 6.759 4.770 1.078 48.437 o
5 11 6 21.888 27.887 1.511 12.247 o
5 11 7 55.738 67.055 2.345 3.407 o
5 11 8 57.669 58.835 2.889 3.269 o
6 -5 0 10.382 10.530 1.032 33.194 o
6 -5 1 0.026 0.515 0.589 332.495 o
6 -5 2 15.779 16.959 1.211 20.290 o
6 -4 0 30.493 33.384 1.340 9.223 o
6 -4 1 19.888 21.953 1.347 15.102 o
6 -4 2 5.529 4.959 0.897 61.515 o
6 -4 3 18.438 16.478 1.295 17.883 o
6 -4 4 0.055 0.453 0.689 250.318 o
6 -4 5 7.944 6.179 1.077 42.664 o
6 -3 0 24.043 25.179 1.109 13.249 o
6 -3 1 4.639 3.191 0.573 98.694 o
6 -3 2 6.534 6.720 0.684 61.142 o
6 -3 3 56.569 51.909 1.624 4.138 o
6 -3 4 70.417 77.600 3.586 2.229 o
6 -3 5 41.709 42.464 2.149 5.527 o
6 -3 6 5.605 5.197 1.004 55.210 o
6 -2 0 78.921 78.224 1.936 2.347 o
6 -2 1 115.973 114.237 2.521 1.228 o
6 -2 2 23.584 26.046 1.124 13.214 o
6 -2 3 96.193 86.970 2.150 1.774 o
6 -2 4 1.083 0.836 0.439 314.218 o
6 -2 5 4.865 7.501 1.122 48.443 o
6 -2 6 14.288 12.509 1.096 25.032 o
6 -2 7 0.354 0.612 0.812 170.769 o
6 -2 8 7.701 6.559 1.277 37.020 o
6 -1 0 3.527 3.268 0.420 132.650 o
6 -1 1 0.882 0.444 0.294 524.995 o
6 -1 2 31.273 30.229 0.973 10.049 o
6 -1 3 298.335 288.124 4.553 0.227 o
6 -1 4 4.784 4.072 0.515 95.903 o
6 -1 5 47.371 44.298 1.645 5.262 o
6 -1 6 30.221 28.890 1.465 9.623 o
6 -1 7 73.937 69.942 2.237 2.591 o
6 -1 8 41.355 39.248 1.718 6.205 o
6 -1 9 16.898 14.643 1.376 19.045 o
6 0 0 214.666 178.165 3.009 0.460 o
6 0 1 62.066 54.574 1.183 3.815 o
6 0 2 0.068 -0.294 0.284 1423.070 o
6 0 3 9.542 7.247 0.550 49.733 o
6 0 4 153.196 147.376 2.647 0.774 o
6 0 5 338.451 347.429 5.916 0.170 o
6 0 6 2.565 2.440 0.567 144.484 o
6 0 7 17.517 16.570 1.124 19.653 o
6 0 8 12.857 12.750 0.929 28.669 o
6 0 9 21.170 20.074 1.158 15.791 o
6 0 10 9.576 11.043 1.045 34.012 o
6 1 0 52.658 43.524 1.152 5.045 o
6 1 1 96.950 90.501 1.823 1.754 o
6 1 2 92.529 93.532 1.864 1.811 o
6 1 3 114.312 112.087 2.114 1.284 o
6 1 4 99.092 97.537 1.934 1.637 o
6 1 5 220.052 211.578 3.921 0.398 o
6 1 6 0.087 -0.581 0.417 691.631 o
6 1 7 84.659 80.707 2.504 2.058 o
6 1 8 33.071 30.578 1.289 9.024 o
6 1 9 0.602 1.521 0.568 247.676 o
6 1 10 56.280 52.022 2.892 3.506 o
6 2 0 197.931 196.861 3.244 0.478 o
6 2 1 252.192 259.245 4.102 0.299 o
6 2 2 51.502 48.141 1.231 4.896 o
6 2 3 135.776 127.530 2.350 0.975 o
6 2 4 210.977 205.516 3.136 0.433 o
6 2 5 231.760 218.174 4.016 0.366 o
6 2 6 5.978 7.220 0.673 63.327 o
6 2 7 51.329 51.431 1.718 4.518 o
6 2 8 94.016 96.620 2.321 1.704 o
6 2 9 0.490 0.171 0.478 415.430 o
6 2 10 5.232 5.273 0.817 66.682 o
6 2 11 0.964 0.277 0.643 225.011 o
6 3 0 94.159 93.570 1.877 1.775 o
6 3 1 521.523 500.489 7.315 0.079 o
6 3 2 336.906 319.023 4.914 0.183 o
6 3 3 425.972 425.005 6.328 0.113 o
6 3 4 0.550 2.275 0.567 227.186 o
6 3 5 447.829 429.027 6.468 0.106 o
6 3 6 68.671 72.045 1.867 2.839 o
6 3 7 4.267 4.301 0.618 92.703 o
6 3 8 2.274 1.537 0.497 184.041 o
6 3 9 4.953 5.466 0.700 74.815 o
6 3 10 4.495 4.325 0.675 85.570 o
6 3 11 10.363 8.457 0.957 36.782 o
6 4 0 802.356 825.926 11.666 0.033 o
6 4 1 141.893 134.354 2.486 0.896 o
6 4 2 368.478 382.346 5.786 0.145 o
6 4 3 402.921 395.161 5.959 0.127 o
6 4 4 35.907 39.079 1.123 7.715 o
6 4 5 2.861 2.962 0.394 158.007 o
6 4 6 40.800 40.059 1.228 6.692 o
6 4 7 1.562 1.117 0.485 235.843 o
6 4 8 12.681 12.954 0.914 28.961 o
6 4 9 70.333 73.974 1.987 2.707 o
6 4 10 75.029 77.516 2.079 2.458 o
6 4 11 22.395 26.753 1.558 12.102 o
6 4 12 0.961 -0.139 0.664 222.755 o
6 5 0 425.358 426.433 6.390 0.113 o
6 5 1 311.498 313.897 4.896 0.204 o
6 5 2 46.706 45.587 1.281 5.505 o
6 5 3 7.655 7.826 0.617 54.929 o
6 5 4 0.048 -0.324 0.300 1326.600 o
6 5 5 4.523 4.759 0.465 98.407 o
6 5 6 32.920 38.754 1.368 8.041 o
6 5 7 179.736 177.382 3.213 0.569 o
6 5 8 166.568 167.882 3.404 0.637 o
6 5 9 4.968 5.969 0.713 72.058 o
6 5 10 5.628 6.136 0.732 66.030 o
6 5 11 3.106 2.364 0.757 105.237 o
6 5 12 16.085 15.207 1.262 20.367 o
6 6 0 21.342 21.737 0.911 16.213 o
6 6 1 49.332 47.575 1.306 5.101 o
6 6 2 34.730 32.423 1.175 8.592 o
6 6 3 74.121 71.352 1.663 2.679 o
6 6 4 268.904 262.970 4.268 0.273 o
6 6 5 129.673 137.228 2.576 0.977 o
6 6 6 6.810 8.720 0.750 52.613 o
6 6 7 0.050 0.419 0.415 616.715 o
6 6 8 11.638 11.052 0.848 33.278 o
6 6 9 3.160 3.871 0.641 107.786 o
6 6 10 25.492 25.532 1.448 11.584 o
6 6 11 3.118 2.270 0.704 112.894 o
6 6 12 26.641 25.766 1.549 10.876 o
6 7 0 53.311 51.503 1.462 4.478 o
6 7 1 120.291 109.163 2.534 1.207 o
6 7 2 5.701 7.641 0.756 60.193 o
6 7 3 32.221 35.254 1.153 8.875 o
6 7 4 40.617 43.437 1.276 6.427 o
6 7 5 0.058 0.145 0.376 807.092 o
6 7 6 15.818 15.499 1.202 20.956 o
6 7 7 44.193 37.227 1.415 6.245 o
6 7 8 65.700 60.232 1.658 3.304 o
6 7 9 0.003 0.693 0.511 414.643 o
6 7 10 3.301 3.037 0.662 109.567 o
6 7 11 9.973 9.050 1.045 35.205 o
6 7 12 2.115 0.888 1.522 47.817 o
6 8 0 22.837 21.061 1.150 14.657 o
6 8 1 0.024 0.073 0.427 673.990 o
6 8 2 0.840 -0.214 0.474 373.558 o
6 8 3 45.658 50.084 1.656 5.134 o
6 8 4 135.393 122.725 2.763 0.982 o
6 8 5 1.713 0.790 0.425 263.244 o
6 8 6 19.196 14.664 0.967 20.057 o
6 8 7 1.614 1.870 0.530 195.944 o
6 8 8 0.026 -0.435 0.429 686.050 o
6 8 9 14.247 15.151 1.052 24.004 o
6 8 10 16.609 16.838 1.354 18.623 o
6 8 11 18.799 23.945 1.546 14.193 o
6 9 0 21.966 24.000 1.307 13.765 o
6 9 1 9.449 10.950 0.908 36.997 o
6 9 2 11.060 11.114 0.824 34.740 o
6 9 3 38.683 32.126 1.430 7.494 o
6 9 4 28.466 27.372 1.537 10.136 o
6 9 5 28.770 31.954 1.505 9.516 o
6 9 6 3.695 2.399 1.080 67.195 o
6 9 7 8.044 8.715 0.963 42.118 o
6 9 8 3.971 5.119 0.659 88.144 o
6 9 9 58.700 58.299 1.735 3.733 o
6 9 10 55.538 57.628 1.947 3.868 o
6 10 0 20.456 17.422 1.381 15.844 o
6 10 1 6.327 6.263 0.805 58.427 o
6 10 2 5.766 5.638 0.712 67.732 o
6 10 3 1.376 2.439 0.633 164.370 o
6 10 4 8.218 9.839 0.931 40.904 o
6 10 5 9.709 10.982 0.963 35.330 o
6 10 6 21.107 23.463 1.556 13.245 o
6 10 7 37.553 44.073 1.909 6.181 o
6 10 8 34.869 35.680 1.883 7.213 o
6 10 9 60.402 59.309 2.023 3.494 o
6 11 0 1.144 1.688 0.965 105.406 o
6 11 1 6.427 5.255 1.014 51.312 o
6 11 2 0.397 -0.381 0.556 352.829 o
6 11 3 3.339 5.562 0.880 74.424 o
6 11 4 52.541 52.830 2.124 4.145 o
6 11 5 27.406 26.126 1.465 10.815 o
6 11 6 33.723 30.473 1.783 8.040 o
6 11 7 20.238 23.889 1.597 13.340 o
7 -4 0 0.336 1.267 0.897 136.565 o
7 -4 1 3.676 3.763 0.979 70.761 o
7 -3 0 28.102 24.615 1.487 10.773 o
7 -3 1 7.802 7.187 0.736 52.109 o
7 -3 2 26.358 31.422 1.721 9.701 o
7 -3 3 3.669 3.733 0.929 74.850 o
7 -2 0 49.544 49.309 1.593 4.837 o
7 -2 1 2.482 2.087 0.525 160.295 o
7 -2 2 0.707 1.095 0.651 212.749 o
7 -2 3 4.400 4.005 0.722 84.370 o
7 -2 4 44.846 43.464 1.984 5.301 o
7 -2 5 31.537 37.193 2.623 6.384 o
7 -1 0 24.079 20.189 1.052 14.604 o
7 -1 1 35.502 31.439 1.980 7.301 o
7 -1 2 173.363 164.523 3.385 0.616 o
7 -1 3 113.440 112.210 3.551 1.197 o
7 -1 4 13.526 12.902 1.058 26.140 o
7 -1 5 17.963 15.984 1.191 19.083 o
7 -1 6 0.206 -0.295 0.583 348.522 o
7 -1 7 0.021 -0.215 0.679 277.807 o
7 0 0 261.293 245.317 4.509 0.293 o
7 0 1 235.731 227.874 4.250 0.348 o
7 0 2 58.232 54.241 1.629 3.936 o
7 0 3 5.539 6.619 0.691 67.091 o
7 0 4 54.810 49.722 2.032 4.145 o
7 0 5 40.709 35.896 1.636 6.616 o
7 0 6 9.341 9.043 0.988 37.797 o
7 0 7 11.793 13.612 1.163 26.651 o
7 0 8 6.480 5.945 0.929 53.257 o
7 1 0 4.219 2.809 0.529 111.774 o
7 1 1 16.235 15.015 0.800 23.916 o
7 1 2 5.054 5.564 0.487 86.127 o
7 1 3 21.256 21.156 0.998 16.105 o
7 1 4 0.927 1.166 0.480 286.947 o
7 1 5 183.485 183.397 3.640 0.538 o
7 1 6 0.326 0.977 0.526 327.709 o
7 1 7 80.424 71.041 2.013 2.400 o
7 1 8 47.295 45.203 1.615 5.244 o
7 1 9 0.994 1.177 0.593 221.513 o
7 2 0 9.974 11.777 0.712 38.228 o
7 2 1 158.804 153.602 2.802 0.722 o
7 2 2 71.706 64.800 1.564 2.931 o
7 2 3 0.068 -0.362 0.320 1149.270 o
7 2 4 98.428 98.243 2.321 1.609 o
7 2 5 36.625 34.312 1.332 7.796 o
7 2 6 12.158 12.421 0.885 30.587 o
7 2 7 1.745 1.983 0.610 165.681 o
7 2 8 1.656 1.922 0.618 167.722 o
7 2 9 1.301 1.075 0.584 211.469 o
7 3 0 1.516 1.486 0.424 251.828 o
7 3 1 2.189 1.730 0.539 172.990 o
7 3 2 156.075 150.486 2.755 0.746 o
7 3 3 77.350 73.103 1.686 2.525 o
7 3 4 15.742 13.575 0.819 25.219 o
7 3 5 16.356 14.339 0.926 23.216 o
7 3 6 13.475 12.688 0.912 27.993 o
7 3 7 111.112 111.157 2.615 1.300 o
7 3 8 10.208 10.574 0.904 35.792 o
7 3 9 3.990 4.042 0.668 93.060 o
7 3 10 3.509 4.160 0.839 82.028 o
7 4 0 113.708 115.692 2.300 1.259 o
7 4 1 9.747 9.182 0.671 43.184 o
7 4 2 11.356 11.008 0.707 35.941 o
7 4 3 15.738 15.699 0.931 23.115 o
7 4 4 58.378 56.192 1.656 3.851 o
7 4 5 66.988 63.498 1.639 3.162 o
7 4 6 12.851 11.630 0.879 30.166 o
7 4 7 16.022 14.787 0.993 22.804 o
7 4 8 25.113 26.836 1.315 11.881 o
7 4 9 17.782 21.417 1.837 13.694 o
7 4 10 4.790 4.854 0.893 66.236 o
7 5 0 0.647 0.332 0.386 485.600 o
7 5 1 29.635 28.828 1.072 10.586 o
7 5 2 59.020 61.099 1.550 3.691 o
7 5 3 17.021 17.948 0.881 21.055 o
7 5 4 1.790 1.384 0.488 213.223 o
7 5 5 110.260 103.706 2.452 1.372 o
7 5 6 96.945 97.723 2.176 1.653 o
7 5 7 0.691 1.323 0.574 245.553 o
7 5 8 19.286 19.149 1.136 17.345 o
7 5 9 0.773 1.201 0.621 220.568 o
7 5 10 0.040 -0.114 0.602 349.991 o
7 6 0 5.543 5.018 0.683 73.039 o
7 6 1 8.240 8.217 0.813 46.307 o
7 6 2 62.046 60.140 1.554 3.538 o
7 6 3 111.660 115.457 2.354 1.283 o
7 6 4 45.459 44.651 1.406 5.622 o
7 6 5 23.594 25.042 1.719 11.418 o
7 6 6 9.445 8.112 0.989 38.624 o
7 6 7 16.315 15.430 0.939 22.590 o
7 6 8 3.367 3.299 0.669 105.749 o
7 6 9 1.632 1.879 0.618 169.257 o
7 6 10 12.400 12.211 1.074 27.914 o
7 7 0 97.407 102.386 2.535 1.570 o
7 7 1 120.028 123.753 2.827 1.115 o
7 7 2 39.542 41.369 1.553 6.477 o
7 7 3 2.583 1.966 0.588 146.257 o
7 7 4 25.936 20.954 1.003 13.665 o
7 7 5 0.856 0.344 0.500 323.684 o
7 7 6 1.025 1.329 0.546 236.719 o
7 7 7 25.680 25.432 1.204 12.247 o
7 7 8 26.708 31.120 1.332 10.591 o
7 7 9 54.304 60.498 2.724 3.477 o
7 7 10 52.519 55.248 1.947 4.156 o
7 8 0 36.917 38.166 1.550 7.130 o
7 8 1 27.853 27.515 1.404 10.621 o
7 8 2 0.627 0.585 0.560 289.307 o
7 8 3 79.856 78.266 2.204 2.273 o
7 8 4 21.144 17.370 1.174 16.533 o
7 8 5 25.931 30.079 1.645 10.188 o
7 8 6 74.776 81.735 2.592 2.295 o
7 8 7 56.280 60.185 1.933 3.746 o
7 8 8 29.758 34.648 1.402 9.139 o
7 8 9 55.693 52.583 1.886 4.056 o
7 9 0 0.118 -0.394 0.473 535.470 o
7 9 1 0.039 0.337 0.564 370.388 o
7 9 2 1.685 1.690 0.694 150.817 o
7 9 3 87.996 89.080 2.450 1.890 o
7 9 4 1.456 3.778 0.806 112.002 o
7 9 5 23.306 29.987 1.685 10.847 o
7 9 6 97.859 95.879 2.920 1.577 o
7 9 7 112.055 105.104 3.093 1.290 o
7 9 8 31.778 27.940 1.515 9.247 o
7 9 9 4.157 6.077 1.902 27.042 o
7 10 0 0.153 -0.878 0.543 407.100 o
7 10 1 34.088 34.707 1.479 8.052 o
7 10 2 32.307 35.443 1.672 8.025 o
7 10 3 28.955 30.588 1.592 9.454 o
7 10 4 34.793 35.448 2.105 6.900 o
7 10 5 57.444 63.000 2.338 3.427 o
7 10 6 31.606 29.132 1.733 8.707 o
7 10 7 2.396 2.330 0.824 106.115 o
8 -2 0 7.519 9.990 1.098 38.349 o
8 -2 1 42.909 40.253 2.331 5.331 o
8 -1 0 8.448 7.186 0.963 43.145 o
8 -1 1 0.466 0.674 0.509 344.270 o
8 -1 2 0.455 0.309 0.590 296.189 o
8 -1 3 6.000 7.033 0.913 53.641 o
8 0 0 0.809 1.204 0.539 260.352 o
8 0 1 44.193 47.353 1.616 5.461 o
8 0 2 42.149 48.033 2.050 5.285 o
8 0 3 12.007 11.570 1.042 29.404 o
8 0 4 17.457 17.520 1.289 18.238 o
8 0 5 3.084 3.508 0.793 94.013 o
8 1 0 2.392 2.410 0.563 150.422 o
8 1 1 8.233 8.299 0.758 47.672 o
8 1 2 3.690 4.125 0.770 86.651 o
8 1 3 21.389 18.523 1.289 15.496 o
8 1 4 26.657 28.978 1.597 10.266 o
8 1 5 30.142 28.029 1.593 9.475 o
8 1 6 3.747 3.762 0.824 83.033 o
8 2 0 15.832 12.309 0.794 26.124 o
8 2 1 5.288 4.527 0.565 84.397 o
8 2 2 7.181 7.333 0.741 54.322 o
8 2 3 45.707 43.225 1.353 5.713 o
8 2 4 104.705 109.474 2.622 1.396 o
8 2 5 67.070 69.838 2.042 2.908 o
8 2 6 0.434 0.799 0.588 276.908 o
8 2 7 32.172 28.128 1.622 8.916 o
8 3 0 83.710 79.878 1.882 2.190 o
8 3 1 54.747 54.110 1.522 4.235 o
8 3 2 32.521 36.000 1.276 8.545 o
8 3 3 73.524 71.871 2.012 2.621 o
8 3 4 70.860 72.183 1.830 2.756 o
8 3 5 22.471 23.117 1.245 13.973 o
8 3 6 40.326 38.803 1.802 6.282 o
8 3 7 16.222 17.429 1.337 18.813 o
8 3 8 19.466 21.372 2.095 11.824 o
8 4 0 105.970 107.627 2.289 1.416 o
8 4 1 92.124 92.533 2.083 1.808 o
8 4 2 14.697 17.496 0.939 23.201 o
8 4 3 9.349 7.809 0.817 43.319 o
8 4 4 0.526 0.286 0.501 372.202 o
8 4 5 9.358 8.924 0.905 39.726 o
8 4 6 18.121 18.655 1.151 18.233 o
8 4 7 24.227 27.887 1.440 11.639 o
8 4 8 0.217 1.230 0.656 234.317 o
8 5 0 16.869 16.840 1.002 20.921 o
8 5 1 0.386 -0.336 0.422 552.967 o
8 5 2 1.910 1.636 0.558 180.257 o
8 5 3 115.805 116.947 2.743 1.201 o
8 5 4 37.976 38.978 1.539 6.907 o
8 5 5 3.490 3.328 0.660 104.764 o
8 5 6 5.781 7.609 0.753 59.981 o
8 5 7 44.781 50.122 2.171 4.835 o
8 5 8 50.824 56.985 1.933 4.224 o
8 6 0 54.982 54.178 1.786 4.097 o
8 6 1 67.113 71.171 2.039 2.879 o
8 6 2 0.017 0.218 0.513 457.780 o
8 6 3 10.071 11.383 0.931 34.751 o
8 6 4 39.734 42.428 1.604 6.325 o
8 6 5 58.539 59.493 1.918 3.636 o
8 6 6 7.756 9.083 0.827 46.100 o
8 6 7 32.121 35.098 1.427 8.501 o
8 6 8 58.724 65.030 2.120 3.392 o
8 7 0 17.870 19.125 1.209 17.898 o
8 7 1 41.055 42.249 1.662 6.104 o
8 7 2 0.911 0.769 0.562 256.149 o
8 7 3 9.719 8.284 0.991 37.724 o
8 7 4 9.349 11.184 1.141 32.489 o
8 7 5 55.374 59.175 2.219 3.704 o
8 7 6 116.088 133.536 3.323 1.077 o
8 7 7 125.154 135.186 2.911 1.010 o
8 7 8 14.894 15.116 1.159 22.359 o
8 8 0 0.076 0.176 0.583 355.221 o
8 8 1 0.732 0.079 0.559 305.015 o
8 8 2 1.715 2.929 0.727 128.406 o
8 8 3 213.162 231.747 5.207 0.377 o
8 8 4 220.155 243.659 5.395 0.351 o
8 8 5 20.383 26.691 2.599 8.987 o
8 8 6 4.696 5.430 1.000 59.039 o
8 8 7 1.009 2.462 0.833 126.002 o
8 9 0 61.227 69.642 2.988 2.843 o
8 9 1 114.124 135.446 3.295 1.089 o
8 9 2 26.953 40.604 1.825 8.297 o
8 9 3 4.776 2.859 1.062 61.375 o
8 9 4 0.009 1.204 0.815 171.418 o
8 9 5 2.853 2.523 0.867 93.779 o
9 1 0 13.885 14.392 1.658 18.871 o
9 1 1 21.329 24.918 2.375 9.731 o
9 2 0 56.338 53.352 2.281 3.792 o
9 2 1 80.243 78.543 2.632 2.178 o
9 2 2 21.304 19.554 1.390 14.789 o
9 2 3 8.343 10.098 1.045 37.598 o
9 3 0 23.491 26.739 1.339 12.437 o
9 3 1 19.444 20.292 1.574 14.601 o
9 3 2 0.800 0.653 0.654 218.097 o
9 3 3 6.566 8.326 0.995 46.182 o
9 3 4 5.339 4.244 0.863 66.529 o
9 4 0 0.152 -0.467 0.449 578.042 o
9 4 1 1.499 0.615 0.564 221.685 o
9 4 2 5.773 5.425 0.782 64.812 o
9 4 3 1.829 1.929 0.625 160.055 o
9 4 4 0.926 0.667 0.529 279.226 o
9 5 0 5.545 5.117 0.741 69.423 o
9 5 1 0.555 -0.988 0.641 263.038 o
9 5 2 11.725 9.378 1.013 32.126 o
9 5 3 12.209 12.375 1.035 28.588 o
9 5 4 3.883 4.288 0.776 83.473 o
9 5 5 19.640 19.762 1.788 13.530 o
9 6 0 0.368 -0.264 0.503 421.322 o
9 6 1 0.351 0.188 0.641 271.496 o
9 6 2 29.001 29.312 2.288 7.993 o
9 6 3 51.245 45.777 1.980 4.603 o
9 6 4 43.343 47.365 2.042 5.206 o
9 7 0 15.163 14.319 1.146 22.606 o
9 7 1 46.087 49.458 2.129 4.782 o
9 7 2 77.240 81.819 2.702 2.202 o
9 7 3 47.571 49.270 2.289 4.546 o
;
_olex2_submission_special_instructions 'No special instructions were received'
_publcif_funding_html
;
;
loop_
_space_group_symop_id
_space_group_symop_operation_xyz
1 x,y,z
2 -x,-y,-z
loop_
_atom_site_label
_atom_site_type_symbol
_atom_site_fract_x
_atom_site_fract_y
_atom_site_fract_z
_atom_site_U_iso_or_equiv
_atom_site_adp_type
_atom_site_occupancy
_atom_site_refinement_flags_posn
S1 S 0.19813(6) 0.09771(5) 0.04389(4) 0.04157(16) Uani 1.000000 .
O0aa O 0.79276(16) 0.44427(15) 0.14794(12) 0.0486(3) Uani 1.000000 .
O1 O 0.53187(17) 0.57744(15) 0.22205(13) 0.0515(4) Uani 1.000000 .
N2 N 0.23137(18) 0.31622(16) 0.13030(12) 0.0340(3) Uani 1.000000 .
N3 N 0.51388(18) 0.15927(16) 0.08076(11) 0.0341(3) Uani 1.000000 .
C1 C 0.9706(4) -0.2561(3) 0.5747(2) 0.0802(8) Uani 1.000000 .
H1a H 0.946(3) -0.2084(5) 0.6361(3) 0.1204(12) Uiso 1.000000 GR
H1b H 0.912(2) -0.3350(13) 0.5869(9) 0.1204(12) Uiso 1.000000 GR
H1c H 1.1082(6) -0.3035(18) 0.5718(7) 0.1204(12) Uiso 1.000000 GR
C2 C 0.8851(3) -0.1325(2) 0.46305(16) 0.0500(4) Uani 1.000000 .
C3 C 0.9588(3) -0.1504(2) 0.35991(17) 0.0512(5) Uani 1.000000 .
H3a H 1.0636(3) -0.2401(2) 0.35962(17) 0.0614(5) Uiso 1.000000 R
C4 C 0.8798(2) -0.0377(2) 0.25762(15) 0.0417(4) Uani 1.000000 .
H4 H 0.9327(2) -0.0521(2) 0.18986(15) 0.0500(5) Uiso 1.000000 R
C5 C 0.7219(2) 0.09666(17) 0.25525(12) 0.0309(3) Uani 1.000000 .
C6 C 0.63392(19) 0.21571(17) 0.14067(12) 0.0295(3) Uani 1.000000 .
H6 H 0.74056(19) 0.22687(17) 0.09368(12) 0.0354(4) Uiso 1.000000 R
C7 C 0.5126(2) 0.37572(17) 0.15146(12) 0.0303(3) Uani 1.000000 .
C8 C 0.6262(2) 0.46880(18) 0.17100(13) 0.0332(3) Uani 1.000000 .
C9 C 0.6321(3) 0.6742(2) 0.24762(19) 0.0501(5) Uani 1.000000 .
H9a H 0.7593(3) 0.6090(2) 0.28606(19) 0.0601(5) Uiso 1.000000 R
H9b H 0.6484(3) 0.7461(2) 0.17780(19) 0.0601(5) Uiso 1.000000 R
C10 C 0.5116(4) 0.7615(3) 0.3220(3) 0.0791(8) Uani 1.000000 .
H10a H 0.3841(10) 0.8211(19) 0.2846(8) 0.1187(12) Uiso 1.000000 GR
H10b H 0.502(3) 0.6892(4) 0.3924(7) 0.1187(12) Uiso 1.000000 GR
H10c H 0.5696(17) 0.8313(19) 0.3376(15) 0.1187(12) Uiso 1.000000 GR
C11 C 0.3172(2) 0.41877(17) 0.14906(12) 0.0308(3) Uani 1.000000 .
C12 C 0.1721(2) 0.5679(2) 0.16230(18) 0.0461(4) Uani 1.000000 .
H12a H 0.1468(15) 0.5550(6) 0.2412(2) 0.0692(6) Uiso 1.000000 GR
H12b H 0.2227(9) 0.6512(4) 0.1366(11) 0.0692(6) Uiso 1.000000 GR
H12c H 0.0537(7) 0.5931(9) 0.1176(10) 0.0692(6) Uiso 1.000000 GR
C13 C 0.3241(2) 0.19336(17) 0.08740(12) 0.0301(3) Uani 1.000000 .
C14 C 0.7301(3) 0.0017(2) 0.46032(15) 0.0519(5) Uani 1.000000 .
H14 H 0.6792(3) 0.0169(2) 0.52835(15) 0.0623(5) Uiso 1.000000 R
C15 C 0.6482(3) 0.1146(2) 0.35808(14) 0.0431(4) Uani 1.000000 .
H15 H 0.5424(3) 0.2036(2) 0.35857(14) 0.0517(5) Uiso 1.000000 R
H2 H 0.115(3) 0.340(2) 0.1333(16) 0.040(5) Uiso 1.000000 .
H3 H 0.575(3) 0.084(3) 0.0484(18) 0.052(6) Uiso 1.000000 .
loop_
_atom_site_aniso_label
_atom_site_aniso_U_11
_atom_site_aniso_U_22
_atom_site_aniso_U_33
_atom_site_aniso_U_12
_atom_site_aniso_U_13
_atom_site_aniso_U_23
S1 0.0313(2) 0.0466(3) 0.0569(3) -0.01530(18) 0.00407(17) -0.0284(2)
O0aa 0.0280(6) 0.0540(7) 0.0757(9) -0.0188(5) 0.0129(5) -0.0319(7)
O1 0.0356(6) 0.0544(8) 0.0863(10) -0.0235(6) 0.0175(6) -0.0456(7)
N2 0.0220(6) 0.0392(7) 0.0466(7) -0.0112(5) 0.0077(5) -0.0212(6)
N3 0.0257(6) 0.0396(7) 0.0412(7) -0.0075(5) 0.0026(5) -0.0232(6)
C1 0.0809(17) 0.0809(17) 0.0600(14) -0.0304(14) -0.0184(12) 0.0147(12)
C2 0.0464(9) 0.0542(11) 0.0470(10) -0.0239(8) -0.0081(8) -0.0017(8)
C3 0.0354(9) 0.0445(10) 0.0605(11) -0.0048(7) -0.0031(8) -0.0055(8)
C4 0.0312(8) 0.0431(9) 0.0459(9) -0.0069(7) 0.0055(6) -0.0133(7)
C5 0.0244(6) 0.0346(7) 0.0375(7) -0.0121(6) 0.0024(5) -0.0142(6)
C6 0.0226(6) 0.0335(7) 0.0354(7) -0.0095(5) 0.0047(5) -0.0151(6)
C7 0.0255(7) 0.0304(7) 0.0361(7) -0.0089(6) 0.0039(5) -0.0126(6)
C8 0.0286(7) 0.0322(7) 0.0393(8) -0.0105(6) 0.0032(6) -0.0108(6)
C9 0.0445(9) 0.0501(10) 0.0727(12) -0.0274(8) 0.0101(9) -0.0307(9)
C10 0.0670(14) 0.0939(18) 0.119(2) -0.0476(14) 0.0333(14) -0.0740(18)
C11 0.0269(7) 0.0315(7) 0.0356(7) -0.0100(6) 0.0051(5) -0.0128(6)
C12 0.0285(7) 0.0379(9) 0.0735(12) -0.0059(7) 0.0054(8) -0.0256(8)
C13 0.0277(7) 0.0326(7) 0.0305(7) -0.0092(6) 0.0017(5) -0.0115(6)
C14 0.0616(12) 0.0620(12) 0.0368(9) -0.0264(10) 0.0074(8) -0.0156(8)
C15 0.0418(9) 0.0458(9) 0.0423(9) -0.0117(7) 0.0079(7) -0.0186(7)
loop_
_atom_type_symbol
_atom_type_scat_dispersion_real
_atom_type_scat_dispersion_imag
_atom_type_scat_Cromer_Mann_a1
_atom_type_scat_Cromer_Mann_a2
_atom_type_scat_Cromer_Mann_a3
_atom_type_scat_Cromer_Mann_a4
_atom_type_scat_Cromer_Mann_b1
_atom_type_scat_Cromer_Mann_b2
_atom_type_scat_Cromer_Mann_b3
_atom_type_scat_Cromer_Mann_b4
_atom_type_scat_Cromer_Mann_c
_atom_type_scat_source
_atom_type_scat_dispersion_source
H 0.00000 0.00000 0.49300 0.32291 0.14019 0.04081 10.51090 26.12570 3.14236
57.79970 0.0030380000826
'International Tables Volume C Table 6.1.1.4 (pp. 500-502)'
'Henke, Gullikson and Davis, At. Data and Nucl. Data Tables, 1993, 54, 2'
C 0.00347 0.00161 2.31000 1.02000 1.58860 0.86500 20.84390 10.20750 0.56870
51.65120 0.215599998832
'International Tables Volume C Table 6.1.1.4 (pp. 500-502)'
'Henke, Gullikson and Davis, At. Data and Nucl. Data Tables, 1993, 54, 2'
S 0.12424 0.12443 6.90530 5.20340 1.43790 1.58630 1.46790 22.21510 0.25360
56.17200 0.866900026798
'International Tables Volume C Table 6.1.1.4 (pp. 500-502)'
'Henke, Gullikson and Davis, At. Data and Nucl. Data Tables, 1993, 54, 2'
O 0.01158 0.00611 3.04850 2.28680 1.54630 0.86700 13.27710 5.70110 0.32390
32.90890 0.250800013542
'International Tables Volume C Table 6.1.1.4 (pp. 500-502)'
'Henke, Gullikson and Davis, At. Data and Nucl. Data Tables, 1993, 54, 2'
N 0.00653 0.00323 12.21260 3.13220 2.01250 1.16630 0.00570 9.89330 28.99750
0.58260 -11.5290002823
'International Tables Volume C Table 6.1.1.4 (pp. 500-502)'
'Henke, Gullikson and Davis, At. Data and Nucl. Data Tables, 1993, 54, 2'
loop_
_geom_angle_atom_site_label_1
_geom_angle_atom_site_label_2
_geom_angle_atom_site_label_3
_geom_angle
_geom_angle_site_symmetry_1
_geom_angle_site_symmetry_3
_geom_angle_publ_flag
C9 O1 C8 118.28(13) . . ?
C13 N2 C11 123.76(12) . . ?
H2 N2 C11 118.0(14) . . ?
H2 N2 C13 117.2(14) . . ?
C13 N3 C6 124.51(12) . . ?
H3 N3 C6 117.8(14) . . ?
H3 N3 C13 116.7(14) . . ?
H1b C1 H1a 109.5 . . ?
H1c C1 H1a 109.5 . . ?
H1c C1 H1b 109.5 . . ?
C2 C1 H1a 109.5 . . ?
C2 C1 H1b 109.5 . . ?
C2 C1 H1c 109.5 . . ?
C3 C2 C1 121.4(2) . . ?
C14 C2 C1 120.8(2) . . ?
C14 C2 C3 117.75(16) . . ?
H3a C3 C2 119.29(11) . . ?
C4 C3 C2 121.41(17) . . ?
C4 C3 H3a 119.29(11) . . ?
H4 C4 C3 119.71(11) . . ?
C5 C4 C3 120.59(16) . . ?
C5 C4 H4 119.71(9) . . ?
C6 C5 C4 119.22(13) . . ?
C15 C5 C4 118.04(15) . . ?
C15 C5 C6 122.72(13) . . ?
C5 C6 N3 110.51(12) . . ?
H6 C6 N3 108.02(7) . . ?
H6 C6 C5 108.02(7) . . ?
C7 C6 N3 108.97(11) . . ?
C7 C6 C5 113.15(12) . . ?
C7 C6 H6 108.02(8) . . ?
C8 C7 C6 114.28(12) . . ?
C11 C7 C6 119.96(13) . . ?
C11 C7 C8 125.65(13) . . ?
O1 C8 O0aa 122.87(14) . . ?
C7 C8 O0aa 123.37(14) . . ?
C7 C8 O1 113.67(12) . . ?
H9a C9 O1 110.34(10) . . ?
H9b C9 O1 110.34(10) . . ?
H9b C9 H9a 108.6 . . ?
C10 C9 O1 106.92(15) . . ?
C10 C9 H9a 110.34(15) . . ?
C10 C9 H9b 110.34(15) . . ?
H10a C10 C9 109.5 . . ?
H10b C10 C9 109.5 . . ?
H10b C10 H10a 109.5 . . ?
H10c C10 C9 109.5 . . ?
H10c C10 H10a 109.5 . . ?
H10c C10 H10b 109.5 . . ?
C7 C11 N2 118.62(13) . . ?
C12 C11 N2 112.86(13) . . ?
C12 C11 C7 128.50(14) . . ?
H12a C12 C11 109.5 . . ?
H12b C12 C11 109.5 . . ?
H12b C12 H12a 109.5 . . ?
H12c C12 C11 109.5 . . ?
H12c C12 H12a 109.5 . . ?
H12c C12 H12b 109.5 . . ?
N2 C13 S1 120.29(11) . . ?
N3 C13 S1 123.83(11) . . ?
N3 C13 N2 115.86(13) . . ?
H14 C14 C2 119.34(11) . . ?
C15 C14 C2 121.33(17) . . ?
C15 C14 H14 119.34(11) . . ?
C14 C15 C5 120.87(16) . . ?
H15 C15 C5 119.56(10) . . ?
H15 C15 C14 119.56(11) . . ?
loop_
_geom_bond_atom_site_label_1
_geom_bond_atom_site_label_2
_geom_bond_distance
_geom_bond_site_symmetry_2
_geom_bond_publ_flag
S1 C13 1.6807(15) . ?
O0aa C8 1.2086(18) . ?
O1 C8 1.3283(19) . ?
O1 C9 1.4529(19) . ?
N2 C11 1.3941(19) . ?
N2 C13 1.3640(19) . ?
N2 H2 0.81(2) . ?
N3 C6 1.4723(18) . ?
N3 C13 1.3263(19) . ?
N3 H3 0.89(2) . ?
C1 H1a 0.9600 . ?
C1 H1b 0.9600 . ?
C1 H1c 0.9600 . ?
C1 C2 1.511(3) . ?
C2 C3 1.390(3) . ?
C2 C14 1.376(3) . ?
C3 H3a 0.9300 . ?
C3 C4 1.384(2) . ?
C4 H4 0.9300 . ?
C4 C5 1.389(2) . ?
C5 C6 1.525(2) . ?
C5 C15 1.386(2) . ?
C6 H6 0.9800 . ?
C6 C7 1.5095(19) . ?
C7 C8 1.470(2) . ?
C7 C11 1.352(2) . ?
C9 H9a 0.9700 . ?
C9 H9b 0.9700 . ?
C9 C10 1.470(3) . ?
C10 H10a 0.9600 . ?
C10 H10b 0.9600 . ?
C10 H10c 0.9600 . ?
C11 C12 1.495(2) . ?
C12 H12a 0.9600 . ?
C12 H12b 0.9600 . ?
C12 H12c 0.9600 . ?
C14 H14 0.9300 . ?
C14 C15 1.388(3) . ?
C15 H15 0.9300 . ?
loop_
_publcif_info_exptl_table_extra_item
sin_theta_over_lambda_max
loop_
_publcif_info_exptl_table_header_item
?
