#------------------------------------------------------------------------------
#$Date: 2022-01-06 23:12:42 +0200 (Thu, 06 Jan 2022) $
#$Revision: 271828 $
#$URL: file:///home/coder/svn-repositories/cod/cif/7/24/39/7243954.cif $
#------------------------------------------------------------------------------
#
# This file is available in the Crystallography Open Database (COD),
# http://www.crystallography.net/
#
# All data on this site have been placed in the public domain by the
# contributors.
#
data_7243954
loop_
_publ_author_name
'Shapiro, Nicole M.'
'Bosch, Eric'
'Unruh, Daniel K.'
'Krueger, Herman R.'
'Groeneman, Ryan H.'
_publ_section_title
;
 Iodoperchlorobenzene acts as a dual halogen-bond donor to template a [2 +
 2] cycloaddition reaction within an organic co-crystal
;
_journal_issue                   47
_journal_name_full               CrystEngComm
_journal_page_first              8265
_journal_page_last               8268
_journal_paper_doi               10.1039/D1CE01194D
_journal_volume                  23
_journal_year                    2021
_chemical_formula_moiety         'C6 Cl5 I, C10 H8 N4'
_chemical_formula_sum            'C16 H8 Cl5 I N4'
_chemical_formula_weight         560.41
_space_group_crystal_system      triclinic
_space_group_IT_number           2
_space_group_name_Hall           '-P 1'
_space_group_name_H-M_alt        'P -1'
_atom_sites_solution_hydrogens   geom
_atom_sites_solution_primary     dual
_audit_creation_date             2021-06-23
_audit_creation_method
;
Olex2 1.3-ac4
(compiled 2020.03.28 svn.rd84adfe8 for Rigaku Oxford Diffraction, GUI svn.r6032)
;
_audit_update_record
;
2021-08-31 deposited with the CCDC.	2021-11-22 downloaded from the CCDC.
;
_cell_angle_alpha                111.5100(10)
_cell_angle_beta                 93.2050(10)
_cell_angle_gamma                91.8070(10)
_cell_formula_units_Z            1
_cell_length_a                   3.91440(10)
_cell_length_b                   10.69090(10)
_cell_length_c                   12.4925(2)
_cell_measurement_reflns_used    9834
_cell_measurement_temperature    290.00(10)
_cell_measurement_theta_max      76.8540
_cell_measurement_theta_min      3.7840
_cell_volume                     484.858(16)
_computing_cell_refinement       'CrysAlisPro 1.171.41.104a (Rigaku OD, 2021)'
_computing_data_collection       'CrysAlisPro 1.171.41.104a (Rigaku OD, 2021)'
_computing_data_reduction        'CrysAlisPro 1.171.41.104a (Rigaku OD, 2021)'
_computing_molecular_graphics    'Olex2 1.3-ac4 (Dolomanov et al., 2009)'
_computing_publication_material  'Olex2 1.3-ac4 (Dolomanov et al., 2009)'
_computing_structure_refinement  'XL  (Sheldrick, 2008)'
_computing_structure_solution    'SHELXT 2018/2 (Sheldrick, 2018)'
_diffrn_ambient_environment      air
_diffrn_ambient_temperature      290.00(10)
_diffrn_detector                 'Hybrid Pixel Array Detector'
_diffrn_detector_area_resol_mean 10.0000
_diffrn_detector_type            HyPix
_diffrn_measured_fraction_theta_full 0.989
_diffrn_measured_fraction_theta_max 0.935
_diffrn_measurement_details
;
List of Runs (angles in degrees, time in seconds):

  # Type    Start    End  Width  t~exp~   \w     \q     \k     \f   Frames
#--------------------------------------------------------------------------
  1  \w     26.00 121.00   0.50    0.11    --   48.16  77.00  90.00  190
  2  \w     26.00 121.00   0.50    0.11    --   48.16  77.00  30.00  190
  3  \w     26.00 121.00   0.50    0.11    --   48.16  77.00-180.00  190
  4  \w    -64.00 -19.00   0.50    0.44    --  -91.75  57.00-180.00   90
  5  \w    -24.00  27.00   0.50    0.11    --  -48.16  19.00-180.00  102
  6  \w    -24.00  27.00   0.50    0.11    --  -48.16  19.00-120.00  102
  7  \w    -24.00  27.00   0.50    0.11    --  -48.16  19.00 -60.00  102
  8  \w    -24.00  27.00   0.50    0.11    --  -48.16  19.00 -30.00  102
  9  \w     35.00 106.00   0.50    0.44    --  107.78 -99.00  90.00  142
 10  \w     35.00 107.00   0.50    0.44    --  107.78-105.00 165.00  144
 11  \w     18.00  85.00   0.50    0.11    --   48.16-105.00 165.00  134
 12  \w     35.00 106.00   0.50    0.44    --  107.78 -99.00  30.00  142
 13  \w     35.00 106.00   0.50    0.44    --  107.78 -99.00   0.00  142
 14  \w     35.00  68.00   0.50    0.44    --  107.78 -57.00-180.00   66
 15  \w     35.00 107.00   0.50    0.44    --  107.78 -77.00 -60.00  144
 16  \w     35.00  68.00   0.50    0.44    --  107.78 -57.00   0.00   66
 17  \w     35.00  68.00   0.50    0.44    --  107.78 -57.00  30.00   66
 18  \w     35.00  68.00   0.50    0.44    --  107.78 -57.00  90.00   66
 19  \w     35.00 107.00   0.50    0.44    --  107.78 -77.00 150.00  144
 20  \w    105.00 178.00   0.50    0.44    --  107.78 105.00 -95.00  146
 21  \w     93.00 178.00   0.50    0.44    --  107.78  57.00-120.00  170
 22  \w     95.00 178.00   0.50    0.44    --  107.78  38.00-180.00  166
 23  \w     95.00 178.00   0.50    0.44    --  107.78  38.00-150.00  166
 24  \w    -85.00 -19.00   0.50    0.44    --  -91.75 125.00-150.00  132
 25  \w    -85.00 -19.00   0.50    0.44    --  -91.75 125.00 -90.00  132
 26  \w    -81.00 -19.00   0.50    0.44    --  -91.75 105.00 -95.00  124
 27  \w    -81.00   3.00   0.50    0.11    --  -48.16 105.00 -95.00  168
 28  \w   -121.00 -25.00   0.50    0.11    --  -48.16 -77.00 -60.00  192
 29  \w   -120.00 -33.00   0.50    0.11    --  -48.16 -57.00   0.00  174
 30  \w   -120.00 -33.00   0.50    0.11    --  -48.16 -57.00-120.00  174
 31  \w   -163.00 -69.00   0.50    0.44    --  -91.75 -77.00-180.00  188
 32  \w   -163.00 -69.00   0.50    0.44    --  -91.75 -77.00-150.00  188
 33  \w   -163.00 -69.00   0.50    0.44    --  -91.75 -77.00-120.00  188
 34  \w   -163.00 -69.00   0.50    0.44    --  -91.75 -77.00 -60.00  188
 35  \w   -163.00 -69.00   0.50    0.44    --  -91.75 -77.00 -30.00  188
 36  \w   -163.00 -69.00   0.50    0.44    --  -91.75 -77.00  30.00  188
 37  \w   -163.00 -69.00   0.50    0.44    --  -91.75 -77.00  60.00  188
 38  \w   -163.00 -69.00   0.50    0.44    --  -91.75 -77.00 120.00  188
 39  \w   -163.00 -69.00   0.50    0.44    --  -91.75 -77.00 150.00  188
 40  \w   -163.00 -69.00   0.50    0.44    --  -91.75 -77.00  90.00  188
 41  \w   -166.00 -79.00   0.50    0.44    --  -91.75 -19.00   0.00  174
 42  \w   -166.00 -79.00   0.50    0.44    --  -91.75 -19.00 -60.00  174
 43  \w   -163.00 -69.00   0.50    0.44    --  -91.75 -77.00 -90.00  188
 44  \w   -121.00 -73.00   0.50    0.11    --  -48.16-125.00-150.00   96
 45  \w   -121.00 -73.00   0.50    0.11    --  -48.16-125.00 -90.00   96
 46  \w   -163.00 -73.00   0.50    0.44    --  -91.75-125.00 -30.00  180
 47  \w   -163.00 -83.00   0.50    0.44    --  -91.75-105.00 165.00  160
;
_diffrn_measurement_device       'four-circle diffractometer'
_diffrn_measurement_device_type  'XtaLAB Synergy, Dualflex, HyPix'
_diffrn_measurement_method       '\w scans'
_diffrn_orient_matrix_type
'CrysAlisPro convention (1999,Acta A55,543-557)'
_diffrn_orient_matrix_UB_11      0.0671301000
_diffrn_orient_matrix_UB_12      -0.0410580000
_diffrn_orient_matrix_UB_13      0.1050012000
_diffrn_orient_matrix_UB_21      0.1264250000
_diffrn_orient_matrix_UB_22      0.1458462000
_diffrn_orient_matrix_UB_23      0.0739376000
_diffrn_orient_matrix_UB_31      -0.3679352000
_diffrn_orient_matrix_UB_32      0.0332975000
_diffrn_orient_matrix_UB_33      0.0342152000
_diffrn_radiation_monochromator  mirror
_diffrn_radiation_probe          x-ray
_diffrn_radiation_type           'Cu K\a'
_diffrn_radiation_wavelength     1.54184
_diffrn_reflns_av_R_equivalents  0.0490
_diffrn_reflns_av_unetI/netI     0.0273
_diffrn_reflns_Laue_measured_fraction_full 0.989
_diffrn_reflns_Laue_measured_fraction_max 0.935
_diffrn_reflns_limit_h_max       4
_diffrn_reflns_limit_h_min       -4
_diffrn_reflns_limit_k_max       13
_diffrn_reflns_limit_k_min       -13
_diffrn_reflns_limit_l_max       15
_diffrn_reflns_limit_l_min       -15
_diffrn_reflns_number            10832
_diffrn_reflns_point_group_measured_fraction_full 0.989
_diffrn_reflns_point_group_measured_fraction_max 0.935
_diffrn_reflns_theta_full        67.684
_diffrn_reflns_theta_max         77.039
_diffrn_reflns_theta_min         3.813
_diffrn_source                   'micro-focus sealed X-ray tube'
_diffrn_source_type              'PhotonJet (Cu) X-ray Source'
_exptl_absorpt_coefficient_mu    19.394
_exptl_absorpt_correction_T_max  0.930
_exptl_absorpt_correction_T_min  0.189
_exptl_absorpt_correction_type   gaussian
_exptl_absorpt_process_details
;
CrysAlisPro 1.171.41.104a (Rigaku Oxford Diffraction, 2021)
Numerical absorption correction based on gaussian integration over
a multifaceted crystal model
Empirical absorption correction using spherical harmonics,
implemented in SCALE3 ABSPACK scaling algorithm.
;
_exptl_crystal_colour            'clear yellow'
_exptl_crystal_colour_lustre     clear
_exptl_crystal_colour_primary    yellow
_exptl_crystal_density_diffrn    1.919
_exptl_crystal_description       plate
_exptl_crystal_F_000             270
_exptl_crystal_recrystallization_method
'Re-crystallisation from solvent: Toluene'
_exptl_crystal_size_max          0.191
_exptl_crystal_size_mid          0.126
_exptl_crystal_size_min          0.038
_refine_diff_density_max         0.438
_refine_diff_density_min         -0.418
_refine_diff_density_rms         0.064
_refine_ls_extinction_coef       0.0049(6)
_refine_ls_extinction_expression Fc^*^=kFc[1+0.001xFc^2^\l^3^/sin(2\q)]^-1/4^
_refine_ls_extinction_method     'SHELXL-2018/3 (Sheldrick 2018)'
_refine_ls_goodness_of_fit_ref   1.076
_refine_ls_hydrogen_treatment    constr
_refine_ls_matrix_type           full
_refine_ls_number_parameters     138
_refine_ls_number_reflns         1902
_refine_ls_number_restraints     54
_refine_ls_restrained_S_all      1.071
_refine_ls_R_factor_all          0.0281
_refine_ls_R_factor_gt           0.0272
_refine_ls_shift/su_max          0.000
_refine_ls_shift/su_mean         0.000
_refine_ls_structure_factor_coef Fsqd
_refine_ls_weighting_details
'w=1/[\s^2^(Fo^2^)+(0.0449P)^2^+0.1162P] where P=(Fo^2^+2Fc^2^)/3'
_refine_ls_weighting_scheme      calc
_refine_ls_wR_factor_gt          0.0751
_refine_ls_wR_factor_ref         0.0758
_reflns_Friedel_coverage         0.000
_reflns_number_gt                1830
_reflns_number_total             1902
_reflns_threshold_expression     'I > 2\s(I)'
_cod_data_source_file            d1ce01194d2.cif
_cod_data_source_block           C6ICl5_AP
_cod_depositor_comments
'Adding full bibliography for 7243952--7243955.cif.'
_cod_database_code               7243954
_shelx_shelxl_version_number     2018/3
_chemical_oxdiff_formula         'C16  H8  I1  Cl5  N4  '
_chemical_oxdiff_usercomment     'C6Cl5I + Azo'
_shelx_space_group_comment
;
The symmetry employed for this shelxl refinement is uniquely defined
by the following loop, which should always be used as a source of
symmetry information in preference to the above space-group names.
They are only intended as comments.
;
_shelx_estimated_absorpt_t_max   0.526
_shelx_estimated_absorpt_t_min   0.119
_reflns_odcompleteness_completeness 98.90
_reflns_odcompleteness_iscentric 1
_reflns_odcompleteness_theta     66.97
_olex2_refinement_description
;
1. Fixed Uiso
 At 1.2 times of:
  All C(H) groups
2. Rigid body (RIGU) restrains
 N2A, N2B, C7, C6, C8, N1, C4, C5
 with sigma for 1-2 distances of 0.001 and sigma for 1-3 distances of 0.001
3. Others
 Sof(N2B)=1-FVAR(1)
 Sof(N2A)=FVAR(1)
 Fixed Sof: I1(0.5) Cl1(0.5)
4.a Aromatic/amide H refined with riding coordinates:
 C4(H4), C5(H5), C7(H7), C8(H8)
;
_shelx_res_file
;
TITL gro21_20_auto_a.res in P-1
    gro21_20_auto.res
    created by SHELXL-2018/3 at 11:23:07 on 23-Jun-2021
REM Old TITL gro21_20_auto in P1
REM SHELXT solution in P-1: R1 0.116, Rweak 0.023, Alpha 0.057
REM <I/s> 0.000 for 0 systematic absences, Orientation as input
REM Formula found by SHELXT: C10 Cl2 Br
CELL 1.54184 3.9144 10.6909 12.4925 111.51 93.205 91.807
ZERR 1 0.0001 0.0001 0.0002 0.001 0.001 0.001
LATT 1
SFAC C H Cl I N
UNIT 16 8 5 1 4
RIGU 0.001 0.001 N2A N2B C7 C6 C8 N1 C4 C5

L.S. 10
PLAN  10
SIZE 0.038 0.126 0.191
TEMP 17
CONF
BOND
list 4
MORE -1
BOND $H
fmap 2 53
acta
REM <olex2.extras>
REM <HklSrc "%.\\gro21_20_auto.hkl">
REM </olex2.extras>

WGHT    0.044900    0.116200
EXTI    0.004908
FVAR       0.73005   0.93662
PART 2
I1    4    1.201540    0.718013    0.785904    10.50000    0.04767    0.03730 =
         0.03717    0.00460    0.00365    0.00425
PART 1
CL1   3    1.195257    0.724043    0.795191    10.50000    0.09146    0.06683 =
         0.09263   -0.00016    0.01633    0.02148
PART 0
CL2   3    1.273796    1.014901    0.775526    11.00000    0.06150    0.07999 =
         0.04042    0.02393    0.00896   -0.00671
CL3   3    1.089259    1.276200    0.969691    11.00000    0.07890    0.06826 =
         0.05655    0.02787    0.00312   -0.00563
C1    1    1.084411    0.881634    0.911354    11.00000    0.03769    0.05645 =
         0.03704    0.01093   -0.00113   -0.00127
C2    1    1.120610    1.005956    0.899715    11.00000    0.03715    0.06356 =
         0.03439    0.01770    0.00018   -0.00517
C3    1    1.037560    1.123375    0.987210    11.00000    0.04067    0.05997 =
         0.04000    0.01776   -0.00223   -0.00285

N1    5    0.610524    0.549951    0.368817    11.00000    0.07905    0.03272 =
         0.06151    0.01141    0.01278    0.00539
C4    1    0.712703    0.637551    0.473725    11.00000    0.07215    0.04165 =
         0.05502    0.01814    0.01175    0.01142
AFIX  43
H4    2    0.816792    0.604834    0.526176    11.00000   -1.20000
AFIX   0
C5    1    0.672374    0.775148    0.509147    11.00000    0.05908    0.03830 =
         0.04669    0.00904    0.00919    0.00574
AFIX  43
H5    2    0.747903    0.833232    0.583170    11.00000   -1.20000
AFIX   0
C6    1    0.516257    0.823001    0.430776    11.00000    0.04984    0.03314 =
         0.05111    0.01301    0.01297    0.00221
C7    1    0.404476    0.733565    0.322454    11.00000    0.06930    0.04124 =
         0.05092    0.01447    0.00344    0.00157
AFIX  43
H7    2    0.295958    0.762933    0.268500    11.00000   -1.20000
AFIX   0
C8    1    0.458548    0.598792    0.296393    11.00000    0.07936    0.03857 =
         0.05296    0.00808    0.00635   -0.00142
AFIX  43
H8    2    0.383199    0.538476    0.223165    11.00000   -1.20000
AFIX   0
PART 1
N2A   5    0.457336    0.961659    0.450772    21.00000    0.06468    0.03628 =
         0.04031    0.01105    0.00321    0.00458
PART 2
N2B   5    0.528615    0.963538    0.527053   -21.00000    0.07416    0.03525 =
         0.05361    0.01133    0.01577    0.00403
HKLF 4




REM  gro21_20_auto_a.res in P-1
REM wR2 = 0.075831, GooF = S = 1.07627, Restrained GooF = 1.07087 for all data
REM R1 = 0.027160 for 1830 Fo > 4sig(Fo) and 0.028147 for all 1902 data
REM 138 parameters refined using 54 restraints

END

WGHT      0.0447      0.1166

REM Highest difference peak  0.438,  deepest hole -0.418,  1-sigma level  0.064
Q1    1   1.1058  1.3185  0.9549  11.00000  0.05    0.44
Q2    1   1.0243  1.3001  1.0129  11.00000  0.05    0.35
Q3    1   0.9607  1.2433  0.9456  11.00000  0.05    0.32
Q4    1   1.2051  1.2448  0.9633  11.00000  0.05    0.28
Q5    1   1.3059  0.9571  0.7773  11.00000  0.05    0.25
Q6    1   0.3625  0.9821  0.4923  11.00000  0.05    0.25
Q7    1   0.4801  0.8052  0.4771  11.00000  0.05    0.24
Q8    1   1.2195  1.0441  0.8489  11.00000  0.05    0.22
Q9    1   0.7192  0.4667  0.3347  11.00000  0.05    0.22
Q10   1   0.4723  0.7816  0.3724  11.00000  0.05    0.22
;
_shelx_res_checksum              95247
_shelx_hkl_file
;
  -4  -7   4    0.80    0.43
  -4  -7   5    4.83    0.82
  -4  -7   6    2.75    0.62
  -4  -6   1    8.49    1.55
  -4  -6   2   18.00    2.49
  -4  -6   3   17.15    2.61
  -4  -6   4   91.41    4.97
  -4  -6   5   16.77    2.22
  -4  -6   5   18.71    2.47
  -4  -6   5   18.09    1.88
  -4  -6   6   21.35    2.52
  -4  -6   6   20.79    1.96
  -4  -6   7    5.33    0.92
  -4  -6   8   13.59    1.30
  -4  -5  -1    5.30    1.62
  -4  -5   0   19.48    2.51
  -4  -5   1   32.45    3.53
  -4  -5   2    1.31    1.03
  -4  -5   3  130.04    8.81
  -4  -5   4   28.54    3.53
  -4  -5   4   27.01    3.26
  -4  -5   4   17.92    2.26
  -4  -5   5   11.32    2.11
  -4  -5   5   10.33    2.17
  -4  -5   5    9.69    1.59
  -4  -5   6    6.95    1.43
  -4  -5   6    9.74    1.94
  -4  -5   6    6.15    1.22
  -4  -5   7   36.90    3.45
  -4  -5   7   28.00    2.48
  -4  -5   8   44.99    2.91
  -4  -5   9   -0.12    0.37
  -4  -4  -3    2.09    1.02
  -4  -4  -2   10.90    2.36
  -4  -4  -1   34.40    3.34
  -4  -4   0   27.19    3.30
  -4  -4   0   27.79    4.08
  -4  -4   1    7.29    1.82
  -4  -4   2    2.13    1.14
  -4  -4   3    6.73    1.55
  -4  -4   4   20.87    3.13
  -4  -4   4   21.85    3.38
  -4  -4   4   16.08    2.30
  -4  -4   5    1.50    1.07
  -4  -4   5    0.25    0.78
  -4  -4   5    0.83    0.76
  -4  -4   6    1.73    1.23
  -4  -4   6    0.19    0.71
  -4  -4   6    2.09    0.85
  -4  -4   7    0.90    0.79
  -4  -4   8    1.67    0.72
  -4  -4   8    1.52    0.79
  -4  -4   9   18.21    1.63
  -4  -4   9   16.68    1.67
  -4  -3  -3   14.51    2.60
  -4  -3  -2   58.70    4.45
  -4  -3  -2   52.80    5.69
  -4  -3  -1    7.79    1.79
  -4  -3  -1    7.24    2.66
  -4  -3   0   77.64    6.20
  -4  -3   1    0.60    0.94
  -4  -3   2   84.13    7.14
  -4  -3   3   30.34    3.25
  -4  -3   4   24.71    3.79
  -4  -3   4   19.20    2.69
  -4  -3   5   11.09    2.31
  -4  -3   5    8.75    1.80
  -4  -3   6    3.06    1.14
  -4  -3   6    4.90    1.36
  -4  -3   6    3.24    1.09
  -4  -3   7  114.85    7.41
  -4  -3   7  143.14    7.09
  -4  -3   8    0.47    0.55
  -4  -3   8    0.32    0.75
  -4  -3   9    3.86    0.98
  -4  -3   9    5.05    0.92
  -4  -2  -2    3.80    1.25
  -4  -2  -2    3.28    1.28
  -4  -2  -1  118.47    7.76
  -4  -2   0   13.41    2.63
  -4  -2   1   97.76    7.59
  -4  -2   1   81.95    6.05
  -4  -2   2   39.45    4.86
  -4  -2   3   49.81    5.66
  -4  -2   4  192.51   11.54
  -4  -2   4  131.26    8.15
  -4  -2   5   13.49    2.62
  -4  -2   5   16.84    2.37
  -4  -2   5   12.11    2.16
  -4  -2   6   54.17    4.35
  -4  -2   6   49.35    4.45
  -4  -2   7    0.45    0.88
  -4  -2   7    2.02    0.96
  -4  -2   8   52.91    4.18
  -4  -2   8   48.51    3.54
  -4  -2   9   17.30    1.94
  -4  -2   9   19.43    1.78
  -4  -1  -1    5.67    1.76
  -4  -1   0   72.92    6.32
  -4  -1   1   17.92    3.20
  -4  -1   3    6.61    2.36
  -4  -1   4    8.20    1.70
  -4  -1   4    6.63    1.49
  -4  -1   5   21.52    2.77
  -4  -1   5   15.85    2.45
  -4  -1   6    1.34    0.99
  -4  -1   6    0.20    0.80
  -4  -1   7   38.14    3.98
  -4  -1   7   45.65    3.66
  -4  -1   8   14.65    1.84
  -4  -1   8   11.90    2.04
  -4  -1   9    3.71    0.82
  -4   0  -5   24.65    2.81
  -4   0  -4  105.98    6.60
  -4   0  -3    4.69    1.58
  -4   0  -1   30.76    3.60
  -4   0   0   12.46    2.31
  -4   0   3  103.56    6.32
  -4   0   4    4.75    1.50
  -4   0   4    1.91    0.96
  -4   0   5   20.56    2.68
  -4   0   5   23.81    2.96
  -4   0   6    8.22    1.74
  -4   0   6    9.29    1.80
  -4   0   6    7.85    1.78
  -4   0   7    7.02    1.53
  -4   0   7    7.49    1.45
  -4   0   7    4.05    1.47
  -4   0   8   23.53    2.54
  -4   0   8   20.32    2.09
  -4   0   8   22.12    2.66
  -4   0   9    0.09    0.44
  -4   1  -6   37.93    3.44
  -4   1  -5  120.82    7.21
  -4   1  -5  126.73    7.34
  -4   1  -4   36.14    3.64
  -4   1  -4   44.63    4.34
  -4   1  -3   41.53    3.84
  -4   1  -3   44.21    4.48
  -4   1  -2    8.47    1.93
  -4   1  -1   46.35    4.42
  -4   1   0  162.49    9.68
  -4   1   0  159.09    9.07
  -4   1   1   22.22    2.77
  -4   1   2   95.68    5.84
  -4   1   3    0.37    0.93
  -4   1   3    1.40    0.85
  -4   1   4  134.04    7.92
  -4   1   4  136.17    7.88
  -4   1   5   55.42    4.71
  -4   1   5   53.81    4.57
  -4   1   6   25.62    2.99
  -4   1   6   22.10    2.88
  -4   1   7   29.05    3.21
  -4   1   7   28.76    3.31
  -4   1   8   11.14    1.70
  -4   2  -7    5.33    1.09
  -4   2  -6   21.91    2.43
  -4   2  -5    1.38    0.96
  -4   2  -4   30.34    3.69
  -4   2  -3    9.56    1.74
  -4   2  -3   10.75    2.05
  -4   2  -2   35.99    4.06
  -4   2  -2   34.11    3.85
  -4   2  -1   20.74    3.12
  -4   2  -1   32.76    3.61
  -4   2   0   20.58    3.06
  -4   2   0   23.62    2.92
  -4   2   1   54.17    4.35
  -4   2   2    1.12    1.06
  -4   2   3  108.77    6.75
  -4   2   3  108.10    6.87
  -4   2   3  118.19    7.20
  -4   2   4   70.34    5.25
  -4   2   4   62.70    4.94
  -4   2   5   14.23    2.28
  -4   2   5   13.61    2.22
  -4   2   6    2.58    1.10
  -4   2   6    2.22    1.07
  -4   2   7   13.07    2.07
  -4   2   8   44.73    3.26
  -4   3  -8   14.16    1.42
  -4   3  -7    2.11    0.77
  -4   3  -6   23.24    2.53
  -4   3  -5   14.12    2.22
  -4   3  -4    1.53    0.88
  -4   3  -4    2.89    1.40
  -4   3  -3   23.96    3.03
  -4   3  -2   19.10    2.87
  -4   3  -1   69.81    5.49
  -4   3   0   26.70    3.05
  -4   3   1    7.35    1.50
  -4   3   2   24.70    3.05
  -4   3   3   12.60    2.00
  -4   3   3    9.73    1.94
  -4   3   4    9.36    1.84
  -4   3   5    0.19    0.82
  -4   3   6   23.25    2.67
  -4   4  -8    1.60    0.49
  -4   4  -7   20.78    2.02
  -4   4  -6   18.33    2.19
  -4   4  -5   57.93    3.88
  -4   4  -5   62.07    4.68
  -4   4  -4   51.32    4.01
  -4   4  -3   10.29    2.20
  -4   4  -2   95.89    6.94
  -4   4  -2   90.44    6.57
  -4   4  -1   -0.25    0.90
  -4   4  -1    1.93    1.05
  -4   4   0   59.60    4.53
  -4   4   3   58.54    4.25
  -4   5  -7    4.64    0.93
  -4   5  -6   12.26    1.74
  -4   5  -5   16.89    1.94
  -4   5  -5   20.98    2.43
  -4   5  -3   38.68    3.71
  -4   5  -3   47.90    4.38
  -4   5  -2    0.70    0.83
  -4   5  -2    0.43    0.77
  -4   5  -1   61.24    5.15
  -4   5  -1   56.39    4.51
  -4   5   0   27.50    3.34
  -4   5   2   16.96    2.19
  -4   6  -7    2.58    0.66
  -4   6  -6    0.11    0.41
  -4   6  -5   33.08    2.54
  -4   6  -4    8.99    1.46
  -4   6  -4    9.96    1.77
  -4   6  -3    1.83    0.84
  -4   6  -3    0.20    0.78
  -4   6  -2   40.69    3.75
  -4   6  -2   33.90    3.37
  -4   6   0   15.08    2.28
  -4   6   2   13.05    1.66
  -4   7  -6   23.35    1.92
  -4   7  -5    0.53    0.46
  -4   7  -4   54.21    3.42
  -4   7  -4   47.35    3.48
  -4   7  -3    4.91    1.16
  -4   7  -3    4.55    1.07
  -4   7  -2   12.61    1.87
  -4   7   1   20.59    1.99
  -3 -10   5   16.38    1.55
  -3  -9   2   23.88    2.76
  -3  -9   2   22.60    2.70
  -3  -9   2   22.97    2.79
  -3  -9   3   17.64    2.44
  -3  -9   3   14.84    2.31
  -3  -9   3   15.16    2.23
  -3  -9   4   55.28    4.49
  -3  -9   4   53.44    4.39
  -3  -9   4   51.66    4.07
  -3  -9   5   52.67    4.15
  -3  -9   5   49.71    3.78
  -3  -9   6    1.67    0.77
  -3  -9   6    2.11    0.90
  -3  -9   6    1.58    0.83
  -3  -9   6    1.55    0.74
  -3  -9   7   24.32    2.56
  -3  -9   7   19.69    2.17
  -3  -9   7   18.09    2.11
  -3  -9   8    5.79    1.19
  -3  -9   9   77.09    3.86
  -3  -8  -1    0.21    0.77
  -3  -8  -1    1.20    0.78
  -3  -8   0    3.57    1.30
  -3  -8   0    3.57    1.22
  -3  -8   0    3.63    1.09
  -3  -8   0    4.37    1.11
  -3  -8   1   51.73    4.72
  -3  -8   1   69.51    5.24
  -3  -8   1   66.36    5.14
  -3  -8   1   70.08    5.53
  -3  -8   2   35.90    4.05
  -3  -8   2   34.72    3.93
  -3  -8   3   17.65    3.11
  -3  -8   3   18.98    3.04
  -3  -8   3   15.58    2.72
  -3  -8   4    2.30    1.36
  -3  -8   4    2.68    1.19
  -3  -8   4    3.63    1.44
  -3  -8   4    3.42    1.33
  -3  -8   5   18.44    2.97
  -3  -8   5    9.58    1.89
  -3  -8   6   30.56    3.44
  -3  -8   6   31.90    3.72
  -3  -8   6   31.75    3.44
  -3  -8   6   27.13    2.82
  -3  -8   7    6.08    1.63
  -3  -8   7    6.25    1.46
  -3  -8   7    5.68    1.38
  -3  -8   8   13.09    1.81
  -3  -8   8   17.99    2.01
  -3  -8   8   12.77    1.77
  -3  -8   8   14.52    2.21
  -3  -8   9   10.55    1.45
  -3  -8  10    9.79    1.18
  -3  -8  10   11.95    1.50
  -3  -8  10   10.63    1.53
  -3  -8  11   12.81    1.34
  -3  -7  -3   68.87    5.36
  -3  -7  -2    6.06    1.77
  -3  -7  -2    4.29    1.56
  -3  -7  -1   30.82    3.96
  -3  -7  -1   27.05    2.85
  -3  -7  -1   26.23    3.72
  -3  -7  -1   29.38    2.98
  -3  -7   0   30.52    3.64
  -3  -7   0   25.14    3.53
  -3  -7   0   24.61    3.09
  -3  -7   0   31.98    3.48
  -3  -7   0   21.42    3.46
  -3  -7   1   66.91    5.83
  -3  -7   1   41.95    4.70
  -3  -7   1   60.26    5.47
  -3  -7   1   59.81    5.50
  -3  -7   1   50.03    5.25
  -3  -7   2   13.83    2.75
  -3  -7   2   12.70    2.36
  -3  -7   2   17.77    3.16
  -3  -7   2   18.73    3.18
  -3  -7   3   22.58    3.85
  -3  -7   3   22.33    3.70
  -3  -7   3   18.77    2.91
  -3  -7   3   20.40    3.43
  -3  -7   4   60.34    6.21
  -3  -7   4   65.84    6.01
  -3  -7   4   67.08    6.02
  -3  -7   5   14.69    2.95
  -3  -7   5   26.00    3.63
  -3  -7   5   19.72    3.59
  -3  -7   5   21.28    3.00
  -3  -7   6   13.19    2.49
  -3  -7   6   17.52    2.77
  -3  -7   6   18.33    3.21
  -3  -7   6   14.64    2.18
  -3  -7   7    5.25    1.50
  -3  -7   7    5.96    1.88
  -3  -7   7    5.98    1.54
  -3  -7   7    9.53    1.70
  -3  -7   8   25.87    2.83
  -3  -7   8   28.23    2.78
  -3  -7   8   29.22    3.50
  -3  -7   8   23.52    2.66
  -3  -7   9   24.44    2.44
  -3  -7   9   21.96    2.80
  -3  -7  10    0.84    0.64
  -3  -7  10    0.16    0.59
  -3  -7  11    2.80    0.64
  -3  -7  12    9.49    1.08
  -3  -6  -5   25.34    2.77
  -3  -6  -5   22.98    2.71
  -3  -6  -4  140.91    8.67
  -3  -6  -4  148.72    9.03
  -3  -6  -3   -0.35    0.93
  -3  -6  -2   81.86    5.36
  -3  -6  -2   78.53    7.09
  -3  -6  -1    6.78    1.75
  -3  -6  -1    5.65    2.21
  -3  -6  -1    9.40    1.94
  -3  -6  -1    9.44    1.95
  -3  -6  -1    8.18    2.43
  -3  -6   0  167.74   10.41
  -3  -6   0  157.25   11.16
  -3  -6   0  169.94   11.65
  -3  -6   0  177.09   10.28
  -3  -6   0  173.02   10.26
  -3  -6   1  126.71    9.28
  -3  -6   1  132.05    9.16
  -3  -6   1  137.00    9.22
  -3  -6   1  119.77    9.39
  -3  -6   2   37.99    4.77
  -3  -6   2   36.43    4.77
  -3  -6   2   30.05    3.59
  -3  -6   2   32.30    4.42
  -3  -6   2   28.29    4.15
  -3  -6   2   26.65    3.72
  -3  -6   3   47.83    5.63
  -3  -6   3   53.78    6.21
  -3  -6   3   60.03    5.57
  -3  -6   3   49.25   10.97
  -3  -6   3   56.71    6.27
  -3  -6   4   58.19    5.84
  -3  -6   4   46.37    4.84
  -3  -6   4   45.49    5.17
  -3  -6   5  403.48   19.84
  -3  -6   5  416.21   19.83
  -3  -6   5  438.53   21.07
  -3  -6   5  361.56   18.11
  -3  -6   6   74.73    6.56
  -3  -6   6   80.65    6.64
  -3  -6   6   78.23    5.65
  -3  -6   7   53.82    4.85
  -3  -6   7   63.32    6.07
  -3  -6   7   48.80    4.71
  -3  -6   8   13.01    2.09
  -3  -6   8   11.97    1.96
  -3  -6   9   66.89    4.57
  -3  -6   9   63.32    5.39
  -3  -6  10   47.62    3.44
  -3  -6  10   41.97    3.78
  -3  -6  11    7.56    1.13
  -3  -6  11    7.50    1.38
  -3  -6  12   75.42    3.73
  -3  -6  12   90.57    4.42
  -3  -5  -6   15.90    2.20
  -3  -5  -6   16.85    2.24
  -3  -5  -5    6.82    1.76
  -3  -5  -5    7.00    1.72
  -3  -5  -4    4.98    1.90
  -3  -5  -4    7.44    2.12
  -3  -5  -3  142.76   10.66
  -3  -5  -2   29.92    4.52
  -3  -5  -2   29.38    3.29
  -3  -5  -2   32.12    3.41
  -3  -5  -1   31.82    4.90
  -3  -5  -1   24.63    3.51
  -3  -5  -1   26.33    3.44
  -3  -5  -1   25.87    4.59
  -3  -5  -1   26.37    3.39
  -3  -5   0    6.06    1.87
  -3  -5   0    9.60    2.87
  -3  -5   0    6.60    1.99
  -3  -5   0    8.02    2.00
  -3  -5   0    9.89    4.15
  -3  -5   0    9.39    2.71
  -3  -5   1   79.07    7.47
  -3  -5   1   87.04    7.27
  -3  -5   1   81.29    7.80
  -3  -5   1   82.03    7.01
  -3  -5   1   84.44    6.12
  -3  -5   1  102.06   14.32
  -3  -5   2  125.17    9.17
  -3  -5   2  134.11    9.63
  -3  -5   2  144.13   18.03
  -3  -5   2  122.44    8.13
  -3  -5   2  108.53    8.99
  -3  -5   2  129.74    9.42
  -3  -5   2   93.01    7.93
  -3  -5   3    1.55    1.12
  -3  -5   3    2.90    1.63
  -3  -5   3    1.69    2.00
  -3  -5   3    0.40    1.17
  -3  -5   3    0.32    0.99
  -3  -5   4  241.88   13.71
  -3  -5   4  244.32   14.73
  -3  -5   4  210.12   12.60
  -3  -5   4  214.88   13.14
  -3  -5   5   76.42    7.15
  -3  -5   5   63.55   11.98
  -3  -5   5   77.41    7.35
  -3  -5   5   77.65    7.12
  -3  -5   5   61.51    5.66
  -3  -5   6   39.30    4.61
  -3  -5   6   54.10    6.23
  -3  -5   6   44.94    9.23
  -3  -5   6   36.64    4.54
  -3  -5   7   15.07    2.59
  -3  -5   7   12.98    2.43
  -3  -5   7   14.32    2.34
  -3  -5   8   47.05    5.09
  -3  -5   8   42.90    3.85
  -3  -5   8   40.22    3.82
  -3  -5   9  158.58    8.38
  -3  -5   9  160.11    9.58
  -3  -5  10   -0.29    0.82
  -3  -5  11   38.52    3.34
  -3  -5  11   37.49    2.85
  -3  -5  12    1.24    0.65
  -3  -5  12    1.23    0.56
  -3  -4  -7   26.74    2.65
  -3  -4  -7   27.33    2.72
  -3  -4  -6    0.72    0.75
  -3  -4  -6    0.69    0.82
  -3  -4  -6    0.87    0.73
  -3  -4  -5   52.92    5.21
  -3  -4  -5   47.96    5.07
  -3  -4  -5   46.23    4.81
  -3  -4  -4   22.90    3.71
  -3  -4  -4   27.51    3.86
  -3  -4  -4   23.41    3.91
  -3  -4  -3   29.74    4.82
  -3  -4  -3   25.77    2.92
  -3  -4  -3   30.32    4.06
  -3  -4  -2   18.69    2.92
  -3  -4  -2   21.52    4.31
  -3  -4  -2   17.31    2.62
  -3  -4  -2   16.10    2.52
  -3  -4  -2   13.83    4.41
  -3  -4  -2   15.68    3.50
  -3  -4  -1  104.37    9.32
  -3  -4  -1   91.55    7.20
  -3  -4  -1   99.89   12.90
  -3  -4  -1   99.35    7.15
  -3  -4  -1  106.38    7.37
  -3  -4   0  118.74   10.06
  -3  -4   0  102.68    7.89
  -3  -4   0  116.38    8.13
  -3  -4   0  103.87    9.50
  -3  -4   0  111.95   14.30
  -3  -4   0  112.99    7.96
  -3  -4   1   76.02    6.59
  -3  -4   1   70.49    7.15
  -3  -4   1   83.43    6.87
  -3  -4   1   81.66   13.02
  -3  -4   1   66.17    7.18
  -3  -4   1   74.58    5.79
  -3  -4   1   74.86    6.59
  -3  -4   2   11.82    2.68
  -3  -4   2   14.62    3.12
  -3  -4   2   19.53    3.38
  -3  -4   2   17.68    3.26
  -3  -4   2   13.00    2.48
  -3  -4   2   20.53    6.51
  -3  -4   2   14.88    2.95
  -3  -4   3    0.31    0.91
  -3  -4   3    1.48    1.07
  -3  -4   4   66.64    6.45
  -3  -4   4   83.20    7.91
  -3  -4   4   80.83    7.19
  -3  -4   4   87.84    8.11
  -3  -4   4   83.19    7.10
  -3  -4   5  123.16    9.59
  -3  -4   5  123.74    9.32
  -3  -4   5  109.31    8.99
  -3  -4   6   -0.32    0.75
  -3  -4   6    0.32    0.67
  -3  -4   7    3.38    1.27
  -3  -4   7    2.84    1.67
  -3  -4   7    2.12    0.99
  -3  -4   8    5.75    1.89
  -3  -4   8    7.69    1.56
  -3  -4   8    4.32    1.65
  -3  -4   8    9.13    1.85
  -3  -4   9   30.98    3.76
  -3  -4   9   26.26    3.48
  -3  -4   9   29.12    3.14
  -3  -4  10   15.40    2.28
  -3  -4  10   16.04    2.40
  -3  -4  10   17.41    2.16
  -3  -4  10   17.23    2.63
  -3  -4  11    3.87    1.22
  -3  -4  11    3.78    1.01
  -3  -4  12    5.42    1.03
  -3  -4  12    4.81    1.03
  -3  -4  12    5.93    0.99
  -3  -3  -8   56.81    4.12
  -3  -3  -7    0.42    0.66
  -3  -3  -7    0.96    0.72
  -3  -3  -6  107.65    7.79
  -3  -3  -6  113.44    7.76
  -3  -3  -6  106.08    7.52
  -3  -3  -5    6.11    2.06
  -3  -3  -5    6.76    2.05
  -3  -3  -5    7.02    1.70
  -3  -3  -5    3.98    1.68
  -3  -3  -4  239.91   14.34
  -3  -3  -4  224.63   12.76
  -3  -3  -4  249.82   12.02
  -3  -3  -4  228.40   14.16
  -3  -3  -4  228.82   13.88
  -3  -3  -3  108.63    8.76
  -3  -3  -3  104.38    6.98
  -3  -3  -3  129.91   10.30
  -3  -3  -3  115.27    7.15
  -3  -3  -2   24.90    3.12
  -3  -3  -2   18.08    3.18
  -3  -3  -2   26.30    4.90
  -3  -3  -2   24.63    4.23
  -3  -3  -2   21.57    2.84
  -3  -3  -2   22.12    5.63
  -3  -3  -2   17.50    2.78
  -3  -3  -1  224.58   12.38
  -3  -3  -1  231.68   12.49
  -3  -3  -1  238.37   21.27
  -3  -3  -1  276.39   16.88
  -3  -3  -1  235.53   12.55
  -3  -3  -1  264.30   15.92
  -3  -3   0   43.93    4.63
  -3  -3   0   38.74    8.58
  -3  -3   0   40.04    4.51
  -3  -3   0   59.06    6.84
  -3  -3   1  500.45   22.22
  -3  -3   1  466.07   22.06
  -3  -3   1  501.96   22.25
  -3  -3   1  442.67   33.49
  -3  -3   1  500.34   24.60
  -3  -3   1  482.07   20.97
  -3  -3   1  494.47   24.32
  -3  -3   2   11.21    2.44
  -3  -3   2    9.96    2.56
  -3  -3   2   14.70    2.83
  -3  -3   2   12.44    2.39
  -3  -3   2   15.32    5.48
  -3  -3   2   14.16    2.88
  -3  -3   3  315.59   14.61
  -3  -3   3  372.56   31.43
  -3  -3   3  325.17   16.25
  -3  -3   3  328.41   17.64
  -3  -3   4   88.55   14.92
  -3  -3   4   78.94    7.62
  -3  -3   4   72.44    6.79
  -3  -3   4   92.33    8.14
  -3  -3   5  153.63   10.63
  -3  -3   5  158.09   10.74
  -3  -3   5  151.50   10.51
  -3  -3   5  148.50   18.83
  -3  -3   5  125.11    7.79
  -3  -3   6   47.15    5.06
  -3  -3   6   38.52    8.62
  -3  -3   6   48.74    5.09
  -3  -3   6   50.60    4.66
  -3  -3   7   14.70    2.48
  -3  -3   7   18.03    3.58
  -3  -3   7   11.90    2.42
  -3  -3   8  313.45   13.64
  -3  -3   8  234.76   14.13
  -3  -3   9   12.20    2.38
  -3  -3   9   14.16    2.76
  -3  -3   9    6.84    2.01
  -3  -3   9   12.69    2.10
  -3  -3  10   42.17    3.62
  -3  -3  10   42.07    4.23
  -3  -3  11    1.03    0.68
  -3  -3  11    0.34    0.70
  -3  -3  12   60.01    3.88
  -3  -3  12   59.38    3.48
  -3  -3  12   61.16    3.76
  -3  -2  -8   11.25    1.97
  -3  -2  -7  135.10    8.18
  -3  -2  -7  153.13    8.32
  -3  -2  -7  141.31    8.80
  -3  -2  -6   30.60    4.02
  -3  -2  -6   27.09    3.66
  -3  -2  -6   37.18    4.40
  -3  -2  -5   63.14    6.34
  -3  -2  -5   63.62    5.15
  -3  -2  -5   60.49    5.99
  -3  -2  -5   64.69    6.29
  -3  -2  -4   77.05    7.44
  -3  -2  -4   72.36    7.02
  -3  -2  -4   73.43    5.60
  -3  -2  -4   66.38    5.03
  -3  -2  -4   72.88    7.04
  -3  -2  -3   82.80    7.53
  -3  -2  -3   73.33    6.21
  -3  -2  -3   79.24    5.77
  -3  -2  -3   87.03   10.96
  -3  -2  -3   83.42    5.94
  -3  -2  -3   85.79    8.11
  -3  -2  -2  200.85   12.11
  -3  -2  -2  176.96   10.57
  -3  -2  -2  210.88   13.48
  -3  -2  -2  197.47   10.63
  -3  -2  -2  209.16   14.44
  -3  -2  -2  185.90   10.48
  -3  -2  -2  211.20   18.87
  -3  -2  -1   46.14    4.72
  -3  -2  -1   40.95    4.14
  -3  -2  -1   56.63    6.61
  -3  -2  -1   38.00    4.12
  -3  -2  -1   48.30    4.65
  -3  -2  -1   42.71    3.87
  -3  -2  -1   51.00    6.72
  -3  -2  -1   35.10    7.38
  -3  -2   0  290.43   14.31
  -3  -2   0  275.25   13.26
  -3  -2   0  318.17   18.34
  -3  -2   0  247.41   12.93
  -3  -2   0  266.97   12.62
  -3  -2   0  306.35   24.37
  -3  -2   0  273.87   13.16
  -3  -2   0  276.13   14.04
  -3  -2   1   61.73    6.72
  -3  -2   1   67.49    5.99
  -3  -2   1   57.29   10.42
  -3  -2   1   69.96    5.98
  -3  -2   1   57.92    4.85
  -3  -2   2  296.91   12.86
  -3  -2   2  276.45   14.07
  -3  -2   2  270.56   13.14
  -3  -2   2  289.67   16.66
  -3  -2   3   39.49    4.79
  -3  -2   3   34.25    3.49
  -3  -2   3   24.65    3.58
  -3  -2   3   32.51    4.05
  -3  -2   3   35.17    4.68
  -3  -2   3   32.69    8.32
  -3  -2   3   28.05    4.44
  -3  -2   4   31.40    4.58
  -3  -2   4   24.93    3.68
  -3  -2   4   26.94    8.02
  -3  -2   4   30.34    4.45
  -3  -2   4   24.04    2.80
  -3  -2   4   23.29    3.11
  -3  -2   5  806.30   32.99
  -3  -2   5  763.00   49.38
  -3  -2   5  791.96   32.71
  -3  -2   5  721.80   29.48
  -3  -2   5  713.32   30.58
  -3  -2   6   19.59    3.19
  -3  -2   6   22.79    6.40
  -3  -2   6   20.02    3.43
  -3  -2   6   18.77    2.92
  -3  -2   7  120.94    7.84
  -3  -2   7  133.57    9.77
  -3  -2   7  141.61    8.51
  -3  -2   7  135.94    9.04
  -3  -2   8    0.67    0.97
  -3  -2   8    1.93    1.51
  -3  -2   8    1.33    1.19
  -3  -2   9  194.55   10.87
  -3  -2   9  216.29   10.64
  -3  -2   9  202.61   11.88
  -3  -2  10   55.42    4.88
  -3  -2  10   54.42    4.18
  -3  -2  11   45.77    3.40
  -3  -2  11   46.22    3.73
  -3  -2  11   43.29    3.88
  -3  -2  12   53.66    3.35
  -3  -2  12   55.52    3.30
  -3  -1  -9   40.43    2.86
  -3  -1  -9   33.68    3.31
  -3  -1  -7    2.50    1.18
  -3  -1  -7    3.60    1.43
  -3  -1  -7    2.38    0.99
  -3  -1  -6   35.70    4.45
  -3  -1  -6   32.33    3.64
  -3  -1  -6   28.06    3.69
  -3  -1  -5   44.88    5.17
  -3  -1  -5   41.02    4.53
  -3  -1  -5   45.07    5.20
  -3  -1  -5   40.92    4.81
  -3  -1  -4   47.49    5.39
  -3  -1  -4   36.79    4.27
  -3  -1  -4   36.85    4.86
  -3  -1  -4   39.26    3.80
  -3  -1  -4   45.36    5.54
  -3  -1  -3   21.10    3.06
  -3  -1  -3   21.87    4.01
  -3  -1  -3   22.01    4.04
  -3  -1  -3   20.62    2.79
  -3  -1  -3   19.76    5.15
  -3  -1  -2   31.88    4.31
  -3  -1  -2   28.19    3.52
  -3  -1  -2   38.09    5.11
  -3  -1  -2   26.43    3.07
  -3  -1  -2   30.19    3.50
  -3  -1  -2   36.93    7.26
  -3  -1  -2   31.15    4.98
  -3  -1  -1   19.88    2.88
  -3  -1  -1   17.05    3.00
  -3  -1  -1   19.20    4.03
  -3  -1  -1   15.88    2.59
  -3  -1  -1   14.53    2.14
  -3  -1  -1   16.62    2.35
  -3  -1  -1   14.68    4.68
  -3  -1  -1   15.85    2.57
  -3  -1  -1   21.11    4.35
  -3  -1   0   71.62    5.87
  -3  -1   0   65.95    5.35
  -3  -1   0   78.38   11.54
  -3  -1   0   69.63    5.80
  -3  -1   0   68.98    5.38
  -3  -1   0   65.27    5.17
  -3  -1   1  208.79   11.33
  -3  -1   1  175.97    9.79
  -3  -1   1  172.56    9.79
  -3  -1   1  175.78    8.94
  -3  -1   1  196.44   10.41
  -3  -1   1  191.34   10.93
  -3  -1   1  203.97   19.85
  -3  -1   1  177.39    9.54
  -3  -1   2  165.43    8.50
  -3  -1   2  160.45   11.53
  -3  -1   2  155.44    8.53
  -3  -1   3   52.66    5.54
  -3  -1   3   46.50    3.89
  -3  -1   3   50.81    4.32
  -3  -1   3   35.15    4.37
  -3  -1   3   45.18    4.15
  -3  -1   3   46.89    9.93
  -3  -1   3   43.05    5.08
  -3  -1   3   44.74    3.74
  -3  -1   4    3.34    2.80
  -3  -1   4    3.20    1.84
  -3  -1   4    2.66    1.38
  -3  -1   4    2.53    1.15
  -3  -1   5   75.89    6.93
  -3  -1   5   57.51   11.30
  -3  -1   5   69.24    6.01
  -3  -1   5   69.27    5.55
  -3  -1   5   75.64    6.15
  -3  -1   6   32.64    3.94
  -3  -1   6   28.31    6.94
  -3  -1   6   43.95    5.37
  -3  -1   6   37.89    4.18
  -3  -1   6   36.39    4.43
  -3  -1   7    0.41    1.28
  -3  -1   7    2.54    1.47
  -3  -1   8   51.41    5.86
  -3  -1   9   16.57    3.01
  -3  -1   9   13.62    2.21
  -3  -1  10    4.68    1.47
  -3  -1  10    2.86    1.15
  -3  -1  11   33.44    2.83
  -3  -1  11   37.64    3.14
  -3  -1  12    8.08    1.03
  -3  -1  12    7.02    1.22
  -3   0 -10   40.25    3.16
  -3   0 -10   33.83    2.41
  -3   0  -9    3.44    1.29
  -3   0  -9    4.21    1.18
  -3   0  -8  180.36   10.07
  -3   0  -8  186.56   10.48
  -3   0  -8  204.28   10.29
  -3   0  -7   23.30    3.46
  -3   0  -6    1.83    1.20
  -3   0  -6    1.41    1.11
  -3   0  -6    1.78    1.21
  -3   0  -6    2.29    1.40
  -3   0  -5   93.62    7.10
  -3   0  -5   90.89    7.07
  -3   0  -5   98.58    6.84
  -3   0  -5  101.25    8.22
  -3   0  -4  149.51    8.88
  -3   0  -4  128.37    8.74
  -3   0  -4  152.45   10.84
  -3   0  -4  150.07   14.58
  -3   0  -4  139.33    8.24
  -3   0  -3  595.57   27.13
  -3   0  -3  567.55   23.91
  -3   0  -3  571.63   23.17
  -3   0  -3  551.35   23.68
  -3   0  -3  563.94   23.00
  -3   0  -3  556.75   23.42
  -3   0  -3  529.06   33.42
  -3   0  -2   91.81    7.63
  -3   0  -2   82.72   11.16
  -3   0  -2   74.73    5.94
  -3   0  -2   85.85    6.14
  -3   0  -1  252.31   11.74
  -3   0  -1  251.11   21.76
  -3   0  -1  260.76   13.21
  -3   0  -1  255.67   12.48
  -3   0   0  118.38    6.71
  -3   0   0  114.58    7.39
  -3   0   0  120.89    7.60
  -3   0   0  134.57   15.72
  -3   0   0  136.70    8.49
  -3   0   0  124.34    7.38
  -3   0   0  128.98   11.07
  -3   0   1  107.90    6.34
  -3   0   1  101.18    5.97
  -3   0   1  111.86    7.07
  -3   0   1  119.69    6.47
  -3   0   1  114.49    7.38
  -3   0   1  123.66   10.33
  -3   0   1  111.56    6.77
  -3   0   2  107.68    6.53
  -3   0   2  104.00    6.73
  -3   0   2  108.36    6.45
  -3   0   2  107.23    7.99
  -3   0   2  104.29    7.37
  -3   0   2  107.68   15.24
  -3   0   2  105.42    6.35
  -3   0   3  135.24    7.95
  -3   0   3  132.31    8.33
  -3   0   3  136.43    7.84
  -3   0   3  139.09   18.50
  -3   0   3  145.75    9.90
  -3   0   3  136.82    8.90
  -3   0   3  130.18    7.15
  -3   0   4  313.87   14.51
  -3   0   4  283.54   15.43
  -3   0   4  305.79   16.11
  -3   0   4  338.59   15.07
  -3   0   4  333.36   15.38
  -3   0   4  349.67   31.32
  -3   0   4  357.18   18.11
  -3   0   4  333.57   16.57
  -3   0   5   15.55    2.68
  -3   0   5   14.66    2.26
  -3   0   5   16.79    2.89
  -3   0   5   18.14    2.77
  -3   0   5   20.08    3.26
  -3   0   5   17.38    3.16
  -3   0   5   15.14    2.90
  -3   0   5   21.10    6.47
  -3   0   6   99.29    7.28
  -3   0   6   96.93    7.37
  -3   0   6  109.85    7.17
  -3   0   6  108.44    8.70
  -3   0   7   12.08    1.90
  -3   0   7   13.49    2.61
  -3   0   7   10.14    2.63
  -3   0   7   16.76    2.80
  -3   0   8   26.71    3.08
  -3   0   8   32.57    3.64
  -3   0   8   28.41    4.41
  -3   0   9   76.65    5.74
  -3   0   9   98.80    7.23
  -3   0  10    3.36    1.34
  -3   0  10    3.54    1.12
  -3   0  10    4.37    1.38
  -3   0  11   12.74    1.63
  -3   0  11   13.48    2.03
  -3   0  11   13.62    1.72
  -3   0  12    4.25    0.87
  -3   1 -10    7.49    1.45
  -3   1 -10    9.81    1.38
  -3   1  -9   16.16    2.41
  -3   1  -9   17.27    2.46
  -3   1  -8   63.55    5.53
  -3   1  -8   66.17    5.34
  -3   1  -8   63.71    5.44
  -3   1  -7   37.73    4.71
  -3   1  -7   38.69    3.68
  -3   1  -7   47.15    4.69
  -3   1  -7   36.00    4.26
  -3   1  -6  141.86    9.97
  -3   1  -6  148.65    8.99
  -3   1  -6  127.29    8.39
  -3   1  -6  133.63    8.35
  -3   1  -5  127.28    9.17
  -3   1  -5  135.86    8.92
  -3   1  -5  144.18   10.02
  -3   1  -4  623.60   26.13
  -3   1  -4  581.54   25.57
  -3   1  -4  601.52   24.91
  -3   1  -4  655.28   28.81
  -3   1  -3  169.22   11.69
  -3   1  -3  160.88    9.49
  -3   1  -3  155.03   10.73
  -3   1  -3  156.91    9.31
  -3   1  -3  157.32    8.78
  -3   1  -3  161.33    9.32
  -3   1  -3  164.63    9.49
  -3   1  -2  180.90   11.92
  -3   1  -2  145.02   15.93
  -3   1  -2  161.89    9.43
  -3   1  -2  150.48    8.37
  -3   1  -2  149.07   14.86
  -3   1  -2  164.20    9.35
  -3   1  -1    8.21    1.83
  -3   1  -1   12.66    3.42
  -3   1  -1    6.59    1.84
  -3   1  -1   10.84    4.26
  -3   1  -1    9.06    3.78
  -3   1  -1    8.21    1.85
  -3   1   0  204.56   10.17
  -3   1   0  209.46   11.37
  -3   1   0  185.60   18.99
  -3   1   0  201.03    9.29
  -3   1   0  196.01    9.63
  -3   1   0  180.34   15.85
  -3   1   0  191.03   10.28
  -3   1   0  186.68    9.16
  -3   1   1  673.67   26.12
  -3   1   1  687.26   25.90
  -3   1   1  643.79   25.91
  -3   1   2   28.59    2.86
  -3   1   2   26.31    3.83
  -3   1   2   31.01    7.70
  -3   1   2   22.20    3.47
  -3   1   2   32.48    6.12
  -3   1   2   28.84    3.18
  -3   1   2   29.50    2.94
  -3   1   2   24.84    2.92
  -3   1   2   24.98    2.93
  -3   1   3  279.95   15.48
  -3   1   3  263.69   26.12
  -3   1   3  289.85   13.53
  -3   1   3  258.67   14.57
  -3   1   3  280.47   13.19
  -3   1   3  301.97   13.54
  -3   1   3  284.06   13.36
  -3   1   3  259.02   19.20
  -3   1   4    3.25    1.23
  -3   1   4    2.35    1.64
  -3   1   4    0.98    0.96
  -3   1   4    1.74    1.28
  -3   1   5  456.45   20.76
  -3   1   5  461.32   19.03
  -3   1   5  461.65   21.76
  -3   1   5  470.08   20.45
  -3   1   6  212.76   10.62
  -3   1   6  244.14   13.10
  -3   1   6  253.35   12.88
  -3   1   6  218.36   12.71
  -3   1   6  245.57   12.96
  -3   1   7   55.11    4.53
  -3   1   7   69.84    5.57
  -3   1   7   64.02    5.67
  -3   1   7   66.54    6.20
  -3   1   8   71.47    5.47
  -3   1   8   81.55    7.27
  -3   1   8   86.29    7.07
  -3   1   8   79.82    6.12
  -3   1   9   21.16    2.78
  -3   1   9   27.36    3.80
  -3   1   9   24.85    3.34
  -3   1   9   26.69    3.07
  -3   1  10  102.51    5.98
  -3   1  10   87.01    6.36
  -3   1  11    1.28    0.58
  -3   1  11    4.04    1.07
  -3   2 -11    1.80    0.55
  -3   2 -10    2.91    1.00
  -3   2  -9    4.24    1.43
  -3   2  -9    3.39    1.25
  -3   2  -9    7.58    1.70
  -3   2  -8  107.45    7.75
  -3   2  -8   98.51    6.02
  -3   2  -8  115.07    7.48
  -3   2  -8  104.12    7.34
  -3   2  -7   31.77    4.41
  -3   2  -7   29.19    3.17
  -3   2  -7   25.63    3.56
  -3   2  -7   26.01    3.57
  -3   2  -6    7.82    2.42
  -3   2  -6    9.14    1.91
  -3   2  -6    9.09    2.32
  -3   2  -5   57.69    5.96
  -3   2  -5   47.91    4.13
  -3   2  -5   51.51    4.89
  -3   2  -5   51.77    5.06
  -3   2  -4   11.96    2.56
  -3   2  -4    9.54    2.28
  -3   2  -4    7.62    3.03
  -3   2  -4   10.11    2.03
  -3   2  -4   10.70    2.03
  -3   2  -4    9.89    2.82
  -3   2  -3   78.57    6.31
  -3   2  -3   68.87    5.74
  -3   2  -3   61.08    4.93
  -3   2  -3   81.40   10.98
  -3   2  -3   73.53    5.87
  -3   2  -2   76.98    5.94
  -3   2  -2   78.23    6.11
  -3   2  -2   78.18   10.71
  -3   2  -2   88.78    5.59
  -3   2  -1   96.84    7.16
  -3   2  -1   96.15   13.29
  -3   2  -1   96.50    6.66
  -3   2  -1  112.78    7.01
  -3   2  -1  103.61    6.94
  -3   2  -1  103.87    6.31
  -3   2  -1   98.32    5.83
  -3   2  -1   84.98   11.03
  -3   2   0   42.07    4.54
  -3   2   0   33.65    8.03
  -3   2   0   34.99    3.28
  -3   2   0   41.37    3.77
  -3   2   0   37.95    3.90
  -3   2   0   36.15    6.72
  -3   2   0   44.42    4.07
  -3   2   0   43.87    3.98
  -3   2   1   76.06    5.37
  -3   2   1   82.26    5.64
  -3   2   1   85.83    5.94
  -3   2   1   81.10   10.04
  -3   2   1   78.42    6.76
  -3   2   1   79.89    5.43
  -3   2   1   81.30    5.70
  -3   2   2  150.24    8.47
  -3   2   2  137.33    9.58
  -3   2   2  145.81    8.46
  -3   2   2  156.29    8.59
  -3   2   2  141.06   13.47
  -3   2   2  152.11    8.39
  -3   2   2  159.65    8.02
  -3   2   3    2.17    1.48
  -3   2   3    2.26    1.10
  -3   2   3   -0.33    1.11
  -3   2   3    2.01    0.99
  -3   2   3    1.86    1.01
  -3   2   3    0.60    0.89
  -3   2   4  274.77   12.39
  -3   2   4  234.88   14.12
  -3   2   4  229.28   17.58
  -3   2   4  270.53   13.22
  -3   2   4  260.18   12.68
  -3   2   4  263.37   13.23
  -3   2   5  152.67   10.79
  -3   2   5  171.58    9.75
  -3   2   6   21.65    3.26
  -3   2   6   18.39    3.33
  -3   2   6   19.87    3.09
  -3   2   6   25.61    3.56
  -3   2   7   10.38    2.49
  -3   2   7   10.04    2.31
  -3   2   7    8.12    2.03
  -3   2   7    8.42    2.10
  -3   2   8   49.20    4.57
  -3   2   8   63.20    4.88
  -3   2   8   44.90    4.93
  -3   2   8   46.56    5.20
  -3   2   9   89.21    7.08
  -3   2   9  107.89    6.72
  -3   2  10    4.08    1.00
  -3   2  10    2.28    1.04
  -3   2  11   31.02    2.20
  -3   3 -10   20.33    2.26
  -3   3 -10   19.11    2.40
  -3   3  -9   58.53    4.70
  -3   3  -9   62.32    5.13
  -3   3  -9   57.98    3.80
  -3   3  -8   17.36    2.86
  -3   3  -8   12.53    1.95
  -3   3  -7  108.76    8.32
  -3   3  -7   95.17    6.41
  -3   3  -6    9.50    2.83
  -3   3  -6    9.90    2.07
  -3   3  -5  131.65    9.72
  -3   3  -5  123.10    8.19
  -3   3  -5  108.99    6.96
  -3   3  -5  126.13    7.80
  -3   3  -4   63.60    9.20
  -3   3  -4   74.12    5.73
  -3   3  -4   85.04    7.23
  -3   3  -4   71.94    5.59
  -3   3  -4   69.40    5.52
  -3   3  -4   72.41    6.22
  -3   3  -3   28.69    3.65
  -3   3  -3   37.82    3.63
  -3   3  -3   39.55    4.24
  -3   3  -3   27.34    6.43
  -3   3  -2  115.73    7.64
  -3   3  -2  109.81    7.35
  -3   3  -2  105.69    7.45
  -3   3  -2  103.08    6.29
  -3   3  -2   97.82   12.31
  -3   3  -1   98.20    6.66
  -3   3  -1   91.50    6.56
  -3   3  -1   92.67    6.23
  -3   3  -1   82.82   11.11
  -3   3  -1   98.46    6.90
  -3   3   0  383.27   16.62
  -3   3   0  359.39   16.32
  -3   3   0  377.18   16.11
  -3   3   1   76.47    5.19
  -3   3   1   62.26    5.08
  -3   3   1   71.59    5.24
  -3   3   1   72.31    5.50
  -3   3   1   68.69    5.28
  -3   3   1   58.18    8.81
  -3   3   2   16.37    2.09
  -3   3   2   11.89    2.08
  -3   3   2   14.55    3.89
  -3   3   2   17.79    4.51
  -3   3   2   11.13    2.13
  -3   3   2   13.56    2.84
  -3   3   2   12.87    2.20
  -3   3   2   13.78    2.31
  -3   3   3   76.63    5.55
  -3   3   3   95.33    9.19
  -3   3   3   80.05    9.52
  -3   3   3   87.65    7.36
  -3   3   3   86.95    5.90
  -3   3   3   88.20    5.55
  -3   3   3   92.45    6.48
  -3   3   4  125.94   10.59
  -3   3   4  114.26    7.04
  -3   3   4  111.57    8.78
  -3   3   4  120.68    6.98
  -3   3   4  109.16   10.90
  -3   3   5   47.33    4.31
  -3   3   5   56.91    5.15
  -3   3   5   47.39    5.54
  -3   3   5   58.10    5.10
  -3   3   5   49.57    4.51
  -3   3   6    1.07    1.00
  -3   3   6    0.73    1.03
  -3   3   6    0.57    1.11
  -3   3   6    2.27    1.42
  -3   3   6   -0.65    0.72
  -3   3   7   62.33    5.66
  -3   3   7   65.88    5.80
  -3   3   7   65.84    5.59
  -3   3   7   55.57    5.06
  -3   3   7   50.06    4.47
  -3   3   8    1.82    1.31
  -3   3   8    1.06    1.07
  -3   3   8    1.25    1.15
  -3   3   9    7.19    1.39
  -3   3   9    9.15    1.95
  -3   3  10   26.96    2.30
  -3   4 -11   24.77    2.10
  -3   4 -11   21.85    2.24
  -3   4 -10   55.95    3.94
  -3   4 -10   46.69    4.00
  -3   4  -9   11.13    2.10
  -3   4  -9    9.15    1.48
  -3   4  -8  176.67   10.47
  -3   4  -8  166.87    8.67
  -3   4  -7   10.35    2.06
  -3   4  -7    6.58    2.19
  -3   4  -7    9.82    1.87
  -3   4  -6  117.77    9.35
  -3   4  -6  108.27    7.13
  -3   4  -6   86.76    5.84
  -3   4  -6  108.41    7.80
  -3   4  -5   60.60    6.54
  -3   4  -5   51.81    4.43
  -3   4  -5   53.28    5.08
  -3   4  -5   59.68    4.74
  -3   4  -5   52.05    7.81
  -3   4  -5   59.49    5.38
  -3   4  -4  267.83   13.51
  -3   4  -4  214.94   18.96
  -3   4  -4  259.71   12.89
  -3   4  -4  251.96   12.88
  -3   4  -4  266.98   13.97
  -3   4  -4  226.41   12.28
  -3   4  -3  311.34   15.34
  -3   4  -3  294.26   23.77
  -3   4  -3  272.13   13.41
  -3   4  -3  316.62   14.42
  -3   4  -3  308.40   15.12
  -3   4  -2   37.82    7.72
  -3   4  -2   32.83    3.95
  -3   4  -2   31.95    3.39
  -3   4  -2   29.82    3.76
  -3   4  -2   28.49    3.73
  -3   4  -1  283.11   14.45
  -3   4  -1  291.91   22.87
  -3   4  -1  288.59   14.41
  -3   4  -1  301.45   14.43
  -3   4   0    9.25    1.86
  -3   4   0    7.46    2.03
  -3   4   0    8.24    1.67
  -3   4   0    8.83    1.99
  -3   4   0    8.67    1.90
  -3   4   1  414.29   22.00
  -3   4   1  361.08   17.86
  -3   4   1  336.60   16.19
  -3   4   1  394.99   17.00
  -3   4   1  350.44   24.41
  -3   4   1  357.50   16.28
  -3   4   1  376.07   15.97
  -3   4   1  385.49   16.07
  -3   4   1  341.81   16.33
  -3   4   1  346.36   17.04
  -3   4   2   39.13    4.05
  -3   4   2   50.89    4.42
  -3   4   2   49.95    7.66
  -3   4   2   54.20    7.13
  -3   4   2   42.37    4.00
  -3   4   3  108.79   11.72
  -3   4   3  132.52    8.19
  -3   4   3  135.28    7.71
  -3   4   3  124.21    6.87
  -3   4   3  132.47    7.54
  -3   4   4  137.00    7.71
  -3   4   4  148.93    7.87
  -3   4   4  160.52    9.06
  -3   4   4  133.07    8.67
  -3   4   4  131.70    9.83
  -3   4   4  162.85   12.34
  -3   4   5   22.32    3.13
  -3   4   5   18.22    2.81
  -3   4   5   20.58    3.66
  -3   4   5   24.27    4.36
  -3   4   6  112.90    7.24
  -3   4   6  114.82    7.86
  -3   4   6  139.27    8.24
  -3   4   6  110.68    9.06
  -3   4   7    0.95    0.84
  -3   4   7   -0.56    1.14
  -3   4   8   98.46    6.65
  -3   4   8  109.24    6.57
  -3   4   9   59.91    3.71
  -3   4   9   56.41    3.79
  -3   5 -11   21.57    1.95
  -3   5  -9    6.44    1.23
  -3   5  -9    7.55    1.52
  -3   5  -8    0.24    0.75
  -3   5  -8    1.35    0.90
  -3   5  -8    0.69    0.86
  -3   5  -7  158.77   10.37
  -3   5  -7  166.53    9.04
  -3   5  -7  160.27   10.02
  -3   5  -6   41.81    5.20
  -3   5  -6   30.93    3.58
  -3   5  -6   31.79    3.15
  -3   5  -6   35.48    4.47
  -3   5  -6   31.66    3.18
  -3   5  -5   42.29    4.49
  -3   5  -5   45.57    4.13
  -3   5  -5   48.49    4.28
  -3   5  -5   44.47    7.32
  -3   5  -5   46.03    4.96
  -3   5  -4   55.73    5.62
  -3   5  -4   50.35    4.79
  -3   5  -4   56.63    8.91
  -3   5  -4   60.84    5.50
  -3   5  -4   52.79    4.89
  -3   5  -4   53.38    5.35
  -3   5  -3   48.35    8.89
  -3   5  -3   46.55    4.96
  -3   5  -3   59.27    5.19
  -3   5  -3   49.19    5.01
  -3   5  -3   46.77    5.08
  -3   5  -2  120.09    8.33
  -3   5  -2  113.31   13.80
  -3   5  -2  120.68    7.71
  -3   5  -2  108.45    7.91
  -3   5  -2  111.77    7.96
  -3   5  -2  103.17    7.46
  -3   5  -1    1.39    0.99
  -3   5  -1    0.53    1.04
  -3   5   0  216.23   13.63
  -3   5   0  182.66   10.93
  -3   5   0  175.69   10.41
  -3   5   0  161.58   16.55
  -3   5   0  182.53    9.91
  -3   5   0  162.16   10.41
  -3   5   0  185.88   10.01
  -3   5   0  171.54   10.18
  -3   5   1   70.01    8.01
  -3   5   1   64.26    6.02
  -3   5   1   66.64    5.42
  -3   5   1   68.17    5.59
  -3   5   1   64.90    9.40
  -3   5   1   72.83    5.42
  -3   5   1   67.58    5.45
  -3   5   1   69.01    5.02
  -3   5   2   81.65    6.85
  -3   5   2   76.54    5.92
  -3   5   2   80.43    5.87
  -3   5   2   87.76   10.44
  -3   5   2   94.04    9.80
  -3   5   2   75.62    5.63
  -3   5   3   90.41    6.56
  -3   5   3   91.50    6.06
  -3   5   3   96.63    7.67
  -3   5   3   95.26    6.02
  -3   5   4   62.98    4.40
  -3   5   4   61.77    5.20
  -3   5   5  137.04    8.42
  -3   5   5  157.99   11.36
  -3   5   6    9.68    2.40
  -3   5   6    5.57    1.56
  -3   5   7  140.81    7.87
  -3   5   7  136.33    8.39
  -3   5   8   -0.14    0.60
  -3   5   8   -0.13    0.56
  -3   6 -10    6.66    1.24
  -3   6  -9   48.91    3.98
  -3   6  -9   51.84    3.56
  -3   6  -8   42.92    4.22
  -3   6  -8   47.60    3.77
  -3   6  -7    2.85    0.87
  -3   6  -7    3.18    1.31
  -3   6  -7    2.53    1.29
  -3   6  -7    2.64    0.96
  -3   6  -6   10.03    1.79
  -3   6  -6   12.27    2.20
  -3   6  -6   11.34    1.87
  -3   6  -6    8.60    2.33
  -3   6  -5   17.85    3.47
  -3   6  -5   19.46    2.72
  -3   6  -5   19.89    3.44
  -3   6  -5   19.40    2.66
  -3   6  -5   17.06    2.78
  -3   6  -4  132.67    8.36
  -3   6  -4  119.66   13.71
  -3   6  -4  146.11    9.43
  -3   6  -4  115.54    7.88
  -3   6  -3   26.06    6.48
  -3   6  -3   24.93    3.55
  -3   6  -3   23.48    3.47
  -3   6  -2    0.32    1.01
  -3   6  -2   -1.18    0.01
  -3   6  -1  117.12    9.28
  -3   6  -1  131.92    8.25
  -3   6  -1  122.36    8.16
  -3   6  -1  116.99    8.18
  -3   6   0   64.33    5.70
  -3   6   0   75.87    5.67
  -3   6   0   74.19    7.53
  -3   6   0   74.76    6.16
  -3   6   0   69.64    5.60
  -3   6   0   72.62    6.27
  -3   6   0   57.42    9.46
  -3   6   1   98.30    6.15
  -3   6   1  101.33    6.95
  -3   6   1   95.85    9.34
  -3   6   1   99.93    7.61
  -3   6   1  106.45    7.23
  -3   6   2   19.16    2.56
  -3   6   2   16.49    4.08
  -3   6   2   17.25    2.98
  -3   6   2   16.83    2.57
  -3   6   2   17.73    2.57
  -3   6   3   43.16    3.61
  -3   6   3   43.05    4.12
  -3   6   3   48.37    4.98
  -3   6   3   46.20    3.81
  -3   6   4   16.55    3.71
  -3   6   4   14.98    2.74
  -3   6   4    9.40    1.89
  -3   6   5   36.48    4.84
  -3   6   5   32.49    3.31
  -3   6   5   31.45    3.92
  -3   7 -11    4.99    0.78
  -3   7 -10   20.42    1.90
  -3   7 -10   14.21    1.32
  -3   7  -9    4.23    1.16
  -3   7  -9    2.95    0.87
  -3   7  -9    3.56    0.99
  -3   7  -8   36.24    3.86
  -3   7  -8   45.66    3.50
  -3   7  -8   36.06    3.65
  -3   7  -7   87.59    6.92
  -3   7  -7   91.38    5.80
  -3   7  -7   76.91    4.84
  -3   7  -7   91.07    5.16
  -3   7  -7   96.38    6.88
  -3   7  -6   17.29    3.28
  -3   7  -6   18.43    2.35
  -3   7  -6   18.32    3.26
  -3   7  -6   15.10    2.14
  -3   7  -6   17.99    2.59
  -3   7  -5   51.63    4.45
  -3   7  -5   56.69    5.76
  -3   7  -5   52.35    4.43
  -3   7  -5   53.14    4.81
  -3   7  -4   14.58    2.49
  -3   7  -4   21.79    3.41
  -3   7  -3  380.77   17.52
  -3   7  -3  316.50   15.60
  -3   7  -2   25.62    3.57
  -3   7  -1   52.76    5.28
  -3   7  -1   53.66    5.68
  -3   7  -1   46.67    4.71
  -3   7  -1   52.78    4.93
  -3   7   0  115.66    7.43
  -3   7   0   97.76    7.15
  -3   7   0   88.48    6.89
  -3   7   0  100.71    8.53
  -3   7   0  105.21    6.63
  -3   7   0   88.45    6.79
  -3   7   1    6.45    1.66
  -3   7   1    9.10    2.06
  -3   7   1    7.81    2.42
  -3   7   1    8.60    1.86
  -3   7   2   66.44    5.58
  -3   7   2   61.50    4.67
  -3   7   2   65.21    7.31
  -3   7   2   62.76    4.61
  -3   7   3    0.49    1.37
  -3   7   4   99.20    6.93
  -3   7   4  116.68    8.93
  -3   7   5   46.64    4.24
  -3   7   6   16.98    2.28
  -3   8 -10    2.19    0.53
  -3   8  -9   14.19    1.78
  -3   8  -9   13.75    1.51
  -3   8  -8   31.83    3.10
  -3   8  -8   29.31    2.60
  -3   8  -7    8.86    1.41
  -3   8  -7    8.92    1.85
  -3   8  -7    8.81    1.58
  -3   8  -7    9.92    1.41
  -3   8  -6   62.01    4.30
  -3   8  -6   66.22    5.59
  -3   8  -6   51.59    3.98
  -3   8  -6   59.80    4.56
  -3   8  -5   13.62    2.12
  -3   8  -5   20.04    3.31
  -3   8  -5   14.90    2.17
  -3   8  -4  151.87    8.71
  -3   8  -3   20.47    3.05
  -3   8  -3   33.79    4.15
  -3   8  -2    7.17    1.82
  -3   8  -1   34.37    3.94
  -3   8  -1   31.76    3.84
  -3   8  -1   35.22    4.20
  -3   8  -1   30.25    3.39
  -3   8  -1   32.36    3.53
  -3   8  -1   26.41    3.49
  -3   8   0   41.59    4.14
  -3   8   0   37.78    3.93
  -3   8   0   37.13    3.88
  -3   8   1   98.03    6.32
  -3   8   1   90.85    5.88
  -3   8   1   94.56    7.61
  -3   8   1   75.27    5.64
  -3   8   1   84.94    5.63
  -3   8   2    1.40    0.95
  -3   8   2    2.05    1.46
  -3   8   3  119.98    7.21
  -3   8   3  143.86    9.51
  -3   8   4    1.92    0.99
  -3   9  -9    3.34    0.66
  -3   9  -8   28.78    2.65
  -3   9  -8   30.44    2.37
  -3   9  -7   13.37    1.71
  -3   9  -7   14.72    1.50
  -3   9  -7   13.25    1.94
  -3   9  -7   13.28    1.45
  -3   9  -6    5.39    1.10
  -3   9  -6    5.42    1.19
  -3   9  -6    7.11    1.25
  -3   9  -5   23.49    2.44
  -3   9  -5   23.30    3.20
  -3   9  -5   24.18    2.53
  -3   9  -4    0.68    0.72
  -3   9  -4    0.18    0.61
  -3   9  -4    0.28    1.06
  -3   9  -4    0.35    0.65
  -3   9  -3   22.93    2.80
  -3   9  -3   25.64    2.94
  -3   9  -3   24.86    2.91
  -3   9  -2    0.84    0.86
  -3   9  -2    2.43    1.10
  -3   9  -1   27.91    3.15
  -3   9  -1   24.97    3.11
  -3   9   0   29.35    2.97
  -3   9   0   31.28    3.07
  -3  10  -8    5.03    0.76
  -3  10  -7   30.54    1.97
  -3  10  -7   30.29    1.96
  -3  10  -6    4.79    0.90
  -3  10  -6    4.88    1.09
  -3  10  -6    4.48    0.84
  -3  10  -5   11.26    1.50
  -3  10  -5   12.48    1.48
  -3  10  -5   12.84    1.52
  -3  10  -4   33.14    2.67
  -3  10  -4   34.07    2.74
  -3  10  -4   37.87    3.39
  -3  10  -4   30.32    2.61
  -3  10  -3    3.10    0.87
  -3  10  -2   36.62    3.02
  -3  10  -2   34.68    2.93
  -3  10  -1    0.13    0.59
  -3  10  -1    0.12    0.52
  -3  11  -4    8.72    0.95
  -3  11  -4    7.35    0.89
  -2 -11   2    2.55    0.84
  -2 -11   2    3.00    0.96
  -2 -11   3   16.38    2.11
  -2 -11   3   19.62    2.29
  -2 -11   3   20.19    2.35
  -2 -11   4    1.67    0.79
  -2 -11   4    1.75    0.78
  -2 -11   5   11.61    1.83
  -2 -11   5   12.72    1.79
  -2 -11   5   10.44    1.65
  -2 -11   6   30.15    2.75
  -2 -11   6   24.63    2.45
  -2 -11   6   26.24    2.51
  -2 -11   7    4.12    1.00
  -2 -11   7    3.22    0.98
  -2 -11   7    3.98    1.02
  -2 -11   7    4.05    0.95
  -2 -11   7    5.38    1.00
  -2 -11   8    0.43    0.36
  -2 -11   8    0.89    0.54
  -2 -11   8    0.77    0.48
  -2 -11   8    0.65    0.44
  -2 -11   8    0.45    0.44
  -2 -11   9    1.16    0.51
  -2 -11   9    0.86    0.48
  -2 -11  10   21.17    1.70
  -2 -10  -1   15.83    2.12
  -2 -10   0   14.67    2.04
  -2 -10   0   11.12    1.86
  -2 -10   1   28.75    3.08
  -2 -10   1   27.01    2.98
  -2 -10   1   30.43    3.33
  -2 -10   1   23.99    2.80
  -2 -10   2  102.63    6.96
  -2 -10   2  102.59    6.82
  -2 -10   2  103.29    7.03
  -2 -10   3    3.64    1.42
  -2 -10   3    3.20    1.31
  -2 -10   3    5.74    1.67
  -2 -10   4   43.68    4.38
  -2 -10   4   53.09    4.53
  -2 -10   4   53.96    4.62
  -2 -10   4   49.29    4.47
  -2 -10   5    6.34    1.61
  -2 -10   5    9.14    1.96
  -2 -10   5    7.18    1.65
  -2 -10   5    7.97    1.76
  -2 -10   5    5.93    1.58
  -2 -10   6   89.25    6.17
  -2 -10   6  101.96    6.72
  -2 -10   6   82.53    5.98
  -2 -10   6   89.96    6.05
  -2 -10   6   84.20    5.77
  -2 -10   7   31.92    3.30
  -2 -10   7   44.74    3.99
  -2 -10   7   42.88    3.86
  -2 -10   7   34.93    3.37
  -2 -10   7   33.96    3.15
  -2 -10   8    4.65    1.02
  -2 -10   8    4.73    1.31
  -2 -10   8    3.27    0.99
  -2 -10   8    4.68    1.24
  -2 -10   8    3.94    1.11
  -2 -10   9   64.44    3.59
  -2 -10   9   64.38    4.56
  -2 -10  10   29.80    2.62
  -2 -10  10   24.85    2.51
  -2  -9  -3    7.65    1.67
  -2  -9  -3    6.29    1.52
  -2  -9  -2   37.58    3.11
  -2  -9  -2   37.82    4.00
  -2  -9  -1   60.52    5.51
  -2  -9  -1   48.42    4.21
  -2  -9   0    3.75    1.57
  -2  -9   0    2.86    1.14
  -2  -9   0    2.55    1.07
  -2  -9   0    4.88    1.42
  -2  -9   1  180.82   10.25
  -2  -9   1  142.37    9.27
  -2  -9   1  170.36    9.87
  -2  -9   1  153.80    9.61
  -2  -9   1  179.52   10.30
  -2  -9   2   29.24    3.99
  -2  -9   2   28.29    3.83
  -2  -9   2   24.85    3.56
  -2  -9   2   17.81    2.74
  -2  -9   3  157.13   10.12
  -2  -9   3  154.27    8.81
  -2  -9   3  143.99    8.69
  -2  -9   3  150.10    9.74
  -2  -9   4   19.87    3.31
  -2  -9   4   22.18    3.21
  -2  -9   4   22.46    3.43
  -2  -9   4   20.15    3.14
  -2  -9   4   22.68    3.34
  -2  -9   5  112.91    8.04
  -2  -9   5  109.44    7.78
  -2  -9   5   89.50    6.98
  -2  -9   6  107.83    7.53
  -2  -9   6  135.83    8.77
  -2  -9   6  109.62    7.75
  -2  -9   6  109.92    7.45
  -2  -9   6  106.76    7.22
  -2  -9   7   14.23    2.35
  -2  -9   7   13.94    2.50
  -2  -9   7   14.41    2.44
  -2  -9   7   10.25    2.03
  -2  -9   7   11.87    1.99
  -2  -9   8   14.95    2.18
  -2  -9   8   13.92    2.37
  -2  -9   8   14.24    2.21
  -2  -9   9    3.50    1.25
  -2  -9   9    3.78    1.07
  -2  -9   9    4.15    1.08
  -2  -9  10  127.12    7.30
  -2  -9  10  128.13    7.18
  -2  -9  10  130.80    6.06
  -2  -9  11   35.03    2.93
  -2  -9  11   37.43    3.10
  -2  -8  -5   41.72    3.47
  -2  -8  -5   36.94    3.46
  -2  -8  -4    1.14    0.81
  -2  -8  -3   11.15    2.37
  -2  -8  -3   11.47    1.68
  -2  -8  -2   24.33    2.84
  -2  -8  -2   15.52    3.07
  -2  -8  -1  169.43    9.45
  -2  -8  -1  167.77   11.04
  -2  -8  -1  168.97    9.34
  -2  -8  -1  191.00   10.22
  -2  -8   0    8.83    2.00
  -2  -8   0    8.62    2.06
  -2  -8   0    6.56    1.72
  -2  -8   1   42.26    7.79
  -2  -8   1   33.58    6.90
  -2  -8   1   50.94    5.25
  -2  -8   1   42.11    8.82
  -2  -8   1   56.27    5.41
  -2  -8   1   45.84    4.95
  -2  -8   2  143.58    9.79
  -2  -8   2  147.92   10.21
  -2  -8   2  135.50    8.42
  -2  -8   2  153.69   10.11
  -2  -8   2  127.03    8.20
  -2  -8   2  144.40   18.28
  -2  -8   2  154.88   15.31
  -2  -8   2  131.61   14.91
  -2  -8   3   32.32    4.58
  -2  -8   3   20.98    5.48
  -2  -8   3   36.17    7.18
  -2  -8   3   23.95    3.28
  -2  -8   3   28.00    7.85
  -2  -8   3   23.88    3.76
  -2  -8   3   20.94    3.23
  -2  -8   4    1.39    1.23
  -2  -8   4    4.29    1.80
  -2  -8   4    6.12    2.96
  -2  -8   4    2.02    1.69
  -2  -8   4    1.51    1.19
  -2  -8   4    1.39    1.65
  -2  -8   4    3.42    1.46
  -2  -8   4    2.67    1.37
  -2  -8   5    3.05    2.08
  -2  -8   5    2.09    1.75
  -2  -8   5    5.08    3.01
  -2  -8   5    1.21    0.88
  -2  -8   5    1.35    1.20
  -2  -8   5    0.66    1.24
  -2  -8   5    1.51    1.01
  -2  -8   6   39.27    4.21
  -2  -8   6   36.72    4.31
  -2  -8   6   41.90    8.06
  -2  -8   6   54.51    5.60
  -2  -8   6   39.70    4.59
  -2  -8   6   51.02    9.21
  -2  -8   6   39.60    4.34
  -2  -8   7   44.87    4.65
  -2  -8   7   59.59    9.52
  -2  -8   7   56.94    4.96
  -2  -8   7   60.83    5.51
  -2  -8   7   57.84    4.74
  -2  -8   8    1.13    0.71
  -2  -8   8    1.65    1.03
  -2  -8   8    0.27    0.91
  -2  -8   8    0.64    0.67
  -2  -8   8    1.37    0.57
  -2  -8   9   27.14    3.34
  -2  -8   9   33.45    3.68
  -2  -8   9   29.84    3.51
  -2  -8   9   27.62    2.86
  -2  -8   9   31.32    3.11
  -2  -8  10    1.48    0.87
  -2  -8  10    1.58    0.94
  -2  -8  10    0.72    0.60
  -2  -8  10    1.48    0.90
  -2  -8  11   19.95    2.28
  -2  -8  11   20.89    2.49
  -2  -8  11   20.21    2.44
  -2  -8  11   21.08    1.86
  -2  -8  12   19.22    2.20
  -2  -8  12   22.14    2.26
  -2  -7  -6   32.36    3.00
  -2  -7  -6   32.80    3.15
  -2  -7  -5   15.30    2.39
  -2  -7  -5   18.85    2.74
  -2  -7  -4   32.39    4.45
  -2  -7  -4   34.71    4.19
  -2  -7  -4   31.80    3.84
  -2  -7  -3  245.73   13.85
  -2  -7  -3  234.23   11.57
  -2  -7  -2  275.87   13.40
  -2  -7  -2  288.63   21.71
  -2  -7  -2  265.69   12.66
  -2  -7  -2  262.57   12.53
  -2  -7  -1    4.61    1.51
  -2  -7  -1    4.66    2.47
  -2  -7  -1    4.59    1.98
  -2  -7  -1    4.27    1.43
  -2  -7  -1    2.40    1.11
  -2  -7  -1    3.00    2.05
  -2  -7   0   45.23    7.74
  -2  -7   0   61.60    9.12
  -2  -7   0   51.57    5.04
  -2  -7   0   35.84    4.91
  -2  -7   0   46.99    4.76
  -2  -7   0   49.39    9.06
  -2  -7   0   52.08    5.09
  -2  -7   0   55.14    6.24
  -2  -7   1   26.94    3.79
  -2  -7   1   26.67    4.02
  -2  -7   1   33.25    4.23
  -2  -7   1   35.00    6.79
  -2  -7   1   31.65    6.41
  -2  -7   1   30.30    3.40
  -2  -7   1   26.97    3.13
  -2  -7   1   32.17    7.68
  -2  -7   1   32.56    4.08
  -2  -7   2  165.29   10.86
  -2  -7   2  214.28   12.13
  -2  -7   2  186.54   12.03
  -2  -7   2  210.55   18.22
  -2  -7   2  196.37   17.30
  -2  -7   2  191.66   10.53
  -2  -7   2  181.16   10.45
  -2  -7   2  230.69   23.00
  -2  -7   2  190.51   11.82
  -2  -7   3  148.44   14.52
  -2  -7   3  114.59    8.83
  -2  -7   3  120.56    9.54
  -2  -7   3  132.36   13.51
  -2  -7   3   98.74    7.40
  -2  -7   3  144.35   19.08
  -2  -7   3  110.22    8.02
  -2  -7   4   18.38    4.93
  -2  -7   4   25.30    5.72
  -2  -7   4   21.32    3.25
  -2  -7   4   26.93    3.92
  -2  -7   4   27.74    3.99
  -2  -7   5  249.81   20.30
  -2  -7   5  228.07   13.15
  -2  -7   5  255.83   13.44
  -2  -7   5  211.56   21.72
  -2  -7   5  214.69   12.67
  -2  -7   5  247.10   13.83
  -2  -7   5  207.98   12.48
  -2  -7   6   86.79   11.36
  -2  -7   6   64.13    6.07
  -2  -7   6   84.13    6.61
  -2  -7   6   71.80   11.18
  -2  -7   6   88.14    7.21
  -2  -7   6   74.08    6.17
  -2  -7   6   76.61    6.06
  -2  -7   7   96.57    7.19
  -2  -7   7  124.70    8.54
  -2  -7   7  109.17    8.19
  -2  -7   7   97.30   12.51
  -2  -7   7  105.28    7.91
  -2  -7   7   96.17    7.01
  -2  -7   7  103.02    6.76
  -2  -7   8   10.80    2.44
  -2  -7   8   12.06    2.43
  -2  -7   8    7.33    3.08
  -2  -7   8    8.51    1.72
  -2  -7   8    6.50    1.58
  -2  -7   9   62.71    5.49
  -2  -7   9   70.07    5.82
  -2  -7   9   65.03    4.71
  -2  -7   9   69.55    4.95
  -2  -7  10   39.42    4.03
  -2  -7  10   50.56    4.57
  -2  -7  10   40.72    3.93
  -2  -7  10   44.24    3.39
  -2  -7  11    4.86    1.15
  -2  -7  11    6.59    1.55
  -2  -7  11    7.51    1.64
  -2  -7  11    4.77    1.27
  -2  -7  11    6.52    1.14
  -2  -7  12    3.15    0.70
  -2  -7  12    2.37    0.85
  -2  -7  13   21.22    2.14
  -2  -7  14   25.61    1.76
  -2  -6  -7    1.08    0.74
  -2  -6  -7    1.35    0.75
  -2  -6  -6   81.37    6.21
  -2  -6  -6   93.86    6.50
  -2  -6  -5   67.68    6.07
  -2  -6  -5   77.47    6.79
  -2  -6  -4   68.56    4.96
  -2  -6  -4   65.45    6.28
  -2  -6  -3  223.92   13.60
  -2  -6  -3  227.38   11.62
  -2  -6  -3  237.65   13.82
  -2  -6  -3  237.45   19.43
  -2  -6  -2   11.49    2.03
  -2  -6  -2   11.15    2.57
  -2  -6  -2   13.09    2.36
  -2  -6  -2   11.75    2.01
  -2  -6  -1  348.75   23.99
  -2  -6  -1  356.23   16.13
  -2  -6  -1  334.22   16.06
  -2  -6  -1  296.25   15.99
  -2  -6  -1  357.14   18.46
  -2  -6  -1  336.62   24.25
  -2  -6  -1  348.13   15.78
  -2  -6   0   33.99    6.52
  -2  -6   0   36.54    6.53
  -2  -6   0   30.22    3.77
  -2  -6   0   30.27    4.50
  -2  -6   0   30.89    3.72
  -2  -6   0   40.07    7.87
  -2  -6   0   31.39    4.75
  -2  -6   0   29.95    3.70
  -2  -6   1  396.53   18.57
  -2  -6   1  384.68   19.86
  -2  -6   1  401.66   18.93
  -2  -6   1  393.64   25.15
  -2  -6   1  410.07   25.58
  -2  -6   1  384.79   17.17
  -2  -6   1  380.78   17.01
  -2  -6   1  410.57   18.68
  -2  -6   1  400.50   29.67
  -2  -6   1  381.81   19.23
  -2  -6   2  501.67   29.02
  -2  -6   2  443.87   21.76
  -2  -6   2  527.34   23.29
  -2  -6   2  534.29   29.53
  -2  -6   2  483.59   20.83
  -2  -6   2  509.47   35.76
  -2  -6   2  543.15   23.06
  -2  -6   2  465.38   20.95
  -2  -6   3  181.39   15.44
  -2  -6   3  164.90   10.70
  -2  -6   3  170.49   11.46
  -2  -6   3  187.12   15.17
  -2  -6   3  161.22    9.58
  -2  -6   3  164.61   19.88
  -2  -6   3  166.52   10.10
  -2  -6   4   60.12    5.13
  -2  -6   4   80.52    6.83
  -2  -6   4   73.96    6.02
  -2  -6   4   67.51    9.31
  -2  -6   4   89.06    7.36
  -2  -6   5   98.38   11.52
  -2  -6   5  100.19    7.88
  -2  -6   5  115.22    7.55
  -2  -6   5  110.69    8.69
  -2  -6   5  105.93   14.60
  -2  -6   5  106.57    7.80
  -2  -6   5  101.36    7.62
  -2  -6   6 1002.92   46.21
  -2  -6   6  868.23   35.65
  -2  -6   6  964.79   36.07
  -2  -6   6  988.77   37.20
  -2  -6   6  850.23   48.26
  -2  -6   6  934.67   37.00
  -2  -6   6  851.60   35.23
  -2  -6   6  812.69   34.52
  -2  -6   7  314.90   21.81
  -2  -6   7  226.97   12.50
  -2  -6   7  278.97   14.31
  -2  -6   7  283.76   14.53
  -2  -6   7  217.81   19.96
  -2  -6   7  250.84   12.65
  -2  -6   7  227.57   11.66
  -2  -6   8   94.64    6.01
  -2  -6   8  109.42    7.93
  -2  -6   8   95.79    7.26
  -2  -6   8   89.79    7.06
  -2  -6   8   76.95   10.23
  -2  -6   8   89.40    6.10
  -2  -6   8   82.76    6.09
  -2  -6   9   17.34    2.80
  -2  -6   9   16.89    2.29
  -2  -6   9   17.19    2.69
  -2  -6   9   15.73    2.91
  -2  -6  10  155.93    9.01
  -2  -6  10  146.39    8.45
  -2  -6  10  144.44    7.66
  -2  -6  11  123.47    7.70
  -2  -6  11  125.72    6.51
  -2  -6  11  132.35    7.75
  -2  -6  11  116.74    7.41
  -2  -6  12    6.55    1.46
  -2  -6  12    7.28    1.11
  -2  -6  12    6.56    1.42
  -2  -6  13   91.91    5.33
  -2  -6  13   98.62    5.24
  -2  -6  13   92.71    5.33
  -2  -6  14    1.58    0.57
  -2  -6  14    1.29    0.41
  -2  -5  -8    8.00    1.60
  -2  -5  -8    7.62    1.48
  -2  -5  -8    8.33    1.50
  -2  -5  -7   50.56    4.49
  -2  -5  -7   50.47    4.74
  -2  -5  -6   53.60    5.44
  -2  -5  -6   52.05    5.09
  -2  -5  -5   38.42    4.81
  -2  -5  -5   40.08    4.72
  -2  -5  -4    8.76    2.36
  -2  -5  -4    5.43    2.01
  -2  -5  -4    6.52    1.52
  -2  -5  -3   52.48    8.47
  -2  -5  -3   58.45    6.42
  -2  -5  -3   55.94    4.71
  -2  -5  -2  378.04   24.19
  -2  -5  -2  335.34   18.30
  -2  -5  -2  347.45   16.18
  -2  -5  -2  366.66   15.94
  -2  -5  -2  338.28   23.44
  -2  -5  -2  365.87   15.84
  -2  -5  -1   80.35    9.73
  -2  -5  -1   92.65   10.51
  -2  -5  -1   85.64    7.53
  -2  -5  -1   75.65    5.93
  -2  -5  -1   82.63    6.91
  -2  -5  -1   86.08    6.17
  -2  -5  -1   95.86   11.57
  -2  -5  -1   92.44    6.21
  -2  -5   0   29.77    3.62
  -2  -5   0   32.51    3.63
  -2  -5   0   27.56    4.16
  -2  -5   0   32.86    6.05
  -2  -5   0   37.65    6.48
  -2  -5   0   29.89    3.14
  -2  -5   0   33.46    3.07
  -2  -5   0   33.91    7.15
  -2  -5   0   33.51    4.64
  -2  -5   0   31.88    3.60
  -2  -5   1    7.76    1.90
  -2  -5   1    3.26    1.91
  -2  -5   1    8.53    2.91
  -2  -5   1    7.52    2.28
  -2  -5   1    6.07    1.45
  -2  -5   1    5.85    1.42
  -2  -5   1    6.77    1.79
  -2  -5   1    7.40    3.54
  -2  -5   2  294.64   19.10
  -2  -5   2  282.10   14.09
  -2  -5   2  292.70   14.78
  -2  -5   2  292.51   18.91
  -2  -5   2  260.50   12.89
  -2  -5   2  263.37   13.20
  -2  -5   2  275.15   23.71
  -2  -5   2  301.53   14.61
  -2  -5   3  337.18   15.65
  -2  -5   3  322.81   15.81
  -2  -5   3  361.41   20.85
  -2  -5   3  335.30   14.98
  -2  -5   3  362.63   21.15
  -2  -5   4    8.59    2.33
  -2  -5   4    8.98    2.11
  -2  -5   4    5.00    2.10
  -2  -5   4    3.10    1.25
  -2  -5   4    6.34    1.49
  -2  -5   4    8.41    2.05
  -2  -5   4   12.39    5.16
  -2  -5   4    6.38    2.04
  -2  -5   5  284.36   19.04
  -2  -5   5  297.97   15.11
  -2  -5   5  286.69   13.75
  -2  -5   5  278.11   14.09
  -2  -5   5  303.50   25.00
  -2  -5   5  264.47   14.27
  -2  -5   5  306.71   15.82
  -2  -5   5  262.93   14.02
  -2  -5   6   83.94    9.28
  -2  -5   6   66.77    5.81
  -2  -5   6   80.30    6.19
  -2  -5   6   76.47    6.41
  -2  -5   6   74.91   11.23
  -2  -5   6   75.90    5.91
  -2  -5   6   61.99    5.15
  -2  -5   7   95.72    7.72
  -2  -5   7  112.23    8.00
  -2  -5   7   97.60    7.74
  -2  -5   7  100.58    6.74
  -2  -5   7  105.13   12.32
  -2  -5   7   94.50    6.79
  -2  -5   8   10.28    2.28
  -2  -5   8   12.01    1.97
  -2  -5   8    9.72    3.34
  -2  -5   8   10.57    2.32
  -2  -5   8   10.75    1.90
  -2  -5   9   18.92    3.03
  -2  -5   9   22.39    3.01
  -2  -5  10  257.72   13.14
  -2  -5  10  254.82   11.68
  -2  -5  10  267.73   13.55
  -2  -5  10  247.21   12.07
  -2  -5  11    0.37    0.49
  -2  -5  11    0.48    0.80
  -2  -5  11    1.16    0.75
  -2  -5  11    1.66    1.05
  -2  -5  12   43.69    3.12
  -2  -5  12   45.17    3.99
  -2  -5  12   41.18    3.75
  -2  -5  13    2.98    0.85
  -2  -5  13    3.43    1.06
  -2  -5  13    3.07    0.64
  -2  -5  13    2.55    0.85
  -2  -5  14   80.56    3.99
  -2  -4  -8   62.10    4.81
  -2  -4  -7   82.73    6.34
  -2  -4  -7   82.59    6.84
  -2  -4  -6  157.04   10.34
  -2  -4  -6  142.03    9.48
  -2  -4  -5    0.33    1.22
  -2  -4  -5   -0.19    0.76
  -2  -4  -5    0.88    1.04
  -2  -4  -5    1.86    1.39
  -2  -4  -4  180.22    9.31
  -2  -4  -4  181.89   16.07
  -2  -4  -4  172.35   11.76
  -2  -4  -4  181.44   11.33
  -2  -4  -4  182.40    9.51
  -2  -4  -3   40.33    3.49
  -2  -4  -3   38.81    3.74
  -2  -4  -3   34.03    4.91
  -2  -4  -3   37.39    4.50
  -2  -4  -3   31.00    6.07
  -2  -4  -3   42.05    3.61
  -2  -4  -3   46.53    6.80
  -2  -4  -3   36.60    3.36
  -2  -4  -2  195.21    9.85
  -2  -4  -2  191.45   12.43
  -2  -4  -2  197.64   10.13
  -2  -4  -2  216.63   16.33
  -2  -4  -2  181.32   10.34
  -2  -4  -2  196.43    9.52
  -2  -4  -2  188.76    9.64
  -2  -4  -2  194.48   15.98
  -2  -4  -1  117.66    7.16
  -2  -4  -1  125.08    7.27
  -2  -4  -1  119.36   11.29
  -2  -4  -1  120.97   11.08
  -2  -4  -1   98.37   11.35
  -2  -4  -1  112.33    6.94
  -2  -4  -1  116.58    6.52
  -2  -4   0  354.12   15.50
  -2  -4   0  297.97   15.09
  -2  -4   0  351.65   15.60
  -2  -4   0  352.08   14.73
  -2  -4   0  332.97   14.40
  -2  -4   0  316.40   22.74
  -2  -4   0  349.23   15.39
  -2  -4   0  373.72   18.16
  -2  -4   0  345.69   20.35
  -2  -4   0  349.64   20.63
  -2  -4   1  430.68   18.45
  -2  -4   1  424.49   22.79
  -2  -4   1  426.60   22.81
  -2  -4   1  401.17   17.12
  -2  -4   1  397.17   17.13
  -2  -4   1  407.38   27.12
  -2  -4   1  428.45   18.25
  -2  -4   2   36.85    5.31
  -2  -4   2   29.62    3.39
  -2  -4   2   30.97    3.71
  -2  -4   2   29.99    3.63
  -2  -4   2   29.10    4.81
  -2  -4   2   32.00    3.17
  -2  -4   2   33.54    3.35
  -2  -4   2   30.82    3.74
  -2  -4   2   31.44    7.15
  -2  -4   2   32.25    3.64
  -2  -4   3   29.47    3.26
  -2  -4   3   40.00    4.04
  -2  -4   3   42.52    5.53
  -2  -4   3   41.31    3.97
  -2  -4   3   37.52    3.91
  -2  -4   3   44.05    5.78
  -2  -4   4    1.63    1.22
  -2  -4   4    2.64    1.21
  -2  -4   4    1.94    1.15
  -2  -4   4    2.78    1.13
  -2  -4   4    3.99    1.32
  -2  -4   4    2.10    0.91
  -2  -4   4    3.44    1.29
  -2  -4   4   -1.25    2.09
  -2  -4   4    3.69    1.50
  -2  -4   5  384.77   20.95
  -2  -4   5  355.14   16.85
  -2  -4   5  321.41   15.73
  -2  -4   5  385.31   16.63
  -2  -4   5  391.77   17.09
  -2  -4   5  400.44   18.44
  -2  -4   5  359.11   27.52
  -2  -4   5  405.24   17.97
  -2  -4   5  393.26   18.11
  -2  -4   6  177.34   13.00
  -2  -4   6  184.98   10.58
  -2  -4   6  206.71   12.07
  -2  -4   6  187.14   10.27
  -2  -4   6  174.23   17.29
  -2  -4   6  170.23   10.19
  -2  -4   7   11.24    2.00
  -2  -4   7   10.77    2.39
  -2  -4   7   12.37    2.61
  -2  -4   7   11.49    1.97
  -2  -4   7    8.67    3.26
  -2  -4   7    8.47    1.80
  -2  -4   8   15.29    2.95
  -2  -4   8   15.85    2.64
  -2  -4   8   14.19    2.18
  -2  -4   8   14.50    2.70
  -2  -4   9   52.35    5.31
  -2  -4   9   48.25    4.39
  -2  -4   9   42.92    4.68
  -2  -4   9   46.83    3.99
  -2  -4  10  135.73    8.82
  -2  -4  10  133.60    8.62
  -2  -4  10  140.69    7.62
  -2  -4  10  131.01    8.08
  -2  -4  11   23.39    3.26
  -2  -4  11   27.04    2.76
  -2  -4  11   29.54    3.41
  -2  -4  12    2.65    1.02
  -2  -4  12    1.74    0.76
  -2  -4  12    1.12    0.66
  -2  -4  13    0.79    0.60
  -2  -4  13    1.64    0.78
  -2  -4  13    0.97    0.49
  -2  -4  14    5.61    1.01
  -2  -3 -10   61.38    4.37
  -2  -3  -9   69.22    5.41
  -2  -3  -8   52.66    4.66
  -2  -3  -8   47.99    4.34
  -2  -3  -8   50.97    5.01
  -2  -3  -8   48.94    4.11
  -2  -3  -7  201.55   11.04
  -2  -3  -7  221.42   19.07
  -2  -3  -6    4.22    1.52
  -2  -3  -6    4.40    1.40
  -2  -3  -6    2.83    1.10
  -2  -3  -6    4.44    1.77
  -2  -3  -5  384.23   18.25
  -2  -3  -5  405.38   25.87
  -2  -3  -5  412.37   19.20
  -2  -3  -5  399.08   19.92
  -2  -3  -5  418.27   17.37
  -2  -3  -4   39.94    6.85
  -2  -3  -4   43.59    3.70
  -2  -3  -4   38.28    4.81
  -2  -3  -4   39.76    4.47
  -2  -3  -4   34.57    3.43
  -2  -3  -3  954.20   40.58
  -2  -3  -3 1006.59   37.29
  -2  -3  -3 1032.29   39.48
  -2  -3  -3 1003.84   36.74
  -2  -3  -3 1060.97   46.18
  -2  -3  -3 1002.05   36.82
  -2  -3  -3  969.43   36.63
  -2  -3  -3 1023.28   45.22
  -2  -3  -2  301.01   13.45
  -2  -3  -2  288.75   13.09
  -2  -3  -2  321.56   19.30
  -2  -3  -2  297.57   12.84
  -2  -3  -2  301.54   13.15
  -2  -3  -2  281.54   19.29
  -2  -3  -1   42.21    5.87
  -2  -3  -1   39.98    3.55
  -2  -3  -1   43.58    6.73
  -2  -3  -1   36.77    3.37
  -2  -3  -1   45.05    3.77
  -2  -3  -1   41.12    4.43
  -2  -3  -1   36.34    4.18
  -2  -3   0  498.24   21.72
  -2  -3   0  461.86   19.32
  -2  -3   0  482.44   19.57
  -2  -3   0  495.33   24.20
  -2  -3   0  515.95   24.32
  -2  -3   0  506.47   19.00
  -2  -3   0  523.52   28.26
  -2  -3   0  467.54   19.33
  -2  -3   1  132.93    8.94
  -2  -3   1  125.90    7.17
  -2  -3   1  132.71    7.54
  -2  -3   1  126.73    9.68
  -2  -3   1  120.87    9.61
  -2  -3   1  119.97    6.65
  -2  -3   1  117.72    6.68
  -2  -3   1  113.44    8.13
  -2  -3   1  128.60   12.77
  -2  -3   1  123.72    7.22
  -2  -3   2 1267.68   51.19
  -2  -3   2 1405.95   50.68
  -2  -3   2 1392.39   51.16
  -2  -3   2 1551.54   54.61
  -2  -3   2 1352.98   50.17
  -2  -3   2 1505.61   63.54
  -2  -3   2 1493.75   54.75
  -2  -3   3  271.33   15.16
  -2  -3   3  280.07   13.09
  -2  -3   3  279.65   13.66
  -2  -3   3  280.17   14.83
  -2  -3   3  265.22   12.23
  -2  -3   3  280.15   12.20
  -2  -3   3  265.96   12.80
  -2  -3   3  282.02   21.81
  -2  -3   3  292.49   13.65
  -2  -3   3  261.70   13.10
  -2  -3   4  908.52   38.45
  -2  -3   4  998.70   37.77
  -2  -3   4  889.31   35.33
  -2  -3   4  967.52   36.65
  -2  -3   4 1040.97   51.32
  -2  -3   4 1019.92   37.57
  -2  -3   4  937.00   36.30
  -2  -3   5  197.79   12.04
  -2  -3   5  195.97   11.13
  -2  -3   5  171.48    9.58
  -2  -3   5  186.53    9.92
  -2  -3   5  209.62   11.21
  -2  -3   5  209.73   11.34
  -2  -3   5  190.83   18.73
  -2  -3   5  194.72   10.03
  -2  -3   6  435.31   18.38
  -2  -3   6  448.55   19.25
  -2  -3   6  456.54   19.28
  -2  -3   6  413.61   18.91
  -2  -3   6  401.60   27.88
  -2  -3   6  418.75   19.12
  -2  -3   7  364.22   15.14
  -2  -3   7  373.55   16.57
  -2  -3   7  360.68   16.52
  -2  -3   7  309.80   14.67
  -2  -3   7  386.70   17.87
  -2  -3   7  312.69   22.04
  -2  -3   7  298.69   14.68
  -2  -3   8   99.47    7.56
  -2  -3   8   91.42    7.32
  -2  -3   8   94.49    6.70
  -2  -3   8   81.02    6.95
  -2  -3   8   96.35    6.13
  -2  -3   9  401.81   18.73
  -2  -3   9  372.02   17.96
  -2  -3   9  377.88   16.36
  -2  -3   9  362.38   17.22
  -2  -3  10   29.37    3.69
  -2  -3  10   25.29    2.87
  -2  -3  10   25.99    2.98
  -2  -3  11  120.98    7.65
  -2  -3  11  122.86    6.88
  -2  -3  11  125.98    7.78
  -2  -3  12    1.51    0.86
  -2  -3  12    0.45    0.92
  -2  -3  12    1.45    0.79
  -2  -3  13   55.51    3.42
  -2  -3  13   60.53    4.30
  -2  -3  13   50.04    3.17
  -2  -3  13   55.58    3.82
  -2  -3  14  117.85    5.54
  -2  -3  14  125.59    5.90
  -2  -2 -11   27.08    2.45
  -2  -2 -10   13.61    1.94
  -2  -2 -10   14.87    2.22
  -2  -2  -9   11.10    2.07
  -2  -2  -9    7.36    1.52
  -2  -2  -9    6.42    1.40
  -2  -2  -9    7.39    1.93
  -2  -2  -8   14.80    2.31
  -2  -2  -8   12.26    2.33
  -2  -2  -8   15.22    2.54
  -2  -2  -8    8.82    1.75
  -2  -2  -8   12.93    2.62
  -2  -2  -7   64.30    5.76
  -2  -2  -7   64.57    5.67
  -2  -2  -7   60.42    5.07
  -2  -2  -7   61.13    5.86
  -2  -2  -7   76.63   10.90
  -2  -2  -6  440.15   21.37
  -2  -2  -6  451.97   21.01
  -2  -2  -6  500.77   19.97
  -2  -2  -6  484.43   21.63
  -2  -2  -5   58.56    5.72
  -2  -2  -5   61.27    5.50
  -2  -2  -5   60.02    5.59
  -2  -2  -5   62.60    4.65
  -2  -2  -5   56.64    8.30
  -2  -2  -4   34.19    5.26
  -2  -2  -4   31.20    4.16
  -2  -2  -4   28.86    3.62
  -2  -2  -4   33.54    3.19
  -2  -2  -4   30.42    3.40
  -2  -2  -4   45.24    4.20
  -2  -2  -4   32.87    3.14
  -2  -2  -4   36.01    6.11
  -2  -2  -3  111.51    6.38
  -2  -2  -3  120.47    6.81
  -2  -2  -3  123.75    8.02
  -2  -2  -3  105.03   10.34
  -2  -2  -3  121.43    7.12
  -2  -2  -3  118.47    6.49
  -2  -2  -3  126.80    6.60
  -2  -2  -3  102.49   10.12
  -2  -2  -3  143.88    9.55
  -2  -2  -2  169.52   12.45
  -2  -2  -2  155.52    8.10
  -2  -2  -2  154.49   10.41
  -2  -2  -2  170.88    8.46
  -2  -2  -2  161.03    8.13
  -2  -2  -2  149.76   12.67
  -2  -2  -1  843.00   34.58
  -2  -2  -1  782.59   29.05
  -2  -2  -1  725.28   30.58
  -2  -2  -1  768.91   30.95
  -2  -2  -1  775.86   29.08
  -2  -2  -1  782.02   28.96
  -2  -2  -1  751.43   28.20
  -2  -2  -1  772.29   36.77
  -2  -2   0   49.97    5.47
  -2  -2   0   51.59    3.93
  -2  -2   0   51.21    4.98
  -2  -2   0   47.91    3.76
  -2  -2   0   43.54    6.59
  -2  -2   1  862.18   34.71
  -2  -2   1  852.03   34.82
  -2  -2   1  850.17   32.09
  -2  -2   1  842.88   31.93
  -2  -2   1  838.09   40.53
  -2  -2   1  823.56   31.73
  -2  -2   1  928.52   34.87
  -2  -2   2   64.75    5.62
  -2  -2   2   63.22    5.43
  -2  -2   2   71.15    4.42
  -2  -2   2   66.03    4.53
  -2  -2   2   62.88    5.31
  -2  -2   2   64.01    4.62
  -2  -2   3 1011.24   37.65
  -2  -2   3  994.48   36.42
  -2  -2   3 1019.38   37.22
  -2  -2   3  927.59   35.35
  -2  -2   3  959.65   35.58
  -2  -2   3 1018.86   37.05
  -2  -2   3  924.72   36.15
  -2  -2   3 1045.53   48.31
  -2  -2   4    6.96    1.55
  -2  -2   4    7.34    1.72
  -2  -2   4    9.68    1.60
  -2  -2   4    7.10    1.39
  -2  -2   4    7.91    1.90
  -2  -2   4    9.57    3.93
  -2  -2   4    9.18    1.94
  -2  -2   5   22.57    2.61
  -2  -2   5   23.30    2.68
  -2  -2   5   21.86    3.02
  -2  -2   5   29.78    3.59
  -2  -2   6  887.52   37.27
  -2  -2   6  934.31   36.25
  -2  -2   6  996.88   35.89
  -2  -2   6  993.71   36.37
  -2  -2   6 1049.50   36.40
  -2  -2   6  895.85   35.83
  -2  -2   6  917.73   46.00
  -2  -2   6  930.05   36.12
  -2  -2   7   -0.34    1.14
  -2  -2   7    1.89    1.02
  -2  -2   7    2.18    1.25
  -2  -2   7    2.62    1.42
  -2  -2   7    0.98    0.92
  -2  -2   8  219.36   11.82
  -2  -2   8  211.16   10.48
  -2  -2   8  229.47   12.10
  -2  -2   9    5.06    1.37
  -2  -2   9    5.98    1.80
  -2  -2   9    5.16    1.46
  -2  -2  10  326.10   16.15
  -2  -2  10  348.54   15.99
  -2  -2  10  332.48   15.85
  -2  -2  10  291.78   16.38
  -2  -2  10  335.77   14.71
  -2  -2  11  155.84    8.67
  -2  -2  11  163.23    9.55
  -2  -2  11  173.04    9.20
  -2  -2  11  160.56    9.98
  -2  -2  11  157.45    8.33
  -2  -2  12   64.23    4.28
  -2  -2  12   55.34    4.80
  -2  -2  12   57.14    3.96
  -2  -2  12   53.32    4.37
  -2  -2  13   74.26    4.86
  -2  -2  14    5.52    0.87
  -2  -2  14    5.67    0.94
  -2  -1 -11   68.23    4.46
  -2  -1 -11   59.68    4.33
  -2  -1 -10   80.31    5.82
  -2  -1 -10   91.46    6.23
  -2  -1  -9    2.83    1.26
  -2  -1  -9    3.41    1.05
  -2  -1  -9    1.87    1.01
  -2  -1  -8   89.09    6.39
  -2  -1  -8   94.52    6.28
  -2  -1  -8   92.02    7.28
  -2  -1  -8  112.91    7.08
  -2  -1  -8  117.86   13.39
  -2  -1  -8   87.14    6.66
  -2  -1  -8   95.69    7.26
  -2  -1  -7   35.80    4.36
  -2  -1  -7   31.69    3.45
  -2  -1  -7   35.59    4.11
  -2  -1  -7   37.82    4.46
  -2  -1  -7   44.99    4.10
  -2  -1  -7   36.90    7.48
  -2  -1  -6   36.41    4.38
  -2  -1  -6   41.64    3.86
  -2  -1  -6   37.17    4.17
  -2  -1  -6   36.98    3.77
  -2  -1  -6   39.69    4.63
  -2  -1  -6   45.51    4.01
  -2  -1  -6   45.48    8.12
  -2  -1  -5   95.36    6.92
  -2  -1  -5   94.53    6.49
  -2  -1  -5   89.02    7.31
  -2  -1  -5  101.97    6.16
  -2  -1  -5  101.63   11.47
  -2  -1  -4   67.74    7.68
  -2  -1  -4   64.67    5.46
  -2  -1  -4   64.14    5.85
  -2  -1  -4   78.87    5.29
  -2  -1  -4   61.78    5.39
  -2  -1  -4   69.91    4.65
  -2  -1  -4   63.71    8.04
  -2  -1  -3  375.52   17.05
  -2  -1  -3  378.06   18.22
  -2  -1  -3  386.38   15.71
  -2  -1  -3  360.32   20.81
  -2  -1  -3  354.66   16.01
  -2  -1  -3  371.04   15.26
  -2  -1  -3  388.89   15.41
  -2  -1  -3  368.46   21.25
  -2  -1  -2   11.52    2.79
  -2  -1  -2    9.74    1.54
  -2  -1  -2    8.28    1.48
  -2  -1  -2    8.09    2.15
  -2  -1  -2   13.37    3.38
  -2  -1  -2    8.92    1.47
  -2  -1  -1  105.86    8.61
  -2  -1  -1  117.82    6.44
  -2  -1  -1  126.92    7.98
  -2  -1  -1  115.13    6.42
  -2  -1  -1  117.00    7.50
  -2  -1  -1  113.99    6.01
  -2  -1  -1  120.87    6.42
  -2  -1  -1  118.77   10.67
  -2  -1   0   52.01    5.19
  -2  -1   0   56.87    6.01
  -2  -1   0   41.93    3.51
  -2  -1   0   48.24    3.63
  -2  -1   0   47.50    5.02
  -2  -1   0   48.12    3.45
  -2  -1   0   45.74    6.56
  -2  -1   0   45.47    3.55
  -2  -1   0   60.25    5.32
  -2  -1   1 1055.61   38.07
  -2  -1   1 1047.95   38.26
  -2  -1   1 1046.39   39.85
  -2  -1   1 1075.68   38.23
  -2  -1   1 1042.02   37.78
  -2  -1   1 1007.44   46.37
  -2  -1   1 1027.09   40.19
  -2  -1   1  975.68   42.72
  -2  -1   2   44.28    3.50
  -2  -1   2   37.05    3.41
  -2  -1   2   40.18    3.06
  -2  -1   2   39.19    3.47
  -2  -1   3  782.50   32.07
  -2  -1   3  825.06   30.34
  -2  -1   3  849.05   31.71
  -2  -1   3  838.04   41.61
  -2  -1   3  842.44   31.74
  -2  -1   4   58.17    3.92
  -2  -1   4   52.33    3.77
  -2  -1   4   45.73    4.29
  -2  -1   4   59.36    8.95
  -2  -1   4   57.95    4.74
  -2  -1   5   18.92    2.21
  -2  -1   5   18.83    2.26
  -2  -1   5   18.18    5.08
  -2  -1   5   18.57    2.66
  -2  -1   5   18.55    2.65
  -2  -1   5   16.86    2.58
  -2  -1   6  158.75    9.06
  -2  -1   6  205.56   11.10
  -2  -1   6  175.79   15.08
  -2  -1   6  194.31   10.08
  -2  -1   6  188.02    9.66
  -2  -1   6  194.80    9.62
  -2  -1   6  217.04   10.70
  -2  -1   7  192.92   11.01
  -2  -1   7  166.81    9.13
  -2  -1   7  169.19    9.36
  -2  -1   8   19.92    2.57
  -2  -1   8   15.68    3.03
  -2  -1   8   19.82    2.82
  -2  -1   9   57.07    4.73
  -2  -1   9   58.26    5.58
  -2  -1   9   50.72    5.85
  -2  -1   9   71.51    5.79
  -2  -1  10    2.76    1.30
  -2  -1  10    1.57    1.02
  -2  -1  10    4.07    1.50
  -2  -1  11    4.30    1.67
  -2  -1  11    6.31    1.53
  -2  -1  11    3.59    1.43
  -2  -1  11    7.55    1.57
  -2  -1  11    6.65    1.66
  -2  -1  12   18.86    2.00
  -2  -1  12   20.40    2.20
  -2  -1  12   21.13    2.70
  -2  -1  13    7.23    1.24
  -2  -1  14   10.89    1.11
  -2   0 -12   41.64    2.99
  -2   0 -12   44.23    3.21
  -2   0 -11  195.55    9.85
  -2   0 -11  212.14   10.29
  -2   0 -10    0.16    0.57
  -2   0 -10    0.23    0.85
  -2   0 -10    0.85    0.60
  -2   0 -10    0.48    0.74
  -2   0  -9  148.97    9.22
  -2   0  -9  131.90    7.88
  -2   0  -9  163.94    8.84
  -2   0  -9  147.66   14.78
  -2   0  -9  146.79    9.19
  -2   0  -8   26.26    3.58
  -2   0  -8   24.35    2.96
  -2   0  -8   33.23    3.71
  -2   0  -8   30.20    3.57
  -2   0  -8   32.08    3.94
  -2   0  -8   32.04    6.67
  -2   0  -7  845.91   32.61
  -2   0  -7  845.95   33.28
  -2   0  -7  806.06   43.12
  -2   0  -7  772.26   30.76
  -2   0  -7  785.12   32.61
  -2   0  -6  190.61   11.22
  -2   0  -6  192.23    9.81
  -2   0  -6  218.82   10.59
  -2   0  -6  211.09   12.03
  -2   0  -6  206.47   11.21
  -2   0  -6  187.38   10.55
  -2   0  -6  223.47   18.46
  -2   0  -5   29.79    3.73
  -2   0  -5   32.89    3.42
  -2   0  -5   32.90    4.26
  -2   0  -5   29.94    3.53
  -2   0  -5   32.15    4.95
  -2   0  -5   31.39    3.58
  -2   0  -5   45.80    7.45
  -2   0  -4  181.26   10.18
  -2   0  -4  165.75   12.90
  -2   0  -4  172.76    8.28
  -2   0  -4  170.12    9.84
  -2   0  -4  169.37   14.58
  -2   0  -4  177.21    9.89
  -2   0  -3  675.67   33.81
  -2   0  -3  681.42   26.96
  -2   0  -3  738.27   28.49
  -2   0  -3  657.65   25.04
  -2   0  -3  656.65   26.10
  -2   0  -3  654.92   31.47
  -2   0  -3  638.21   24.99
  -2   0  -3  683.55   27.59
  -2   0  -3  627.94   31.66
  -2   0  -2 2327.03   85.42
  -2   0  -2 2320.07   79.64
  -2   0  -2 2228.55   76.51
  -2   0  -2 2200.92   83.02
  -2   0  -2 2184.59   76.44
  -2   0  -2 2251.97   84.93
  -2   0  -2 2111.64   75.86
  -2   0  -1  338.53   19.04
  -2   0  -1  339.01   14.37
  -2   0  -1  374.39   16.78
  -2   0  -1  339.56   15.48
  -2   0  -1  340.14   18.82
  -2   0  -1  335.28   14.35
  -2   0  -1  346.42   20.51
  -2   0  -1  347.25   14.07
  -2   0   0  303.52   13.23
  -2   0   0  357.56   16.52
  -2   0   0  308.64   17.11
  -2   0   0  299.05   12.89
  -2   0   0  309.73   13.25
  -2   0   0  336.80   16.13
  -2   0   0  327.23   19.64
  -2   0   1  383.70   15.55
  -2   0   2  347.48   16.34
  -2   0   2  333.90   18.18
  -2   0   2  365.00   22.20
  -2   0   2  353.35   15.02
  -2   0   2  347.44   14.61
  -2   0   2  362.99   15.11
  -2   0   3  776.93   34.79
  -2   0   3  829.47   40.76
  -2   0   3  826.84   31.34
  -2   0   3  800.57   30.81
  -2   0   3  861.97   33.09
  -2   0   3  836.21   31.39
  -2   0   4  369.86   19.92
  -2   0   4  394.74   17.28
  -2   0   4  419.70   17.13
  -2   0   4  369.82   25.44
  -2   0   4  383.93   18.12
  -2   0   4  412.97   17.54
  -2   0   5  908.69   33.61
  -2   0   5  904.31   32.71
  -2   0   5  857.50   43.90
  -2   0   5  927.16   34.41
  -2   0   5  816.42   33.59
  -2   0   5  918.32   35.40
  -2   0   6   15.19    2.48
  -2   0   6   13.31    1.85
  -2   0   6   13.56    2.28
  -2   0   6    7.86    2.72
  -2   0   6   13.29    2.58
  -2   0   7  390.68   18.22
  -2   0   7  373.69   17.59
  -2   0   7  371.24   17.10
  -2   0   7  367.12   16.79
  -2   0   7  390.33   16.37
  -2   0   7  378.87   17.75
  -2   0   7  418.24   18.86
  -2   0   8    8.91    2.52
  -2   0   8    9.31    1.87
  -2   0   8   12.05    2.18
  -2   0   9   72.72    5.40
  -2   0   9   72.66    6.11
  -2   0   9   75.69    5.36
  -2   0  10  222.38   11.08
  -2   0  10  205.04   12.47
  -2   0  10  208.38   10.44
  -2   0  10  216.36   10.15
  -2   0  10  216.18   11.69
  -2   0  11    6.75    1.41
  -2   0  11    5.89    1.72
  -2   0  11    6.40    1.40
  -2   0  12   29.23    2.95
  -2   0  13   12.18    1.46
  -2   1 -12   27.58    2.42
  -2   1 -12   21.22    2.46
  -2   1 -11    2.36    0.87
  -2   1 -11    3.63    1.12
  -2   1 -11    2.91    1.16
  -2   1 -10  308.33   13.50
  -2   1 -10  299.94   14.10
  -2   1 -10  270.79   12.94
  -2   1 -10  295.81   14.46
  -2   1  -9    2.25    1.20
  -2   1  -9    2.94    1.07
  -2   1  -9    2.33    1.11
  -2   1  -9    2.77    1.89
  -2   1  -8   10.30    2.35
  -2   1  -8   13.34    2.10
  -2   1  -8   13.27    2.48
  -2   1  -7   97.32    7.29
  -2   1  -7   83.45   10.76
  -2   1  -7   92.28    6.78
  -2   1  -7   84.67    5.66
  -2   1  -6  144.17    8.92
  -2   1  -6  134.67    7.54
  -2   1  -6  161.59    8.35
  -2   1  -6  146.88    9.59
  -2   1  -6  150.06    8.99
  -2   1  -6  132.11    8.01
  -2   1  -6  140.80   13.77
  -2   1  -5  354.68   15.99
  -2   1  -5  319.78   16.37
  -2   1  -5  353.63   16.61
  -2   1  -5  395.76   18.42
  -2   1  -5  409.92   16.29
  -2   1  -5  329.70   19.52
  -2   1  -5  332.34   22.23
  -2   1  -4  109.76   10.40
  -2   1  -4  114.04    6.26
  -2   1  -4  107.80    7.12
  -2   1  -4  137.59   11.18
  -2   1  -4  118.74   11.33
  -2   1  -4  112.59    7.46
  -2   1  -4  121.29    7.91
  -2   1  -3 1735.48   62.48
  -2   1  -3 1775.04   64.35
  -2   1  -3 1775.22   71.05
  -2   1  -3 1810.26   64.53
  -2   1  -3 1826.33   63.81
  -2   1  -3 1853.57   69.91
  -2   1  -3 1672.61   70.67
  -2   1  -2  550.60   22.61
  -2   1  -2  567.25   22.85
  -2   1  -2  485.72   26.96
  -2   1  -2  506.41   20.40
  -2   1  -2  508.02   20.61
  -2   1  -2  549.94   26.08
  -2   1  -2  531.28   27.52
  -2   1  -1  349.61   18.19
  -2   1  -1  398.61   20.86
  -2   1  -1  415.08   17.33
  -2   1  -1  407.10   16.27
  -2   1  -1  386.93   22.71
  -2   1  -1  405.17   15.95
  -2   1   0   70.54    6.94
  -2   1   0   66.93    4.53
  -2   1   0   56.79    7.72
  -2   1   0   69.86    4.44
  -2   1   1  920.86   35.19
  -2   1   1  840.35   32.13
  -2   1   1  862.21   31.88
  -2   1   1  874.66   34.78
  -2   1   2 1328.10   53.53
  -2   1   2 1352.48   49.17
  -2   1   2 1343.88   58.76
  -2   1   2 1414.52   51.49
  -2   1   3   12.78    2.80
  -2   1   3   16.38    2.28
  -2   1   3   15.63    4.37
  -2   1   3   13.55    1.98
  -2   1   3   16.51    2.71
  -2   1   4  481.36   23.34
  -2   1   4  484.56   30.18
  -2   1   4  480.48   19.90
  -2   1   4  494.45   20.69
  -2   1   4  485.37   21.49
  -2   1   5   22.90    3.00
  -2   1   5   16.17    3.04
  -2   1   5   23.91    2.83
  -2   1   5   26.00    2.80
  -2   1   5   19.36    2.87
  -2   1   5   23.14    2.85
  -2   1   5   24.75    3.42
  -2   1   5   19.26    3.01
  -2   1   6  841.40   34.44
  -2   1   6  920.88   33.49
  -2   1   6  878.62   33.04
  -2   1   6  829.52   31.93
  -2   1   6  832.85   32.67
  -2   1   6  774.01   32.86
  -2   1   6  958.67   35.75
  -2   1   6  809.56   33.94
  -2   1   7  614.94   27.23
  -2   1   7  690.13   28.51
  -2   1   7  620.44   27.20
  -2   1   7  685.32   27.30
  -2   1   7  661.27   26.97
  -2   1   7  627.31   25.94
  -2   1   7  656.84   26.80
  -2   1   8   68.17    6.19
  -2   1   8   85.71    7.04
  -2   1   8   76.44    6.20
  -2   1   8   88.44    6.91
  -2   1   8   74.59    6.45
  -2   1   8   73.46    5.73
  -2   1   8   78.95    6.50
  -2   1   9  135.38    9.24
  -2   1   9  146.40    8.86
  -2   1   9  117.75    9.13
  -2   1   9  134.66    8.15
  -2   1   9  145.39    8.58
  -2   1   9  137.62    9.24
  -2   1  10   60.30    4.70
  -2   1  10   47.54    5.07
  -2   1  10   62.13    6.02
  -2   1  10   65.70    4.87
  -2   1  10   61.02    4.79
  -2   1  11  166.50    9.44
  -2   1  12    1.02    0.58
  -2   1  12    0.66    0.59
  -2   2 -13    0.76    0.48
  -2   2 -12   28.28    2.22
  -2   2 -12   23.46    2.35
  -2   2 -11    4.82    1.20
  -2   2 -11    6.36    1.33
  -2   2 -11    3.68    1.16
  -2   2 -10    0.26    0.75
  -2   2 -10    1.13    0.89
  -2   2 -10   -0.18    0.58
  -2   2  -9    5.05    1.56
  -2   2  -9    5.30    1.43
  -2   2  -9    5.42    2.62
  -2   2  -9    3.99    1.36
  -2   2  -9    2.75    1.12
  -2   2  -8   14.86    2.67
  -2   2  -8   15.69    2.59
  -2   2  -8   12.63    2.00
  -2   2  -8   12.56    2.32
  -2   2  -8   15.00    4.57
  -2   2  -7  363.90   17.21
  -2   2  -7  357.35   17.12
  -2   2  -7  361.45   15.14
  -2   2  -7  322.81   14.92
  -2   2  -7  350.62   16.35
  -2   2  -7  326.21   23.00
  -2   2  -6   85.95    6.37
  -2   2  -6   84.77    6.98
  -2   2  -6   90.74    5.78
  -2   2  -6   82.09    6.24
  -2   2  -6   81.14    5.37
  -2   2  -6   73.28    9.62
  -2   2  -5   17.62    2.76
  -2   2  -5   27.87    3.07
  -2   2  -5   19.95    2.55
  -2   2  -5   24.63    3.64
  -2   2  -5   22.90    2.86
  -2   2  -5   27.08    4.58
  -2   2  -5   25.97    5.17
  -2   2  -4  114.06    7.72
  -2   2  -4  103.63    6.36
  -2   2  -4  117.29    7.72
  -2   2  -4  120.29   10.76
  -2   2  -4   94.36   10.20
  -2   2  -3  293.57   13.08
  -2   2  -3  291.17   19.43
  -2   2  -3  294.31   12.86
  -2   2  -3  324.38   14.25
  -2   2  -3  310.39   18.53
  -2   2  -3  303.97   20.25
  -2   2  -2  106.28    5.74
  -2   2  -2  103.59    6.23
  -2   2  -2  100.02    6.00
  -2   2  -2  102.39   10.35
  -2   2  -2  112.96    9.75
  -2   2  -2  103.84    7.04
  -2   2  -1  269.93   13.45
  -2   2  -1  251.45   11.21
  -2   2  -1  272.62   16.01
  -2   2  -1  239.14   11.27
  -2   2  -1  253.81   17.65
  -2   2  -1  238.60   12.56
  -2   2   0  135.86   10.61
  -2   2   0  147.71    9.39
  -2   2   1    9.97    1.76
  -2   2   1    9.85    3.44
  -2   2   2  313.09   17.18
  -2   2   2  293.50   12.09
  -2   2   2  300.58   13.67
  -2   2   2  312.78   21.48
  -2   2   3  281.94   16.43
  -2   2   3  293.15   14.92
  -2   2   4    1.24    0.98
  -2   2   4    1.42    0.84
  -2   2   4    1.68    0.95
  -2   2   4    2.86    1.04
  -2   2   4    1.80    1.13
  -2   2   4    0.96    0.90
  -2   2   5  328.96   16.87
  -2   2   5  370.61   16.05
  -2   2   5  392.70   16.17
  -2   2   5  361.80   15.15
  -2   2   5  372.54   16.27
  -2   2   5  327.41   18.25
  -2   2   5  365.42   17.71
  -2   2   6  135.45   10.07
  -2   2   6  170.76    9.49
  -2   2   6  174.55    9.49
  -2   2   6  167.96    8.81
  -2   2   6  165.27    9.72
  -2   2   6  158.47   10.33
  -2   2   6  182.35   11.44
  -2   2   7   25.63    3.39
  -2   2   7   26.62    3.38
  -2   2   7   27.21    3.19
  -2   2   7   19.16    3.38
  -2   2   7   27.46    4.00
  -2   2   7   21.59    3.36
  -2   2   8   14.92    2.85
  -2   2   8   14.21    2.62
  -2   2   8   13.16    2.45
  -2   2   8   11.20    2.23
  -2   2   8   15.03    2.77
  -2   2   8   12.11    2.84
  -2   2   9   95.47    7.39
  -2   2   9  106.49    7.03
  -2   2   9   97.34    6.77
  -2   2   9  105.03    7.91
  -2   2   9  123.93    7.88
  -2   2   9  112.40    8.09
  -2   2  10  115.49    6.44
  -2   2  10  132.59    8.34
  -2   2  10  134.41    7.55
  -2   2  11   13.05    1.76
  -2   2  11   12.91    1.93
  -2   2  11   10.10    1.84
  -2   2  12   59.92    3.56
  -2   2  12   53.99    3.59
  -2   3 -13   33.77    2.79
  -2   3 -12    0.95    0.63
  -2   3 -12    0.53    0.69
  -2   3 -11  141.29    7.83
  -2   3 -11  142.30    8.44
  -2   3 -10   99.37    6.60
  -2   3 -10   91.85    6.03
  -2   3 -10   96.91    6.61
  -2   3  -9   76.56    6.13
  -2   3  -9   96.63   11.32
  -2   3  -9   80.24    6.03
  -2   3  -9   75.97    5.45
  -2   3  -8  179.63   10.90
  -2   3  -8  198.12    9.30
  -2   3  -8  168.35   16.07
  -2   3  -8  175.66   10.13
  -2   3  -8  182.79    9.58
  -2   3  -7   98.43    7.59
  -2   3  -7  101.10    6.00
  -2   3  -7   72.22    9.82
  -2   3  -7   86.68    6.37
  -2   3  -7   78.65    5.64
  -2   3  -6  587.62   24.98
  -2   3  -6  584.34   24.05
  -2   3  -6  648.26   24.30
  -2   3  -6  627.84   26.12
  -2   3  -6  546.22   32.25
  -2   3  -6  615.00   29.03
  -2   3  -5    4.70    1.58
  -2   3  -5    5.18    1.34
  -2   3  -5    2.47    1.31
  -2   3  -5    2.94    1.95
  -2   3  -5    3.29    1.84
  -2   3  -4  257.01   13.69
  -2   3  -4  266.82   12.78
  -2   3  -4  283.66   18.81
  -2   3  -4  287.95   13.99
  -2   3  -3  221.58   11.40
  -2   3  -3  216.61   10.59
  -2   3  -3  207.94   15.62
  -2   3  -3  215.45   13.63
  -2   3  -2  229.05   10.43
  -2   3  -2  224.14   10.95
  -2   3  -2  206.71   11.10
  -2   3  -2  231.53   12.36
  -2   3  -2  232.16   15.89
  -2   3  -1  371.20   15.52
  -2   3  -1  373.82   15.20
  -2   3  -1  332.20   16.62
  -2   3  -1  350.83   16.11
  -2   3  -1  373.01   14.82
  -2   3  -1  374.80   21.25
  -2   3   0  311.52   12.81
  -2   3   0  308.28   13.54
  -2   3   0  301.39   15.81
  -2   3   1 1116.73   41.23
  -2   3   1 1112.97   40.07
  -2   3   1 1123.31   46.96
  -2   3   1 1133.35   44.42
  -2   3   2   90.49    5.29
  -2   3   2  105.81    9.20
  -2   3   3   40.35    4.79
  -2   3   3   38.16    4.86
  -2   3   3   35.32    3.31
  -2   3   3   37.37    3.32
  -2   3   3   42.09    5.54
  -2   3   4  116.78    7.59
  -2   3   4  101.04    8.20
  -2   3   4  118.48    9.06
  -2   3   4  120.75    7.06
  -2   3   4  119.79    6.89
  -2   3   4  120.96    6.84
  -2   3   4  115.10    9.50
  -2   3   4  115.31    7.81
  -2   3   4  113.01    6.54
  -2   3   4  109.21    6.23
  -2   3   5  264.76   14.70
  -2   3   5  277.72   14.52
  -2   3   5  253.20   15.01
  -2   3   5  260.29   12.01
  -2   3   5  262.55   12.39
  -2   3   5  278.41   12.89
  -2   3   5  236.02   13.73
  -2   3   5  279.83   12.81
  -2   3   5  266.11   12.73
  -2   3   6  251.00   12.26
  -2   3   6  267.95   12.77
  -2   3   6  272.18   13.04
  -2   3   6  221.82   14.13
  -2   3   6  280.76   13.06
  -2   3   6  245.53   12.89
  -2   3   6  276.43   15.52
  -2   3   7    5.07    1.59
  -2   3   7    5.63    2.34
  -2   3   7    3.60    1.47
  -2   3   7    4.79    1.49
  -2   3   7    4.55    1.47
  -2   3   7    3.70    1.69
  -2   3   7    7.24    2.39
  -2   3   8  118.23    7.72
  -2   3   8  101.60    7.67
  -2   3   8  108.24    8.38
  -2   3   8  113.83    7.80
  -2   3   8  126.94    8.13
  -2   3   8  133.10    9.19
  -2   3   8  115.10    8.23
  -2   3   9   -0.26    1.27
  -2   3   9    0.54    0.80
  -2   3   9    0.54    0.90
  -2   3   9    1.76    1.30
  -2   3  10   60.76    4.69
  -2   3  10   68.76    4.92
  -2   3  10   51.94    4.83
  -2   3  11   26.74    2.62
  -2   3  12    2.45    0.56
  -2   4 -13    6.87    0.99
  -2   4 -13    5.77    1.15
  -2   4 -12   27.13    2.96
  -2   4 -11   50.16    3.89
  -2   4 -11   46.61    4.18
  -2   4 -11   51.62    4.49
  -2   4 -10   87.16    5.80
  -2   4 -10   92.08    6.14
  -2   4 -10   86.72    6.52
  -2   4 -10   83.08    6.33
  -2   4  -9  137.98    8.33
  -2   4  -9  133.54    7.87
  -2   4  -9  139.90    8.95
  -2   4  -9  140.26    8.99
  -2   4  -8   15.18    2.51
  -2   4  -8   13.09    2.16
  -2   4  -8   15.52    2.11
  -2   4  -8   13.55    2.76
  -2   4  -8   14.22    2.66
  -2   4  -7  463.63   20.13
  -2   4  -7  440.17   19.49
  -2   4  -7  489.33   22.37
  -2   4  -7  483.71   21.58
  -2   4  -6   36.72    4.59
  -2   4  -6   36.30    4.57
  -2   4  -6   38.29    3.59
  -2   4  -6   39.73    4.03
  -2   4  -6   29.67    3.45
  -2   4  -6   35.91    5.37
  -2   4  -5  260.13   13.51
  -2   4  -5  287.00   15.28
  -2   4  -5  275.96   14.26
  -2   4  -5  278.40   12.51
  -2   4  -5  277.84   18.35
  -2   4  -5  248.33   19.95
  -2   4  -5  292.03   13.21
  -2   4  -5  272.26   12.34
  -2   4  -4  200.43   11.39
  -2   4  -4  184.21   10.50
  -2   4  -4  214.25   10.28
  -2   4  -4  184.67   15.23
  -2   4  -4  175.36   14.51
  -2   4  -4  201.60   10.02
  -2   4  -3  696.66   26.35
  -2   4  -3  606.88   25.72
  -2   4  -3  680.50   30.96
  -2   4  -3  682.22   34.93
  -2   4  -2  998.72   42.02
  -2   4  -2 1060.07   38.37
  -2   4  -2 1042.32   38.63
  -2   4  -2  997.78   47.12
  -2   4  -1   67.10    4.87
  -2   4  -1   62.10    5.66
  -2   4  -1   69.04    6.23
  -2   4  -1   64.63    4.54
  -2   4  -1   68.15    8.35
  -2   4   0  417.41   17.71
  -2   4   0  395.97   19.76
  -2   4   0  373.22   22.78
  -2   4   0  412.75   16.73
  -2   4   1  100.60    8.42
  -2   4   1   90.61    6.42
  -2   4   1   92.93    7.24
  -2   4   1   97.22    5.74
  -2   4   1   93.20    9.45
  -2   4   2 1337.84   46.12
  -2   4   2 1283.69   46.03
  -2   4   2 1226.13   46.32
  -2   4   2 1297.97   46.40
  -2   4   2 1330.87   46.23
  -2   4   2 1314.56   47.50
  -2   4   2 1176.57   52.73
  -2   4   2 1248.90   47.64
  -2   4   2 1331.18   51.66
  -2   4   2 1214.85   46.16
  -2   4   3  174.58   11.55
  -2   4   3  163.87    9.73
  -2   4   3  169.54   11.86
  -2   4   3  160.14    8.71
  -2   4   3  158.21    8.17
  -2   4   3  171.69    8.75
  -2   4   3  167.13    9.66
  -2   4   3  166.37   12.69
  -2   4   3  156.69    8.02
  -2   4   3  169.31    8.53
  -2   4   3  163.26    8.06
  -2   4   4  261.63   15.21
  -2   4   4  267.84   13.19
  -2   4   4  273.62   16.13
  -2   4   4  264.51   12.54
  -2   4   4  270.57   12.51
  -2   4   4  252.03   12.09
  -2   4   4  252.55   16.02
  -2   4   4  250.98   13.68
  -2   4   4  267.33   11.96
  -2   4   5  347.25   17.08
  -2   4   5  338.32   18.05
  -2   4   5  338.08   18.83
  -2   4   5  339.54   15.59
  -2   4   5  355.71   15.61
  -2   4   5  320.53   15.26
  -2   4   5  335.58   15.01
  -2   4   5  365.42   15.67
  -2   4   6  139.88    9.72
  -2   4   6  117.87    9.15
  -2   4   6  121.41    9.82
  -2   4   6  124.53    7.52
  -2   4   6  125.25    7.88
  -2   4   6  121.07    7.79
  -2   4   6  126.39    7.76
  -2   4   7  179.74   10.34
  -2   4   7  158.99   11.69
  -2   4   7  165.18    9.88
  -2   4   7  198.51   10.31
  -2   4   7  204.50   12.28
  -2   4   8    1.67    1.25
  -2   4   8    0.91    0.89
  -2   4   8    0.87    1.03
  -2   4   8    1.92    1.51
  -2   4   9  176.53    9.31
  -2   4   9  172.11    9.88
  -2   4  10   84.53    5.17
  -2   4  10   68.74    5.08
  -2   4  11   33.79    2.30
  -2   4  11   30.82    2.36
  -2   5 -13    2.64    0.72
  -2   5 -13    2.36    0.77
  -2   5 -12    0.77    0.66
  -2   5 -12    1.01    0.75
  -2   5 -11   40.24    3.91
  -2   5 -11   43.02    4.10
  -2   5 -11   42.76    3.59
  -2   5 -10   47.73    4.66
  -2   5 -10   47.20    4.52
  -2   5 -10   49.10    4.16
  -2   5  -9    3.25    1.33
  -2   5  -9    4.69    1.70
  -2   5  -9    4.20    1.15
  -2   5  -9    1.67    0.89
  -2   5  -8    2.61    1.38
  -2   5  -8    2.64    1.46
  -2   5  -8    4.85    1.30
  -2   5  -8    2.44    1.02
  -2   5  -7   35.04    4.73
  -2   5  -7   28.19    3.83
  -2   5  -7   33.09    3.34
  -2   5  -7   34.48    6.70
  -2   5  -7   29.42    3.46
  -2   5  -6  369.13   17.76
  -2   5  -6  388.83   16.89
  -2   5  -6  399.41   16.23
  -2   5  -6  418.17   19.67
  -2   5  -6  390.27   19.63
  -2   5  -6  387.94   27.57
  -2   5  -6  380.99   16.21
  -2   5  -6  335.33   21.88
  -2   5  -5  145.58    9.72
  -2   5  -5  176.16   10.92
  -2   5  -5  152.19    8.10
  -2   5  -5  117.74    8.02
  -2   5  -5  149.45    8.14
  -2   5  -5  142.67   12.95
  -2   5  -4   78.51    6.56
  -2   5  -4   73.41    6.13
  -2   5  -4   60.88    8.77
  -2   5  -4   76.40    5.59
  -2   5  -4   68.40    8.75
  -2   5  -4   73.89    5.44
  -2   5  -3   43.53    4.35
  -2   5  -3   43.13    4.17
  -2   5  -3   51.11    4.67
  -2   5  -3   53.29    5.04
  -2   5  -3   54.19    4.65
  -2   5  -3   54.87    6.97
  -2   5  -3   64.75    9.36
  -2   5  -3   54.01    4.78
  -2   5  -2  129.18    7.71
  -2   5  -2  124.32    7.40
  -2   5  -2   83.38    6.80
  -2   5  -2  102.19    6.96
  -2   5  -2  103.80    6.84
  -2   5  -2  112.15    6.93
  -2   5  -2  110.13    9.77
  -2   5  -2  108.81    6.57
  -2   5  -2  108.90    7.17
  -2   5  -1  409.54   18.28
  -2   5  -1  446.18   18.44
  -2   5  -1  356.05   18.79
  -2   5  -1  429.13   18.37
  -2   5  -1  417.73   21.82
  -2   5  -1  419.01   17.48
  -2   5  -1  371.44   16.70
  -2   5  -1  415.44   17.29
  -2   5   0   13.45    2.47
  -2   5   0   12.38    2.04
  -2   5   0   13.15    3.10
  -2   5   0   14.65    2.45
  -2   5   0    9.62    3.30
  -2   5   0   13.62    1.99
  -2   5   0   14.99    2.26
  -2   5   0   11.21    1.91
  -2   5   1  366.01   16.01
  -2   5   1  382.31   20.48
  -2   5   1  375.70   17.29
  -2   5   1  361.11   15.50
  -2   5   1  345.09   17.08
  -2   5   1  384.97   16.04
  -2   5   1  343.47   18.13
  -2   5   1  339.04   22.26
  -2   5   1  351.71   15.77
  -2   5   1  368.27   15.73
  -2   5   1  395.14   16.23
  -2   5   2   46.16    4.60
  -2   5   2   42.57    3.69
  -2   5   2   40.13    3.58
  -2   5   2   42.14    5.88
  -2   5   2   41.41    3.84
  -2   5   2   40.03    3.69
  -2   5   2   43.99    4.24
  -2   5   2   41.83    3.66
  -2   5   2   48.36    6.93
  -2   5   3  115.59    9.65
  -2   5   3  104.59    7.77
  -2   5   3  118.45   10.22
  -2   5   3  100.82    6.70
  -2   5   3  112.22    6.79
  -2   5   3  108.35    6.31
  -2   5   3  125.89    7.94
  -2   5   3  110.56   10.24
  -2   5   3  108.06    6.69
  -2   5   3  105.38    6.19
  -2   5   4  103.30    8.95
  -2   5   4   96.26    9.28
  -2   5   4   97.08    6.60
  -2   5   4  110.61    6.70
  -2   5   4   95.77    7.46
  -2   5   4  102.14    6.65
  -2   5   5   88.11    8.03
  -2   5   5   78.26    6.29
  -2   5   5   96.65    8.80
  -2   5   5   87.15    6.20
  -2   5   5   81.99    5.86
  -2   5   5   82.35    7.08
  -2   5   5   91.89    6.37
  -2   5   6  166.89   10.31
  -2   5   6  152.44   11.00
  -2   5   6  172.92   12.06
  -2   5   6  167.94    9.55
  -2   5   6  172.97    9.21
  -2   5   6  147.52   10.66
  -2   5   7   50.50    4.75
  -2   5   7   54.68    4.45
  -2   5   8  243.00   12.39
  -2   5   8  240.68   11.17
  -2   5   8  233.86   12.38
  -2   5   9    0.20    0.94
  -2   5   9   -0.22    0.91
  -2   5  10   32.37    2.69
  -2   6 -13    4.31    0.93
  -2   6 -12   17.03    2.10
  -2   6 -12   13.31    1.92
  -2   6 -11   54.59    4.46
  -2   6 -11   56.50    4.67
  -2   6 -11   49.57    3.91
  -2   6 -10   74.75    6.01
  -2   6 -10   74.70    5.78
  -2   6 -10   75.24    5.29
  -2   6  -9   17.80    2.98
  -2   6  -9   17.24    2.76
  -2   6  -9   18.55    2.27
  -2   6  -9   23.60    5.31
  -2   6  -9   17.66    2.54
  -2   6  -8  153.12   10.18
  -2   6  -8  145.00    9.31
  -2   6  -8  153.00    8.19
  -2   6  -8  156.43   15.00
  -2   6  -8  139.85    8.62
  -2   6  -7  130.23    9.86
  -2   6  -7  122.00    8.79
  -2   6  -7  141.20    7.84
  -2   6  -7  126.05    6.93
  -2   6  -7  116.29    8.03
  -2   6  -7  128.92    7.04
  -2   6  -7  126.18   11.20
  -2   6  -6   17.32    3.02
  -2   6  -6   17.28    2.55
  -2   6  -6   21.08    2.55
  -2   6  -6   23.46    3.70
  -2   6  -6   27.34    4.29
  -2   6  -6   33.57    7.41
  -2   6  -6   16.63    4.08
  -2   6  -6   23.08    2.71
  -2   6  -5   77.06    6.19
  -2   6  -5   84.96    5.91
  -2   6  -5   78.05    5.90
  -2   6  -5   89.34    7.56
  -2   6  -5  105.60    8.32
  -2   6  -5   75.62   10.78
  -2   6  -5   85.36   10.37
  -2   6  -5   86.77    6.01
  -2   6  -4  125.81    7.90
  -2   6  -4  130.03    8.02
  -2   6  -4  118.51    7.57
  -2   6  -4  133.60    8.83
  -2   6  -4  132.15   13.30
  -2   6  -4  127.45    8.00
  -2   6  -3  408.76   19.35
  -2   6  -3  407.84   18.99
  -2   6  -3  473.39   26.82
  -2   6  -3  474.89   20.05
  -2   6  -3  446.73   18.55
  -2   6  -3  437.47   19.86
  -2   6  -2   32.71    3.86
  -2   6  -2   35.14    3.89
  -2   6  -2   30.10    3.86
  -2   6  -2   32.70    3.93
  -2   6  -2   37.82    6.18
  -2   6  -2   36.16    3.86
  -2   6  -2   30.32    3.19
  -2   6  -2   27.51    3.63
  -2   6  -1   33.60    3.84
  -2   6  -1   35.99    4.57
  -2   6  -1   34.68    4.20
  -2   6  -1   32.30    3.62
  -2   6  -1   38.67    3.60
  -2   6  -1   33.38    3.93
  -2   6   0   61.58    5.73
  -2   6   0   59.83    6.50
  -2   6   0   54.06    8.65
  -2   6   0   53.50    4.45
  -2   6   0   56.84    4.96
  -2   6   0   50.69    4.70
  -2   6   0   52.46    5.10
  -2   6   1  105.89    7.10
  -2   6   1  111.01    7.05
  -2   6   1  103.15    6.60
  -2   6   1  112.46   10.16
  -2   6   1  115.76    8.33
  -2   6   1  106.40    8.56
  -2   6   1  118.77   12.41
  -2   6   1  106.76    6.76
  -2   6   1  114.32    7.22
  -2   6   2  333.25   14.99
  -2   6   2  354.50   15.00
  -2   6   2  304.37   14.65
  -2   6   2  347.43   15.81
  -2   6   2  357.92   15.17
  -2   6   2  291.17   20.99
  -2   6   2  337.61   16.98
  -2   6   2  313.48   18.83
  -2   6   2  317.74   15.36
  -2   6   3   13.29    3.40
  -2   6   3   16.39    2.99
  -2   6   3   17.18    4.12
  -2   6   3   12.75    3.40
  -2   6   3   10.15    2.17
  -2   6   3   11.40    2.05
  -2   6   3   11.35    2.04
  -2   6   3   15.77    2.06
  -2   6   4   40.83    5.68
  -2   6   4   37.54    5.73
  -2   6   4   30.81    3.29
  -2   6   4   36.64    4.31
  -2   6   4   30.72    3.49
  -2   6   5   63.35    6.71
  -2   6   5   53.91    4.45
  -2   6   5   63.15    5.90
  -2   6   5   53.44    6.56
  -2   6   6  160.19    8.55
  -2   6   6  166.27   10.59
  -2   6   6  171.08   11.21
  -2   6   7   38.00    4.59
  -2   6   7   36.95    4.27
  -2   6   8    3.97    1.39
  -2   6   8    3.65    1.14
  -2   7 -12   16.89    2.04
  -2   7 -12   20.30    2.23
  -2   7 -11  205.05   10.03
  -2   7 -11  203.19   10.37
  -2   7 -10   37.89    3.79
  -2   7 -10   44.01    4.36
  -2   7 -10   39.21    3.04
  -2   7 -10   35.99    3.45
  -2   7  -9   74.65    6.41
  -2   7  -9   80.13    6.08
  -2   7  -9   79.80    5.74
  -2   7  -8   10.24    2.20
  -2   7  -8    9.08    2.44
  -2   7  -8    8.15    1.66
  -2   7  -8    7.60    3.19
  -2   7  -8    7.76    1.79
  -2   7  -7  195.23   11.25
  -2   7  -7  194.91    9.69
  -2   7  -7  205.25   10.43
  -2   7  -7  197.43   11.51
  -2   7  -7  208.44   19.01
  -2   7  -7  206.96    9.95
  -2   7  -7  182.28   15.01
  -2   7  -6  274.43   15.24
  -2   7  -6  302.81   13.70
  -2   7  -6  319.42   16.05
  -2   7  -6  305.98   20.58
  -2   7  -6  288.07   13.72
  -2   7  -5   53.99    5.29
  -2   7  -5   61.38    6.42
  -2   7  -5   55.95    8.39
  -2   7  -5   66.60    5.23
  -2   7  -5   73.09   11.00
  -2   7  -5   56.55    4.82
  -2   7  -4   55.22    5.78
  -2   7  -4   46.14    4.53
  -2   7  -4   41.99    7.82
  -2   7  -4   42.79    4.35
  -2   7  -4   47.35    4.61
  -2   7  -3   37.26    4.22
  -2   7  -3   35.24    3.96
  -2   7  -3   43.62    7.76
  -2   7  -3   35.86    4.25
  -2   7  -3   33.42    4.10
  -2   7  -2  753.37   32.12
  -2   7  -2  833.63   33.32
  -2   7  -2  739.90   39.64
  -2   7  -2  777.74   30.17
  -2   7  -1  135.13    9.58
  -2   7  -1  133.78    9.61
  -2   7  -1  102.15    7.87
  -2   7  -1  129.61    7.60
  -2   7  -1  120.00    8.53
  -2   7   0  133.50    9.35
  -2   7   0  105.72    9.18
  -2   7   0  105.29   12.76
  -2   7   0   98.53    6.76
  -2   7   0  123.22    7.37
  -2   7   0  110.03    7.76
  -2   7   0  104.32    7.44
  -2   7   0  105.63    7.89
  -2   7   1  235.98   13.73
  -2   7   1  258.60   12.89
  -2   7   1  284.59   17.41
  -2   7   1  284.43   15.29
  -2   7   1  253.15   14.55
  -2   7   1  248.06   19.67
  -2   7   1  259.42   13.08
  -2   7   2   48.38    5.36
  -2   7   2   41.99    3.95
  -2   7   2   53.50    4.41
  -2   7   2   40.83    6.80
  -2   7   2   37.24    5.32
  -2   7   2   44.60    3.99
  -2   7   3  205.15    9.39
  -2   7   3  195.69   14.16
  -2   7   3  191.64   11.95
  -2   7   3  192.73   13.85
  -2   7   3  163.35    9.39
  -2   7   3  204.08   10.96
  -2   7   4    2.61    1.43
  -2   7   4    7.17    2.60
  -2   7   4    9.30    2.11
  -2   7   4    8.00    2.50
  -2   7   5  239.24   12.68
  -2   7   5  223.82   14.02
  -2   7   7   25.83    2.82
  -2   7   7   25.51    3.08
  -2   7   8   37.45    3.15
  -2   8 -12   18.24    2.01
  -2   8 -12   17.14    1.98
  -2   8 -11    0.53    0.67
  -2   8 -10   29.31    2.90
  -2   8 -10   31.93    2.59
  -2   8  -9   14.43    2.23
  -2   8  -9   18.36    2.17
  -2   8  -8   38.47    4.01
  -2   8  -8   44.76    3.85
  -2   8  -8   48.73    3.54
  -2   8  -8   42.32    4.45
  -2   8  -8   43.70    3.43
  -2   8  -7    9.43    2.12
  -2   8  -7   13.02    1.96
  -2   8  -7   14.64    3.14
  -2   8  -7   14.61    2.79
  -2   8  -7   15.00    3.81
  -2   8  -7   12.72    2.04
  -2   8  -6    2.93    1.39
  -2   8  -6    3.09    1.81
  -2   8  -6    2.71    1.11
  -2   8  -6    3.14    1.86
  -2   8  -6    1.50    1.33
  -2   8  -6    5.18    3.07
  -2   8  -6    2.22    1.15
  -2   8  -5  275.32   15.64
  -2   8  -5  205.31   18.52
  -2   8  -5  239.44   12.47
  -2   8  -5  250.55   12.46
  -2   8  -5  258.12   14.89
  -2   8  -5  253.37   22.52
  -2   8  -4   33.48    3.98
  -2   8  -4   42.18    5.13
  -2   8  -4   41.59    8.19
  -2   8  -4   36.03    4.04
  -2   8  -4   38.31    4.18
  -2   8  -3  322.09   16.36
  -2   8  -3  332.25   16.08
  -2   8  -3  378.27   25.85
  -2   8  -3  382.96   17.84
  -2   8  -3  302.00   16.24
  -2   8  -3  337.43   16.83
  -2   8  -2   80.99    6.95
  -2   8  -2   85.09    7.68
  -2   8  -2   80.81    6.81
  -2   8  -2   90.28    5.94
  -2   8  -1   38.82    4.61
  -2   8  -1   42.88    5.20
  -2   8  -1   43.28    5.46
  -2   8  -1   44.41    4.78
  -2   8  -1   36.87    7.97
  -2   8  -1   45.71    4.05
  -2   8  -1   43.39    4.88
  -2   8   0   17.68    3.52
  -2   8   0   20.65    3.80
  -2   8   0   16.74    2.83
  -2   8   0   11.73    4.23
  -2   8   0   21.94    2.82
  -2   8   0   22.09    3.31
  -2   8   1  113.86    8.88
  -2   8   1  100.09    9.34
  -2   8   1  107.76    6.87
  -2   8   1  107.70    7.19
  -2   8   1   94.35    6.70
  -2   8   1   94.15    7.47
  -2   8   2  182.86    9.25
  -2   8   2  196.83   14.13
  -2   8   2  194.39   12.02
  -2   8   2  176.14   11.44
  -2   8   2  187.10    9.44
  -2   8   3    6.06    2.15
  -2   8   3    6.38    2.47
  -2   8   3    6.14    1.86
  -2   8   4  161.61   11.40
  -2   8   6   61.33    5.10
  -2   8   6   66.24    4.78
  -2   8   7   52.40    3.69
  -2   9 -11    7.83    1.39
  -2   9 -10    0.19    0.78
  -2   9 -10    1.00    0.52
  -2   9 -10    0.51    0.60
  -2   9  -9   16.78    2.56
  -2   9  -9   16.09    1.95
  -2   9  -9   12.46    1.94
  -2   9  -9   11.86    2.12
  -2   9  -8    8.45    1.79
  -2   9  -8   14.52    2.62
  -2   9  -8    9.47    1.50
  -2   9  -8   11.90    1.84
  -2   9  -8    9.30    1.53
  -2   9  -8   10.65    2.17
  -2   9  -7  124.77    8.94
  -2   9  -7  123.00    6.83
  -2   9  -7  123.93    8.44
  -2   9  -7  118.02    6.84
  -2   9  -6   55.82    4.48
  -2   9  -6   60.19    4.68
  -2   9  -6   53.21    5.58
  -2   9  -5   59.81    6.54
  -2   9  -5   52.02    4.57
  -2   9  -5   65.24    6.52
  -2   9  -5   49.67    4.55
  -2   9  -4   12.44    2.27
  -2   9  -4   15.05    2.53
  -2   9  -4   10.42    2.12
  -2   9  -4   11.18    2.63
  -2   9  -3    8.48    2.06
  -2   9  -3    4.91    1.66
  -2   9  -3    5.69    1.70
  -2   9  -3    8.51    1.81
  -2   9  -2   69.63    6.14
  -2   9  -2   71.94    6.73
  -2   9  -2   64.54    6.04
  -2   9  -2   82.60    6.49
  -2   9  -2   72.78    6.48
  -2   9  -2   79.79    6.73
  -2   9  -1    1.21    1.66
  -2   9  -1    0.90    1.12
  -2   9  -1    0.31    1.10
  -2   9  -1    0.36    0.64
  -2   9  -1    0.34    0.89
  -2   9   0   43.44    5.30
  -2   9   0   41.28    4.35
  -2   9   0   27.29    3.60
  -2   9   0   38.38    3.57
  -2   9   0   39.04    4.20
  -2   9   0   35.00    4.63
  -2   9   1   76.49    7.08
  -2   9   1   77.83    5.25
  -2   9   1   71.14    5.33
  -2   9   1   66.68    6.91
  -2   9   1   81.61    6.24
  -2   9   1   70.99    5.27
  -2   9   2   70.40    4.97
  -2   9   2   73.57    7.27
  -2   9   2   66.69    5.59
  -2   9   3   56.79    4.20
  -2   9   3   52.83    4.70
  -2   9   4    2.59    0.94
  -2   9   4    3.37    1.22
  -2   9   5   52.50    3.47
  -2   9   5   48.03    4.32
  -2  10 -10   42.25    3.27
  -2  10 -10   43.97    2.68
  -2  10  -9   11.55    1.79
  -2  10  -9   12.59    1.55
  -2  10  -8   53.48    3.47
  -2  10  -8   52.86    3.81
  -2  10  -8   50.65    3.44
  -2  10  -8   53.56    4.37
  -2  10  -7    1.81    1.10
  -2  10  -7    1.62    0.84
  -2  10  -7    1.53    0.79
  -2  10  -7    2.70    1.16
  -2  10  -7    1.29    0.78
  -2  10  -6   93.64    5.80
  -2  10  -6   91.15    6.85
  -2  10  -6   98.34    5.93
  -2  10  -5   18.43    2.42
  -2  10  -5   16.90    2.34
  -2  10  -5   15.93    2.90
  -2  10  -5   17.57    2.43
  -2  10  -4   39.50    3.79
  -2  10  -4   36.54    3.71
  -2  10  -4   38.68    3.78
  -2  10  -4   39.29    4.75
  -2  10  -3   66.17    5.30
  -2  10  -3   72.51    5.52
  -2  10  -3   75.37    6.43
  -2  10  -2    4.64    1.56
  -2  10  -2    5.00    1.49
  -2  10  -2    7.79    1.95
  -2  10  -2    5.38    1.53
  -2  10  -1  115.12    8.12
  -2  10  -1  102.62    7.01
  -2  10  -1   86.81    6.75
  -2  10  -1  100.12    7.12
  -2  10   0    0.33    1.10
  -2  10   0    0.20    0.72
  -2  10   0    0.28    0.66
  -2  10   0    0.20    0.73
  -2  10   1  120.77    8.36
  -2  10   1  133.15    7.75
  -2  10   2   30.47    3.77
  -2  10   2   33.07    3.25
  -2  11  -9   35.35    2.69
  -2  11  -8    2.24    0.59
  -2  11  -8    3.97    0.93
  -2  11  -7   46.93    3.40
  -2  11  -7   50.74    3.29
  -2  11  -7   52.79    3.37
  -2  11  -6   15.30    1.89
  -2  11  -6   15.19    1.81
  -2  11  -6   14.08    2.13
  -2  11  -6   15.03    1.82
  -2  11  -5   23.56    2.43
  -2  11  -5   21.06    2.75
  -2  11  -5   23.53    2.45
  -2  11  -4   16.71    2.08
  -2  11  -4   17.64    2.20
  -2  11  -3   26.30    2.67
  -2  11  -3   24.26    2.62
  -2  11  -3   23.57    2.60
  -2  11  -3   26.08    2.78
  -2  11  -2  109.44    6.08
  -2  11  -2   92.13    5.83
  -2  11  -2   92.86    5.61
  -2  11  -2   98.22    6.00
  -2  11  -1    1.11    0.80
  -2  11  -1    1.38    0.92
  -2  11   1    4.04    0.97
  -2  12  -8    2.41    0.53
  -2  12  -7    4.10    0.73
  -2  12  -6   17.31    1.54
  -2  12  -5   12.50    1.39
  -2  12  -5   15.79    1.54
  -2  12  -4   37.13    2.49
  -2  12  -4   33.38    2.40
  -2  12  -3    5.29    0.91
  -2  12  -2    9.65    1.16
  -2  12  -2   10.01    1.15
  -2  12  -1   23.32    1.73
  -1 -12   2    2.95    0.85
  -1 -12   3   45.46    3.56
  -1 -12   3   46.94    3.47
  -1 -12   3   42.11    3.41
  -1 -12   4   38.66    3.27
  -1 -12   4   35.90    3.13
  -1 -12   5    0.60    0.53
  -1 -12   5    0.46    0.61
  -1 -12   6   18.15    1.91
  -1 -12   6   16.25    1.95
  -1 -12   6   15.67    1.84
  -1 -12   7    8.47    1.35
  -1 -12   7   11.42    1.51
  -1 -12   7    7.59    1.31
  -1 -12   7    7.84    1.33
  -1 -12   8   47.25    3.19
  -1 -12   8   53.98    3.45
  -1 -12   8   49.38    3.32
  -1 -12   8   46.63    3.36
  -1 -12   8   51.13    3.45
  -1 -12   9    7.06    1.17
  -1 -12   9    8.19    1.18
  -1 -11  -1   56.40    4.34
  -1 -11   0   27.34    2.67
  -1 -11   0   25.47    2.89
  -1 -11   1   10.28    1.84
  -1 -11   1   10.54    1.85
  -1 -11   1   11.34    1.86
  -1 -11   1   10.66    1.92
  -1 -11   2   22.71    2.93
  -1 -11   2   21.99    2.94
  -1 -11   2   21.48    2.59
  -1 -11   3    1.96    0.90
  -1 -11   3    4.08    1.45
  -1 -11   3    3.22    1.22
  -1 -11   4   81.75    5.79
  -1 -11   4   67.31    5.41
  -1 -11   5    2.52    1.09
  -1 -11   6   42.38    3.80
  -1 -11   6   34.73    3.48
  -1 -11   7   25.12    2.73
  -1 -11   7   26.95    2.96
  -1 -11   8    1.50    0.69
  -1 -11   8    1.02    0.75
  -1 -11   9    3.81    1.03
  -1 -11   9    2.28    0.80
  -1 -11   9    3.82    0.95
  -1 -11  10    2.35    0.85
  -1 -11  11   24.13    2.20
  -1 -10  -2  140.63    8.54
  -1 -10  -1   35.89    3.33
  -1 -10   0   40.14    4.45
  -1 -10   0   40.59    3.94
  -1 -10   0   39.94    3.91
  -1 -10   1   68.81    5.82
  -1 -10   1   68.43    5.75
  -1 -10   1   73.30    6.03
  -1 -10   2  106.42    7.53
  -1 -10   2   81.93    6.39
  -1 -10   3  185.32   10.47
  -1 -10   3  221.21   12.16
  -1 -10   3  196.58   11.52
  -1 -10   3  220.32   10.60
  -1 -10   3  196.14   10.85
  -1 -10   4    0.83    0.98
  -1 -10   4    2.48    1.22
  -1 -10   4    1.21    0.76
  -1 -10   4    0.49    0.71
  -1 -10   4    0.72    0.80
  -1 -10   5   60.64    5.07
  -1 -10   5   59.48    5.14
  -1 -10   6    0.74    0.87
  -1 -10   6    2.29    1.17
  -1 -10   6    1.83    0.98
  -1 -10   6    1.38    0.90
  -1 -10   7  120.64    7.54
  -1 -10   7  106.00    7.11
  -1 -10   7  117.77    7.17
  -1 -10   8   80.00    5.77
  -1 -10   8   92.62    6.21
  -1 -10   8   84.10    5.95
  -1 -10   8   88.47    5.73
  -1 -10   9    0.63    0.67
  -1 -10   9    0.59    0.70
  -1 -10   9    0.17    0.57
  -1 -10   9    0.87    0.57
  -1 -10  10  101.66    5.73
  -1 -10  10   95.96    5.99
  -1 -10  11   36.84    2.92
  -1 -10  11   36.16    3.10
  -1 -10  11   35.50    3.06
  -1 -10  12   28.56    2.42
  -1 -10  12   29.22    2.36
  -1 -10  13    0.41    0.37
  -1  -9  -5   89.83    5.49
  -1  -9  -4    2.14    0.98
  -1  -9  -3   70.32    5.72
  -1  -9  -3   85.68    6.44
  -1  -9  -2    0.18    0.61
  -1  -9  -2   -0.27    0.78
  -1  -9  -2   -0.31    0.91
  -1  -9  -1  103.56    6.72
  -1  -9  -1   94.36    6.95
  -1  -9  -1  100.95    6.74
  -1  -9   0   79.07   10.31
  -1  -9   0  108.12   12.21
  -1  -9   0   77.92   12.23
  -1  -9   0   91.54   11.95
  -1  -9   0   78.78    7.12
  -1  -9   0   83.17    6.36
  -1  -9   1   14.80    2.59
  -1  -9   1   14.55    5.21
  -1  -9   1   12.43    4.11
  -1  -9   1   15.63    4.51
  -1  -9   1   10.80    2.50
  -1  -9   1   18.23    3.02
  -1  -9   1   13.24    4.75
  -1  -9   2  113.00   12.61
  -1  -9   2  104.49    8.02
  -1  -9   2   91.21    7.31
  -1  -9   2   84.11    6.75
  -1  -9   2   92.29    6.08
  -1  -9   2  116.09   14.90
  -1  -9   2   94.06    6.61
  -1  -9   3    9.43    2.24
  -1  -9   3    8.80    2.24
  -1  -9   3    4.84    2.81
  -1  -9   3    5.05    1.54
  -1  -9   3    7.39    1.70
  -1  -9   3    5.92    3.14
  -1  -9   4  310.13   15.71
  -1  -9   4  339.88   15.62
  -1  -9   4  330.47   25.49
  -1  -9   4  289.53   14.31
  -1  -9   5   42.59    4.65
  -1  -9   5   36.11    7.35
  -1  -9   5   41.12    4.29
  -1  -9   6   50.01    4.86
  -1  -9   6   62.79   10.04
  -1  -9   6   64.07    5.60
  -1  -9   6   55.60    8.94
  -1  -9   6   63.26    5.21
  -1  -9   7  254.70   13.07
  -1  -9   7  257.42   22.13
  -1  -9   7  306.76   13.49
  -1  -9   7  268.57   13.45
  -1  -9   7  237.14   20.12
  -1  -9   7  245.18   12.55
  -1  -9   8   85.05   11.75
  -1  -9   8   97.05    6.46
  -1  -9   8  100.37    6.75
  -1  -9   8   91.66   10.86
  -1  -9   8   89.58    5.99
  -1  -9   9    7.85    1.62
  -1  -9   9   11.35    1.94
  -1  -9   9    8.49    1.75
  -1  -9   9    8.97    1.52
  -1  -9  10    6.56    1.50
  -1  -9  10    6.12    1.47
  -1  -9  11  134.43    7.29
  -1  -9  11  128.28    7.21
  -1  -9  11  131.37    7.24
  -1  -9  12   34.51    2.87
  -1  -9  12   31.30    2.87
  -1  -9  13   15.00    1.67
  -1  -9  13   13.84    1.53
  -1  -9  14   11.93    1.18
  -1  -8  -6    0.67    0.59
  -1  -8  -6    0.77    0.72
  -1  -8  -5   66.69    5.54
  -1  -8  -4   60.21    5.83
  -1  -8  -4   65.92    5.77
  -1  -8  -3   12.88    2.60
  -1  -8  -3   14.28    2.94
  -1  -8  -2    7.93    2.17
  -1  -8  -2    5.52    2.06
  -1  -8  -2    7.44    1.66
  -1  -8  -2    3.85    2.64
  -1  -8  -2    7.86    3.11
  -1  -8  -1   22.50    5.47
  -1  -8  -1   17.32    2.62
  -1  -8  -1   15.19    3.00
  -1  -8  -1   20.95    6.23
  -1  -8  -1   23.61    5.32
  -1  -8  -1   21.18    5.46
  -1  -8   0  299.51   14.62
  -1  -8   0  268.42   14.39
  -1  -8   0  300.65   16.18
  -1  -8   0  334.99   23.20
  -1  -8   0  280.04   21.32
  -1  -8   0  259.53   24.59
  -1  -8   0  316.61   15.23
  -1  -8   0  335.64   24.50
  -1  -8   1    6.09    1.82
  -1  -8   1    5.60    1.73
  -1  -8   1    6.95    3.09
  -1  -8   1    6.70    2.81
  -1  -8   1    2.54    2.13
  -1  -8   1    6.93    2.10
  -1  -8   1    6.34    1.38
  -1  -8   1    1.18    1.41
  -1  -8   1    4.61    1.32
  -1  -8   2  164.76    9.97
  -1  -8   2  149.11    9.55
  -1  -8   2  159.45   10.49
  -1  -8   2  147.87   17.62
  -1  -8   2  173.51   18.94
  -1  -8   2  146.28   14.40
  -1  -8   3  193.90   11.06
  -1  -8   3  212.83   12.31
  -1  -8   3  229.24   11.37
  -1  -8   3  221.99   20.52
  -1  -8   4    7.93    1.83
  -1  -8   4    5.34    1.68
  -1  -8   4    3.15    2.17
  -1  -8   5   18.34    2.99
  -1  -8   5   14.97    2.25
  -1  -8   5   16.77    4.98
  -1  -8   5   11.47    4.32
  -1  -8   5   13.68    2.46
  -1  -8   6   38.19    7.90
  -1  -8   6   40.71    4.18
  -1  -8   6   41.82    4.49
  -1  -8   6   51.68    4.62
  -1  -8   6   42.12    7.58
  -1  -8   7   61.70   10.12
  -1  -8   7   62.05    5.29
  -1  -8   7   68.85    5.64
  -1  -8   7   81.90    6.01
  -1  -8   7   76.09    9.99
  -1  -8   7   70.08    5.30
  -1  -8   8   38.35    7.84
  -1  -8   8   36.04    6.50
  -1  -8   8   25.75    2.88
  -1  -8   9    1.36    0.81
  -1  -8   9    2.71    1.14
  -1  -8   9    2.60    1.01
  -1  -8  10   16.09    2.34
  -1  -8  11    1.45    0.71
  -1  -8  11   -0.18    0.68
  -1  -8  12   21.60    2.36
  -1  -8  12   25.82    2.76
  -1  -8  13   26.52    2.33
  -1  -8  13   26.22    2.53
  -1  -8  14    2.62    0.71
  -1  -7  -8   62.46    4.13
  -1  -7  -7    1.29    0.72
  -1  -7  -7    1.10    0.83
  -1  -7  -6  186.93   11.01
  -1  -7  -5   34.67    4.57
  -1  -7  -5   33.87    4.02
  -1  -7  -4    8.43    2.11
  -1  -7  -4    7.55    2.41
  -1  -7  -4    6.58    2.76
  -1  -7  -3  257.74   13.84
  -1  -7  -3  238.70   14.37
  -1  -7  -3  237.15   11.43
  -1  -7  -3  232.13   21.63
  -1  -7  -3  224.15   18.45
  -1  -7  -2  545.95   23.36
  -1  -7  -2  615.62   26.97
  -1  -7  -2  561.58   23.47
  -1  -7  -2  621.47   26.21
  -1  -7  -2  554.86   37.40
  -1  -7  -2  636.53   33.91
  -1  -7  -2  632.25   33.03
  -1  -7  -1  807.59   33.75
  -1  -7  -1  823.41   31.88
  -1  -7  -1  844.93   41.06
  -1  -7  -1  777.08   46.32
  -1  -7  -1  877.23   41.90
  -1  -7  -1  812.89   32.16
  -1  -7  -1  786.27   42.04
  -1  -7   0   14.40    2.34
  -1  -7   0   11.92    2.27
  -1  -7   0   18.66    6.04
  -1  -7   0   15.01    4.29
  -1  -7   0   16.67    4.32
  -1  -7   0   15.35    2.91
  -1  -7   0   15.84    2.70
  -1  -7   0   18.61    5.08
  -1  -7   1  270.09   18.53
  -1  -7   1  235.34   21.40
  -1  -7   1  241.64   12.38
  -1  -7   1  256.23   13.78
  -1  -7   1  250.24   13.25
  -1  -7   1  223.64   10.95
  -1  -7   1  278.93   22.41
  -1  -7   2    4.17    1.66
  -1  -7   2    2.19    1.17
  -1  -7   2    2.01    0.84
  -1  -7   2    4.14    2.16
  -1  -7   2    2.21    2.92
  -1  -7   3  406.69   18.80
  -1  -7   3  445.36   27.40
  -1  -7   3  474.28   20.40
  -1  -7   3  450.95   18.79
  -1  -7   4  261.25   12.98
  -1  -7   4  232.66   11.51
  -1  -7   4  241.77   11.32
  -1  -7   4  254.31   12.46
  -1  -7   4  267.50   21.91
  -1  -7   5   25.43    5.46
  -1  -7   5   22.33    2.76
  -1  -7   5   27.15    3.45
  -1  -7   5   19.93    2.78
  -1  -7   5   28.83    6.99
  -1  -7   5   23.80    3.13
  -1  -7   6  188.61    9.85
  -1  -7   6  198.97   10.74
  -1  -7   6  184.72   16.57
  -1  -7   6  191.66   18.81
  -1  -7   6  167.61    9.78
  -1  -7   7   86.44    6.36
  -1  -7   7   77.37   10.11
  -1  -7   7   78.63   11.90
  -1  -7   7   82.19    5.88
  -1  -7   8  281.17   13.20
  -1  -7   8  331.19   25.59
  -1  -7   8  333.48   14.96
  -1  -7   8  310.35   14.52
  -1  -7   8  310.02   21.10
  -1  -7   9   27.23    2.57
  -1  -7   9   25.71    2.72
  -1  -7   9   18.31    5.81
  -1  -7   9   25.74    3.25
  -1  -7   9   27.52    3.19
  -1  -7   9   24.89    3.02
  -1  -7  10   91.11    6.17
  -1  -7  10   95.73    6.50
  -1  -7  10   94.91    6.31
  -1  -7  10   93.30    5.42
  -1  -7  11   58.12    4.48
  -1  -7  11   59.26    4.86
  -1  -7  11   61.27    4.56
  -1  -7  11   56.96    3.90
  -1  -7  12   23.36    2.42
  -1  -7  12   21.42    2.66
  -1  -7  13    1.32    0.65
  -1  -7  14   33.96    2.71
  -1  -7  15   41.54    2.52
  -1  -6  -9  106.67    5.83
  -1  -6  -7   64.84    5.05
  -1  -6  -6    6.59    1.81
  -1  -6  -6    9.45    2.46
  -1  -6  -5  400.47   20.05
  -1  -6  -5  362.42   17.84
  -1  -6  -5  381.98   24.60
  -1  -6  -4  242.48   14.29
  -1  -6  -4  234.90   12.84
  -1  -6  -4  244.17   18.52
  -1  -6  -4  189.87   19.13
  -1  -6  -3  196.53    9.70
  -1  -6  -3  196.48   12.45
  -1  -6  -3  196.58   11.46
  -1  -6  -3  190.22   15.87
  -1  -6  -3  175.46   18.41
  -1  -6  -2  226.27   11.34
  -1  -6  -2  249.89   13.24
  -1  -6  -2  234.51   17.54
  -1  -6  -2  213.34   20.32
  -1  -6  -2  243.63   17.52
  -1  -6  -2  224.49   17.25
  -1  -6  -1   -1.03    1.73
  -1  -6  -1    3.23    2.17
  -1  -6  -1    1.87    1.48
  -1  -6  -1    4.26    1.26
  -1  -6  -1    3.84    2.23
  -1  -6  -1    5.34    1.81
  -1  -6  -1    3.10    1.08
  -1  -6   0  721.88   33.39
  -1  -6   0  668.64   26.36
  -1  -6   0  635.75   27.23
  -1  -6   0  702.78   28.15
  -1  -6   0  693.65   27.21
  -1  -6   0  686.60   33.17
  -1  -6   0  674.39   38.56
  -1  -6   0  642.53   25.00
  -1  -6   0  703.21   37.08
  -1  -6   1   93.98    6.96
  -1  -6   1   97.29    6.79
  -1  -6   1   84.15   11.37
  -1  -6   1   82.48    5.13
  -1  -6   1   90.56    9.19
  -1  -6   2  272.16   21.93
  -1  -6   2  279.05   12.69
  -1  -6   2  299.72   14.45
  -1  -6   2  283.63   18.54
  -1  -6   2  328.10   15.36
  -1  -6   3 1073.64   39.02
  -1  -6   3 1104.66   40.00
  -1  -6   3 1129.08   41.22
  -1  -6   3 1011.80   40.15
  -1  -6   3 1104.00   50.38
  -1  -6   3 1129.49   41.95
  -1  -6   4  337.47   14.23
  -1  -6   4  351.60   15.17
  -1  -6   4  362.50   15.97
  -1  -6   4  296.86   13.96
  -1  -6   4  377.99   25.87
  -1  -6   4  339.92   15.60
  -1  -6   5  198.17   10.30
  -1  -6   5  186.03    9.47
  -1  -6   5  178.23    9.63
  -1  -6   5  206.54   19.05
  -1  -6   5  170.38    9.66
  -1  -6   6  117.30    7.24
  -1  -6   6  132.33    7.71
  -1  -6   6  135.03   15.09
  -1  -6   6  121.34   12.37
  -1  -6   6  146.40    8.32
  -1  -6   7 1260.87   59.07
  -1  -6   7 1083.12   42.49
  -1  -6   7 1145.71   51.73
  -1  -6   7 1269.75   44.26
  -1  -6   7 1146.92   43.38
  -1  -6   8  387.60   16.80
  -1  -6   8  384.79   28.76
  -1  -6   8  421.75   18.18
  -1  -6   8  443.06   17.69
  -1  -6   8  396.23   17.61
  -1  -6   8  383.30   17.38
  -1  -6   8  395.79   23.59
  -1  -6   9   90.60    6.19
  -1  -6   9   91.05    6.54
  -1  -6   9   92.87    5.49
  -1  -6   9   95.17    6.32
  -1  -6  10   13.44    1.88
  -1  -6  10   12.77    2.25
  -1  -6  10   15.08    2.23
  -1  -6  10   16.03    2.30
  -1  -6  10   13.73    4.71
  -1  -6  11  162.66    8.55
  -1  -6  11  161.87    8.48
  -1  -6  11  176.81   17.42
  -1  -6  13    3.16    0.98
  -1  -6  14   61.15    3.96
  -1  -6  15    2.47    0.66
  -1  -5 -10    4.29    0.96
  -1  -5 -10    5.25    1.14
  -1  -5  -9   32.22    3.46
  -1  -5  -8   30.84    3.10
  -1  -5  -8   33.17    4.04
  -1  -5  -8   26.61    3.10
  -1  -5  -7   43.20    4.16
  -1  -5  -7   33.15    3.82
  -1  -5  -6  137.96    8.67
  -1  -5  -6  113.95   12.35
  -1  -5  -6  132.00    8.63
  -1  -5  -5    9.98    2.61
  -1  -5  -5    6.73    2.81
  -1  -5  -5   14.44    4.42
  -1  -5  -5    9.60    2.17
  -1  -5  -5    7.96    1.94
  -1  -5  -4   49.51    4.78
  -1  -5  -4   48.90    5.48
  -1  -5  -4   51.79    8.26
  -1  -5  -4   52.50    7.54
  -1  -5  -4   40.27    7.81
  -1  -5  -4   51.77    4.99
  -1  -5  -3    6.97    1.79
  -1  -5  -3    8.83    3.49
  -1  -5  -3    7.89    3.07
  -1  -5  -3    4.41    2.25
  -1  -5  -3    6.87    2.27
  -1  -5  -3    6.13    1.31
  -1  -5  -3    8.94    2.35
  -1  -5  -2  215.33   18.47
  -1  -5  -2  224.25   15.45
  -1  -5  -2  232.96   16.21
  -1  -5  -2  220.29   15.05
  -1  -5  -2  232.59   15.75
  -1  -5  -2  224.86   12.46
  -1  -5  -2  191.70    9.72
  -1  -5  -2  205.68   11.17
  -1  -5  -1  573.36   23.32
  -1  -5  -1  641.16   26.32
  -1  -5  -1  593.02   23.78
  -1  -5  -1  625.75   34.69
  -1  -5  -1  645.12   29.98
  -1  -5  -1  611.42   31.24
  -1  -5  -1  650.30   29.84
  -1  -5   0  274.74   16.00
  -1  -5   0  266.09   12.22
  -1  -5   0  264.97   19.82
  -1  -5   0  246.49   11.48
  -1  -5   0  259.37   13.11
  -1  -5   0  263.86   12.81
  -1  -5   0  242.75   10.60
  -1  -5   0  265.55   18.53
  -1  -5   1  100.68   11.52
  -1  -5   1   95.27    5.37
  -1  -5   1  111.04    7.14
  -1  -5   1  104.33    8.57
  -1  -5   1  114.52    6.98
  -1  -5   2  215.47   10.08
  -1  -5   2  247.78   12.07
  -1  -5   2  248.21   12.25
  -1  -5   2  232.26   15.51
  -1  -5   3  618.14   23.46
  -1  -5   3  627.54   24.09
  -1  -5   3  646.10   25.05
  -1  -5   3  647.52   33.08
  -1  -5   4  511.83   20.42
  -1  -5   4  515.03   21.00
  -1  -5   4  556.31   22.09
  -1  -5   4  547.45   31.99
  -1  -5   4  530.81   21.78
  -1  -5   5   33.23    3.26
  -1  -5   5   44.06    8.41
  -1  -5   5   33.40    3.34
  -1  -5   5   34.79    6.11
  -1  -5   5   38.93    3.44
  -1  -5   6  177.72   17.42
  -1  -5   6  159.66    8.61
  -1  -5   6  167.06   13.83
  -1  -5   6  163.79    9.29
  -1  -5   6  184.62    9.61
  -1  -5   7   16.56    5.22
  -1  -5   7   12.88    2.22
  -1  -5   7   16.87    2.56
  -1  -5   7   14.00    3.49
  -1  -5   8  165.32    8.95
  -1  -5   8  173.87    9.46
  -1  -5   8  149.15    7.84
  -1  -5   8  168.42    8.95
  -1  -5   8  179.06   12.87
  -1  -5   9   13.19    1.72
  -1  -5   9   12.12    1.82
  -1  -5   9    9.82    1.81
  -1  -5  10   17.68    2.22
  -1  -5  10   22.68    6.03
  -1  -5  10   17.82    2.33
  -1  -5  10   17.79    2.34
  -1  -5  11   96.12    6.74
  -1  -5  11   98.53    5.89
  -1  -5  11  106.73    6.15
  -1  -5  12    3.12    1.19
  -1  -5  12    3.03    1.10
  -1  -5  13   38.34    2.94
  -1  -5  14    5.34    1.20
  -1  -5  14    5.88    1.09
  -1  -5  14    4.68    1.06
  -1  -5  15   56.21    3.27
  -1  -4 -11    0.23    0.42
  -1  -4 -10  181.91    9.09
  -1  -4 -10  162.16    8.44
  -1  -4  -9   20.34    3.04
  -1  -4  -9   20.28    2.75
  -1  -4  -8   48.44    4.20
  -1  -4  -8   46.19    5.18
  -1  -4  -8   46.53    4.62
  -1  -4  -7  157.33   10.67
  -1  -4  -7  137.22    8.52
  -1  -4  -7  142.59   13.48
  -1  -4  -7  156.59   17.43
  -1  -4  -7  146.32    9.40
  -1  -4  -6  303.15   14.30
  -1  -4  -6  328.07   24.65
  -1  -4  -6  251.50   19.26
  -1  -4  -6  276.19   14.71
  -1  -4  -5  497.59   21.06
  -1  -4  -5  564.86   32.23
  -1  -4  -5  497.04   27.36
  -1  -4  -5  482.93   29.00
  -1  -4  -5  454.82   21.55
  -1  -4  -4    0.99    1.24
  -1  -4  -4    2.79    0.82
  -1  -4  -4    1.77    1.21
  -1  -4  -4    3.81    2.21
  -1  -4  -4    1.74    1.19
  -1  -4  -4    3.21    1.25
  -1  -4  -3  495.78   24.64
  -1  -4  -3  455.90   23.71
  -1  -4  -3  531.41   26.70
  -1  -4  -3  421.19   22.33
  -1  -4  -3  465.30   19.54
  -1  -4  -3  496.52   21.34
  -1  -4  -3  426.88   17.74
  -1  -4  -2   41.17    5.78
  -1  -4  -2   47.80    5.72
  -1  -4  -2   44.06    5.57
  -1  -4  -2   38.51    6.81
  -1  -4  -2   36.49    5.19
  -1  -4  -2   45.13    4.57
  -1  -4  -2   35.15    2.93
  -1  -4  -2   42.73    3.86
  -1  -4  -1  892.00   42.19
  -1  -4  -1  993.46   38.95
  -1  -4  -1  900.78   39.13
  -1  -4  -1  880.49   37.08
  -1  -4  -1  848.43   32.05
  -1  -4   0  408.29   16.61
  -1  -4   0  465.96   23.90
  -1  -4   0  450.12   25.48
  -1  -4   1  647.42   28.81
  -1  -4   1  710.46   34.63
  -1  -4   2  978.59   37.69
  -1  -4   2  862.11   39.27
  -1  -4   3    0.60    1.24
  -1  -4   4  174.08    8.32
  -1  -4   4  211.27   15.69
  -1  -4   4  172.90   15.52
  -1  -4   5    3.90    1.16
  -1  -4   5    2.98    1.01
  -1  -4   5    3.66    1.91
  -1  -4   5    3.92    2.60
  -1  -4   6 1162.56   44.19
  -1  -4   6 1228.95   44.46
  -1  -4   6 1134.88   50.35
  -1  -4   7   99.29    6.41
  -1  -4   7   98.36    6.28
  -1  -4   7   95.97    6.13
  -1  -4   7  100.73    9.26
  -1  -4   8    6.29    2.81
  -1  -4   8    5.29    3.33
  -1  -4   8    7.93    1.65
  -1  -4   8    9.78    1.89
  -1  -4   8    9.81    1.48
  -1  -4   9   20.43    2.19
  -1  -4   9   15.73    2.16
  -1  -4   9   21.65    2.92
  -1  -4   9   20.73    2.46
  -1  -4   9   17.27    2.53
  -1  -4   9   17.32    2.32
  -1  -4   9   19.78    5.70
  -1  -4   9   21.53    5.13
  -1  -4  10   92.25   12.94
  -1  -4  10  104.90   12.18
  -1  -4  10  116.04    6.06
  -1  -4  10   99.69    6.91
  -1  -4  10  110.64    7.26
  -1  -4  11  163.79    9.66
  -1  -4  11  168.45    9.66
  -1  -4  12   72.73    4.90
  -1  -4  12   73.90    5.36
  -1  -4  14    1.78    0.81
  -1  -4  15   20.20    1.75
  -1  -4  15   23.48    1.82
  -1  -3 -11   59.92    4.26
  -1  -3 -11   60.40    4.32
  -1  -3 -11   63.78    4.34
  -1  -3 -10   35.27    3.66
  -1  -3 -10   32.13    3.48
  -1  -3  -9  211.25   11.97
  -1  -3  -9  208.53   11.56
  -1  -3  -8  189.52   10.18
  -1  -3  -8  204.30   12.16
  -1  -3  -8  201.91   11.56
  -1  -3  -7   77.06    6.95
  -1  -3  -7   74.85    5.62
  -1  -3  -7   76.99   11.92
  -1  -3  -7   67.78    9.13
  -1  -3  -7   75.64    6.40
  -1  -3  -6  409.90   19.56
  -1  -3  -6  379.42   17.08
  -1  -3  -6  376.49   23.20
  -1  -3  -6  416.37   28.55
  -1  -3  -6  380.51   18.39
  -1  -3  -5   14.63    2.23
  -1  -3  -5   13.32    3.65
  -1  -3  -5   16.85    3.86
  -1  -3  -5   15.25    4.73
  -1  -3  -5   13.70    2.51
  -1  -3  -4 1056.97   38.69
  -1  -3  -4 1010.55   36.95
  -1  -3  -4 1145.16   48.47
  -1  -3  -4 1102.33   44.62
  -1  -3  -4 1056.41   47.58
  -1  -3  -4 1000.31   40.08
  -1  -3  -3  278.81   17.08
  -1  -3  -3  235.07   14.69
  -1  -3  -3  251.54   13.96
  -1  -3  -3  247.02   11.48
  -1  -3  -3  264.95   12.98
  -1  -3  -3  238.37   10.34
  -1  -3  -2 2148.17   87.24
  -1  -3  -2 2364.53   85.30
  -1  -3  -2 2305.09   83.20
  -1  -3  -2 2213.33   83.14
  -1  -3  -2 2281.30   79.24
  -1  -3  -1 1087.66   45.06
  -1  -3  -1 1182.04   45.46
  -1  -3  -1 1125.37   48.38
  -1  -3   0  296.06   16.24
  -1  -3   0  254.09   17.32
  -1  -3   1  659.94   28.56
  -1  -3   1  703.07   27.86
  -1  -3   1  702.62   31.44
  -1  -3   1  677.14   33.43
  -1  -3   2  327.83   17.58
  -1  -3   3 3237.03  113.17
  -1  -3   3 2842.54  110.46
  -1  -3   4  506.51   27.43
  -1  -3   4  493.96   27.24
  -1  -3   5  712.61   33.67
  -1  -3   5  713.66   38.02
  -1  -3   6  378.24   16.39
  -1  -3   6  383.63   16.82
  -1  -3   6  424.97   17.26
  -1  -3   6  362.95   20.71
  -1  -3   6  383.02   16.61
  -1  -3   7  566.83   22.49
  -1  -3   7  568.34   22.83
  -1  -3   7  537.21   21.84
  -1  -3   7  528.20   21.81
  -1  -3   7  575.99   21.94
  -1  -3   7  609.51   35.48
  -1  -3   8  931.95   32.30
  -1  -3   8  867.86   33.96
  -1  -3   8  823.04   32.67
  -1  -3   8  884.16   33.84
  -1  -3   8  856.24   32.96
  -1  -3   8  886.04   33.35
  -1  -3   8  983.34   49.01
  -1  -3   9   61.72    4.82
  -1  -3   9   63.06   10.07
  -1  -3   9   60.47    4.11
  -1  -3   9   57.17    4.87
  -1  -3   9   52.04    4.69
  -1  -3  10  499.40   20.82
  -1  -3  10  450.33   20.52
  -1  -3  10  455.31   20.72
  -1  -3  10  497.68   20.28
  -1  -3  10  521.52   19.47
  -1  -3  11   15.19    4.84
  -1  -3  11   16.92    2.41
  -1  -3  11   19.98    2.17
  -1  -3  11   16.19    2.59
  -1  -3  11   13.17    2.25
  -1  -3  12  230.36   11.68
  -1  -3  12  226.80   11.15
  -1  -3  13    3.78    1.06
  -1  -3  13    3.23    0.91
  -1  -3  13    4.82    1.32
  -1  -3  14   52.63    3.55
  -1  -3  14   46.79    3.45
  -1  -3  15   89.35    4.09
  -1  -2 -12   28.01    2.50
  -1  -2 -12   26.26    2.34
  -1  -2 -12   27.89    2.60
  -1  -2 -11    1.91    0.91
  -1  -2 -11    3.03    1.08
  -1  -2 -11    2.84    1.05
  -1  -2 -10   58.10    5.06
  -1  -2 -10   52.48    4.89
  -1  -2  -9   11.16    2.41
  -1  -2  -9   10.49    4.16
  -1  -2  -9   13.14    2.57
  -1  -2  -8   27.83    3.87
  -1  -2  -8   34.49    4.15
  -1  -2  -7    8.73    2.24
  -1  -2  -7    6.57    1.85
  -1  -2  -7    5.10    1.34
  -1  -2  -6  137.60    9.08
  -1  -2  -6  152.68   12.77
  -1  -2  -6  162.13    9.96
  -1  -2  -6  154.82   13.20
  -1  -2  -5 1611.43   53.78
  -1  -2  -5 1421.72   51.02
  -1  -2  -5 1227.12   56.13
  -1  -2  -5 1496.38   57.96
  -1  -2  -5 1327.26   52.38
  -1  -2  -4   34.44    3.73
  -1  -2  -4   43.49    5.80
  -1  -2  -4   35.37    4.84
  -1  -2  -4   32.33    5.66
  -1  -2  -4   30.45    3.55
  -1  -2  -4   35.69    3.13
  -1  -2  -3    9.92    2.36
  -1  -2  -3   11.36    2.93
  -1  -2  -3    9.49    2.06
  -1  -2  -2    8.49    2.50
  -1  -2  -2   10.50    2.53
  -1  -2  -2   11.19    2.23
  -1  -2  -1  410.60   18.79
  -1  -2  -1  368.72   20.41
  -1  -2  -1  401.89   17.72
  -1  -2  -1  373.19   18.24
  -1  -2   0 1002.30   36.26
  -1  -2   0  957.18   38.40
  -1  -2   1  219.71   10.16
  -1  -2   1  199.90   12.14
  -1  -2   1  196.21   11.13
  -1  -2   2 1486.43   56.29
  -1  -2   3   92.40    8.30
  -1  -2   3   91.80    8.17
  -1  -2   4 1768.03   69.76
  -1  -2   4 1827.66   70.15
  -1  -2   5  347.75   19.36
  -1  -2   5  345.35   21.91
  -1  -2   6  227.27   11.00
  -1  -2   6  245.87   11.49
  -1  -2   6  202.23   12.89
  -1  -2   6  230.61   10.78
  -1  -2   6  235.41   19.02
  -1  -2   7  584.05   23.68
  -1  -2   7  572.36   23.82
  -1  -2   7  578.10   23.00
  -1  -2   7  571.10   23.13
  -1  -2   8    8.35    1.75
  -1  -2   8   10.73    1.63
  -1  -2   8   10.24    2.03
  -1  -2   8   14.62    2.29
  -1  -2   9  242.69   12.30
  -1  -2   9  235.94   12.22
  -1  -2   9  258.26   12.10
  -1  -2   9  253.40   11.22
  -1  -2  10    8.13    1.77
  -1  -2  10    7.40    1.53
  -1  -2  10    7.12    1.73
  -1  -2  11  169.24    9.54
  -1  -2  11  151.92    8.71
  -1  -2  11  161.20    8.05
  -1  -2  12  259.95   12.19
  -1  -2  12  266.54   12.89
  -1  -2  12  272.24   12.98
  -1  -2  12  257.05   11.14
  -1  -2  13   36.15    3.06
  -1  -2  13   33.42    3.24
  -1  -2  14   58.40    3.68
  -1  -2  14   61.45    3.82
  -1  -2  15    3.44    0.62
  -1  -1 -13   41.78    3.00
  -1  -1 -12   12.63    1.86
  -1  -1 -12   14.75    1.84
  -1  -1 -12   13.01    1.99
  -1  -1 -11    3.87    1.25
  -1  -1 -11    2.89    1.15
  -1  -1 -11    5.16    1.47
  -1  -1 -10  259.77   13.16
  -1  -1 -10  284.20   22.40
  -1  -1 -10  234.23   20.17
  -1  -1 -10  248.63   13.19
  -1  -1  -9  341.91   16.89
  -1  -1  -9  362.18   27.16
  -1  -1  -9  375.42   26.96
  -1  -1  -9  345.32   15.59
  -1  -1  -9  368.16   17.29
  -1  -1  -8    7.46    1.91
  -1  -1  -8   10.00    3.89
  -1  -1  -8    7.49    1.94
  -1  -1  -8    6.22    1.45
  -1  -1  -7  331.79   15.36
  -1  -1  -7  347.46   16.63
  -1  -1  -7  367.46   16.98
  -1  -1  -7  362.00   15.40
  -1  -1  -7  387.60   22.22
  -1  -1  -6    4.75    1.18
  -1  -1  -6    5.20    1.61
  -1  -1  -6    3.46    0.95
  -1  -1  -6    2.28    1.66
  -1  -1  -6    2.74    2.17
  -1  -1  -6    2.60    1.15
  -1  -1  -6    1.77    1.21
  -1  -1  -5  360.92   17.07
  -1  -1  -5  418.89   24.74
  -1  -1  -5  377.60   20.60
  -1  -1  -5  405.69   21.76
  -1  -1  -5  421.60   17.95
  -1  -1  -4  130.72    9.62
  -1  -1  -4  132.17   10.14
  -1  -1  -4  134.96    7.99
  -1  -1  -4  134.23    7.96
  -1  -1  -3   36.97    3.83
  -1  -1  -3   42.41    4.62
  -1  -1  -3   39.24    4.43
  -1  -1  -2  841.64   32.07
  -1  -1  -2  771.05   30.29
  -1  -1  -2  860.61   33.99
  -1  -1  -1  108.96    7.26
  -1  -1  -1  106.98    6.51
  -1  -1  -1  110.28    6.66
  -1  -1   0  661.66   24.55
  -1  -1   0  629.32   26.40
  -1  -1   0  698.89   24.70
  -1  -1   1  938.14   32.82
  -1  -1   1  848.08   35.48
  -1  -1   2 5130.62  176.43
  -1  -1   2 5054.57  176.46
  -1  -1   3   30.81    4.03
  -1  -1   4  480.90   22.87
  -1  -1   4  510.66   24.58
  -1  -1   5    8.20    2.17
  -1  -1   5    8.57    2.88
  -1  -1   6  254.95   11.67
  -1  -1   6  290.42   12.82
  -1  -1   6  273.43   12.27
  -1  -1   7  285.54   13.66
  -1  -1   7  305.51   13.98
  -1  -1   7  299.72   14.04
  -1  -1   8  167.00    9.61
  -1  -1   8  176.02    9.96
  -1  -1   8  176.10    9.72
  -1  -1   8  193.71    8.96
  -1  -1   9    9.11    1.94
  -1  -1   9    7.97    1.92
  -1  -1   9    9.38    1.91
  -1  -1   9   10.29    1.76
  -1  -1   9    6.36    1.75
  -1  -1  10   51.18    4.93
  -1  -1  10   55.36    4.56
  -1  -1  10   55.92    5.14
  -1  -1  10   59.76    4.35
  -1  -1  11    3.10    1.50
  -1  -1  11    2.06    1.14
  -1  -1  11    4.95    1.48
  -1  -1  11    3.18    1.12
  -1  -1  11    4.57    1.38
  -1  -1  12   33.14    3.58
  -1  -1  12   30.06    3.37
  -1  -1  12   28.69    3.28
  -1  -1  12   30.10    3.14
  -1  -1  13    4.61    1.17
  -1  -1  13    4.56    1.18
  -1  -1  14    7.42    1.12
  -1  -1  14    5.32    0.91
  -1   0 -13   66.11    4.17
  -1   0 -12   31.40    3.17
  -1   0 -12   32.65    2.94
  -1   0 -11  122.43    7.00
  -1   0 -11  114.47    7.22
  -1   0 -11  121.65    7.58
  -1   0 -10  366.63   16.44
  -1   0 -10  402.01   27.53
  -1   0 -10  351.66   25.49
  -1   0 -10  359.76   16.93
  -1   0 -10  388.19   17.36
  -1   0  -9    0.67    0.84
  -1   0  -9    0.99    1.17
  -1   0  -9    0.26    0.83
  -1   0  -9    0.26    0.68
  -1   0  -8  374.56   16.21
  -1   0  -8  374.93   26.78
  -1   0  -8  412.71   26.55
  -1   0  -8  341.16   21.75
  -1   0  -8  338.82   16.47
  -1   0  -7   58.71    5.02
  -1   0  -7   56.64    4.56
  -1   0  -7   55.01    9.23
  -1   0  -7   67.88    8.92
  -1   0  -7   61.83    7.58
  -1   0  -7   60.92    4.40
  -1   0  -7   58.24    4.95
  -1   0  -6 1307.08   47.07
  -1   0  -6 1281.93   46.26
  -1   0  -6 1248.63   58.16
  -1   0  -6 1211.55   52.47
  -1   0  -6 1270.53   45.63
  -1   0  -6 1246.62   46.81
  -1   0  -5 1185.52   43.96
  -1   0  -5 1219.10   43.94
  -1   0  -5 1123.00   48.29
  -1   0  -5 1235.80   52.67
  -1   0  -4  230.87   11.41
  -1   0  -4  206.69   13.04
  -1   0  -4  222.25   14.76
  -1   0  -3  326.36   15.18
  -1   0  -3  309.59   16.29
  -1   0  -3  334.49   15.20
  -1   0  -3  351.33   17.44
  -1   0  -2 1594.41   58.14
  -1   0  -2 1658.45   60.77
  -1   0  -2 1720.52   60.16
  -1   0  -2 1833.84   61.80
  -1   0  -2 1697.85   60.61
  -1   0  -1 9846.45  333.30
  -1   0  -1 9999.00  332.28
  -1   0  -1 9683.30  331.80
  -1   0   0   67.12    4.54
  -1   0   0   59.47    3.64
  -1   0   1   26.28    1.64
  -1   0   1   21.90    1.50
  -1   0   2  444.24   18.35
  -1   0   2  459.09   15.77
  -1   0   2  421.12   19.78
  -1   0   3  899.10   33.14
  -1   0   3  871.86   35.52
  -1   0   4 1344.64   48.33
  -1   0   4 1351.57   51.96
  -1   0   5  103.00    6.37
  -1   0   5   89.01    6.96
  -1   0   6 1559.42   57.52
  -1   0   6 1676.06   58.22
  -1   0   6 1549.31   57.82
  -1   0   7   15.67    2.50
  -1   0   7   20.03    2.81
  -1   0   7   18.25    2.33
  -1   0   7   17.98    2.79
  -1   0   8  749.20   31.54
  -1   0   8  785.00   30.90
  -1   0   8  790.73   31.76
  -1   0   8  844.43   30.37
  -1   0   9   36.76    4.20
  -1   0   9   43.13    4.38
  -1   0   9   39.71    3.58
  -1   0   9   27.59    3.79
  -1   0  10  140.86    9.06
  -1   0  10  140.09    8.92
  -1   0  10  146.86    9.34
  -1   0  10  157.30    8.02
  -1   0  11  208.19   11.34
  -1   0  11  203.27   10.97
  -1   0  11  199.86   10.90
  -1   0  11  200.88   10.82
  -1   0  11  180.69   10.44
  -1   0  11  206.55    9.76
  -1   0  12   12.13    2.18
  -1   0  12   14.28    2.10
  -1   0  12    9.42    1.82
  -1   0  12   12.28    2.13
  -1   0  13   44.29    3.29
  -1   0  13   44.96    3.39
  -1   0  14   16.68    1.53
  -1   1 -13   38.15    3.27
  -1   1 -13   29.20    2.80
  -1   1 -12    6.07    1.36
  -1   1 -12    6.63    1.53
  -1   1 -11   23.17    2.85
  -1   1 -11   21.85    3.06
  -1   1 -11   22.54    2.75
  -1   1 -11   23.53    2.98
  -1   1 -10    2.41    1.27
  -1   1 -10    4.19    1.32
  -1   1 -10    1.84    1.54
  -1   1 -10    0.46    0.72
  -1   1 -10    2.95    1.20
  -1   1  -9  781.51   31.50
  -1   1  -9  788.98   30.94
  -1   1  -9  797.94   42.51
  -1   1  -9  814.97   42.09
  -1   1  -9  738.88   38.76
  -1   1  -9  769.91   30.85
  -1   1  -9  808.50   31.24
  -1   1  -8   40.72    3.88
  -1   1  -8   36.40    3.90
  -1   1  -8   32.29    6.75
  -1   1  -8   43.21    7.55
  -1   1  -8   40.56    6.38
  -1   1  -8   39.39    3.86
  -1   1  -7   20.39    2.58
  -1   1  -7   20.54    5.21
  -1   1  -7   26.08    5.56
  -1   1  -7   14.13    3.55
  -1   1  -7   25.30    2.85
  -1   1  -7   18.15    2.51
  -1   1  -6   43.00    3.79
  -1   1  -6   43.53    3.79
  -1   1  -6   45.49    6.26
  -1   1  -6   50.02    7.77
  -1   1  -5  608.58   30.24
  -1   1  -5  565.73   31.34
  -1   1  -4  707.83   29.50
  -1   1  -4  702.26   33.39
  -1   1  -4  811.22   29.65
  -1   1  -4  693.83   32.12
  -1   1  -4  706.16   32.31
  -1   1  -3  116.20    7.95
  -1   1  -3  120.09    8.50
  -1   1  -3  143.10    7.93
  -1   1  -3  117.38    8.25
  -1   1  -3  128.14    9.42
  -1   1  -2 2486.16   94.23
  -1   1  -2 2485.78   92.71
  -1   1  -2 2748.15   93.52
  -1   1  -2 2883.62   93.69
  -1   1  -2 2813.32   96.29
  -1   1  -1 1240.40   47.82
  -1   1  -1 1361.63   46.79
  -1   1  -1 1205.01   47.48
  -1   1   0  159.80    9.46
  -1   1   0  155.57    6.56
  -1   1   1 1051.07   38.22
  -1   1   1 1002.69   39.97
  -1   1   2 1894.62   66.48
  -1   1   2 1844.33   69.01
  -1   1   3 2437.15   85.34
  -1   1   3 2456.06   89.30
  -1   1   4    8.53    1.49
  -1   1   5  797.80   30.33
  -1   1   5  882.65   32.21
  -1   1   6  158.76    9.09
  -1   1   6  156.12    9.12
  -1   1   6  139.78    7.84
  -1   1   7  840.89   35.22
  -1   1   7  853.31   34.81
  -1   1   7  921.70   33.81
  -1   1   7  940.99   33.73
  -1   1   7  861.96   33.31
  -1   1   8  799.49   33.85
  -1   1   8  871.08   34.77
  -1   1   8  871.57   34.10
  -1   1   8  877.72   33.40
  -1   1   8  882.57   32.63
  -1   1   8  801.25   32.91
  -1   1   9   29.58    3.89
  -1   1   9   36.81    4.12
  -1   1   9   27.75    3.62
  -1   1   9   32.88    3.38
  -1   1   9   33.24    4.02
  -1   1  10  101.82    7.52
  -1   1  10   97.47    7.07
  -1   1  10  114.06    7.71
  -1   1  10   92.71    6.38
  -1   1  10   94.72    7.26
  -1   1  11   93.27    6.66
  -1   1  11   76.32    5.90
  -1   1  11   77.74    5.25
  -1   1  11   87.53    5.95
  -1   1  12  180.48    9.20
  -1   1  12  188.36    9.28
  -1   1  12  183.56    9.81
  -1   1  13    2.44    0.77
  -1   2 -14   26.80    2.24
  -1   2 -14   24.18    2.24
  -1   2 -13   46.52    3.66
  -1   2 -13   39.85    3.58
  -1   2 -12   16.53    2.38
  -1   2 -12   15.98    2.30
  -1   2 -12   14.80    2.40
  -1   2 -11  168.38    8.84
  -1   2 -11  178.49    9.62
  -1   2 -11  170.31   15.45
  -1   2 -11  158.84    9.57
  -1   2 -11  164.94    9.40
  -1   2 -10    0.77    0.97
  -1   2 -10    2.41    1.07
  -1   2 -10    3.56    2.11
  -1   2 -10    3.76    1.33
  -1   2 -10    2.69    1.01
  -1   2 -10    2.43    1.66
  -1   2  -9   50.99    4.62
  -1   2  -9   52.05    4.73
  -1   2  -9   55.43    8.36
  -1   2  -9   55.88    8.61
  -1   2  -9   47.43    4.21
  -1   2  -9   49.61    4.44
  -1   2  -9   58.29    8.20
  -1   2  -8    6.33    1.58
  -1   2  -8   13.11    2.16
  -1   2  -8    6.18    2.60
  -1   2  -8    7.64    2.87
  -1   2  -8    5.61    1.40
  -1   2  -8    6.01    1.39
  -1   2  -8    4.33    2.10
  -1   2  -7  173.66    9.48
  -1   2  -7  194.50    9.72
  -1   2  -7  158.19   14.33
  -1   2  -7  174.58   14.56
  -1   2  -7  166.19    8.87
  -1   2  -7  185.40    9.12
  -1   2  -7  175.30   14.37
  -1   2  -6  543.15   21.01
  -1   2  -6  516.25   20.69
  -1   2  -6  512.61   20.08
  -1   2  -6  483.19   19.76
  -1   2  -6  496.08   27.11
  -1   2  -5  126.41    7.45
  -1   2  -5  150.03    8.84
  -1   2  -5  121.21   10.67
  -1   2  -5  134.95   12.06
  -1   2  -4   26.78    3.47
  -1   2  -4   22.73    3.93
  -1   2  -4   34.36    5.40
  -1   2  -3  172.80    9.84
  -1   2  -3  151.05    8.56
  -1   2  -3  140.11   10.33
  -1   2  -3  159.58   10.71
  -1   2  -2 1081.29   39.50
  -1   2  -2  949.97   40.30
  -1   2  -2  996.10   39.18
  -1   2  -1  573.17   23.86
  -1   2  -1  566.48   22.34
  -1   2  -1  553.90   25.17
  -1   2   0  253.77   11.18
  -1   2   1  138.50    8.20
  -1   2   2  107.17    8.99
  -1   2   2  116.60    7.22
  -1   2   3 1078.42   40.35
  -1   2   4  343.31   15.09
  -1   2   4  340.15   14.26
  -1   2   5    7.78    1.61
  -1   2   5   11.34    2.21
  -1   2   5   10.41    2.00
  -1   2   5   10.57    1.83
  -1   2   5    9.76    1.51
  -1   2   5    9.24    1.60
  -1   2   6  219.62   11.71
  -1   2   6  257.64   12.80
  -1   2   6  228.92   12.68
  -1   2   6  253.72   11.19
  -1   2   6  283.93   12.38
  -1   2   7   63.92    5.23
  -1   2   7   74.05    6.41
  -1   2   7   69.33    5.98
  -1   2   7   79.82    5.32
  -1   2   7   76.90    5.66
  -1   2   7   77.04    5.33
  -1   2   8   44.50    4.60
  -1   2   8   35.38    4.66
  -1   2   8   43.77    4.05
  -1   2   8   44.86    4.16
  -1   2   8   40.14    3.94
  -1   2   8   32.99    3.76
  -1   2   8   37.48    3.94
  -1   2   9    7.54    2.19
  -1   2   9    5.01    1.59
  -1   2   9    5.31    1.52
  -1   2   9    3.62    1.41
  -1   2  10  110.42    7.25
  -1   2  10   95.66    6.63
  -1   2  10   87.51    7.17
  -1   2  10  113.68    7.60
  -1   2  11   74.90    5.39
  -1   2  11   70.12    4.77
  -1   2  11   64.82    5.27
  -1   2  12   12.77    1.97
  -1   2  12   11.62    1.70
  -1   2  13   52.74    3.26
  -1   3 -14   80.16    4.70
  -1   3 -13    5.89    1.41
  -1   3 -13    5.09    1.29
  -1   3 -13    4.31    1.21
  -1   3 -12  137.48    7.89
  -1   3 -12  123.37    7.70
  -1   3 -12  133.22    7.95
  -1   3 -11    3.88    1.33
  -1   3 -11    6.97    2.92
  -1   3 -11    3.58    1.42
  -1   3 -11    3.40    1.35
  -1   3 -10  277.57   13.70
  -1   3 -10  265.41   13.53
  -1   3 -10  294.28   21.09
  -1   3 -10  270.34   12.65
  -1   3 -10  287.88   13.47
  -1   3 -10  272.74   21.03
  -1   3  -9  355.54   16.22
  -1   3  -9  340.51   15.99
  -1   3  -9  347.42   23.94
  -1   3  -9  347.16   15.68
  -1   3  -9  353.06   15.29
  -1   3  -9  367.94   22.52
  -1   3  -9  356.71   23.75
  -1   3  -8  150.14    8.61
  -1   3  -8  145.66    8.44
  -1   3  -8  145.86   14.13
  -1   3  -8  141.56    7.78
  -1   3  -8  150.09    8.12
  -1   3  -8  146.87   12.37
  -1   3  -8  143.55   13.28
  -1   3  -7  366.10   16.10
  -1   3  -7  363.70   15.79
  -1   3  -7  347.73   22.93
  -1   3  -7  337.87   20.62
  -1   3  -7  357.53   21.73
  -1   3  -7  347.14   14.93
  -1   3  -7  353.98   15.11
  -1   3  -6  111.35    6.27
  -1   3  -6  113.68    6.36
  -1   3  -6  126.25    7.51
  -1   3  -6  122.05    7.14
  -1   3  -6  103.25    9.68
  -1   3  -6  125.35   12.50
  -1   3  -6  113.87    7.88
  -1   3  -5 3167.35  109.98
  -1   3  -5 3137.22  109.30
  -1   3  -5 3213.29  121.93
  -1   3  -5 3096.68  111.79
  -1   3  -4    6.56    1.55
  -1   3  -4    7.63    2.40
  -1   3  -4    2.48    1.81
  -1   3  -4    7.87    2.18
  -1   3  -3  532.95   25.98
  -1   3  -3  528.45   26.37
  -1   3  -2  461.47   21.57
  -1   3  -2  524.88   23.55
  -1   3  -1 1062.73   40.99
  -1   3  -1 1111.02   43.48
  -1   3   0 1195.95   44.70
  -1   3   2 2192.65   79.31
  -1   3   3  138.25    7.77
  -1   3   3  124.89    6.86
  -1   3   3  132.47    8.45
  -1   3   3  130.08    7.80
  -1   3   4  233.86   10.91
  -1   3   4  241.59   12.08
  -1   3   4  221.91   12.51
  -1   3   4  230.62   11.71
  -1   3   5   52.32    4.27
  -1   3   5   49.75    5.21
  -1   3   5   54.01    4.75
  -1   3   5   55.89    4.27
  -1   3   6  345.10   16.40
  -1   3   6  362.68   17.89
  -1   3   6  336.24   15.84
  -1   3   6  342.74   17.29
  -1   3   6  378.91   15.18
  -1   3   6  372.43   16.14
  -1   3   6  361.55   15.44
  -1   3   6  350.74   15.28
  -1   3   7  440.94   20.23
  -1   3   7  443.58   20.60
  -1   3   7  479.12   22.08
  -1   3   7  496.03   19.41
  -1   3   7  474.60   19.55
  -1   3   7  457.42   19.86
  -1   3   7  475.49   19.83
  -1   3   8   22.95    3.61
  -1   3   8   23.65    3.33
  -1   3   8   21.61    3.65
  -1   3   8   20.46    2.78
  -1   3   8   18.18    2.87
  -1   3   8   22.47    3.13
  -1   3   9   89.22    6.52
  -1   3   9   85.89    7.45
  -1   3   9   93.72    7.38
  -1   3   9  100.82    6.80
  -1   3   9   77.84    6.55
  -1   3   9   82.46    6.66
  -1   3  10    2.61    1.18
  -1   3  10    2.25    1.29
  -1   3  10   -0.24    1.02
  -1   3  11  150.75    8.66
  -1   3  11  156.47    8.09
  -1   3  12   23.27    2.33
  -1   3  12   27.70    2.30
  -1   4 -14    5.91    1.13
  -1   4 -14    8.13    1.26
  -1   4 -13  150.25    8.09
  -1   4 -13  147.80    7.99
  -1   4 -12   55.63    4.59
  -1   4 -12   54.09    4.65
  -1   4 -12   54.09    4.59
  -1   4 -11   45.66    4.39
  -1   4 -11   42.97    4.20
  -1   4 -11   37.06    7.00
  -1   4 -11   39.96    3.98
  -1   4 -11   49.62    7.91
  -1   4 -10   83.13    6.28
  -1   4 -10   77.82    5.97
  -1   4 -10   91.61   11.30
  -1   4 -10   84.64    6.04
  -1   4 -10   90.62   11.21
  -1   4  -9  209.63   11.19
  -1   4  -9  215.69   11.03
  -1   4  -9  196.81   17.92
  -1   4  -9  209.45   10.67
  -1   4  -9  194.11   16.77
  -1   4  -8  511.46   20.59
  -1   4  -8  455.83   19.66
  -1   4  -8  483.16   29.64
  -1   4  -8  462.39   18.81
  -1   4  -8  440.99   19.19
  -1   4  -8  477.36   27.47
  -1   4  -7   49.39    4.53
  -1   4  -7   50.55    4.32
  -1   4  -7   50.05    8.48
  -1   4  -7   53.62    7.36
  -1   4  -7   48.53    3.72
  -1   4  -7   51.27    4.05
  -1   4  -6  657.69   25.49
  -1   4  -6  678.66   37.44
  -1   4  -6  662.76   28.36
  -1   4  -6  613.43   24.15
  -1   4  -6  627.55   24.67
  -1   4  -5   44.33    8.26
  -1   4  -5   54.06    3.97
  -1   4  -5   58.79    4.43
  -1   4  -4  565.02   23.14
  -1   4  -4  620.22   31.02
  -1   4  -4  594.40   31.72
  -1   4  -4  590.55   28.00
  -1   4  -3  390.57   20.92
  -1   4  -3  404.66   22.75
  -1   4  -2 1135.01   45.42
  -1   4  -1 2186.66   80.15
  -1   4   0  176.65   11.07
  -1   4   1  313.29   13.13
  -1   4   1  343.17   18.24
  -1   4   1  344.67   14.09
  -1   4   2   87.21    5.01
  -1   4   2   89.09    6.22
  -1   4   2   98.01    6.93
  -1   4   3 1502.64   54.40
  -1   4   3 1545.67   55.84
  -1   4   3 1384.28   56.97
  -1   4   3 1574.95   56.53
  -1   4   3 1530.07   53.34
  -1   4   3 1507.73   57.59
  -1   4   4  500.60   21.75
  -1   4   4  465.34   20.16
  -1   4   4  501.36   19.07
  -1   4   4  474.17   22.58
  -1   4   4  516.02   29.98
  -1   4   4  487.07   19.41
  -1   4   4  491.05   21.71
  -1   4   4  476.70   21.78
  -1   4   5  256.07   12.66
  -1   4   5  257.81   13.64
  -1   4   5  272.29   14.88
  -1   4   5  276.57   11.84
  -1   4   5  267.39   11.69
  -1   4   5  273.47   12.09
  -1   4   6  452.61   21.58
  -1   4   6  448.83   20.54
  -1   4   6  451.32   19.17
  -1   4   6  463.94   18.69
  -1   4   6  434.53   18.78
  -1   4   7  164.88   11.19
  -1   4   7  158.81   10.95
  -1   4   7  166.82   10.15
  -1   4   7  180.16    9.27
  -1   4   7  160.03    9.57
  -1   4   8  323.90   17.11
  -1   4   8  298.60   14.75
  -1   4   8  320.63   16.54
  -1   4   8  331.09   14.60
  -1   4   8  269.29   14.80
  -1   4   9    0.61    0.96
  -1   4   9    0.69    1.15
  -1   4   9    0.28    1.09
  -1   4   9   -0.22    0.84
  -1   4  10  199.94   10.81
  -1   4  10  224.22   10.47
  -1   4  10  204.89   11.06
  -1   4  11   40.28    3.49
  -1   4  11   42.22    3.43
  -1   4  12   23.76    1.78
  -1   4  12   26.50    1.92
  -1   5 -14    3.46    0.94
  -1   5 -14    3.50    0.88
  -1   5 -14    2.29    0.80
  -1   5 -13    0.17    0.64
  -1   5 -13    0.32    0.60
  -1   5 -13    0.18    0.61
  -1   5 -12    7.74    1.65
  -1   5 -12    8.03    1.77
  -1   5 -11   21.99    3.02
  -1   5 -11   22.22    2.88
  -1   5 -11   16.56    4.55
  -1   5 -11   20.05    5.23
  -1   5 -10   86.67    6.05
  -1   5 -10   84.35   10.49
  -1   5 -10   74.04    5.69
  -1   5 -10   91.47   11.67
  -1   5  -9   63.22    5.07
  -1   5  -9   58.37    8.74
  -1   5  -9   60.45    4.93
  -1   5  -9   76.77   10.63
  -1   5  -8   11.09    2.05
  -1   5  -8   14.46    4.15
  -1   5  -8   14.50    2.19
  -1   5  -8   10.09    3.80
  -1   5  -7   19.94    4.64
  -1   5  -7   15.87    3.20
  -1   5  -7   14.08    2.52
  -1   5  -7   15.67    2.35
  -1   5  -7   10.45    4.13
  -1   5  -6  180.62   10.44
  -1   5  -6  155.49    9.01
  -1   5  -6  187.54   18.96
  -1   5  -6  158.72    8.90
  -1   5  -5  757.57   31.28
  -1   5  -5  814.98   30.99
  -1   5  -5  765.95   43.52
  -1   5  -5  779.26   30.70
  -1   5  -4  345.38   15.51
  -1   5  -4  349.29   15.20
  -1   5  -4  394.64   25.29
  -1   5  -4  323.97   14.82
  -1   5  -4  361.44   21.99
  -1   5  -3   80.08    5.14
  -1   5  -3   73.22    5.04
  -1   5  -3   73.27    8.06
  -1   5  -3   74.16    4.78
  -1   5  -2   43.44    3.45
  -1   5  -2   39.37    5.85
  -1   5  -2   43.46    5.76
  -1   5  -2   40.68    3.26
  -1   5  -2   37.32    3.04
  -1   5  -1   65.48    4.10
  -1   5  -1   58.92    4.57
  -1   5  -1   62.75    4.25
  -1   5  -1   62.23    6.88
  -1   5  -1   63.45    4.20
  -1   5  -1   65.29    5.56
  -1   5  -1   56.95    8.43
  -1   5   0 1100.11   41.13
  -1   5   0 1009.60   42.70
  -1   5   0  985.98   36.68
  -1   5   0 1055.38   37.92
  -1   5   0  977.88   36.73
  -1   5   1   10.61    1.52
  -1   5   1   13.19    2.34
  -1   5   2  458.52   21.16
  -1   5   2  429.89   17.50
  -1   5   2  453.26   20.08
  -1   5   2  421.71   18.60
  -1   5   3   61.76    5.00
  -1   5   3   71.45    6.11
  -1   5   3   56.32    4.01
  -1   5   3   65.03    4.39
  -1   5   3   65.51    4.34
  -1   5   3   51.77    5.58
  -1   5   3   65.33    6.23
  -1   5   3   55.57    4.22
  -1   5   3   59.60    6.53
  -1   5   4  377.96   18.42
  -1   5   4  352.72   16.62
  -1   5   4  365.77   15.53
  -1   5   4  371.83   15.72
  -1   5   4  354.67   15.15
  -1   5   4  388.21   18.71
  -1   5   4  337.97   18.75
  -1   5   4  372.63   15.86
  -1   5   5   29.67    3.58
  -1   5   5   33.37    4.41
  -1   5   5   31.29    3.92
  -1   5   5   35.91    3.60
  -1   5   5   33.10    3.14
  -1   5   6   95.59    8.30
  -1   5   6  102.79    7.97
  -1   5   6  106.64    6.44
  -1   5   6  105.76    6.98
  -1   5   6   86.35    7.00
  -1   5   7  107.51    8.99
  -1   5   7  118.16    8.94
  -1   5   7  119.76    8.34
  -1   5   7  102.76    6.99
  -1   5   7  108.63    6.91
  -1   5   7  133.09    7.88
  -1   5   7  117.02    7.86
  -1   5   8   27.86    4.13
  -1   5   8   23.67    3.16
  -1   5   8   23.17    3.56
  -1   5   8   28.30    3.42
  -1   5   8   18.08    2.98
  -1   5   9  122.65    8.37
  -1   5   9  117.92    7.73
  -1   5   9  126.82    7.74
  -1   5   9   96.74    6.95
  -1   5  10    7.57    1.52
  -1   5  11   51.31    3.17
  -1   5  11   47.68    3.04
  -1   6 -14   69.95    4.28
  -1   6 -14   71.83    4.41
  -1   6 -13   62.98    4.46
  -1   6 -13   55.25    4.36
  -1   6 -13   57.03    4.03
  -1   6 -12    7.24    1.61
  -1   6 -12    3.78    1.16
  -1   6 -11   43.85    4.06
  -1   6 -11   38.31    3.74
  -1   6 -10  180.09    9.78
  -1   6 -10  193.82   18.42
  -1   6 -10  167.51    9.99
  -1   6 -10  171.96    9.46
  -1   6  -9  346.03   15.96
  -1   6  -9  370.96   27.36
  -1   6  -9  352.88   16.69
  -1   6  -9  349.58   15.79
  -1   6  -8   32.71    3.51
  -1   6  -8   35.61    7.99
  -1   6  -8   27.49    3.67
  -1   6  -8   31.91    3.40
  -1   6  -7  230.32   11.83
  -1   6  -7  258.67   13.19
  -1   6  -7  220.35   11.51
  -1   6  -7  233.44   15.45
  -1   6  -7  241.01   22.45
  -1   6  -6  227.24   23.11
  -1   6  -6  204.85   11.34
  -1   6  -6  218.83   10.04
  -1   6  -6  221.43   12.65
  -1   6  -6  206.75   11.03
  -1   6  -6  220.73   15.24
  -1   6  -6  214.73   18.40
  -1   6  -5  115.57    8.01
  -1   6  -5  115.83    7.47
  -1   6  -5  115.08    7.56
  -1   6  -5  135.86   14.07
  -1   6  -5  102.30    6.94
  -1   6  -4  218.39   10.71
  -1   6  -4  214.25   11.13
  -1   6  -4  201.95   10.54
  -1   6  -4  203.77   16.81
  -1   6  -4  194.02   10.10
  -1   6  -3  188.20   10.04
  -1   6  -3  161.57    8.88
  -1   6  -3  160.88    8.59
  -1   6  -3  153.23   13.54
  -1   6  -3  164.06    8.74
  -1   6  -3  163.03    8.30
  -1   6  -3  150.18    8.62
  -1   6  -2  977.82   36.27
  -1   6  -2  948.56   38.01
  -1   6  -2 1082.00   38.59
  -1   6  -2  993.01   36.92
  -1   6  -2  987.20   36.61
  -1   6  -2 1004.18   44.84
  -1   6  -2  987.06   36.76
  -1   6  -2  916.47   46.42
  -1   6  -1  111.92    6.13
  -1   6  -1   91.56    7.44
  -1   6  -1  100.02   10.08
  -1   6  -1  102.40    6.20
  -1   6  -1  110.65   13.91
  -1   6  -1   99.68    7.27
  -1   6  -1  110.65    7.27
  -1   6   0  390.42   16.97
  -1   6   0  357.30   17.49
  -1   6   0  348.82   21.63
  -1   6   0  348.96   15.44
  -1   6   0  356.51   15.24
  -1   6   0  389.28   19.55
  -1   6   1   29.09    2.92
  -1   6   1   29.17    4.00
  -1   6   1   29.28    2.73
  -1   6   1   28.47    3.09
  -1   6   1   28.26    2.76
  -1   6   1   24.69    2.79
  -1   6   1   32.60    5.95
  -1   6   2  323.33   15.38
  -1   6   2  335.07   16.95
  -1   6   2  339.50   14.02
  -1   6   2  311.61   13.60
  -1   6   2  312.85   14.67
  -1   6   2  303.02   13.71
  -1   6   2  287.40   13.92
  -1   6   2  320.02   17.75
  -1   6   2  322.42   14.09
  -1   6   3  505.43   22.67
  -1   6   3  522.01   21.66
  -1   6   3  530.05   23.21
  -1   6   3  574.05   25.48
  -1   6   3  577.31   26.28
  -1   6   3  562.33   22.13
  -1   6   3  520.68   26.95
  -1   6   4    8.73    1.83
  -1   6   4    6.99    1.89
  -1   6   4    5.83    1.94
  -1   6   4    8.96    1.72
  -1   6   4   14.18    3.12
  -1   6   4    8.22    2.59
  -1   6   5    7.02    1.90
  -1   6   5   10.97    2.72
  -1   6   5    6.86    2.23
  -1   6   5    6.90    2.04
  -1   6   5    8.71    1.91
  -1   6   6   76.96    7.08
  -1   6   6   68.02    6.45
  -1   6   6   68.11    5.58
  -1   6   6   62.17    5.73
  -1   6   7  240.34   14.16
  -1   6   7  248.41   13.57
  -1   6   7  226.10   12.63
  -1   6   7  225.45   12.21
  -1   6   8   60.60    5.89
  -1   6   8   50.28    4.47
  -1   6   8   57.73    5.10
  -1   6   8   68.34    5.02
  -1   6   8   50.33    4.82
  -1   6   9    5.31    1.33
  -1   6   9    3.31    1.26
  -1   6  10   56.15    3.37
  -1   6  10   46.43    3.33
  -1   7 -14   29.23    2.44
  -1   7 -13   28.95    2.83
  -1   7 -12   14.35    2.19
  -1   7 -12   12.34    2.12
  -1   7 -12   13.47    1.90
  -1   7 -11   31.37    3.47
  -1   7 -11   31.42    3.56
  -1   7 -11   28.13    3.02
  -1   7 -10  367.74   16.53
  -1   7 -10  389.66   25.50
  -1   7 -10  390.74   27.52
  -1   7 -10  383.62   17.17
  -1   7 -10  334.57   15.64
  -1   7  -9  107.24    7.11
  -1   7  -9  124.54   13.31
  -1   7  -9  100.40   13.71
  -1   7  -9  101.13    7.34
  -1   7  -9   96.29    6.43
  -1   7  -8  106.85    7.19
  -1   7  -8  100.39    6.58
  -1   7  -8  109.24    7.76
  -1   7  -8  102.13   12.37
  -1   7  -8   83.46   13.26
  -1   7  -7   55.43    5.23
  -1   7  -7   71.88    4.70
  -1   7  -7   60.63    4.47
  -1   7  -7   60.93    4.97
  -1   7  -7   72.28    6.31
  -1   7  -7   61.32    9.67
  -1   7  -7   64.53    5.40
  -1   7  -6  505.27   22.85
  -1   7  -6  545.88   20.93
  -1   7  -6  485.85   20.66
  -1   7  -6  494.02   21.67
  -1   7  -6  556.89   24.42
  -1   7  -6  516.21   22.68
  -1   7  -6  514.31   28.33
  -1   7  -5  726.39   30.36
  -1   7  -5  800.65   29.17
  -1   7  -5  718.14   30.58
  -1   7  -5  794.85   31.46
  -1   7  -5  756.93   42.16
  -1   7  -5  682.45   29.65
  -1   7  -4   98.47    6.88
  -1   7  -4   93.31    6.14
  -1   7  -4   94.04    6.73
  -1   7  -4   77.65   10.91
  -1   7  -4   99.97    6.61
  -1   7  -4  100.50    7.79
  -1   7  -4   90.50    6.82
  -1   7  -3  140.14    8.50
  -1   7  -3  159.16    8.89
  -1   7  -3  136.22   13.97
  -1   7  -3  154.36    8.49
  -1   7  -3  144.02    8.74
  -1   7  -3  154.17   10.03
  -1   7  -3  150.33    8.81
  -1   7  -2    7.53    1.58
  -1   7  -2   11.19    2.50
  -1   7  -2    6.95    1.67
  -1   7  -2   11.95    3.78
  -1   7  -2    7.71    1.76
  -1   7  -2    7.08    1.96
  -1   7  -1 1172.88   42.70
  -1   7  -1  982.22   41.68
  -1   7  -1 1099.74   40.02
  -1   7  -1  985.47   49.16
  -1   7  -1 1036.81   40.01
  -1   7  -1 1060.52   42.86
  -1   7  -1 1096.58   39.93
  -1   7   0  384.00   16.43
  -1   7   0  412.78   20.56
  -1   7   0  397.54   18.35
  -1   7   0  393.03   19.28
  -1   7   0  354.13   15.48
  -1   7   0  336.57   16.15
  -1   7   0  367.93   15.41
  -1   7   1  174.85    9.62
  -1   7   1  157.11    9.27
  -1   7   1  164.31    8.62
  -1   7   1  171.63    9.27
  -1   7   1  174.68    8.79
  -1   7   1  171.34   11.63
  -1   7   2  191.51    9.78
  -1   7   2  195.27   10.82
  -1   7   2  187.38   12.74
  -1   7   2  213.30   11.92
  -1   7   2  207.25   14.08
  -1   7   2  192.22   10.30
  -1   7   2  172.80   14.93
  -1   7   3   10.94    2.09
  -1   7   3   16.88    2.97
  -1   7   3   11.81    1.97
  -1   7   3   13.23    2.63
  -1   7   3   12.92    2.21
  -1   7   3   17.37    3.57
  -1   7   3   19.91    4.01
  -1   7   4  470.61   23.41
  -1   7   4  470.28   21.19
  -1   7   4  479.30   19.56
  -1   7   4  419.37   20.79
  -1   7   4  446.27   19.75
  -1   7   4  498.08   23.85
  -1   7   5    6.57    1.80
  -1   7   5    4.79    2.13
  -1   7   5    8.80    2.51
  -1   7   5   10.38    2.18
  -1   7   5    6.37    1.55
  -1   7   5    2.63    1.57
  -1   7   5    5.31    1.60
  -1   7   6  327.54   16.64
  -1   7   6  336.20   14.67
  -1   7   6  303.45   14.99
  -1   7   7   42.25    4.31
  -1   7   7   51.84    4.98
  -1   7   7   52.33    4.16
  -1   7   8   66.31    4.46
  -1   7   8   65.25    5.20
  -1   7   8   58.43    5.12
  -1   7   9   29.50    2.52
  -1   8 -14    6.88    1.10
  -1   8 -13   16.56    2.00
  -1   8 -13   17.69    2.11
  -1   8 -12   -0.18    0.59
  -1   8 -12    0.88    0.55
  -1   8 -12    1.33    0.75
  -1   8 -11   33.14    3.42
  -1   8 -11   26.87    2.97
  -1   8 -11   35.60    3.69
  -1   8 -10    5.24    1.49
  -1   8 -10    7.12    1.59
  -1   8 -10    9.01    1.96
  -1   8 -10    6.54    1.45
  -1   8  -9   84.91    6.18
  -1   8  -9   71.74    5.53
  -1   8  -9   75.77    5.25
  -1   8  -9   74.79    6.16
  -1   8  -8   39.11    4.26
  -1   8  -8   41.21    3.78
  -1   8  -8   47.64    4.92
  -1   8  -8   45.86    8.13
  -1   8  -8   45.91    4.40
  -1   8  -7  140.24    9.22
  -1   8  -7  155.86    8.00
  -1   8  -7  140.58    7.72
  -1   8  -7  145.38    9.81
  -1   8  -7  125.99   15.15
  -1   8  -7  132.98    8.81
  -1   8  -6   34.90    4.44
  -1   8  -6   35.41    3.44
  -1   8  -6   34.44    3.47
  -1   8  -6   30.12    3.73
  -1   8  -6   35.34    4.60
  -1   8  -6   30.21    7.38
  -1   8  -6   32.39    4.10
  -1   8  -6   26.31    5.38
  -1   8  -5    4.96    1.85
  -1   8  -5    8.60    2.29
  -1   8  -5    6.41    1.61
  -1   8  -5    7.33    1.70
  -1   8  -5    5.73    1.83
  -1   8  -5    6.07    1.94
  -1   8  -4  314.95   15.85
  -1   8  -4  344.74   16.27
  -1   8  -4  348.66   17.98
  -1   8  -4  297.56   14.60
  -1   8  -4  322.86   15.66
  -1   8  -4  331.19   25.50
  -1   8  -4  311.99   15.75
  -1   8  -4  320.26   14.74
  -1   8  -3   35.25    4.83
  -1   8  -3   33.14    3.86
  -1   8  -3   34.48    3.89
  -1   8  -3   38.88    7.92
  -1   8  -3   28.97    3.74
  -1   8  -3   33.65    3.81
  -1   8  -2  403.49   19.90
  -1   8  -2  353.15   18.31
  -1   8  -2  404.53   17.61
  -1   8  -2  386.07   26.84
  -1   8  -2  367.22   17.39
  -1   8  -2  375.55   16.94
  -1   8  -1  172.70   11.26
  -1   8  -1  189.56   10.61
  -1   8  -1  188.17   12.31
  -1   8  -1  197.94   10.72
  -1   8   0   92.23    8.22
  -1   8   0   83.46    6.67
  -1   8   0   91.70    8.49
  -1   8   0   78.89    6.13
  -1   8   0   86.03   11.80
  -1   8   1   32.89    4.40
  -1   8   1   32.51    4.92
  -1   8   1   22.69    3.16
  -1   8   1   33.28    5.46
  -1   8   1   29.18    3.48
  -1   8   1   28.09    2.98
  -1   8   2  162.62   12.53
  -1   8   2  200.77   11.96
  -1   8   2  198.13    9.85
  -1   8   2  180.44    9.67
  -1   8   2  204.64   14.35
  -1   8   2  194.92   10.58
  -1   8   2  154.89   14.46
  -1   8   2  195.14    9.95
  -1   8   3  258.89   16.23
  -1   8   3  282.19   14.71
  -1   8   3  250.35   12.40
  -1   8   3  274.93   17.02
  -1   8   3  264.66   13.25
  -1   8   3  275.25   13.02
  -1   8   4    0.89    0.93
  -1   8   4    0.44    1.05
  -1   8   4    0.90    1.00
  -1   8   4    1.80    1.33
  -1   8   4    1.34    0.96
  -1   8   5  113.60    8.70
  -1   8   5  103.25    8.77
  -1   8   5  128.04    7.56
  -1   8   5  118.18    6.76
  -1   8   5   95.59    7.47
  -1   8   6    3.43    1.36
  -1   8   6    3.65    1.62
  -1   8   6    1.98    0.93
  -1   8   6    1.25    0.79
  -1   8   6    2.88    1.17
  -1   8   7   73.53    5.01
  -1   8   7   83.54    5.33
  -1   9 -13   35.22    2.61
  -1   9 -13   35.41    2.80
  -1   9 -13   35.70    2.87
  -1   9 -12    1.84    0.77
  -1   9 -12    1.13    0.85
  -1   9 -11   29.99    3.13
  -1   9 -11   34.48    3.44
  -1   9 -10   21.90    2.83
  -1   9 -10   19.21    2.71
  -1   9  -9   40.73    4.12
  -1   9  -9   40.06    4.26
  -1   9  -8    3.24    1.40
  -1   9  -8    3.65    1.38
  -1   9  -8    3.79    1.35
  -1   9  -8    3.42    1.27
  -1   9  -7   11.17    2.01
  -1   9  -7    8.75    2.18
  -1   9  -7   10.13    1.85
  -1   9  -7    8.90    1.74
  -1   9  -7   11.55    4.33
  -1   9  -7   10.06    2.15
  -1   9  -7    6.12    1.87
  -1   9  -6  218.60   13.23
  -1   9  -6  261.12   14.35
  -1   9  -6  253.58   12.05
  -1   9  -6  241.99   11.84
  -1   9  -6  220.36   12.62
  -1   9  -6  268.77   14.43
  -1   9  -6  252.77   23.86
  -1   9  -6  253.07   13.46
  -1   9  -6  215.58   17.86
  -1   9  -5  104.33    8.33
  -1   9  -5  120.89    9.01
  -1   9  -5  115.58    8.73
  -1   9  -5  123.87    8.87
  -1   9  -5  119.80    7.56
  -1   9  -5  127.81    7.73
  -1   9  -5  125.29   15.81
  -1   9  -5  121.40    8.68
  -1   9  -5  132.05   13.30
  -1   9  -4   79.72    7.43
  -1   9  -4   76.20    5.75
  -1   9  -4   73.46    5.58
  -1   9  -4   66.22    5.41
  -1   9  -4   75.29    6.52
  -1   9  -4   64.96   10.94
  -1   9  -4   72.47    6.30
  -1   9  -3   49.83    6.18
  -1   9  -3   31.99    7.66
  -1   9  -3   40.76    4.48
  -1   9  -3   31.81    3.93
  -1   9  -3   43.02    4.62
  -1   9  -2   62.08    6.09
  -1   9  -2   70.44    6.00
  -1   9  -2   83.23    7.99
  -1   9  -2   65.12    6.00
  -1   9  -2   70.59    5.99
  -1   9  -2   67.76   10.87
  -1   9  -1  166.81   11.64
  -1   9  -1  149.51    9.67
  -1   9  -1  138.13    9.83
  -1   9  -1  158.52    9.18
  -1   9  -1  139.24   10.36
  -1   9  -1  157.19    9.61
  -1   9   0    7.58    2.54
  -1   9   0    5.98    1.72
  -1   9   0    9.08    2.15
  -1   9   0    8.70    2.38
  -1   9   0    4.47    2.66
  -1   9   1   43.78    6.19
  -1   9   1   46.03    4.54
  -1   9   1   51.63    5.69
  -1   9   1   48.04    5.93
  -1   9   1   42.37    4.17
  -1   9   2   42.31    5.01
  -1   9   2   45.19    3.67
  -1   9   2   39.91    4.19
  -1   9   2   44.48    3.64
  -1   9   2   41.45    3.63
  -1   9   3  100.65    8.99
  -1   9   3  104.34    7.70
  -1   9   3   92.10    8.53
  -1   9   3  100.16    6.05
  -1   9   4   61.18    6.26
  -1   9   4   59.57    5.24
  -1   9   4   56.90    6.18
  -1   9   4   72.24    4.64
  -1   9   4   56.47    5.03
  -1   9   5    6.13    1.86
  -1   9   5    5.90    1.69
  -1   9   6   39.04    3.74
  -1  10 -12    8.24    1.33
  -1  10 -12    7.30    1.27
  -1  10 -12    8.39    1.23
  -1  10 -11    4.79    1.18
  -1  10 -11    5.15    1.27
  -1  10 -11    6.33    1.20
  -1  10 -10   68.12    5.01
  -1  10 -10   72.57    4.83
  -1  10 -10   72.55    5.13
  -1  10  -9  101.81    6.42
  -1  10  -9  116.25    7.18
  -1  10  -9  116.17    5.80
  -1  10  -9   95.85    6.65
  -1  10  -9   96.42    6.38
  -1  10  -9  121.19    5.97
  -1  10  -8    1.42    1.12
  -1  10  -8    1.04    0.73
  -1  10  -8    1.24    0.88
  -1  10  -8    1.24    0.89
  -1  10  -8    1.74    1.06
  -1  10  -7  181.65   10.27
  -1  10  -7  153.34    7.96
  -1  10  -7  154.19    9.39
  -1  10  -7  143.78    8.58
  -1  10  -7  157.71    9.38
  -1  10  -7  157.70    9.19
  -1  10  -6    5.33    1.62
  -1  10  -6    5.52    1.45
  -1  10  -6    4.32    1.37
  -1  10  -6    6.83    1.82
  -1  10  -6    4.81    1.60
  -1  10  -5  199.13   10.51
  -1  10  -5  194.60   12.05
  -1  10  -5  197.74   11.52
  -1  10  -5  187.29   11.58
  -1  10  -5  209.61   11.94
  -1  10  -4   60.92    5.05
  -1  10  -4   54.72    4.74
  -1  10  -4   49.94    4.44
  -1  10  -4   49.94    5.39
  -1  10  -4   46.03    9.38
  -1  10  -4   52.37    5.83
  -1  10  -3   95.07    6.75
  -1  10  -3   92.25    6.91
  -1  10  -3   96.95    7.59
  -1  10  -3  100.82    7.39
  -1  10  -3  109.88    9.21
  -1  10  -2   43.19    4.65
  -1  10  -2   44.69    4.84
  -1  10  -2   43.52    4.79
  -1  10  -1    8.24    2.77
  -1  10  -1    7.54    2.16
  -1  10  -1    6.42    1.82
  -1  10   0  168.65   10.06
  -1  10   0  187.82   12.02
  -1  10   0  200.61   10.73
  -1  10   1   -0.39    1.04
  -1  10   1    0.69    0.86
  -1  10   1   -0.34    1.00
  -1  10   1    0.19    0.70
  -1  10   1    0.71    0.76
  -1  10   1    0.62    0.89
  -1  10   2  175.16   10.18
  -1  10   2  134.46    9.57
  -1  10   3   32.75    3.67
  -1  10   3   44.01    4.94
  -1  10   3   33.44    4.16
  -1  10   4   15.80    2.60
  -1  10   4   21.26    2.95
  -1  11 -11   16.77    1.74
  -1  11 -10    3.56    0.89
  -1  11 -10    1.65    0.69
  -1  11 -10    3.65    0.78
  -1  11  -9    3.46    0.75
  -1  11  -9    2.32    0.73
  -1  11  -9    1.32    0.72
  -1  11  -8   46.24    3.66
  -1  11  -7    7.70    1.55
  -1  11  -7    8.29    1.47
  -1  11  -6   51.65    4.50
  -1  11  -6   62.33    4.94
  -1  11  -5   16.99    2.66
  -1  11  -5   20.68    2.51
  -1  11  -5   18.59    2.80
  -1  11  -5   18.17    2.57
  -1  11  -4   24.79    3.44
  -1  11  -4   28.09    3.76
  -1  11  -3   25.15    2.96
  -1  11  -3   23.66    3.71
  -1  11  -2   37.28    3.97
  -1  11  -2   45.60    4.22
  -1  11  -2   47.56    4.14
  -1  11  -2   48.78    4.16
  -1  11  -2   45.66    5.47
  -1  11  -1  127.74    8.44
  -1  11  -1  147.68    8.17
  -1  11  -1  155.31   10.34
  -1  11   0    0.81    0.72
  -1  11   0    2.06    0.99
  -1  11   0   -0.26    0.82
  -1  11   0    0.34    0.67
  -1  11   1   75.69    5.81
  -1  11   1   60.13    5.42
  -1  11   2    2.01    0.89
  -1  11   2    2.99    1.13
  -1  12  -9   12.41    1.14
  -1  12  -9   11.49    1.15
  -1  12  -8    4.18    0.83
  -1  12  -8    3.96    0.84
  -1  12  -7    4.13    0.95
  -1  12  -5   33.44    3.13
  -1  12  -4   13.90    1.79
  -1  12  -4   13.64    2.06
  -1  12  -3   31.18    3.39
  -1  12  -3   35.28    3.00
  -1  12  -3   36.27    3.09
  -1  12  -2   11.82    2.01
  -1  12  -2    7.22    1.36
  -1  12  -2   10.32    1.60
  -1  12  -1   38.12    2.98
  -1  12  -1   29.52    3.23
  -1  12   0   25.88    2.25
  -1  13  -8    1.50    0.41
  -1  13  -7    4.08    0.67
  -1  13  -7    4.37    0.70
  -1  13  -6   59.46    3.21
  -1  13  -6   62.95    3.28
  -1  13  -5    4.14    0.77
  -1  13  -5    3.71    0.74
  -1  13  -4   21.88    1.68
  -1  13  -4   21.04    1.66
   0 -12   0   42.17    3.23
   0 -12   1    3.47    0.95
   0 -12   2   22.89    2.42
   0 -12   2   24.46    2.64
   0 -12   3    6.49    1.40
   0 -12   3    5.47    1.29
   0 -12   3    4.98    1.15
   0 -12   4   42.74    3.68
   0 -12   4   46.68    3.48
   0 -12   4   48.97    3.88
   0 -12   5   32.76    3.14
   0 -12   5   31.49    3.03
   0 -12   7    5.88    1.18
   0 -12   7    6.70    1.18
   0 -12   7    6.05    1.28
   0 -12   8    8.22    1.34
   0 -12   8    8.51    1.30
   0 -12   8    7.76    1.32
   0 -12   8    8.25    1.13
   0 -12   9   55.95    3.58
   0 -12   9   55.16    3.45
   0 -12  10    7.15    1.10
   0 -11  -2   50.71    4.07
   0 -11  -1    1.33    0.79
   0 -11   0  110.25    6.35
   0 -11   1   47.96    4.23
   0 -11   1   45.55    4.33
   0 -11   1   50.56    4.58
   0 -11   2   22.84    3.07
   0 -11   2   19.66    2.70
   0 -11   2   17.68    2.59
   0 -11   3   14.11    2.27
   0 -11   3   16.89    2.49
   0 -11   4    0.23    0.54
   0 -11   4    2.11    0.88
   0 -11   5   81.03    5.76
   0 -11   5   75.93    5.18
   0 -11   5   80.50    5.90
   0 -11   5   89.60    5.78
   0 -11   6    2.77    1.16
   0 -11   6    3.36    1.13
   0 -11   7   52.86    4.16
   0 -11   7   45.69    4.12
   0 -11   7   46.96    3.93
   0 -11   8   17.92    2.24
   0 -11   8   18.47    2.31
   0 -11   8   21.46    2.52
   0 -11   9    9.32    1.59
   0 -11   9   11.06    1.66
   0 -11   9    9.26    1.41
   0 -11  10    3.41    0.94
   0 -11  10    2.54    0.84
   0 -11  10    1.78    0.65
   0 -11  11   12.28    1.31
   0 -11  11   12.53    1.58
   0 -11  12   22.66    1.97
   0 -10  -4   21.77    2.58
   0 -10  -4   24.81    2.56
   0 -10  -3  153.37    8.66
   0 -10  -3  152.08    8.79
   0 -10  -2    0.26    0.97
   0 -10  -2   -0.47    0.88
   0 -10  -1  179.35    9.54
   0 -10  -1  174.63    9.99
   0 -10  -1  189.10    9.40
   0 -10   0   13.10    2.30
   0 -10   0   19.41    2.64
   0 -10   0   17.46    2.48
   0 -10   1   37.92    4.25
   0 -10   1   27.50    3.03
   0 -10   2  149.28    9.44
   0 -10   2  133.48   16.43
   0 -10   2  160.34    9.83
   0 -10   3  102.26    7.36
   0 -10   3  124.77   15.19
   0 -10   3  105.89    7.54
   0 -10   3   99.94    6.99
   0 -10   4  295.47   24.74
   0 -10   4  272.57   13.67
   0 -10   4  254.96   12.99
   0 -10   4  252.95   13.51
   0 -10   4  316.02   13.93
   0 -10   5    1.73    0.94
   0 -10   5    0.46    0.87
   0 -10   5    2.13    1.78
   0 -10   6  144.44    8.44
   0 -10   6  142.44    8.33
   0 -10   6  149.89    8.79
   0 -10   6  131.40   14.02
   0 -10   7    2.43    1.11
   0 -10   7    4.41    1.37
   0 -10   7    3.64    2.16
   0 -10   7    4.25    1.30
   0 -10   8  112.28    6.72
   0 -10   8  111.63    6.93
   0 -10   8  103.98    6.73
   0 -10   9   85.86    5.34
   0 -10   9   76.51    5.47
   0 -10   9   79.92    5.32
   0 -10  10    1.22    0.72
   0 -10  10    0.53    0.56
   0 -10  11   34.68    2.94
   0 -10  11   34.69    2.71
   0 -10  12    7.63    1.10
   0 -10  12    7.92    1.31
   0 -10  12    9.83    1.32
   0  -9  -6   11.33    1.78
   0  -9  -5   53.85    4.65
   0  -9  -5   41.22    3.64
   0  -9  -4  114.83    7.43
   0  -9  -4  123.49    8.21
   0  -9  -3    4.40    1.60
   0  -9  -3    6.15    1.90
   0  -9  -2   94.66    7.53
   0  -9  -2  101.82    7.57
   0  -9  -1    2.43    1.12
   0  -9  -1    7.27    2.87
   0  -9  -1    2.45    2.05
   0  -9  -1    6.28    1.97
   0  -9  -1    1.67    0.86
   0  -9   0  216.27   12.00
   0  -9   0  221.74   17.10
   0  -9   0  225.01   18.19
   0  -9   0  203.62   11.48
   0  -9   1   94.40   13.40
   0  -9   1  109.10    7.51
   0  -9   1   94.16    6.79
   0  -9   1  122.29    8.64
   0  -9   1  121.97    8.41
   0  -9   1  134.34   12.80
   0  -9   2   50.25    9.56
   0  -9   2   60.89    5.46
   0  -9   2   43.44    4.15
   0  -9   2   63.73    5.56
   0  -9   2   71.59    9.26
   0  -9   3   43.30    8.92
   0  -9   3   48.68    4.82
   0  -9   3   54.19    4.82
   0  -9   3   46.83    4.15
   0  -9   3   63.55    8.90
   0  -9   4   43.37    8.64
   0  -9   4   42.13    4.18
   0  -9   4   36.56    3.93
   0  -9   4   33.47    3.59
   0  -9   4   50.37    8.56
   0  -9   5  306.33   14.88
   0  -9   5  311.05   14.19
   0  -9   6   27.26    2.77
   0  -9   6   27.14    3.16
   0  -9   6   25.44    3.23
   0  -9   6   23.70    2.99
   0  -9   7    3.87    1.21
   0  -9   7    4.72    1.36
   0  -9   7    5.27    1.50
   0  -9   8  231.67   11.37
   0  -9   8  244.29   20.15
   0  -9   8  250.62   11.85
   0  -9   8  231.16   11.76
   0  -9   8  238.86   11.30
   0  -9   9   78.44    5.18
   0  -9   9   82.83    5.76
   0  -9   9   82.73    5.44
   0  -9   9   87.15   11.39
   0  -9   9   79.66    5.36
   0  -9  10   34.24    3.17
   0  -9  10   28.13    2.56
   0  -9  10   25.63    2.66
   0  -9  11    4.85    1.24
   0  -9  11    4.95    1.23
   0  -9  11    3.35    1.09
   0  -9  11    6.05    1.23
   0  -9  12   95.10    5.23
   0  -9  12   99.29    5.66
   0  -9  12   97.98    5.69
   0  -9  13   11.23    1.55
   0  -9  13   11.01    1.41
   0  -8  -6   96.88    5.94
   0  -8  -5    2.84    1.45
   0  -8  -5    3.23    1.25
   0  -8  -4  255.91   14.26
   0  -8  -4  266.41   13.55
   0  -8  -3  127.88   12.19
   0  -8  -3  134.64    9.26
   0  -8  -3  118.83    8.42
   0  -8  -2   38.41    3.77
   0  -8  -2   35.74    6.25
   0  -8  -2   51.59    7.18
   0  -8  -2   45.79    4.94
   0  -8  -2   38.87    3.53
   0  -8  -1   23.83    3.12
   0  -8  -1   17.81    4.36
   0  -8  -1   26.31    5.10
   0  -8  -1   20.69    3.27
   0  -8  -1   20.17    3.27
   0  -8   0   61.75   10.39
   0  -8   0   60.41    5.02
   0  -8   0   74.26    9.01
   0  -8   1  281.72   23.30
   0  -8   1  285.74   14.19
   0  -8   1  313.04   15.52
   0  -8   1  293.30   19.96
   0  -8   2   25.57    6.37
   0  -8   2   31.79    3.73
   0  -8   2   32.49    3.72
   0  -8   2   28.14    2.88
   0  -8   2   36.76    6.33
   0  -8   3  230.46   11.65
   0  -8   3  246.07   12.29
   0  -8   3  216.55   11.05
   0  -8   3  203.34   18.84
   0  -8   3  217.60   18.03
   0  -8   4   84.03    5.86
   0  -8   4   87.07    6.27
   0  -8   4   84.94   11.51
   0  -8   4   82.67   10.38
   0  -8   5   44.51    3.71
   0  -8   5   43.19    3.99
   0  -8   5   45.46    4.16
   0  -8   5   37.94    7.60
   0  -8   5   37.53    7.32
   0  -8   6  137.15    7.29
   0  -8   6  140.59    8.07
   0  -8   6  122.18   13.94
   0  -8   6  140.57    8.24
   0  -8   6  158.23    8.22
   0  -8   7  103.28    6.34
   0  -8   7   97.13    6.44
   0  -8   7   91.37   12.13
   0  -8   7   97.05    6.52
   0  -8   7   95.58    6.17
   0  -8   8  109.58    6.51
   0  -8   8  108.84    6.64
   0  -8   8  112.64    6.96
   0  -8   8   96.45    6.42
   0  -8   9    9.17    1.56
   0  -8   9    4.81    1.38
   0  -8   9   11.21    4.01
   0  -8   9    7.83    1.47
   0  -8  10    5.42    1.39
   0  -8  10    2.82    1.05
   0  -8  10    5.86    1.31
   0  -8  11    1.28    0.81
   0  -8  11    0.19    0.76
   0  -8  11    0.62    0.55
   0  -8  11    1.87    0.87
   0  -8  12    8.52    1.45
   0  -8  12    7.79    1.40
   0  -8  12    6.17    1.42
   0  -8  13   14.83    1.89
   0  -8  13   14.22    1.64
   0  -8  14   22.07    2.04
   0  -7  -8   70.17    5.31
   0  -7  -7  209.90   11.35
   0  -7  -7  168.34    9.46
   0  -7  -6    1.95    1.03
   0  -7  -5  451.04   20.94
   0  -7  -5  418.66   18.99
   0  -7  -5  403.74   29.87
   0  -7  -4    5.20    1.59
   0  -7  -4    1.21    1.43
   0  -7  -4    3.41    1.81
   0  -7  -4    3.02    1.69
   0  -7  -3   12.47    5.04
   0  -7  -3   10.13    3.12
   0  -7  -3   14.14    2.76
   0  -7  -2  318.90   14.56
   0  -7  -2  329.84   20.72
   0  -7  -2  294.83   19.51
   0  -7  -2  270.08   23.08
   0  -7  -2  331.96   15.99
   0  -7  -2  330.12   15.73
   0  -7  -1  580.97   29.88
   0  -7  -1  550.89   22.54
   0  -7  -1  589.32   24.41
   0  -7  -1  560.29   28.96
   0  -7   0 1249.92   57.75
   0  -7   0 1222.04   45.30
   0  -7   0 1260.31   52.22
   0  -7   1  105.08    7.32
   0  -7   1   94.08    6.37
   0  -7   1   95.75    9.38
   0  -7   2  421.62   18.37
   0  -7   2  523.57   20.78
   0  -7   2  522.28   20.51
   0  -7   2  412.09   23.55
   0  -7   2  444.05   27.88
   0  -7   3    3.60    1.08
   0  -7   3    4.66    1.47
   0  -7   3    8.53    2.61
   0  -7   3    4.05    2.35
   0  -7   4  978.96   36.47
   0  -7   4  981.92   46.85
   0  -7   4  888.04   43.46
   0  -7   5  424.52   18.86
   0  -7   5  481.64   18.96
   0  -7   5  454.43   18.96
   0  -7   5  455.03   27.94
   0  -7   5  456.51   25.34
   0  -7   6   87.02    5.77
   0  -7   6   79.38    5.45
   0  -7   6   82.04    5.44
   0  -7   6   91.05    8.84
   0  -7   7   99.30    6.06
   0  -7   7   97.95    6.31
   0  -7   7   99.76    6.24
   0  -7   7   92.54    9.04
   0  -7   7  103.30   12.35
   0  -7   8  103.93    6.04
   0  -7   8  100.43    6.44
   0  -7   8   99.90    6.04
   0  -7   8   94.27   12.09
   0  -7   9  388.36   17.27
   0  -7   9  408.18   17.53
   0  -7   9  396.49   16.79
   0  -7   9  411.96   16.31
   0  -7  10   40.29    3.77
   0  -7  10   43.71    4.07
   0  -7  10   49.13    8.43
   0  -7  10   43.99    3.74
   0  -7  11   51.18    8.51
   0  -7  11   56.38    4.22
   0  -7  11   50.68    3.76
   0  -7  11   54.72    4.26
   0  -7  11   51.44    4.40
   0  -7  12   58.11    4.15
   0  -7  12   55.32    4.48
   0  -7  12   59.24    4.19
   0  -7  12   53.99    3.62
   0  -7  13   44.61    3.66
   0  -6  -9   48.82    3.82
   0  -6  -9   50.47    4.28
   0  -6  -8  145.67    8.98
   0  -6  -8  174.49   10.23
   0  -6  -7    0.57    0.64
   0  -6  -7    0.34    1.20
   0  -6  -6   10.97    4.35
   0  -6  -6   15.29    4.41
   0  -6  -6   14.30    3.11
   0  -6  -6   14.63    2.33
   0  -6  -6   14.19    2.96
   0  -6  -5   51.71    4.73
   0  -6  -5   53.13    7.13
   0  -6  -5   57.68    8.29
   0  -6  -5   54.42    9.66
   0  -6  -4  647.18   26.45
   0  -6  -4  598.50   37.69
   0  -6  -4  653.55   33.96
   0  -6  -4  665.09   32.53
   0  -6  -3  493.47   21.48
   0  -6  -3  496.18   20.90
   0  -6  -3  442.47   30.02
   0  -6  -3  502.03   26.53
   0  -6  -3  457.33   24.89
   0  -6  -3  496.98   26.19
   0  -6  -2  171.81    8.60
   0  -6  -2  189.62   10.09
   0  -6  -2  182.31   16.41
   0  -6  -2  179.43   12.88
   0  -6  -2  198.32   13.44
   0  -6  -2  201.27   13.87
   0  -6  -1  391.61   16.77
   0  -6  -1  426.09   18.27
   0  -6  -1  466.55   21.51
   0  -6  -1  418.94   21.74
   0  -6   0   90.47    5.57
   0  -6   0   86.24    9.91
   0  -6   0   84.10    7.95
   0  -6   1 1058.34   38.83
   0  -6   1 1045.95   47.29
   0  -6   1 1028.73   43.25
   0  -6   2  104.70    6.35
   0  -6   2   92.05    9.89
   0  -6   2   78.63    5.02
   0  -6   3  169.05   14.02
   0  -6   3  168.30   12.51
   0  -6   3  184.01    9.11
   0  -6   4  646.12   25.07
   0  -6   4  630.96   32.84
   0  -6   4  625.63   31.91
   0  -6   4  647.70   25.22
   0  -6   5  229.42   10.84
   0  -6   5  233.73   16.60
   0  -6   5  229.94   11.04
   0  -6   5  240.31   11.03
   0  -6   6  276.59   11.99
   0  -6   6  261.28   17.09
   0  -6   6  257.87   12.08
   0  -6   6  265.69   12.25
   0  -6   7   78.66    4.90
   0  -6   7   77.87    8.41
   0  -6   7   75.04    5.23
   0  -6   8  819.32   30.58
   0  -6   8  834.51   30.93
   0  -6   8  846.62   31.66
   0  -6   8  817.22   31.76
   0  -6   8  861.84   38.80
   0  -6   9  330.65   14.55
   0  -6   9  348.70   15.03
   0  -6   9  336.17   15.29
   0  -6   9  369.48   21.62
   0  -6   9  333.66   14.57
   0  -6  10   63.66    9.53
   0  -6  10   69.19    4.89
   0  -6  10   64.41    4.78
   0  -6  10   67.32    5.23
   0  -6  10   60.09    7.92
   0  -6  10   64.24    4.71
   0  -6  11   14.19    4.35
   0  -6  11    6.99    1.51
   0  -6  11   15.29    3.78
   0  -6  11    8.10    1.60
   0  -6  11    8.63    1.89
   0  -6  11    7.85    1.54
   0  -6  12  110.35    6.76
   0  -6  12  118.73    6.45
   0  -6  12  128.53    6.95
   0  -6  12  122.26    6.33
   0  -6  13  187.97    8.79
   0  -6  13  176.31    7.98
   0  -6  14    0.39    0.52
   0  -5 -10   32.15    3.08
   0  -5 -10   30.43    3.10
   0  -5  -9    1.52    1.04
   0  -5  -9    1.68    1.05
   0  -5  -8   99.86    7.81
   0  -5  -7   82.27   11.86
   0  -5  -7  120.19   13.77
   0  -5  -7  104.08    8.55
   0  -5  -7   96.99    7.68
   0  -5  -7   79.54    5.69
   0  -5  -6   51.68    8.81
   0  -5  -6   31.98    5.42
   0  -5  -6   38.58    8.30
   0  -5  -6   47.48    5.41
   0  -5  -6   38.83    3.80
   0  -5  -6   43.71    4.84
   0  -5  -5  389.12   28.16
   0  -5  -5  366.30   21.88
   0  -5  -5  395.77   18.55
   0  -5  -5  412.86   17.49
   0  -5  -4   41.38    7.63
   0  -5  -4   32.71    5.09
   0  -5  -3  135.72   10.56
   0  -5  -3  135.13   13.30
   0  -5  -3  134.15   11.38
   0  -5  -3  130.22   10.13
   0  -5  -3  145.12    7.96
   0  -5  -2    2.06    1.82
   0  -5  -2    3.44    1.43
   0  -5  -2    5.70    1.93
   0  -5  -2    1.73    1.45
   0  -5  -2    2.54    0.99
   0  -5  -2    2.09    0.68
   0  -5  -1  685.92   24.94
   0  -5  -1  602.55   23.54
   0  -5  -1  644.46   27.52
   0  -5  -1  608.53   27.51
   0  -5   0  227.61   15.39
   0  -5   0  226.19   11.79
   0  -5   0  211.01   12.48
   0  -5   1  613.69   29.90
   0  -5   1  627.68   27.02
   0  -5   3  460.94   23.24
   0  -5   3  510.85   25.30
   0  -5   4  957.94   41.72
   0  -5   4  916.96   41.66
   0  -5   4  935.15   34.56
   0  -5   5  474.25   25.14
   0  -5   5  468.24   18.70
   0  -5   5  459.29   18.68
   0  -5   6   57.01    7.09
   0  -5   6   59.48    4.30
   0  -5   6   57.66    4.22
   0  -5   7   71.68    8.16
   0  -5   7   65.99    4.67
   0  -5   7   72.29    4.97
   0  -5   7   67.21    4.48
   0  -5   7   69.59    4.28
   0  -5   8   12.88    1.84
   0  -5   8   16.57    4.62
   0  -5   8   15.61    2.14
   0  -5   8   11.87    1.99
   0  -5   8   13.26    1.94
   0  -5   8   16.18    3.97
   0  -5   9  139.43    7.74
   0  -5   9  146.05    8.26
   0  -5   9  153.59    8.13
   0  -5   9  135.76    7.56
   0  -5   9  146.96   13.04
   0  -5  10   35.57    3.36
   0  -5  10   38.32    7.10
   0  -5  10   32.27    3.39
   0  -5  10   35.60    3.29
   0  -5  10   35.45    3.66
   0  -5  10   41.30    6.53
   0  -5  11   27.61    2.99
   0  -5  11   28.70    6.06
   0  -5  11   20.94    2.39
   0  -5  11   22.81    2.88
   0  -5  11   28.10    5.45
   0  -5  12    9.90    1.58
   0  -5  12    9.41    1.79
   0  -5  12    8.21    1.75
   0  -5  13    1.16    0.67
   0  -5  13    0.89    0.73
   0  -5  13    0.71    0.63
   0  -5  14   29.05    2.49
   0  -5  14   26.67    2.52
   0  -5  15    0.73    0.42
   0  -5  15    0.07    0.32
   0  -4 -11  118.24    6.53
   0  -4 -11  134.71    7.03
   0  -4 -11  133.35    7.09
   0  -4 -10    1.38    0.86
   0  -4 -10   -0.24    0.70
   0  -4  -9  379.95   18.00
   0  -4  -9  341.53   17.53
   0  -4  -8   62.10    6.02
   0  -4  -8   60.74    6.30
   0  -4  -7  239.22   13.88
   0  -4  -7  213.80   12.36
   0  -4  -7  178.68   18.41
   0  -4  -7  201.77   19.72
   0  -4  -7  206.55   15.17
   0  -4  -6  209.10   10.41
   0  -4  -6  221.79   11.99
   0  -4  -6  195.85   14.46
   0  -4  -5  543.20   22.69
   0  -4  -5  537.68   21.50
   0  -4  -5  526.33   32.01
   0  -4  -5  575.45   31.44
   0  -4  -5  509.38   26.09
   0  -4  -4 1069.76   39.35
   0  -4  -4 1044.75   38.53
   0  -4  -4 1059.31   48.96
   0  -4  -4 1119.72   47.32
   0  -4  -4  986.35   42.90
   0  -4  -3    1.93    1.40
   0  -4  -3    1.07    0.85
   0  -4  -3    2.51    1.66
   0  -4  -3    2.36    1.13
   0  -4  -3    1.80    0.82
   0  -4  -2  647.64   31.93
   0  -4  -2  712.07   29.92
   0  -4  -2  668.54   28.55
   0  -4  -2  647.67   28.06
   0  -4  -2  688.42   25.53
   0  -4  -1  113.36    7.79
   0  -4  -1  112.79    7.49
   0  -4   0 2358.65   89.18
   0  -4   0 2467.81   85.08
   0  -4   0 2402.33   85.81
   0  -4   1 1198.88   47.59
   0  -4   3 1152.38   44.67
   0  -4   3 1030.41   43.49
   0  -4   4   44.31    5.80
   0  -4   4   51.29    6.74
   0  -4   4   52.86    4.67
   0  -4   5  527.64   25.86
   0  -4   5  491.31   23.55
   0  -4   6   60.69    6.91
   0  -4   6   55.65    6.79
   0  -4   6   62.02    4.16
   0  -4   6   57.31    4.22
   0  -4   7 1284.27   52.49
   0  -4   7 1215.30   44.31
   0  -4   7 1181.56   43.85
   0  -4   7 1210.10   43.86
   0  -4   7 1305.52   51.96
   0  -4   8  147.36    7.62
   0  -4   8  154.21   13.63
   0  -4   8  149.44   13.97
   0  -4   8  150.35    8.13
   0  -4   8  145.04    8.19
   0  -4   8  154.26    7.82
   0  -4   8  160.77   13.19
   0  -4   9   38.21    3.32
   0  -4   9   31.47    6.37
   0  -4   9   27.63    6.11
   0  -4   9   30.45    2.96
   0  -4   9   30.75    3.28
   0  -4   9   39.53    6.50
   0  -4  10   23.28    2.75
   0  -4  10   23.94    5.61
   0  -4  10   32.17    6.23
   0  -4  10   21.54    2.82
   0  -4  10   25.47    2.56
   0  -4  10   24.08    3.02
   0  -4  10   21.36    5.01
   0  -4  11  135.02    7.67
   0  -4  11  128.39    7.15
   0  -4  11  157.62   15.59
   0  -4  11  121.59   12.61
   0  -4  11  120.64    7.73
   0  -4  11  132.73    8.11
   0  -4  11  151.85   14.21
   0  -4  12  175.85    8.89
   0  -4  12  162.72    8.13
   0  -4  12  158.57    9.07
   0  -4  12  146.21    8.65
   0  -4  13   51.57    3.49
   0  -4  13   42.93    3.69
   0  -4  13   39.36    3.77
   0  -4  14    3.33    0.95
   0  -4  14    3.55    0.93
   0  -4  15    0.36    0.33
   0  -4  15    0.75    0.45
   0  -3 -12  124.69    6.25
   0  -3 -12  111.15    6.26
   0  -3 -11    0.80    0.85
   0  -3 -11    0.35    0.55
   0  -3 -11    1.09    0.81
   0  -3 -10   63.10    5.35
   0  -3 -10   55.10    4.47
   0  -3 -10   56.68    5.36
   0  -3  -9   39.56    4.21
   0  -3  -9   40.69    4.96
   0  -3  -9   45.80    8.91
   0  -3  -9   49.10    5.16
   0  -3  -8  469.42   23.02
   0  -3  -8  480.33   21.71
   0  -3  -8  448.56   33.21
   0  -3  -7  363.63   17.35
   0  -3  -7  376.17   18.81
   0  -3  -6   77.26   10.25
   0  -3  -6   78.62   10.88
   0  -3  -6   79.49    7.91
   0  -3  -6   76.47    4.92
   0  -3  -6   76.48    5.81
   0  -3  -5  383.26   20.45
   0  -3  -5  423.31   25.52
   0  -3  -5  402.61   25.00
   0  -3  -5  414.67   17.51
   0  -3  -5  411.67   16.50
   0  -3  -4   96.00    9.46
   0  -3  -4   81.04    9.05
   0  -3  -4   89.32    7.21
   0  -3  -4   82.47    5.29
   0  -3  -4   83.86    4.90
   0  -3  -3 2138.33   78.10
   0  -3  -3 2041.83   78.88
   0  -3  -3 2098.19   74.82
   0  -3  -3 1997.63   74.24
   0  -3  -2  573.72   25.23
   0  -3  -2  535.97   26.28
   0  -3  -2  576.92   23.51
   0  -3  -2  600.43   23.92
   0  -3  -1 2358.58   82.14
   0  -3  -1 2278.71   81.14
   0  -3   0 2051.53   72.88
   0  -3   0 1979.96   70.06
   0  -3   0 1999.50   70.32
   0  -3   2  858.44   33.61
   0  -3   2  889.40   34.82
   0  -3   3  130.03    8.87
   0  -3   3  110.44    8.94
   0  -3   3  127.77    7.87
   0  -3   4 4787.07  175.08
   0  -3   4 5121.11  173.81
   0  -3   5  113.19    9.40
   0  -3   5  111.64    9.85
   0  -3   6  422.56   23.15
   0  -3   6  400.91   21.41
   0  -3   6  373.72   15.89
   0  -3   7  255.18   18.41
   0  -3   7  252.23   17.69
   0  -3   7  264.86   17.16
   0  -3   7  257.66   11.11
   0  -3   7  243.16   11.51
   0  -3   8  477.41   19.05
   0  -3   8  498.30   29.46
   0  -3   8  474.76   27.16
   0  -3   8  457.51   18.62
   0  -3   8  476.67   19.74
   0  -3   8  484.50   19.75
   0  -3   8  508.94   27.37
   0  -3   9  634.55   24.71
   0  -3   9  634.50   24.82
   0  -3   9  687.13   37.87
   0  -3   9  610.55   33.59
   0  -3   9  610.35   23.89
   0  -3   9  649.46   25.58
   0  -3   9  628.48   25.35
   0  -3   9  668.24   34.39
   0  -3  10    1.95    1.03
   0  -3  10    1.03    0.73
   0  -3  10    3.07    1.82
   0  -3  10    0.60    0.58
   0  -3  10    1.54    0.94
   0  -3  10    1.44    1.07
   0  -3  10    2.46    1.68
   0  -3  11  367.86   16.07
   0  -3  11  353.70   15.45
   0  -3  11  369.97   16.02
   0  -3  11  369.55   27.32
   0  -3  11  354.12   16.19
   0  -3  11  352.97   16.59
   0  -3  11  416.67   26.21
   0  -3  12   15.02    2.31
   0  -3  12   18.91    2.70
   0  -3  12   17.22    2.30
   0  -3  12   17.62    2.25
   0  -3  13  253.65   11.19
   0  -3  13  242.77   10.49
   0  -3  13  225.22   11.38
   0  -3  13  221.11   10.70
   0  -3  14    7.37    1.23
   0  -3  14    5.41    1.00
   0  -3  14    4.82    1.15
   0  -3  15   43.89    2.40
   0  -3  15   52.76    2.88
   0  -2 -13    0.39    0.38
   0  -2 -13    0.44    0.42
   0  -2 -12   25.91    2.74
   0  -2 -12   27.90    2.99
   0  -2 -11   63.06    4.80
   0  -2 -11   65.29    5.26
   0  -2 -11   67.29    4.87
   0  -2 -11   61.72    5.37
   0  -2 -10    0.25    0.71
   0  -2 -10    1.08    1.28
   0  -2 -10    0.27    0.84
   0  -2  -9   64.66    8.94
   0  -2  -9   57.86   10.18
   0  -2  -9   56.79    5.42
   0  -2  -8    4.69    3.40
   0  -2  -8    1.82    1.52
   0  -2  -8    2.00    1.22
   0  -2  -7   95.34   12.93
   0  -2  -7   68.74   10.20
   0  -2  -7   91.20    6.44
   0  -2  -6    4.36    1.72
   0  -2  -6    2.75    1.89
   0  -2  -6    5.19    1.39
   0  -2  -5  177.08   11.40
   0  -2  -5  192.53   15.50
   0  -2  -5  172.69   13.95
   0  -2  -5  192.18    9.18
   0  -2  -4 2121.47   82.82
   0  -2  -4 2314.00   85.12
   0  -2  -4 2189.11   79.23
   0  -2  -3  141.67   10.09
   0  -2  -3  141.49   10.36
   0  -2  -3  143.28    8.28
   0  -2  -2   62.48    5.43
   0  -2  -2   57.20    4.18
   0  -2  -2   56.22    5.35
   0  -2  -2   57.54    4.28
   0  -2  -1  124.23    7.11
   0  -2  -1  125.34    6.32
   0  -2   1  613.01   24.11
   0  -2   2  137.22    8.01
   0  -2   2  128.91    8.12
   0  -2   3  295.89   16.25
   0  -2   4    0.39    1.14
   0  -2   5  773.41   34.48
   0  -2   6  706.48   34.27
   0  -2   6  775.31   37.35
   0  -2   6  744.76   34.75
   0  -2   7  111.39   12.31
   0  -2   7  102.20   10.51
   0  -2   7  110.61    6.46
   0  -2   7  107.70    6.57
   0  -2   8  304.31   22.65
   0  -2   8  268.92   18.50
   0  -2   8  270.46   12.64
   0  -2   8  268.01   12.95
   0  -2   8  285.89   19.61
   0  -2   9    5.02    1.36
   0  -2   9    3.31    1.06
   0  -2   9    8.68    3.63
   0  -2   9    8.20    2.81
   0  -2   9    4.32    1.36
   0  -2   9    6.40    1.67
   0  -2   9    4.11    1.25
   0  -2   9    8.98    3.35
   0  -2  10  275.13   13.10
   0  -2  10  270.30   12.66
   0  -2  10  272.78   13.35
   0  -2  10  306.04   24.92
   0  -2  10  277.32   13.16
   0  -2  10  271.11   13.72
   0  -2  10  307.27   22.40
   0  -2  11   62.17    4.85
   0  -2  11   61.03    5.29
   0  -2  11   64.05    5.14
   0  -2  11   71.65   11.23
   0  -2  11   57.98    4.54
   0  -2  12   52.23    4.27
   0  -2  12   57.86    4.99
   0  -2  12   60.28    4.76
   0  -2  12   64.08    4.53
   0  -2  13  132.68    7.16
   0  -2  13  138.48    7.39
   0  -2  13  138.27    6.93
   0  -2  13  140.65    6.94
   0  -2  13  115.92    7.36
   0  -2  14    9.87    1.54
   0  -2  14   11.94    1.57
   0  -2  15   17.68    1.47
   0  -1 -13  112.59    5.99
   0  -1 -13  112.71    6.24
   0  -1 -12   68.55    5.05
   0  -1 -12   73.79    5.00
   0  -1 -12   72.22    5.38
   0  -1 -11   42.27    3.82
   0  -1 -11   49.59    4.57
   0  -1 -11   41.48    4.08
   0  -1 -11   43.73    4.51
   0  -1 -10   12.85    2.64
   0  -1 -10    9.94    2.15
   0  -1 -10   10.33    3.55
   0  -1 -10   13.17    2.33
   0  -1 -10   13.38    4.59
   0  -1  -9  561.65   25.76
   0  -1  -9  573.92   33.24
   0  -1  -9  596.13   25.06
   0  -1  -9  656.61   39.30
   0  -1  -8  820.07   33.44
   0  -1  -8  816.62   31.74
   0  -1  -7  146.58    9.08
   0  -1  -7  117.73    7.34
   0  -1  -7  120.93   13.87
   0  -1  -6 1065.76   37.93
   0  -1  -6 1055.75   50.48
   0  -1  -5   15.67    4.40
   0  -1  -5   11.44    2.39
   0  -1  -4 1922.07   74.01
   0  -1  -4 1868.64   68.14
   0  -1  -3  492.54   23.79
   0  -1  -3  508.87   20.40
   0  -1  -2  620.64   23.33
   0  -1  -2  625.74   23.49
   0  -1  -1   79.35    4.00
   0  -1  -1   76.32    4.82
   0  -1   0  480.84   17.16
   0  -1   1 1429.37   50.06
   0  -1   2 1273.82   47.81
   0  -1   3 3040.61  109.32
   0  -1   4 1045.85   36.07
   0  -1   4  973.39   43.48
   0  -1   5    2.31    1.81
   0  -1   5    0.47    0.79
   0  -1   6   13.09    4.13
   0  -1   6   13.30    3.53
   0  -1   6   19.99    4.56
   0  -1   6   10.56    1.83
   0  -1   7  296.31   22.19
   0  -1   7  299.81   18.31
   0  -1   7  276.76   20.44
   0  -1   7  259.62   12.12
   0  -1   7  257.23   12.54
   0  -1   8  706.38   27.71
   0  -1   8  685.06   28.35
   0  -1   8  749.06   28.68
   0  -1   8  679.94   34.16
   0  -1   9   15.90    2.33
   0  -1   9   15.83    5.42
   0  -1   9   18.17    2.50
   0  -1  10    2.25    1.03
   0  -1  10    2.61    2.19
   0  -1  10    1.57    1.16
   0  -1  10    2.70    1.13
   0  -1  11   18.26    2.39
   0  -1  11   20.52    3.03
   0  -1  11   23.87    2.87
   0  -1  12   13.48    2.21
   0  -1  12   13.29    2.00
   0  -1  13   27.62    2.84
   0  -1  13   27.88    2.99
   0  -1  13   34.40    2.78
   0  -1  14    2.57    0.77
   0  -1  14    2.90    0.65
   0   0 -14   43.92    2.89
   0   0 -14   40.89    2.90
   0   0 -13   13.82    1.92
   0   0 -13   14.23    1.88
   0   0 -13   12.16    1.87
   0   0 -12  143.48    8.20
   0   0 -12  134.31    8.00
   0   0 -12  142.19    8.46
   0   0 -11  112.98    7.62
   0   0 -11  124.74    8.22
   0   0 -11  119.98   13.52
   0   0 -11  111.49    7.55
   0   0 -11  109.56   11.44
   0   0 -10  138.71    8.85
   0   0 -10  135.62    9.10
   0   0 -10  149.39   15.81
   0   0 -10  129.53    8.03
   0   0 -10  153.24    9.07
   0   0 -10  134.42   15.22
   0   0 -10  146.50   13.77
   0   0  -9  701.28   28.48
   0   0  -9  648.69   28.64
   0   0  -9  682.35   40.33
   0   0  -9  676.77   39.38
   0   0  -9  775.24   38.43
   0   0  -9  693.50   27.68
   0   0  -8   11.22    4.53
   0   0  -8   11.84    2.09
   0   0  -8   10.38    3.89
   0   0  -8   14.68    3.91
   0   0  -8   14.85    4.04
   0   0  -7 1081.99   40.41
   0   0  -7 1112.37   42.31
   0   0  -6   30.03    3.38
   0   0  -3  299.92   13.20
   0   0  -2  169.51    7.66
   0   0  -1  185.21    7.24
   0   0   1  170.26    7.35
   0   0   2  161.02    9.03
   0   0   3  312.09   16.34
   0   0   4 2630.64   90.29
   0   0   4 2309.82   86.07
   0   0   5 1170.99   49.98
   0   0   5 1153.57   45.24
   0   0   6   37.17    7.62
   0   0   6   24.98    3.80
   0   0   6   33.99    6.41
   0   0   6   25.82    2.97
   0   0   7  975.07   36.98
   0   0   7 1020.99   51.38
   0   0   7  951.15   35.36
   0   0   7  948.27   36.39
   0   0   7  946.06   35.67
   0   0   7  884.09   46.86
   0   0   8   10.55    2.02
   0   0   8   12.32    5.06
   0   0   8   10.77    2.19
   0   0   8   11.50    2.14
   0   0   8    9.52    1.76
   0   0   8    9.93    4.57
   0   0   9  650.61   25.70
   0   0   9  686.27   26.79
   0   0   9  679.94   27.39
   0   0   9  639.57   27.30
   0   0   9  687.02   43.03
   0   0   9  614.41   26.23
   0   0  10  131.26    7.45
   0   0  10  144.28    8.97
   0   0  10  137.50   17.61
   0   0  10  131.59    8.10
   0   0  11  127.58    8.17
   0   0  11  111.68    7.87
   0   0  11  118.84   15.62
   0   0  11  126.72    7.57
   0   0  12  135.61    8.41
   0   0  12  143.23    8.59
   0   0  13   16.37    1.70
   0   0  13   12.38    1.91
   0   0  13   13.09    1.87
   0   1 -14    2.43    0.74
   0   1 -14    2.38    0.72
   0   1 -14    3.35    0.83
   0   1 -13   28.30    2.90
   0   1 -13   30.17    3.04
   0   1 -13   26.19    2.88
   0   1 -12   15.67    2.39
   0   1 -12   12.79    2.25
   0   1 -12   10.33    2.12
   0   1 -11   23.20    3.09
   0   1 -11   19.97    3.05
   0   1 -11   20.14    5.37
   0   1 -11   19.12    2.80
   0   1 -11   17.59    4.95
   0   1 -11   16.57    4.23
   0   1 -10    4.14    1.35
   0   1 -10    3.44    1.44
   0   1 -10    4.15    2.46
   0   1 -10    4.26    1.30
   0   1 -10    2.98    2.36
   0   1 -10    6.15    2.58
   0   1  -9   24.01    3.23
   0   1  -9   15.83    2.62
   0   1  -9   14.94    5.04
   0   1  -9   16.50    2.57
   0   1  -9   19.72    5.36
   0   1  -9   17.66    4.31
   0   1  -8  697.41   28.80
   0   1  -8  718.20   27.55
   0   1  -8  750.91   39.71
   0   1  -8  702.14   38.14
   0   1  -8  755.40   36.33
   0   1  -7  278.97   21.06
   0   1  -7  263.44   19.83
   0   1  -6   19.56    4.68
   0   1  -6   13.53    3.79
   0   1  -6   13.09    3.17
   0   1  -5    1.74    1.68
   0   1  -5    1.82    1.14
   0   1  -4  960.77   43.79
   0   1  -4 1109.05   41.16
   0   1  -3 2932.28  111.81
   0   1  -3 3243.19  109.25
   0   1  -2 1389.71   52.28
   0   1  -2 1386.99   50.19
   0   1  -1 1233.16   41.68
   0   1  -1 1104.66   40.50
   0   1   0  416.13   15.24
   0   1   1   77.92    5.10
   0   1   2  649.60   23.99
   0   1   2  585.26   25.03
   0   1   2  578.97   24.42
   0   1   3  458.60   22.62
   0   1   3  540.18   22.15
   0   1   4 2113.93   75.30
   0   1   4 1865.40   76.44
   0   1   5    9.36    2.86
   0   1   5   13.74    3.92
   0   1   6 1023.92   47.71
   0   1   6 1014.15   37.30
   0   1   6  947.46   37.98
   0   1   6 1017.46   49.73
   0   1   6 1057.17   38.98
   0   1   7  109.07    7.42
   0   1   7  121.44    6.85
   0   1   7  104.01   13.25
   0   1   8  770.35   29.18
   0   1   8  712.08   29.10
   0   1   8  737.91   30.55
   0   1   8  692.61   29.11
   0   1   8  744.06   29.86
   0   1   8  725.90   42.63
   0   1   9  552.43   23.21
   0   1   9  543.82   23.41
   0   1   9  526.74   23.94
   0   1   9  516.44   23.01
   0   1  10    8.38    2.04
   0   1  10   14.30    2.43
   0   1  10   12.67    2.18
   0   1  10    9.19    2.18
   0   1  10   12.21    2.33
   0   1  11   38.78    3.99
   0   1  11   40.55    4.38
   0   1  11   43.99    4.32
   0   1  12   75.08    4.53
   0   1  12   71.76    5.40
   0   1  12   71.40    5.21
   0   1  13  135.70    6.36
   0   1  13  135.66    6.62
   0   1  13  127.06    6.53
   0   1  13  123.29    6.67
   0   2 -14    8.27    1.37
   0   2 -14    8.36    1.43
   0   2 -14    9.32    1.40
   0   2 -13  112.32    6.90
   0   2 -13  127.20    7.31
   0   2 -13  119.83    7.01
   0   2 -12   50.78    4.55
   0   2 -12   52.79    4.70
   0   2 -12   51.95    4.62
   0   2 -11   55.09    5.04
   0   2 -11   52.61    4.82
   0   2 -11   74.46   10.42
   0   2 -11   57.15    4.96
   0   2 -11   69.89    9.74
   0   2 -11   61.01    8.20
   0   2 -10  294.70   14.20
   0   2 -10  258.51   13.59
   0   2 -10  274.57   22.21
   0   2 -10  303.85   13.98
   0   2 -10  287.53   22.03
   0   2 -10  288.88   20.24
   0   2  -9    7.39    1.72
   0   2  -9    9.10    3.58
   0   2  -9    5.36    1.43
   0   2  -9    5.20    2.91
   0   2  -9    6.74    2.77
   0   2  -8  264.99   12.74
   0   2  -8  248.41   19.38
   0   2  -8  272.50   12.53
   0   2  -8  286.38   20.28
   0   2  -8  264.30   17.60
   0   2  -7  118.01    6.81
   0   2  -7   99.95   11.01
   0   2  -7  117.62   11.78
   0   2  -7  111.85   10.00
   0   2  -7  114.62    6.50
   0   2  -6  709.17   34.52
   0   2  -6  704.92   31.52
   0   2  -5  768.32   35.24
   0   2  -5  766.97   32.48
   0   2  -4    0.85    1.33
   0   2  -4    0.60    0.87
   0   2  -3  342.69   18.08
   0   2  -3  309.09   15.81
   0   2  -2  105.40    7.64
   0   2  -2  101.34    6.54
   0   2  -1  577.06   22.20
   0   2  -1  545.62   22.20
   0   2  -1  553.29   21.44
   0   2   0 1112.30   41.89
   0   2   0 1148.14   42.37
   0   2   1  133.65    8.47
   0   2   1  119.35    6.77
   0   2   2   57.50    5.86
   0   2   2   56.37    5.09
   0   2   3  148.80   14.31
   0   2   3  136.12   10.66
   0   2   3  138.52   10.28
   0   2   4 2337.02   96.16
   0   2   4 2154.26   84.61
   0   2   4 2152.62   84.06
   0   2   5  177.29   15.53
   0   2   5  175.70    9.80
   0   2   5  207.75   20.39
   0   2   5  185.69    9.19
   0   2   6    5.36    3.55
   0   2   6    4.09    1.47
   0   2   6    4.24    1.46
   0   2   6    5.09    1.37
   0   2   6    7.10    3.60
   0   2   7   94.84    5.39
   0   2   7   83.31    5.55
   0   2   7   73.47    5.69
   0   2   7   88.82    5.86
   0   2   7   87.74   14.13
   0   2   7   76.93    5.94
   0   2   7   85.49    6.57
   0   2   7   92.59   13.03
   0   2   8    3.09    1.22
   0   2   8    1.60    1.15
   0   2   8    2.69    1.13
   0   2   8    3.00    1.36
   0   2   8    1.57    1.86
   0   2   8    2.47    1.57
   0   2   8    2.68    1.23
   0   2   8    2.28    1.17
   0   2   9   49.26    4.93
   0   2   9   45.33    4.80
   0   2   9   48.43    5.36
   0   2   9   63.77   12.06
   0   2   9   61.47    5.33
   0   2  10    0.26    0.77
   0   2  10   -0.26    0.98
   0   2  10    2.70    1.15
   0   2  10    1.11    1.14
   0   2  11   67.54    4.54
   0   2  11   68.48    5.14
   0   2  11   65.69    5.25
   0   2  11   64.45    5.58
   0   2  11   62.67    5.06
   0   2  12   36.63    3.04
   0   2  12   32.64    3.03
   0   2  12   26.00    2.98
   0   2  12   31.22    2.85
   0   2  13    1.28    0.50
   0   2  13    1.20    0.59
   0   3 -14    4.25    1.10
   0   3 -14    5.76    1.13
   0   3 -14    4.13    1.11
   0   3 -13  214.88   10.62
   0   3 -13  209.52   10.72
   0   3 -13  212.78   10.35
   0   3 -12   15.81    2.39
   0   3 -12   14.09    2.26
   0   3 -11  349.16   16.00
   0   3 -11  354.48   25.81
   0   3 -11  362.89   16.24
   0   3 -11  348.14   24.20
   0   3 -11  332.20   22.52
   0   3 -10    2.43    1.05
   0   3 -10    2.86    1.96
   0   3 -10    1.55    0.87
   0   3 -10    3.39    2.01
   0   3 -10    2.85    1.69
   0   3  -9  645.02   25.93
   0   3  -9  622.00   25.34
   0   3  -9  613.42   35.36
   0   3  -9  652.62   25.45
   0   3  -9  661.13   35.08
   0   3  -9  635.00   32.67
   0   3  -8  479.66   19.58
   0   3  -8  461.15   18.98
   0   3  -8  495.04   28.18
   0   3  -8  446.93   18.85
   0   3  -8  484.79   27.55
   0   3  -8  443.95   24.65
   0   3  -7  246.74   10.97
   0   3  -7  252.55   17.35
   0   3  -7  237.81   15.45
   0   3  -7  239.65   11.37
   0   3  -7  240.61   10.95
   0   3  -6  384.73   15.46
   0   3  -6  388.05   15.99
   0   3  -6  385.58   21.87
   0   3  -6  386.25   20.20
   0   3  -5  113.27   10.10
   0   3  -5  115.55    9.78
   0   3  -5  114.19    8.93
   0   3  -4 5448.03  195.44
   0   3  -4 5638.28  190.90
   0   3  -4 5418.01  192.75
   0   3  -3   98.84    9.19
   0   3  -3  126.28    8.61
   0   3  -2  855.04   34.94
   0   3  -2  853.76   34.17
   0   3  -2  844.78   33.29
   0   3  -1  581.81   25.13
   0   3  -1  574.68   24.37
   0   3  -1  570.77   23.36
   0   3   0 1901.80   63.76
   0   3   0 1761.35   63.00
   0   3   0 1748.13   64.69
   0   3   1 2074.15   80.09
   0   3   1 2311.79   78.70
   0   3   2  551.86   27.46
   0   3   2  542.49   27.10
   0   3   2  538.05   24.44
   0   3   3 2041.39   83.15
   0   3   3 1995.27   77.19
   0   3   3 2021.15   79.69
   0   3   4   88.78    6.30
   0   3   4   79.77   11.83
   0   3   4   93.19   10.06
   0   3   4   59.21    8.48
   0   3   4   85.91    5.56
   0   3   5  401.79   17.23
   0   3   5  374.35   15.77
   0   3   5  391.01   17.77
   0   3   5  413.23   26.94
   0   3   5  394.29   18.52
   0   3   5  452.09   33.94
   0   3   5  401.69   17.04
   0   3   6   76.17    5.84
   0   3   6   71.69    4.76
   0   3   6   94.92   15.57
   0   3   6   79.91    5.53
   0   3   6   74.46    6.03
   0   3   6   76.13   11.94
   0   3   6   76.59    4.95
   0   3   6   63.29    5.32
   0   3   7  347.85   14.38
   0   3   7  358.78   15.16
   0   3   7  296.28   15.56
   0   3   7  361.32   32.26
   0   3   7  333.72   16.13
   0   3   7  324.65   16.18
   0   3   7  329.77   27.61
   0   3   8  461.67   18.42
   0   3   8  454.94   37.31
   0   3   8  430.55   19.95
   0   3   8  413.50   19.95
   0   3   8  432.67   31.66
   0   3   8  437.91   19.16
   0   3   9   47.44    4.09
   0   3   9   54.74    4.32
   0   3   9   41.06    5.04
   0   3   9   57.46   11.60
   0   3   9   44.79    4.83
   0   3   9   45.09    4.59
   0   3  10   69.43    4.84
   0   3  10   63.24    5.37
   0   3  10   65.95    5.58
   0   3  10   55.07    5.17
   0   3  10   63.89    5.10
   0   3  11    0.69    0.72
   0   3  11    1.52    0.90
   0   3  11    0.90    0.85
   0   3  12  124.81    6.92
   0   3  12  136.85    6.50
   0   3  12  139.63    6.55
   0   4 -15    0.65    0.46
   0   4 -15    1.63    0.55
   0   4 -14    4.59    0.97
   0   4 -13   46.50    3.94
   0   4 -13   36.66    3.33
   0   4 -12  160.56    8.87
   0   4 -12  162.11   15.76
   0   4 -12  140.33    8.74
   0   4 -12  149.25    8.30
   0   4 -11  133.86    8.34
   0   4 -11  131.54    7.69
   0   4 -11  139.33   14.65
   0   4 -11  121.82    7.87
   0   4 -11  145.20   13.21
   0   4 -10   22.45    3.03
   0   4 -10   23.66    2.80
   0   4 -10   23.90    5.71
   0   4 -10   23.52    2.90
   0   4 -10   33.50    6.03
   0   4  -9   28.52    3.26
   0   4  -9   31.37    3.08
   0   4  -9   31.85    6.76
   0   4  -9   31.09    3.19
   0   4  -9   34.09    5.90
   0   4  -9   42.41    6.78
   0   4  -8  143.53    8.14
   0   4  -8  142.66    7.61
   0   4  -8  161.50   10.33
   0   4  -8  145.39    7.81
   0   4  -8  147.80   13.03
   0   4  -8  147.24   12.37
   0   4  -7 1200.32   43.89
   0   4  -7 1162.23   42.94
   0   4  -7 1333.81   47.58
   0   4  -7 1158.21   43.29
   0   4  -7 1319.54   52.15
   0   4  -7 1236.57   50.56
   0   4  -6   59.32    4.33
   0   4  -6   69.47    8.41
   0   4  -6   64.92    4.27
   0   4  -5  529.77   25.35
   0   4  -5  525.83   26.37
   0   4  -5  503.14   28.22
   0   4  -5  507.87   23.92
   0   4  -4   62.65    8.25
   0   4  -3 1080.41   43.14
   0   4  -3 1048.25   44.44
   0   4  -3 1070.24   45.67
   0   4  -2  804.41   33.39
   0   4  -2  822.95   35.87
   0   4  -2  808.96   35.02
   0   4  -1 1153.17   45.25
   0   4  -1 1203.77   48.96
   0   4   0 2332.90   81.02
   0   4   0 2456.36   87.51
   0   4   1   98.02    7.54
   0   4   1  111.35    8.05
   0   4   2  634.06   30.59
   0   4   2  653.85   30.28
   0   4   2  676.75   34.15
   0   4   3    5.73    1.62
   0   4   3   -0.73    1.23
   0   4   3    3.76    1.39
   0   4   3    1.40    0.95
   0   4   3    1.26    1.66
   0   4   3    2.39    2.31
   0   4   3    1.74    0.69
   0   4   4 1084.45   40.85
   0   4   4  969.15   51.59
   0   4   4  988.05   37.64
   0   4   4 1077.53   39.39
   0   4   4 1041.77   49.86
   0   4   4 1032.06   50.98
   0   4   5  541.67   22.68
   0   4   5  486.79   20.82
   0   4   5  530.28   20.21
   0   4   5  540.30   22.05
   0   4   5  532.07   20.70
   0   4   5  576.25   35.29
   0   4   5  499.88   22.56
   0   4   5  553.81   24.58
   0   4   5  556.23   37.32
   0   4   5  553.34   22.79
   0   4   6  214.61   13.50
   0   4   6  212.99   11.30
   0   4   6  193.61    9.96
   0   4   6  204.36   11.65
   0   4   6  210.04    9.65
   0   4   6  212.97   10.22
   0   4   6  199.41   11.42
   0   4   6  223.29   21.77
   0   4   7  189.51   10.66
   0   4   7  252.14   26.96
   0   4   7  183.29   11.48
   0   4   7  223.33   10.09
   0   4   7  222.22   10.75
   0   4   7  190.28   11.22
   0   4   7  197.36   20.38
   0   4   7  207.76   12.02
   0   4   8   59.85    5.77
   0   4   8   52.09    4.92
   0   4   8   63.75   10.75
   0   4   8   64.78    4.63
   0   4   8   54.28    4.96
   0   4   8   62.01    5.08
   0   4   9  388.50   16.22
   0   4   9  417.42   16.19
   0   4   9  373.70   17.76
   0   4   9  380.98   17.15
   0   4   9  346.19   17.49
   0   4   9  318.97   15.94
   0   4  10    2.20    1.07
   0   4  10    1.38    0.94
   0   4  11  141.58    7.36
   0   4  11  152.65    7.29
   0   4  12   28.86    1.94
   0   5 -15    0.19    0.37
   0   5 -14   27.94    2.74
   0   5 -14   26.28    2.73
   0   5 -13    0.62    0.81
   0   5 -12    7.20    1.45
   0   5 -12   13.36    2.34
   0   5 -11   24.90    3.06
   0   5 -11   24.58    5.99
   0   5 -11   25.30    3.20
   0   5 -11   21.98    2.61
   0   5 -10   42.99    3.92
   0   5 -10   36.76    3.82
   0   5 -10   33.36    3.20
   0   5  -9  146.40    8.23
   0   5  -9  155.21   12.52
   0   5  -9  140.20    8.34
   0   5  -9  147.94    7.71
   0   5  -8   14.23    2.16
   0   5  -8   14.60    2.21
   0   5  -8   13.36    1.83
   0   5  -8   17.95    3.79
   0   5  -7   63.45    4.79
   0   5  -7   65.70    9.24
   0   5  -7   66.19    7.39
   0   5  -6   59.30    4.43
   0   5  -6   53.71    8.27
   0   5  -6   54.56    6.13
   0   5  -6   54.86    4.38
   0   5  -5  507.52   20.77
   0   5  -5  516.36   20.79
   0   5  -5  510.15   20.54
   0   5  -5  487.91   23.75
   0   5  -5  541.04   31.74
   0   5  -5  445.30   24.72
   0   5  -4  870.23   32.71
   0   5  -4  931.64   40.09
   0   5  -4  877.18   41.59
   0   5  -4  902.39   43.38
   0   5  -3  465.87   23.36
   0   5  -3  436.63   25.61
   0   5  -3  445.03   25.19
   0   5  -2  196.42   12.92
   0   5  -2  192.49   15.29
   0   5  -1  672.62   33.57
   0   5  -1  609.02   25.83
   0   5  -1  603.94   28.31
   0   5   0  188.43   12.90
   0   5   0  196.44    9.04
   0   5   0  204.23   12.10
   0   5   0  212.78   16.75
   0   5   0  204.39    9.78
   0   5   0  215.84   10.38
   0   5   1  661.73   24.88
   0   5   1  603.66   23.69
   0   5   1  566.66   28.08
   0   5   1  594.71   23.04
   0   5   2    2.70    0.93
   0   5   2    2.62    1.00
   0   5   2    2.89    1.42
   0   5   2    1.82    1.08
   0   5   2    2.48    1.27
   0   5   2    4.87    2.39
   0   5   3  124.84    7.38
   0   5   3  135.41    8.49
   0   5   3  137.76    6.99
   0   5   3  140.99    9.47
   0   5   3  133.00   12.01
   0   5   3  146.25    9.47
   0   5   3  132.40   15.02
   0   5   4   41.72    3.76
   0   5   4   45.19    4.64
   0   5   4   41.33    3.14
   0   5   4   45.91    4.12
   0   5   4   42.51    3.57
   0   5   4   49.83    5.52
   0   5   4   38.69    7.13
   0   5   4   53.04    9.66
   0   5   4   32.59    7.08
   0   5   5  394.72   18.51
   0   5   5  356.59   16.35
   0   5   5  373.98   15.51
   0   5   5  382.03   17.60
   0   5   5  401.78   16.58
   0   5   5  374.68   29.47
   0   5   5  385.50   20.29
   0   5   5  377.05   28.31
   0   5   5  394.63   18.56
   0   5   6   45.02    4.93
   0   5   6   36.46    3.60
   0   5   6   42.29    3.45
   0   5   6   43.58    4.75
   0   5   6   39.51    3.88
   0   5   6   42.49    4.56
   0   5   6   44.58    9.29
   0   5   7   81.88    6.95
   0   5   7   87.33    6.50
   0   5   7   82.55    7.83
   0   5   7   96.02    7.54
   0   5   8   85.83    6.31
   0   5   8   80.58    7.25
   0   5   8   81.17    6.81
   0   5   9    2.45    1.03
   0   5   9    3.76    1.35
   0   5  10   33.77    3.23
   0   5  10   37.32    3.58
   0   5  10   35.26    3.34
   0   5  11    0.94    0.49
   0   6 -15   43.21    2.91
   0   6 -15   36.25    2.63
   0   6 -14    0.46    0.54
   0   6 -14    0.71    0.56
   0   6 -13  174.54    9.29
   0   6 -13  178.95    9.24
   0   6 -12  115.72    7.37
   0   6 -12  111.80    7.18
   0   6 -11    7.79    1.88
   0   6 -11   11.55    4.13
   0   6 -11   10.47    2.02
   0   6 -10   67.90    5.40
   0   6 -10   64.11    5.15
   0   6  -9  338.41   15.90
   0   6  -9  355.08   15.40
   0   6  -9  367.44   15.94
   0   6  -8  834.86   32.92
   0   6  -8  906.12   32.85
   0   6  -8  834.36   44.53
   0   6  -8  843.21   32.80
   0   6  -7   72.85    5.43
   0   6  -7   84.83    5.66
   0   6  -7   84.42   11.30
   0   6  -7   73.27    5.40
   0   6  -6  288.18   13.99
   0   6  -6  302.90   14.11
   0   6  -6  278.00   17.87
   0   6  -6  326.69   24.34
   0   6  -6  343.21   22.44
   0   6  -6  315.85   14.37
   0   6  -5  247.73   12.00
   0   6  -5  252.75   12.69
   0   6  -5  212.56   16.47
   0   6  -5  278.93   22.28
   0   6  -5  248.61   18.55
   0   6  -5  239.73   11.91
   0   6  -4  587.21   23.33
   0   6  -4  567.99   23.29
   0   6  -4  668.74   25.86
   0   6  -4  568.78   22.91
   0   6  -4  595.00   30.95
   0   6  -4  570.29   33.05
   0   6  -4  581.16   33.55
   0   6  -3  163.70    8.33
   0   6  -3  163.52    8.38
   0   6  -3  159.16    8.99
   0   6  -3  171.17    9.76
   0   6  -3  163.74    9.39
   0   6  -3  168.40   16.05
   0   6  -3  171.19   13.37
   0   6  -3  160.05    7.83
   0   6  -2   87.70    9.13
   0   6  -2   82.45    4.89
   0   6  -2   82.34    5.21
   0   6  -2   88.20    6.38
   0   6  -2   94.80    6.81
   0   6  -2   79.25    6.97
   0   6  -2   93.26   11.78
   0   6  -1  925.73   42.79
   0   6  -1  969.57   35.15
   0   6  -1  988.91   37.02
   0   6  -1 1048.03   37.97
   0   6  -1  929.30   35.60
   0   6  -1  936.76   39.64
   0   6  -1 1051.59   50.61
   0   6   0   91.12    6.64
   0   6   0   84.35    5.37
   0   6   0   92.59   12.47
   0   6   0   83.70    8.92
   0   6   0   82.08    5.00
   0   6   1  374.75   16.61
   0   6   1  456.39   21.52
   0   6   1  406.26   19.08
   0   6   1  408.16   17.57
   0   6   1  403.71   18.59
   0   6   1  351.46   22.20
   0   6   1  421.70   29.52
   0   6   2  180.26    9.86
   0   6   2  182.62    9.35
   0   6   2  183.99    8.86
   0   6   2  179.12    9.39
   0   6   2  193.63   12.48
   0   6   2  177.64   11.56
   0   6   3  463.34   19.98
   0   6   3  493.88   18.58
   0   6   3  465.16   18.99
   0   6   3  442.61   29.72
   0   6   3  468.62   23.20
   0   6   3  434.92   19.44
   0   6   4  669.08   27.98
   0   6   4  610.07   25.39
   0   6   4  646.79   26.11
   0   6   4  637.76   24.19
   0   6   4  617.37   24.75
   0   6   4  629.91   29.50
   0   6   4  577.11   25.09
   0   6   4  667.62   28.50
   0   6   4  584.71   40.65
   0   6   5   51.33    5.19
   0   6   5   56.32    4.20
   0   6   5   50.90    4.39
   0   6   5   52.35    6.53
   0   6   5   44.44    5.25
   0   6   5   52.13    5.60
   0   6   5   49.44    4.44
   0   6   6   11.32    1.88
   0   6   6   13.62    2.97
   0   6   6   12.25    2.23
   0   6   6   10.76    2.62
   0   6   6   14.27    2.76
   0   6   6   14.27    3.32
   0   6   6   12.59    2.10
   0   6   7    1.78    1.04
   0   6   7    2.64    1.55
   0   6   7    1.79    1.02
   0   6   7    3.26    1.57
   0   6   7    0.24    1.23
   0   6   8  165.41   10.11
   0   6   9   54.00    3.67
   0   6   9   45.60    4.11
   0   6   9   44.18    4.21
   0   6  10    5.76    1.04
   0   7 -14    6.22    1.24
   0   7 -14    6.37    1.28
   0   7 -13   44.38    3.72
   0   7 -13   39.06    3.62
   0   7 -12   57.53    4.68
   0   7 -12   52.56    4.54
   0   7 -11   52.86    4.67
   0   7 -11   66.27    8.90
   0   7 -11   52.05    4.59
   0   7 -10   42.17    3.75
   0   7 -10   44.86    4.22
   0   7 -10   53.98    9.16
   0   7 -10   48.26    7.65
   0   7 -10   44.68    4.25
   0   7  -9  399.84   17.42
   0   7  -9  389.38   17.67
   0   7  -9  372.59   27.87
   0   7  -9  437.53   26.74
   0   7  -9  419.43   17.99
   0   7  -8  106.22    6.88
   0   7  -8   99.04    6.77
   0   7  -8   99.44   13.20
   0   7  -8  120.76   12.61
   0   7  -8  104.69    6.93
   0   7  -7  104.96    7.02
   0   7  -7  103.70    6.90
   0   7  -7  116.88   14.33
   0   7  -7  117.93   12.86
   0   7  -7  102.52    7.06
   0   7  -6   99.88    7.02
   0   7  -6   88.36    6.77
   0   7  -6   88.67    6.62
   0   7  -6   87.80    6.49
   0   7  -6   96.47   12.25
   0   7  -6   83.92    9.15
   0   7  -6   77.71   12.42
   0   7  -5  453.28   19.66
   0   7  -5  456.11   19.77
   0   7  -5  466.48   20.86
   0   7  -5  425.87   18.98
   0   7  -5  459.58   28.76
   0   7  -5  408.35   26.25
   0   7  -5  449.44   31.87
   0   7  -4  889.56   33.77
   0   7  -4  912.46   33.89
   0   7  -4  844.56   33.55
   0   7  -4  855.40   32.81
   0   7  -4  881.54   34.18
   0   7  -4  828.38   45.11
   0   7  -4  911.56   44.23
   0   7  -4  863.40   32.87
   0   7  -3    3.77    2.19
   0   7  -3    3.95    1.13
   0   7  -3    3.12    1.32
   0   7  -3    6.74    1.52
   0   7  -3    5.01    1.38
   0   7  -3    7.11    2.01
   0   7  -3    4.91    2.91
   0   7  -2  422.03   18.73
   0   7  -2  471.69   21.01
   0   7  -2  438.73   20.46
   0   7  -2  443.15   20.94
   0   7  -2  460.09   18.07
   0   7  -2  440.91   26.36
   0   7  -2  444.94   18.15
   0   7  -2  473.25   33.46
   0   7  -1   97.02    6.18
   0   7  -1   93.12    7.87
   0   7  -1   97.81    7.71
   0   7  -1   76.68    9.69
   0   7  -1   79.74    5.36
   0   7  -1   81.01   13.31
   0   7   0 1205.77   44.81
   0   7   0 1258.58   46.20
   0   7   0 1306.09   47.84
   0   7   0 1305.43   44.42
   0   7   0 1156.13   43.46
   0   7   0 1155.30   42.92
   0   7   0 1179.40   43.93
   0   7   0 1268.97   65.44
   0   7   1  556.76   21.54
   0   7   1  593.51   23.01
   0   7   1  541.65   22.06
   0   7   1  531.76   25.98
   0   7   1  544.30   23.10
   0   7   1  575.89   39.97
   0   7   1  568.77   24.10
   0   7   1  608.79   25.95
   0   7   2  309.34   15.11
   0   7   2  316.97   16.73
   0   7   2  302.27   13.06
   0   7   2  322.08   14.58
   0   7   2  300.49   13.65
   0   7   2  294.82   17.54
   0   7   2  300.62   14.53
   0   7   3   12.82    2.40
   0   7   3   14.56    2.01
   0   7   3   10.15    1.90
   0   7   3   12.54    2.24
   0   7   3   15.30    3.50
   0   7   3   12.16    3.15
   0   7   4    3.02    1.27
   0   7   4    4.08    1.45
   0   7   4    4.46    1.18
   0   7   4    5.63    1.80
   0   7   4    3.19    1.24
   0   7   4    6.66    2.23
   0   7   4    3.38    1.74
   0   7   5  424.47   21.06
   0   7   5  411.23   18.47
   0   7   5  429.36   20.92
   0   7   5  384.94   21.50
   0   7   5  432.20   17.46
   0   7   5  428.78   19.89
   0   7   5  434.92   18.49
   0   7   6    0.35    0.93
   0   7   6    0.30    0.79
   0   7   6    0.75    1.32
   0   7   6    1.43    0.86
   0   7   6    0.94    1.34
   0   7   6   -0.44    0.94
   0   7   7  201.76   11.46
   0   7   7  171.18    9.68
   0   7   7  197.58    9.02
   0   7   7  184.54   10.20
   0   7   7  195.29   10.07
   0   7   8   58.66    5.02
   0   7   8   56.66    4.62
   0   7   8   66.21    4.22
   0   7   8   72.88    4.98
   0   7   8   65.41    3.88
   0   7   9   71.80    4.19
   0   8 -14   18.75    1.97
   0   8 -14   17.40    1.91
   0   8 -14   19.80    1.96
   0   8 -13   15.05    2.03
   0   8 -13   15.20    2.02
   0   8 -13   15.75    2.07
   0   8 -12    8.81    1.76
   0   8 -12    8.07    1.66
   0   8 -11    0.64    0.67
   0   8 -11    0.83    0.70
   0   8 -10    5.51    2.92
   0   8 -10    2.74    1.12
   0   8 -10    4.14    1.32
   0   8  -9    9.60    2.08
   0   8  -9   11.14    2.02
   0   8  -9   10.72    2.07
   0   8  -9    6.85    3.33
   0   8  -8  136.98    8.47
   0   8  -8  119.11    8.04
   0   8  -8  148.68    7.43
   0   8  -8  116.42    7.69
   0   8  -8  129.28   14.17
   0   8  -8  121.42   14.88
   0   8  -7  118.22    7.86
   0   8  -7   95.75    6.84
   0   8  -7   98.70    7.32
   0   8  -7  105.71   13.19
   0   8  -7  102.59   14.41
   0   8  -6  160.92    9.66
   0   8  -6  160.86   10.37
   0   8  -6  160.12   17.42
   0   8  -6  169.96    9.53
   0   8  -6  176.59   10.79
   0   8  -5   49.11    5.35
   0   8  -5   42.68    4.09
   0   8  -5   37.32    4.35
   0   8  -5   49.55    8.94
   0   8  -5   44.14    4.07
   0   8  -5   35.28    6.75
   0   8  -4   93.27    8.12
   0   8  -4   72.15    6.07
   0   8  -4   84.22    6.42
   0   8  -4   72.61   10.66
   0   8  -4   81.17    5.67
   0   8  -4   75.49   11.08
   0   8  -3  205.45   11.27
   0   8  -3  202.67   11.75
   0   8  -3  202.20   12.23
   0   8  -3  192.89   17.76
   0   8  -3  211.65   10.48
   0   8  -3  183.85   20.59
   0   8  -2   26.60    2.93
   0   8  -2   30.28    3.62
   0   8  -2   28.78    4.13
   0   8  -2   33.79    4.83
   0   8  -2   28.46    6.32
   0   8  -2   30.84    3.30
   0   8  -1  271.28   15.02
   0   8  -1  269.26   16.11
   0   8  -1  290.54   13.12
   0   8  -1  275.74   13.83
   0   8  -1  239.91   26.69
   0   8   0   59.62    5.82
   0   8   0   63.80    6.82
   0   8   0   65.11    5.07
   0   8   0   58.07    5.20
   0   8   0   66.12   13.03
   0   8   1   21.36    3.33
   0   8   1   24.68    4.24
   0   8   1   21.35    3.07
   0   8   2   36.28    4.41
   0   8   2   48.57    5.94
   0   8   2   53.62    4.32
   0   8   2   46.76    3.67
   0   8   2   36.62    5.02
   0   8   2   48.94    4.72
   0   8   2   47.45    6.46
   0   8   2   32.74    9.26
   0   8   3  132.35    7.69
   0   8   3  127.21    6.91
   0   8   3  124.14    8.26
   0   8   3  139.00   10.86
   0   8   3  116.82    8.26
   0   8   4  260.16   12.25
   0   8   4  249.60   11.19
   0   8   4  275.33   15.57
   0   8   4  236.09   12.66
   0   8   4  237.11   12.55
   0   8   5    4.12    1.63
   0   8   5    3.60    1.24
   0   8   5    2.89    0.88
   0   8   5    2.15    1.59
   0   8   5    2.33    1.31
   0   8   5    6.16    1.86
   0   8   5    3.89    1.24
   0   8   6   95.70    6.70
   0   8   6   95.47    6.80
   0   8   6   95.85    6.05
   0   8   7    0.23    0.60
   0   9 -14    9.48    1.24
   0   9 -13   13.25    1.77
   0   9 -13   13.42    1.77
   0   9 -13    9.64    1.45
   0   9 -12  106.22    6.33
   0   9 -12  114.97    6.54
   0   9 -12  101.57    6.06
   0   9 -11    7.36    1.59
   0   9 -11    5.44    1.48
   0   9 -11    5.87    1.36
   0   9 -10   30.83    3.41
   0   9 -10   32.55    2.97
   0   9 -10   33.20    3.56
   0   9 -10   26.71    3.02
   0   9 -10   33.84    3.35
   0   9  -9   78.89    6.05
   0   9  -9   82.67   10.88
   0   9  -9   84.18    5.39
   0   9  -9   88.62    6.38
   0   9  -9   81.06    6.01
   0   9  -9   75.96    5.63
   0   9  -8  270.97   13.53
   0   9  -8  281.44   22.16
   0   9  -8  257.84   12.15
   0   9  -8  266.82   13.54
   0   9  -8  258.06   13.31
   0   9  -8  246.73   12.51
   0   9  -7    6.35    1.51
   0   9  -7    6.24    1.87
   0   9  -7    5.43    1.54
   0   9  -7    3.51    1.56
   0   9  -6   34.16    4.45
   0   9  -6   29.98    7.32
   0   9  -6   30.27    3.50
   0   9  -6   29.43    4.15
   0   9  -6   32.66    4.27
   0   9  -5  343.82   16.81
   0   9  -5  320.48   17.41
   0   9  -5  319.84   26.67
   0   9  -5  347.33   15.48
   0   9  -5  344.56   17.08
   0   9  -5  289.28   14.69
   0   9  -4   43.39    4.82
   0   9  -4   48.93    6.11
   0   9  -4   34.65    4.13
   0   9  -4   43.17    3.74
   0   9  -4   41.34    8.60
   0   9  -4   42.03    4.04
   0   9  -4   29.66    7.02
   0   9  -3   49.10    5.02
   0   9  -3   42.65    4.89
   0   9  -3   42.80    3.87
   0   9  -3   35.41    7.77
   0   9  -3   42.79    4.08
   0   9  -3   37.77    8.72
   0   9  -2   57.61    5.52
   0   9  -2   59.50    6.52
   0   9  -2   57.00    6.30
   0   9  -2   55.73    4.72
   0   9  -2   50.02   11.16
   0   9  -1  116.60    7.38
   0   9  -1  119.92    8.34
   0   9  -1  126.45   19.42
   0   9  -1  116.84    9.22
   0   9  -1  124.07   10.45
   0   9   0  203.77   12.66
   0   9   0  189.08   13.76
   0   9   0  202.80   12.24
   0   9   0  219.83   11.22
   0   9   0  217.41   12.02
   0   9   0  225.70   14.66
   0   9   1    4.56    1.66
   0   9   1    3.38    1.70
   0   9   1    4.58    1.49
   0   9   1    4.74    2.25
   0   9   1    7.97    4.72
   0   9   2   88.19    8.44
   0   9   2  101.96    7.56
   0   9   2   96.76    5.99
   0   9   2   92.58    6.66
   0   9   2   95.58    7.03
   0   9   2  105.85    9.72
   0   9   3    5.74    1.58
   0   9   3    4.08    1.82
   0   9   3    5.94    1.71
   0   9   4  126.15    9.04
   0   9   4  110.57    7.01
   0   9   5   45.71    4.45
   0   9   5   48.01    4.20
   0   9   6    9.90    1.85
   0   9   6   11.49    1.67
   0  10 -13   62.51    3.79
   0  10 -13   61.43    3.80
   0  10 -12   10.70    1.64
   0  10 -12    6.80    1.15
   0  10 -11   36.79    3.34
   0  10 -11   31.93    2.80
   0  10 -10    0.40    0.63
   0  10 -10    0.31    0.57
   0  10  -9   82.11    6.10
   0  10  -9   88.08    6.20
   0  10  -9   86.71    6.09
   0  10  -8  124.93    8.06
   0  10  -8  115.58    7.76
   0  10  -7    5.79    1.79
   0  10  -7    8.73    3.65
   0  10  -7    4.61    1.75
   0  10  -7    3.26    1.62
   0  10  -6  172.78   11.22
   0  10  -6  196.97   19.50
   0  10  -6  182.63    9.75
   0  10  -5    1.43    1.19
   0  10  -5    2.36    1.05
   0  10  -5    2.57    2.15
   0  10  -5    0.45    0.75
   0  10  -4  238.93   12.65
   0  10  -4  280.49   14.66
   0  10  -4  241.85   12.95
   0  10  -4  260.78   23.35
   0  10  -3  109.89    7.49
   0  10  -3  109.62    6.76
   0  10  -3  108.76    8.15
   0  10  -3  101.41    7.74
   0  10  -3   95.31    7.42
   0  10  -2  163.11    9.63
   0  10  -2  148.60    9.76
   0  10  -2  133.64    9.75
   0  10  -2  145.99   11.04
   0  10  -2  144.76   10.05
   0  10  -1   34.78    3.60
   0  10  -1   36.57    4.28
   0  10  -1   30.98    4.44
   0  10  -1   31.30    4.61
   0  10  -1   35.00    4.85
   0  10   0   17.52    3.66
   0  10   0   17.02    3.50
   0  10   0   19.75    3.10
   0  10   0   21.14    3.55
   0  10   1  195.04   11.49
   0  10   1  210.25   13.40
   0  10   1  204.99   11.13
   0  10   1  186.44    9.76
   0  10   2    0.23    0.78
   0  10   2   -0.38    1.36
   0  10   2    0.85    1.42
   0  10   3  148.19    9.78
   0  10   3  142.27    9.60
   0  10   3  136.38    7.85
   0  10   4   19.71    2.83
   0  10   4   19.79    2.79
   0  10   5   17.15    1.85
   0  11 -12   22.72    2.06
   0  11 -11   12.07    1.67
   0  11 -10    2.94    0.99
   0  11  -9   11.32    1.95
   0  11  -9    9.47    1.74
   0  11  -9   11.05    1.47
   0  11  -8   21.23    2.85
   0  11  -8   19.12    2.67
   0  11  -7   60.78    5.19
   0  11  -7   51.26    4.77
   0  11  -6    2.89    1.50
   0  11  -6    4.00    1.52
   0  11  -5   89.48    7.35
   0  11  -5  106.51    7.91
   0  11  -5   89.60    5.55
   0  11  -4    0.87    0.80
   0  11  -4    0.79    0.72
   0  11  -4    2.45    1.02
   0  11  -4    1.63    1.22
   0  11  -3   20.82    3.78
   0  11  -3   17.96    3.13
   0  11  -3   17.38    2.76
   0  11  -2   21.76    2.61
   0  11  -2   15.82    2.57
   0  11  -2   19.11    2.97
   0  11  -2   21.39    3.24
   0  11  -2   21.24    3.86
   0  11  -1   46.44    5.12
   0  11  -1   40.80    4.37
   0  11  -1   43.55    4.66
   0  11  -1   45.18    4.61
   0  11  -1   46.99    4.32
   0  11  -1   45.16    3.84
   0  11   0  101.16    7.38
   0  11   0  111.18    7.75
   0  11   0  108.87    6.35
   0  11   0  100.14    7.55
   0  11   0  112.61    7.30
   0  11   1    1.78    1.02
   0  11   1    2.87    1.20
   0  11   1    2.40    1.01
   0  11   2   41.29    3.59
   0  11   2   52.67    4.75
   0  11   2   53.68    3.71
   0  12 -10    6.37    1.14
   0  12  -9   55.66    3.88
   0  12  -8    8.63    1.52
   0  12  -8   10.54    1.38
   0  12  -8   11.85    1.77
   0  12  -7    6.68    1.50
   0  12  -7    8.79    1.41
   0  12  -7    7.25    1.48
   0  12  -6    1.82    0.93
   0  12  -6    1.24    0.85
   0  12  -6    2.19    0.92
   0  12  -5   35.03    3.75
   0  12  -5   41.10    4.00
   0  12  -4   54.47    4.82
   0  12  -3    7.22    1.85
   0  12  -3    6.88    1.80
   0  12  -3    9.15    1.55
   0  12  -3    7.00    1.18
   0  12  -2   24.04    3.26
   0  12  -2   25.40    2.48
   0  12  -2   27.47    2.51
   0  12  -2   26.01    2.24
   0  12  -2   24.52    2.68
   0  12  -2   23.78    2.98
   0  12  -1    3.30    1.25
   0  12  -1    2.13    0.85
   0  12  -1    3.30    0.84
   0  12  -1    3.35    1.00
   0  12  -1    2.69    1.07
   0  12   0   34.41    3.11
   0  12   0   43.00    3.57
   0  12   1   11.70    1.29
   0  12   1    9.35    1.12
   0  13  -7    4.00    0.76
   0  13  -4    2.37    0.64
   1 -13   7    3.81    0.63
   1 -13   8    0.45    0.29
   1 -12   2    8.46    1.41
   1 -12   2    6.72    1.28
   1 -12   2    6.55    1.26
   1 -12   3   25.94    2.59
   1 -12   4   12.81    1.77
   1 -12   4    9.65    1.56
   1 -12   5   25.55    2.67
   1 -12   5   30.76    2.77
   1 -12   6   18.17    2.16
   1 -12   6   16.83    2.03
   1 -12   7    2.31    0.81
   1 -12   8    3.46    0.83
   1 -12   8    3.22    0.74
   1 -12   8    2.95    0.82
   1 -12   9   11.07    1.26
   1 -12   9   10.40    1.28
   1 -12   9   10.84    1.28
   1 -12  10   30.56    2.00
   1 -12  11    1.30    0.36
   1 -11  -2    1.92    0.81
   1 -11  -1   59.80    4.30
   1 -11  -1   67.19    5.05
   1 -11   0    0.89    0.78
   1 -11   0    1.11    0.80
   1 -11   1  127.07    7.51
   1 -11   2   41.09    3.96
   1 -11   2   51.79    4.44
   1 -11   2   51.32    4.41
   1 -11   3   19.56    2.63
   1 -11   3   21.46    2.69
   1 -11   4   23.32    2.81
   1 -11   4   20.01    2.58
   1 -11   5   15.79    2.28
   1 -11   5   18.58    2.39
   1 -11   6   56.54    4.42
   1 -11   6   57.67    4.13
   1 -11   6   55.15    4.02
   1 -11   7    5.58    1.36
   1 -11   7    7.68    1.58
   1 -11   7    5.98    1.23
   1 -11   8   49.51    3.78
   1 -11   8   44.62    3.70
   1 -11   8   47.87    3.62
   1 -11   9    3.11    0.90
   1 -11   9    3.26    0.90
   1 -11  10    4.00    0.96
   1 -11  11   16.83    1.53
   1 -11  11   15.04    1.61
   1 -11  12    8.94    0.95
   1 -10  -4   19.72    2.43
   1 -10  -3   34.29    3.65
   1 -10  -3   35.89    3.44
   1 -10  -2  197.36   10.71
   1 -10  -2  188.28   10.41
   1 -10  -1    1.36    1.21
   1 -10  -1    1.80    0.95
   1 -10  -1    0.27    0.90
   1 -10   0  193.17   10.22
   1 -10   0  232.41   12.38
   1 -10   1    7.23    1.80
   1 -10   2   60.25    5.26
   1 -10   2   48.95    4.88
   1 -10   3   97.76    6.98
   1 -10   3  104.41    7.08
   1 -10   4   47.48    4.44
   1 -10   4   50.49    4.53
   1 -10   5  193.82    9.79
   1 -10   5  190.68   10.04
   1 -10   5  183.87   10.11
   1 -10   6    3.61    1.16
   1 -10   6    5.43    1.37
   1 -10   7  155.26    7.91
   1 -10   7  143.03    8.36
   1 -10   7  154.06    8.30
   1 -10   8    2.02    0.95
   1 -10   8    1.11    0.73
   1 -10   9   93.85    5.73
   1 -10   9   92.23    5.56
   1 -10   9   96.92    6.02
   1 -10  10   67.75    4.63
   1 -10  10   69.30    4.26
   1 -10  12    8.59    1.23
   1  -9  -6   44.82    3.68
   1  -9  -5    4.43    1.07
   1  -9  -4   68.80    5.10
   1  -9  -3   99.94    7.39
   1  -9  -2   44.12    4.64
   1  -9  -1   53.95    4.27
   1  -9  -1   54.35    5.35
   1  -9   0    9.22    2.51
   1  -9   0    7.05    1.66
   1  -9   1  134.73   15.66
   1  -9   1  174.70   10.00
   1  -9   2   85.95   11.47
   1  -9   2   71.15   10.40
   1  -9   2   79.65    6.35
   1  -9   3   32.00    7.06
   1  -9   3   44.02    4.43
   1  -9   4   67.71    5.20
   1  -9   4   70.30    9.82
   1  -9   4   65.38   10.42
   1  -9   4   73.03    5.67
   1  -9   5   99.00    6.62
   1  -9   5  111.78    7.26
   1  -9   6  205.65   10.81
   1  -9   6  199.06   10.45
   1  -9   7    7.32    1.75
   1  -9   7    8.51    1.80
   1  -9   8    2.61    1.17
   1  -9   8    3.82    1.26
   1  -9   9   37.16    3.41
   1  -9   9   35.35    3.21
   1  -9   9   37.42    3.61
   1  -9   9   33.19    3.08
   1  -9  10   16.32    1.97
   1  -9  10   15.58    1.99
   1  -9  11   30.38    2.91
   1  -9  11   29.03    2.71
   1  -9  12    2.13    0.76
   1  -9  12    2.14    0.72
   1  -9  13   35.85    2.16
   1  -9  13   30.63    2.26
   1  -9  13   30.96    2.33
   1  -8  -7   80.44    5.50
   1  -8  -6    1.30    1.11
   1  -8  -6    1.95    1.00
   1  -8  -5  114.98    8.00
   1  -8  -5  118.07    7.00
   1  -8  -3  275.42   23.71
   1  -8  -3  287.26   14.27
   1  -8  -2  174.44   18.69
   1  -8  -2  203.49   11.48
   1  -8  -1   26.39    6.42
   1  -8  -1   24.89    2.86
   1  -8  -1   20.79    3.27
   1  -8   0   88.81   12.05
   1  -8   0   92.24    6.42
   1  -8   1  181.73   17.59
   1  -8   1  227.57   11.92
   1  -8   2  456.26   25.09
   1  -8   2  445.75   20.17
   1  -8   3   45.99    6.72
   1  -8   3   34.11    6.72
   1  -8   3   36.28    7.08
   1  -8   3   36.64    3.70
   1  -8   4  304.66   21.68
   1  -8   4  298.57   23.83
   1  -8   4  312.60   14.26
   1  -8   5    9.20    3.86
   1  -8   5    9.05    3.10
   1  -8   5    7.79    1.69
   1  -8   6   21.21    6.16
   1  -8   6   29.95    3.33
   1  -8   7  128.92    7.77
   1  -8   7  115.65    6.81
   1  -8   8   31.41    6.50
   1  -8   8   47.19    4.29
   1  -8   8   35.52    3.43
   1  -8   9   84.09    5.39
   1  -8   9   68.23    5.41
   1  -8   9   64.60    5.00
   1  -8   9   80.06    9.60
   1  -8  10    5.17    1.29
   1  -8  10    4.46    1.11
   1  -8  10    7.60    1.69
   1  -8  10    7.13    1.54
   1  -8  11   32.80    2.94
   1  -8  11   24.59    2.78
   1  -8  11   30.24    3.08
   1  -8  12    0.90    0.63
   1  -8  12   -0.14    0.47
   1  -8  12    1.09    0.66
   1  -8  13   17.35    1.77
   1  -8  13   15.24    1.53
   1  -8  13   14.35    1.56
   1  -8  13   19.16    1.96
   1  -7  -8   65.00    4.94
   1  -7  -7   53.98    5.29
   1  -7  -7   53.99    4.95
   1  -7  -6  332.91   16.20
   1  -7  -5    6.27    1.54
   1  -7  -5    4.13    1.61
   1  -7  -4  491.14   21.03
   1  -7  -3   15.77    5.19
   1  -7  -3   14.33    2.49
   1  -7  -2  218.00   11.85
   1  -7  -2  211.84   19.50
   1  -7  -1  168.79    8.86
   1  -7  -1  163.18   16.24
   1  -7  -1  166.01   12.35
   1  -7   0  402.97   17.63
   1  -7   0  387.40   25.92
   1  -7   1 1086.51   52.35
   1  -7   1 1160.81   46.95
   1  -7   2    8.33    1.68
   1  -7   2    9.31    3.30
   1  -7   2   12.91    3.18
   1  -7   3  140.97    8.04
   1  -7   3  144.47   14.18
   1  -7   3  147.90   12.94
   1  -7   4   93.44    6.11
   1  -7   4   91.22    9.88
   1  -7   4   97.85   11.97
   1  -7   5  689.00   27.56
   1  -7   5  742.79   34.95
   1  -7   5  693.48   40.46
   1  -7   6  462.80   18.97
   1  -7   6  408.88   17.72
   1  -7   6  488.62   33.02
   1  -7   7   60.47    4.94
   1  -7   7   52.08    4.36
   1  -7   8   92.30    6.43
   1  -7   8   86.00    6.02
   1  -7   8   88.80   11.58
   1  -7   9  111.29    6.96
   1  -7   9   95.34    6.49
   1  -7   9   89.26   11.06
   1  -7   9   88.64    5.89
   1  -7  10  359.15   24.96
   1  -7  10  338.70   14.94
   1  -7  10  357.61   23.40
   1  -7  10  356.42   15.75
   1  -7  10  337.59   15.68
   1  -7  11   32.12    3.26
   1  -7  11   31.16    3.36
   1  -7  11   35.36    3.19
   1  -7  12   15.22    1.96
   1  -7  12   15.48    2.20
   1  -7  12   15.70    2.02
   1  -7  13   26.25    2.59
   1  -7  13   28.09    2.30
   1  -7  14   25.71    2.19
   1  -7  14   29.93    1.99
   1  -6  -9    4.00    1.37
   1  -6  -9    5.06    1.30
   1  -6  -8   71.87    6.32
   1  -6  -8   65.32    5.48
   1  -6  -7  270.23   13.93
   1  -6  -6   89.38   13.13
   1  -6  -6   83.17    6.63
   1  -6  -5   13.14    2.14
   1  -6  -4    9.47    1.89
   1  -6  -3  578.74   23.63
   1  -6  -3  536.89   33.89
   1  -6   0  374.48   23.19
   1  -6   0  366.85   18.14
   1  -6   1  105.26   10.52
   1  -6   2 1101.79   39.89
   1  -6   2 1006.13   46.10
   1  -6   3  174.00    9.00
   1  -6   3  167.83   14.39
   1  -6   4  222.42   10.76
   1  -6   4  208.68   14.28
   1  -6   4  213.23   17.51
   1  -6   5  100.17    6.03
   1  -6   5  103.93    6.59
   1  -6   5  105.61    9.45
   1  -6   5  119.44   13.40
   1  -6   6  180.55    9.68
   1  -6   6  176.42    9.21
   1  -6   6  207.32   19.58
   1  -6   7  234.69   11.57
   1  -6   7  211.47   11.01
   1  -6   7  231.51   19.85
   1  -6   8   29.49    3.38
   1  -6   8   26.86    3.23
   1  -6   8   30.26    6.39
   1  -6   9  361.90   15.95
   1  -6   9  361.95   16.19
   1  -6   9  310.97   23.00
   1  -6   9  330.62   14.88
   1  -6  10  181.19   16.79
   1  -6  10  161.78    8.76
   1  -6  10  166.34   15.31
   1  -6  10  173.40    9.35
   1  -6  10  179.64    9.89
   1  -6  11   39.26    3.52
   1  -6  11   36.50    3.49
   1  -6  11   39.96    3.95
   1  -6  12    6.80    1.39
   1  -6  12    5.57    1.18
   1  -6  12    6.15    1.50
   1  -6  13   62.43    4.07
   1  -6  13   62.60    3.90
   1  -6  13   53.85    4.10
   1  -6  14   69.82    3.70
   1  -5 -10    5.73    1.23
   1  -5 -10    6.49    1.32
   1  -5  -9  120.91    7.64
   1  -5  -8   26.68    3.51
   1  -5  -7  113.20    7.80
   1  -5  -7   98.25   14.38
   1  -5  -6  114.08    7.78
   1  -5  -6  122.89   12.98
   1  -5  -5   33.26    3.23
   1  -5  -4  392.42   16.72
   1  -5  -3   55.97    6.47
   1  -5  -3   47.93    8.04
   1  -5  -2  402.52   25.29
   1  -5  -2  429.73   19.67
   1  -5  -1    8.89    1.84
   1  -5   0  985.87   44.21
   1  -5   0 1021.02   38.76
   1  -5   1   62.49    6.93
   1  -5   2   41.12    5.22
   1  -5   3   67.65    8.16
   1  -5   3   70.46    6.72
   1  -5   4  337.41   17.72
   1  -5   4  330.40   21.88
   1  -5   5  663.84   25.76
   1  -5   5  657.31   37.15
   1  -5   6  141.22    8.09
   1  -5   6  171.74   17.16
   1  -5   7   13.70    2.26
   1  -5   7   16.15    4.65
   1  -5   8    7.76    1.76
   1  -5   8    8.00    1.54
   1  -5   8    8.24    1.83
   1  -5   8    6.78    3.18
   1  -5   8    9.76    1.67
   1  -5   9   66.26    5.10
   1  -5   9   63.36    5.30
   1  -5   9   62.33    4.79
   1  -5   9   63.80    9.39
   1  -5   9   58.66    4.48
   1  -5  10   75.29    9.82
   1  -5  10   75.39    5.23
   1  -5  10   80.57   10.48
   1  -5  10   73.97    5.40
   1  -5  10   65.78    5.59
   1  -5  10   79.86    5.55
   1  -5  11   22.82    2.63
   1  -5  11   25.80    5.77
   1  -5  11   19.01    2.37
   1  -5  11   17.92    2.73
   1  -5  11   19.79    2.56
   1  -5  12    9.07    1.70
   1  -5  12    5.95    1.15
   1  -5  12    9.88    1.69
   1  -5  12    9.91    1.62
   1  -5  13    0.85    0.71
   1  -5  13    0.32    0.57
   1  -5  13    0.25    0.49
   1  -5  14    2.94    0.72
   1  -5  14    2.63    0.79
   1  -5  14    4.16    0.91
   1  -5  14    3.43    0.79
   1  -5  15   20.11    1.50
   1  -4 -11   34.18    3.26
   1  -4 -11   36.38    2.81
   1  -4 -10  192.08    9.87
   1  -4  -9    1.12    1.32
   1  -4  -9    0.25    0.90
   1  -4  -8  336.42   16.04
   1  -4  -7  182.82   10.18
   1  -4  -7  172.50   18.21
   1  -4  -7  165.15   18.88
   1  -4  -6  469.07   30.09
   1  -4  -6  400.65   30.67
   1  -4  -5  260.86   11.62
   1  -4  -5  261.72   19.74
   1  -4  -4  499.11   27.54
   1  -4  -3 1553.02   60.66
   1  -4  -3 1518.41   55.75
   1  -4  -3 1467.93   64.21
   1  -4  -2   99.97    6.52
   1  -4  -2   94.60    5.96
   1  -4  -2  103.91    8.15
   1  -4  -1  330.34   15.40
   1  -4  -1  329.25   14.14
   1  -4   0  175.92   12.21
   1  -4   0  185.35    9.14
   1  -4   1 2114.26   77.90
   1  -4   2 1128.56   43.78
   1  -4   3  384.64   17.85
   1  -4   4  587.26   24.29
   1  -4   4  502.93   29.50
   1  -4   5   56.50    4.54
   1  -4   5   53.21    8.93
   1  -4   6  652.22   24.88
   1  -4   6  577.53   23.47
   1  -4   6  623.58   35.33
   1  -4   7   47.71    4.37
   1  -4   7   46.92    4.01
   1  -4   7   54.45    8.32
   1  -4   8  440.42   18.67
   1  -4   8  447.52   19.30
   1  -4   8  435.86   27.11
   1  -4   8  418.82   17.59
   1  -4   9  222.69   10.81
   1  -4   9  209.50   11.15
   1  -4   9  192.94   10.68
   1  -4   9  209.43   17.65
   1  -4   9  194.22    9.88
   1  -4  10   84.44   11.78
   1  -4  10   88.71    5.68
   1  -4  10   76.82    5.96
   1  -4  10   72.57   10.23
   1  -4  10   82.69    5.57
   1  -4  11   46.79    8.38
   1  -4  11   47.88    3.99
   1  -4  11   53.22    8.31
   1  -4  11   41.34    3.45
   1  -4  11   37.38    4.04
   1  -4  11   40.07    4.08
   1  -4  12   57.43    4.36
   1  -4  12   57.15    4.23
   1  -4  12   55.04    4.59
   1  -4  12   56.93    4.61
   1  -4  13  165.74    7.72
   1  -4  13  148.38    7.87
   1  -4  13  148.25    7.93
   1  -4  14    4.75    0.91
   1  -4  14    4.80    0.96
   1  -4  14    4.59    0.96
   1  -4  15    2.70    0.54
   1  -3 -12   22.05    2.31
   1  -3 -11  134.25    7.27
   1  -3 -11  138.72    7.82
   1  -3 -11  140.20    8.35
   1  -3 -10    1.54    0.98
   1  -3  -9  104.75    8.41
   1  -3  -9  117.66   14.44
   1  -3  -9  100.08    6.92
   1  -3  -8   25.88    7.06
   1  -3  -8   23.22    3.08
   1  -3  -7  490.62   34.01
   1  -3  -7  457.31   19.21
   1  -3  -6  340.92   26.43
   1  -3  -6  347.99   26.12
   1  -3  -5   56.21    8.83
   1  -3  -4  229.53   17.38
   1  -3  -3  130.10    7.18
   1  -3  -3  131.01   11.14
   1  -3  -2 2145.73   82.26
   1  -3  -2 2147.15   74.57
   1  -3  -2 2211.67   75.33
   1  -3  -2 2093.77   80.23
   1  -3  -1  714.45   31.74
   1  -3  -1  738.18   29.74
   1  -3  -1  722.98   26.25
   1  -3   0 1240.66   44.75
   1  -3   0 1245.01   48.04
   1  -3   1 1064.56   40.68
   1  -3   2  449.66   18.86
   1  -3   3  556.54   20.93
   1  -3   3  514.53   26.26
   1  -3   4    3.52    2.04
   1  -3   4    4.78    1.83
   1  -3   5 2724.12  101.70
   1  -3   6  120.63    7.60
   1  -3   6  120.88    7.26
   1  -3   6  107.16   10.88
   1  -3   7  360.32   16.67
   1  -3   7  361.31   16.35
   1  -3   7  361.10   23.60
   1  -3   8  149.41    8.84
   1  -3   8  150.39   14.96
   1  -3   8  141.50    7.59
   1  -3   9  349.47   15.03
   1  -3   9  330.58   21.43
   1  -3   9  352.85   15.35
   1  -3   9  331.70   16.13
   1  -3   9  342.17   16.27
   1  -3  10  284.47   13.05
   1  -3  10  271.06   23.28
   1  -3  10  283.30   12.64
   1  -3  10  271.63   13.81
   1  -3  10  287.93   14.23
   1  -3  11    5.59    1.45
   1  -3  11    4.98    1.30
   1  -3  11    2.33    1.95
   1  -3  11    4.31    1.41
   1  -3  11    2.59    1.16
   1  -3  12  137.55    7.73
   1  -3  12  116.40    7.64
   1  -3  12  134.39    7.26
   1  -3  13    5.24    1.28
   1  -3  13    6.14    1.25
   1  -3  13    6.50    1.31
   1  -3  13    6.89    1.29
   1  -3  14   78.81    4.68
   1  -3  14   93.78    4.74
   1  -3  14   91.97    4.58
   1  -2 -12   10.81    1.51
   1  -2 -12    9.59    1.67
   1  -2 -12   13.24    2.03
   1  -2 -11   67.92    4.97
   1  -2 -11   67.48    5.57
   1  -2 -11   77.22    6.04
   1  -2 -10  112.42    7.34
   1  -2 -10  101.68    8.27
   1  -2  -9    4.74    1.52
   1  -2  -9    2.52    2.11
   1  -2  -9    5.48    2.12
   1  -2  -8   35.83    8.21
   1  -2  -8   22.41    6.74
   1  -2  -8   41.27    3.86
   1  -2  -7   74.02   11.63
   1  -2  -7   73.87    5.15
   1  -2  -6  217.07   20.02
   1  -2  -5    4.85    3.04
   1  -2  -4  349.43   14.92
   1  -2  -3 1026.73   36.65
   1  -2  -2  117.40    5.39
   1  -2  -2  124.97   10.61
   1  -2  -1  125.40    4.89
   1  -2   0  251.47    9.14
   1  -2   1  541.51   21.22
   1  -2   1  530.06   19.61
   1  -2   2  971.22   39.53
   1  -2   2  962.64   34.09
   1  -2   2  929.30   35.44
   1  -2   3  142.51   11.75
   1  -2   3  149.80    9.44
   1  -2   4   25.84    5.68
   1  -2   4   25.64    4.28
   1  -2   5  145.38   13.10
   1  -2   5  132.58   11.46
   1  -2   6  537.55   29.17
   1  -2   6  541.41   30.33
   1  -2   6  543.23   22.26
   1  -2   7  194.52   17.63
   1  -2   7  194.98   10.79
   1  -2   7  193.39   10.81
   1  -2   7  180.44   15.35
   1  -2   8    5.45    1.28
   1  -2   8    6.15    3.22
   1  -2   8    6.55    1.82
   1  -2   8   11.70    3.82
   1  -2   9   52.09    4.19
   1  -2   9   42.72    8.75
   1  -2   9   46.41    3.87
   1  -2   9   50.32    4.77
   1  -2   9   45.64    4.71
   1  -2   9   39.87    7.48
   1  -2  10    2.60    2.18
   1  -2  10    1.42    1.26
   1  -2  10    3.49    1.29
   1  -2  10    2.69    1.84
   1  -2  10    3.21    1.31
   1  -2  11  165.07   18.25
   1  -2  11  186.72   16.67
   1  -2  11  154.04    8.94
   1  -2  11  158.98    9.62
   1  -2  12   13.54    2.36
   1  -2  12   18.35    2.35
   1  -2  12   20.56    2.45
   1  -2  12   17.77    2.25
   1  -2  13   42.27    3.65
   1  -2  13   47.43    3.51
   1  -2  13   46.07    3.38
   1  -2  14   24.29    2.19
   1  -2  14   28.88    2.17
   1  -1 -13    1.50    0.57
   1  -1 -13    0.89    0.54
   1  -1 -13    0.66    0.54
   1  -1 -12  170.12    8.44
   1  -1 -12  183.68    9.45
   1  -1 -12  160.19    9.04
   1  -1 -11   73.99    5.43
   1  -1 -11   82.08    6.50
   1  -1 -10   95.19    7.88
   1  -1 -10  102.71   14.76
   1  -1 -10   87.52   12.02
   1  -1 -10  100.39   12.99
   1  -1 -10   96.42    6.72
   1  -1  -9   43.48    4.97
   1  -1  -9   32.44    7.72
   1  -1  -9   20.69    6.05
   1  -1  -8  803.53   45.52
   1  -1  -8  833.00   31.51
   1  -1  -7  769.14   44.52
   1  -1  -7  844.93   31.68
   1  -1  -5  868.44   44.08
   1  -1  -4    7.92    3.26
   1  -1   1 1172.68   41.86
   1  -1   2 2472.60   83.62
   1  -1   2 2558.29   88.54
   1  -1   2 2316.54   80.63
   1  -1   3  124.67    8.56
   1  -1   3  121.27   11.45
   1  -1   4  650.41   29.79
   1  -1   4  678.70   32.93
   1  -1   5  644.52   24.59
   1  -1   5  631.14   31.20
   1  -1   5  602.71   31.32
   1  -1   6   44.39    7.26
   1  -1   6   52.38    4.50
   1  -1   6   52.18    7.26
   1  -1   6   48.61    3.98
   1  -1   7   21.65    5.03
   1  -1   7   19.97    2.70
   1  -1   7   20.07    3.06
   1  -1   7   19.79    3.02
   1  -1   7   21.15    5.73
   1  -1   8   36.06    3.46
   1  -1   8   48.67    9.61
   1  -1   8   39.83    4.17
   1  -1   8   35.99    4.32
   1  -1   8   32.26    6.38
   1  -1   9  843.99   42.24
   1  -1   9  813.28   30.68
   1  -1   9  733.79   30.26
   1  -1   9  825.11   31.64
   1  -1   9  786.38   32.33
   1  -1   9  753.46   45.27
   1  -1   9  781.64   31.55
   1  -1  10    9.27    3.47
   1  -1  10    3.77    1.40
   1  -1  10    2.40    1.28
   1  -1  10    0.71    0.89
   1  -1  10    9.63    4.03
   1  -1  11   21.79    2.74
   1  -1  11   24.72    2.90
   1  -1  11   21.14    3.17
   1  -1  12    9.11    1.69
   1  -1  12    8.83    1.56
   1  -1  12    7.28    1.68
   1  -1  12    7.90    1.39
   1  -1  13   30.43    2.99
   1  -1  13   36.90    2.93
   1  -1  13   35.35    2.86
   1  -1  14   10.78    1.19
   1   0 -13   35.19    2.77
   1   0 -13   35.08    3.22
   1   0 -13   35.57    3.02
   1   0 -12   11.16    1.79
   1   0 -12    9.64    1.89
   1   0 -12    7.95    1.86
   1   0 -11  185.12    9.90
   1   0 -11  200.77   19.30
   1   0 -11  195.86   11.01
   1   0 -10  139.55   15.87
   1   0 -10  130.65    8.01
   1   0  -9   42.10    4.88
   1   0  -9   41.01    8.52
   1   0  -9   43.54    4.15
   1   0  -8  674.75   39.44
   1   0  -7   18.88    3.50
   1   0  -6 1719.13   65.22
   1   0  -5  117.51    7.87
   1   0  -5   94.25   11.33
   1   0  -4 1596.71   57.41
   1   0  -3 1130.21   40.33
   1   0   1 9387.28  315.14
   1   0   1 8871.10  318.14
   1   0   1 9517.60  315.03
   1   0   2 1505.57   56.32
   1   0   2 1646.01   62.97
   1   0   2 1539.92   54.89
   1   0   3  292.18   17.62
   1   0   3  286.56   13.45
   1   0   4  222.41   13.84
   1   0   4  193.04   14.25
   1   0   4  208.90   11.60
   1   0   5 1209.74   53.65
   1   0   5 1308.84   46.17
   1   0   5 1203.56   53.46
   1   0   6 1309.99   47.75
   1   0   6 1252.09   57.95
   1   0   6 1339.39   48.36
   1   0   6 1206.59   55.83
   1   0   7   65.72    8.96
   1   0   7   59.20    5.15
   1   0   7   56.75    5.42
   1   0   7   52.14    9.03
   1   0   7   64.20    4.64
   1   0   7   58.40    4.68
   1   0   8  371.63   17.35
   1   0   8  346.79   28.03
   1   0   8  369.60   16.74
   1   0   8  346.97   17.44
   1   0   8  346.04   24.53
   1   0   8  331.49   15.74
   1   0   9   -0.95    1.58
   1   0   9   -1.47    2.46
   1   0   9    0.48    0.99
   1   0   9    2.66    2.22
   1   0   9    0.46    0.90
   1   0   9   -0.22    0.79
   1   0  10  370.82   31.07
   1   0  10  386.21   16.91
   1   0  10  339.57   28.38
   1   0  10  394.38   17.12
   1   0  10  376.45   16.90
   1   0  11  139.21    7.62
   1   0  11  126.44    6.62
   1   0  12   28.84    2.90
   1   0  12   36.13    3.17
   1   0  13   59.76    4.03
   1   0  14    7.49    0.86
   1   1 -14    7.26    1.21
   1   1 -13    3.50    0.95
   1   1 -13    1.64    0.75
   1   1 -12   25.28    2.75
   1   1 -12   22.05    2.84
   1   1 -11    3.92    1.25
   1   1 -11    2.12    1.78
   1   1 -11    4.87    1.52
   1   1 -11    3.81    1.67
   1   1 -10   47.70    4.34
   1   1 -10   62.21   10.46
   1   1 -10   57.80    5.26
   1   1  -9    6.39    1.50
   1   1  -9    8.49    4.07
   1   1  -9    8.90    2.12
   1   1  -8  169.76    9.18
   1   1  -8  202.24   19.12
   1   1  -8  190.57   10.50
   1   1  -7  287.56   16.24
   1   1  -7  303.71   13.16
   1   1  -6  287.77   21.28
   1   1  -6  284.37   14.95
   1   1  -5   10.65    2.07
   1   1  -4  562.37   22.86
   1   1  -1 1185.25   44.31
   1   1   0  594.96   24.56
   1   1   1  109.69    6.92
   1   1   1  119.41    8.76
   1   1   1  102.65    7.00
   1   1   2  767.30   32.21
   1   1   2  762.43   31.79
   1   1   3   38.69    4.83
   1   1   3   44.12    5.55
   1   1   3   36.44    4.40
   1   1   4  115.54   10.04
   1   1   4  138.26   11.20
   1   1   4  108.57    8.85
   1   1   5  375.54   23.01
   1   1   5  386.21   16.59
   1   1   5  417.78   24.24
   1   1   6    2.34    1.21
   1   1   6    6.84    3.36
   1   1   6    3.31    2.40
   1   1   7  372.05   17.49
   1   1   7  359.29   17.01
   1   1   7  351.28   17.77
   1   1   7  327.42   26.06
   1   1   7  362.23   25.23
   1   1   7  392.28   15.73
   1   1   7  345.69   15.86
   1   1   8   13.86    4.69
   1   1   8    9.22    2.32
   1   1   8    6.88    2.24
   1   1   8    6.20    1.62
   1   1   8    9.25    4.43
   1   1   8    6.61    1.65
   1   1   8    7.59    1.89
   1   1   9  363.93   16.11
   1   1   9  350.42   17.85
   1   1   9  360.68   30.09
   1   1   9  368.52   16.84
   1   1  10  273.22   12.93
   1   1  10  255.59   11.93
   1   1  10  260.37   12.75
   1   1  10  265.90   25.40
   1   1  10  239.40   13.42
   1   1  11    3.18    1.09
   1   1  11    4.29    1.01
   1   1  11    2.85    1.22
   1   1  11    2.35    1.12
   1   1  11    3.16    1.35
   1   1  12   11.72    1.78
   1   1  12   10.96    1.82
   1   2 -14   47.70    3.54
   1   2 -13   26.88    2.68
   1   2 -13   34.41    3.40
   1   2 -13   30.64    2.78
   1   2 -12  230.72   11.14
   1   2 -12  239.11   12.24
   1   2 -12  230.27   11.24
   1   2 -11  144.99    9.28
   1   2 -11  154.78    8.73
   1   2 -11  151.89   16.63
   1   2 -11  146.29    8.34
   1   2 -11  155.32   16.01
   1   2 -10    6.94    1.73
   1   2 -10   14.99    2.64
   1   2 -10   12.46    4.46
   1   2 -10    8.52    1.71
   1   2 -10    7.66    3.68
   1   2  -9  227.23   10.86
   1   2  -9  211.84   19.99
   1   2  -9  215.96   11.41
   1   2  -8   12.36    1.85
   1   2  -8    2.92    2.32
   1   2  -7  600.48   22.91
   1   2  -7  562.55   32.61
   1   2  -7  529.04   32.86
   1   2  -7  570.34   26.06
   1   2  -7  534.58   21.54
   1   2  -6  233.19   13.53
   1   2  -6  258.45   18.51
   1   2  -5  394.21   18.69
   1   2  -5  337.64   21.44
   1   2  -4 1628.62   64.31
   1   2  -3   77.00    7.15
   1   2  -2 1518.75   54.20
   1   2  -2 1596.38   58.10
   1   2  -1  173.88    8.15
   1   2  -1  188.48    8.65
   1   2   0  996.58   34.68
   1   2   1  367.29   17.54
   1   2   1  376.06   18.67
   1   2   1  385.01   15.58
   1   2   2    7.68    2.30
   1   2   2    7.16    2.16
   1   2   2   13.33    2.22
   1   2   3   10.17    2.60
   1   2   3   14.91    3.27
   1   2   3   13.27    2.67
   1   2   4   32.88    3.25
   1   2   4   32.96    2.63
   1   2   4   30.74    5.02
   1   2   4   41.72    5.40
   1   2   5 1568.94   60.82
   1   2   5 1503.61   53.15
   1   2   5 1383.60   51.35
   1   2   5 1461.74   53.01
   1   2   5 1363.44   59.51
   1   2   6  165.94   14.41
   1   2   6  144.09    9.05
   1   2   6  130.47    7.53
   1   2   6  137.76    9.06
   1   2   6  115.48   12.03
   1   2   6  151.94    7.69
   1   2   7    6.09    2.22
   1   2   7    6.85    1.52
   1   2   7    6.99    1.69
   1   2   7    8.81    2.23
   1   2   7    7.95    1.57
   1   2   7    8.14    1.72
   1   2   8   25.77    3.99
   1   2   8   33.22    9.03
   1   2   8   23.82    3.90
   1   2   8   28.83    3.22
   1   2   8   33.49    3.75
   1   2   9   20.09    6.61
   1   2   9   14.20    2.75
   1   2   9   15.89    5.69
   1   2   9   16.31    2.63
   1   2   9   13.02    2.21
   1   2   9   15.90    2.74
   1   2  10   58.35    4.36
   1   2  10   45.96    4.76
   1   2  11    2.62    1.03
   1   2  11    1.85    0.73
   1   2  11    1.63    0.94
   1   2  12   29.63    2.54
   1   2  12   27.71    2.51
   1   2  12   26.43    2.52
   1   3 -14   37.72    3.23
   1   3 -14   42.86    2.94
   1   3 -13    1.61    0.98
   1   3 -13    2.44    0.87
   1   3 -12  232.06   11.96
   1   3 -12  227.19   11.07
   1   3 -11   15.87    2.67
   1   3 -11   20.24    5.52
   1   3 -11   13.49    4.46
   1   3 -11   15.60    2.27
   1   3 -10  448.49   20.14
   1   3 -10  413.13   29.59
   1   3 -10  500.58   31.85
   1   3 -10  454.24   18.96
   1   3  -9   57.52    5.07
   1   3  -9   64.78    9.82
   1   3  -9   54.07    4.26
   1   3  -9   46.25    8.64
   1   3  -8  825.26   43.19
   1   3  -8  852.23   32.17
   1   3  -8  866.61   46.17
   1   3  -8  926.30   38.56
   1   3  -7  477.34   28.40
   1   3  -7  515.95   20.04
   1   3  -7  533.47   32.04
   1   3  -6  349.90   21.28
   1   3  -5  623.30   30.11
   1   3  -4  436.87   22.57
   1   3  -3 3028.96  106.64
   1   3  -3 3039.44  110.28
   1   3  -2  296.75   13.96
   1   3  -2  303.02   15.08
   1   3  -2  319.24   17.95
   1   3  -1  605.69   24.35
   1   3  -1  603.45   24.04
   1   3   0  271.73   16.14
   1   3   1 1036.40   44.11
   1   3   2 2161.61   83.07
   1   3   3  227.69   10.03
   1   3   3  229.01   16.37
   1   3   3  245.85   10.85
   1   3   4 1001.27   37.10
   1   3   4 1097.14   39.33
   1   3   4 1028.42   37.98
   1   3   4  989.55   46.65
   1   3   4  996.84   46.79
   1   3   5   18.51    2.92
   1   3   5   12.17    1.83
   1   3   5   15.73    2.42
   1   3   5   13.00    1.67
   1   3   5   15.59    1.92
   1   3   5   11.24    1.99
   1   3   5   15.59    4.35
   1   3   5    9.77    4.10
   1   3   6  368.11   18.55
   1   3   6  354.90   16.60
   1   3   6  399.77   15.87
   1   3   6  405.69   16.41
   1   3   6  370.33   27.79
   1   3   6  380.70   18.85
   1   3   6  338.64   24.33
   1   3   7   84.01    5.36
   1   3   7   59.03    5.62
   1   3   7   73.48    5.42
   1   3   7   71.17   12.34
   1   3   7   64.35    6.59
   1   3   7   78.98    7.07
   1   3   7   82.68   13.91
   1   3   7   69.95    5.47
   1   3   8  178.49   10.17
   1   3   8  163.04   19.57
   1   3   8  184.66   11.37
   1   3   8  191.70   12.27
   1   3   8  217.71   22.88
   1   3   8  163.76    9.49
   1   3   9  213.64   11.18
   1   3   9  199.99   12.93
   1   3   9  221.54   12.38
   1   3  10   36.87    3.60
   1   3  10   33.95    3.38
   1   3  10   26.75    3.61
   1   3  10   33.52    3.58
   1   3  11   62.20    4.24
   1   3  11   70.78    4.54
   1   3  12    1.40    0.56
   1   4 -14    1.41    0.59
   1   4 -14    1.18    0.65
   1   4 -13    8.50    1.54
   1   4 -13    6.11    1.48
   1   4 -12   70.27    5.03
   1   4 -12   66.72    5.37
   1   4 -11  169.03    9.81
   1   4 -11  183.50   17.83
   1   4 -11  172.60    9.20
   1   4 -11  187.71   17.09
   1   4 -10   96.09    6.74
   1   4 -10   99.77   12.69
   1   4 -10   96.99    6.23
   1   4 -10  101.20   12.99
   1   4  -9   20.10    2.46
   1   4  -9   18.91    4.92
   1   4  -9   15.59    2.46
   1   4  -8    9.25    1.84
   1   4  -8    6.34    2.82
   1   4  -8    6.59    1.36
   1   4  -8    6.01    3.15
   1   4  -7  105.58    5.90
   1   4  -7   84.74    5.59
   1   4  -7   88.11   10.00
   1   4  -6 1016.19   37.13
   1   4  -6 1054.95   45.78
   1   4  -5    3.87    1.97
   1   4  -5    4.58    2.25
   1   4  -4  183.31   12.04
   1   4  -4  182.72   14.13
   1   4  -3    0.67    0.89
   1   4  -3    2.25    1.51
   1   4  -2  806.18   33.19
   1   4  -2  812.00   33.57
   1   4  -1  597.27   26.31
   1   4  -1  650.87   31.53
   1   4   0  460.48   22.49
   1   4   0  441.92   25.21
   1   4   1  829.69   31.06
   1   4   1  878.71   37.62
   1   4   1  871.97   40.85
   1   4   1  899.34   32.45
   1   4   2   34.58    2.89
   1   4   2   37.87    5.80
   1   4   2   39.91    3.58
   1   4   2   38.07    6.65
   1   4   3  437.50   18.22
   1   4   3  412.01   17.03
   1   4   3  449.53   27.27
   1   4   4    2.95    1.01
   1   4   4    2.82    0.98
   1   4   4    3.36    1.47
   1   4   4    2.23    1.09
   1   4   4   -0.89    1.82
   1   4   4    0.86    1.02
   1   4   5  485.90   21.22
   1   4   5  486.00   19.43
   1   4   5  489.48   32.38
   1   4   5  525.40   23.03
   1   4   5  495.13   38.85
   1   4   5  493.45   20.24
   1   4   5  521.62   22.03
   1   4   6  287.81   16.06
   1   4   6  321.01   30.24
   1   4   6  274.20   14.05
   1   4   6  299.14   14.58
   1   4   6  303.15   12.98
   1   4   6  259.04   24.53
   1   4   6  293.26   16.30
   1   4   6  282.17   22.93
   1   4   7  143.85    9.28
   1   4   7  148.10    7.90
   1   4   7  173.79   19.50
   1   4   7  122.98    9.38
   1   4   7  145.50   10.58
   1   4   7  130.78   17.92
   1   4   7  128.87    8.42
   1   4   8   39.17    4.22
   1   4   8   54.33    4.70
   1   4   8   50.49    4.20
   1   4   8   40.52    5.44
   1   4   8   43.07    4.67
   1   4   9   19.85    2.62
   1   4   9   23.65    3.13
   1   4   9   17.61    3.23
   1   4   9   18.93    2.67
   1   4  10  206.43    8.96
   1   4  10  189.76    9.48
   1   4  11    1.03    0.56
   1   4  11    0.27    0.47
   1   5 -14    4.07    1.06
   1   5 -14    4.08    0.92
   1   5 -13   29.12    3.07
   1   5 -13   31.44    2.93
   1   5 -12    4.10    1.38
   1   5 -12    2.75    0.98
   1   5 -11   86.12    6.22
   1   5 -11   79.05   11.00
   1   5 -11  109.62   12.21
   1   5 -11   90.24    5.99
   1   5 -10   18.09    2.57
   1   5 -10   19.35    5.16
   1   5 -10   17.25    2.40
   1   5  -9    9.71    1.84
   1   5  -9   10.67    3.81
   1   5  -9   11.92    1.92
   1   5  -8  151.01    8.30
   1   5  -8  133.20   13.63
   1   5  -8  182.98   17.21
   1   5  -8  176.66    8.87
   1   5  -7   11.78    1.78
   1   5  -7    8.87    3.29
   1   5  -7   12.13    1.96
   1   5  -6  147.80    7.88
   1   5  -6  201.54   15.29
   1   5  -6  194.16    9.40
   1   5  -6  164.86   14.30
   1   5  -6  166.95   13.59
   1   5  -5   36.63    3.26
   1   5  -5   31.42    5.71
   1   5  -5   31.86    6.07
   1   5  -4  514.09   20.24
   1   5  -4  532.90   20.75
   1   5  -4  476.69   27.48
   1   5  -4  535.88   26.26
   1   5  -3  619.46   23.96
   1   5  -3  669.35   29.60
   1   5  -3  614.06   30.26
   1   5  -3  635.61   34.42
   1   5  -2  221.58   13.86
   1   5  -2  222.43   10.92
   1   5  -2  215.06    9.84
   1   5  -1   98.32    6.08
   1   5  -1  100.84    5.58
   1   5  -1   92.58   11.02
   1   5  -1   91.51    8.30
   1   5   0  231.08   10.81
   1   5   0  262.46   16.46
   1   5   0  278.80   20.25
   1   5   0  257.32   12.25
   1   5   1  567.80   22.42
   1   5   1  567.32   22.61
   1   5   1  609.41   23.97
   1   5   1  581.11   29.76
   1   5   1  592.77   33.83
   1   5   2  189.33    9.46
   1   5   2  199.30    9.29
   1   5   2  206.12    9.51
   1   5   2  176.80   10.23
   1   5   2  188.85   15.44
   1   5   2  194.65   18.06
   1   5   3    7.10    3.44
   1   5   3    8.01    2.14
   1   5   3    7.38    1.56
   1   5   3    8.74    1.65
   1   5   3    6.77    1.27
   1   5   3    9.27    2.06
   1   5   3    7.25    3.25
   1   5   3    3.48    2.31
   1   5   4   34.69    8.34
   1   5   4   39.08    3.73
   1   5   4   48.04    5.36
   1   5   4   48.55    4.25
   1   5   4   47.48    3.72
   1   5   4   41.08    4.41
   1   5   4   51.72    5.29
   1   5   4   36.75    7.93
   1   5   4   33.70    7.62
   1   5   5    8.52    2.13
   1   5   5   13.99    5.53
   1   5   5    6.00    2.33
   1   5   5    6.80    1.63
   1   5   5    7.60    1.63
   1   5   5    8.95    2.43
   1   5   5    6.92    1.85
   1   5   5    3.52    2.41
   1   5   6  137.01    8.89
   1   5   6  139.17    7.93
   1   5   6  142.29   17.52
   1   5   6  120.28    9.03
   1   5   6  133.12    8.64
   1   5   6  148.53    9.21
   1   5   7   32.12    3.87
   1   5   7   41.61    3.94
   1   5   7   34.56    3.94
   1   5   8   29.13    3.47
   1   5   8   38.68    3.74
   1   5   9   32.30    3.83
   1   5   9   33.92    3.13
   1   5   9   36.75    3.56
   1   5  10    5.48    1.13
   1   6 -14   62.06    3.97
   1   6 -14   57.13    3.58
   1   6 -13    4.17    1.11
   1   6 -13    3.94    1.04
   1   6 -12  205.98   10.33
   1   6 -12  200.69   10.02
   1   6 -11  148.71    8.63
   1   6 -11  168.61   16.27
   1   6 -11  164.14    8.72
   1   6 -10   11.53    2.00
   1   6 -10   13.71    4.36
   1   6 -10   14.70    3.91
   1   6 -10   12.08    2.05
   1   6  -9   88.21    5.88
   1   6  -9   84.33   11.28
   1   6  -9  107.61   11.22
   1   6  -9   94.37    6.25
   1   6  -8  357.28   15.98
   1   6  -8  447.24   25.80
   1   6  -8  379.92   26.61
   1   6  -8  417.50   17.13
   1   6  -8  339.98   24.59
   1   6  -7 1310.85   46.62
   1   6  -7 1065.21   55.46
   1   6  -6  158.85   14.44
   1   6  -6  145.52    8.46
   1   6  -6  124.83   13.82
   1   6  -5  181.72    9.49
   1   6  -5  192.27   10.02
   1   6  -5  175.48   14.73
   1   6  -5  166.36   15.96
   1   6  -5  161.44   15.29
   1   6  -4  340.17   14.58
   1   6  -4  322.82   14.82
   1   6  -4  354.06   16.44
   1   6  -4  324.36   20.66
   1   6  -4  340.42   25.00
   1   6  -4  315.87   21.58
   1   6  -3 1066.40   39.39
   1   6  -3 1125.98   41.64
   1   6  -3 1058.09   39.74
   1   6  -3 1066.65   47.02
   1   6  -3 1079.68   54.22
   1   6  -2  287.55   13.72
   1   6  -2  279.40   18.10
   1   6  -2  252.69   21.94
   1   6  -2  273.37   12.58
   1   6  -1   79.60    9.10
   1   6  -1   76.29    5.20
   1   6   0  649.05   26.01
   1   6   0  701.54   25.38
   1   6   0  647.69   26.50
   1   6   0  681.95   27.91
   1   6   0  657.62   33.83
   1   6   0  633.06   39.18
   1   6   1    2.52    1.06
   1   6   1    3.99    0.98
   1   6   1    3.72    1.56
   1   6   1    1.15    1.93
   1   6   1    3.10    2.06
   1   6   2  220.35   11.12
   1   6   2  227.42   13.20
   1   6   2  222.00   12.42
   1   6   2  216.99   10.92
   1   6   2  231.92   10.23
   1   6   2  212.69   18.61
   1   6   2  215.60   21.23
   1   6   3  176.76    9.91
   1   6   3  206.21   12.65
   1   6   3  177.06    9.49
   1   6   3  191.71   11.39
   1   6   3  201.53    9.40
   1   6   3  193.14   18.57
   1   6   3  193.80   20.23
   1   6   4  211.41   12.58
   1   6   4  231.04   10.76
   1   6   4  216.70   11.35
   1   6   4  213.10   13.28
   1   6   4  226.92   14.17
   1   6   4  239.64   22.34
   1   6   5  356.87   19.75
   1   6   5  348.43   17.73
   1   6   5  346.66   28.73
   1   6   5  348.93   28.54
   1   6   5  378.48   17.18
   1   6   5  367.21   15.85
   1   6   6    7.35    1.74
   1   6   6    7.10    2.00
   1   6   6    7.57    1.91
   1   6   6    6.12    2.27
   1   6   7   70.07    5.77
   1   6   7   60.84    4.80
   1   6   7   62.11    5.33
   1   6   8    8.71    1.72
   1   6   8    8.55    1.79
   1   6   8    9.35    1.78
   1   6   9  113.39    5.69
   1   6   9  121.37    6.24
   1   7 -14   34.02    2.69
   1   7 -14   22.59    2.14
   1   7 -13    1.55    0.67
   1   7 -13    0.80    0.53
   1   7 -12   19.75    2.43
   1   7 -12   24.88    2.74
   1   7 -12   20.86    2.48
   1   7 -11   50.76    4.17
   1   7 -11   61.26    4.84
   1   7 -11   55.70    4.49
   1   7 -10   87.91    5.79
   1   7 -10   86.88    6.38
   1   7 -10   99.77    6.36
   1   7 -10   80.58   10.96
   1   7  -9   21.15    2.50
   1   7  -9   26.01    3.29
   1   7  -9   28.79    3.24
   1   7  -9   27.36    5.61
   1   7  -9   18.51    4.37
   1   7  -9   23.28    5.68
   1   7  -8  304.59   14.86
   1   7  -8  338.86   15.13
   1   7  -8  347.77   23.38
   1   7  -8  277.73   22.78
   1   7  -8  289.80   20.81
   1   7  -7   92.12    6.80
   1   7  -7   78.72    6.11
   1   7  -7   80.18   11.10
   1   7  -7   66.63    9.48
   1   7  -7   74.72   11.04
   1   7  -7   93.40    6.64
   1   7  -6  230.23   12.23
   1   7  -6  226.91   11.79
   1   7  -6  234.68   19.16
   1   7  -6  171.95   16.73
   1   7  -6  192.50   19.17
   1   7  -5   24.00    3.24
   1   7  -5   22.39    3.27
   1   7  -5   25.18    3.15
   1   7  -5   25.93    5.91
   1   7  -5   31.37    6.82
   1   7  -5   25.37    5.95
   1   7  -4  263.72   12.91
   1   7  -4  267.68   14.46
   1   7  -4  254.33   12.54
   1   7  -4  242.94   19.00
   1   7  -4  251.33   22.75
   1   7  -3  438.31   18.96
   1   7  -3  430.00   20.32
   1   7  -3  471.45   21.24
   1   7  -3  419.82   32.48
   1   7  -3  402.71   25.82
   1   7  -2    2.22    1.06
   1   7  -2    4.15    1.05
   1   7  -2    2.03    1.44
   1   7  -2    2.71    2.27
   1   7  -2    2.95    2.14
   1   7  -1  231.55   12.53
   1   7  -1  231.48   18.17
   1   7  -1  251.92   11.06
   1   7  -1  231.26   11.83
   1   7   0   14.29    2.09
   1   7   0   13.69    1.80
   1   7   0   17.69    2.58
   1   7   0   11.15    3.69
   1   7   1  839.06   34.11
   1   7   1  765.50   31.66
   1   7   1  853.66   31.04
   1   7   1  797.19   30.02
   1   7   1  784.05   31.63
   1   7   1  800.84   34.51
   1   7   1  808.81   49.65
   1   7   2  574.49   23.91
   1   7   2  588.11   27.07
   1   7   2  547.31   23.48
   1   7   2  595.34   26.09
   1   7   2  601.80   23.51
   1   7   2  560.53   22.41
   1   7   2  554.90   35.66
   1   7   2  501.51   38.27
   1   7   3  237.21   12.39
   1   7   3  252.54   15.44
   1   7   3  249.65   15.38
   1   7   3  258.67   12.47
   1   7   3  250.10   11.52
   1   7   3  233.32   11.84
   1   7   3  239.40   14.00
   1   7   3  240.45   22.06
   1   7   3  257.63   24.59
   1   7   4   10.98    2.97
   1   7   4    5.56    1.58
   1   7   4    7.54    1.86
   1   7   4    5.34    1.38
   1   7   4    7.66    2.19
   1   7   4    8.68    4.20
   1   7   5   32.78    4.22
   1   7   5   35.85    5.21
   1   7   5   39.59    4.63
   1   7   5   34.59    3.92
   1   7   5   38.78    3.54
   1   7   6  192.52   11.07
   1   7   6  183.56   10.33
   1   7   6  217.66   10.03
   1   7   7    1.37    1.06
   1   7   7    0.62    0.78
   1   7   8   60.89    4.43
   1   7   8   74.23    4.33
   1   8 -14    2.42    0.68
   1   8 -13   26.30    2.65
   1   8 -13   25.63    2.33
   1   8 -12   24.95    2.67
   1   8 -12   25.71    2.90
   1   8 -12   26.45    2.65
   1   8 -11    0.82    0.77
   1   8 -11    1.49    0.98
   1   8 -11    1.47    0.82
   1   8 -10   15.98    2.52
   1   8 -10   15.74    2.53
   1   8 -10   15.16    2.30
   1   8  -9    3.43    1.21
   1   8  -9    2.54    1.28
   1   8  -9    2.23    1.17
   1   8  -9    2.00    1.68
   1   8  -8   27.55    3.42
   1   8  -8   26.73    3.54
   1   8  -8   22.74    3.22
   1   8  -8   29.48    6.23
   1   8  -8   31.52    6.04
   1   8  -8   34.37    7.14
   1   8  -7   82.63    6.46
   1   8  -7   82.83    6.72
   1   8  -7   66.36    5.78
   1   8  -7   94.00   12.29
   1   8  -7   62.76    9.23
   1   8  -7   71.01   10.80
   1   8  -6   46.70    8.19
   1   8  -6   52.30    8.87
   1   8  -6   39.23    4.37
   1   8  -5   17.33    2.83
   1   8  -5   16.35    2.82
   1   8  -5   14.74    4.87
   1   8  -5   13.11    2.68
   1   8  -5   16.12    2.79
   1   8  -5   12.85    4.25
   1   8  -4    5.92    1.78
   1   8  -4    6.69    3.88
   1   8  -4   12.17    3.86
   1   8  -4    5.98    2.02
   1   8  -4    7.59    3.56
   1   8  -3  198.64   18.11
   1   8  -3  218.58   11.85
   1   8  -3  188.56   17.02
   1   8  -3  210.59   23.96
   1   8  -3  222.42   13.09
   1   8  -3  229.81   13.79
   1   8  -2  141.11    8.79
   1   8  -2  140.32    9.60
   1   8  -2  133.45   10.16
   1   8  -2  125.85   13.56
   1   8  -2  133.44   19.15
   1   8  -1    5.72    2.27
   1   8  -1    8.04    1.94
   1   8  -1    5.63    1.46
   1   8  -1    4.48    2.06
   1   8  -1   11.72    5.24
   1   8  -1    3.75    2.23
   1   8   0  277.37   14.63
   1   8   0  315.52   13.68
   1   8   0  267.21   14.17
   1   8   0  274.07   16.26
   1   8   0  317.47   18.58
   1   8   1   17.68    3.68
   1   8   1   13.92    2.61
   1   8   1   22.13    2.77
   1   8   1   18.05    2.88
   1   8   1   20.90    3.74
   1   8   1   26.67    7.92
   1   8   2    2.98    2.05
   1   8   2    8.19    2.64
   1   8   2    8.62    1.97
   1   8   2    5.30    1.49
   1   8   2    6.40    1.43
   1   8   2    5.54    1.57
   1   8   2    6.65    2.13
   1   8   2    6.51    3.86
   1   8   3   11.20    2.16
   1   8   3   11.09    2.07
   1   8   3   11.60    1.88
   1   8   3   10.26    2.70
   1   8   3   11.17    2.97
   1   8   4   68.11    5.22
   1   8   4   56.66    4.26
   1   8   4   55.38    6.26
   1   8   4   53.63    4.83
   1   8   4   56.76    5.82
   1   8   4   58.55    5.79
   1   8   5   70.78    5.37
   1   8   5   75.65    4.76
   1   8   5   60.13    5.38
   1   8   5   70.03    5.91
   1   8   6    1.46    0.86
   1   8   7   60.85    3.78
   1   9 -12   32.77    3.07
   1   9 -12   29.30    2.66
   1   9 -11  116.81    7.12
   1   9 -11  136.00    7.57
   1   9 -11  124.85    7.00
   1   9 -10    5.07    1.47
   1   9 -10    7.96    1.75
   1   9 -10    7.71    1.63
   1   9  -9    9.54    2.02
   1   9  -9    9.41    2.08
   1   9  -9   14.75    2.32
   1   9  -8   88.13    6.77
   1   9  -8   93.95    6.13
   1   9  -8   94.66   11.53
   1   9  -8  100.18    6.88
   1   9  -7  308.70   14.49
   1   9  -7  293.96   14.79
   1   9  -7  296.20   23.09
   1   9  -7  224.46   19.30
   1   9  -7  238.41   12.75
   1   9  -6   66.66   10.51
   1   9  -6   38.76    7.74
   1   9  -6   55.58    5.06
   1   9  -5   37.86    4.56
   1   9  -5   37.13    4.18
   1   9  -5   37.14    4.73
   1   9  -5   33.82    4.09
   1   9  -5   30.00    7.21
   1   9  -4  329.73   17.51
   1   9  -4  282.34   15.84
   1   9  -4  330.15   16.10
   1   9  -4  300.72   15.76
   1   9  -4  295.96   26.52
   1   9  -3    5.56    1.94
   1   9  -3    6.44    1.93
   1   9  -3    5.43    2.06
   1   9  -3    8.32    2.62
   1   9  -3    9.85    4.77
   1   9  -2   93.45    5.86
   1   9  -2   88.59    8.39
   1   9  -2   91.99    7.21
   1   9  -2  110.88   17.22
   1   9  -1   12.31    3.04
   1   9  -1   10.35    2.31
   1   9  -1   12.88    2.60
   1   9  -1   11.24    2.62
   1   9  -1   12.31    2.02
   1   9  -1   12.34    3.11
   1   9  -1   16.58    6.55
   1   9   0   68.11    6.03
   1   9   0   86.10   14.89
   1   9   0   77.97    6.27
   1   9   0   58.51    6.02
   1   9   1   88.31    7.78
   1   9   1  101.41    7.22
   1   9   1   99.03    7.02
   1   9   2    1.72    1.17
   1   9   2    1.11    1.31
   1   9   2    2.62    1.60
   1   9   2    0.85    0.80
   1   9   3   62.23    6.22
   1   9   3   68.65    5.39
   1   9   3   71.05    6.61
   1   9   3   81.69    6.74
   1   9   4    1.58    0.98
   1   9   4    1.32    1.17
   1   9   4    1.52    1.24
   1   9   5   76.43    5.53
   1   9   5   76.83    5.11
   1  10 -11   37.99    3.35
   1  10 -11   37.04    3.27
   1  10 -10   87.99    5.90
   1  10  -9    0.22    0.70
   1  10  -8   76.13    6.08
   1  10  -8   81.31    6.13
   1  10  -7  123.53    8.33
   1  10  -7  101.90    6.63
   1  10  -6    2.34    1.07
   1  10  -6    1.67    1.37
   1  10  -6    0.30    1.08
   1  10  -5   68.16    6.26
   1  10  -5   57.76    5.17
   1  10  -5   61.91    6.08
   1  10  -5   56.11    5.22
   1  10  -4   -0.64    1.32
   1  10  -4    0.30    0.88
   1  10  -4   -0.29    1.03
   1  10  -4    0.78    1.45
   1  10  -3  173.88   11.04
   1  10  -3  200.98   11.57
   1  10  -3  171.85   11.34
   1  10  -3  193.89   12.27
   1  10  -2  101.12    7.64
   1  10  -2  104.60    8.08
   1  10  -2  101.20    8.10
   1  10  -2   97.89    8.34
   1  10  -1   78.13    5.21
   1  10  -1   73.42    6.17
   1  10  -1   76.98    6.51
   1  10  -1   70.44    7.11
   1  10   0   40.22    3.51
   1  10   0   34.37    3.96
   1  10   0   40.79    4.19
   1  10   0   32.61    4.67
   1  10   1   36.40    3.23
   1  10   1   32.43    3.59
   1  10   1   28.24    4.25
   1  10   1   29.04    3.23
   1  10   2  145.26    8.22
   1  10   2  160.30    7.82
   1  10   3    0.67    0.71
   1  10   3    0.23    0.72
   1  10   3   -0.68    0.92
   1  11 -11   26.58    2.43
   1  11 -10    3.46    1.00
   1  11 -10    2.26    0.88
   1  11  -9    2.85    1.06
   1  11  -9    4.54    1.24
   1  11  -8    2.06    0.98
   1  11  -8    0.83    0.70
   1  11  -8    1.92    0.84
   1  11  -7   27.56    3.38
   1  11  -6   42.58    4.45
   1  11  -5    0.21    0.81
   1  11  -5    1.47    1.10
   1  11  -5    1.69    1.00
   1  11  -4   74.87    6.18
   1  11  -4   68.61    6.22
   1  11  -4   60.96    5.20
   1  11  -3    4.34    1.58
   1  11  -3    2.00    1.03
   1  11  -3    3.40    1.22
   1  11  -3    6.03    1.99
   1  11  -2   16.66    1.96
   1  11  -2   16.45    2.77
   1  11  -2   20.75    2.95
   1  11  -2   20.64    2.92
   1  11  -2   19.90    3.06
   1  11  -1    9.18    1.90
   1  11  -1   10.09    2.09
   1  11  -1   10.62    2.11
   1  11  -1    9.18    2.12
   1  11   0   25.17    3.39
   1  11   0   27.27    2.86
   1  11   0   31.54    3.24
   1  11   1   49.46    4.51
   1  11   1   53.66    4.04
   1  11   1   47.07    4.23
   1  12  -9    7.30    1.23
   1  12  -9    6.47    1.18
   1  12  -9    7.80    0.96
   1  12  -8   47.09    3.55
   1  12  -8   40.99    3.39
   1  12  -7    8.80    1.54
   1  12  -6   19.26    2.40
   1  12  -6   18.08    2.36
   1  12  -5   -0.19    0.71
   1  12  -5   -0.19    0.67
   1  12  -4   43.79    3.93
   1  12  -4   35.41    3.52
   1  12  -3   43.46    3.82
   1  12  -3   35.88    3.12
   1  12  -3   41.43    3.79
   1  12  -2    2.19    0.87
   1  12  -2    2.24    0.80
   1  12  -2    2.85    0.99
   1  13  -7   52.06    2.66
   1  13  -6    7.98    0.92
   2 -12   7    3.24    0.63
   2 -12   8    2.05    0.43
   2 -11   0   49.42    3.66
   2 -11   0   63.80    4.42
   2 -11   1    1.19    0.78
   2 -11   2  112.64    6.21
   2 -11   3   28.75    2.70
   2 -11   3   22.28    2.62
   2 -11   4   15.11    2.06
   2 -11   4   12.96    1.80
   2 -11   5   20.69    2.26
   2 -11   5   21.44    2.31
   2 -11   6   14.21    1.75
   2 -11   6   14.03    1.84
   2 -11   7   38.19    2.66
   2 -11   8    3.63    0.81
   2 -11   8    3.79    0.86
   2 -11   8    3.23    0.71
   2 -11   9   34.61    2.24
   2 -11  10    0.26    0.29
   2 -10  -2   42.04    3.90
   2 -10  -1  139.20    8.24
   2 -10   0   -0.26    0.93
   2 -10   1  135.12    8.59
   2 -10   1  139.17    7.91
   2 -10   2    6.63    1.60
   2 -10   3   70.29    5.26
   2 -10   4   38.35    3.69
   2 -10   5   17.72    2.45
   2 -10   6   87.93    5.72
   2 -10   6   78.98    5.09
   2 -10   7    1.48    0.68
   2 -10   8   45.10    3.62
   2 -10   8   46.34    3.51
   2 -10   9    8.57    1.23
   2 -10   9    8.85    1.38
   2 -10   9    8.72    1.40
   2 -10  10   34.20    2.40
   2 -10  10   37.98    2.76
   2 -10  11   28.69    1.92
   2  -9  -5   55.45    4.05
   2  -9  -4    2.01    1.07
   2  -9  -3   59.80    4.53
   2  -9  -2   74.43    5.76
   2  -9  -1   91.74    7.01
   2  -9   0   40.00    3.82
   2  -9   1   -0.81    1.15
   2  -9   2   91.67    6.79
   2  -9   4   13.78    2.10
   2  -9   5   46.18    3.99
   2  -9   6   48.48    4.16
   2  -9   7  106.95    6.71
   2  -9   8    9.45    1.75
   2  -9   9   11.38    1.55
   2  -9   9   12.73    1.88
   2  -9   9   14.94    2.06
   2  -9  10    0.11    0.50
   2  -9  10    0.55    0.53
   2  -9  10    0.58    0.54
   2  -9  11    5.95    0.95
   2  -9  12   11.13    1.10
   2  -8  -6   74.25    5.02
   2  -8  -5    3.44    1.42
   2  -8  -4  163.23    8.50
   2  -8  -3    7.60    1.74
   2  -8  -2  197.00   11.21
   2  -8  -1  115.74   13.24
   2  -8   0   21.94    5.37
   2  -8   0   25.82    3.37
   2  -8   2   77.07   12.01
   2  -8   3  379.78   16.46
   2  -8   3  321.66   27.16
   2  -8   4   34.79    3.67
   2  -8   4   40.55    8.70
   2  -8   5  221.71   11.37
   2  -8   5  196.08   21.37
   2  -8   6    3.32    1.32
   2  -8   6    5.87    3.48
   2  -8   7   10.50    2.17
   2  -8   7   18.01    5.52
   2  -8   8   32.30    3.63
   2  -8   8   34.38    3.11
   2  -8   9   14.59    1.92
   2  -8   9   13.31    2.21
   2  -8   9   13.46    1.88
   2  -8  10   23.88    2.30
   2  -8  10   23.08    2.41
   2  -8  11   -0.10    0.44
   2  -8  11    0.14    0.48
   2  -8  11    0.12    0.46
   2  -8  12   13.93    1.42
   2  -8  12   12.83    1.48
   2  -8  12   13.74    1.46
   2  -7  -7   31.71    3.06
   2  -7  -6   49.89    4.37
   2  -7  -4    5.80    1.46
   2  -7  -3  179.62   18.28
   2  -7  -3  231.07   11.82
   2  -7  -2   50.13    8.73
   2  -7  -1  265.19   21.22
   2  -7   0  124.46   13.15
   2  -7   1  128.16   12.52
   2  -7   2  719.76   41.64
   2  -7   3   40.89    8.61
   2  -7   3   40.42    4.09
   2  -7   4   42.46    8.77
   2  -7   4   50.77    4.68
   2  -7   5   52.34   10.63
   2  -7   5   61.35    5.37
   2  -7   6  236.57   25.02
   2  -7   6  285.68   14.24
   2  -7   7  161.20   18.42
   2  -7   7  159.75    9.24
   2  -7   8   11.44    1.78
   2  -7   8    8.05    2.03
   2  -7   8    7.55    1.70
   2  -7   9   69.05    5.24
   2  -7   9   69.16    4.69
   2  -7  10   36.81    3.60
   2  -7  10   37.53    3.53
   2  -7  10   34.78    3.02
   2  -7  11  195.65    9.32
   2  -7  11  184.22    9.30
   2  -7  11  197.77    8.81
   2  -7  12   15.93    1.73
   2  -7  12   18.71    1.99
   2  -7  12   19.33    1.82
   2  -7  13    6.27    0.89
   2  -6  -8    4.82    1.18
   2  -6  -8    3.43    1.40
   2  -6  -7   36.57    3.66
   2  -6  -6  171.55    9.63
   2  -6  -4   37.00    7.95
   2  -6  -4   33.50    3.54
   2  -6  -3    9.80    3.88
   2  -6  -2  332.09   24.69
   2  -6  -1  112.68   12.50
   2  -6   1   48.64    6.72
   2  -6   5   74.64    5.61
   2  -6   6   20.05    2.88
   2  -6   7  107.73    7.41
   2  -6   8  125.99    7.03
   2  -6   8  122.00    8.10
   2  -6   9   16.26    2.17
   2  -6   9   22.14    5.60
   2  -6   9   21.68    3.03
   2  -6   9   15.16    2.63
   2  -6  10   73.34    4.84
   2  -6  10   79.23    5.65
   2  -6  10   71.93    5.56
   2  -6  11   52.75    3.70
   2  -6  11   53.87    4.04
   2  -6  11   46.48    4.06
   2  -6  12   11.47    1.49
   2  -6  12   13.58    1.62
   2  -6  12   11.36    1.46
   2  -6  12   13.43    1.82
   2  -6  13    3.34    0.66
   2  -6  13    4.43    0.80
   2  -6  13    3.54    0.78
   2  -5  -9   -0.25    1.06
   2  -5  -8  250.16   11.79
   2  -5  -7   53.43    4.56
   2  -5  -6  165.81   18.97
   2  -5  -5   78.83   12.23
   2  -5  -4  110.71   14.21
   2  -5  -3   89.85   12.09
   2  -5  -2   41.93    7.59
   2  -5  -1  374.29   23.86
   2  -5   3   40.31    7.74
   2  -5   4   60.50   10.45
   2  -5   5  143.00   17.29
   2  -5   5  142.05    9.16
   2  -5   6  361.03   30.26
   2  -5   6  382.68   18.07
   2  -5   7   20.91    2.50
   2  -5   7   29.26    7.50
   2  -5   7   28.81    3.80
   2  -5   8    1.71    0.88
   2  -5   8    1.03    1.73
   2  -5   8    2.63    1.55
   2  -5   9    4.61    1.20
   2  -5   9    2.77    1.90
   2  -5   9    4.41    1.61
   2  -5  10   52.43    3.97
   2  -5  10   46.06    4.27
   2  -5  10   49.29    4.64
   2  -5  11   38.16    3.39
   2  -5  11   40.08    3.82
   2  -5  12    0.60    0.62
   2  -5  12    0.62    0.61
   2  -5  13    2.18    0.61
   2  -5  13    2.18    0.68
   2  -5  14    1.89    0.42
   2  -4  -9  194.99   11.17
   2  -4  -8    1.16    0.80
   2  -4  -7  172.60    9.17
   2  -4  -7  124.28   17.54
   2  -4  -5  306.94   25.93
   2  -4  -4  254.06   21.67
   2  -4  -3  135.57   14.31
   2  -4  -2 1207.20   54.49
   2  -4  -1   97.65   10.04
   2  -4   0  378.94   21.22
   2  -4   3  591.98   34.67
   2  -4   4  163.21   17.03
   2  -4   5  250.76   23.43
   2  -4   6   34.56    3.07
   2  -4   6   49.04    9.59
   2  -4   7  443.87   30.30
   2  -4   7  400.17   17.35
   2  -4   7  484.03   21.19
   2  -4   7  437.81   19.17
   2  -4   8   10.67    4.47
   2  -4   8   15.19    2.08
   2  -4   8   11.75    2.24
   2  -4   8   14.83    2.95
   2  -4   9  158.77   15.61
   2  -4   9  142.11    7.70
   2  -4   9  142.43    9.28
   2  -4   9  133.05    8.40
   2  -4  10   93.60    5.65
   2  -4  10   87.05    6.05
   2  -4  10   88.37    6.54
   2  -4  10   76.57    5.79
   2  -4  11   50.29    3.74
   2  -4  11   49.39    3.88
   2  -4  11   46.31    3.64
   2  -4  11   48.85    3.99
   2  -4  12   25.19    2.29
   2  -4  12   27.33    2.45
   2  -4  12   21.93    2.48
   2  -4  12   22.24    2.25
   2  -4  13    5.42    0.88
   2  -4  13    4.07    0.87
   2  -4  13    5.78    1.01
   2  -4  14   75.07    3.35
   2  -3 -11   25.47    2.60
   2  -3 -10   60.67    5.33
   2  -3  -8  125.02   18.30
   2  -3  -7    4.30    2.94
   2  -3  -7    6.59    3.90
   2  -3  -6  213.32   22.83
   2  -3  -6  249.93   23.85
   2  -3  -5  264.05   23.32
   2  -3  -3   34.77    6.69
   2  -3  -2  102.52   11.03
   2  -3  -1 1038.72   45.45
   2  -3  -1 1073.32   47.67
   2  -3   0  300.94   17.03
   2  -3   2  223.58   17.49
   2  -3   3  234.60   19.28
   2  -3   4  234.53   20.96
   2  -3   5    8.73    4.44
   2  -3   6  603.32   35.65
   2  -3   6  526.85   21.39
   2  -3   6  594.58   23.45
   2  -3   7   87.49   11.69
   2  -3   7   80.92    5.21
   2  -3   7   79.76    6.43
   2  -3   8  174.77   16.64
   2  -3   8  185.09    9.18
   2  -3   8  186.58   11.50
   2  -3   8  168.95   10.57
   2  -3   9   89.51   11.46
   2  -3   9   92.72    5.71
   2  -3   9   72.92    6.26
   2  -3  10  114.33    6.33
   2  -3  10  100.69    6.25
   2  -3  10   99.12    6.41
   2  -3  11  141.54    7.25
   2  -3  11  118.31    7.46
   2  -3  11  119.35    7.36
   2  -3  12    1.38    0.71
   2  -3  12    0.29    0.52
   2  -3  12    0.15    0.57
   2  -3  13   33.12    2.12
   2  -3  13   30.95    2.33
   2  -3  13   27.29    2.21
   2  -2 -11    9.23    1.73
   2  -2 -10  125.74    8.49
   2  -2  -8   19.82    6.09
   2  -2  -7   23.29    6.73
   2  -2  -5  319.38   27.47
   2  -2  -4    1.32    1.56
   2  -2  -3  334.89   27.93
   2  -2   1  218.47   11.17
   2  -2   1  215.81   11.44
   2  -2   2   93.95    7.22
   2  -2   2   94.53   10.79
   2  -2   3  279.19   15.93
   2  -2   3  288.61   21.72
   2  -2   4   99.80    9.41
   2  -2   4  103.02   13.34
   2  -2   5   19.28    5.51
   2  -2   5   18.87    4.49
   2  -2   6   60.40    9.07
   2  -2   6   65.62    9.73
   2  -2   7  299.23   24.48
   2  -2   7  342.71   16.77
   2  -2   7  359.64   14.97
   2  -2   7  322.33   23.56
   2  -2   8   12.65    2.71
   2  -2   8   12.23    4.28
   2  -2   8   14.60    4.81
   2  -2   9    2.92    1.06
   2  -2   9    4.02    1.64
   2  -2   9    2.44    1.49
   2  -2   9    3.48    2.06
   2  -2   9    3.19    2.18
   2  -2  10    0.18    0.81
   2  -2  10    0.27    0.84
   2  -2  10    0.50    0.62
   2  -2  10    0.26    1.14
   2  -2  11    6.23    1.32
   2  -2  11    6.47    1.47
   2  -2  11    3.86    1.38
   2  -2  11    5.37    1.40
   2  -2  12   24.99    2.14
   2  -2  12   23.36    2.27
   2  -2  12   22.40    2.32
   2  -2  12   22.28    2.43
   2  -2  13    1.09    0.50
   2  -1 -12    1.52    0.50
   2  -1 -12    0.49    0.65
   2  -1 -11  149.36    8.34
   2  -1 -10   63.30    5.73
   2  -1  -9  120.13   15.13
   2  -1  -8   76.39   12.14
   2  -1  -5    7.69    4.02
   2  -1   0   60.80    5.08
   2  -1   1  344.99   16.90
   2  -1   1  402.39   22.69
   2  -1   2  462.08   21.66
   2  -1   2  458.20   27.46
   2  -1   3 1592.75   63.73
   2  -1   3 1807.56   74.90
   2  -1   4   99.65    9.63
   2  -1   4   97.06   11.56
   2  -1   5  339.44   21.60
   2  -1   5  315.32   21.99
   2  -1   6  146.64    8.69
   2  -1   6  136.36   14.05
   2  -1   6  115.25   12.64
   2  -1   7   88.29   11.70
   2  -1   7   90.47    7.00
   2  -1   7   83.97    5.82
   2  -1   7   85.23   10.88
   2  -1   8   12.93    2.13
   2  -1   8   10.93    2.59
   2  -1   8   11.06    3.92
   2  -1   8   18.02    5.52
   2  -1   9    5.63    1.46
   2  -1   9    2.22    1.18
   2  -1   9    2.96    1.51
   2  -1   9    3.87    1.54
   2  -1   9    5.97    2.67
   2  -1   9    4.78    2.83
   2  -1  10  281.92   12.69
   2  -1  10  270.34   13.41
   2  -1  10  254.53   13.83
   2  -1  11    2.88    0.93
   2  -1  11    4.12    1.15
   2  -1  11    2.79    1.11
   2  -1  11    1.57    0.88
   2  -1  12   30.38    2.49
   2  -1  12   27.96    2.70
   2   0 -13   12.35    1.60
   2   0 -12   24.41    2.82
   2   0 -11    3.13    1.23
   2   0 -10  202.15   11.25
   2   0  -9   67.64    5.80
   2   0  -9   67.32   11.79
   2   0  -9   68.49   11.57
   2   0  -8   10.71    4.50
   2   0  -7  342.94   28.46
   2   0  -6   11.81    4.93
   2   0   0  267.78   14.57
   2   0   0  291.39   18.00
   2   0   1  331.79   16.82
   2   0   1  325.76   20.96
   2   0   2 1897.40   74.46
   2   0   2 2136.39   83.82
   2   0   2 2026.64   72.79
   2   0   3  581.62   31.17
   2   0   3  574.48   27.83
   2   0   4  168.07    8.32
   2   0   4  148.38   12.79
   2   0   4  164.45   14.00
   2   0   5   27.23    2.94
   2   0   5   19.91    5.10
   2   0   5   27.80    5.61
   2   0   5   29.47    2.75
   2   0   6  185.59   10.37
   2   0   6  197.84   11.10
   2   0   6  194.60   16.47
   2   0   6  224.93   10.30
   2   0   7  759.70   31.68
   2   0   7  750.49   43.93
   2   0   7  805.86   33.17
   2   0   7  779.15   41.12
   2   0   7  866.59   31.58
   2   0   8   39.36    6.94
   2   0   8   29.04    3.39
   2   0   8   32.12    4.44
   2   0   8   34.69    7.82
   2   0   8   24.87    3.39
   2   0   9  133.93   16.33
   2   0   9  149.63    8.51
   2   0   9  140.91    9.15
   2   0   9  128.08    9.62
   2   0  10    1.40    0.74
   2   0  10    0.18    0.80
   2   0  10    0.27    0.72
   2   0  10    0.21    0.74
   2   0  11  208.70    9.34
   2   0  11  230.67    9.91
   2   0  12   42.02    3.21
   2   1 -13    5.70    1.16
   2   1 -12   16.16    2.31
   2   1 -10    3.66    2.50
   2   1 -10    3.41    2.34
   2   1  -9   66.96   10.82
   2   1  -8   27.24    6.93
   2   1  -7  179.85   19.96
   2   1  -7  173.84   17.90
   2   1  -1  985.51   42.85
   2   1  -1 1136.98   45.76
   2   1   0   44.88    6.32
   2   1   0   48.03    5.83
   2   1   1   95.99    8.32
   2   1   1  111.12   10.64
   2   1   1  103.45    8.71
   2   1   2   10.79    3.24
   2   1   2    8.02    2.39
   2   1   2    8.73    2.74
   2   1   3  323.02   19.79
   2   1   3  373.56   21.25
   2   1   3  324.90   17.87
   2   1   4   60.94    4.58
   2   1   4   65.77    8.27
   2   1   5   85.77    6.16
   2   1   5   75.56   10.08
   2   1   5   91.95   10.78
   2   1   5   95.65    5.42
   2   1   6   27.85    3.55
   2   1   6   37.86    4.31
   2   1   6   31.27    6.34
   2   1   6   36.91    3.39
   2   1   7   41.58    7.22
   2   1   7   41.58    3.83
   2   1   7   34.26    4.56
   2   1   7   45.40    8.70
   2   1   7   35.08    4.19
   2   1   8   88.19    6.99
   2   1   8  100.61    6.72
   2   1   8   92.78    7.42
   2   1   8   80.56    7.59
   2   1   8  112.42   14.59
   2   1   9    2.51    1.14
   2   1   9    0.47    0.74
   2   1  10   88.02    5.52
   2   1  10   99.46    5.98
   2   1  11   63.30    3.88
   2   1  12    1.44    0.52
   2   2 -13   61.00    4.14
   2   2 -12   46.78    4.07
   2   2 -11  136.69    8.45
   2   2 -10  304.37   23.92
   2   2  -9    3.15    2.16
   2   2  -8  174.94   19.86
   2   2  -8  195.38   18.00
   2   2  -7    2.68    2.59
   2   2  -6  895.25   43.74
   2   2  -5   22.46    4.62
   2   2  -4    8.33    2.48
   2   2  -2   66.78    8.32
   2   2  -1  845.56   38.90
   2   2   0   49.55    6.58
   2   2   0   43.75    5.63
   2   2   1  695.90   33.30
   2   2   1  729.40   32.85
   2   2   2  153.43    7.55
   2   2   2  149.39   12.09
   2   2   2  139.99   11.66
   2   2   3   96.41   10.23
   2   2   3   95.30    9.36
   2   2   4   28.75    4.89
   2   2   4   21.59    5.23
   2   2   5   58.88    5.34
   2   2   5   67.05    4.36
   2   2   5   57.12    9.37
   2   2   6  488.29   19.26
   2   2   6  438.77   20.97
   2   2   7   62.73    5.95
   2   2   7   66.07    4.97
   2   2   7   69.93   11.27
   2   2   8   11.69    2.54
   2   2   8   10.35    2.03
   2   2   8   11.13    2.79
   2   2   8   12.11    2.29
   2   2   9    7.58    1.66
   2   2   9    9.79    2.32
   2   2  10   13.99    1.84
   2   2  10   12.85    2.16
   2   2  11   32.16    2.39
   2   2  11   22.64    2.35
   2   3 -13   41.08    3.27
   2   3 -12    2.95    1.03
   2   3 -11   99.80    6.69
   2   3 -10   25.42    3.23
   2   3 -10   25.06    5.88
   2   3 -10   24.95    6.66
   2   3  -9  321.15   15.33
   2   3  -9  318.24   27.51
   2   3  -9  326.30   23.82
   2   3  -8   74.04   10.08
   2   3  -7  306.58   20.77
   2   3  -6  383.11   23.16
   2   3  -5  179.72   13.67
   2   3  -4 1148.90   54.44
   2   3  -2 1477.77   63.09
   2   3   0  456.65   24.41
   2   3   0  444.98   25.77
   2   3   1   34.24    5.69
   2   3   1   42.14    6.65
   2   3   2  281.47   18.96
   2   3   2  235.32   18.19
   2   3   2  279.24   12.52
   2   3   3  875.33   44.46
   2   3   3  960.66   35.18
   2   3   3  911.21   43.98
   2   3   4   32.98    3.26
   2   3   4   33.57    6.03
   2   3   4   33.65    6.90
   2   3   4   34.95    4.00
   2   3   5  375.84   18.61
   2   3   5  414.23   16.37
   2   3   5  348.54   26.93
   2   3   6    2.68    1.49
   2   3   6    2.12    1.62
   2   3   7  200.96   12.00
   2   3   7  183.19   10.52
   2   3   7  190.73   10.75
   2   3   7  175.59   19.11
   2   3   7  196.55   12.40
   2   3   8   52.42    5.39
   2   3   8   50.82    5.55
   2   3   9   78.09    5.20
   2   3   9   69.03    5.75
   2   3  10   60.42    4.37
   2   3  10   56.06    4.21
   2   4 -13    0.62    0.55
   2   4 -12    0.33    0.56
   2   4 -11   22.54    2.73
   2   4 -10  116.27    7.19
   2   4 -10  132.07   13.50
   2   4 -10  125.72   13.53
   2   4  -9   39.03    3.70
   2   4  -9   45.86    7.59
   2   4  -9   54.28    8.42
   2   4  -9   54.60   10.19
   2   4  -8   17.75    5.17
   2   4  -8   11.95    3.68
   2   4  -7   22.42    5.42
   2   4  -7   11.53    3.44
   2   4  -6  171.51   13.99
   2   4  -4   -0.95    1.60
   2   4  -2   30.62    6.53
   2   4  -1  344.98   24.02
   2   4  -1  371.57   15.65
   2   4   0  304.78   20.34
   2   4   0  308.18   22.02
   2   4   1  119.84   11.98
   2   4   1  102.40   12.05
   2   4   1  123.17    7.46
   2   4   2  170.95    8.42
   2   4   2  162.10   15.54
   2   4   2  191.71    9.84
   2   4   2  163.67   15.81
   2   4   3   36.06    3.73
   2   4   3   38.70    7.33
   2   4   3   37.15    3.21
   2   4   4  159.68    9.26
   2   4   4  161.32   15.46
   2   4   4  189.49   11.20
   2   4   5    0.70    1.44
   2   4   5    0.90    0.92
   2   4   5    1.10    0.97
   2   4   6  142.95   10.30
   2   4   6  156.86    9.31
   2   4   6  156.55    8.18
   2   4   6  162.41   10.92
   2   4   7   83.79    7.27
   2   4   7   79.22    6.22
   2   4   7   95.91    5.84
   2   4   7   80.62    7.30
   2   4   8   62.76    5.88
   2   4   8   51.00    4.96
   2   4   9   19.90    2.71
   2   4   9   18.16    2.29
   2   4  10   14.68    1.40
   2   4  10   11.56    1.20
   2   5 -12   38.25    3.13
   2   5 -11    0.64    0.63
   2   5 -10  202.02   17.58
   2   5 -10  238.63   18.81
   2   5  -9   17.78    4.75
   2   5  -9   22.78    5.23
   2   5  -9   18.32    5.83
   2   5  -8    6.23    3.34
   2   5  -8    9.61    3.30
   2   5  -7   94.01   11.74
   2   5  -7  120.90    7.97
   2   5  -6   90.43    6.43
   2   5  -5  278.75   13.11
   2   5  -4    5.67    1.35
   2   5  -3  312.74   13.61
   2   5  -3  310.07   24.25
   2   5  -2  252.42   11.38
   2   5  -2  244.59   12.31
   2   5  -2  258.69   21.43
   2   5  -1    4.90    1.32
   2   5  -1    8.12    3.80
   2   5  -1    4.13    1.08
   2   5   0   35.60    3.93
   2   5   0   26.74    2.77
   2   5   0   26.57    2.49
   2   5   0   32.80    6.93
   2   5   1   84.70    6.31
   2   5   1   78.25    5.17
   2   5   1   63.88   10.47
   2   5   1   75.60    4.85
   2   5   2  355.71   15.00
   2   5   2  344.98   15.01
   2   5   2  359.31   16.66
   2   5   2  339.18   25.06
   2   5   2  315.43   25.31
   2   5   3   53.11    4.97
   2   5   3   51.22    4.31
   2   5   3   66.80   10.19
   2   5   3   52.81    9.10
   2   5   3   57.99    5.88
   2   5   3   48.48    4.06
   2   5   4    9.01    1.82
   2   5   4    6.96    2.18
   2   5   4    7.97    2.34
   2   5   4    6.20    1.72
   2   5   4    9.55    3.78
   2   5   4    9.51    3.99
   2   5   5   43.67    4.18
   2   5   5   39.72    3.33
   2   5   5   37.63    4.83
   2   5   5   34.31    3.76
   2   5   5   38.37    4.82
   2   5   5   46.13    9.19
   2   5   6   56.45    6.02
   2   5   6   53.07    4.89
   2   5   6   67.67    4.45
   2   5   6   45.18    5.42
   2   5   7   46.79    5.14
   2   5   7   58.18    4.03
   2   5   7   43.97    4.41
   2   5   8   11.15    1.58
   2   5   9   11.04    1.37
   2   6 -13   79.97    4.81
   2   6 -12    5.31    1.21
   2   6 -11  137.12    7.70
   2   6 -10  152.58    8.74
   2   6  -9   21.11    6.09
   2   6  -9   17.72    2.69
   2   6  -8  109.96    7.62
   2   6  -7  311.50   15.63
   2   6  -5  107.37    7.18
   2   6  -4   74.26    5.55
   2   6  -4   77.13   12.30
   2   6  -4   70.36    6.21
   2   6  -3  151.21    8.45
   2   6  -3  136.32   16.81
   2   6  -3  145.72    9.21
   2   6  -2  449.52   18.69
   2   6  -2  469.84   28.98
   2   6  -2  389.45   30.65
   2   6  -2  431.30   19.37
   2   6  -1  353.16   15.57
   2   6  -1  323.07   24.16
   2   6  -1  359.73   17.43
   2   6  -1  344.94   27.80
   2   6   0   29.31    3.89
   2   6   0   29.69    3.21
   2   6   0   38.26    8.58
   2   6   0   31.84    6.93
   2   6   1  299.35   14.29
   2   6   1  346.79   14.13
   2   6   1  320.16   16.10
   2   6   1  313.89   24.33
   2   6   1  277.06   25.15
   2   6   2   13.06    2.91
   2   6   2   10.93    1.95
   2   6   2   10.63    1.88
   2   6   2   12.77    2.70
   2   6   2   11.18    4.43
   2   6   3  226.14   11.37
   2   6   3  221.49   12.51
   2   6   3  241.30   11.50
   2   6   3  254.38   22.45
   2   6   3  230.27   21.51
   2   6   4   55.68    5.80
   2   6   4   60.14    5.39
   2   6   5   59.09    5.76
   2   6   5   65.38    5.32
   2   6   5   69.21    4.40
   2   6   6  103.03    6.59
   2   6   6  109.38    5.67
   2   6   7    1.56    1.11
   2   6   7    2.17    1.05
   2   6   7    1.95    0.74
   2   7 -13   20.12    2.02
   2   7 -12    2.69    0.80
   2   7 -12    2.32    0.88
   2   7 -11    4.39    1.21
   2   7 -11    6.75    1.62
   2   7 -10   46.17    4.22
   2   7  -9   71.05    5.67
   2   7  -8    6.57    2.95
   2   7  -7   73.44   10.49
   2   7  -7   88.23    6.59
   2   7  -6   57.03    9.86
   2   7  -6   68.33    5.79
   2   7  -5  227.15   11.85
   2   7  -5  201.59   11.80
   2   7  -4   19.61    2.91
   2   7  -4   21.24    3.35
   2   7  -3  111.63    7.31
   2   7  -3   87.96   12.23
   2   7  -3  116.33   16.12
   2   7  -3   92.67    7.41
   2   7  -2  186.45   10.17
   2   7  -2  179.51   17.71
   2   7  -2  155.51   19.55
   2   7  -2  180.42   11.49
   2   7  -1   26.86    3.27
   2   7  -1   37.34    8.71
   2   7  -1   36.88    7.43
   2   7  -1   22.90    3.13
   2   7  -1   28.28    4.09
   2   7   0   51.88    3.92
   2   7   0   46.06    5.21
   2   7   0   43.85    4.26
   2   7   0   48.65    5.51
   2   7   0   53.60   10.42
   2   7   0   50.24    8.91
   2   7   1    6.06    2.15
   2   7   1    3.14    1.25
   2   7   1    4.43    1.23
   2   7   1    5.04    1.87
   2   7   1    5.53    3.27
   2   7   2  274.90   14.50
   2   7   2  289.77   12.57
   2   7   2  232.52   13.40
   2   7   2  267.18   12.80
   2   7   2  248.57   14.95
   2   7   3  222.84   11.09
   2   7   3  195.95   13.09
   2   7   3  243.06   11.13
   2   7   3  210.72   12.17
   2   7   4   38.90    4.28
   2   7   4   32.87    4.50
   2   7   4   34.52    3.44
   2   7   4   30.98    3.64
   2   7   5   12.65    2.06
   2   7   5   13.04    2.70
   2   7   5   21.34    2.49
   2   7   5   15.11    2.25
   2   7   6   30.75    3.74
   2   7   6   41.96    3.40
   2   7   7   81.88    4.46
   2   8 -12   17.30    2.10
   2   8 -12   18.55    1.92
   2   8 -11   19.50    2.46
   2   8 -11   17.34    2.20
   2   8 -10    1.16    0.89
   2   8  -9   25.78    3.28
   2   8  -9   32.32    3.55
   2   8  -8    0.99    1.10
   2   8  -7   51.02    4.93
   2   8  -7   48.81    8.56
   2   8  -6   37.90    4.27
   2   8  -6   45.77    4.82
   2   8  -6   30.31    7.03
   2   8  -5    2.49    2.09
   2   8  -5    2.31    1.93
   2   8  -5    0.32    1.06
   2   8  -5    0.88    1.04
   2   8  -4    1.12    1.33
   2   8  -4    2.26    1.25
   2   8  -3   25.40    3.37
   2   8  -3   23.23    6.04
   2   8  -3   17.47    3.06
   2   8  -2  128.62    8.19
   2   8  -2  110.99   14.19
   2   8  -2  118.07    8.23
   2   8  -2  119.68    9.36
   2   8  -2  136.47   17.79
   2   8  -1   36.55    4.83
   2   8  -1   42.42    4.36
   2   8  -1   50.95   10.59
   2   8  -1   48.17    8.80
   2   8   0    7.65    1.83
   2   8   0    7.39    1.48
   2   8   0    7.52    2.17
   2   8   0    4.48    1.84
   2   8   1  175.37    8.68
   2   8   1  175.71    9.48
   2   8   1  161.85   11.11
   2   8   1  163.56   11.69
   2   8   1  152.79   10.38
   2   8   2   26.74    2.70
   2   8   2   21.13    2.68
   2   8   2   18.85    3.43
   2   8   2   21.95    3.69
   2   8   2   20.33    3.27
   2   8   3   15.01    2.07
   2   8   3   12.45    2.66
   2   8   3   10.67    2.17
   2   8   4    1.17    0.79
   2   8   4    0.61    0.68
   2   8   4    1.11    1.03
   2   8   4    0.79    0.74
   2   8   5   34.52    3.66
   2   8   5   50.33    3.40
   2   8   6    6.47    1.02
   2   9 -11   34.27    2.80
   2   9 -11   31.97    2.98
   2   9 -10  130.09    7.12
   2   9  -9    3.03    1.04
   2   9  -9    2.58    1.15
   2   9  -9    5.60    1.52
   2   9  -8   17.84    2.67
   2   9  -8   16.49    2.43
   2   9  -8   12.13    2.23
   2   9  -7   11.57    2.25
   2   9  -7   14.95    2.71
   2   9  -7   12.72    2.38
   2   9  -6  136.77    8.65
   2   9  -6   92.62    7.07
   2   9  -5   90.32    7.25
   2   9  -5   82.87    6.89
   2   9  -4   13.18    2.87
   2   9  -4   22.02    3.27
   2   9  -4   14.58    2.87
   2   9  -3  151.08    9.06
   2   9  -3  123.12    8.74
   2   9  -2   21.32    2.98
   2   9  -2   21.79    3.07
   2   9  -2   15.34    2.89
   2   9  -2   15.51    3.18
   2   9  -1  142.85   10.03
   2   9  -1  140.03    8.32
   2   9  -1  162.61    9.07
   2   9  -1  136.99    9.49
   2   9   0    1.50    0.99
   2   9   0    4.11    1.05
   2   9   0    4.23    1.68
   2   9   0    3.23    1.63
   2   9   1   51.57    4.19
   2   9   1   47.85    5.24
   2   9   1   44.22    4.91
   2   9   1   49.63    4.96
   2   9   2   36.90    4.08
   2   9   2   35.04    3.80
   2   9   3    6.51    1.18
   2   9   3    5.84    1.42
   2   9   3    4.03    1.39
   2   9   3    5.12    1.33
   2   9   4   21.98    1.91
   2  10 -11    2.52    0.75
   2  10 -10   26.90    2.40
   2  10  -9   69.90    4.60
   2  10  -9   62.98    4.63
   2  10  -8    4.71    1.18
   2  10  -8    4.92    1.34
   2  10  -8    2.49    1.02
   2  10  -7   37.55    3.70
   2  10  -7   34.58    3.58
   2  10  -7   27.81    3.13
   2  10  -6   76.19    5.89
   2  10  -6   71.61    5.56
   2  10  -5    4.47    1.51
   2  10  -5    7.17    1.88
   2  10  -5    5.58    1.68
   2  10  -4   50.08    4.60
   2  10  -4   37.77    4.21
   2  10  -3    1.12    1.20
   2  10  -3    5.30    1.52
   2  10  -3    4.10    1.34
   2  10  -2   79.52    6.22
   2  10  -2   77.61    5.61
   2  10  -1   29.38    3.07
   2  10  -1   28.69    3.76
   2  10   0   13.12    2.38
   2  10   0   15.89    2.08
   2  10   1   15.18    2.31
   2  10   1   13.74    2.27
   2  11  -9    1.44    0.62
   2  11  -8    1.39    0.64
   2  11  -7    3.98    1.00
   2  11  -7    4.89    1.12
   2  11  -6   27.24    2.66
   2  11  -6   21.24    2.34
   2  11  -6   20.27    2.44
   2  11  -5   10.32    1.72
   2  11  -5   13.33    1.93
   2  11  -5   12.83    1.93
   2  11  -4    2.41    0.89
   2  11  -4    2.81    1.08
   2  11  -4    3.29    1.09
   2  11  -3   13.51    2.10
   2  11  -3   17.58    2.14
   2  11  -2    1.40    0.90
   3 -10   1    0.58    0.67
   3 -10   2   44.24    3.50
   3 -10   4   29.95    2.51
   3 -10   5   10.41    1.42
   3 -10   6    4.21    0.88
   3  -9  -1   32.01    3.22
   3  -9   0   54.66    4.88
   3  -9   2    2.69    1.00
   3  -9   6    4.18    0.93
   3  -9   7   11.54    1.44
   3  -9   8   23.51    2.02
   3  -8  -2    4.94    1.47
   3  -8   4  144.36    7.74
   3  -8   5   10.99    1.84
   3  -8   6   50.56    4.01
   3  -8   7    7.92    1.50
   3  -8   8   27.62    2.60
   3  -8   9   11.84    1.52
   3  -8  10    2.53    0.54
   3  -7  -5   53.53    3.88
   3  -7   3  353.42   16.06
   3  -7   4   15.03    2.46
   3  -7   5   52.87    4.72
   3  -7   6   16.38    2.54
   3  -7   7   70.81    5.33
   3  -7   8   40.91    3.62
   3  -7   9    2.99    0.97
   3  -7   9    3.01    0.77
   3  -7  10   16.61    1.75
   3  -7  10   17.52    1.54
   3  -7  11    3.76    0.56
   3  -6   0   54.37   10.21
   3  -6   1  115.29   15.29
   3  -6   2    5.67    3.36
   3  -6   3   25.02    7.23
   3  -6   4  136.87   17.86
   3  -6   6   10.31    1.94
   3  -6   7    2.00    0.89
   3  -6   8   35.80    3.40
   3  -6   9   40.25    3.35
   3  -6  10    5.24    1.08
   3  -6  10    5.12    1.02
   3  -6  10    6.29    0.99
   3  -6  11   13.90    1.21
   3  -5  -6    9.59    1.55
   3  -5   0  156.65   17.85
   3  -5   1   -1.36    0.05
   3  -5   2   97.19   14.62
   3  -5   3   54.24   10.85
   3  -5   4   57.56   11.52
   3  -5   5   54.69   10.88
   3  -5   5   39.15    4.59
   3  -5   6   31.12    3.93
   3  -5   7  128.72    8.33
   3  -5   8    1.12    0.88
   3  -5   9    6.77    1.24
   3  -5   9    4.44    1.31
   3  -5   9    4.04    1.26
   3  -5  10    1.37    0.60
   3  -5  10    1.03    0.61
   3  -5  10    0.56    0.55
   3  -5  11   17.38    1.47
   3  -5  11   16.70    1.67
   3  -4  -4  147.56   15.87
   3  -4   0    5.19    3.07
   3  -4   1  257.32   24.23
   3  -4   2   33.04    8.23
   3  -4   3  291.90   27.44
   3  -4   4  204.87   23.63
   3  -4   5   64.59   11.81
   3  -4   6   88.32   12.56
   3  -4   7    6.12    2.06
   3  -4   8  151.99    7.77
   3  -4   8  142.90    9.08
   3  -4   9   10.63    1.61
   3  -4   9    8.31    1.82
   3  -4  10   48.77    3.16
   3  -4  10   41.84    3.30
   3  -4  10   43.66    3.61
   3  -4  11   20.24    1.64
   3  -4  11   18.68    1.86
   3  -3  -9    8.62    1.56
   3  -3  -5   53.13   10.10
   3  -3  -4  112.04   13.78
   3  -3  -3   75.41   10.47
   3  -3   0  332.32   27.49
   3  -3   1   91.55   14.03
   3  -3   2  101.62   14.67
   3  -3   3   44.47    9.89
   3  -3   4   75.20   12.60
   3  -3   5  133.32   15.80
   3  -3   6    7.05    3.16
   3  -3   6    6.91    1.79
   3  -3   7   88.10    5.62
   3  -3   7   82.75    6.41
   3  -3   8   14.09    1.98
   3  -3   8   10.32    2.06
   3  -3   8   10.15    2.37
   3  -3   9   50.78    4.58
   3  -3   9   48.60    3.99
   3  -3  10   15.31    1.69
   3  -3  10   12.34    1.56
   3  -3  11    6.90    0.92
   3  -3  11    5.44    1.02
   3  -2  -6   21.74    7.17
   3  -2  -1   84.25   12.16
   3  -2   0   35.46    8.14
   3  -2   1   89.90   13.34
   3  -2   2   76.19   12.53
   3  -2   3   88.57   13.64
   3  -2   4   10.23    4.05
   3  -2   5   57.55    9.02
   3  -2   5   47.02    4.51
   3  -2   6    4.44    2.36
   3  -2   6    9.15    2.22
   3  -2   7   28.97    3.01
   3  -2   7   22.91    3.35
   3  -2   8   81.34    6.87
   3  -2   8   78.04    6.42
   3  -2   9    7.17    1.32
   3  -2   9    3.89    1.25
   3  -2  10    4.32    0.92
   3  -2  10    2.14    0.75
   3  -2  10    1.85    0.92
   3  -1  -5  468.07   38.11
   3  -1   7   37.03    4.33
   3  -1   8   52.67    5.32
   3  -1   8   43.46    4.80
   3  -1   9   19.51    2.04
   3  -1   9   14.04    2.27
   3  -1   9   16.38    2.51
   3  -1  10    6.23    1.24
   3  -1  10    6.05    1.22
   3  -1  11   48.07    2.66
   3   0 -11   12.58    1.60
   3   0  -6  109.37   16.71
   3   0  -2  134.52   13.90
   3   0  -1  105.46   10.91
   3   0   0  103.42    9.52
   3   0   1  222.90   15.63
   3   0   3  444.67   26.41
   3   0   4  111.34   11.78
   3   0   7   26.05    3.66
   3   0   8  173.38   10.09
   3   0   8  160.24   10.08
   3   0   9    3.04    1.13
   3   0   9    1.42    0.82
   3   0  10   28.11    2.57
   3   1 -11   27.44    2.41
   3   1 -10    2.22    1.03
   3   1  -7    1.65    1.95
   3   1  -4    3.75    2.96
   3   1  -2  155.88   15.30
   3   1  -2  146.94   12.60
   3   1  -1  174.29   13.89
   3   1   0   55.89    7.48
   3   1   1   15.82    3.86
   3   1   2   20.05    4.84
   3   1   3   22.17    5.01
   3   1   4   39.45    7.09
   3   1   4   40.59    4.00
   3   1   5   31.71    6.64
   3   1   5   35.90    3.79
   3   1   6   29.05    3.40
   3   1   7    2.10    1.38
   3   1   8   21.59    2.96
   3   1   8   22.05    3.25
   3   1   9   29.80    3.16
   3   1   9   37.12    2.90
   3   2  -7  175.64   18.01
   3   2  -6   24.73    6.60
   3   2  -5  941.44   53.03
   3   2  -3   25.90    6.81
   3   2  -2  250.17   18.49
   3   2  -1   65.66    9.52
   3   2  -1   43.70    7.20
   3   2   0  282.35   19.45
   3   2   0  238.63   18.29
   3   2   1   35.23    6.52
   3   2   2  139.40   14.10
   3   2   3   77.39   10.13
   3   2   3   74.03    5.95
   3   2   4   73.10   10.14
   3   2   4   59.73    5.32
   3   2   5   56.93    5.12
   3   2   6   31.59    3.71
   3   2   7  134.12    8.84
   3   2   7  116.77    7.41
   3   2   8   13.96    1.92
   3   2   8   10.36    2.06
   3   2   9   10.65    1.38
   3   3  -5  152.03   17.78
   3   3  -4  108.46   14.45
   3   3  -2   12.39    4.43
   3   3  -2   15.32    4.53
   3   3  -1  416.50   27.06
   3   3  -1  444.64   28.91
   3   3   0   42.89    7.45
   3   3   0   37.68    7.22
   3   3   1  192.44   17.52
   3   3   1  226.72   11.12
   3   3   2   32.57    6.61
   3   3   3   87.90   11.77
   3   3   4  222.44   12.33
   3   3   5    3.87    1.54
   3   3   6   96.45    7.05
   3   3   6  117.34    6.99
   3   3   7    1.62    1.06
   3   3   7    2.68    1.12
   3   3   7    1.33    0.84
   3   3   8   60.67    3.79
   3   3   8   45.08    3.90
   3   3   9   21.53    1.69
   3   4  -7   -1.11    0.04
   3   4  -6   -1.18    0.04
   3   4  -3   -1.21    2.49
   3   4  -3    1.01    2.08
   3   4  -2   13.66    4.68
   3   4  -2    9.77    4.02
   3   4  -1   55.84    9.37
   3   4  -1   60.63    9.46
   3   4   0   99.59    7.05
   3   4   0  117.46   13.38
   3   4   0   84.80   11.67
   3   4   1   95.07   11.93
   3   4   1   88.81    6.38
   3   4   2   14.30    2.80
   3   4   2   14.87    2.04
   3   4   3   30.28    3.96
   3   4   3   25.74    2.82
   3   4   4   25.14    3.64
   3   4   4   29.12    3.00
   3   4   5   50.02    5.11
   3   4   5   43.97    4.64
   3   4   5   53.24    4.20
   3   4   6    0.27    1.10
   3   4   6    1.41    1.04
   3   4   6   -0.17    0.78
   3   4   7   24.75    2.88
   3   4   7   25.55    2.84
   3   4   8    9.94    1.22
   3   5  -6   49.97    9.28
   3   5  -5   91.02   13.67
   3   5  -4  216.25   11.95
   3   5  -4  208.17   21.96
   3   5  -4  217.36   20.93
   3   5  -3    1.30    1.54
   3   5  -3    3.34    2.28
   3   5  -2   82.66   12.81
   3   5  -2  110.63   13.66
   3   5  -1   77.91    6.58
   3   5  -1   81.77   11.96
   3   5  -1   92.64   12.13
   3   5   0    8.93    3.74
   3   5   0   10.74    4.03
   3   5   0    6.02    1.76
   3   5   1   21.53    3.06
   3   5   2   25.71    3.12
   3   5   2   28.59    2.75
   3   5   3  108.97    8.26
   3   5   3  129.27    6.89
   3   5   4    6.66    1.92
   3   5   4    6.64    1.48
   3   5   5    7.81    1.85
   3   5   5    4.76    1.52
   3   5   6   14.61    2.21
   3   5   6   11.58    1.93
   3   5   7   22.80    1.93
   3   6 -11    5.77    1.25
   3   6  -7   51.26    4.73
   3   6  -6   86.98    6.53
   3   6  -5  363.07   17.34
   3   6  -4   55.63   10.27
   3   6  -4   50.78    4.87
   3   6  -3   48.96    9.80
   3   6  -3   50.59    9.49
   3   6  -2   28.07    3.89
   3   6  -1  116.48    8.29
   3   6   0  148.10    9.34
   3   6   1    5.23    1.57
   3   6   2   83.81    4.90
   3   6   2   79.74    6.74
   3   6   2   76.20    5.62
   3   6   3    2.15    1.06
   3   6   3   -0.29    0.90
   3   6   3    0.65    0.73
   3   6   4  136.93    8.69
   3   6   4  126.03    8.09
   3   6   5   25.30    2.24
   3   6   5   20.34    2.71
   3   7 -11    2.37    0.73
   3   7 -10   -0.15    0.40
   3   7  -9   18.48    2.43
   3   7  -8   22.96    2.83
   3   7  -7    6.58    1.61
   3   7  -6   15.78    2.59
   3   7  -5   21.70    3.09
   3   7  -4   67.06    6.31
   3   7  -3   14.07    2.96
   3   7  -2   13.05    2.61
   3   7  -1   49.62    5.04
   3   7   0   23.12    3.23
   3   7   1   25.38    3.15
   3   7   2    3.84    1.37
   3   7   2    2.80    1.04
   3   7   3   69.60    3.77
   3   7   3   61.84    4.54
   3   7   3   67.43    5.46
   3   8 -10   11.78    1.52
   3   8 -10    8.07    1.35
   3   8  -9    8.46    1.52
   3   8  -8   13.52    1.96
   3   8  -7    5.04    1.34
   3   8  -6   23.41    3.08
   3   8  -5   15.09    2.60
   3   8  -5   14.08    2.28
   3   8  -4    3.40    1.43
   3   8  -3   14.36    2.73
   3   8  -2   21.07    3.19
   3   8  -1   61.21    5.54
   3   8  -1   63.49    5.31
   3   8   0    3.64    1.22
   3   8   0    4.63    1.59
   3   8   1    1.19    0.70
   3   8   1    1.38    0.95
   3   8   2   22.44    2.73
   3   9  -8    5.25    1.15
   3   9  -8    3.71    1.04
   3   9  -7   22.66    2.33
   3   9  -7   18.00    2.28
   3   9  -6    0.60    0.58
   3   9  -5   48.77    3.74
   3   9  -5   49.82    4.26
   3   9  -4   49.50    4.37
   3   9  -3   14.10    2.34
   3   9  -3    9.53    1.72
   3   9  -2   13.18    2.06
   3   9  -2   17.62    2.54
   3   9  -1   15.00    2.09
   3   9  -1   13.82    2.05
   4  -6   4   10.61    1.52
   4  -6   5   28.35    2.49
   4  -5   7    4.49    0.94
   4  -4   4   45.19    3.89
   4  -4   5   53.62    4.08
   4  -4   6   13.55    1.80
   4  -3   6   19.53    2.47
   4  -3   7    1.79    0.79
   4  -2   6   27.92    3.17
   4  -2   7    3.94    1.09
   4  -1   5  106.73    6.42
   4  -1   6   32.46    3.00
   4  -1   7   15.72    2.00
   4   0   5   25.15    2.88
   4   0   6   21.02    2.48
   4   0   7    0.94    0.49
   4   1   5    2.98    0.94
   4   1   5    3.46    1.14
   4   1   6    2.10    0.73
   4   1   6    0.81    0.79
   4   2   1  108.84    6.86
   4   2   2    2.38    1.00
   4   2   5   16.11    1.69
   4   2   5   21.82    2.65
   4   3   2   48.81    4.17
   4   3   3   14.60    2.07
   4   3   3   18.92    2.79
   4   3   4   21.65    2.79
   4   4  -3    8.78    1.89
   4   4   0   29.93    3.56
   4   4   1   27.36    3.21
   4   4   2   13.40    2.10
   4   5  -4   24.27    3.07
   4   5  -3  110.96    6.91
   4   5  -1   35.28    3.85
   4   5   0   17.48    2.61
   4   5   1    3.47    1.35
   4   6  -6   17.88    2.26
   4   6  -5   17.83    2.37
   4   6  -4  103.52    6.40
   4   6  -2   19.44    2.76
   4   6  -1    9.23    1.88
   0   0   0    0.00    0.00


TITL gro21_20_auto in P1
REM P1 (#1 in standard setting)
CELL 1.54184   3.914407  10.690945  12.492507 111.5103  93.2052  91.8072
ZERR    1.00   0.000057   0.000134   0.000167   0.0012   0.0011   0.0011
LATT -1
SFAC C H N Cl I
UNIT 16.00 8.00 4.00 5.00 1.00
REM  CrysAlisPro recorded range (K): Min=290.0; max=290.0; aver:290.0
TEMP 17
SIZE 0.04 0.13 0.19
TREF
HKLF 4
END
_computing_structure_solution     'SHELXT 2018/2 (Sheldrick, 2018)'
;
_shelx_hkl_checksum              86098
_olex2_exptl_crystal_mounting_method 'MiTeGen 75 micron MicroLoop'
_olex2_submission_original_sample_id gro21_20
_olex2_submission_special_instructions 'No special instructions were received'
_oxdiff_exptl_absorpt_empirical_details
;
Empirical correction (ABSPACK) includes:
- Absorption correction using spherical harmonics
- Frame scaling
- Detector area scaling
;
_oxdiff_exptl_absorpt_empirical_full_max 1.474
_oxdiff_exptl_absorpt_empirical_full_min 0.666
loop_
_space_group_symop_operation_xyz
'x, y, z'
'-x, -y, -z'
loop_
_atom_site_label
_atom_site_type_symbol
_atom_site_fract_x
_atom_site_fract_y
_atom_site_fract_z
_atom_site_U_iso_or_equiv
_atom_site_adp_type
_atom_site_occupancy
_atom_site_site_symmetry_order
_atom_site_calc_flag
_atom_site_refinement_flags_posn
_atom_site_refinement_flags_adp
_atom_site_refinement_flags_occupancy
_atom_site_disorder_assembly
_atom_site_disorder_group
I1 I 1.2015(2) 0.71801(10) 0.78590(9) 0.04324(19) Uani 0.5 1 d . . P A 2
Cl1 Cl 1.1953(16) 0.7240(6) 0.7952(5) 0.091(3) Uani 0.5 1 d . . P A 1
Cl2 Cl 1.2738(2) 1.01490(8) 0.77553(5) 0.0602(2) Uani 1 1 d . . . . .
Cl3 Cl 1.0893(2) 1.27620(8) 0.96969(7) 0.0668(3) Uani 1 1 d . . . . .
C1 C 1.0844(7) 0.8816(3) 0.9114(2) 0.0458(6) Uani 1 1 d . . . . .
C2 C 1.1206(7) 1.0060(3) 0.8997(2) 0.0454(6) Uani 1 1 d . . . . .
C3 C 1.0376(7) 1.1234(3) 0.9872(2) 0.0474(6) Uani 1 1 d . . . . .
N1 N 0.6105(8) 0.5500(2) 0.3688(2) 0.0591(6) Uani 1 1 d . . . . .
C4 C 0.7127(9) 0.6376(3) 0.4737(3) 0.0557(7) Uani 1 1 d . . . . .
H4 H 0.816792 0.604834 0.526176 0.067 Uiso 1 1 calc R U . . .
C5 C 0.6724(8) 0.7751(3) 0.5091(2) 0.0496(6) Uani 1 1 d . . . . .
H5 H 0.747903 0.833232 0.583170 0.060 Uiso 1 1 calc R U . . .
C6 C 0.5163(7) 0.8230(2) 0.4308(2) 0.0450(5) Uani 1 1 d . . . . .
C7 C 0.4045(9) 0.7336(3) 0.3225(2) 0.0546(6) Uani 1 1 d . . . . .
H7 H 0.295958 0.762933 0.268500 0.066 Uiso 1 1 calc R U . . .
C8 C 0.4585(9) 0.5988(3) 0.2964(3) 0.0595(7) Uani 1 1 d . . . . .
H8 H 0.383199 0.538476 0.223165 0.071 Uiso 1 1 calc R U . . .
N2A N 0.4573(7) 0.9617(3) 0.4508(2) 0.0480(8) Uani 0.937(8) 1 d . . P B 1
N2B N 0.529(12) 0.964(5) 0.527(4) 0.055(9) Uani 0.063(8) 1 d . . P B 2
loop_
_atom_site_aniso_label
_atom_site_aniso_U_11
_atom_site_aniso_U_22
_atom_site_aniso_U_33
_atom_site_aniso_U_23
_atom_site_aniso_U_13
_atom_site_aniso_U_12
I1 0.0477(4) 0.0373(4) 0.0372(3) 0.0046(2) 0.0036(2) 0.0042(3)
Cl1 0.091(4) 0.067(3) 0.093(4) 0.000(2) 0.016(2) 0.021(2)
Cl2 0.0615(5) 0.0800(5) 0.0404(3) 0.0239(3) 0.0090(3) -0.0067(3)
Cl3 0.0789(6) 0.0683(5) 0.0565(4) 0.0279(4) 0.0031(3) -0.0056(4)
C1 0.0377(14) 0.0565(15) 0.0370(12) 0.0109(11) -0.0011(9) -0.0013(11)
C2 0.0371(13) 0.0636(16) 0.0344(11) 0.0177(11) 0.0002(9) -0.0052(11)
C3 0.0407(14) 0.0600(15) 0.0400(12) 0.0178(11) -0.0022(10) -0.0028(11)
N1 0.0791(18) 0.0327(10) 0.0615(12) 0.0114(8) 0.0128(11) 0.0054(10)
C4 0.072(2) 0.0417(12) 0.0550(13) 0.0181(10) 0.0117(12) 0.0114(12)
C5 0.0591(17) 0.0383(11) 0.0467(12) 0.0090(9) 0.0092(11) 0.0057(11)
C6 0.0498(15) 0.0331(10) 0.0511(12) 0.0130(8) 0.0130(10) 0.0022(9)
C7 0.0693(19) 0.0412(11) 0.0509(12) 0.0145(9) 0.0034(12) 0.0016(11)
C8 0.079(2) 0.0386(11) 0.0530(14) 0.0081(10) 0.0064(13) -0.0014(12)
N2A 0.0647(17) 0.0363(14) 0.0403(13) 0.0110(9) 0.0032(10) 0.0046(10)
N2B 0.07(2) 0.035(3) 0.054(7) 0.011(3) 0.016(10) 0.004(7)
loop_
_atom_type_symbol
_atom_type_description
_atom_type_scat_dispersion_real
_atom_type_scat_dispersion_imag
_atom_type_scat_source
C C 0.0181 0.0091 'International Tables Vol C Tables 4.2.6.8 and 6.1.1.4'
H H 0.0000 0.0000 'International Tables Vol C Tables 4.2.6.8 and 6.1.1.4'
Cl Cl 0.3639 0.7018 'International Tables Vol C Tables 4.2.6.8 and 6.1.1.4'
I I -0.3257 6.8362 'International Tables Vol C Tables 4.2.6.8 and 6.1.1.4'
N N 0.0311 0.0180 'International Tables Vol C Tables 4.2.6.8 and 6.1.1.4'
loop_
_exptl_crystal_face_index_h
_exptl_crystal_face_index_k
_exptl_crystal_face_index_l
_exptl_crystal_face_perp_dist
0 -1 2 0.0151
-2 3 -3 0.0535
0 4 -8 0.0169
0 6 0 0.0581
2 4 -1 0.0489
0 -6 -1 0.0649
-1 5 2 0.0662
-2 -1 -5 0.0519
loop_
_geom_angle_atom_site_label_1
_geom_angle_atom_site_label_2
_geom_angle_atom_site_label_3
_geom_angle
_geom_angle_site_symmetry_1
_geom_angle_site_symmetry_3
_geom_angle_publ_flag
C2 C1 I1 119.78(19) . . ?
C2 C1 Cl1 121.3(3) . . ?
C2 C1 C3 118.8(2) . 2_777 ?
C3 C1 I1 121.4(2) 2_777 . ?
C3 C1 Cl1 119.9(3) 2_777 . ?
C1 C2 Cl2 119.7(2) . . ?
C3 C2 Cl2 119.5(2) . . ?
C3 C2 C1 120.9(2) . . ?
C1 C3 Cl3 120.2(2) 2_777 . ?
C2 C3 Cl3 119.4(2) . . ?
C2 C3 C1 120.3(3) . 2_777 ?
C8 N1 C4 117.0(2) . . ?
N1 C4 H4 118.2 . . ?
N1 C4 C5 123.6(3) . . ?
C5 C4 H4 118.2 . . ?
C4 C5 H5 121.1 . . ?
C6 C5 C4 117.9(3) . . ?
C6 C5 H5 121.1 . . ?
C5 C6 N2A 125.9(2) . . ?
C5 C6 N2B 88.6(19) . . ?
C7 C6 C5 119.3(2) . . ?
C7 C6 N2A 114.8(2) . . ?
C7 C6 N2B 151.5(19) . . ?
C6 C7 H7 121.0 . . ?
C6 C7 C8 117.9(3) . . ?
C8 C7 H7 121.0 . . ?
N1 C8 C7 124.3(3) . . ?
N1 C8 H8 117.9 . . ?
C7 C8 H8 117.9 . . ?
N2A N2A C6 113.6(3) 2_676 . ?
N2B N2B C6 102(5) 2_676 . ?
loop_
_geom_bond_atom_site_label_1
_geom_bond_atom_site_label_2
_geom_bond_distance
_geom_bond_site_symmetry_2
_geom_bond_publ_flag
I1 C1 1.961(3) . ?
Cl1 C1 1.859(7) . ?
Cl2 C2 1.728(2) . ?
Cl3 C3 1.733(3) . ?
C1 C2 1.393(4) . ?
C1 C3 1.397(4) 2_777 ?
C2 C3 1.391(4) . ?
N1 C4 1.331(4) . ?
N1 C8 1.323(4) . ?
C4 H4 0.9300 . ?
C4 C5 1.389(4) . ?
C5 H5 0.9300 . ?
C5 C6 1.383(4) . ?
C6 C7 1.377(4) . ?
C6 N2A 1.439(4) . ?
C6 N2B 1.54(5) . ?
C7 H7 0.9300 . ?
C7 C8 1.382(4) . ?
C8 H8 0.9300 . ?
N2A N2A 1.222(6) 2_676 ?
N2B N2B 1.22(10) 2_676 ?
loop_
_geom_torsion_atom_site_label_1
_geom_torsion_atom_site_label_2
_geom_torsion_atom_site_label_3
_geom_torsion_atom_site_label_4
_geom_torsion
_geom_torsion_site_symmetry_1
_geom_torsion_site_symmetry_2
_geom_torsion_site_symmetry_3
_geom_torsion_site_symmetry_4
_geom_torsion_publ_flag
I1 C1 C2 Cl2 -0.8(3) . . . . ?
I1 C1 C2 C3 179.66(19) . . . . ?
Cl1 C1 C2 Cl2 -0.4(4) . . . . ?
Cl1 C1 C2 C3 -179.9(3) . . . . ?
Cl2 C2 C3 Cl3 0.1(3) . . . . ?
Cl2 C2 C3 C1 -179.5(2) . . . 2_777 ?
C1 C2 C3 Cl3 179.5(2) . . . . ?
C1 C2 C3 C1 -0.1(4) . . . 2_777 ?
C3 C1 C2 Cl2 179.54(19) 2_777 . . . ?
C3 C1 C2 C3 0.1(4) 2_777 . . . ?
N1 C4 C5 C6 0.2(5) . . . . ?
C4 N1 C8 C7 0.8(5) . . . . ?
C4 C5 C6 C7 0.7(4) . . . . ?
C4 C5 C6 N2A -178.9(3) . . . . ?
C4 C5 C6 N2B 174.6(17) . . . . ?
C5 C6 C7 C8 -0.9(4) . . . . ?
C5 C6 N2A N2A -3.9(5) . . . 2_676 ?
C5 C6 N2B N2B 165(5) . . . 2_676 ?
C6 C7 C8 N1 0.1(5) . . . . ?
C7 C6 N2A N2A 176.5(3) . . . 2_676 ?
C7 C6 N2B N2B -26(8) . . . 2_676 ?
C8 N1 C4 C5 -1.0(5) . . . . ?
N2A C6 C7 C8 178.8(3) . . . . ?
N2B C6 C7 C8 -168(4) . . . . ?
loop_
_exptl_oxdiff_crystal_face_indexfrac_h
_exptl_oxdiff_crystal_face_indexfrac_k
_exptl_oxdiff_crystal_face_indexfrac_l
_exptl_oxdiff_crystal_face_x
_exptl_oxdiff_crystal_face_y
_exptl_oxdiff_crystal_face_z
-0.0000 -0.9988 1.9982 0.2508 0.0021 0.0351
-2.1563 3.4324 -2.8686 -0.5869 0.0159 0.8095
-0.0701 4.1842 -7.7906 -0.9945 0.0254 -0.1014
0.3975 6.1649 0.4210 -0.1822 0.9805 0.0734
2.0801 3.7181 -1.1574 -0.1345 0.7197 -0.6811
-0.0526 -6.1953 -0.6891 0.1785 -0.9612 -0.2105
-1.2454 5.1978 1.5670 -0.1325 0.7165 0.6849
-1.6849 -1.1327 -4.6077 -0.5504 -0.7189 0.4245
