#------------------------------------------------------------------------------
#$Date: 2022-01-06 23:12:42 +0200 (Thu, 06 Jan 2022) $
#$Revision: 271828 $
#$URL: file:///home/coder/svn-repositories/cod/cif/7/24/39/7243952.cif $
#------------------------------------------------------------------------------
#
# This file is available in the Crystallography Open Database (COD),
# http://www.crystallography.net/
#
# All data on this site have been placed in the public domain by the
# contributors.
#
data_7243952
loop_
_publ_author_name
'Shapiro, Nicole M.'
'Bosch, Eric'
'Unruh, Daniel K.'
'Krueger, Herman R.'
'Groeneman, Ryan H.'
_publ_section_title
;
 Iodoperchlorobenzene acts as a dual halogen-bond donor to template a [2 +
 2] cycloaddition reaction within an organic co-crystal
;
_journal_issue                   47
_journal_name_full               CrystEngComm
_journal_page_first              8265
_journal_page_last               8268
_journal_paper_doi               10.1039/D1CE01194D
_journal_volume                  23
_journal_year                    2021
_chemical_formula_moiety         'C6 Cl5 I1'
_chemical_formula_sum            'C6 Cl5 I'
_chemical_formula_weight         376.21
_space_group_crystal_system      monoclinic
_space_group_IT_number           14
_space_group_name_Hall           '-P 2yn'
_space_group_name_H-M_alt        'P 1 21/n 1'
_atom_sites_solution_primary     dual
_audit_creation_date             2021-06-22
_audit_creation_method
;
Olex2 1.3-ac4
(compiled 2020.03.28 svn.rd84adfe8 for Rigaku Oxford Diffraction, GUI svn.r6032)
;
_audit_update_record
;
2021-08-31 deposited with the CCDC.	2021-11-22 downloaded from the CCDC.
;
_cell_angle_alpha                90
_cell_angle_beta                 92.013(2)
_cell_angle_gamma                90
_cell_formula_units_Z            2
_cell_length_a                   8.1229(2)
_cell_length_b                   3.91380(10)
_cell_length_c                   15.0718(4)
_cell_measurement_reflns_used    5231
_cell_measurement_temperature    100.01(10)
_cell_measurement_theta_max      76.7300
_cell_measurement_theta_min      5.7960
_cell_volume                     478.86(2)
_computing_cell_refinement       'CrysAlisPro 1.171.41.104a (Rigaku OD, 2021)'
_computing_data_collection       'CrysAlisPro 1.171.41.104a (Rigaku OD, 2021)'
_computing_data_reduction        'CrysAlisPro 1.171.41.104a (Rigaku OD, 2021)'
_computing_molecular_graphics    'Olex2 1.3-ac4 (Dolomanov et al., 2009)'
_computing_publication_material  'Olex2 1.3-ac4 (Dolomanov et al., 2009)'
_computing_structure_refinement  'XL  (Sheldrick, 2008)'
_computing_structure_solution    'SHELXT 2018/2 (Sheldrick, 2018)'
_diffrn_ambient_environment      N~2~
_diffrn_ambient_temperature      100.01(10)
_diffrn_detector                 'Hybrid Pixel Array Detector'
_diffrn_detector_area_resol_mean 10.0000
_diffrn_detector_type            HyPix
_diffrn_measured_fraction_theta_full 0.999
_diffrn_measured_fraction_theta_max 0.943
_diffrn_measurement_details
;
List of Runs (angles in degrees, time in seconds):

  # Type    Start    End  Width  t~exp~   \w     \q     \k     \f   Frames
#--------------------------------------------------------------------------
  1  \w    -46.00  24.00   0.50    0.34    --  -47.91  43.00-113.00  140
  2  \w   -120.00 -34.00   0.50    0.34    --  -47.91 -43.00  94.00  172
  3  \w     36.00 120.00   0.50    0.34    --   47.91  43.00-113.00  168
  4  \w    -24.00  50.00   0.50    0.34    --   47.91 -43.00  94.00  148
  5  \w   -164.00 -78.00   0.50    1.35    --  -91.75 -43.00  94.00  172
  6  \w    -46.00 -19.00   0.50    1.35    --  -91.75  43.00-113.00   54
  7  \w     94.00 178.00   0.50    1.35    --  107.78  43.00-113.00  168
  8  \w   -119.00 -25.00   0.50    0.34    --  -47.91 -77.00  30.00  188
  9  \w    -24.00  28.00   0.50    0.34    --  -47.91  19.00  30.00  104
 10  \w    -24.00  28.00   0.50    0.34    --  -47.91  19.00-120.00  104
 11  \w   -163.00 -77.00   0.50    1.35    --  -91.75 -56.00 -44.46  172
 12  \w   -163.00 -69.00   0.50    1.35    --  -91.75 -77.00  30.00  188
 13  \w   -163.00 -69.00   0.50    1.35    --  -91.75 -76.00  41.73  188
 14  \w   -163.00 -78.00   0.50    1.35    --  -91.75 -50.00 -20.92  170
 15  \w    -64.00 -19.00   0.50    1.35    --  -91.75  57.00  60.00   90
 16  \w   -163.00 -77.00   0.50    1.35    --  -91.75 -54.00  -6.62  172
 17  \w   -163.00 -77.00   0.50    1.35    --  -91.75 -55.00 -38.84  172
 18  \w   -103.00 -19.00   0.50    1.35    --  -91.75  77.00  90.00  168
 19  \w   -163.00 -69.00   0.50    1.35    --  -91.75 -77.00   0.00  188
 20  \w   -163.00 -77.00   0.50    1.35    --  -91.75 -57.00  60.00  172
 21  \w    -64.00 -19.00   0.50    1.35    --  -91.75  57.00  90.00   90
 22  \w    -64.00 -19.00   0.50    1.35    --  -91.75  57.00   0.00   90
 23  \w   -163.00 -76.00   0.50    1.35    --  -91.75 -60.00 -11.47  174
 24  \w     35.00  68.00   0.50    1.35    --  107.78 -57.00 -60.00   66
 25  \w     35.00  68.00   0.50    1.35    --  107.78 -57.00  90.00   66
 26  \w     35.00 106.00   0.50    1.35    --  107.78 -99.00-180.00  142
 27  \w     35.00 106.00   0.50    1.35    --  107.78 -99.00 150.00  142
 28  \w     35.00 106.00   0.50    1.35    --  107.78 -99.00 -90.00  142
 29  \w     35.00 107.00   0.50    1.35    --  107.78 -77.00-180.00  144
 30  \w   -119.00 -73.00   0.50    0.34    --  -47.91-125.00-180.00   92
 31  \w   -119.00 -33.00   0.50    0.34    --  -47.91 -57.00-120.00  172
 32  \w   -119.00 -33.00   0.50    0.34    --  -47.91 -57.00  90.00  172
 33  \w     25.00 121.00   0.50    0.34    --   47.91  77.00 -60.00  192
 34  \w     25.00 121.00   0.50    0.34    --   47.91  77.00 150.00  192
 35  \w   -163.00-132.00   0.50    1.35    --  -91.75 -73.00 161.00   62
 36  \w     95.00 178.00   0.50    1.35    --  107.78  19.00-180.00  166
;
_diffrn_measurement_device       'four-circle diffractometer'
_diffrn_measurement_device_type  'XtaLAB Synergy, Dualflex, HyPix'
_diffrn_measurement_method       '\w scans'
_diffrn_orient_matrix_type
'CrysAlisPro convention (1999,Acta A55,543-557)'
_diffrn_orient_matrix_UB_11      -0.1369145000
_diffrn_orient_matrix_UB_12      -0.2096482000
_diffrn_orient_matrix_UB_13      -0.0478673000
_diffrn_orient_matrix_UB_21      0.0896060000
_diffrn_orient_matrix_UB_22      0.0357145000
_diffrn_orient_matrix_UB_23      -0.0879417000
_diffrn_orient_matrix_UB_31      0.0961285000
_diffrn_orient_matrix_UB_32      -0.3312422000
_diffrn_orient_matrix_UB_33      0.0208488000
_diffrn_radiation_monochromator  mirror
_diffrn_radiation_probe          x-ray
_diffrn_radiation_type           'Cu K\a'
_diffrn_radiation_wavelength     1.54184
_diffrn_reflns_av_R_equivalents  0.0437
_diffrn_reflns_av_unetI/netI     0.0253
_diffrn_reflns_Laue_measured_fraction_full 0.999
_diffrn_reflns_Laue_measured_fraction_max 0.943
_diffrn_reflns_limit_h_max       10
_diffrn_reflns_limit_h_min       -9
_diffrn_reflns_limit_k_max       4
_diffrn_reflns_limit_k_min       -4
_diffrn_reflns_limit_l_max       18
_diffrn_reflns_limit_l_min       -19
_diffrn_reflns_number            6562
_diffrn_reflns_point_group_measured_fraction_full 0.999
_diffrn_reflns_point_group_measured_fraction_max 0.943
_diffrn_reflns_theta_full        67.684
_diffrn_reflns_theta_max         76.974
_diffrn_reflns_theta_min         5.875
_diffrn_source                   'micro-focus sealed X-ray tube'
_diffrn_source_type              'PhotonJet (Cu) X-ray Source'
_exptl_absorpt_coefficient_mu    38.608
_exptl_absorpt_correction_T_max  0.535
_exptl_absorpt_correction_T_min  0.168
_exptl_absorpt_correction_type   gaussian
_exptl_absorpt_process_details
;
CrysAlisPro 1.171.41.104a (Rigaku Oxford Diffraction, 2021)
Numerical absorption correction based on gaussian integration over
a multifaceted crystal model
Empirical absorption correction using spherical harmonics,
implemented in SCALE3 ABSPACK scaling algorithm.
;
_exptl_crystal_colour            'clear colourless'
_exptl_crystal_colour_lustre     clear
_exptl_crystal_colour_primary    colourless
_exptl_crystal_density_diffrn    2.609
_exptl_crystal_description       irregular
_exptl_crystal_F_000             348
_exptl_crystal_recrystallization_method
'Re-crystallisation from solvent: Toluene'
_exptl_crystal_size_max          0.084
_exptl_crystal_size_mid          0.039
_exptl_crystal_size_min          0.031
_refine_diff_density_max         0.412
_refine_diff_density_min         -0.399
_refine_diff_density_rms         0.095
_refine_ls_extinction_coef       0.0013(2)
_refine_ls_extinction_expression Fc^*^=kFc[1+0.001xFc^2^\l^3^/sin(2\q)]^-1/4^
_refine_ls_extinction_method     'SHELXL-2018/3 (Sheldrick 2018)'
_refine_ls_goodness_of_fit_ref   1.112
_refine_ls_hydrogen_treatment    undef
_refine_ls_matrix_type           full
_refine_ls_number_parameters     76
_refine_ls_number_reflns         946
_refine_ls_number_restraints     44
_refine_ls_restrained_S_all      1.099
_refine_ls_R_factor_all          0.0280
_refine_ls_R_factor_gt           0.0260
_refine_ls_shift/su_max          0.000
_refine_ls_shift/su_mean         0.000
_refine_ls_structure_factor_coef Fsqd
_refine_ls_weighting_details
'w=1/[\s^2^(Fo^2^)+(0.0298P)^2^+0.7779P] where P=(Fo^2^+2Fc^2^)/3'
_refine_ls_weighting_scheme      calc
_refine_ls_wR_factor_gt          0.0663
_refine_ls_wR_factor_ref         0.0674
_reflns_Friedel_coverage         0.000
_reflns_number_gt                892
_reflns_number_total             946
_reflns_threshold_expression     'I > 2\s(I)'
_cod_data_source_file            d1ce01194d2.cif
_cod_data_source_block           C6ICl5
_cod_depositor_comments
'Adding full bibliography for 7243952--7243955.cif.'
_cod_database_code               7243952
_shelx_shelxl_version_number     2018/3
_chemical_oxdiff_formula         'C12  Cl10  I2  '
_chemical_oxdiff_usercomment     'vial 4'
_shelx_space_group_comment
;
The symmetry employed for this shelxl refinement is uniquely defined
by the following loop, which should always be used as a source of
symmetry information in preference to the above space-group names.
They are only intended as comments.
;
_shelx_estimated_absorpt_t_max   0.381
_shelx_estimated_absorpt_t_min   0.140
_reflns_odcompleteness_completeness 99.60
_reflns_odcompleteness_iscentric 1
_reflns_odcompleteness_theta     66.97
_olex2_refinement_description
;
1. Restrained distances
 C1-Cl3 = C3-Cl2 = C2-Cl1
 1.74392 with sigma of 0.02
 C1-I1 = C2-I2 = C3-I3
 1.93416 with sigma of 0.02
2. Uiso/Uaniso restraints and constraints
Uanis(Cl1) = Uanis(I2)
Uanis(Cl2) = Uanis(I3)
3. Rigid body (RIGU) restrains
 C1, C2, C3, I1, I2, I3, Cl1, Cl2, Cl3
 with sigma for 1-2 distances of 0.001 and sigma for 1-3 distances of 0.001
4. Others
 1*[Sof(I1)+Sof(Cl3)]+1*[Sof(Cl1)+Sof(I2)]+1*[Sof(Cl2)+Sof(I3)]=0.5 with esd
 of 0
 Sof(Cl3)=1-FVAR(1)
 Sof(I1)=FVAR(1)
 Sof(Cl1)=1-FVAR(2)
 Sof(I2)=FVAR(2)
 Sof(Cl2)=1-FVAR(3)
 Sof(I3)=FVAR(3)
;
_shelx_res_file
;
TITL gro21_23_auto_a.res in P2(1)/n
    gro21_23_auto.res
    created by SHELXL-2018/3 at 16:25:37 on 25-Aug-2021
REM Old TITL gro21_23_auto in P2(1)/n
REM SHELXT solution in P2(1)/n: R1 0.170, Rweak 0.030, Alpha 0.020
REM <I/s> 0.436 for 147 systematic absences, Orientation as input
REM Formula found by SHELXT: C3 Cl3
REM SUMP 0.5 0 1 2 1 3 1 4
CELL 1.54184 8.1229 3.9138 15.0718 90 92.013 90
ZERR 2 0.0002 0.0001 0.0004 0 0.002 0
LATT 1
SYMM 0.5-X,0.5+Y,0.5-Z
SFAC C Cl I
UNIT 12 10 2
RIGU 0.001 0.001 C1 C2 C3 I1 I2 I3 Cl1 Cl2 Cl3
DFIX 51 C1 Cl3 C3 Cl2 C2 Cl1
DFIX 61 C1 I1 C2 I2 C3 I3
EADP Cl1 I2
EADP Cl2 I3
SUMP 0.5 0 1 2 1 3 1 4

L.S. 10
PLAN  1
SIZE 0.031 0.039 0.084
TEMP -173
CONF
list 4
MORE -1
fmap 2 53
acta
REM <olex2.extras>
REM <HklSrc "%.\\gro21_23_auto.hkl">
REM </olex2.extras>

WGHT    0.029800    0.777900
EXTI    0.001324
FVAR       0.56075   0.37440   0.07202   0.05357   1.74392   1.93416
PART 1
I1    3    0.783574    0.161188    0.644689    21.00000    0.02220    0.02772 =
         0.02330    0.00112   -0.00605    0.00242
CL1   2    0.415637    0.394320    0.699224   -31.00000    0.03320    0.05124 =
         0.02678   -0.00301    0.00529   -0.00603
CL2   2    0.839802    0.257740    0.432426   -41.00000    0.02302    0.04687 =
         0.03849   -0.01131    0.00302   -0.00124
PART 2
CL3   2    0.759419    0.153631    0.633231   -21.00000    0.02650    0.03310 =
         0.03121    0.00059   -0.01469    0.00026
I2    3    0.405604    0.382775    0.708562    31.00000    0.03320    0.05124 =
         0.02678   -0.00301    0.00529   -0.00603
I3    3    0.862611    0.253954    0.429940    41.00000    0.02302    0.04687 =
         0.03849   -0.01131    0.00302   -0.00124
PART 0
C1    1    0.615388    0.350426    0.558784    11.00000    0.02621    0.02663 =
         0.03066   -0.00575   -0.00356   -0.00479
C2    1    0.463151    0.454575    0.588956    11.00000    0.02698    0.02883 =
         0.02969   -0.00819   -0.00041   -0.00753
C3    1    0.652232    0.394206    0.469798    11.00000    0.02413    0.02868 =
         0.03224   -0.00694   -0.00145   -0.00654
HKLF 4




REM  gro21_23_auto_a.res in P2(1)/n
REM wR2 = 0.067420, GooF = S = 1.11209, Restrained GooF = 1.09905 for all data
REM R1 = 0.025969 for 892 Fo > 4sig(Fo) and 0.028049 for all 946 data
REM 76 parameters refined using 44 restraints

END

WGHT      0.0298      0.7780

REM Highest difference peak  0.412,  deepest hole -0.399,  1-sigma level  0.095
Q1    1   0.7687  0.5208  0.6398  11.00000  0.05    0.41
;
_shelx_res_checksum              59519
_shelx_hkl_file
;
   0   0   1    0.69    1.25
   0   0   1   -0.35    1.15
   0   0  -1   -0.26    0.60
   0   0   2   43.45    3.13
   0   0   2   37.48    4.26
   0   0  -2   38.86    3.07
   0   0   2   37.11    4.04
   0   0   2   28.95    4.06
   0   0  -2   45.67    7.48
   0   0   3    0.51    3.01
   0   0   3    0.62    1.34
   0   0   3    1.71    3.39
   0   0   4 1644.25   78.82
   0   0   4 1812.64   83.27
   0   0   4 1741.07   80.89
   0   0   4 1738.06   82.96
   0   0   5    3.36    4.55
   0   0   5   -0.90    1.70
   0   0  -5    4.52    3.59
   0   0   5    0.84    3.53
   0   0  -5    5.17    6.69
   0   0   5   -1.11    3.99
   0   0  -6   21.72    7.88
   0   0  -6   26.36    5.93
   0   0   6   14.14    5.37
   0   0   6   22.00    5.12
   0   0   6   15.71    2.78
   0   0   6   11.19    4.99
   0   0   7    5.07    4.20
   0   0   7    1.19    3.92
   0   0  -7    1.07    3.55
   0   0   8  367.34   23.09
   0   0   8  360.20   19.14
   0   0   8  376.78   19.28
   0   0  -8  338.72   25.69
   0   0  -9    4.28    3.92
   0   0   9    0.33    2.89
   0   0   9    4.58    2.80
   0   0   9    3.17    4.11
   0   0  10  286.12   16.15
   0   0  10  302.06   26.87
   0   0  10  279.33   16.35
   0   0  11   -1.61    4.42
   0   0 -11    1.64    2.71
   0   0  11    3.95    2.66
   0   0 -11   -5.37    5.91
   0   0  11    0.40    2.54
   0   0  12  261.61   15.78
   0   0  12  240.29   22.84
   0   0 -12  259.25   24.60
   0   0  12  245.38   15.04
   0   0 -13    4.08    5.91
   0   0  13    0.43    2.98
   0   0  13    2.00    2.93
   0   0  13   -7.41    5.63
   0   0 -14 1287.97   62.98
   0   0  14 1311.18   62.87
   0   0  14 1311.34   74.61
   0   0 -14 1237.94   74.95
   0   0  15    2.81    2.45
   0   0 -15   -0.96    3.20
   0   0  15    1.86    2.62
   0   0  16   28.68    4.30
   0   0 -16   25.87    4.37
   0   0  16   28.39    3.62
   0   0  17    1.30    1.90
   0   0 -17    0.33    2.23
   0   0 -18  363.49   18.65
   0   0 -19    0.92    1.07
   0  -1   0    3.60    2.98
   0   1   0   -0.72    1.14
   0  -1   0   -0.51    1.93
   0   1   1  133.03    7.59
   0   1  -1  133.63    6.75
   0  -1   1  138.11    8.40
   0   1   1  131.48    6.57
   0  -1  -1  124.50    6.71
   0   1   1  145.91    7.95
   0  -1   1  135.15    6.56
   0  -1   2 1447.62   73.76
   0   1   2 1502.13   74.59
   0   1   2 1447.59   70.73
   0  -1  -2 1487.96   69.90
   0   1  -2 1585.85   69.91
   0  -1   3  170.71   13.22
   0  -1  -3  154.71   10.97
   0   1   3  146.74   11.14
   0   1  -3  153.83   10.62
   0   1   4 3044.00  147.74
   0   1  -4 3240.28  147.12
   0  -1   4 3124.89  149.36
   0  -1  -4 3095.10  147.37
   0  -1  -4 3323.58  151.42
   0   1  -5  486.21   29.60
   0   1   5  550.12   31.31
   0  -1  -5  520.92   30.52
   0  -1  -5  572.71   35.64
   0   1   5  512.27   32.54
   0  -1   5  505.01   30.95
   0   1   6  747.02   43.77
   0  -1   6  747.74   41.91
   0  -1  -6  805.81   49.10
   0   1   6  760.17   42.66
   0   1  -6  759.00   41.63
   0  -1  -6  673.84   41.34
   0  -1  -7 1767.60   91.15
   0   1   7 1762.55   83.20
   0   1   7 1851.99   92.87
   0  -1  -7 1847.56  100.36
   0  -1   7 1801.98   83.02
   0   1   7 1770.60   91.41
   0   1  -7 1842.39   90.63
   0  -1   7 1730.32   89.47
   0   1  -7 1857.44   97.89
   0  -1   8  227.07   13.02
   0   1   8  259.28   21.45
   0   1   8  223.12   13.33
   0   1   8  223.70   12.94
   0  -1   8  215.31   13.04
   0  -1  -8  239.81   25.79
   0  -1   9   33.60    4.35
   0  -1   9   31.60    4.01
   0   1  -9   41.83   11.35
   0   1   9   31.04    4.13
   0  -1  -9   44.09   12.16
   0   1   9   26.54    8.20
   0  -1  -9   28.71    4.31
   0   1   9   37.27    7.57
   0   1   9   26.51    4.55
   0  -1   9   24.43    6.72
   0  -1 -10  566.49   43.89
   0  -1  10  604.48   38.39
   0  -1 -10  543.27   28.52
   0   1 -10  574.68   38.74
   0  -1  10  553.38   28.62
   0   1 -10  511.63   42.41
   0   1  10  557.92   29.35
   0   1  10  560.37   38.42
   0   1  10  637.12   38.32
   0  -1  10  578.35   29.36
   0   1  10  590.45   29.23
   0   1  10  533.58   39.05
   0  -1 -10  622.71   39.76
   0  -1 -11  321.72   28.50
   0   1  11  361.05   19.94
   0   1  11  369.23   28.07
   0   1 -11  345.36   33.43
   0  -1  11  363.57   20.06
   0  -1 -11  350.53   19.03
   0   1  11  314.75   26.89
   0   1  11  340.31   19.28
   0  -1 -11  337.23   32.32
   0  -1  11  354.72   27.89
   0   1  11  377.68   20.05
   0   1 -11  357.47   28.81
   0  -1  12   50.81    5.89
   0  -1 -12   44.98    9.90
   0   1  12   53.46    5.95
   0   1 -12   36.63    9.10
   0  -1  12   42.08    9.62
   0  -1  12   43.12    5.61
   0   1  12   73.43   11.39
   0  -1 -12   51.74   12.14
   0   1  12   47.59    5.53
   0  -1 -12   55.80    5.03
   0   1 -13  182.74   19.71
   0   1  13  166.82   18.56
   0  -1  13  178.24   11.81
   0  -1  13  156.15   18.03
   0  -1 -13  165.21   20.50
   0   1 -13  108.17   18.47
   0   1 -13  167.30   11.77
   0  -1 -13  158.38   18.99
   0   1  13  181.04   11.81
   0  -1 -13  166.95   11.94
   0   1  13  158.76   10.85
   0  -1 -13  162.63   11.76
   0  -1 -14   45.87    5.82
   0   1  14   48.45    5.68
   0   1 -14   52.41    5.99
   0  -1  14   55.11    6.03
   0   1  14   55.33    5.13
   0   1  14   53.35    6.01
   0   1 -15   -0.85    3.02
   0  -1 -15    1.69    2.89
   0   1  15   -1.22    2.47
   0  -1  15    2.91    2.72
   0  -1  16  196.22   12.70
   0   1 -16  232.39   13.16
   0   1  16  223.85   12.87
   0  -1 -16  215.52   12.94
   0   1  16  215.90   12.97
   0  -1 -17    4.65    2.24
   0   1  17    6.09    2.26
   0   1 -17    4.45    2.18
   0  -1  18  150.57    8.36
   0  -2   0  822.11   38.33
   0   2   0  779.84   47.55
   0  -2   0  787.85   38.36
   0  -2   0  844.16   41.32
   0  -2  -1   50.84    4.37
   0  -2  -1   64.01    6.52
   0  -2   1   42.75    5.50
   0   2  -1   41.79    8.75
   0  -2   1   48.80    4.49
   0  -2  -1   61.05    5.02
   0  -2  -1   51.57    4.38
   0  -2   1   53.50    4.28
   0   2   1   52.00   11.05
   0   2  -2  129.20   12.87
   0  -2   2  140.29    8.60
   0   2   2  148.47   16.59
   0  -2   2  133.54    8.17
   0  -2  -2  154.68   11.34
   0  -2  -2  135.26    8.83
   0  -2  -3  653.43   33.33
   0   2   3  705.11   34.86
   0  -2   3  714.50   32.66
   0  -2   3  636.40   33.24
   0  -2   3  695.02   32.84
   0   2   3  741.35   45.47
   0   2  -3  589.05   36.58
   0  -2   4  267.41   13.80
   0   2   4  261.43   16.72
   0  -2   4  244.94   13.66
   0  -2  -4  252.07   14.33
   0  -2  -4  239.62   14.31
   0   2   4  234.90   23.44
   0  -2   4  232.59   14.24
   0  -2   5 1070.99   49.59
   0   2   5 1012.88   53.35
   0  -2  -5  954.26   49.03
   0  -2   5 1071.01   48.87
   0  -2   5 1073.13   48.66
   0  -2  -5  973.57   49.21
   0   2   5  970.42   48.65
   0   2   5 1075.44   63.05
   0  -2   6   21.81    3.64
   0   2   6   18.13    5.07
   0   2   6   23.08    4.01
   0  -2  -6   19.19    3.96
   0  -2   6   26.18    3.56
   0  -2  -6   20.50    3.70
   0   2   7   77.16    6.97
   0   2   7   90.38   11.32
   0  -2  -7   81.02    7.25
   0  -2  -7   81.38    7.04
   0  -2  -7   73.89    7.08
   0  -2  -8    6.82    3.76
   0   2   8   13.84    8.97
   0  -2   8    9.64    3.21
   0   2   8   12.58    3.87
   0  -2  -8    8.07    3.42
   0  -2  -8   11.00    3.15
   0   2   8    5.90    5.25
   0  -2  -9 1583.31   80.15
   0  -2   9 1625.33   83.85
   0   2   9 1760.46   90.90
   0   2   9 1716.77   79.98
   0   2   9 1798.25   97.34
   0  -2   9 1698.49   80.32
   0   2  -9 1609.86  101.49
   0  -2  -9 1639.69   79.20
   0  -2  -9 1698.01   80.14
   0  -2   9 1797.06   80.65
   0   2  10  395.57   30.84
   0   2 -10  392.77   39.01
   0  -2 -10  374.92   21.90
   0  -2  10  431.28   23.71
   0   2  10  405.03   34.36
   0   2  10  391.66   22.24
   0  -2 -11  251.24   15.65
   0   2  11  269.97   26.42
   0   2  11  259.54   16.12
   0   2  11  253.96   24.07
   0   2  11  274.49   16.90
   0  -2 -12    5.37    2.80
   0   2  12   12.54    4.70
   0   2 -12    6.22    7.54
   0   2  12   10.59    3.97
   0   2  12    5.29    3.70
   0   2  12   10.30    3.85
   0   2  12    5.09    4.02
   0  -2  13   22.64    9.93
   0   2  13   28.94    4.57
   0   2  13   16.87    3.95
   0  -2 -13   24.10    3.50
   0  -2  13   16.20    4.84
   0   2  13   25.65    4.71
   0  -2  14  242.46   14.89
   0   2  14  235.91   14.47
   0  -2  14  260.84   15.62
   0  -2 -15  132.06    8.27
   0   2  15  124.47    8.59
   0   2  15  123.67    8.37
   0   2  16   23.19    3.11
   0  -2  16   22.60    3.07
   0  -2 -16   20.63    2.60
   0  -2  17   12.40    1.78
   0  -3   0   -0.37    2.53
   0  -3   0   -1.72    3.73
   0   3   0    2.15    6.22
   0  -3   1  145.49   10.62
   0  -3   1  149.23   11.00
   0  -3   1  144.99    9.90
   0  -3  -1  143.70   11.13
   0  -3  -1  148.10   10.71
   0  -3   1  170.68   10.34
   0  -3   1  164.43   11.18
   0  -3  -1  156.77   10.04
   0  -3  -1  155.39   10.34
   0   3   1  165.68   20.75
   0   3   2  500.56   42.05
   0  -3  -2  525.53   26.73
   0  -3   2  509.77   26.29
   0  -3   2  490.74   26.41
   0  -3   2  494.73   27.26
   0  -3   2  517.05   27.04
   0  -3  -2  499.42   28.81
   0  -3  -2  502.38   27.80
   0  -3   3  466.76   27.11
   0  -3   3  524.49   27.23
   0  -3   3  522.98   26.99
   0  -3  -3  568.87   27.81
   0   3   3  437.25   41.94
   0  -3   3  601.16   29.66
   0  -3  -3  520.14   28.60
   0  -3   3  467.72   26.94
   0  -3  -4    1.24    3.81
   0  -3   4    0.91    3.45
   0  -3   4    4.53    2.49
   0   3   4   -2.93    9.67
   0  -3   4    6.38   12.14
   0  -3   4    6.00    2.90
   0  -3   5  154.35   18.92
   0  -3   5  153.44   10.63
   0   3   5  128.43   20.97
   0  -3  -5  158.76   11.99
   0  -3  -5  131.71   11.29
   0  -3  -6  132.56   10.74
   0  -3   6  115.63    9.38
   0  -3  -6  120.25   10.58
   0  -3   6  132.40   19.81
   0   3   6  111.01   19.99
   0  -3   7  882.80   49.10
   0  -3   7  970.41   46.75
   0  -3  -7  897.67   46.32
   0  -3   7  826.31   45.04
   0  -3  -7  909.60   46.73
   0  -3  -7  936.46   46.05
   0   3   7  872.82   63.28
   0  -3  -8   96.74    9.38
   0  -3   8  109.12   10.31
   0   3   8   75.81   16.84
   0  -3  -8   96.69    9.79
   0  -3  -8  101.12    8.90
   0   3   8  100.90    9.91
   0  -3  -9   12.08    4.24
   0   3   9   13.77    3.54
   0  -3   9   14.73   15.67
   0   3   9    9.44    4.48
   0  -3  -9   10.11    3.25
   0  -3  -9   14.83    5.15
   0  -3   9    7.41    4.97
   0  -3  10   44.29    7.00
   0  -3 -10   74.70    7.96
   0  -3 -10   54.87    5.48
   0   3  10   53.18    7.15
   0   3  10   63.73    7.32
   0  -3  10   59.91   13.85
   0  -3 -10   61.90    6.53
   0  -3  11  249.82   16.61
   0  -3  11  266.92   19.02
   0   3  11  224.27   15.34
   0  -3 -11  253.73   15.69
   0  -3 -11  238.53   14.85
   0   3  11  276.11   15.93
   0   3  12   30.59    4.09
   0  -3 -12   36.33    4.50
   0  -3 -12   22.71    3.61
   0   3  12   26.26    4.31
   0  -3  12   37.00    5.15
   0  -3 -13   75.89    5.83
   0   3  13   72.83    5.97
   0   3  13   68.77    6.13
   0   3  13   77.05    5.51
   0   3  14   54.90    4.58
   0  -3 -14   53.67    4.16
   0  -4   0  196.23   13.97
   0  -4   0  207.14   12.90
   0  -4   1  233.89   15.18
   0  -4   1  218.89   13.98
   0  -4   1  231.32   15.24
   0  -4  -1  210.23   14.67
   0  -4   1  218.55   26.73
   0  -4  -2   97.70    9.91
   0   4   2   86.71    8.71
   0  -4   2  100.39    9.25
   0  -4   2  111.93    8.49
   0  -4   2  114.71   24.15
   0   4   3   41.25    6.17
   0  -4   3   28.07    5.68
   0  -4  -3   40.23    6.48
   0  -4   3   29.09    4.57
   0  -4  -3   45.07    5.74
   0  -4   4   35.06    4.83
   0  -4  -4   38.10    5.89
   0  -4   4   30.08    5.39
   0   4   4   43.84    6.88
   0  -4  -4   25.53    5.60
   0  -4  -5  196.95   13.63
   0  -4  -5  180.14   13.84
   0   4   5  201.49   14.29
   0  -4  -6  150.79   12.16
   0   4   6  183.61   13.32
   0  -4  -6  172.49   12.69
   0  -4  -7    1.62    2.55
   0   4   7   10.01    4.33
   0   4   7    3.31    3.83
   0   4   8   64.25    6.41
   0   4   8   66.99    6.35
   0  -4  -8   49.71    5.08
   0   4   9   23.59    3.78
   0   4   9   25.29    3.95
   1   0 -19   32.57    2.73
  -1   0  18    1.59    1.52
   1   0 -17   75.39    6.16
  -1   0  17   63.45    5.74
  -1   0  16   -1.18    2.65
   1   0 -16    0.42    2.80
  -1   0  15  137.99    9.93
   1   0 -15  134.83   10.33
  -1   0  14    1.83    5.03
   1   0 -14   -2.06    7.06
  -1   0  14    1.47    2.62
  -1   0  14    1.92    2.67
   1   0 -14   -2.59    3.67
  -1   0  13  693.72   35.67
   1   0 -13  726.57   36.96
   1   0 -13  637.15   48.33
  -1   0  13  750.77   47.57
  -1   0  13  749.28   36.77
   1   0 -13  645.48   47.26
   1   0 -12    1.53    3.07
   1   0 -12    2.01    5.52
  -1   0  12   -0.41    2.96
  -1   0  12   -0.49    2.89
   1   0 -12   11.22    6.82
   1   0 -11    4.88    2.51
  -1   0  11    6.32    3.22
  -1   0  11    5.04    2.70
   1   0 -11    3.74    4.54
   1   0 -11    2.40    2.99
   1   0 -10    0.37    2.08
   1   0 -10    4.01    6.62
  -1   0  10   -0.83    2.53
   1   0 -10   -5.06    5.78
   1   0 -10    1.33    1.97
  -1   0  10   -1.81    3.06
   1   0  -9 3805.46  185.19
   1   0  -9 3672.88  174.05
  -1   0   9 3814.19  174.28
   1   0  -9 3741.07  174.47
   1   0  -9 4029.07  189.21
  -1   0   9 4026.46  174.82
  -1   0   9 4042.99  187.94
  -1   0   8    1.16    1.98
  -1   0   8    1.34    3.41
   1   0  -8   -1.31    3.79
  -1   0   8   -0.99    2.48
   1   0  -7 1310.23   70.02
  -1   0   7 1232.13   61.02
  -1   0   7 1243.11   61.64
   1   0  -7 1258.69   66.05
  -1   0   7 1197.30   66.84
   1   0  -6    2.78    6.74
  -1   0   6    1.15    1.97
  -1   0   6    1.06    3.63
   1   0  -6   -1.91    3.50
   1   0  -5 1409.07   70.42
  -1   0   5 1415.22   71.38
  -1   0   4    4.64    3.27
   1   0  -4    4.08    6.47
  -1   0   3   44.99    5.60
   1   0  -3   31.35    7.50
  -1   0   2    3.12    2.43
  -1   0   2   -0.34    1.92
  -1   0   1  596.62   28.80
  -1   0   1  627.94   29.62
  -1   0   0   -1.04    1.16
   1   0   0    0.39    1.66
   1   0   0    1.28    2.36
  -1   0  -1   42.12    4.14
   1   0   1   43.37    3.76
   1   0   2    1.67    2.04
  -1   0  -2   -1.09    4.10
  -1   0  -2   -0.64    2.07
   1   0   3  571.10   30.16
   1   0   3  634.50   32.20
   1   0   4    0.68    5.31
  -1   0  -4   -1.82    2.70
   1   0   4   -1.60    3.04
   1   0   5 9526.49  428.09
  -1   0  -5 9337.01  425.36
  -1   0  -5 8940.33  427.47
   1   0   5 9784.67  427.24
   1   0   6   -1.68    3.61
  -1   0  -6    1.50    6.74
   1   0   6    4.40    5.34
  -1   0  -6   -0.57    2.28
   1   0   7   17.36    5.73
  -1   0  -7   28.35    8.42
  -1   0  -7   26.84    6.46
  -1   0  -7   21.80    4.18
   1   0   7   37.73    6.81
   1   0   7   16.81    2.97
  -1   0  -8    1.29    3.55
   1   0   8   -2.06    4.72
   1   0   8    3.75    2.89
   1   0   8    0.64    2.33
   1   0   8    3.46    3.80
  -1   0  -8    3.63    5.75
   1   0   9 1443.34   69.40
  -1   0  -9 1489.50   79.36
   1   0   9 1556.45   69.18
   1   0   9 1418.97   69.22
   1   0   9 1462.12   77.92
  -1   0  -9 1436.99   82.75
   1   0  10    5.95    4.31
   1   0  10    0.39    2.81
  -1   0 -10   -1.66    5.03
   1   0  10   -2.68    3.13
   1   0  10   -0.41    2.71
  -1   0 -11  314.15   30.46
   1   0  11  360.99   28.19
   1   0  11  351.87   20.02
  -1   0 -11  394.43   30.25
   1   0  11  355.99   19.81
   1   0  12    1.78    4.32
  -1   0 -12   -2.33    4.78
   1   0  12    0.48    3.00
  -1   0 -13   16.43    7.56
   1   0  13   14.18    3.81
   1   0  13   15.11    3.70
   1   0  13   28.01    8.58
   1   0  14    3.74    5.68
  -1   0 -14    2.04    5.62
   1   0  14    3.51    3.22
   1   0  14    2.12    2.69
   1   0  14    1.66    3.40
   1   0  15   71.10    6.30
   1   0  15   69.94    6.84
  -1   0 -15   58.34    6.73
   1   0  16    1.21    2.13
  -1   0 -16   -1.23    3.04
  -1   0 -17   59.07    5.55
  -1   0 -18   -1.35    2.00
   1   0  18   -0.93    1.34
   1  -1 -18    1.54    1.32
   1   1 -18    0.16    1.39
  -1  -1  17   54.88    5.03
  -1   1  17   58.92    5.13
   1  -1 -16  174.69   11.14
  -1  -1  16  182.28   10.99
  -1   1  16  170.00   10.95
   1   1 -16  182.17   11.22
  -1   1  15  226.81   13.42
  -1   1  15  211.79   13.30
   1  -1 -15  209.74   13.50
   1   1 -15  213.09   13.43
  -1  -1  15  214.02   13.31
   1   1 -14   56.79    6.21
  -1   1  14   59.60    6.18
   1  -1 -14   54.86    4.92
  -1  -1  14   52.04    5.67
  -1   1  14   43.81    5.43
   1  -1 -14   49.71    6.14
   1   1 -13  745.21   37.67
  -1  -1  13  781.16   37.63
  -1   1  13  808.17   48.26
   1  -1 -13  727.14   36.25
   1  -1 -13  658.98   48.31
   1  -1 -13  736.06   37.91
  -1   1  13  737.35   37.24
  -1   1  13  718.83   36.22
   1   1 -13  669.31   47.85
  -1  -1  13  725.79   47.58
   1   1 -13  708.01   52.56
   1  -1 -13  630.42   48.95
  -1   1  13  742.34   37.49
   1  -1 -12    6.08    4.91
  -1   1  12    0.93    2.55
   1  -1 -12   -2.36    5.71
   1   1 -12    1.97    5.10
  -1  -1  12    1.77    4.58
  -1   1  12   -1.70    4.41
   1   1 -12    1.00    3.32
  -1  -1  12    4.78    2.80
  -1   1  12    3.15    3.17
   1  -1 -12    5.13    3.39
   1  -1 -11  498.01   28.12
   1  -1 -11  526.35   28.62
  -1  -1  11  542.70   27.72
  -1   1  11  505.59   35.71
  -1   1  11  531.50   28.01
   1   1 -11  527.62   38.31
  -1  -1  11  579.64   28.43
   1  -1 -11  546.82   41.73
   1  -1 -11  494.52   37.87
   1   1 -11  532.41   28.48
  -1   1  10    1.90    4.27
   1   1 -10   -0.44    2.95
   1  -1 -10   -2.35    7.77
  -1  -1  10    1.26    2.47
   1   1 -10   -1.72    4.72
  -1   1  10    1.65    2.57
   1  -1 -10   -0.63    1.93
  -1  -1  10    3.68    4.46
   1  -1 -10   -0.93    3.12
  -1   1  10   -3.13    6.25
   1  -1 -10   -1.80    5.22
  -1  -1  10    0.39    2.11
  -1  -1   9   19.41    3.17
  -1  -1   9    7.44    3.44
   1  -1  -9    6.53    5.41
   1  -1  -9    7.15    3.13
   1  -1  -9   16.21    8.23
  -1   1   9   10.43    3.05
  -1   1   9    1.53    5.44
  -1  -1   9   13.00    3.23
   1  -1  -9   10.66    2.49
  -1   1   9    6.85    4.98
  -1   1   8  405.61   29.57
  -1   1   8  412.22   21.41
   1   1  -8  374.15   21.66
   1  -1  -8  405.60   29.72
  -1   1   8  461.40   31.08
  -1  -1   8  410.83   30.30
   1  -1  -8  433.60   22.48
   1  -1  -8  388.04   21.02
  -1  -1   8  395.77   21.38
  -1   1   8  410.10   29.96
  -1  -1   8  433.99   21.47
   1   1  -8  398.32   28.59
  -1  -1   7  132.73   14.54
  -1  -1   7  125.08    8.50
   1   1  -7  134.45   13.59
   1  -1  -7  120.40   13.75
  -1   1   7  130.21   14.21
  -1  -1   7  143.95   13.72
  -1  -1   7  134.05    8.58
   1  -1  -7  133.07    9.25
  -1  -1   7  126.84    8.45
   1  -1  -7  149.36    8.88
  -1  -1   7  125.64   14.28
  -1   1   7  124.26    8.48
  -1   1   7  129.97   14.42
  -1  -1   6   93.66   10.89
   1  -1  -6   75.76    9.66
   1   1  -6  102.00   10.83
  -1   1   6   73.84   10.40
   1  -1  -6   86.21   13.46
  -1  -1   6   88.24   10.49
  -1  -1   5 2380.61  115.14
  -1  -1   5 2415.09  116.65
   1  -1  -5 2581.53  119.36
  -1  -1   5 2287.80  115.37
   1  -1  -5 2305.45  114.12
  -1   1   5 2435.09  115.48
  -1   1   5 2232.08  114.64
   1   1  -5 2458.94  114.10
   1   1  -4  380.31   23.19
  -1  -1   4  419.24   24.68
  -1  -1   4  405.84   24.73
   1  -1  -4  404.41   23.65
  -1   1   4  401.44   24.50
  -1  -1   4  436.85   26.96
  -1   1   4  395.83   24.33
   1  -1  -4  429.02   26.13
  -1   1   3  647.43   32.69
  -1   1   3  578.87   32.17
  -1  -1   3  577.65   32.37
  -1  -1   3  594.58   30.14
   1  -1  -3  607.79   31.48
   1  -1  -3  618.85   33.21
   1   1  -3  649.07   31.67
  -1  -1   3  604.52   32.35
  -1  -1   3  652.05   36.14
  -1  -1   2 2180.25  101.21
  -1  -1   2 2090.89   99.89
  -1  -1   2 2126.21  100.35
  -1   1   2 2138.56  100.35
  -1  -1   2 2183.27  100.85
   1   1  -2 2147.20   99.87
  -1   1   2 2256.55  100.74
  -1  -1   2 2189.79  105.15
  -1  -1   1 1363.71   63.87
  -1   1   1 1487.27   64.69
  -1   1   1 1368.01   63.90
  -1  -1   1 1481.34   65.39
   1   1  -1 1381.51   63.88
  -1  -1   1 1341.74   62.90
   1   1  -1 1377.99   66.10
  -1  -1   1 1326.52   66.92
   1  -1  -1 1278.70   63.75
   1   1   0 1945.49   85.16
  -1  -1   0 1995.35   89.35
   1  -1   0 1803.54   83.21
   1   1   0 1811.38   88.41
   1  -1   0 1824.35   84.38
  -1  -1   0 1833.55   86.13
   1   1   0 1867.65   84.33
  -1  -1   0 1684.07   88.76
   1   1   1 5817.87  286.52
   1   1   1 6367.48  282.57
   1  -1   1 6102.58  281.45
   1   1   1 6396.10  281.65
  -1  -1  -1 6358.59  284.96
   1   1   2  884.42   43.48
   1   1   2  943.79   42.82
  -1  -1  -2  901.33   43.91
  -1  -1  -2  882.27   48.15
   1  -1   2  858.18   40.77
  -1   1  -2  890.72   43.34
   1  -1   2  964.65   42.77
   1   1   2  887.41   48.36
   1   1   3   90.05    7.87
  -1   1  -3   91.26    8.13
   1   1   3   99.14   11.96
  -1  -1  -3  104.79   10.42
   1  -1   3  107.21    7.84
   1   1   3   96.04    7.58
  -1  -1  -3   89.59    8.27
  -1  -1  -3  107.29   10.89
   1  -1   3   94.45    6.16
  -1  -1  -3   97.58    6.62
  -1  -1  -4  268.05   20.18
  -1   1  -4  263.89   17.71
  -1  -1  -4  311.48   21.40
   1   1   4  262.56   16.67
  -1  -1  -4  277.45   18.19
   1  -1   4  264.07   16.81
   1   1   5   44.74    6.44
  -1   1  -5   47.09    3.89
   1  -1   5   55.74    7.12
  -1  -1  -5   55.33    8.60
  -1  -1  -5   61.60   10.79
  -1   1  -6   40.71   10.28
   1  -1   6   49.44    7.23
  -1  -1  -6   42.89   10.02
  -1   1  -6   61.53    8.34
   1   1   6   42.71    4.69
  -1  -1  -6   41.52    7.45
  -1  -1  -6   57.90    8.29
   1  -1   6   46.05    4.32
   1   1   6   42.42    6.74
   1   1   6   42.37    8.82
   1  -1   7  682.43   40.84
   1   1   7  717.76   40.73
   1   1   7  724.40   35.23
  -1  -1  -7  738.11   49.11
  -1  -1  -7  740.61   42.67
   1   1   7  798.82   45.49
   1   1   7  694.03   34.36
  -1   1  -7  734.07   42.21
   1  -1   7  707.90   34.59
   1   1   7  681.25   34.71
  -1  -1  -8    5.47    4.53
   1   1   8    9.48    6.79
  -1  -1  -8    8.13    2.35
   1  -1   8    6.27    4.61
   1   1   8    8.19    4.56
  -1   1  -8   17.29    5.98
   1   1   8    5.34    3.46
   1  -1   8    6.95    2.74
   1   1   8   11.74    3.16
   1   1   8    4.50    2.59
  -1  -1  -8    7.12    8.13
  -1  -1  -9 1666.87   83.00
   1   1   9 1733.96   83.27
   1  -1   9 1774.10   83.02
   1   1   9 1742.57   83.13
  -1  -1  -9 1914.06  103.22
   1   1   9 1875.73   91.97
  -1   1  -9 1734.00   98.86
   1  -1   9 1846.59   92.51
   1   1   9 1825.59   82.85
   1  -1   9 1790.99   82.76
  -1  -1  -9 1982.78   94.92
  -1   1  -9 1910.45   93.81
   1   1   9 1920.91   95.30
  -1  -1  -9 1699.93   81.86
   1   1   9 1765.36   83.05
   1   1  10  384.75   20.37
   1   1  10  359.00   20.55
   1   1  10  395.77   29.95
   1  -1  10  370.69   20.02
   1   1  10  347.69   27.40
  -1  -1 -10  343.55   20.51
   1  -1  10  360.86   20.44
   1  -1  10  359.51   28.11
  -1   1 -10  387.35   29.16
   1   1  10  376.24   20.57
   1   1  10  381.35   20.37
  -1   1 -10  304.85   31.13
  -1  -1 -10  369.70   34.25
  -1  -1 -10  391.76   29.60
   1   1  11  591.91   30.64
   1  -1  11  612.14   30.56
  -1  -1 -11  631.86   46.74
  -1  -1 -11  580.93   31.29
   1   1  11  533.63   39.34
   1   1  11  600.09   39.92
   1  -1  11  616.33   40.70
   1   1  11  594.90   31.02
   1   1  11  597.15   31.07
   1  -1  11  622.20   31.44
   1   1  12  218.29   13.53
  -1  -1 -12  234.67   23.09
   1  -1  12  231.31   13.77
   1   1  12  229.57   14.45
  -1   1 -12  206.49   24.65
   1  -1  12  243.07   22.59
   1  -1  12  238.98   14.81
   1   1  12  228.95   14.49
   1   1  12  254.28   22.79
   1   1  12  233.63   22.20
  -1   1 -12  204.83   21.76
   1   1  13  137.64    9.61
  -1   1 -13  135.97   17.25
   1  -1  13  101.42   12.44
  -1  -1 -13  143.76   17.25
   1  -1  13  136.10   16.70
   1   1  13  146.51   10.32
   1   1  13  107.66   15.32
   1   1  13  106.96   15.32
   1  -1  13  138.80   10.24
  -1   1 -13  147.06   20.17
   1   1  14    6.96    2.83
   1   1  14    1.39    2.79
   1  -1  14   -0.47    2.68
  -1  -1 -14   -1.42    3.24
   1   1  15  182.35   11.75
  -1   1 -15  181.32   11.68
   1   1  15  164.46   11.24
   1  -1  15  171.04   11.57
  -1  -1 -15  168.23   11.45
  -1  -1 -16  158.28   10.74
   1   1  16  177.66   10.87
  -1   1 -16  188.96   11.17
  -1   1 -17    2.45    2.17
  -1  -1 -17    1.69    1.99
  -1  -1 -18   54.36    4.08
  -1   1 -18   55.37    4.13
  -1  -2  16   72.47    5.06
  -1   2  16   73.33    5.41
   1  -2 -16   68.42    5.04
   1  -2 -15    3.95    1.54
  -1   2  15    0.64    2.36
  -1  -2  15    3.18    2.37
  -1   2  14   95.95    7.61
   1  -2 -14   86.44    6.72
  -1   2  14  102.83    7.77
  -1  -2  13   23.39    4.77
  -1   2  13   27.80    4.80
  -1   2  13   27.07    4.69
   1  -2 -13   23.86    3.79
  -1   2  13   18.52    4.03
  -1  -2  13   24.64    4.07
  -1  -2  12  121.42   10.64
  -1   2  12  140.34   16.57
   1   2 -12  142.89   21.97
  -1   2  12  120.09    9.68
   1  -2 -12  126.26    9.43
  -1  -2  12  112.90   10.81
  -1   2  12  139.92   10.39
  -1   2  11   20.33    4.70
  -1   2  11   45.41    9.59
   1   2 -11    6.88    8.42
  -1  -2  11   32.22   10.31
  -1  -2  11   22.98    4.28
   1  -2 -11   28.20    4.57
   1  -2 -11   27.98    4.00
  -1   2  10  137.05   19.19
   1  -2 -10  153.51   11.20
  -1  -2  10  166.28   16.19
  -1  -2  10  160.28   11.20
   1  -2 -10  142.27   10.29
  -1   2  10  144.40   10.99
   1  -2  -9  439.09   23.87
  -1  -2   9  411.16   23.29
   1  -2  -9  435.74   23.10
   1   2  -9  399.12   39.84
  -1   2   9  358.51   33.71
  -1   2   9  409.91   23.30
  -1  -2   8   24.23    4.13
  -1   2   8   30.11    9.33
  -1  -2   8   36.31    4.77
   1  -2  -8   28.46    4.95
  -1   2   8   29.64    5.03
   1  -2  -8   22.90    4.35
  -1  -2   7   93.92    7.46
  -1  -2   7   71.72   13.20
   1  -2  -7   95.22    8.05
  -1   2   7   86.57   11.67
   1   2  -7   86.30    7.90
  -1   2   7   80.53   15.30
  -1  -2   7   87.46    7.81
   1  -2  -7   89.38    8.05
  -1   2   6  864.88   51.37
   1   2  -6  962.75   45.80
   1  -2  -6  828.72   45.21
   1   2  -6  930.85   45.06
  -1  -2   6  925.37   44.66
  -1  -2   6  924.49   58.28
  -1  -2   6  956.03   45.40
   1  -2  -6  942.90   45.71
  -1  -2   5  404.58   31.96
  -1  -2   5  406.77   20.64
  -1  -2   5  356.35   19.47
  -1   2   5  364.15   24.93
   1  -2  -5  356.45   20.50
  -1  -2   4 1844.95   97.07
  -1  -2   4 1747.24   81.75
   1  -2  -4 1657.90   82.39
  -1  -2   4 1859.61   82.55
   1  -2  -3   19.29    3.41
  -1  -2   3   26.27    3.70
  -1  -2   3   28.20    3.43
   1  -2  -3   37.09    4.43
  -1   2   3   24.25    8.62
  -1  -2   2   -3.31    4.80
   1   2  -2    8.50    5.17
  -1  -2   2    0.75    2.58
   1  -2  -2    2.58    2.03
   1  -2  -2    3.24    2.10
   1  -2  -2   -1.31    2.09
   1  -2  -1   62.81    4.76
  -1  -2   1   61.43    7.10
   1  -2  -1   58.76    4.53
   1  -2  -1   48.16    4.91
   1   2  -1   58.80    8.82
   1   2   0 1380.53   73.01
  -1  -2   0 1418.74   73.01
  -1  -2   0 1375.21   63.86
  -1  -2   0 1451.26   68.10
  -1  -2   0 1350.76   63.29
   1  -2   0 1329.81   63.68
  -1  -2  -1  655.78   31.91
   1   2   1  650.33   41.97
  -1  -2  -1  646.43   32.07
   1  -2   1  670.88   32.17
  -1  -2  -1  670.58   32.50
  -1  -2  -1  721.16   39.80
  -1  -2  -1  670.99   36.46
  -1  -2  -2 1804.32   82.95
   1   2   2 1760.43   94.84
  -1  -2  -2 1734.06   82.48
  -1  -2  -2 1817.31   87.90
  -1  -2  -2 1786.24   82.37
   1   2   2 1850.58   85.03
   1  -2   2 1784.44   82.31
   1   2   3  104.63    9.18
   1   2   3   86.81   13.97
  -1  -2  -3   95.25    7.00
  -1  -2  -3   92.58    7.07
   1  -2   3   97.16    6.52
  -1  -2  -3   93.06    6.81
   1  -2   3  101.89    7.10
   1  -2   3   98.10    6.53
  -1  -2  -4  293.26   21.36
  -1  -2  -4  272.89   15.54
   1  -2   4  276.31   15.22
  -1  -2  -4  268.72   15.62
   1   2   4  282.71   26.12
   1  -2   4  295.05   15.03
  -1  -2  -4  281.08   15.52
   1   2   4  272.14   18.91
   1  -2   4  279.25   15.79
   1   2   5  825.34   41.70
   1   2   5  875.95   47.59
   1  -2   5  877.09   42.20
  -1  -2  -5  808.68   42.12
  -1  -2  -5  887.00   42.32
  -1  -2  -5  890.63   42.45
   1  -2   5  900.10   41.49
   1   2   5 1026.65   58.44
  -1  -2  -6  125.07    8.80
  -1  -2  -6  126.04    8.95
   1  -2   6  128.23    8.87
  -1  -2  -6  115.83    8.71
   1   2   6  110.72   12.38
   1  -2   6  128.61    9.38
   1   2   6  116.00    8.54
  -1  -2  -7  115.83    8.52
   1   2   7   84.57   11.69
  -1  -2  -7  104.44    7.86
   1  -2   7  111.72    8.98
   1  -2   7  111.02    8.89
   1   2   7  101.24    8.07
  -1  -2  -8  602.52   30.66
   1   2   8  586.65   30.33
   1  -2   8  595.86   36.10
  -1   2  -8  498.41   45.22
   1   2   8  539.50   31.12
   1   2   8  608.51   39.19
   1   2   8  617.97   44.62
   1  -2   8  657.09   31.85
  -1  -2  -8  565.97   30.80
   1  -2   8  582.25   31.08
   1   2   9  129.82   18.64
   1  -2   9  120.64    9.92
   1   2   9  138.35   16.07
   1   2   9  120.79    9.58
  -1  -2  -9  132.85   10.45
  -1  -2  -9  131.32    9.70
  -1   2  -9  131.74   21.20
   1   2  10  107.01    9.24
   1   2  10   87.06   15.58
   1   2  10   69.68   12.57
   1   2  10   95.20    8.29
  -1  -2 -10   83.57    8.35
  -1  -2 -10   95.02    7.74
   1   2  11   57.38    7.00
  -1   2 -11   45.27   13.18
   1   2  11   55.91    9.80
  -1  -2 -11   59.43    5.76
   1   2  11   56.98    6.37
   1   2  11   67.39   13.34
   1  -2  11   44.25   23.68
   1   2  11   40.35    6.27
   1  -2  12  125.40   10.94
   1   2  12   95.78    8.88
   1   2  12  119.90    9.57
   1   2  12  113.43   14.45
  -1  -2 -12  102.58    7.84
   1   2  13    3.16    3.36
   1   2  13    4.00    2.82
  -1  -2 -13    4.37    2.83
   1  -2  13    7.67    4.38
   1  -2  14  652.78   31.48
   1   2  14  576.38   29.89
   1  -2  14  555.87   30.94
  -1  -2 -14  594.76   29.44
   1   2  14  609.98   30.13
  -1  -2 -14  553.16   30.11
  -1  -2 -15   72.39    5.31
   1   2  15   71.92    5.96
   1  -2  15   56.54    8.48
   1   2  15   71.98    5.81
   1   2  16   89.82    6.11
   1  -2  16   84.46    6.03
   1  -2  17    6.94    1.43
  -1  -3  14   10.35    1.72
   1  -3 -14    9.13    1.91
  -1   3  13    3.88    2.04
  -1   3  13    1.37    2.28
   1  -3 -13    4.85    2.26
   1  -3 -13    2.20    1.67
  -1   3  13    1.19    2.62
  -1   3  12   35.97    4.12
   1  -3 -12   47.15    5.08
   1  -3 -12   39.20    4.41
  -1   3  11  193.10   11.39
  -1  -3  11  179.69   11.97
   1  -3 -11  185.11   11.75
  -1  -3  10  149.34   11.39
  -1   3  10  150.71   10.32
  -1   3  10  143.90   11.27
   1  -3 -10  123.47   10.00
  -1  -3   9  101.86    9.61
   1  -3  -9   90.01    8.46
  -1   3   9   88.62    8.12
   1  -3  -9  118.05    9.81
   1  -3  -8  187.03   15.36
   1  -3  -8  236.63   15.84
  -1  -3   8  216.97   14.70
  -1   3   8  226.71   13.89
   1  -3  -8  199.10   14.57
  -1  -3   8  226.90   15.20
  -1  -3   8  174.56   16.79
  -1  -3   7  219.27   15.33
   1  -3  -7  221.95   16.14
   1  -3  -7  233.05   16.25
   1  -3  -7  251.84   17.03
  -1   3   7  266.67   29.66
  -1  -3   6  545.51   29.79
  -1  -3   6  515.48   30.63
  -1   3   6  457.36   44.60
  -1  -3   6  528.76   28.65
   1  -3  -6  626.01   31.10
   1   3  -6  506.19   29.46
   1  -3  -6  554.12   30.56
  -1  -3   5   27.11    4.17
  -1   3   5   53.06   13.45
   1  -3  -5   21.52    4.88
  -1  -3   5   43.43    9.74
   1  -3  -5   22.68    5.37
  -1  -3   5   15.01    4.10
  -1   3   4  191.12   25.57
   1  -3  -4  187.59   13.42
  -1  -3   4  190.43   12.24
  -1  -3   4  192.67   12.45
  -1  -3   4  180.79   13.18
   1  -3  -4  217.72   13.40
   1  -3  -4  169.16   13.67
  -1  -3   3  109.67    9.36
   1  -3  -3  141.42   10.18
  -1   3   3  120.94   21.78
   1  -3  -3  115.36    9.82
  -1  -3   3  133.20    9.21
   1  -3  -3  122.10   16.91
   1  -3  -3  120.29    9.28
  -1  -3   3  135.46    9.07
  -1  -3   3  105.20    9.29
   1  -3  -3  113.56   10.24
  -1  -3   2 1043.17   48.51
   1  -3  -2 1075.11   49.25
   1  -3  -2 1024.22   50.39
   1  -3  -2  929.97   47.30
   1  -3  -2 1016.68   48.41
  -1  -3   2  909.55   48.61
  -1  -3   2 1057.56   48.47
   1  -3  -2  930.85   48.97
  -1   3   2 1064.35   69.63
   1  -3  -1  192.79   11.60
   1  -3  -1  177.92   10.98
  -1  -3   1  176.74   12.01
   1  -3   0  106.62    8.57
  -1   3   0   76.68   15.80
  -1  -3   0  103.32   11.01
  -1  -3   0   96.99    7.44
   1  -3   0   84.44    6.98
  -1  -3   0  102.58    8.65
   1   3   0  115.38   15.85
   1  -3   0   97.20    7.09
   1  -3   1    5.75    4.69
  -1  -3  -1    8.01    8.73
  -1  -3  -1   -8.72    3.64
   1   3   1    2.23    6.12
   1  -3   1    0.48    2.87
   1  -3   1    0.36    1.83
   1  -3   1    1.99    2.21
   1  -3   2  638.10   31.84
  -1  -3  -2  555.23   36.07
   1  -3   2  640.21   29.93
   1  -3   2  528.88   29.77
  -1  -3  -2  577.34   31.24
   1   3   2  560.86   44.33
  -1  -3  -2  599.34   31.05
   1  -3   2  607.13   30.42
   1   3   2  545.73   30.28
   1  -3   2  544.86   29.78
  -1  -3  -3   91.91    7.98
   1  -3   3   92.72    7.81
  -1  -3  -3   84.40   11.69
   1  -3   3   95.44    7.85
   1  -3   3  100.68    7.64
  -1  -3  -3   99.13    9.11
   1   3   3  103.81    9.06
   1  -3   3   87.89    7.77
   1   3   3   91.86   16.40
   1  -3   3   85.20   19.13
   1  -3   4  116.05   26.05
   1  -3   4  156.84   10.52
   1   3   4  153.31   12.21
   1  -3   4  150.98   10.71
   1  -3   4  137.42   10.26
   1   3   4  184.99   23.85
  -1  -3  -4  163.87   11.37
  -1  -3  -4  149.80   11.82
   1  -3   5   27.32    4.16
  -1  -3  -5   34.42    5.16
   1   3   5   43.71   13.14
  -1  -3  -5   31.55    5.16
  -1  -3  -5   28.58    8.28
   1  -3   5   28.55    4.51
  -1  -3  -5   27.49    5.14
   1   3   5   21.67    5.41
  -1  -3  -5   25.43    5.32
  -1  -3  -6  149.92   11.45
  -1  -3  -6  157.44   12.48
   1   3   6  175.96   23.83
   1   3   6  173.58   13.00
  -1  -3  -6  172.98   12.43
  -1  -3  -6  179.84   12.69
  -1  -3  -6  190.71   19.86
   1  -3   7  320.49   19.89
  -1  -3  -7  318.11   19.33
  -1  -3  -7  317.82   28.90
  -1  -3  -7  289.62   19.03
  -1  -3  -7  309.54   18.43
   1   3   7  338.11   19.85
   1  -3   7  322.91   42.98
  -1  -3  -7  263.40   18.09
   1   3   7  329.87   20.22
   1   3   7  352.42   34.34
  -1  -3  -8  164.61   11.98
  -1  -3  -8  153.02   19.01
   1   3   8  169.79   23.24
   1  -3   8  181.90   13.44
  -1  -3  -8  147.50   10.84
   1   3   8  155.75   12.30
  -1  -3  -8  135.45   11.83
   1   3   8  165.21   12.79
  -1   3  -8  208.12   25.20
  -1  -3  -9    7.69    3.41
   1  -3   9    3.69    4.45
   1   3   9    6.26    4.47
  -1  -3  -9   14.96    4.57
   1  -3  10   44.93    7.10
   1   3  10   70.34    7.52
  -1  -3 -10   61.88    6.82
   1  -3  10   49.18   18.68
   1  -3  11   31.59   13.94
   1   3  11   28.66    4.87
   1  -3  11   21.13    4.90
   1   3  11   19.90    3.68
  -1  -3 -11   20.49    4.19
   1   3  11   30.38    4.83
  -1  -3 -12  388.19   20.23
   1   3  12  340.63   20.35
   1  -3  12  374.11   23.21
   1  -3  12  419.79   21.95
   1   3  12  382.34   19.85
  -1  -3 -13    3.82    1.90
   1   3  13    1.96    2.02
   1   3  13   -1.36    2.42
   1  -4  -9   24.66    3.73
  -1   4   9   33.39    4.08
  -1   4   9   34.55    4.13
  -1  -4   9   23.04   13.37
  -1   4   8  181.92   10.57
   1  -4  -8  139.15   10.07
  -1   4   8  160.51   10.70
   1  -4  -8  117.59    9.43
   1  -4  -7  122.02    9.54
   1  -4  -7  113.86    9.38
  -1   4   7  123.68   10.14
  -1   4   7  146.79   10.17
   1  -4  -6   45.66    6.23
  -1   4   6   47.16    6.67
   1  -4  -6   37.60    5.55
   1  -4  -5    8.84    3.88
   1  -4  -5    0.50    3.30
  -1  -4   5    8.50    3.02
  -1   4   5    3.06    4.70
  -1  -4   5  -11.36   23.41
   1  -4  -4   93.89    9.36
  -1  -4   4   94.35   23.96
   1   4  -4   71.51    7.44
   1  -4  -4   72.92    7.34
  -1  -4   4   70.47    6.93
   1  -4  -3  187.88   14.23
   1  -4  -3  181.73   12.21
   1   4  -3  169.40   12.40
  -1  -4   3  185.31   12.44
  -1  -4   2  -34.15   23.39
  -1  -4   2    4.42    2.59
   1  -4  -1  217.84   15.55
   1   4  -1  195.99   14.84
  -1  -4   1  247.63   14.68
   1  -4   0  103.16   10.00
   1  -4   0  134.65   25.03
  -1  -4   0  133.59    9.71
  -1  -4  -1   18.43    4.66
   1  -4   1   10.53    3.95
   1   4   1    9.77    3.99
  -1  -4  -1   16.82    3.83
   1  -4   1   11.40   22.30
  -1  -4  -1   14.49    4.51
   1  -4   2    4.08    3.32
  -1  -4  -2    9.57    4.10
   1  -4   2    1.43   21.86
  -1  -4  -2    6.76    2.87
   1   4   2    9.70    3.90
  -1  -4  -3  179.93   11.68
   1   4   3  180.91   12.65
   1   4   3  165.20   12.92
  -1  -4  -3  157.75   12.93
  -1  -4  -4  161.67   11.91
  -1  -4  -4  137.41    9.81
   1   4   4  149.50   11.54
   1   4   4  143.97   11.78
   1   4   5  116.84   10.24
  -1  -4  -5   99.04    9.31
  -1  -4  -5   97.37    8.89
   1   4   5  114.76    9.91
   1   4   6  113.50   10.00
  -1  -4  -6  113.66    9.15
   1   4   6  125.41   10.57
  -1  -4  -6  122.81    9.64
  -1  -4  -7   48.89    5.60
   1   4   7   48.58    5.70
   1   4   7   47.39    5.73
   1   4   7   51.43    6.59
   1   4   8   30.58    5.03
   1   4   8   38.35    4.74
  -1  -4  -8   42.02    4.87
   1   4   8   34.87    4.98
   1   4   9   75.75    5.94
  -1  -4  -9   59.78    5.30
   1   4   9   62.27    6.07
  -2   0  18  368.12   19.55
   2   0 -18  416.19   19.77
  -2   0  17    0.59    1.74
  -2   0  16  142.89    9.51
   2   0 -16  126.35    9.41
  -2   0  15    0.89    2.47
  -2   0  15   -0.30    2.25
   2   0 -15   -1.43    3.11
  -2   0  14  221.40   13.73
  -2   0  14  157.66   20.56
   2   0 -14  224.89   14.18
   2   0 -14  197.80   21.46
  -2   0  14  200.88   20.87
  -2   0  14  201.11   12.51
   2   0 -13   -2.19    5.30
  -2   0  13    2.54    2.67
   2   0 -13    6.51    3.85
   2   0 -13   -2.15    5.20
  -2   0  13    1.57    2.95
   2   0 -12  162.37   11.50
  -2   0  12  178.61   12.04
   2   0 -12  175.54   12.54
   2   0 -12  185.76   20.57
   2   0 -12  183.67   20.82
   2   0 -12  189.98   11.63
  -2   0  12  162.05   11.18
   2   0 -11    0.45    2.32
   2   0 -11   -4.55    2.57
  -2   0  11   -2.19    4.90
   2   0 -11    5.99    5.17
  -2   0  11   -0.39    2.72
   2   0 -11    1.53    2.91
  -2   0  11    0.96    2.41
   2   0 -10  185.69   12.21
   2   0 -10  194.89   21.06
   2   0 -10  197.74   12.89
  -2   0  10  202.17   12.69
   2   0 -10  196.29   20.14
  -2   0  10  218.90   22.09
   2   0 -10  186.08   12.45
   2   0  -9    3.69    6.10
  -2   0   9    3.27    3.11
  -2   0   9   -1.80    4.37
   2   0  -9   -1.65    4.53
   2   0  -9   -0.43    2.60
   2   0  -9   -0.78    2.51
  -2   0   8  781.91   36.58
  -2   0   8  731.01   39.20
  -2   0   8  796.49   47.08
   2   0  -8  680.30   35.90
   2   0  -8  804.68   46.00
   2   0  -8  732.54   36.80
   2   0  -7    1.54    5.82
   2   0  -7    3.76    4.14
  -2   0   7   -1.35    4.11
  -2   0   6  289.04   21.61
   2   0  -6  285.50   21.00
   2   0  -6  295.17   23.72
   2   0  -5    0.86    3.42
  -2   0   5   -0.92    3.14
   2   0  -4 9605.35  438.24
  -2   0   4 9999.00  439.04
   2   0  -4 9265.33  440.61
  -2   0   3   -3.05    3.35
   2   0  -3   -3.71    5.18
  -2   0   2  531.18   28.43
   2   0   0 2031.25   96.76
   2   0   0 2073.16   95.58
  -2   0   0 2042.05   94.20
   2   0   1    2.50    2.80
  -2   0  -1    5.15    2.18
  -2   0  -1   -0.69    1.97
   2   0   1    2.38    4.90
   2   0   2   12.23    3.26
   2   0   3   -0.52    2.71
  -2   0  -3    1.20    2.79
   2   0   3    0.65    2.45
  -2   0  -3   -1.39    4.18
  -2   0  -4  206.36   14.19
   2   0   4  176.79   13.46
   2   0   4  194.87   13.17
   2   0   5   -0.77    3.23
   2   0   5   -1.35    2.98
  -2   0  -5    0.86    3.42
  -2   0  -5   -0.73    2.67
   2   0   6  417.48   26.12
   2   0   6  416.79   26.88
  -2   0  -6  445.02   26.28
  -2   0  -6  439.18   28.04
   2   0   7   -1.11    3.80
  -2   0  -7    1.25    3.79
   2   0   7   -0.61    2.52
   2   0   7   -0.94    2.59
  -2   0  -7    0.85    2.21
   2   0   8  514.50   33.88
   2   0   8  507.50   26.17
   2   0   8  551.55   26.56
  -2   0  -8  461.17   30.32
   2   0   8  482.83   32.89
   2   0   8  495.92   26.12
  -2   0  -8  529.88   37.62
  -2   0  -9    1.64    5.63
   2   0   9    2.59    4.27
   2   0   9    1.15    3.50
   2   0   9    0.40    2.63
  -2   0  -9   -2.03    6.18
   2   0   9    4.01    4.74
   2   0   9   -0.39    3.24
   2   0   9   -1.47    4.46
   2   0  10 3493.13  179.05
  -2   0 -10 3701.08  186.52
   2   0  10 3721.76  170.30
  -2   0 -10 3656.00  183.60
  -2   0 -10 3540.51  169.62
   2   0  10 3801.86  170.62
   2   0  10 3887.28  170.12
   2   0  10 3754.51  182.02
   2   0  11    1.79    4.62
   2   0  11   -1.57    3.53
  -2   0 -11    4.60    5.57
  -2   0 -11    3.96    5.73
   2   0  11   -1.14    3.08
  -2   0 -11    2.39    2.58
   2   0  11    0.91    3.48
   2   0  11    0.49    2.85
   2   0  12  314.43   18.72
   2   0  12  299.98   25.58
  -2   0 -12  306.84   28.10
   2   0  12  315.30   18.35
   2   0  12  333.99   27.94
  -2   0 -13    2.12    4.75
   2   0  13    0.52    2.80
   2   0  13   -1.85    3.33
   2   0  13   -3.88    5.02
   2   0  13    1.70    4.66
   2   0  14  576.14   30.22
   2   0  14  595.52   31.12
   2   0  16  104.82    7.33
  -2   0 -16  118.56    8.65
  -2   0 -17   -0.87    2.20
   2   0  17   -0.25    1.75
  -2   0 -18   17.96    2.56
   2  -1 -18    2.56    1.13
   2   1 -18    1.72    1.42
  -2  -1  17   78.73    5.73
  -2   1  17   75.84    5.74
   2   1 -17   87.56    6.03
  -2  -1  17   70.78    5.09
   2  -1 -17   85.51    5.95
  -2   1  17   88.31    5.78
  -2   1  16    4.60    2.40
  -2   1  16    6.70    2.55
  -2  -1  16    5.62    2.18
  -2  -1  15   98.31    7.71
   2  -1 -15  109.87    8.37
   2  -1 -15  100.60    7.10
  -2   1  15  102.46    7.92
   2   1 -15  101.84    8.09
  -2   1  15  107.09    7.91
  -2   1  14  225.62   13.59
  -2  -1  14  203.98   13.28
   2  -1 -14  200.43   13.72
   2   1 -14  207.71   13.64
   2  -1 -14  215.11   12.68
  -2   1  14  220.99   13.63
  -2  -1  13   19.41    3.90
   2   1 -13   23.11    8.50
   2   1 -13   16.24    7.22
   2  -1 -13   29.06    7.13
  -2   1  13   11.67    3.95
   2  -1 -13    8.40    6.40
  -2   1  13    8.81    3.12
   2   1 -13    9.75    3.83
   2  -1 -13   10.09    3.81
   2   1 -12  124.64   18.09
   2  -1 -12  165.90   10.49
   2  -1 -12  142.33   18.82
   2   1 -12  174.79   12.27
  -2   1  12  165.30   20.43
   2  -1 -12  153.83   19.57
   2  -1 -12  157.80   12.13
  -2  -1  12  170.42   20.50
  -2  -1  12  178.89   11.76
  -2   1  12  174.79   12.11
  -2  -1  12  171.14   11.15
  -2   1  12  193.90   12.02
  -2  -1  11  592.28   29.10
  -2   1  11  568.93   41.62
   2  -1 -11  525.99   29.38
   2   1 -11  533.50   43.26
  -2  -1  11  536.82   28.18
   2  -1 -11  504.34   39.85
   2  -1 -11  539.04   29.44
  -2   1  11  577.78   28.92
   2   1 -11  580.61   40.18
   2   1 -11  551.80   29.27
   2   1 -11  514.10   28.77
   2  -1 -11  482.25   38.96
   2  -1 -11  539.59   27.75
   2   1 -10  255.41   15.69
   2  -1 -10  265.86   15.84
  -2   1  10  267.79   22.96
  -2   1  10  245.38   24.70
   2  -1 -10  231.11   24.77
   2  -1 -10  293.84   16.41
   2  -1 -10  255.82   24.32
  -2  -1  10  259.55   15.43
  -2  -1  10  242.73   24.37
   2  -1 -10  239.54   15.78
   2   1 -10  251.11   23.58
  -2   1  10  213.66   23.19
  -2  -1  10  283.05   15.33
  -2   1  10  249.64   15.25
   2  -1 -10  254.13   14.78
   2   1 -10  226.05   15.54
  -2  -1   9  218.59   13.55
   2  -1  -9  253.30   14.54
   2  -1  -9  204.71   13.75
   2  -1  -9  220.79   21.49
  -2  -1   9  242.24   23.05
   2   1  -9  187.95   22.94
  -2   1   9  231.59   22.50
  -2  -1   9  227.62   21.56
  -2   1   9  220.57   13.46
  -2   1   9  215.42   21.58
  -2  -1   9  217.84   13.17
   2  -1  -9  208.70   22.55
   2   1  -9  208.26   13.63
  -2  -1   9  200.15   19.09
   2   1  -9  245.99   14.06
   2   1  -9  196.00   20.08
  -2   1   9  231.23   21.16
  -2  -1   8 1656.64   74.93
   2  -1  -8 1696.46   76.29
  -2  -1   8 1557.89   85.39
   2   1  -8 1595.58   75.82
   2  -1  -8 1352.12   85.86
  -2   1   8 1572.79   86.13
   2   1  -8 1553.49   84.67
  -2   1   8 1530.80   74.90
  -2  -1   8 1666.20   87.49
   2   1  -8 1565.15   76.46
   2  -1  -8 1687.09   76.64
  -2  -1   8 1584.66   84.35
   2   1  -8 1605.47   90.84
   2  -1  -8 1518.54   84.94
  -2  -1   8 1597.81   75.21
  -2   1   8 1536.21   85.95
  -2   1   7    7.21    2.74
  -2   1   7    2.86    3.93
  -2  -1   7    4.06    2.60
   2  -1  -7    2.66    5.02
   2   1  -7    3.35    2.93
  -2  -1   7    5.63    3.87
  -2  -1   7    2.73    3.76
   2  -1  -7   17.60    7.33
  -2  -1   7    2.95    4.05
   2  -1  -7    7.60    3.07
  -2   1   7   15.64    6.11
  -2  -1   7    3.45    1.84
   2  -1  -7    4.35    3.13
   2   1  -7    5.02    3.99
   2   1  -7    7.30    3.43
   2  -1  -6  956.04   54.90
   2  -1  -6 1032.27   49.93
  -2  -1   6 1057.92   57.97
  -2  -1   6  922.26   56.09
   2   1  -6 1016.26   49.03
  -2  -1   6  998.00   47.79
   2  -1  -6 1033.37   57.15
  -2  -1   6  990.76   55.90
   2   1  -6  970.75   54.54
   2  -1  -6 1098.04   50.41
  -2   1   6  980.10   56.30
  -2   1   6  948.40   55.55
   2   1  -6 1069.88   49.71
  -2   1   5  119.87   11.73
  -2   1   5  108.38   11.50
  -2  -1   5  120.29   11.96
   2  -1  -5  103.82   11.54
   2   1  -5  120.51   11.18
  -2  -1   5   89.97   10.92
   2  -1  -5  113.94   11.20
  -2  -1   5  114.77    7.76
  -2  -1   4   36.38    5.92
  -2  -1   4   38.64    6.00
  -2   1   4   39.84    6.24
  -2  -1   4   34.68    7.53
   2  -1  -4   42.39    6.58
  -2   1   4   46.86    6.55
  -2  -1   4   32.71    5.14
  -2   1   3  272.06   17.93
  -2  -1   3  294.80   17.51
  -2   1   3  273.63   17.64
  -2  -1   3  252.04   17.25
   2   1  -3  280.28   15.93
  -2  -1   3  250.93   18.02
  -2   1   2  821.82   41.91
  -2  -1   2  824.31   40.92
  -2  -1   2  843.52   41.88
   2   1  -2  830.63   42.15
  -2   1   2  868.50   42.49
  -2  -1   2  761.37   44.20
   2  -1  -2  796.77   42.10
   2   1  -1   93.18    8.10
  -2  -1   1  116.69    9.05
  -2  -1   1   96.88    7.94
  -2   1   1   95.91    7.89
   2  -1  -1   96.54    8.15
  -2  -1   1   78.23    6.60
   2   1  -1  112.94    9.83
  -2  -1   1   90.43   10.42
   2   1   0 2175.56  104.85
   2   1   0 2193.61  101.98
  -2  -1   0 2130.79  106.70
   2  -1   0 2093.42  101.82
   2   1   0 2246.39  102.13
  -2  -1   0 2199.74  102.68
   2   1   1 1497.20   68.75
   2  -1   1 1475.98   68.53
   2   1   1 1377.57   72.77
   2   1   1 1468.73   69.39
   2   1   1 1450.84   69.21
  -2  -1  -1 1389.73   69.61
   2  -1   1 1376.45   69.01
   2   1   2  212.20   13.75
   2   1   2  200.65   14.15
   2   1   2  227.11   14.39
  -2  -1  -2  206.00   14.60
   2   1   2  238.03   18.69
   2  -1   2  215.97   14.42
   2  -1   2  220.50   13.81
   2   1   3 2042.93   99.25
   2   1   3 2072.64  105.54
   2  -1   3 2039.00   96.42
  -2  -1  -3 1981.57  104.00
   2   1   3 2201.61   99.11
   2  -1   3 2233.15   99.11
  -2  -1  -3 2040.07   98.93
   2   1   4 1026.66   52.96
  -2  -1  -4 1019.41   50.25
  -2  -1  -4 1028.20   57.63
   2   1   4 1069.52   53.73
  -2   1  -4  988.87   53.54
  -2  -1  -4 1100.19   57.55
  -2   1  -4 1110.52   59.10
   2  -1   4 1079.88   50.95
   2  -1   4 1058.74   53.12
  -2  -1  -4 1053.60   54.02
   2   1   5   23.01    5.11
  -2  -1  -5   15.95    5.30
  -2   1  -5   19.60    5.48
   2   1   5   21.28    5.19
  -2  -1  -5   23.88    6.77
   2  -1   5   19.82    5.26
   2   1   5   19.33    4.38
   2   1   5   15.82    4.28
  -2  -1  -5   26.09    7.49
   2  -1   5   20.15    3.93
   2   1   6 1763.89   85.86
  -2   1  -6 1955.40   94.02
  -2  -1  -6 1984.47   94.31
   2   1   6 1945.85   92.81
   2  -1   6 1795.42   89.49
  -2  -1  -6 1997.10   96.12
   2  -1   6 1844.46   85.78
   2   1   6 1819.44   86.91
   2   1   6 1819.53   85.57
   2   1   6 2037.69   99.01
  -2  -1  -6 1981.40   99.27
   2  -1   6 1961.37   92.89
   2   1   6 1895.71   92.08
   2   1   7  340.41   25.02
   2  -1   7  349.06   23.02
   2   1   7  412.09   30.05
   2  -1   7  370.82   19.20
  -2   1  -7  340.23   29.27
   2   1   7  353.97   19.98
   2   1   7  382.54   19.99
   2  -1   7  354.50   18.72
   2   1   7  341.48   19.13
   2  -1   7  373.04   25.60
   2   1   7  325.44   24.19
  -2  -1  -7  378.99   31.17
  -2  -1  -7  397.80   27.59
   2   1   7  332.84   18.71
  -2   1  -8  131.58   14.74
  -2  -1  -8  129.92   14.45
   2   1   8  122.60    8.54
   2  -1   8  110.27   11.97
   2   1   8  110.59   13.28
  -2  -1  -8  124.87   17.63
   2  -1   8  113.62   13.63
  -2  -1  -8  121.06    8.71
   2   1   8  125.75    9.43
   2   1   8  107.19    8.63
   2  -1   8  110.47    8.30
   2   1   8  115.16    9.18
   2  -1   8  125.18    8.82
   2   1   8  135.36   14.06
   2   1   8  125.98   16.18
  -2   1  -8  123.43   16.78
  -2  -1  -8  128.27   14.40
   2   1   9  147.23   16.55
   2  -1   9  190.77   16.40
   2   1   9  164.86   11.49
   2   1   9  174.35   11.23
   2  -1   9  156.29   11.19
   2  -1   9  152.71   10.39
   2   1   9  191.03   19.95
   2   1   9  165.57   11.39
   2   1   9  158.26   16.84
   2  -1   9  144.24   10.53
  -2  -1  -9  163.81   17.57
   2  -1   9  193.61   18.42
  -2  -1  -9  185.74   22.74
   2   1   9  179.69   11.17
  -2   1  -9  169.27   17.92
   2   1  10  237.38   14.74
  -2  -1 -10  237.92   14.83
   2   1  10  218.63   21.18
  -2   1 -10  243.74   22.61
   2   1  10  227.30   21.44
   2  -1  10  217.86   19.30
   2   1  10  228.28   22.96
   2  -1  10  229.65   14.06
   2  -1  10  212.95   13.61
  -2   1 -10  221.24   24.24
   2  -1  10  210.88   21.06
   2   1  10  228.37   14.26
  -2  -1 -10  252.33   27.05
   2   1  10  248.62   14.61
   2  -1  10  223.36   20.74
   2  -1  10  221.97   14.49
  -2  -1 -10  214.26   21.46
   2  -1  11   33.54    7.44
   2  -1  11   44.43    5.27
  -2  -1 -11   36.27    9.08
   2   1  11   35.82    5.27
   2   1  11   38.02    9.21
  -2   1 -11   45.76   10.17
   2  -1  11   37.96    5.38
   2   1  11   37.15    9.04
  -2   1 -11   24.33    8.80
  -2  -1 -11   62.17   13.44
   2   1  11   38.34    5.57
   2  -1  11   61.97   11.14
   2   1  11   39.17    5.21
   2  -1  11   40.77    5.06
  -2  -1 -11   32.31    5.26
   2   1  11   28.37    8.14
   2   1  12  326.68   28.58
   2  -1  12  312.42   25.65
  -2  -1 -12  346.32   20.72
   2   1  12  381.03   20.82
   2  -1  12  364.56   20.89
   2   1  12  362.35   29.74
   2   1  12  366.88   20.69
   2  -1  12  353.57   19.63
  -2  -1 -12  316.60   32.38
   2   1  12  339.25   19.58
  -2   1 -12  372.83   30.38
  -2  -1 -12  370.09   30.18
   2  -1  12  375.31   19.94
   2  -1  12  364.94   30.15
   2   1  13   21.89    6.98
   2  -1  13   21.23    3.78
  -2  -1 -13   19.94    8.62
   2   1  13   25.23    4.57
  -2   1 -13   35.48    9.26
   2  -1  13   38.37    8.50
   2   1  13   38.60    7.80
   2   1  14  327.42   18.10
  -2  -1 -15   74.82    6.80
  -2   1 -15   88.88    7.10
  -2   1 -16  152.25    9.50
  -2  -1 -16  159.89    9.58
   2  -1  16  154.05    9.16
  -2   1 -17   62.34    4.52
   2   1  17   37.33    3.79
   2   1  17   61.28    4.35
   2  -1  17   63.69    4.55
   2  -1  17   41.89    3.86
  -2  -1 -17   48.88    4.31
   2  -1  18   57.96    3.78
   2  -2 -16    8.97    1.82
  -2  -2  15  214.98   11.77
   2  -2 -15  216.64   12.01
  -2   2  15  226.02   12.76
  -2  -2  14  169.62   10.62
  -2   2  14  168.58   10.82
  -2   2  14  175.37   11.18
   2  -2 -14  174.18   10.55
   2  -2 -13  440.00   23.66
  -2   2  13  458.50   24.29
  -2   2  13  452.40   24.36
   2  -2 -12   23.90    3.64
   2  -2 -12   26.45    4.07
  -2  -2  12   24.60    4.08
  -2   2  12   25.84    4.60
  -2  -2  11  138.36   10.04
  -2   2  11  162.22   18.81
  -2  -2  11  123.83   10.15
   2   2 -11  119.63   21.35
  -2   2  11  129.95   10.34
   2  -2 -11  133.29   10.03
   2  -2 -11  126.85    9.36
   2  -2 -10   22.24    4.05
  -2  -2  10   24.19    4.36
  -2  -2  10   26.90    4.86
   2   2 -10   24.85    5.02
  -2  -2  10   25.32    5.16
  -2   2  10   27.99    5.19
   2  -2 -10   30.36    4.84
  -2   2  10   33.54    7.52
   2  -2  -9  608.20   30.56
  -2  -2   9  531.80   30.30
  -2  -2   9  605.42   30.62
  -2  -2   9  522.18   41.25
  -2   2   9  471.24   41.18
  -2   2   9  473.96   38.12
   2  -2  -9  627.65   31.21
  -2  -2   9  572.38   30.31
  -2  -2   9  542.41   30.02
   2   2  -9  598.95   32.10
  -2   2   8   46.48    9.88
  -2  -2   8   73.87    8.86
  -2  -2   8  101.15   15.20
  -2   2   8   67.61   13.39
  -2  -2   8   72.33    6.79
   2  -2  -8   90.80    8.32
  -2  -2   8   58.69    6.51
   2  -2  -8   74.96    7.37
   2   2  -8   85.88    8.42
   2   2  -8   76.80    7.54
   2   2  -7  387.09   21.56
  -2  -2   7  353.77   31.91
  -2  -2   7  362.29   21.46
   2  -2  -7  375.77   21.54
  -2   2   7  341.34   27.85
  -2  -2   7  364.45   20.30
   2   2  -6  316.96   18.10
   2  -2  -6  288.45   18.16
  -2   2   6  269.07   23.11
  -2  -2   6  293.46   18.13
  -2  -2   6  306.53   16.84
   2   2  -6  302.19   18.43
  -2  -2   5  112.79    7.64
  -2   2   5  129.30   13.46
  -2  -2   5  109.83    9.19
   2  -2  -5  111.35    8.96
   2  -2  -5   91.59    8.69
   2   2  -4 1076.18   52.40
  -2  -2   4 1111.05   52.04
   2   2  -4 1124.92   52.70
   2   2  -4 1059.36   52.38
  -2   2   4 1099.77   58.95
   2  -2  -4 1150.26   53.29
  -2  -2   4 1177.89   68.65
   2  -2  -4 1069.81   53.65
   2   2  -3   15.25    2.93
   2   2  -3   20.18    3.31
   2  -2  -3   15.92    3.32
  -2  -2   3   13.74    2.36
  -2   2   3   10.94    3.79
  -2  -2   2  146.09    9.39
  -2  -2   2  144.87   13.06
  -2  -2   2  174.02   19.03
   2   2  -2  139.03    9.11
   2  -2  -2  138.41    9.58
   2  -2  -2  141.57    8.99
  -2   2   2  146.38   12.09
   2  -2  -2  144.60    8.51
   2   2  -2  130.38   12.63
  -2  -2   1  742.89   36.57
   2   2  -1  755.25   43.20
  -2  -2   1  826.48   42.13
   2  -2  -1  736.14   35.37
  -2  -2   1  727.34   35.78
  -2   2   1  758.20   39.48
  -2  -2   1  844.52   49.16
   2  -2  -1  746.02   35.84
   2   2  -1  747.47   36.63
   2  -2  -1  750.14   36.60
  -2  -2   0  736.78   34.65
  -2  -2   0  675.95   39.17
  -2  -2   0  694.06   45.75
  -2  -2   0  701.98   33.76
  -2  -2   0  754.58   44.72
   2  -2   0  693.13   33.44
   2   2   0  647.30   34.41
  -2   2   0  709.48   36.95
   2   2   0  720.05   42.87
   2  -2   0  729.29   34.30
  -2  -2  -1 2010.66   93.85
   2   2   1 1917.93   98.63
  -2  -2  -1 1940.37   87.60
  -2  -2  -1 1828.19   86.72
   2   2   1 1865.54   88.12
   2  -2   1 1895.54   87.01
  -2  -2  -1 1760.55  100.98
  -2  -2  -2  231.55   13.66
   2   2   2  256.97   16.98
  -2  -2  -2  247.35   18.59
   2   2   2  255.04   23.41
  -2  -2  -2  253.90   24.63
  -2  -2  -2  263.11   19.21
  -2  -2  -2  235.31   13.11
   2   2   2  219.54   14.45
   2   2   2  232.50   13.87
   2  -2   2  245.60   13.05
   2  -2   3  545.14   26.82
  -2  -2  -3  566.08   27.87
  -2  -2  -3  570.07   41.38
   2  -2   3  529.56   27.09
  -2  -2  -3  582.97   34.55
   2   2   3  554.14   31.91
  -2  -2  -3  529.12   31.94
   2   2   3  568.31   40.14
   2   2   3  559.45   28.35
  -2  -2  -3  538.06   27.15
  -2  -2  -4   11.51    2.73
   2  -2   4   12.18    2.23
   2   2   4   14.76    4.63
  -2  -2  -4   12.95    3.08
   2   2   4    9.72    4.04
   2   2   4   16.37    8.18
  -2  -2  -4   11.96    2.95
  -2  -2  -5 1465.19   68.31
   2   2   5 1517.60   75.70
  -2  -2  -5 1507.18   78.73
   2   2   5 1412.62   69.38
  -2  -2  -5 1469.69   68.29
   2  -2   5 1420.20   69.63
   2   2   5 1399.68   70.02
   2  -2   5 1539.10   70.24
   2   2   5 1514.43   84.87
  -2  -2  -5 1389.09   68.18
  -2   2  -6  239.35   26.25
   2  -2   6  292.69   17.29
  -2  -2  -6  263.37   15.35
   2  -2   6  248.09   16.34
   2   2   6  247.34   16.27
  -2  -2  -6  243.36   15.44
   2   2   6  258.62   16.96
  -2  -2  -6  254.41   15.24
   2   2   6  293.62   22.26
  -2  -2  -6  275.73   15.30
   2   2   6  273.81   26.90
   2  -2   6  290.17   16.96
   2  -2   7  447.20   24.58
   2   2   7  422.19   30.96
  -2  -2  -7  424.84   23.76
  -2  -2  -7  446.19   23.38
  -2  -2  -7  424.52   23.38
   2   2   7  441.38   24.63
  -2  -2  -8   66.29    6.37
   2   2   8   63.03    7.55
  -2  -2  -8   67.81    7.10
  -2  -2  -8   69.08    6.71
  -2   2  -8   65.60   14.03
   2   2   8   75.89   14.49
   2   2   8   64.68    7.66
   2   2   8   64.56   10.97
   2  -2   8   67.35    7.14
   2  -2   8   67.36    7.71
   2  -2   9   44.74    5.89
  -2  -2  -9   33.33    5.51
  -2   2  -9   25.02   10.00
  -2  -2  -9   37.44    5.25
   2  -2   9   49.30    6.13
   2  -2   9   37.38    6.58
   2   2   9   36.95    9.26
   2   2   9   32.18   11.46
  -2  -2  -9   37.04    4.67
   2   2   9   27.32    5.72
   2   2   9   39.75    6.35
   2   2  10  423.63   36.17
   2  -2  10  448.83   24.21
   2  -2  10  401.42   23.29
  -2  -2 -10  414.65   22.82
   2   2  10  406.32   23.63
  -2  -2 -10  404.27   21.99
   2   2  10  394.90   22.64
   2   2  10  389.86   32.32
  -2   2 -10  454.70   38.26
   2   2  11  192.85   20.69
   2  -2  11  177.15   12.97
   2   2  11  226.92   22.82
   2   2  11  206.56   13.11
  -2  -2 -11  211.12   12.88
   2   2  11  178.39   13.34
   2   2  11  189.50   13.57
   2   2  12    9.49    3.66
  -2  -2 -12    6.69    3.03
   2  -2  12   -5.53   22.04
   2   2  12   14.81    4.33
   2   2  12   12.73    3.75
   2  -2  13   84.97    8.40
  -2  -2 -13   87.32    6.65
   2   2  13   71.37    6.95
   2   2  13   87.27    7.39
   2   2  13   93.76    7.94
  -2  -2 -14   33.92    3.58
   2   2  14   28.66    4.45
   2   2  14   41.98    4.79
   2  -2  15   37.46    9.23
   2   2  15   48.62    4.53
   2   2  16    7.38    1.83
   2  -3 -13    4.83    1.89
   2  -3 -13    4.41    2.00
  -2   3  13    7.50    2.75
  -2   3  13   10.84    2.55
  -2   3  13    3.81    1.90
   2  -3 -12    0.73    1.59
   2  -3 -12    3.92    2.49
  -2   3  12    0.35    2.98
   2  -3 -12    3.32    2.32
  -2   3  12    1.74    3.05
  -2   3  12    3.34    2.41
   2  -3 -11  636.41   30.86
   2  -3 -11  622.60   30.41
  -2   3  11  605.67   29.47
  -2   3  10  161.68   10.80
   2  -3 -10  178.91   12.63
   2  -3 -10  165.86   12.00
   2  -3 -10  154.98   11.15
   2  -3  -9   18.02    4.31
   2  -3  -9    8.89    4.11
  -2  -3   9   13.40    4.00
  -2   3   9   11.27    3.53
   2  -3  -9   14.29    4.76
   2   3  -8    2.66    3.33
   2  -3  -8    5.85    3.91
  -2   3   8    1.39    3.54
  -2  -3   8    0.52    2.57
  -2  -3   8    1.80    2.91
   2  -3  -8    4.72    4.50
   2  -3  -7  291.26   18.37
  -2  -3   7  263.00   17.51
  -2   3   7  315.58   32.04
  -2  -3   7  259.95   16.60
   2  -3  -7  280.88   18.84
  -2   3   7  293.73   17.09
   2   3  -7  250.13   17.20
   2   3  -6  222.48   15.37
   2  -3  -6  236.04   15.62
  -2   3   6  199.38   26.67
   2  -3  -6  223.79   16.24
  -2  -3   6  217.23   14.21
  -2  -3   6  213.99   13.94
   2   3  -6  237.60   16.12
  -2  -3   6  228.47   15.48
   2  -3  -6  233.35   16.67
   2  -3  -5   48.68    7.42
   2   3  -5   52.71    6.49
   2  -3  -5   50.99    6.37
   2  -3  -5   61.59    7.46
  -2  -3   5   59.93    7.00
  -2   3   5   52.03   15.95
  -2  -3   5   55.84    5.87
   2  -3  -4   16.74    5.27
   2  -3  -4   18.77    4.21
  -2  -3   4   20.53    4.49
  -2   3   4   20.04   11.06
   2  -3  -4   23.47    4.78
   2   3  -4   15.83    4.09
  -2  -3   4   19.23    4.16
  -2  -3   3  153.42   11.90
  -2  -3   3  157.66   11.38
   2  -3  -3  175.03   19.64
   2  -3  -3  185.47   12.12
   2  -3  -3  172.63   11.04
   2   3  -3  140.47   11.03
   2   3  -2  370.60   21.83
   2  -3  -2  407.51   21.46
   2   3  -2  388.02   22.48
  -2  -3   2  359.86   22.50
   2  -3  -2  436.48   22.49
   2  -3  -2  452.72   26.63
   2  -3  -2  430.99   23.84
   2   3  -1  331.71   20.02
  -2  -3   1  367.76   20.84
  -2  -3   1  306.29   19.58
   2  -3  -1  347.70   18.69
  -2  -3   1  360.69   19.45
   2  -3  -1  355.47   19.38
   2  -3  -1  385.92   21.05
   2  -3   0   15.99    4.05
  -2  -3   0   17.34    4.14
  -2  -3   0   10.05    3.67
   2  -3   0   11.41    4.15
  -2  -3   0   16.73    5.60
   2  -3   0   15.22    2.99
  -2  -3   0    9.50    3.27
  -2  -3   0    8.81    4.70
   2   3   0   19.01    4.12
   2  -3   1   97.12    8.27
  -2  -3  -1   90.58    8.54
  -2  -3  -1  108.53    8.10
   2   3   1   94.82   14.96
   2   3   1  100.39    8.75
   2  -3   1   91.43    8.44
   2  -3   2  245.84   15.71
  -2  -3  -2  235.96   21.98
   2   3   2  277.86   27.50
  -2  -3  -2  278.44   16.01
   2  -3   2  305.11   21.90
  -2  -3  -2  259.54   15.94
  -2  -3  -2  283.71   17.27
   2   3   2  261.46   17.05
   2  -3   3 1163.03   59.53
  -2  -3  -3 1346.09   61.78
   2   3   3 1194.10   77.20
   2   3   3 1254.85   60.56
   2  -3   3 1289.91   64.33
  -2  -3  -3 1190.53   60.11
  -2  -3  -3 1264.83   71.04
   2   3   3 1295.39   62.17
  -2  -3  -3 1290.37   60.46
   2  -3   4   39.00    4.63
   2   3   4   48.22    6.47
   2  -3   4   44.80   14.34
  -2  -3  -4   43.19    8.95
  -2  -3  -4   35.45    5.61
  -2  -3  -4   36.35    5.31
  -2  -3  -4   38.40    5.51
   2   3   4   50.21   13.63
   2   3   4   40.86    6.87
  -2  -3  -5   14.14    4.32
   2  -3   5   30.64   17.31
   2  -3   5   14.60   10.79
   2   3   5   15.32    5.35
  -2  -3  -5   15.07    4.14
   2   3   5   14.12    4.81
  -2  -3  -5   14.10    4.38
   2  -3   5   12.00    2.66
  -2  -3  -6   24.65    4.69
  -2  -3  -6   15.13    4.35
   2   3   6   28.85   11.24
   2   3   6   17.37    5.34
  -2  -3  -6   21.75    4.76
   2   3   6   22.00    5.53
  -2  -3  -6   26.76    8.47
  -2  -3  -6   17.61    4.21
   2  -3   6   22.07   11.49
  -2  -3  -7  510.95   28.23
   2  -3   7  485.95   32.09
   2   3   7  589.82   46.18
  -2  -3  -7  540.06   28.95
  -2  -3  -7  537.73   29.26
  -2  -3  -7  560.61   41.89
   2   3   7  561.86   29.95
   2   3   7  586.86   30.95
  -2  -3  -8   53.47    6.55
   2   3   8   67.94    7.64
  -2  -3  -8   60.27    6.83
   2   3   8   63.24    7.85
  -2  -3  -9   59.54    6.82
  -2  -3  -9   58.93    6.53
   2   3   9   74.43    7.81
   2   3   9   75.24    7.80
  -2  -3 -10  120.23    9.32
   2   3  10  130.61   10.13
   2   3  11   54.99    6.16
  -2  -3 -11   56.62    5.41
   2   3  11   58.43    6.30
   2   3  11   48.12    5.81
   2   3  12  107.25    8.87
   2  -3  12  145.52   14.62
   2   3  12  150.70    9.60
  -2  -3 -12  138.44    8.50
   2   3  12  136.91    9.22
   2  -3  13   65.96   11.28
   2   3  13   53.13    4.70
  -2   4   9  107.46    7.17
  -2   4   9   81.64    6.90
   2  -4  -8   59.87    5.94
   2  -4  -8   56.62    5.51
  -2   4   8   68.79    6.39
   2  -4  -7    2.67    2.67
  -2   4   7    4.67    3.60
  -2  -4   7    6.35    3.16
   2  -4  -7    6.23    3.24
  -2  -4   6  121.17    8.96
   2  -4  -6  113.85    8.90
   2  -4  -6  136.46   10.82
  -2  -4   6  119.30    9.69
   2  -4  -5  141.86   11.91
   2  -4  -5  126.70    9.64
  -2  -4   5  156.43   11.09
  -2  -4   5  149.52   10.06
   2   4  -4  108.65    9.28
   2  -4  -4  117.76    8.74
  -2  -4   4  128.09   10.25
   2   4  -4  100.35    9.59
  -2  -4   4  141.38    9.41
  -2  -4   3  136.08   10.41
  -2  -4   3  133.91    9.49
   2  -4  -2  105.90    9.61
  -2  -4   2   92.96    7.91
  -2  -4   1   20.66    4.00
   2  -4  -1   10.89    4.47
   2   4  -1   25.92    4.27
   2   4  -1   14.86    4.77
   2   4   0   35.38    5.51
   2  -4   0   51.82    6.34
  -2  -4   0   56.57    5.87
   2   4   0   55.84    7.03
   2  -4   1  122.90   10.00
  -2  -4  -1  161.98   10.77
   2   4   1  130.74   10.66
   2   4   1  132.45   10.31
   2  -4   2   86.55    8.40
   2   4   2  122.93    9.71
   2  -4   2  134.62   23.13
  -2  -4  -2  128.75    9.84
  -2  -4  -2  121.16    9.34
   2   4   2  119.88   10.32
  -2  -4  -3    4.53    4.07
   2   4   3   -1.85    3.47
  -2  -4  -3    2.42    2.73
   2   4   3   -1.13    3.50
   2  -4   3   -8.73   20.24
   2   4   4   95.44    8.91
  -2  -4  -4   85.07    7.52
   2   4   4   87.58    8.04
   2   4   5  105.23    9.63
   2   4   5  107.76    9.14
  -2  -4  -6    2.05    2.89
   2   4   6    2.69    3.46
   2   4   6   -0.44    3.59
  -2  -4  -7    5.04    2.69
   2   4   7    1.96    3.30
   2   4   7    5.79    3.22
   2   4   7    3.39    2.88
   2   4   8   89.03    7.96
   2   4   8   95.94    8.14
   2   4   8   75.67    7.24
   2   4   9   62.72    5.81
   3   0 -18   -2.12    1.58
  -3   0  17  177.46   10.78
   3   0 -17  201.49   11.22
  -3   0  16    1.72    1.94
   3   0 -16    1.87    2.52
  -3   0  15   -1.26    2.56
  -3   0  14    0.96    2.50
   3   0 -14    1.05    3.59
  -3   0  14    3.98    2.49
   3   0 -13 1496.23   70.74
  -3   0  13 1435.53   69.58
   3   0 -13 1489.26   70.40
  -3   0  13 1531.21   71.15
   3   0 -13 1430.49   71.33
   3   0 -12   -1.04    2.79
  -3   0  12    2.01    3.00
  -3   0  12   -2.27    5.09
   3   0 -12    6.00    3.17
   3   0 -12   -0.48    2.70
  -3   0  12   -2.42    5.44
  -3   0  12    2.12    2.70
   3   0 -12   -1.71    3.58
  -3   0  11  179.00   12.74
   3   0 -11  201.93   12.87
  -3   0  11  180.47   21.03
   3   0 -11  185.81   13.31
   3   0 -11  197.06   13.09
   3   0 -10    0.53    2.42
   3   0 -10    4.07    4.93
  -3   0  10    0.49    2.75
  -3   0  10    2.06    3.26
   3   0 -10   -3.76    5.97
  -3   0  10   -2.20    3.48
   3   0 -10    1.46    2.86
   3   0 -10    0.52    3.08
  -3   0   9  310.65   17.48
   3   0  -9  324.47   26.23
  -3   0   9  278.96   21.95
   3   0  -9  291.22   16.29
  -3   0   9  305.91   27.23
   3   0  -9  299.39   17.52
   3   0  -9  294.03   16.98
   3   0  -9  298.60   26.19
   3   0  -9  264.26   17.24
   3   0  -8   -0.50    2.85
   3   0  -8    3.28    3.68
   3   0  -8   -3.24    4.45
  -3   0   8    5.26    4.82
   3   0  -8    3.35    2.13
   3   0  -8    1.38    2.73
   3   0  -8    1.58    2.29
  -3   0   8    0.93    2.68
   3   0  -7  122.79    8.02
   3   0  -7  105.19    8.22
  -3   0   7  131.07   14.63
   3   0  -7  106.66    7.80
   3   0  -7  111.15    7.48
  -3   0   7  118.68    8.26
   3   0  -6    0.48    3.06
   3   0  -6   -3.89    5.69
   3   0  -6   -0.43    2.75
  -3   0   6   -1.29    3.73
   3   0  -6   -1.05    2.58
   3   0  -6   -0.89    2.03
   3   0  -6    0.62    2.22
  -3   0   5   38.34    7.10
   3   0  -5   40.13    5.19
   3   0  -5   37.72    7.67
  -3   0   4    1.91    3.27
  -3   0   3  647.28   34.13
   3   0  -3  534.30   31.53
  -3   0   2    0.95    3.48
   3   0  -2    4.20    2.88
   3   0  -2    0.88    3.34
  -3   0   2   -0.77    3.17
  -3   0   1  981.37   48.72
   3   0  -1 1038.77   52.15
   3   0   0    0.78    2.56
  -3   0   0    1.98    2.17
   3   0   1 9259.72  409.47
   3   0   1 9212.92  412.02
  -3   0  -1 9708.26  411.47
   3   0   1 8881.20  410.46
  -3   0  -1 8843.14  406.96
   3   0   1 8566.07  408.05
   3   0   2    2.89    2.42
  -3   0  -2    0.79    2.23
   3   0   2   -2.05    2.94
   3   0   2    2.45    2.70
   3   0   3  125.96   10.37
  -3   0  -3  123.71   11.58
  -3   0  -3  124.92   10.12
   3   0   3  130.24   12.07
   3   0   3  109.46   10.36
   3   0   4   -1.32    5.66
   3   0   4    0.74    3.47
   3   0   5 3385.86  159.56
   3   0   5 3452.00  158.38
   3   0   5 3282.32  152.98
   3   0   5 3425.32  163.84
  -3   0  -6    3.25    3.14
   3   0   6    1.57    5.75
  -3   0  -6    3.80    3.84
   3   0   6    1.00    3.32
   3   0   6   -0.37    3.59
   3   0   6   -0.37    3.31
   3   0   6    2.30    3.65
   3   0   7   20.94    4.07
   3   0   7   23.30    6.21
  -3   0  -7   19.76    5.42
  -3   0  -7   35.48    7.96
   3   0   7   21.38    4.94
   3   0   7   16.39    7.27
   3   0   7   23.42    4.23
   3   0   7   30.72    6.99
   3   0   8   -2.67    5.19
   3   0   8   -1.67    5.72
   3   0   8    0.83    3.17
   3   0   8   -1.71    4.06
   3   0   8   -1.53    4.44
   3   0   8    1.95    3.17
  -3   0  -8    9.70    4.16
  -3   0  -8   -1.71    4.14
   3   0   9    3.29    5.67
   3   0   9   13.63    4.30
   3   0   9   17.29    6.36
   3   0   9   13.19    3.88
   3   0   9   13.54    5.87
   3   0   9   14.56    3.59
   3   0  10   -0.40    2.38
  -3   0 -10   -2.09    5.73
  -3   0 -10    0.39    2.58
   3   0  10   -1.76    3.73
   3   0  10   -1.64    4.50
   3   0  10    0.97    3.26
   3   0  10    1.88    4.56
  -3   0 -11    4.40    6.06
   3   0  11    5.52    3.76
   3   0  11    5.20    4.78
   3   0  11   10.15    3.62
   3   0  11   17.16    3.43
  -3   0 -11    7.27    3.29
   3   0  11    9.99    6.61
   3   0  12   -2.05    5.31
  -3   0 -12    6.85    5.53
   3   0  12   -1.53    3.22
   3   0  12    1.77    4.29
  -3   0 -12    4.49    5.43
   3   0  13   32.99    4.66
  -3   0 -13   19.63    8.07
   3   0  13   17.28    5.13
  -3   0 -13   22.15    6.82
   3   0  13   32.41    9.34
   3   0  14    0.82    3.00
   3   0  15  782.76   39.19
   3   0  15  827.41   39.51
   3   0  16    2.09    1.76
   3   0  16    0.29    1.74
  -3   0 -17   53.86    4.42
   3   0  17   36.90    3.72
  -3   0 -18    0.75    1.03
   3   1 -17  249.80   13.00
   3  -1 -17  239.19   12.92
   3   1 -16    1.22    2.35
   3  -1 -16    0.92    2.24
  -3   1  16    1.89    1.97
  -3  -1  16    1.79    1.84
   3  -1 -16    3.06    1.64
  -3   1  16    2.11    2.19
  -3   1  15  278.92   15.53
  -3  -1  15  262.23   15.21
   3  -1 -15  280.47   16.01
   3  -1 -15  268.33   14.90
   3   1 -15  266.80   15.78
  -3   1  15  282.31   15.62
  -3  -1  14    5.20    2.49
  -3   1  14    7.04    2.61
   3  -1 -14    4.86    3.54
   3   1 -14    2.35    3.11
  -3   1  14    3.86    2.97
   3  -1 -13   13.36    2.81
   3   1 -13   16.78    3.82
  -3  -1  13   16.11    3.40
  -3   1  13    9.19    3.67
  -3  -1  13   10.38    2.56
  -3   1  13   13.36    3.47
   3  -1 -12  108.79    8.91
  -3  -1  12   92.77    8.08
  -3  -1  12   93.99    7.72
   3   1 -12  107.29    8.42
  -3   1  12   99.74    8.31
  -3   1  12  112.47    9.09
  -3   1  12  105.19   15.93
   3  -1 -12   91.77    8.88
   3   1 -12   95.94    8.80
   3  -1 -12   97.32    7.56
   3   1 -12  106.71    8.91
   3   1 -11   12.02    3.66
  -3   1  11    2.22    4.56
  -3   1  11    1.96    2.59
  -3  -1  11   10.99    3.31
   3  -1 -11    8.69    2.80
  -3   1  11    2.32    4.76
  -3  -1  11    7.83    5.08
   3   1 -11   -2.55    7.01
  -3  -1  11    2.19    4.91
   3  -1 -11    7.50    4.20
   3   1 -11    5.40    3.61
   3  -1 -11    9.93    3.36
  -3  -1  11    4.68    2.26
  -3  -1  10  201.99   13.02
  -3  -1  10  188.01   20.53
   3  -1 -10  192.97   13.34
   3  -1 -10  202.94   19.77
  -3   1  10  224.37   20.87
  -3  -1  10  197.53   19.41
  -3  -1  10  196.92   12.48
  -3   1  10  187.93   21.85
   3  -1 -10  188.15   13.64
   3   1 -10  213.25   13.77
  -3   1  10  207.70   13.21
   3   1 -10  196.50   13.98
  -3   1   9  802.05   39.97
  -3  -1   9  771.41   39.76
   3  -1  -9  868.09   41.14
   3   1  -9  637.74   51.55
   3  -1  -9  703.17   48.71
  -3  -1   9  775.03   49.33
   3  -1  -9  831.06   41.38
   3   1  -9  832.22   39.83
  -3  -1   9  820.07   39.58
   3  -1  -9  774.76   40.56
  -3  -1   9  816.34   50.76
   3   1  -9  771.13   40.78
  -3   1   9  745.51   51.17
  -3  -1   9  773.26   51.38
  -3   1   9  843.41   53.19
   3   1  -9  806.26   40.42
   3  -1  -8  276.71   17.04
   3   1  -8  268.70   16.90
   3  -1  -8  290.01   16.96
   3  -1  -8  247.12   15.85
   3   1  -8  275.00   15.95
  -3   1   8  272.00   24.29
  -3  -1   8  306.93   24.40
   3   1  -8  259.55   26.28
   3  -1  -8  240.90   21.59
  -3  -1   8  239.63   14.86
  -3  -1   8  275.79   24.04
   3   1  -8  278.16   15.70
  -3   1   8  291.21   24.99
  -3  -1   8  272.32   24.40
   3   1  -8  282.95   17.67
  -3   1   8  266.30   15.71
  -3  -1   8  271.75   15.71
   3   1  -7  294.76   16.65
   3  -1  -7  274.04   16.36
   3   1  -7  254.69   14.48
  -3  -1   7  257.35   21.77
   3  -1  -7  252.68   20.27
   3   1  -7  255.41   14.94
  -3   1   7  263.43   22.66
  -3   1   7  243.16   22.31
  -3  -1   7  245.79   14.12
  -3  -1   7  228.08   21.28
   3  -1  -7  265.68   16.41
   3   1  -7  235.61   16.39
   3   1  -6 1622.48   72.72
   3   1  -6 1543.44   70.79
  -3   1   6 1433.88   79.55
  -3  -1   6 1475.48   78.79
  -3  -1   6 1564.70   83.75
  -3   1   6 1441.93   70.80
  -3  -1   6 1459.31   70.22
  -3  -1   6 1427.64   70.74
   3   1  -6 1579.69   71.16
  -3   1   6 1478.30   80.03
  -3  -1   6 1457.20   79.60
   3   1  -6 1584.86   71.56
   3  -1  -6 1538.29   76.25
   3   1  -6 1647.69   73.57
   3  -1  -5  619.51   31.50
  -3  -1   5  582.94   34.72
   3   1  -5  604.63   28.69
  -3  -1   5  541.78   34.86
  -3  -1   5  583.85   34.29
   3   1  -5  610.55   29.27
   3  -1  -5  535.82   29.39
  -3   1   5  574.48   35.49
  -3  -1   5  551.60   27.78
   3   1  -5  599.70   29.98
  -3   1   5  583.18   35.76
   3  -1  -5  543.10   29.12
   3   1  -5  587.52   28.84
   3  -1  -4  123.45   10.05
   3   1  -4  114.37    8.44
   3   1  -4  115.90    7.88
   3  -1  -4  115.53    9.73
  -3  -1   4  113.52   10.80
  -3   1   4  123.46   12.15
   3  -1  -4  112.41    8.47
  -3  -1   4  125.23   12.96
  -3   1   4   95.64   10.97
   3   1  -4  117.49    8.07
  -3  -1   4  106.30   11.22
   3  -1  -4  104.84    8.91
   3  -1  -4  112.22    8.42
   3   1  -4  124.36    8.96
   3   1  -3 3294.52  149.52
   3  -1  -3 3217.05  155.23
  -3   1   3 3552.05  155.40
   3   1  -3 3249.49  154.99
  -3  -1   3 3254.56  154.14
   3  -1  -3 3296.60  149.91
  -3  -1   3 3175.13  153.94
  -3   1   3 3308.09  154.55
  -3  -1   3 3050.18  152.38
  -3   1   2   37.95    6.03
  -3  -1   2   44.48    6.31
  -3   1   2   45.07    6.93
   3   1  -2   35.98    6.20
   3  -1  -2   46.46    6.63
   3   1  -2   45.78    6.49
  -3  -1   1  441.20   25.36
  -3  -1   1  413.90   29.45
   3   1  -1  407.91   26.01
  -3   1   1  409.54   25.03
  -3  -1   1  423.39   25.07
   3   1  -1  427.89   25.72
   3  -1  -1  417.38   25.54
   3   1   0  178.74   13.96
   3  -1   0  187.93   14.13
  -3  -1   0  174.01   17.02
   3   1   1  170.74   13.46
   3   1   1  213.86   17.74
   3  -1   1  198.92   14.51
  -3  -1  -1  198.06   14.35
   3   1   1  168.07   13.92
   3   1   2   53.46   10.26
  -3   1  -2   51.16    6.38
   3   1   2   60.98    7.63
  -3  -1  -2   56.64    7.15
   3  -1   2   54.57    6.71
   3   1   2   63.46    7.62
   3  -1   2   51.74    7.09
   3   1   2   65.22    7.25
  -3  -1  -3  914.21   52.30
   3   1   3  852.27   42.44
   3   1   3  847.06   42.61
  -3   1  -3  886.63   47.34
   3   1   3  942.50   46.78
   3   1   3  890.38   52.35
   3  -1   3  942.85   46.72
   3   1   3  892.44   46.72
   3   1   3  867.62   42.17
  -3  -1  -3  865.02   46.92
   3  -1   3  852.40   43.49
  -3   1  -4   43.21    6.39
  -3   1  -4   38.75    7.64
   3   1   4   54.10   11.85
   3  -1   4   34.47    4.98
   3   1   4   44.29    5.42
   3  -1   4   54.49    7.65
  -3  -1  -4   55.78    9.65
   3   1   4   50.41    7.31
   3   1   4   44.50    4.28
   3   1   4   40.38    5.48
   3   1   4   52.67    7.73
   3   1   5 1551.84   77.11
  -3  -1  -5 1546.68   80.96
   3   1   5 1566.05   77.23
  -3   1  -5 1562.30   80.04
   3  -1   5 1448.44   69.55
   3  -1   5 1570.84   77.31
   3  -1   5 1474.40   73.48
  -3   1  -5 1525.68   77.67
   3   1   5 1567.74   71.18
   3  -1   5 1506.79   70.43
   3  -1   5 1546.96   69.55
   3   1   5 1437.08   69.79
   3   1   5 1452.48   70.79
   3   1   5 1487.80   69.40
  -3   1  -6  291.15   22.54
  -3  -1  -6  279.59   22.52
   3   1   6  282.39   21.82
   3  -1   6  292.84   19.62
   3  -1   6  292.02   22.26
  -3  -1  -6  289.77   24.01
  -3  -1  -6  293.33   24.98
   3  -1   6  278.82   16.30
   3   1   6  294.96   17.05
   3   1   6  295.22   21.95
   3   1   6  286.06   25.91
   3   1   6  276.47   17.17
   3   1   6  272.28   15.90
   3  -1   6  293.25   15.69
   3   1   6  286.35   16.42
  -3   1  -7  509.15   34.34
  -3  -1  -7  541.00   34.89
  -3  -1  -7  512.78   25.78
   3  -1   7  559.62   34.85
   3   1   7  511.37   33.27
   3   1   7  512.00   33.72
   3  -1   7  509.18   30.86
   3  -1   7  507.95   26.31
   3   1   7  522.83   37.91
   3  -1   7  464.46   25.22
  -3   1  -7  511.09   36.04
  -3  -1  -7  470.60   36.88
   3   1   7  528.01   26.93
   3  -1   7  443.52   25.49
   3   1   7  491.52   25.66
  -3  -1  -7  503.71   35.25
   3   1   7  467.20   25.47
  -3   1  -8  663.34   43.35
  -3  -1  -8  714.85   44.00
   3  -1   8  692.47   43.31
   3   1   8  644.34   41.61
   3  -1   8  594.99   38.34
  -3  -1  -8  644.68   33.04
  -3  -1  -8  697.75   43.65
   3  -1   8  608.80   33.04
   3   1   8  619.01   41.18
  -3   1  -8  625.62   43.96
  -3  -1  -8  665.16   47.33
   3   1   8  712.99   46.71
   3  -1   8  635.47   32.72
   3   1   8  682.91   33.88
   3  -1   8  630.75   32.59
   3  -1   8  610.56   32.53
   3   1   8  672.07   33.92
   3   1   8  671.16   33.04
  -3  -1  -9  272.91   25.11
  -3   1  -9  294.97   25.74
  -3  -1  -9  304.16   26.46
   3  -1   9  265.27   25.08
   3   1   9  302.60   25.71
   3   1   9  300.66   25.29
   3  -1   9  281.58   22.91
  -3  -1  -9  311.57   17.74
   3  -1   9  276.20   17.11
   3   1   9  261.00   16.70
  -3   1  -9  291.58   26.84
  -3  -1  -9  327.53   30.69
   3  -1   9  277.82   16.70
   3   1   9  309.47   18.10
   3   1   9  308.19   17.90
   3   1   9  305.39   17.47
   3  -1   9  289.25   16.94
   3  -1  10   10.07    6.66
   3   1  10    1.88    5.16
   3   1  10   10.98    4.12
  -3   1 -10   -1.98    5.13
  -3  -1 -10   17.80    7.47
  -3  -1 -10    5.33    6.91
   3   1  10    1.85    4.49
   3  -1  10   13.02    3.98
   3  -1  10    3.34    2.69
   3  -1  10    5.76    3.41
   3   1  10    8.31    3.59
   3   1  10    5.29    4.03
   3  -1  11  570.12   29.95
   3  -1  11  597.02   42.12
   3   1  11  575.16   40.97
   3   1  11  574.72   40.61
  -3   1 -11  581.57   42.48
  -3  -1 -11  549.90   44.75
   3   1  11  572.12   30.53
  -3   1 -11  540.37   40.70
   3   1  11  564.33   29.89
   3   1  11  560.40   30.18
   3  -1  11  573.18   29.72
  -3  -1 -11  588.45   30.70
  -3  -1 -11  561.49   41.02
  -3  -1 -12  582.32   30.61
   3  -1  12  536.45   41.14
   3   1  12  608.75   41.40
   3   1  12  445.53   38.61
   3  -1  12  589.46   29.82
  -3   1 -12  566.82   41.32
  -3  -1 -12  580.41   45.08
   3   1  12  595.82   30.33
   3  -1  12  567.51   29.28
   3   1  12  528.68   29.09
   3   1  12  599.33   30.41
  -3   1 -12  535.06   40.57
  -3  -1 -12  608.45   41.96
  -3  -1 -13    9.57    3.83
   3   1  13    1.70    3.58
   3  -1  13    5.15    2.73
   3  -1  13    3.98    2.66
   3  -1  13    4.80    3.02
   3   1  13    1.24    2.58
   3  -1  14   38.58    4.33
   3   1  14   31.57    4.46
   3   1  14   44.27    4.74
   3  -1  14   38.79    4.58
  -3  -1 -15   41.13    4.42
   3  -1  15   28.30    3.85
   3   1  15   34.57    4.04
   3  -1  15   40.93    4.13
  -3   1 -16    0.25    2.08
   3  -1  16   -0.52    1.76
   3  -1  16    1.56    1.51
   3   1  16    2.02    1.89
  -3  -1 -16    0.74    1.79
   3   1  16   -1.51    1.63
  -3   1 -17   89.20    5.67
  -3  -1 -17   83.83    5.63
  -3   2  15   27.00    3.43
   3  -2 -15   22.59    2.79
   3  -2 -14   41.15    4.21
  -3   2  14   48.65    5.02
  -3   2  13  140.47    9.80
  -3   2  13  143.40    9.70
   3  -2 -13  130.04    9.12
  -3  -2  13  125.43    9.13
   3  -2 -13  133.69    8.70
   3  -2 -12   51.64    5.69
  -3  -2  12   53.33    5.68
  -3   2  12   48.81    6.16
   3  -2 -12   66.20    5.69
   3   2 -11    3.70    3.29
  -3  -2  11    3.84    2.78
  -3  -2  11    1.89    1.73
   3  -2 -11    0.90    2.60
   3  -2 -11   -3.01    3.44
  -3   2  11   -1.02    3.74
   3   2 -10  793.04   40.18
  -3   2  10  692.04   49.26
  -3   2  10  810.70   54.11
  -3  -2  10  691.93   50.46
   3  -2 -10  806.54   39.79
  -3  -2  10  718.07   38.86
   3  -2 -10  799.10   39.32
   3   2 -10  783.17   41.22
   3   2  -9  482.37   26.39
  -3  -2   9  411.37   24.33
   3   2  -9  561.72   45.74
  -3   2   9  373.69   32.71
  -3  -2   9  428.80   36.42
   3  -2  -9  507.66   25.79
  -3  -2   9  425.64   24.45
   3   2  -9  459.95   27.16
   3   2  -8  834.85   41.44
  -3  -2   8  780.04   39.42
  -3  -2   8  735.43   38.90
   3   2  -8  803.96   42.21
   3  -2  -8  815.08   40.65
   3  -2  -7   21.68    5.26
   3   2  -7   21.29    4.93
  -3   2   7   10.59    5.68
  -3  -2   7   29.55    4.06
   3  -2  -7   20.78    5.40
  -3   2   7    9.25    7.98
  -3  -2   7   28.44    9.81
   3   2  -6    6.01    3.41
   3  -2  -6    2.04    3.63
   3   2  -6    4.76    3.45
  -3   2   6   -1.59    3.26
  -3  -2   6   13.19    6.84
   3   2  -6    8.63    2.98
  -3  -2   6    2.69    1.93
   3  -2  -6    4.49    4.08
   3   2  -5    9.68    3.97
   3  -2  -5   19.64    4.75
   3   2  -5   13.64    3.89
  -3   2   5   11.33    4.72
   3   2  -5   16.47    3.56
  -3  -2   5   18.59    8.45
  -3  -2   5   10.66    2.64
   3  -2  -5   15.02    4.77
   3  -2  -5   20.97    4.66
   3   2  -5   14.72    3.26
   3   2  -5   14.35    3.54
   3   2  -4 1157.48   56.44
  -3  -2   4 1200.70   56.04
   3   2  -4 1141.62   56.77
   3   2  -4 1210.29   57.25
   3  -2  -4 1264.83   57.87
   3   2  -4 1149.24   56.99
  -3   2   4 1164.51   63.93
  -3  -2   3   66.77   10.27
  -3  -2   3   76.92   14.45
   3   2  -3   71.32    6.59
   3   2  -3   62.69    5.99
   3  -2  -3   68.16    5.42
  -3  -2   3   83.69    5.87
   3   2  -3   68.08    6.44
   3  -2  -3   87.35    6.74
   3   2  -3   69.53    6.67
  -3   2   3   57.43    8.71
   3  -2  -3   79.87    7.34
   3   2  -2  680.08   34.51
  -3   2   2  687.53   39.66
  -3  -2   2  684.53   40.63
   3  -2  -2  681.29   32.87
   3   2  -2  698.64   35.10
  -3  -2   2  636.89   44.17
   3  -2  -2  703.61   33.90
   3   2  -2  670.48   35.00
   3   2  -2  699.37   35.19
  -3  -2   2  701.99   49.66
   3  -2  -2  713.57   35.10
  -3  -2   1  188.47   20.09
  -3  -2   1  192.85   21.45
   3   2  -1  171.62   11.37
   3   2  -1  198.94   17.02
  -3  -2   1  198.63   16.27
   3  -2  -1  161.67    9.99
   3   2  -1  177.31   11.64
   3  -2  -1  173.08   11.10
  -3  -2   0  170.60   19.11
  -3  -2   0  158.51   20.22
  -3   2   0  163.19   14.32
  -3  -2   0  175.84   10.40
   3   2   0  181.94   17.93
  -3  -2   0  195.77   16.42
   3   2   0  173.16   11.25
   3   2   0  180.21   11.87
   3   2   0  178.00   12.32
   3  -2   0  187.61   11.09
  -3  -2  -1  592.32   28.58
   3   2   1  533.46   37.53
  -3  -2  -1  482.96   40.64
  -3  -2  -1  531.23   27.11
  -3  -2  -1  613.67   38.48
   3   2   1  557.90   27.53
   3   2   1  578.93   29.10
   3   2   1  536.48   28.41
   3  -2   1  530.63   27.27
   3  -2   2   13.26    2.46
  -3  -2  -2    8.08    2.96
  -3  -2  -2   16.51    2.78
  -3  -2  -2   11.72    7.45
   3   2   2    9.60    3.64
  -3  -2  -2   11.86    4.21
   3   2   2   11.35    3.67
   3   2   2   14.82    7.41
  -3  -2  -3   32.87    4.40
   3   2   3   34.34    6.50
   3  -2   3   30.50    4.53
   3  -2   3   23.31    4.97
  -3  -2  -3   30.51    9.93
   3   2   3   28.83    9.14
  -3  -2  -3   29.68    3.56
   3   2   3   28.19    4.74
   3   2   3   24.72    5.21
  -3  -2  -4  461.60   23.15
  -3  -2  -4  428.08   22.29
   3  -2   4  386.99   24.22
   3   2   4  416.32   36.41
  -3   2  -4  423.71   28.62
  -3  -2  -4  411.15   22.72
   3   2   4  475.49   24.09
  -3  -2  -4  435.59   22.32
   3   2   4  435.45   28.95
   3   2   4  458.78   24.82
   3  -2   4  421.17   22.66
   3  -2   5  230.60   14.18
   3  -2   5  234.44   15.82
  -3  -2  -5  229.85   25.16
  -3  -2  -5  229.04   14.21
  -3  -2  -5  235.13   13.69
   3   2   5  258.55   26.33
   3  -2   5  251.97   16.15
   3   2   5  247.31   15.28
   3   2   5  244.63   15.91
   3   2   5  224.44   13.43
   3   2   5  261.86   21.13
   3   2   6  381.87   28.99
  -3  -2  -6  440.89   35.49
  -3  -2  -6  366.30   21.47
  -3  -2  -6  389.90   20.99
   3  -2   6  386.76   21.72
   3  -2   6  423.07   23.30
   3   2   6  407.25   22.94
  -3  -2  -6  386.65   20.87
   3   2   6  427.37   23.37
   3   2   6  409.15   35.35
   3   2   6  369.01   20.74
   3  -2   6  378.06   22.93
   3  -2   7   43.31    6.40
  -3  -2  -7   44.13    5.15
   3  -2   7   46.76    6.90
   3  -2   7   54.88    6.51
  -3  -2  -7   49.25    6.09
   3   2   7   44.06    9.68
   3   2   7   47.68    6.61
   3   2   7   53.45    5.75
   3   2   7   44.31    6.00
   3   2   8  263.33   24.78
  -3  -2  -8  280.41   16.49
   3   2   8  283.55   18.15
   3   2   8  295.56   16.95
   3   2   9    7.79    6.17
  -3  -2  -9   -0.42    2.71
   3  -2   9   -1.19    3.77
   3   2   9    0.58    4.26
   3   2   9    1.41    3.13
   3   2   9   -0.59    3.65
   3   2   9    4.11    2.58
   3   2   9    2.58    7.46
   3   2  10  858.93   56.73
   3  -2  10  951.48   51.00
  -3  -2 -10  902.82   44.71
   3  -2  10  987.00   46.66
   3   2  10  832.08   45.75
   3   2  10  929.68   46.58
   3   2  10  955.93   45.66
   3  -2  10  897.79   46.00
   3   2  10  891.49   60.75
  -3  -2 -11  141.45   11.18
   3  -2  11  150.23   10.92
  -3  -2 -11  146.07    9.54
   3  -2  11  131.79   12.53
   3   2  11  134.33   10.25
   3   2  11  145.99   11.06
   3   2  11  144.37   10.38
   3  -2  12  182.22   11.58
  -3  -2 -12  183.38   11.98
   3   2  12  179.06   11.88
   3   2  12  184.63   11.43
   3   2  12  163.88   11.41
   3  -2  13    3.71    3.18
   3   2  13   -0.80    3.20
   3   2  13    1.02    2.56
   3  -2  14  150.62    9.81
   3   2  14  139.70    9.33
   3   2  14  154.29    9.54
   3  -2  15  159.75    8.51
   3   2  15  146.53    8.30
   3  -2  16   45.69    3.20
   3  -3 -13   23.29    2.76
  -3   3  12  113.60    7.54
   3  -3 -12  103.61    7.05
  -3   3  12  102.66    6.74
   3  -3 -12  104.68    7.12
   3  -3 -11   22.81    3.63
   3  -3 -11   27.86    4.24
  -3   3  11   31.08    3.95
   3  -3 -10  181.57   12.10
  -3   3  10  182.80   11.40
   3  -3 -10  170.50   11.74
   3  -3  -9    4.33    3.44
   3   3  -9    3.14    3.41
  -3  -3   9    0.51    2.40
   3  -3  -9   -0.52    3.47
   3  -3  -9   -2.41    4.01
  -3   3   9    0.41    2.65
   3   3  -8   68.86    7.59
   3  -3  -8   68.92    7.65
  -3  -3   8   85.74    8.02
  -3  -3   8   63.61    6.68
   3  -3  -8   77.96    8.78
  -3   3   8   83.19    7.49
   3   3  -8   84.38    8.97
   3  -3  -8   78.67    8.41
   3   3  -7   35.67    6.13
   3  -3  -7   27.79    6.23
   3   3  -7   22.18    5.09
   3  -3  -7   27.22    4.90
  -3   3   7   45.58   12.56
  -3  -3   7   25.65    4.30
   3  -3  -7   18.74    5.61
  -3   3   7   23.23    4.70
  -3  -3   7   24.44    4.70
   3   3  -6  635.88   34.70
   3  -3  -6  637.31   33.24
  -3  -3   6  596.48   32.79
   3  -3  -6  657.40   35.62
  -3  -3   6  658.06   34.62
   3   3  -6  620.30   35.47
  -3   3   6  605.21   50.36
   3  -3  -6  677.85   36.36
   3   3  -5  274.59   17.57
  -3  -3   5  250.52   17.20
   3  -3  -5  268.79   15.95
  -3  -3   5  235.74   31.41
  -3  -3   5  250.50   15.64
   3  -3  -5  263.07   17.50
   3   3  -5  258.70   17.78
   3   3  -4   71.78    7.86
  -3  -3   4   81.18    8.28
   3  -3  -4   71.57    6.45
  -3  -3   4   69.99   16.62
   3   3  -4   75.91    7.23
   3   3  -4   57.97    6.42
  -3  -3   4   67.16    6.44
   3  -3  -4   66.33    7.33
   3   3  -4   61.60    7.07
   3  -3  -3   12.45    2.80
   3  -3  -3    6.52    4.61
   3   3  -3    7.94    3.37
  -3  -3   3    6.57    3.62
  -3  -3   3   -3.36    6.17
   3   3  -3   10.80    3.41
  -3  -3   3    8.78    2.72
   3  -3  -3    5.42    3.27
   3   3  -3    2.81    3.06
   3   3  -3    7.49    3.06
   3   3  -2  403.15   23.33
   3   3  -2  391.61   22.69
   3  -3  -2  382.30   21.12
  -3  -3   2  386.84   37.70
   3  -3  -2  473.35   28.15
  -3  -3   2  422.68   24.07
   3  -3  -2  409.19   22.22
   3   3  -2  424.41   24.23
   3  -3  -2  450.64   24.62
   3   3  -1  149.22   11.48
  -3  -3   1  149.79   11.54
   3  -3  -1  153.12   17.50
   3   3  -1  148.69   11.77
  -3   3   1  169.12   27.13
  -3  -3   1  168.70   10.93
   3  -3  -1  150.06   10.09
   3   3  -1  164.16   12.45
   3   3  -1  155.93   11.91
   3  -3  -1  169.96   12.06
   3   3   0  207.86   14.39
   3  -3   0  243.44   15.34
  -3  -3   0  237.62   21.12
  -3   3   0  253.71   31.62
  -3  -3   0  185.50   13.09
   3   3   0  211.03   14.70
   3  -3   0  212.46   13.90
   3  -3   1    3.64    2.95
   3   3   1   -1.82    3.47
   3  -3   1    5.70    4.66
   3   3   1    1.43    3.43
   3   3   1    2.78    4.02
   3  -3   2  412.93   22.87
  -3  -3  -2  407.40   23.42
   3   3   2  453.42   25.32
  -3  -3  -2  440.33   23.39
   3   3   2  441.74   36.77
   3  -3   2  444.75   23.85
   3  -3   2  470.28   26.89
  -3  -3  -2  468.58   33.71
  -3  -3  -2  409.98   23.13
   3  -3   2  407.09   26.37
   3   3   2  418.34   24.26
   3   3   2  439.48   26.33
   3  -3   3  545.53   31.37
  -3  -3  -3  635.47   32.97
  -3  -3  -3  640.29   32.63
   3  -3   3  666.13   33.60
   3   3   3  616.38   47.30
   3  -3   3  643.73   32.77
  -3  -3  -3  685.33   44.63
   3  -3   3  543.27   35.11
   3   3   3  685.94   35.09
   3   3   3  665.99   32.78
  -3  -3  -3  651.24   32.62
   3   3   3  664.02   34.23
   3  -3   3  665.44   36.33
  -3  -3  -4   81.50    8.35
   3   3   4   85.36    9.41
   3  -3   4   89.74    9.86
  -3  -3  -4  124.80   16.20
  -3  -3  -4   96.20    8.11
   3  -3   4   94.80    8.25
   3  -3   4   90.80   10.27
   3   3   4  108.59   18.25
  -3  -3  -4   95.98    8.45
   3   3   4  104.58    8.81
   3   3   4  102.25    9.72
   3   3   5    2.82    9.34
  -3  -3  -5   19.27    7.89
  -3  -3  -5   17.29    4.05
   3  -3   5   26.51    6.50
   3   3   5   13.67    4.96
  -3  -3  -5   27.46    4.86
   3   3   5   18.08    4.70
  -3  -3  -5   20.29    4.40
   3   3   5   24.48    5.69
   3   3   5   18.84    5.58
  -3  -3  -6  156.89   11.19
   3   3   6  139.57   12.58
   3   3   6  176.94   22.91
  -3  -3  -6  156.60   11.17
   3   3   6  169.91   12.63
   3   3   6  149.86   11.88
  -3  -3  -7   62.90    6.76
   3  -3   7   42.80    8.69
   3  -3   7   44.59   15.09
   3   3   7   50.97    6.70
   3   3   7   74.11    7.97
  -3  -3  -7   58.21    6.20
   3   3   8  470.52   26.22
  -3  -3  -8  460.41   24.30
   3  -3   8  456.53   26.76
   3   3   8  450.66   25.19
   3   3   8  454.76   25.67
   3   3   8  407.42   24.84
  -3  -3  -8  441.96   24.49
  -3  -3  -9   34.67    4.33
   3  -3   9   28.53    9.94
   3   3   9   27.11    5.08
   3   3   9   25.26    4.66
   3   3   9   29.76    5.43
   3   3   9   25.61    5.36
  -3  -3  -9   32.33    4.80
  -3  -3 -10   14.56    3.56
   3   3  10   20.09    4.46
   3  -3  10    6.11   25.93
  -3  -3 -10   11.77    2.79
   3   3  10   10.55    3.53
   3   3  11   31.51    4.44
  -3  -3 -11   36.44    3.68
   3   3  11   26.29    4.15
   3   3  11   40.08    4.95
   3   3  11   39.28    4.81
   3  -3  12  299.95   19.47
   3   3  12  342.35   16.89
   3   3  12  281.80   16.46
   3  -3  13    5.35    8.44
   3  -3  13    2.75    1.56
  -3  -4   8   29.42    3.75
  -3   4   8   25.37    3.78
   3  -4  -7   58.61    6.09
  -3   4   7   68.42    6.08
  -3  -4   7   63.30    6.31
   3   4  -6    0.88    2.71
   3  -4  -6   -3.59    3.18
  -3  -4   6    0.88    3.92
   3   4  -5  116.60    9.12
   3   4  -5  102.20    9.31
   3  -4  -4   66.78    7.86
   3   4  -4   58.09    6.71
  -3  -4   4   73.82    7.59
   3   4  -4   70.93    7.53
   3   4  -3   30.72    5.37
   3  -4  -3   23.30    5.21
   3   4  -3   33.61    5.30
   3   4  -2   23.35    5.17
   3  -4  -2   32.49    5.40
   3   4  -2   26.88    5.19
  -3  -4   2   34.92    4.57
   3   4  -2   26.75    4.71
   3  -4  -1  299.46   18.05
   3   4  -1  283.45   18.74
   3   4  -1  257.61   16.99
   3   4  -1  287.26   17.44
   3   4  -1  308.46   18.48
   3  -4   0  187.84   13.20
   3   4   0  227.54   14.85
   3   4   0  196.60   13.63
   3   4   0  189.02   13.56
   3  -4   1   26.08    4.37
   3   4   1   26.69    4.64
   3   4   1   41.26    5.49
   3   4   1   35.75    5.30
  -3  -4  -1   38.31    5.05
   3   4   1   31.38    5.74
   3   4   2  134.64   11.59
  -3  -4  -2  184.91   11.91
  -3  -4  -2  178.05   11.30
   3   4   2  164.39   12.56
   3   4   2  142.89   11.03
   3  -4   2  187.50   22.84
   3  -4   3   85.82   20.02
   3   4   3   82.84    7.80
   3   4   3   73.79    7.88
  -3  -4  -3   91.19    7.43
  -3  -4  -3   78.43    7.48
   3   4   3   79.50    8.27
   3   4   4   99.96    8.81
   3   4   4   95.76    8.78
   3   4   4  109.30    9.35
   3  -4   4  111.18   19.56
   3   4   4   89.96    7.67
   3   4   4   99.99    9.21
   3   4   5   69.90    7.53
   3   4   5   79.00    7.78
   3  -4   5   77.09   17.82
   3   4   5   72.71    7.39
   3   4   5   81.48    7.01
   3   4   6   78.30    7.40
   3   4   6   91.45    7.90
   3   4   6   65.11    6.91
   3   4   6   97.00    7.27
   3   4   6   72.13    7.08
   3   4   7  109.09    8.48
   3   4   7  112.22    8.24
   3   4   7  106.82    7.62
   3   4   7   86.43    7.76
   3   4   8   -1.53    2.04
   3  -4   9   58.32   10.42
  -4   0  17   -0.39    1.58
   4   0 -17    1.10    1.74
  -4   0  16  108.77    7.40
   4   0 -16  106.23    7.71
  -4   0  15   -1.13    2.34
   4   0 -15   -1.26    3.06
  -4   0  14  154.76   10.76
   4   0 -14  150.44   10.30
   4   0 -14  156.74   11.29
   4   0 -13    2.06    2.67
   4   0 -13   -2.38    3.08
  -4   0  13   -2.57    3.22
   4   0 -13    0.56    3.62
  -4   0  13   -2.46    2.63
   4   0 -12  102.13    8.66
  -4   0  12   97.25    8.46
   4   0 -12  101.76    8.41
  -4   0  12   97.20   15.54
  -4   0  12   77.78   14.57
   4   0 -12   86.41    8.73
  -4   0  12   81.64    7.16
   4   0 -11    2.99    3.24
   4   0 -11    0.61    3.56
   4   0 -11    1.67    2.74
  -4   0  11   -2.52    6.52
  -4   0  11    0.56    3.17
  -4   0  11   -9.31    6.03
   4   0 -10    6.71    3.41
  -4   0  10    8.98    6.18
  -4   0  10    9.72    7.39
   4   0 -10    7.92    3.33
   4   0 -10    3.06    2.90
  -4   0  10   10.39    3.62
   4   0 -10    8.87    4.06
   4   0  -9    2.45    3.22
   4   0  -9    0.50    2.82
  -4   0   9   -2.07    4.24
   4   0  -9   -1.28    2.35
   4   0  -9    1.10    3.16
   4   0  -8 4229.53  199.22
   4   0  -8 4472.88  199.01
  -4   0   8 4442.28  211.82
   4   0  -8 4277.77  198.72
  -4   0   8 4437.80  213.74
   4   0  -8 4432.39  198.36
   4   0  -8 4278.38  198.11
   4   0  -8 4184.68  197.43
   4   0  -8 4202.34  199.74
  -4   0   8 4597.28  198.79
   4   0  -7    1.27    3.29
  -4   0   7    4.89    5.18
   4   0  -7   -0.40    2.47
   4   0  -7    0.47    2.85
   4   0  -7    2.07    2.52
   4   0  -7    1.77    2.81
   4   0  -7   -1.78    2.42
  -4   0   7    1.78    3.65
   4   0  -6  214.86   14.28
   4   0  -6  207.34   13.52
   4   0  -6  196.13   16.87
  -4   0   6  243.99   20.35
   4   0  -6  221.57   13.16
   4   0  -6  221.01   13.33
  -4   0   6  253.68   21.38
   4   0  -6  215.77   12.95
  -4   0   5    4.20    3.84
   4   0  -5    0.73    2.39
   4   0  -5   -0.36    2.64
  -4   0   5   -2.52    4.75
   4   0  -4 1711.50   81.77
  -4   0   4 1786.01   87.83
   4   0  -4 1737.54   89.53
   4   0  -4 1740.79   80.91
   4   0  -4 1719.50   80.37
  -4   0   4 1810.16   88.99
   4   0  -4 1767.07   80.76
   4   0  -4 1661.60   79.16
   4   0  -4 1729.29   80.52
   4   0  -4 1676.86   82.09
  -4   0   3    4.70    3.73
   4   0  -3   -7.48    4.54
   4   0  -3    0.99    3.35
   4   0  -3   -0.35    2.53
   4   0  -3    1.26    3.06
   4   0  -3    0.38    2.75
  -4   0   2  283.43   20.61
   4   0  -2  290.75   15.76
   4   0  -2  255.62   20.38
   4   0  -2  255.02   15.59
   4   0  -1    1.00    2.60
  -4   0   1   -0.58    2.21
   4   0  -1    0.74    2.48
   4   0  -1    2.27    3.12
  -4   0   1    1.05    3.59
  -4   0   0   31.78    4.81
   4   0   0   30.82    6.29
   4   0   0   34.13    3.95
   4   0   0   28.05    4.86
  -4   0  -1    1.20    4.11
  -4   0  -1    1.09    2.13
   4   0   1    2.20    2.85
   4   0   1    1.00    2.78
   4   0   1    1.72    1.84
   4   0   1   -0.59    2.86
  -4   0  -2  139.61   10.72
   4   0   2  135.23    8.70
   4   0   2  150.90   13.10
   4   0   2  130.85    8.13
   4   0   2  135.57   13.62
   4   0   2  132.80    8.00
   4   0   2  131.57   11.76
   4   0   3    2.61    3.09
  -4   0  -3   -1.21    3.14
  -4   0  -3    1.29    2.50
   4   0   3   -1.24    3.01
   4   0   3    0.32    3.26
   4   0   3    0.26    2.31
   4   0   3   -1.45    3.09
   4   0   4  714.67   42.19
  -4   0  -4  713.72   40.41
   4   0   4  723.21   45.71
   4   0   4  742.04   47.87
   4   0   4  759.95   43.97
   4   0   4  746.96   37.81
   4   0   4  791.26   36.91
   4   0   4  778.37   36.51
   4   0   5    2.58    4.10
  -4   0  -5    0.99    3.27
   4   0   5   -2.21    3.50
   4   0   5    5.68    6.93
   4   0   5    1.21    3.63
   4   0   5    0.44    3.70
   4   0   5   -0.29    2.08
   4   0   6 3259.97  153.94
   4   0   6 3409.93  156.36
  -4   0  -6 2970.58  153.18
   4   0   6 3149.37  160.17
  -4   0  -6 3309.83  155.57
   4   0   6 3139.32  146.11
   4   0   6 3004.72  146.04
   4   0   6 3264.22  145.05
  -4   0  -7    1.50    4.11
  -4   0  -7   -1.79    5.66
  -4   0  -7    1.52    3.42
   4   0   7    1.66    4.29
   4   0   7    3.83    4.16
   4   0   7   -1.42    4.30
   4   0   7   -0.94    3.41
   4   0   7   -0.38    2.62
  -4   0  -8   30.22    8.47
   4   0   8   50.13   10.34
  -4   0  -8   35.77    7.98
  -4   0  -8   50.31   10.40
   4   0   8   38.75    5.93
   4   0   8   47.56    9.33
   4   0   8   42.23    5.50
   4   0   8   30.28    4.46
   4   0   9    5.20    5.50
  -4   0  -9    1.97    4.77
   4   0   9   -2.03    4.91
   4   0   9    1.00    3.77
   4   0   9   -0.51    3.43
   4   0   9    2.67    3.29
   4   0   9   -0.46    2.70
  -4   0  -9    6.65    6.09
   4   0  10 1141.61   69.99
   4   0  10 1181.41   72.89
  -4   0 -10 1182.99   72.41
   4   0  10 1266.36   59.88
   4   0  10 1248.24   60.15
   4   0  10 1181.33   58.83
   4   0  10 1294.25   59.91
   4   0  11    0.44    2.43
   4   0  11    1.84    4.47
   4   0  11   -0.90    3.03
   4   0  11   -1.56    3.84
   4   0  11   -2.19    6.66
  -4   0 -11    2.37    5.31
   4   0  11   -0.98    2.88
   4   0  12  160.27   17.05
   4   0  12  138.49   10.27
   4   0  12  140.97   10.08
   4   0  12  127.14    9.35
  -4   0 -12  135.13   18.29
   4   0  13   -0.68    2.30
   4   0  13    2.60    2.94
   4   0  13   -0.87    2.62
   4   0  14   -1.08    2.98
   4   0  14   -1.51    2.46
   4   0  15   -0.82    2.24
   4   0  15    1.21    1.83
  -4   0 -17    0.31    1.39
  -4   1  16   26.16    2.96
  -4  -1  16   20.54    2.72
   4  -1 -16   26.56    2.72
   4  -1 -16   24.02    3.37
   4   1 -16   24.27    3.36
  -4   1  16   20.63    2.71
  -4   1  15  197.13   11.92
  -4  -1  15  189.91   11.66
   4  -1 -15  209.19   12.44
   4   1 -15  209.60   12.37
   4  -1 -15  206.02   11.55
  -4   1  15  207.35   11.95
   4   1 -14  120.80    8.45
  -4   1  14  105.29    8.10
  -4  -1  14  101.90    7.83
   4   1 -14  112.26    8.70
  -4   1  14  114.62    8.53
   4  -1 -14  120.87    7.71
   4  -1 -14  107.16    8.79
  -4   1  13   81.87    7.19
  -4  -1  13   81.26    7.05
   4   1 -13   83.81    7.17
   4  -1 -13   89.54    8.10
  -4  -1  13   70.84    6.16
   4   1 -13   83.30    7.89
  -4   1  13   86.15    7.69
   4  -1 -13   88.53    6.77
   4   1 -13   92.74    7.80
   4  -1 -12  555.59   29.63
  -4   1  12  561.49   28.98
  -4  -1  12  550.22   28.66
   4   1 -12  535.22   29.13
  -4  -1  12  502.56   27.77
  -4   1  12  544.87   42.44
   4  -1 -12  587.39   30.20
   4   1 -12  536.95   29.36
  -4   1  12  470.18   39.80
  -4  -1  12  445.94   38.85
   4  -1 -12  552.45   28.21
   4   1 -12  583.98   30.13
   4  -1 -11   24.57    4.28
   4   1 -11   24.05    4.85
   4   1 -11   37.64    5.44
   4  -1 -11   23.35    4.54
  -4   1  11   42.05    5.30
  -4   1  11   22.07    7.87
  -4  -1  11   30.78    7.15
  -4  -1  11   20.09    8.01
  -4  -1  11   24.95    4.37
   4   1 -11   27.79    4.32
   4  -1 -11   27.19    5.23
   4   1 -11   20.66    4.80
  -4  -1  11   26.66    3.78
  -4   1  10  550.09   28.97
  -4  -1  10  559.15   28.83
   4  -1 -10  535.05   29.88
   4  -1 -10  518.63   29.39
  -4   1  10  514.27   41.63
  -4  -1  10  510.36   38.55
   4   1 -10  515.38   39.74
  -4  -1  10  548.76   38.32
  -4  -1  10  540.46   28.14
   4   1 -10  548.14   28.72
   4  -1 -10  527.24   29.74
   4   1 -10  546.21   29.49
  -4   1  10  528.42   41.73
  -4  -1  10  547.98   41.57
   4   1 -10  531.83   30.38
   4  -1  -9   40.12    6.04
   4   1  -9   49.75    6.55
   4  -1  -9   51.77    6.25
  -4   1   9   48.23    5.66
  -4  -1   9   41.24    5.29
   4   1  -9   59.70    6.24
  -4   1   9   45.32   10.59
  -4   1   9   46.39   10.53
  -4  -1   9   36.16    9.97
  -4  -1   9   33.94    8.37
  -4  -1   9   48.42    9.73
   4  -1  -9   46.36    6.32
   4   1  -9   50.54    6.30
   4   1  -9   51.59    5.34
  -4   1   8   77.97   13.02
   4   1  -8   87.02    8.61
   4  -1  -8  100.63    8.70
  -4  -1   8   81.52   12.27
  -4   1   8   97.35   14.52
  -4  -1   8   74.40   12.35
   4   1  -8   80.06   14.10
  -4  -1   8   72.08   12.42
   4   1  -8   94.13    7.99
   4  -1  -8   78.42    7.71
   4   1  -8   70.93    7.35
   4   1  -8   85.72    7.08
   4   1  -8   91.13    9.32
   4   1  -7   45.11    6.73
   4   1  -7   48.07    6.28
  -4  -1   7   37.03    8.47
   4   1  -7   58.32    6.01
  -4   1   7   38.81    4.98
  -4  -1   7   48.59    8.84
   4   1  -7   18.16    7.43
  -4  -1   7   52.14   10.73
   4   1  -7   53.58    5.53
  -4   1   7   36.82    9.14
   4  -1  -7   46.11    5.67
   4   1  -7   41.60    5.16
   4   1  -7   43.98    4.85
  -4   1   7   34.69    9.07
  -4  -1   7   48.57    5.10
   4  -1  -6  183.23   13.31
  -4   1   6  149.87   16.84
   4   1  -6  176.05   12.82
   4  -1  -6  183.03   12.98
   4  -1  -6  173.54   11.45
   4   1  -6  166.40   11.18
   4   1  -6  154.34   17.41
   4  -1  -6  148.88   17.54
   4  -1  -6  173.29   11.79
  -4   1   6  191.30   18.59
  -4  -1   6  126.87   15.75
   4   1  -6  181.68   11.90
   4   1  -6  175.16   11.16
   4   1  -6  182.72   11.29
   4  -1  -6  158.82   11.32
   4   1  -6  189.71   13.58
  -4  -1   6  151.10   15.77
   4   1  -5   14.36    4.65
   4  -1  -5   11.87    4.31
   4   1  -5   11.15    3.90
  -4   1   5   14.37    4.96
  -4  -1   5   22.20    5.85
   4  -1  -5   14.12    4.70
  -4   1   5   23.33    6.29
   4  -1  -5   19.68    3.97
  -4  -1   5   13.24    2.23
   4   1  -5    9.24    4.92
   4  -1  -5    9.63    4.91
  -4  -1   5    8.34    4.40
   4   1  -5    8.35    2.90
   4  -1  -5   11.63    3.73
   4  -1  -4 1029.68   52.87
   4   1  -4 1071.52   59.06
   4   1  -4 1074.18   51.64
   4  -1  -4 1103.18   53.11
  -4  -1   4  978.74   55.39
   4   1  -4 1025.10   50.72
   4  -1  -4 1076.30   51.97
  -4   1   4 1034.83   58.23
  -4   1   4 1065.43   58.25
  -4  -1   4 1016.63   57.36
   4   1  -4 1078.35   50.39
   4  -1  -4 1061.77   59.38
   4   1  -4 1074.29   50.63
  -4  -1   4 1005.36   48.59
   4   1  -4 1021.24   50.43
   4  -1  -4 1028.99   51.11
   4  -1  -3  278.44   18.41
   4  -1  -3  276.37   18.47
   4   1  -3  300.70   16.88
  -4  -1   3  295.37   20.69
   4  -1  -3  319.08   17.98
   4   1  -3  292.99   17.30
   4   1  -3  294.25   17.26
   4  -1  -3  318.06   18.60
  -4   1   3  314.10   22.83
  -4  -1   3  275.01   21.80
  -4   1   3  320.93   23.01
   4   1  -3  343.23   24.08
   4   1  -3  331.46   17.50
   4  -1  -3  307.88   18.09
  -4  -1   3  300.76   15.35
   4  -1  -3  306.01   18.04
   4  -1  -3  319.01   23.72
   4   1  -3  295.65   18.19
   4  -1  -2  275.83   16.49
   4   1  -2  281.52   16.28
   4  -1  -2  258.57   16.49
   4  -1  -2  256.89   16.40
   4   1  -2  270.29   15.44
  -4  -1   2  299.89   20.06
   4   1  -2  259.31   15.57
  -4   1   2  254.81   20.43
   4  -1  -2  254.81   16.66
  -4  -1   2  270.34   20.27
   4   1  -2  281.40   21.18
   4  -1  -2  282.05   21.20
   4  -1  -2  283.87   16.35
   4   1  -2  273.30   15.66
  -4   1   2  276.58   20.74
   4   1  -2  254.27   14.22
   4   1  -2  273.41   15.92
  -4  -1   2  280.91   19.02
   4   1  -2  248.87   16.15
   4   1  -1 1740.77   82.45
   4   1  -1 1689.13   81.77
   4  -1  -1 1806.81   83.00
  -4  -1   1 1791.30   87.01
  -4   1   1 1838.13   88.90
  -4  -1   1 1757.54   87.99
   4   1  -1 1699.71   88.57
   4  -1  -1 1715.07   83.42
   4   1  -1 1768.80   88.83
   4  -1  -1 1752.52   88.65
   4   1  -1 1652.13   80.78
   4  -1  -1 1904.95   83.74
   4  -1  -1 1731.58   81.42
   4   1  -1 1765.07   82.67
   4  -1  -1 1828.59   83.76
   4   1  -1 1743.65   82.17
   4   1   0  478.85   24.38
   4  -1   0  528.55   25.66
   4   1   0  458.86   24.46
   4   1   0  432.13   30.76
   4   1   0  479.69   30.02
   4  -1   0  515.33   30.46
   4  -1   0  410.51   25.05
  -4  -1   0  447.12   34.33
  -4  -1   0  454.93   28.10
   4   1   0  441.30   23.48
   4   1   0  498.29   25.37
   4  -1   0  476.22   26.12
   4   1   0  439.43   22.86
  -4  -1  -1   44.11    9.31
   4   1   1   42.53    9.75
   4   1   1   42.16    5.11
   4   1   1   35.44    6.73
   4  -1   1   40.39    7.15
   4   1   1   31.39    4.19
   4   1   1   46.51    3.83
   4   1   1   39.10    4.78
   4  -1   1   39.32    5.00
   4  -1   1   37.21    6.19
   4   1   2 1778.58   91.17
   4   1   2 1814.88   86.52
  -4  -1  -2 1762.34   91.05
   4   1   2 1972.02   98.37
   4   1   2 1880.37   86.86
   4   1   2 1750.49   86.45
   4   1   2 1791.62   93.27
   4  -1   2 1845.94   92.99
   4  -1   2 1860.22   85.65
   4   1   2 1830.03   86.17
   4   1   2 1792.70   84.52
   4  -1   2 1948.90   86.47
   4   1   2 1985.37   87.62
   4  -1   2 1888.04   87.55
   4   1   2 1797.19   85.37
  -4  -1  -3  325.44   22.40
   4   1   3  338.29   18.18
   4   1   3  309.38   18.10
   4   1   3  308.26   23.63
   4  -1   3  283.97   22.75
   4   1   3  305.27   17.41
   4   1   3  323.74   18.29
   4  -1   3  312.13   17.41
  -4  -1  -3  295.78   25.92
   4   1   3  330.78   22.79
   4  -1   3  329.76   22.64
   4   1   3  305.24   18.02
   4   1   3  294.43   16.31
   4  -1   3  345.06   18.38
   4   1   3  330.07   18.80
   4  -1   3  309.89   17.93
   4   1   3  300.59   16.16
   4  -1   3  302.27   16.17
   4   1   3  320.44   22.37
   4   1   4  186.14   16.78
   4   1   4  200.91   13.22
   4   1   4  192.50   12.85
  -4  -1  -4  200.14   20.34
   4   1   4  185.14   12.63
   4  -1   4  200.25   12.69
   4   1   4  206.90   13.46
   4   1   4  196.51   13.16
   4   1   4  197.15   11.68
  -4  -1  -4  202.65   17.43
   4  -1   4  201.58   13.29
   4   1   4  227.46   13.98
  -4   1  -4  202.89   17.43
   4  -1   5  289.69   20.61
  -4  -1  -5  308.39   16.93
   4   1   5  298.16   18.34
  -4  -1  -5  316.53   26.83
   4   1   5  300.10   18.11
   4   1   5  367.99   25.02
   4  -1   5  344.37   24.65
   4  -1   5  312.50   18.19
   4   1   5  315.88   18.30
   4  -1   5  310.20   17.88
   4   1   5  272.04   17.92
   4   1   5  305.98   16.96
   4  -1   5  327.71   17.18
   4  -1   5  277.40   17.90
   4   1   5  322.32   18.54
   4   1   5  291.78   23.36
   4   1   5  302.54   16.50
   4  -1   5  326.57   16.75
  -4   1  -6  399.30   30.26
  -4  -1  -6  446.31   31.01
  -4  -1  -6  393.70   21.65
   4   1   6  409.38   29.54
   4   1   6  402.40   23.02
  -4  -1  -6  401.94   32.16
   4  -1   6  390.59   29.59
   4   1   6  392.46   22.51
   4   1   6  407.52   29.58
  -4  -1  -6  379.76   29.21
   4  -1   6  428.92   22.54
   4  -1   6  418.90   22.70
   4   1   6  415.29   23.11
   4  -1   6  391.88   22.40
   4   1   6  441.23   23.76
   4  -1   6  432.22   21.95
   4  -1   6  404.14   22.61
   4   1   6  410.15   22.51
   4   1   6  394.92   21.17
   4  -1   6  391.20   21.26
   4  -1   6  383.78   26.05
   4   1   6  376.25   22.42
   4   1   7   35.75    5.21
   4   1   7   58.58    9.77
  -4   1  -7   41.12    9.09
  -4  -1  -7   46.26    9.48
   4   1   7   25.64    4.57
   4  -1   7   41.04    5.09
   4   1   7   29.78    8.01
   4  -1   7   35.18    8.50
  -4  -1  -7   29.97    4.78
   4   1   7   34.20    4.81
   4  -1   7   38.33    5.70
   4  -1   7   26.99    4.70
   4   1   7   28.03    5.61
  -4  -1  -7   40.81    9.54
   4  -1   7   37.30    5.03
   4   1   7   29.55    4.38
   4   1   7   32.45    4.20
   4  -1   7   39.27    4.71
   4  -1   7   30.36    6.50
  -4   1  -8  418.46   32.06
  -4  -1  -8  420.83   32.07
   4   1   8  360.21   29.67
  -4  -1  -8  364.36   30.84
   4   1   8  353.08   21.24
   4  -1   8  387.68   31.22
  -4  -1  -8  391.08   21.43
   4  -1   8  350.67   26.53
   4   1   8  381.77   30.07
   4  -1   8  374.39   21.70
   4   1   8  470.23   36.72
   4  -1   8  391.98   22.05
   4  -1   8  360.82   21.07
   4   1   8  398.35   22.25
   4  -1   8  377.96   21.12
   4  -1   8  371.56   20.87
   4   1   8  355.84   20.46
  -4  -1  -9    9.36    3.79
   4   1   9   11.52    6.10
  -4  -1  -9    9.92    5.46
   4   1   9    6.23    2.87
   4  -1   9   10.85    3.79
   4  -1   9    6.89    3.61
   4  -1   9    8.61    3.47
   4   1   9   16.64    7.55
   4  -1   9   12.02    3.84
   4  -1   9    6.41    6.20
   4  -1   9   13.04    3.97
   4   1   9    5.05    4.22
   4   1   9    6.00    3.69
   4   1   9   11.84    7.01
   4  -1   9    8.62    3.33
   4   1   9    2.65    2.82
  -4   1 -10  406.31   33.92
  -4  -1 -10  438.03   34.90
   4   1  10  398.46   32.90
  -4  -1 -10  439.10   24.10
   4   1  10  430.94   34.25
   4   1  10  430.95   35.46
   4  -1  10  415.66   23.07
   4   1  10  416.99   23.97
   4  -1  10  408.77   34.48
   4  -1  10  406.63   23.51
   4   1  10  447.68   23.84
   4  -1  10  400.46   23.12
   4  -1  10  435.27   23.52
   4   1  10  426.05   23.14
  -4  -1 -11  198.64   13.31
   4  -1  11  199.81   21.40
   4  -1  11  193.44   12.68
   4   1  11  211.61   20.85
   4  -1  11  158.52   20.55
   4   1  11  181.63   12.91
   4  -1  11  162.41   11.77
   4   1  11  182.69   12.39
   4   1  11  183.81   12.86
   4  -1  11  186.85   12.34
   4  -1  11  197.50   12.79
   4   1  11  211.19   12.77
   4   1  11  126.54   18.88
  -4   1 -11  220.37   22.16
  -4  -1 -11  216.03   21.64
  -4  -1 -12  160.93   11.51
   4   1  12  176.71   11.53
   4   1  12  168.49   10.83
   4   1  12  180.43   11.78
   4  -1  12  162.25   11.06
   4  -1  12  160.44   10.76
   4  -1  12  142.32   10.79
   4   1  12  145.90   10.67
   4  -1  13   43.26    5.05
  -4  -1 -13   55.94    6.04
   4   1  13   50.47    5.61
   4   1  13   58.97    5.89
   4  -1  13   54.39    5.51
   4   1  13   51.41    5.32
   4  -1  14  235.04   12.55
   4  -1  14  229.75   12.79
   4   1  14  212.95   12.26
   4  -1  14  197.76   12.42
   4   1  14  196.71   12.30
  -4  -1 -15    6.61    2.21
  -4   1 -16  120.41    7.17
  -4  -1 -16  122.47    7.20
   4  -2 -15   18.08    2.26
   4  -2 -14    0.81    1.23
   4  -2 -14    0.26    1.69
  -4   2  14    0.29    2.16
  -4  -2  13  154.97   10.25
   4  -2 -13  181.36   10.64
  -4   2  13  173.90   10.89
   4  -2 -13  160.22   10.03
   4  -2 -12   11.57    2.87
   4   2 -12    7.49    3.13
  -4  -2  12    9.76    2.73
   4  -2 -12   10.65    3.32
  -4   2  12    5.67    3.46
   4  -2 -11   43.07    5.42
   4   2 -11   52.54    6.56
  -4  -2  11   53.53    5.51
   4  -2 -10   47.72    5.66
   4   2 -10   41.18    5.98
  -4  -2  10   33.27    4.74
  -4  -2  10   39.90    8.57
   4  -2  -9   41.13    5.81
   4   2  -9   54.79    7.73
   4   2  -9   39.08    6.41
  -4   2   9   40.91    8.59
  -4  -2   9   44.34    5.29
   4  -2  -9   40.03    6.03
   4   2  -8  262.50   17.94
  -4   2   8  247.16   24.43
  -4   2   8  226.09   25.35
  -4  -2   8  276.62   27.97
   4   2  -8  260.18   15.99
  -4  -2   8  236.78   15.22
   4  -2  -8  285.77   17.61
   4   2  -8  256.15   18.50
   4  -2  -8  263.58   17.26
   4  -2  -7    0.72    3.75
   4   2  -7    8.37    4.42
   4   2  -7    8.15    4.20
  -4   2   7   11.58    6.13
  -4  -2   7    8.44    6.82
   4   2  -7   15.40    4.01
   4   2  -7    4.84    2.75
  -4  -2   7   11.18    3.02
   4  -2  -7    6.06    4.01
   4   2  -6   37.07    6.30
  -4   2   6   35.69    8.47
  -4  -2   6   33.54   11.27
  -4  -2   6   31.19    4.26
   4  -2  -6   43.95    6.14
   4   2  -6   30.27    4.87
   4   2  -5  759.32   40.30
   4   2  -5  748.01   38.76
  -4  -2   5  910.50   61.14
   4   2  -5  807.55   39.53
  -4   2   5  677.21   46.32
  -4  -2   5  749.04   37.43
   4  -2  -5  772.22   39.42
   4   2  -5  710.19   38.43
   4   2  -5  776.79   41.01
   4   2  -5  782.87   38.42
   4   2  -4  357.09   21.98
  -4   2   4  356.02   27.30
   4   2  -4  352.90   21.25
   4   2  -4  362.10   21.01
  -4  -2   4  371.46   19.63
   4  -2  -4  413.18   21.29
   4   2  -4  338.86   20.76
   4   2  -4  366.18   22.75
   4   2  -4  365.79   20.63
   4  -2  -4  387.38   22.72
   4   2  -3  725.91   37.92
   4   2  -3  686.58   36.36
  -4  -2   3  757.62   48.69
  -4   2   3  661.47   42.90
  -4  -2   3  847.99   58.91
   4   2  -3  699.48   37.18
   4  -2  -3  712.88   38.36
  -4  -2   3  723.96   35.26
   4  -2  -3  727.64   35.90
   4   2  -3  673.60   36.86
   4   2  -3  721.39   37.19
   4  -2  -3  793.04   37.96
  -4  -2   2   56.34   12.28
   4   2  -2   70.56    7.25
  -4   2   2  100.00   11.65
  -4  -2   2   65.08   15.42
   4   2  -2   86.20    7.61
   4  -2  -2   72.27   10.60
   4  -2  -2   78.66    8.46
   4  -2  -2   59.47    8.32
   4   2  -2   69.80    7.32
   4  -2  -2   92.26    6.39
   4   2  -2   83.41    8.25
   4  -2  -2   80.69    7.31
   4   2  -1   78.34    7.26
  -4  -2   1   86.59   16.23
   4  -2  -1   82.14    9.72
   4  -2  -1   90.72    8.23
  -4   2   1   57.33    9.31
   4   2  -1   78.34   11.44
   4  -2  -1   75.47    5.93
  -4  -2   1   45.26   12.19
   4   2  -1   86.56    7.67
   4   2  -1   73.27    6.31
   4   2  -1   75.41    8.00
   4  -2  -1   79.27    6.83
   4  -2   0    4.19    2.33
  -4  -2   0   -2.87    5.87
   4   2   0    2.52    2.88
  -4   2   0   -1.26    3.66
  -4  -2   0    8.17    4.14
  -4  -2   0   12.30    6.76
   4   2   0    1.06    3.02
   4  -2   0    1.20    2.64
   4   2   0    1.08    2.77
   4  -2   0    6.82    2.95
   4   2   0    4.22    3.09
   4   2   0    2.38    3.74
  -4  -2  -1 1630.57   75.13
   4   2   1 1684.20   77.38
  -4  -2  -1 1593.26   97.14
  -4  -2  -1 1653.12   84.71
  -4  -2  -1 1723.71   91.01
   4   2   1 1547.17   77.17
   4  -2   1 1553.44   74.46
   4  -2   1 1574.38   74.72
   4   2   1 1584.20   74.80
   4   2   1 1731.79   77.63
   4   2   1 1595.19   76.26
   4   2   1 1621.17   77.98
   4  -2   1 1576.85   74.57
  -4  -2  -2  240.63   27.84
   4   2   2  240.56   15.69
  -4  -2  -2  218.68   12.84
  -4  -2  -2  224.56   20.85
   4  -2   2  210.85   12.78
   4  -2   2  244.86   13.35
   4   2   2  238.55   13.81
  -4  -2  -2  233.70   13.56
   4   2   2  208.84   14.42
  -4  -2  -3  334.52   26.17
  -4  -2  -3  328.63   18.23
   4   2   3  332.50   20.14
  -4  -2  -3  346.33   33.56
  -4   2  -3  321.33   25.63
  -4  -2  -3  297.30   17.28
  -4  -2  -3  334.25   24.25
   4   2   3  348.02   30.89
   4   2   3  327.08   18.84
   4   2   3  348.52   19.91
   4   2   3  352.08   20.81
   4   2   4   83.47   11.38
  -4  -2  -4   92.81   12.79
   4  -2   4   82.91    6.65
  -4  -2  -4   76.49    6.27
   4   2   4   87.35    8.15
   4   2   4   85.45   16.02
   4   2   4   86.29    8.54
   4   2   4   65.92    8.35
   4   2   5   81.56   12.30
  -4  -2  -5   86.21   15.87
  -4  -2  -5   88.41   13.28
  -4  -2  -5   82.97    6.80
   4  -2   5   86.23    9.33
   4  -2   5  105.50    7.90
  -4  -2  -5   93.49    7.97
   4  -2   5  100.17    9.67
   4   2   5  125.39   19.53
   4   2   5   87.12    8.99
   4   2   5   94.34    8.95
   4   2   5  100.06    9.46
   4   2   5  102.99    7.31
   4   2   5   76.48    8.71
   4   2   6  673.19   35.85
  -4  -2  -6  673.77   45.96
   4   2   6  704.89   51.20
   4  -2   6  640.35   33.74
   4   2   6  601.04   42.49
  -4  -2  -6  615.08   33.95
   4  -2   6  729.27   36.40
   4   2   6  673.13   35.26
   4  -2   6  702.98   36.39
   4   2   6  686.82   35.78
   4   2   6  623.54   33.08
   4   2   6  662.65   35.42
   4  -2   6  690.32   35.89
  -4  -2  -6  647.38   49.17
   4   2   7   90.49    9.22
   4  -2   7  117.32   10.36
   4  -2   7  110.05    8.90
   4  -2   7   97.47    9.52
   4   2   7   94.99   14.04
  -4  -2  -7   69.77   14.06
   4   2   7  116.20   10.00
   4   2   7  107.01    9.90
   4   2   7   90.13    7.82
  -4  -2  -7   92.57   15.06
   4   2   7  118.83    9.53
   4   2   8   26.79    8.73
   4  -2   8   49.33    5.99
   4  -2   8   51.65    7.16
  -4  -2  -8   58.65   12.10
   4  -2   8   56.58    7.07
   4   2   8   62.57    7.51
   4   2   8   56.78    6.05
   4   2   8   55.23    6.45
   4   2   8   54.50    6.65
   4   2   9  146.92   11.40
   4  -2   9  157.12   11.42
  -4  -2  -9  154.02   11.50
   4   2   9  179.23   12.58
   4   2   9  132.51   10.60
  -4  -2  -9  159.90   20.17
   4   2   9  157.84   11.97
   4   2   9  171.69   11.20
   4   2   9  117.02    9.88
   4   2   9  140.07   17.26
   4   2  10   69.99    6.89
   4   2  10   63.00    6.42
   4  -2  10   85.88    7.76
   4  -2  10   62.52    6.91
   4   2  10   74.48    7.67
   4   2  10   46.84    5.64
   4   2  10   88.76    8.23
   4   2  10   85.84    7.34
  -4  -2 -11  133.80    9.71
   4  -2  11  128.14    9.28
   4  -2  11  113.57    9.14
   4  -2  11  113.15    9.10
   4   2  11  111.06    9.01
   4   2  11  119.22    8.71
   4  -2  12   56.98    5.68
   4  -2  12   46.66    5.46
   4   2  12   57.04    5.71
   4   2  12   45.31    5.38
   4  -2  13  335.83   17.40
   4   2  13  321.81   17.52
   4   2  13  357.42   17.52
   4  -2  14    9.86    4.20
   4  -2  14    8.38    2.00
   4   2  14    5.66    2.37
   4   2  14    8.03    2.10
   4  -2  15  100.96    8.56
  -4   3  12   -0.23    1.98
  -4  -3  11   97.06    7.14
   4  -3 -11  115.69    7.70
  -4   3  11  100.66    6.94
   4  -3 -11  100.69    7.21
   4  -3 -10  113.51    8.44
  -4   3  10  109.13    7.73
   4   3 -10   93.49    8.17
   4  -3 -10  111.02    8.23
   4  -3  -9   16.40    4.06
   4   3  -9   13.00    4.18
   4   3  -9   21.48    4.10
   4  -3  -9   11.78    3.88
  -4   3   9   18.14    3.65
   4  -3  -8   29.41    5.72
   4   3  -8   17.00    4.94
  -4  -3   8   26.06    4.38
   4   3  -8   23.06    4.82
  -4  -3   8   24.95    3.82
   4  -3  -8   25.07    5.10
  -4   3   8   29.72    4.57
   4   3  -7   90.54    9.25
  -4  -3   7   97.65    8.74
  -4  -3   7   94.94    7.88
   4  -3  -7   87.58    8.93
   4   3  -7  121.62   10.81
   4  -3  -7  110.82   10.51
   4   3  -6  225.11   15.80
  -4  -3   6  228.80   15.33
  -4  -3   6  233.49   14.21
   4  -3  -6  212.32   15.12
   4   3  -5  307.14   19.21
   4   3  -5  283.16   17.37
   4   3  -5  267.11   16.81
  -4  -3   5  296.54   18.70
  -4  -3   5  312.12   17.15
   4  -3  -5  269.23   17.67
   4   3  -5  273.11   17.06
   4   3  -5  269.08   19.22
   4  -3  -5  308.39   20.21
   4   3  -4    0.79    4.01
   4  -3  -4   -2.34    4.10
   4   3  -4   -0.71    3.88
  -4  -3   4    7.45    4.83
   4   3  -4    3.84    3.33
   4   3  -4    4.65    3.03
  -4  -3   4    6.28    2.60
   4  -3  -4    0.50    2.83
  -4  -3   4    3.50    3.33
   4   3  -4    0.54    3.14
   4   3  -3  152.62   12.59
  -4  -3   3  171.13   12.84
   4   3  -3  148.58   11.05
  -4  -3   3  140.73   23.44
   4   3  -3  153.06   11.73
  -4   3   3  186.63   26.98
   4   3  -3  153.01   11.47
  -4  -3   3  141.22   10.36
   4  -3  -3  145.77   10.53
   4   3  -3  158.93   12.26
   4  -3  -3  173.39   13.13
   4  -3  -2   13.50    4.35
   4   3  -2   13.53    3.82
  -4  -3   2   32.28   10.25
  -4   3   2   29.47   13.07
   4   3  -2   10.22    3.93
   4   3  -2   10.61    3.66
  -4  -3   2   17.40    3.39
   4  -3  -2    9.11    2.52
   4   3  -2    7.70    3.89
   4   3  -1  887.48   45.83
  -4  -3   1  778.77   60.27
   4   3  -1  873.07   46.38
   4  -3  -1  933.54   47.55
   4  -3  -1  840.38   44.83
   4   3  -1  931.43   46.59
  -4  -3   1  963.68   45.02
   4   3  -1  884.80   46.97
   4  -3  -1  960.15   45.83
   4  -3   0  198.28   17.49
  -4  -3   0  253.75   15.48
   4   3   0  252.33   16.39
  -4  -3   0  244.24   23.23
  -4  -3   0  222.95   23.43
   4  -3   0  243.36   21.05
   4  -3   0  258.12   16.65
  -4  -3   0  243.43   15.10
   4   3   0  285.79   18.04
   4   3   0  267.39   17.12
   4  -3   0  247.97   15.23
   4  -3   1    4.48    2.59
  -4  -3  -1    6.80    3.54
  -4  -3  -1    1.87    4.54
   4   3   1    2.03    3.51
   4  -3   1    3.58    4.49
   4   3   1    9.62    4.27
   4   3   1    6.76    3.31
   4   3   1    7.40    4.84
   4   3   1    1.26    3.56
   4  -3   2   17.50    3.02
  -4  -3  -2   19.78    4.41
   4   3   2   19.30    4.99
   4   3   2   21.01    5.17
  -4  -3  -2   30.07    4.56
   4   3   2   18.47    5.40
   4   3   2   23.09    4.83
   4   3   2   10.51    5.27
   4   3   3  308.79   20.01
   4  -3   3  304.68   17.95
   4   3   3  272.92   19.67
   4  -3   3  338.27   19.16
  -4  -3  -3  321.65   18.40
  -4  -3  -3  311.86   17.60
   4   3   3  260.63   19.95
   4   3   3  281.79   18.67
  -4  -3  -3  342.34   28.61
  -4  -3  -4   19.74    4.13
   4   3   4   16.93    5.28
  -4  -3  -4   35.06    7.83
   4  -3   4   17.32    5.60
   4   3   4   18.09    5.16
   4  -3   4   18.66    5.82
   4   3   4   17.12    4.45
   4   3   4   18.44    5.01
  -4  -3  -5   74.86    7.65
   4   3   5   69.60    8.94
  -4  -3  -5   75.87    6.88
   4  -3   5   85.28    7.89
   4  -3   5   84.04   10.03
  -4  -3  -5   75.62    7.13
   4   3   5   86.01    7.89
   4   3   5   83.61    8.62
   4   3   5   94.27    9.35
  -4  -3  -6   37.17    5.34
  -4  -3  -6   36.22    4.66
   4  -3   6   31.28    5.07
   4   3   6   26.77    5.65
   4   3   6   33.68    5.84
   4   3   6   34.12    5.95
   4   3   6   41.03    6.33
  -4  -3  -7  102.18    7.93
   4   3   7   90.14    9.38
   4  -3   7  103.53    8.66
   4  -3   7  133.73   12.30
   4   3   7  113.02    9.20
   4   3   7   94.46    9.24
   4   3   7  127.21   10.14
   4   3   7  114.46    9.54
   4   3   8  234.19   15.87
   4  -3   8  230.29   25.66
   4   3   8  250.57   16.37
   4   3   8  243.25   16.33
   4  -3   8  245.95   16.89
   4  -3   8  240.42   15.23
   4  -3   8  269.95   21.54
   4   3   8  284.77   16.15
   4   3   8  290.34   16.75
   4   3   8  227.89   15.50
  -4  -3  -8  288.45   15.75
  -4  -3  -9   82.61    6.78
   4   3   9   68.46    6.70
   4  -3   9   73.59    9.01
   4  -3   9   70.82    6.41
   4   3   9   75.71    7.25
   4   3   9   76.53    7.01
   4   3   9   56.14    6.23
   4   3   9   69.86    6.86
  -4  -3 -10    8.58    2.87
   4   3  10    2.94    2.44
   4  -3  10    6.18    2.60
   4   3  10   11.26    3.51
   4  -3  11   72.83    5.28
   4   3  11   74.08    5.49
   4   3  11   60.28    5.33
   4  -3  12   10.70    2.61
  -4  -4   8   79.15    5.39
  -4  -4   7   83.94    6.46
   4  -4  -6    6.93    2.98
  -4  -4   6   16.10    4.22
   4   4  -5   15.40    3.97
   4  -4  -5   11.40    3.51
   4   4  -5   17.15    3.49
  -4  -4   5   23.41    3.09
   4   4  -4   -0.51    3.25
   4  -4  -4    3.84    2.84
   4   4  -4    4.32    2.91
  -4  -4   4    4.05    2.01
   4  -4  -3   90.31    8.72
   4   4  -3  106.67    9.36
  -4  -4   3  144.42    9.69
  -4  -4   3  150.52    9.07
   4  -4  -2   47.83    6.33
   4   4  -2   70.96    7.47
  -4  -4   2  101.09    7.62
  -4  -4   2   93.13    6.77
   4   4  -2   60.26    6.18
   4   4  -2   64.56    7.68
   4   4  -1   10.09    4.03
   4  -4  -1   15.86    3.22
   4   4  -1    5.87    3.32
   4   4  -1   11.64    3.14
   4   4  -1    7.60    2.88
  -4  -4   1   17.62    3.25
   4   4  -1   16.25    3.63
   4   4   0   37.14    6.23
   4   4   0   45.80    6.31
   4   4   0   48.82    5.54
   4   4   0   39.23    4.97
   4   4   0   53.41    6.14
   4   4   1   49.61    6.89
   4   4   1   49.74    5.43
   4   4   1   55.89    6.18
   4   4   1   64.79    6.53
   4   4   1   54.79    6.61
   4   4   2   33.77    4.96
  -4  -4  -2   45.54    4.86
   4   4   2   29.44    4.70
   4   4   2   29.58    4.38
   4   4   2   28.45    5.12
   4   4   3    0.40    2.59
   4   4   3   -0.91    2.87
   4   4   3   -0.45    2.31
  -4  -4  -3    5.87    2.58
   4   4   4  242.27   14.99
   4   4   4  235.81   15.22
   4   4   4  232.58   15.26
   4  -4   4  242.42   21.29
  -4  -4  -4  279.14   14.93
   4   4   4  269.97   15.83
   4   4   5   45.08    5.08
   4  -4   5   46.05   14.78
   4   4   5   47.47    5.22
   4   4   5   42.79    5.05
  -4  -4  -5   42.33    4.62
   4   4   6   20.28    3.32
   4  -4   6   22.73   12.52
   4   4   6   28.34    3.93
   4   4   6   18.92    3.52
   4  -4   7   52.40   10.30
  -5   0  16   -0.21    1.34
   5   0 -16    1.44    2.08
  -5   0  15  128.02    8.73
   5   0 -15  148.51    9.39
  -5   0  14    1.94    2.30
   5   0 -14    0.74    2.09
   5   0 -14   -0.88    3.24
   5   0 -13  147.69   10.95
  -5   0  13  166.71   11.19
   5   0 -13  173.05   11.17
   5   0 -13  137.28   11.27
   5   0 -12    1.14    3.05
  -5   0  12   -0.53    3.20
   5   0 -12    1.79    3.71
   5   0 -12    0.53    2.80
   5   0 -11   27.59    4.84
   5   0 -11   18.18    4.14
  -5   0  11   16.46    6.86
  -5   0  11   25.78    8.55
  -5   0  11   19.99    4.36
   5   0 -11   11.14    6.30
   5   0 -11   12.65    4.45
   5   0 -10    0.66    2.97
   5   0 -10    2.48    3.22
  -5   0  10    5.25    3.89
  -5   0  10    2.36    4.84
  -5   0  10    2.59    5.31
   5   0 -10    3.41    2.86
   5   0 -10   -2.83    6.85
   5   0 -10    1.94    3.79
   5   0  -9  385.95   22.66
   5   0  -9  375.94   22.91
  -5   0   9  379.26   33.29
   5   0  -9  408.11   23.25
   5   0  -9  387.19   35.25
   5   0  -9  388.96   22.07
  -5   0   9  346.04   33.06
   5   0  -9  388.58   21.47
   5   0  -9  434.49   23.98
  -5   0   8    1.61    2.87
  -5   0   8   -2.31    4.24
   5   0  -8   -2.56    3.48
  -5   0   8   -2.10    4.31
   5   0  -8    1.73    2.95
   5   0  -8    2.05    2.74
   5   0  -8   -2.50    6.49
   5   0  -8   -2.34    3.97
   5   0  -8   -1.33    2.47
   5   0  -7    9.98    3.37
  -5   0   7   14.86    7.01
  -5   0   7    5.78    5.59
   5   0  -7    9.20    3.91
   5   0  -7    5.18    3.23
   5   0  -7    2.30    5.57
   5   0  -7    5.92    3.67
  -5   0   7    4.85    3.93
   5   0  -7    8.21    3.41
  -5   0   6   -1.93    4.99
   5   0  -6    3.91    3.07
  -5   0   6    1.72    3.52
   5   0  -6   -3.91    3.23
  -5   0   6    3.49    4.79
   5   0  -6   -0.51    2.68
   5   0  -6    2.09    4.28
   5   0  -6    3.97    3.34
   5   0  -6   -0.46    2.75
   5   0  -5  174.35   13.07
  -5   0   5  214.35   19.22
   5   0  -5  198.90   12.42
   5   0  -5  192.40   12.80
  -5   0   5  157.92   18.21
   5   0  -5  201.26   20.32
   5   0  -5  181.83   11.99
   5   0  -5  162.71   11.75
  -5   0   5  152.94   17.87
   5   0  -5  174.02   13.36
   5   0  -4   -0.66    3.66
  -5   0   4    1.65    4.01
   5   0  -4    1.22    3.07
  -5   0   4    1.82    3.72
  -5   0   4   -1.48    4.05
   5   0  -4   -1.97    3.06
   5   0  -4   -3.56    3.64
   5   0  -4    0.43    2.67
   5   0  -4    1.60    2.29
   5   0  -4    0.95    3.09
   5   0  -3 3846.10  182.26
  -5   0   3 4146.08  194.27
  -5   0   3 4027.83  189.91
   5   0  -3 4048.05  181.64
  -5   0   3 4045.60  191.56
   5   0  -3 3824.82  191.81
   5   0  -3 3893.33  179.74
   5   0  -3 3939.93  181.36
   5   0  -3 3949.14  181.04
   5   0  -2   -2.37    3.67
  -5   0   2   -1.80    4.36
  -5   0   2   -1.32    4.97
   5   0  -2    3.97    3.18
   5   0  -2    0.49    3.02
   5   0  -2    2.06    2.78
   5   0  -2   -1.59    3.25
   5   0  -2    0.33    2.71
   5   0  -2    1.01    3.47
  -5   0   2   -2.96    3.59
   5   0  -1  129.22   10.59
  -5   0   1  146.63   15.06
   5   0  -1  131.67    9.97
   5   0  -1  124.51   14.40
   5   0  -1  131.69    8.67
   5   0  -1  135.03    9.08
   5   0   0    0.54    3.36
  -5   0   0    0.73    2.75
   5   0   0    0.97    2.78
   5   0   0   -0.50    2.92
   5   0   0    1.47    3.82
   5   0   0    0.31    2.68
   5   0   0    3.27    3.09
   5   0   0   -2.18    4.18
   5   0   1 1923.61   89.91
   5   0   1 1921.48   89.91
   5   0   1 1936.38   98.98
   5   0   1 1877.24   90.11
   5   0   1 1830.98   88.42
   5   0   1 1948.37   89.14
   5   0   1 1950.75   90.78
   5   0   2    1.41    2.97
  -5   0  -2   -3.31    4.79
  -5   0  -2   -0.73    2.23
   5   0   2    2.52    3.06
   5   0   2    3.09    3.46
   5   0   2   -1.47    3.41
   5   0   2    0.85    3.32
   5   0   2   -1.67    3.31
   5   0   3    9.98    3.50
   5   0   3   13.88    2.71
   5   0   3    9.88    4.80
   5   0   3   12.49    3.75
   5   0   3    9.31    3.69
   5   0   3   15.25    3.29
   5   0   3   14.93    4.18
  -5   0  -4   -1.69    4.37
   5   0   4    7.39    4.69
   5   0   4    1.25    3.43
   5   0   4   -1.40    2.86
  -5   0  -4    0.87    2.75
   5   0   4   -0.40    1.89
   5   0   4    0.44    2.19
   5   0   4   -1.10    2.72
   5   0   4   -2.53    3.58
   5   0   4   -1.49    3.08
   5   0   4    1.33    2.14
   5   0   5    6.86    4.71
   5   0   5    8.75    2.91
  -5   0  -5    3.90    3.48
   5   0   5    6.11    2.89
   5   0   5   11.30    4.50
   5   0   5   11.37    5.96
   5   0   5    9.32    3.39
   5   0   5    8.39    2.97
  -5   0  -5    9.52    2.58
  -5   0  -6   -0.34    2.16
   5   0   6   -3.02    4.14
  -5   0  -6    5.41    4.67
  -5   0  -6    1.10    3.02
   5   0   6    3.72    3.93
   5   0   6    6.03    4.05
  -5   0  -7   41.15    4.86
   5   0   7   44.58    8.90
  -5   0  -7   49.97    9.63
  -5   0  -7   42.08   10.01
   5   0   7   46.31    5.54
   5   0   7   37.70    6.29
   5   0   7   45.75    6.35
  -5   0  -8   -1.86    4.52
  -5   0  -8   -4.56    6.27
   5   0   8   -1.77    4.88
   5   0   8    0.43    2.61
   5   0   8   -1.67    3.71
   5   0   8   -2.12    5.14
   5   0   8   -0.52    3.44
   5   0   8    0.47    2.48
  -5   0  -9  239.17   25.53
   5   0   9  191.05   21.01
   5   0   9  234.91   24.39
   5   0   9  228.12   15.09
   5   0   9  237.15   14.62
   5   0   9  225.88   14.44
   5   0  10    7.42    3.80
   5   0  10   -2.26    6.55
   5   0  10    1.00    3.61
   5   0  10   -0.54    3.86
   5   0  10    1.69    2.78
   5   0  10    2.99    3.17
   5   0  11  892.39   46.18
   5   0  11  933.80   46.32
   5   0  11  968.50   47.11
   5   0  11  981.71   46.81
   5   0  12   -3.44    2.83
   5   0  12    0.36    2.90
   5   0  12    0.44    3.25
   5   0  13   94.38    6.88
   5   0  13   93.09    7.48
   5   0  14    0.28    2.14
   5   0  14    2.09    1.89
   5   0  15  462.50   22.88
  -5   0 -16    0.16    1.48
  -5   1  15    4.65    1.93
  -5  -1  15    6.98    1.86
   5  -1 -15    6.43    1.85
   5  -1 -15    5.80    2.46
   5   1 -15    5.99    2.64
  -5   1  15    2.29    1.92
   5   1 -14   37.35    4.22
  -5   1  14   31.80    3.79
  -5  -1  14   24.65    3.41
   5  -1 -14   27.70    4.23
   5   1 -14   28.90    4.21
  -5   1  14   31.69    3.94
   5   1 -14   33.40    3.73
   5  -1 -14   35.24    3.57
   5   1 -13  143.72   10.13
  -5   1  13  137.74    9.36
  -5  -1  13  118.86    8.86
   5   1 -13  142.88    9.64
   5  -1 -13  132.66   10.04
   5   1 -13  132.50    9.74
  -5   1  13  129.53    9.34
   5  -1 -13  130.72    8.84
   5  -1 -12  100.93    8.54
  -5   1  12   84.24    7.59
  -5  -1  12   88.37    7.57
   5   1 -12   86.44    8.14
  -5  -1  12   92.88    7.03
   5  -1 -12   95.02    8.71
   5   1 -12   93.51    8.33
   5  -1 -12  101.33    7.64
   5   1 -12  103.75    8.79
   5  -1 -11   43.56    5.19
   5   1 -11   44.17    6.33
  -5   1  11   47.73    5.71
   5  -1 -11   42.57    5.93
  -5  -1  11   43.30    5.21
   5   1 -11   45.59    5.36
   5  -1 -11   38.60    6.35
   5   1 -11   44.43    6.23
  -5  -1  11   35.38    4.53
  -5   1  10  241.11   15.64
  -5  -1  10  236.54   15.33
   5   1 -10  264.30   16.85
   5  -1 -10  255.50   16.44
  -5  -1  10  233.34   14.77
  -5   1  10  230.11   26.15
  -5  -1  10  267.78   23.43
  -5  -1  10  270.56   24.00
   5   1 -10  298.16   16.61
   5   1 -10  186.05   24.00
   5  -1 -10  219.37   26.73
   5  -1 -10  231.29   16.39
   5   1 -10  235.44   16.17
   5   1 -10  272.77   15.22
  -5   1  10  220.10   25.12
  -5  -1  10  209.03   23.56
   5   1  -9  232.19   16.14
   5  -1  -9  264.77   16.34
   5   1  -9  258.16   14.93
  -5   1   9  165.86   19.65
  -5   1   9  232.61   25.65
  -5  -1   9  197.17   21.67
  -5  -1   9  205.34   22.43
   5   1  -9  259.77   15.93
   5   1  -9  246.51   26.36
   5  -1  -9  201.73   25.45
   5  -1  -9  232.98   15.84
   5   1  -9  243.93   15.76
   5   1  -9  256.19   15.08
  -5   1   9  230.90   25.15
  -5  -1   9  181.21   22.01
   5   1  -9  219.29   16.37
  -5   1   9  219.53   14.89
  -5  -1   9  238.59   14.92
   5  -1  -8  279.56   17.57
   5   1  -8  268.33   15.88
   5   1  -8  250.47   17.20
  -5   1   8  244.07   25.36
   5   1  -8  266.46   16.68
   5   1  -8  227.49   24.86
   5  -1  -8  214.96   25.62
   5  -1  -8  246.13   16.51
   5   1  -8  240.96   16.15
   5   1  -8  286.65   16.28
  -5   1   8  224.67   24.37
  -5  -1   8  216.72   23.60
   5   1  -8  251.16   15.17
  -5  -1   8  189.98   21.36
   5  -1  -7 1487.55   68.21
   5   1  -7 1347.68   67.89
   5  -1  -7 1481.76   67.87
   5   1  -7 1420.24   65.93
  -5  -1   7 1268.05   75.23
  -5  -1   7 1364.64   80.76
   5   1  -7 1315.33   79.75
   5  -1  -7 1276.06   80.29
   5  -1  -7 1304.64   66.14
   5   1  -7 1328.53   65.98
   5   1  -7 1423.11   66.18
  -5   1   7 1231.29   77.58
  -5  -1   7 1269.92   77.52
   5   1  -7 1362.93   65.43
  -5   1   7 1363.36   79.32
   5  -1  -7 1334.04   65.87
  -5   1   7 1428.56   65.84
   5   1  -7 1334.92   68.51
  -5  -1   7 1299.58   65.25
   5  -1  -6   81.62    8.74
   5   1  -6   92.40    9.21
   5  -1  -6   83.59    8.49
  -5  -1   6   71.07   11.78
  -5   1   6   79.82   12.98
   5   1  -6   87.22    7.74
  -5   1   6   74.19   12.38
  -5  -1   6   73.40   11.22
   5  -1  -6   77.01    7.55
   5   1  -6   84.81    8.16
   5   1  -6   75.64    7.55
   5   1  -6   80.63    7.47
   5  -1  -6   64.41    7.24
   5   1  -6   80.28   13.00
   5  -1  -6   84.96   13.70
   5   1  -6   80.29    7.29
   5  -1  -6   83.54    7.73
   5  -1  -5  332.79   21.04
   5  -1  -5  380.19   21.30
   5   1  -5  358.79   19.52
  -5  -1   5  288.03   24.48
   5   1  -5  348.41   20.15
   5  -1  -5  318.44   20.31
  -5   1   5  331.44   27.74
  -5  -1   5  334.74   28.32
   5   1  -5  349.74   28.85
   5  -1  -5  306.02   27.75
   5  -1  -5  330.35   19.14
   5   1  -5  319.83   18.90
  -5   1   5  321.07   27.11
   5   1  -5  342.53   19.69
  -5  -1   5  311.22   26.43
   5   1  -5  331.23   19.37
   5  -1  -5  300.40   19.41
   5   1  -4   57.28    7.41
   5  -1  -4   57.96    7.06
  -5   1   4   44.90    9.02
  -5  -1   4   40.33    8.64
   5   1  -4   56.03    5.91
  -5   1   4   40.05    8.65
  -5  -1   4   55.51    8.75
   5  -1  -4   49.93    6.25
   5  -1  -4   40.47    6.27
   5  -1  -4   54.63    7.06
   5   1  -4   48.52    9.56
   5  -1  -4   44.44    9.08
   5   1  -4   44.58    5.97
   5  -1  -4   46.50    6.47
   5  -1  -3  269.32   18.54
   5   1  -3  337.14   19.95
   5  -1  -3  300.30   19.24
   5   1  -3  303.05   18.03
   5  -1  -3  318.15   18.95
  -5   1   3  335.20   25.68
  -5  -1   3  301.88   22.84
   5   1  -3  329.31   18.85
   5  -1  -3  297.86   19.28
  -5   1   3  360.29   26.47
  -5  -1   3  311.58   24.99
   5   1  -3  304.23   25.61
   5  -1  -3  314.86   26.10
   5  -1  -3  307.03   17.71
   5   1  -3  304.93   17.61
   5   1  -3  324.98   18.55
   5  -1  -3  334.46   19.47
   5   1  -3  292.73   16.55
   5   1  -3  314.70   18.74
   5  -1  -3  312.10   19.25
   5   1  -3  307.24   20.14
   5  -1  -2  105.22    8.53
   5   1  -2   88.64    8.96
   5  -1  -2   91.20    8.55
   5  -1  -2   87.39    8.52
   5   1  -2   98.02    8.16
  -5  -1   2   95.12   11.18
   5  -1  -2  103.31    9.32
  -5   1   2  112.72   13.48
  -5  -1   2   95.56   12.29
  -5   1   2   81.34   11.59
   5  -1  -2   99.92    7.69
   5   1  -2   90.52    7.41
   5   1  -2   99.22    8.46
   5  -1  -2  103.08    9.18
   5   1  -2   78.56   11.76
   5  -1  -2   80.37   11.82
   5   1  -2   92.04    7.05
   5   1  -2  113.46    9.16
   5   1  -1  168.43   12.59
   5  -1  -1  163.07   11.33
   5   1  -1  181.28   11.90
  -5   1   1  158.46   18.03
   5  -1  -1  179.46   12.58
  -5  -1   1  170.14   15.33
  -5  -1   1  165.60   15.10
  -5   1   1  173.73   17.10
  -5  -1   1  174.27   16.86
   5  -1  -1  150.45   12.36
   5   1  -1  199.47   18.11
   5  -1  -1  174.17   17.12
   5   1  -1  155.63   10.02
   5  -1  -1  176.27   12.78
   5   1  -1  168.36   10.65
   5  -1  -1  170.95   11.43
   5   1  -1  162.83   12.44
   5  -1  -1  172.79   12.93
   5  -1   0    3.18    2.00
   5   1   0    4.31    3.78
   5   1   0    3.45    3.25
   5  -1   0    3.42    3.50
  -5  -1   0    3.33    3.22
   5   1   0    3.67    3.15
   5  -1   0    5.47    2.58
   5  -1   0    3.81    3.60
   5  -1   0    5.72    2.08
   5   1   0    1.62    3.50
  -5  -1   0    2.37    6.14
   5  -1   0    3.53    3.62
   5   1   0    1.47    3.57
   5  -1   0    8.84    4.68
   5   1   0    7.82    3.06
   5   1   0    2.68    2.81
  -5   1   0    2.85    3.70
   5  -1   0    1.97    4.25
  -5  -1   0    2.83    3.67
   5   1   1 1220.24   59.89
   5   1   1 1228.05   59.36
  -5  -1  -1 1269.86   74.71
   5  -1   1 1129.11   59.11
  -5  -1  -1 1241.64   64.47
   5   1   1 1186.75   59.41
   5   1   1 1199.58   69.93
   5   1   1 1278.81   68.16
   5  -1   1 1225.99   67.42
   5  -1   1 1270.71   58.60
   5  -1   1 1268.66   57.80
   5   1   1 1306.60   59.92
   5   1   1 1166.97   57.38
   5  -1   1 1122.49   58.98
   5   1   1 1182.74   58.28
   5  -1   1 1254.37   58.83
   5   1   1 1259.76   60.35
   5  -1   1 1127.23   59.92
   5   1   1 1198.87   59.90
   5   1   2  504.48   28.80
   5   1   2  558.27   29.34
  -5   1  -2  601.06   38.22
  -5  -1  -2  547.90   33.97
   5   1   2  528.25   29.19
   5   1   2  559.07   37.14
   5  -1   2  511.25   36.02
   5   1   2  602.26   41.39
   5  -1   2  517.69   27.46
   5   1   2  543.44   27.76
   5   1   2  541.35   29.43
   5  -1   2  553.81   28.58
   5  -1   2  505.98   28.50
   5   1   2  561.49   28.68
   5   1   2  541.31   26.90
   5  -1   2  577.22   29.00
   5   1   2  560.36   30.18
   5  -1   2  514.88   29.31
   5   1   2  521.47   29.24
   5   1   3  380.78   23.00
  -5  -1  -3  414.46   21.94
   5   1   3  418.87   23.85
  -5  -1  -3  440.42   34.88
  -5   1  -3  465.31   31.92
  -5  -1  -3  420.58   28.59
   5   1   3  402.87   23.42
   5   1   3  369.80   30.57
   5  -1   3  413.72   30.98
   5   1   3  446.72   35.44
   5  -1   3  432.35   22.88
   5  -1   3  432.51   22.42
   5   1   3  383.71   23.65
   5  -1   3  425.44   23.12
   5   1   3  450.29   23.76
   5   1   3  422.90   21.71
   5  -1   3  413.21   23.55
   5   1   3  410.93   22.68
   5   1   3  421.53   24.45
   5  -1   3  412.24   23.38
   5   1   4  565.66   36.63
   5   1   4  539.22   30.27
  -5  -1  -4  538.74   40.87
  -5  -1  -4  492.85   34.95
   5   1   4  529.78   29.72
   5   1   4  578.62   43.44
   5  -1   4  559.54   29.15
   5  -1   4  561.66   30.10
   5  -1   4  560.53   28.86
   5   1   4  547.49   29.35
   5   1   4  526.81   30.11
   5  -1   4  558.51   29.53
  -5  -1  -4  554.92   28.42
   5   1   4  564.46   30.17
   5   1   4  601.74   28.49
   5  -1   4  528.98   29.92
   5   1   4  565.82   30.62
   5  -1   4  578.45   29.02
   5   1   5  288.63   23.51
  -5  -1  -5  271.57   15.66
   5   1   5  251.25   17.01
  -5  -1  -5  249.56   25.41
  -5   1  -5  259.15   23.08
  -5  -1  -5  228.89   21.44
   5   1   5  249.95   16.62
   5   1   5  268.92   16.89
   5  -1   5  283.95   17.02
   5   1   5  265.26   16.76
   5  -1   5  280.83   16.77
   5   1   5  252.89   22.74
   5  -1   5  245.58   22.79
   5   1   5  278.71   15.56
   5  -1   5  258.15   16.93
   5   1   5  258.31   16.92
   5   1   5  257.31   15.11
   5  -1   5  270.71   15.30
  -5  -1  -6   11.21    3.57
  -5  -1  -6    2.18    4.49
  -5   1  -6    3.28    4.77
   5   1   6    7.45    3.65
  -5   1  -6    3.75    4.87
  -5  -1  -6   18.72    7.08
  -5  -1  -6   17.69    5.90
   5   1   6    6.25    3.33
   5  -1   6   10.76    3.71
   5   1   6    3.53    5.37
   5  -1   6    8.20    3.49
   5   1   6    6.73    3.17
   5   1   6    7.82    4.73
   5  -1   6    6.54    4.13
   5  -1   6   18.48    6.99
   5   1   6   11.29    3.75
   5  -1   6    9.84    4.11
   5   1   6    7.89    3.75
   5   1   6   10.26    2.96
   5  -1   6    4.55    2.80
   5   1   6    6.80    4.94
  -5   1  -7  772.59   49.30
  -5  -1  -7  749.34   49.27
   5   1   7  688.02   46.57
  -5  -1  -7  748.79   36.90
   5   1   7  692.68   37.27
  -5  -1  -7  685.66   48.98
  -5  -1  -7  722.42   46.68
   5   1   7  781.03   53.79
   5  -1   7  742.66   37.31
   5   1   7  682.12   46.87
   5  -1   7  762.07   49.28
   5   1   7  721.48   37.82
   5   1   7  643.02   36.15
   5  -1   7  673.42   37.06
   5   1   7  744.92   38.07
   5   1   7  774.94   36.94
   5  -1   7  738.21   37.21
   5   1   7  709.25   36.53
   5   1   7  698.13   36.09
   5  -1   7  748.47   36.60
  -5   1  -8  245.12   24.94
  -5  -1  -8  255.79   25.55
   5   1   8  220.36   15.31
  -5  -1  -8  249.01   25.41
  -5  -1  -8  255.38   23.87
   5  -1   8  242.44   16.15
   5   1   8  264.79   27.92
   5  -1   8  287.16   16.83
  -5  -1  -8  259.73   16.02
   5   1   8  208.89   23.14
   5  -1   8  244.55   25.07
   5  -1   8  247.56   15.98
   5   1   8  259.78   16.69
   5   1   8  258.82   15.96
   5  -1   8  271.36   15.73
   5   1   8  260.74   15.46
   5  -1   8  264.59   15.76
  -5  -1  -9   14.17    3.94
  -5  -1  -9    4.19    4.74
   5  -1   9    9.11    3.78
   5  -1   9   20.16    4.20
   5  -1   9   11.31    3.59
   5   1   9   12.26    7.47
   5  -1   9   15.61    4.50
   5   1   9   13.89    3.98
   5   1   9   12.82    4.45
  -5  -1  -9    9.64    6.39
  -5   1 -10  164.10   18.70
  -5  -1 -10  136.70   17.47
  -5  -1 -10  133.27   10.59
  -5  -1 -10  133.83   16.25
   5  -1  10  132.27   10.23
   5   1  10  142.06   17.37
   5  -1  10  127.74    9.70
   5   1  10  138.64   10.71
   5  -1  10  132.40    9.62
   5   1  10  138.75   10.43
   5   1  10  148.36   10.65
  -5  -1 -11  151.91   10.69
   5   1  11  129.12    9.23
   5  -1  11  142.45    9.61
   5   1  11  137.96   10.38
   5   1  11  136.82    9.91
   5   1  11  155.58   10.57
   5   1  11  119.58    9.44
   5  -1  11  138.97   10.03
  -5  -1 -12    2.82    2.95
   5  -1  12    3.45    2.58
   5   1  12    3.97    3.27
   5   1  12    0.83    2.83
   5   1  12    0.33    2.50
   5   1  12    0.73    2.40
   5  -1  12   -0.39    2.54
  -5  -1 -13  191.49   11.46
   5  -1  13  203.29   11.43
   5   1  13  195.92   11.48
   5   1  13  203.09   11.79
   5   1  13  164.48   10.97
   5  -1  13  174.43   11.26
   5  -1  14    0.66    1.69
   5   1  14    2.73    1.99
   5   1  14    1.34    2.01
   5  -1  15   47.26    3.63
   5  -2 -14  211.14   11.37
  -5  -2  13  119.80    8.15
  -5   2  13  152.51    9.02
   5  -2 -13  138.78    8.43
   5   2 -13  142.41    8.79
   5   2 -12  299.08   16.20
  -5  -2  12  262.08   15.53
  -5   2  12  288.33   16.27
   5  -2 -12  302.69   16.09
   5   2 -12  281.63   16.64
   5  -2 -11   19.44    3.83
   5   2 -11   16.25    3.88
  -5  -2  11   22.19    3.33
   5  -2 -11   20.51    3.75
   5  -2 -10    3.43    3.08
   5   2 -10    6.86    3.82
   5   2 -10   -1.21    3.45
  -5  -2  10    1.31    2.43
   5  -2 -10    1.90    2.89
   5  -2  -9   -0.57    3.06
   5   2  -9    8.67    4.21
   5   2  -9    0.70    3.49
   5   2  -9    0.49    2.99
  -5  -2   9    0.95    2.18
   5  -2  -9    0.53    3.05
   5   2  -8  374.73   22.09
  -5   2   8  299.94   27.90
  -5   2   8  327.87   31.61
  -5  -2   8  358.63   32.34
   5   2  -8  327.55   19.11
  -5  -2   8  301.01   18.28
   5  -2  -8  342.06   20.27
   5  -2  -8  374.02   20.99
   5   2  -8  356.73   22.52
   5   2  -7   35.78    7.01
   5   2  -7   37.05    6.43
  -5   2   7   55.40    9.91
  -5  -2   7   48.30   11.46
   5   2  -7   36.76    5.60
   5   2  -7   41.49    5.36
  -5  -2   7   37.31    4.34
   5  -2  -7   29.23    5.11
   5   2  -6  331.89   21.40
   5   2  -6  353.72   19.36
  -5   2   6  271.26   26.53
  -5  -2   6  318.81   33.47
   5   2  -6  368.64   20.48
   5   2  -6  349.32   19.85
  -5  -2   6  311.69   17.94
   5  -2  -6  310.49   19.31
   5   2  -6  306.67   19.07
   5   2  -6  317.27   22.01
   5  -2  -6  305.09   20.43
   5   2  -5  139.66   12.24
   5   2  -5  153.85   10.69
  -5   2   5  133.06   16.34
  -5  -2   5  135.39    9.25
   5  -2  -5  134.05   10.34
   5   2  -5  121.25   10.43
   5   2  -5  151.56   13.04
   5  -2  -5  128.29   11.50
   5   2  -4   99.15    9.66
   5   2  -4   81.42    7.71
  -5   2   4   78.43   12.02
  -5  -2   4  109.67   20.54
   5   2  -4   81.35    8.18
   5   2  -4   85.28    8.15
  -5  -2   4   78.93    6.37
   5  -2  -4   89.25    7.38
   5   2  -4   74.41    7.90
   5  -2  -4   88.49    8.67
  -5   2   3  385.56   31.05
  -5  -2   3  414.98   35.31
  -5  -2   3  515.77   47.01
   5   2  -3  420.90   24.79
   5  -2  -3  398.56   25.76
   5   2  -3  451.89   24.60
   5   2  -3  433.83   24.85
   5  -2  -3  452.32   23.05
   5   2  -3  431.19   25.06
   5  -2  -3  454.41   24.96
   5   2  -2   40.68    6.44
   5  -2  -2   38.88    5.23
  -5  -2   2   48.23   11.86
  -5   2   2   44.52    8.74
  -5  -2   2   53.55   14.13
   5   2  -2   36.40    5.86
   5  -2  -2   45.94    6.80
   5   2  -2   39.82    5.53
   5  -2  -2   40.81    4.79
   5   2  -2   48.19    6.39
  -5  -2   2   38.82    4.20
   5   2  -2   46.10    6.67
   5   2  -1   15.60    4.71
   5  -2  -1   14.40    3.30
   5   2  -1   12.44    4.44
  -5  -2   1   10.15    7.62
   5   2  -1   18.30    4.44
  -5  -2   1   20.70    6.05
  -5  -2   1   18.02    9.36
   5   2  -1   14.33    4.25
   5  -2  -1   25.12    5.50
   5  -2  -1   13.15    3.04
   5   2  -1   17.55    4.50
   5   2  -1   12.65    3.23
   5   2  -1   21.73    5.39
   5   2   0  847.86   44.75
  -5  -2   0  866.98   42.23
   5   2   0  872.52   43.99
  -5  -2   0  846.25   65.38
  -5   2   0  902.87   52.89
  -5  -2   0  864.21   61.49
   5   2   0  830.84   44.06
   5   2   0  866.29   53.78
   5  -2   0  948.71   45.23
   5  -2   0  824.73   41.94
   5   2   0  897.36   44.63
   5   2   0  856.06   42.38
   5   2   0  858.94   45.07
   5  -2   0  812.30   41.55
  -5  -2  -1  399.20   22.12
   5   2   1  407.84   24.00
  -5  -2  -1  417.56   41.12
  -5   2  -1  466.67   34.28
  -5  -2  -1  407.92   30.41
  -5  -2  -1  454.95   36.56
   5   2   1  380.58   32.32
   5  -2   1  441.60   24.61
   5  -2   1  403.38   22.03
   5   2   1  406.37   21.61
   5   2   1  415.15   22.81
   5   2   1  404.47   24.86
  -5  -2  -2  148.01   10.59
   5   2   2  183.18   12.85
  -5  -2  -2  179.38   25.53
  -5  -2  -2  124.46   16.00
  -5  -2  -2  195.61   19.42
   5  -2   2  150.44   10.47
   5   2   2  157.17   20.29
   5   2   2  168.41   10.86
   5   2   2  156.02   11.61
  -5  -2  -3  150.57   10.36
  -5   2  -3  132.75   16.52
  -5  -2  -3  131.46   21.25
  -5  -2  -3  142.49   16.78
   5   2   3  114.26   18.18
   5   2   3  137.81   10.21
   5   2   3  144.05   12.12
   5   2   3  146.52   11.35
   5   2   3  152.91   12.72
   5   2   4  199.26   14.82
   5   2   4  220.74   25.45
   5  -2   4  225.07   15.00
   5   2   4  190.05   13.29
   5   2   4  207.74   15.00
   5   2   4  219.39   14.67
   5   2   4  193.76   15.05
   5  -2   5    9.77    3.74
   5   2   5   11.67    4.19
   5   2   5    8.33    8.45
   5   2   5   11.43    4.37
   5   2   5   11.11    4.16
   5   2   5    9.45    2.78
   5   2   5    3.81    3.92
   5   2   5    4.07    3.80
   5   2   6  993.25   53.23
  -5  -2  -6  946.66   67.39
  -5  -2  -6  920.21   62.62
   5  -2   6 1129.00   54.09
   5   2   6 1124.74   70.78
   5  -2   6 1077.16   53.46
   5  -2   6 1147.79   54.23
   5   2   6 1071.71   52.52
   5   2   6 1027.89   53.09
   5   2   6 1110.63   53.44
   5   2   6 1005.26   50.64
   5   2   6 1038.05   53.00
  -5  -2  -7   24.91    9.52
   5   2   7   33.25    5.62
  -5  -2  -7   27.45    8.77
   5  -2   7   34.57    6.13
   5  -2   7   36.00    5.90
   5   2   7   40.95   12.08
   5   2   7   33.25    5.43
   5   2   7   32.52    5.88
   5   2   7   30.23    4.58
   5   2   7   34.12    6.11
   5   2   7   36.59    5.69
  -5  -2  -8   99.73    8.72
   5   2   8   95.21    8.87
   5  -2   8  106.95    9.39
   5  -2   8   86.66    7.34
   5  -2   8  104.21    9.48
   5  -2   8  104.41    9.25
   5   2   8  108.39    9.27
   5   2   8   75.45    7.81
   5   2   8  105.33    8.12
   5   2   8   91.06    7.88
  -5  -2  -9   50.18    6.26
   5   2   9   43.69    5.52
   5  -2   9   47.29    5.00
   5   2   9   31.17    4.56
   5   2   9   48.61    6.23
   5   2   9   56.15    5.63
   5  -2  10  113.89    7.84
   5   2  10  126.34    9.36
   5   2  10  105.67    8.78
   5   2  10  135.94    8.69
  -5  -2 -11  260.53   14.74
   5  -2  11  247.96   14.32
   5  -2  11  217.40   13.82
   5   2  11  255.74   14.51
   5   2  11  227.38   14.06
   5   2  11  229.87   13.67
  -5  -2 -12   51.56    4.95
   5  -2  12   37.70    4.21
   5   2  12   43.75    4.38
   5   2  12   37.40    4.27
   5   2  13    1.84    2.02
   5   2  13    2.76    1.82
   5  -3 -11    1.33    1.50
  -5  -3  11    1.49    1.34
   5  -3 -10  214.89   12.81
  -5   3  10  229.42   12.56
   5  -3 -10  242.29   13.33
   5   3  -9   85.73    7.55
   5  -3  -9  100.34    7.63
  -5   3   9  112.74    7.46
   5  -3  -9  112.85    8.29
   5   3  -8    6.49    3.88
   5   3  -8   11.13    3.64
  -5  -3   8   14.79    3.11
   5  -3  -8    7.98    3.02
  -5   3   8    7.13    2.91
   5   3  -7    2.74    3.56
   5   3  -7    3.54    3.34
  -5  -3   7    7.54    2.96
  -5  -3   7    3.25    2.20
   5  -3  -7    1.68    2.96
   5   3  -6  233.65   16.09
  -5  -3   6  268.43   15.55
   5   3  -6  241.22   14.42
  -5  -3   6  244.75   13.96
   5  -3  -6  191.09   13.84
   5   3  -6  222.59   16.55
   5  -3  -6  228.80   15.78
   5   3  -5   40.17    6.97
   5  -3  -5   47.70    6.71
   5   3  -5   54.76    6.98
  -5  -3   5   50.37    6.21
   5   3  -5   52.99    5.95
  -5  -3   5   49.07    5.08
   5  -3  -5   31.94    4.49
   5   3  -5   43.61    5.28
   5  -3  -4   29.53    5.70
   5   3  -4   26.85    5.94
  -5  -3   4   29.65    5.14
   5   3  -4   24.68    4.09
   5   3  -4   26.12    4.61
   5   3  -4   24.22    4.52
  -5  -3   4   25.14    3.77
   5   3  -4   28.46    4.89
   5   3  -3    1.60    3.51
   5  -3  -3    3.52    3.69
   5   3  -3   -0.72    3.62
   5   3  -3    0.95    2.78
   5   3  -3   -0.58    3.04
   5   3  -3    1.10    2.94
  -5  -3   3    0.41    2.05
   5   3  -3    2.28    3.46
   5   3  -2  183.30   14.37
   5   3  -2  177.55   12.59
   5   3  -2  171.26   13.16
   5   3  -2  185.43   13.21
  -5  -3   2  197.51   12.03
   5   3  -2  182.51   13.62
   5  -3  -2  191.21   13.02
  -5  -3   1  234.83   14.17
   5   3  -1  201.18   14.14
   5   3  -1  218.36   15.03
   5  -3  -1  198.06   13.22
  -5  -3   1  205.76   13.31
   5   3  -1  224.19   15.06
   5   3  -1  217.92   15.80
   5   3  -1  222.41   16.39
   5  -3  -1  193.63   13.23
   5  -3   0   59.66    6.14
  -5  -3   0   71.02    7.14
   5   3   0   86.83    8.22
   5   3   0   76.54    8.21
   5   3   0   72.98    8.35
  -5  -3   0   90.01    7.13
   5   3   0   86.44    9.14
   5   3   1    7.21    4.40
  -5  -3  -1    5.83    3.82
   5   3   1   10.47    3.93
   5  -3   1   11.99   15.13
   5   3   1   10.01    4.08
   5  -3   1    4.34    4.51
  -5  -3  -1    9.65    3.28
   5   3   1   13.39    4.18
   5   3   1   12.17    5.01
  -5  -3  -2  101.45    8.66
   5   3   2   99.39    9.78
   5   3   2  101.00    9.94
   5  -3   2  108.30   16.04
   5  -3   2  117.71   11.47
  -5  -3  -2  120.74    8.46
   5   3   2  116.69   10.47
   5   3   2  101.97    8.60
   5   3   2   96.42   10.14
  -5  -3  -3    9.55    3.56
   5   3   3    8.38    3.74
   5  -3   3    2.14   12.31
   5   3   3    2.02    3.81
   5   3   3    1.92    3.30
  -5  -3  -4  524.45   26.86
   5   3   4  442.39   27.70
   5  -3   4  519.90   29.38
  -5  -3  -4  504.48   25.60
   5   3   4  487.02   26.95
   5   3   4  489.48   28.40
  -5  -3  -5   74.46    7.09
   5   3   5   52.92    7.38
   5   3   5   71.31    6.47
   5   3   5   64.62    7.52
   5   3   5   70.79    7.28
   5   3   5   71.51    7.89
  -5  -3  -6    8.20    3.72
   5   3   6    9.63    3.72
   5   3   6    1.09    3.13
   5   3   6    7.88    3.48
   5   3   6    8.28    3.74
   5   3   6    6.82    3.74
   5   3   7   39.52    5.45
   5   3   7   40.74    5.43
   5   3   7   52.65    5.41
   5   3   7   39.99    5.25
   5   3   7   40.73    5.46
   5   3   7   35.20    5.24
  -5  -3  -8  409.80   20.12
   5   3   8  342.86   20.25
   5  -3   8  363.71   20.57
   5   3   8  331.63   20.12
   5  -3   8  391.71   26.11
   5  -3   8  387.67   23.00
   5   3   8  425.09   20.13
   5   3   8  316.89   19.75
   5   3   8  376.50   20.31
  -5  -3  -9    4.02    2.39
   5   3   9    6.22    2.54
   5  -3   9    5.64    6.39
   5   3   9    3.27    2.03
   5   3   9    9.90    2.74
   5   3   9    3.30    2.63
  -5  -3 -10   27.08    3.39
   5   3  10   31.00    3.65
   5   4  -3   49.32    6.19
   5   4  -3   45.53    5.60
   5   4  -2   29.56    4.97
   5   4  -2   27.01    4.49
   5   4  -1   15.13    3.50
  -5  -4   1   16.45    2.62
   5   4  -1   11.16    3.02
   5   4   0   22.91    3.97
   5   4   0   13.91    3.21
  -5  -4   0   35.26    4.08
   5   4   0   16.46    3.25
  -5  -4   0   30.95    3.43
   5   4   0   21.11    3.65
   5   4   1   26.49    3.98
  -5  -4  -1   46.27    4.39
   5   4   1   26.65    4.11
  -5  -4  -1   35.71    3.87
   5   4   1   41.57    4.65
   5   4   2   64.96    6.53
   5   4   2   63.96    6.03
   5   4   2   81.95    6.35
  -5  -4  -2   83.35    5.93
   5   4   2   73.75    6.47
   5   4   2   53.32    6.63
   5   4   3   40.61    4.75
   5   4   3   44.76    4.80
  -5  -4  -3   54.16    4.41
   5   4   3   52.30    5.10
   6   0 -14   15.27    2.38
   6   0 -14   15.25    2.80
  -6   0  14   13.44    2.66
   6   0 -14   18.37    3.28
  -6   0  13    0.37    2.19
   6   0 -13   -0.77    2.27
   6   0 -13   -1.74    3.26
   6   0 -12 1125.86   52.00
  -6   0  12 1041.68   51.35
   6   0 -12 1084.78   51.64
   6   0 -12  956.83   51.61
   6   0 -11   -2.85    3.18
   6   0 -11    0.55    2.50
  -6   0  11   -2.61    3.31
   6   0 -11   -2.97    4.15
  -6   0  10   73.95    7.41
   6   0 -10   78.01    7.72
   6   0 -10   77.72    7.66
   6   0 -10   77.38    8.37
   6   0 -10   62.25    7.31
   6   0  -9    0.65    3.42
  -6   0   9    2.57    5.76
  -6   0   9    2.33    4.26
   6   0  -9    1.22    3.22
   6   0  -9   -2.17    2.80
   6   0  -9    2.79    5.10
   6   0  -9   -0.65    3.93
   6   0  -9    0.46    3.00
  -6   0   8  292.11   28.18
   6   0  -8  292.10   19.06
   6   0  -8  274.57   29.67
   6   0  -8  302.97   19.36
   6   0  -8  344.01   19.29
  -6   0   8  342.30   31.20
   6   0  -8  287.75   18.03
  -6   0   8  312.03   18.88
   6   0  -8  343.20   20.39
   6   0  -7    4.43    3.82
   6   0  -7    1.74    3.23
  -6   0   7   -2.17    4.44
   6   0  -7   -1.29    3.28
   6   0  -7   -2.94    3.53
   6   0  -7   -2.59    4.11
   6   0  -7    4.34    4.09
   6   0  -7    1.60    3.12
   6   0  -6   55.00    6.94
   6   0  -6   31.31    5.86
  -6   0   6   30.60    8.53
   6   0  -6   39.03    5.96
   6   0  -6   34.75    5.42
  -6   0   6   27.31    8.25
   6   0  -6   39.31   10.92
   6   0  -6   40.04    5.78
   6   0  -6   45.56    5.89
   6   0  -6   36.35    5.54
   6   0  -5    3.76    3.83
  -6   0   5    2.15    4.81
   6   0  -5   -0.57    3.10
  -6   0   5   -3.85    4.66
   6   0  -5   -0.60    2.81
   6   0  -5    2.32    4.74
   6   0  -5    2.84    3.79
  -6   0   4   16.32    6.55
   6   0  -4   20.51    4.37
  -6   0   4   25.35    7.49
   6   0  -4   20.45    4.69
   6   0  -4   39.35    9.23
   6   0  -4   25.66    4.68
   6   0  -4   23.12    3.99
   6   0  -4   27.66    5.16
  -6   0   3    1.95    4.00
   6   0  -3   -2.08    2.70
   6   0  -3   -0.51    3.08
   6   0  -3    0.81    2.74
   6   0  -3    1.22    3.53
  -6   0   2    3.76    4.88
   6   0  -2    7.49    3.96
   6   0  -2    8.66    3.28
  -6   0   2    5.01    4.06
   6   0  -2   15.51    3.96
   6   0  -2   11.95    5.49
   6   0  -2   12.37    3.73
   6   0  -2    9.73    3.55
   6   0  -2    7.59    3.78
   6   0  -1    3.87    3.59
   6   0  -1   -1.17    3.54
   6   0  -1    3.75    3.57
   6   0  -1    0.41    2.24
   6   0  -1   -1.26    3.10
   6   0  -1    1.92    3.52
   6   0  -1   -0.38    2.79
   6   0  -1    2.89    3.11
   6   0  -1    0.88    2.91
  -6   0   1    1.81    4.70
   6   0   0  173.11   12.83
   6   0   0  185.43   13.24
  -6   0   0  158.78   18.09
   6   0   0  198.64   13.73
   6   0   0  205.20   20.78
   6   0   0  201.97   12.06
   6   0   0  203.04   13.83
   6   0   0  166.74   11.64
   6   0   0  184.68   12.30
   6   0   0  180.09   13.66
  -6   0  -1    2.22    4.06
   6   0   1    1.20    3.24
   6   0   1   -0.60    3.65
   6   0   1    0.42    2.32
   6   0   1   -1.88    3.73
   6   0   1   -1.91    3.04
   6   0   1    2.57    3.42
   6   0   1    0.50    3.22
   6   0   1    0.68    3.69
   6   0   2 3533.07  161.76
   6   0   2 3341.98  161.05
   6   0   2 3325.40  173.66
   6   0   2 3478.83  159.90
   6   0   2 3472.50  160.00
   6   0   2 3416.34  161.47
   6   0   2 3578.68  160.40
   6   0   2 3570.40  161.12
   6   0   2 3489.69  162.07
  -6   0  -3   -2.04    2.53
  -6   0  -3    2.16    4.42
   6   0   3    1.17    3.46
   6   0   3    1.03    2.66
   6   0   3   -0.90    2.98
   6   0   3   -2.07    5.01
   6   0   3    2.77    3.09
   6   0   3    1.00    3.42
   6   0   3   -0.61    3.85
  -6   0  -4  105.33    8.05
   6   0   4  108.70    9.22
   6   0   4  110.67    8.53
   6   0   4  108.70    8.92
   6   0   4  109.23    9.48
   6   0   4  110.42    8.67
   6   0   4  113.51    9.42
  -6   0  -5    4.30    4.40
   6   0   5   -0.48    2.77
   6   0   5    0.62    4.05
   6   0   5   -0.48    2.75
  -6   0  -6 1221.86   60.82
  -6   0  -6 1271.31   75.70
   6   0   6 1296.67   63.20
   6   0   6 1360.20   62.47
  -6   0  -7    2.11    3.87
  -6   0  -7   -2.32    6.02
   6   0   7   -0.49    3.02
   6   0   7    2.15    4.41
   6   0   7   -1.79    4.13
   6   0   7    0.58    3.57
   6   0   7   -0.48    2.67
  -6   0  -8    4.80    5.82
   6   0   8   -4.42    6.41
   6   0   8    8.73    3.14
   6   0   8    7.44    4.36
   6   0   8   12.81    4.01
   6   0   8    6.37    3.16
   6   0   9   -1.67    2.47
   6   0   9   -0.53    3.86
   6   0   9   -0.93    3.11
   6   0   9    1.94    2.81
   6   0  10   20.99    3.74
   6   0  10   20.71    4.45
   6   0  10   13.79    3.61
   6   0  10   16.01    3.87
   6   0  11   -1.16    2.83
   6   0  11   -2.63    2.90
   6   0  11    0.85    2.77
   6   0  11    2.45    2.56
   6   0  12   24.62    3.65
   6   0  13    0.43    1.77
   6   1 -14  171.50    9.78
  -6   1  14  160.06    9.34
   6  -1 -14  155.51    9.62
   6   1 -14  161.24    9.61
   6  -1 -14  166.08    9.35
   6  -1 -14  169.94    9.28
   6  -1 -13   -1.10    1.96
   6   1 -13    1.10    2.15
   6   1 -13    0.99    2.17
  -6   1  13   -0.58    2.04
  -6  -1  13    2.42    1.88
  -6   1  13    1.42    2.23
   6   1 -12   42.07    5.13
   6   1 -12   36.87    4.75
  -6   1  12   32.20    4.25
  -6  -1  12   31.01    4.06
   6  -1 -12   39.01    4.26
   6  -1 -11   29.99    4.31
   6   1 -11   35.24    5.19
   6   1 -11   30.30    4.70
   6  -1 -11   33.89    5.03
  -6  -1  11   30.95    3.74
  -6   1  11   31.07    4.43
  -6  -1  11   33.50    4.45
   6   1 -11   35.83    4.80
   6  -1 -11   28.48    5.33
   6   1 -11   27.47    4.80
  -6   1  10   59.41    6.15
  -6  -1  10   57.74    6.07
   6   1 -10   47.53    6.59
  -6  -1  10   53.75    5.40
   6   1 -10   69.87    6.83
   6   1 -10   74.37    7.34
   6   1 -10   54.37    5.78
   6  -1 -10   54.78    7.17
   6  -1 -10   63.65    6.47
   6  -1  -9   47.83    6.27
  -6  -1   9   49.45    5.89
   6   1  -9   59.28    6.12
   6   1  -9   61.06    6.67
   6   1  -9   45.92    5.72
   6  -1  -9   51.75    7.01
   6   1  -9   56.82    6.97
  -6   1   9   55.12    6.24
   6  -1  -8  181.01   13.05
   6   1  -8  156.65   12.65
   6  -1  -8  164.03   12.50
   6   1  -8  157.30   11.40
  -6   1   8  151.26   19.79
  -6   1   8  132.56   18.81
  -6  -1   8  145.67   16.99
  -6  -1   8  108.72   16.50
   6   1  -8  171.43   12.26
   6  -1  -8  168.29   21.36
   6   1  -8  149.75   11.76
   6   1  -8  154.36   11.42
   6   1  -8  150.27   19.89
   6   1  -8  151.32   10.83
   6  -1  -7  322.55   19.94
   6   1  -7  312.12   20.09
   6  -1  -7  344.43   19.96
   6   1  -7  299.21   18.28
  -6   1   7  312.12   29.03
  -6  -1   7  258.50   24.45
  -6  -1   7  307.74   29.97
   6   1  -7  313.95   19.18
   6   1  -7  294.34   29.04
   6  -1  -7  248.37   28.22
  -6   1   7  286.02   28.42
  -6  -1   7  321.36   28.66
   6   1  -7  310.47   18.12
  -6   1   7  287.35   17.96
  -6  -1   7  284.34   17.81
   6   1  -6   12.91    5.44
   6  -1  -6   15.05    4.59
   6  -1  -6   13.32    4.40
  -6   1   6   17.73    6.76
  -6  -1   6    8.56    6.23
  -6   1   6   19.91    7.33
  -6  -1   6   17.97    5.24
   6   1  -6   16.66    4.47
   6   1  -6   16.36    6.80
   6  -1  -6   22.38    8.84
   6   1  -6    9.79    3.68
   6  -1  -6   12.64    4.21
   6  -1  -5  585.66   33.15
   6   1  -5  588.65   33.81
   6  -1  -5  623.32   33.43
   6   1  -5  606.84   32.04
  -6  -1   5  578.11   42.16
  -6  -1   5  506.03   38.62
   6   1  -5  657.35   33.18
   6  -1  -5  595.92   33.06
  -6   1   5  631.25   43.48
   6   1  -5  564.14   42.97
   6  -1  -5  555.10   43.26
   6  -1  -5  591.61   31.91
   6   1  -5  607.44   31.92
   6   1  -5  626.26   32.52
  -6   1   5  605.63   43.16
  -6  -1   5  520.89   40.81
   6   1  -5  635.13   32.35
   6  -1  -5  581.00   32.50
   6   1  -5  565.98   34.12
   6  -1  -4  296.93   19.94
   6   1  -4  352.36   21.79
   6  -1  -4  305.25   20.28
   6   1  -4  356.93   20.08
  -6  -1   4  318.46   30.45
  -6   1   4  346.73   29.20
  -6  -1   4  336.21   26.40
   6   1  -4  327.74   20.20
   6  -1  -4  313.87   20.35
   6   1  -4  307.03   28.47
   6  -1  -4  322.59   29.37
  -6   1   4  368.84   29.61
   6  -1  -4  301.87   19.12
   6   1  -4  321.72   19.30
  -6  -1   4  344.50   28.53
   6  -1  -4  349.65   20.73
   6   1  -4  299.56   19.64
   6  -1  -4  336.89   20.53
   6   1  -4  362.53   22.57
   6   1  -3   23.75    5.70
  -6   1   3   13.54    6.19
  -6  -1   3   15.23    5.84
   6  -1  -3   15.01    3.97
   6   1  -3   22.37    5.68
   6  -1  -3   17.54    4.48
  -6  -1   3   16.37    7.54
  -6  -1   3   16.98    5.54
   6  -1  -3   15.07    4.87
   6  -1  -3   20.60    5.02
   6   1  -3   18.12    3.49
   6   1  -3   17.90    4.46
   6  -1  -3   17.53    4.69
   6   1  -3   26.27    8.11
   6  -1  -3   35.31    8.96
   6  -1  -3   18.85    4.38
   6   1  -3   19.72    4.52
   6   1  -3   16.43    3.43
   6   1  -3   28.00    5.69
   6  -1  -2 1072.85   50.65
   6   1  -2 1094.92   53.66
   6  -1  -2 1024.42   51.05
   6   1  -2 1043.48   51.57
  -6  -1   2  994.38   69.05
   6  -1  -2 1074.20   52.39
  -6   1   2 1018.34   61.40
  -6  -1   2 1035.44   58.93
   6  -1  -2  999.93   52.24
  -6   1   2 1054.95   61.99
  -6  -1   2  967.76   61.11
   6   1  -2  982.58   61.68
   6  -1  -2 1112.36   63.67
   6   1  -2 1003.01   49.33
   6  -1  -2  952.04   50.29
   6   1  -2  979.46   50.39
   6  -1  -2 1035.94   52.23
   6   1  -2 1004.67   49.54
   6   1  -2 1089.69   52.65
   6   1  -2 1072.04   54.20
   6   1  -1  187.97   14.17
   6   1  -1  172.44   12.60
   6  -1  -1  166.65   12.94
  -6  -1   1  188.93   24.39
  -6   1   1  168.98   18.72
  -6  -1   1  149.83   16.08
   6   1  -1  181.31   13.09
  -6   1   1  166.02   18.44
  -6  -1   1  188.81   19.39
   6  -1  -1  156.62   12.65
   6  -1  -1  188.73   12.75
   6   1  -1  209.00   20.79
   6  -1  -1  171.01   18.84
   6   1  -1  152.83   10.47
   6   1  -1  166.82   10.68
   6  -1  -1  172.28   13.33
   6   1  -1  170.74   11.34
   6   1  -1  187.10   13.65
   6  -1  -1  158.46   13.42
   6   1  -1  139.01   13.25
   6  -1  -1  182.25   11.06
   6   1   0  287.37   19.50
  -6  -1   0  300.38   31.06
  -6   1   0  351.73   29.34
   6  -1   0  262.55   18.43
  -6  -1   0  315.41   24.24
  -6  -1   0  284.10   22.68
   6   1   0  310.77   18.99
  -6   1   0  279.66   25.25
  -6  -1   0  272.19   24.85
   6  -1   0  281.12   18.02
   6   1   0  293.55   25.91
   6  -1   0  294.25   25.85
   6  -1   0  303.10   18.18
   6   1   0  305.15   16.58
   6  -1   0  287.15   17.05
   6   1   0  330.24   19.59
   6   1   0  289.37   16.51
   6  -1   0  279.89   18.53
   6   1   0  302.42   17.45
   6  -1   0  283.61   17.82
   6  -1   0  300.20   19.52
   6   1   0  289.31   19.84
   6   1   1   26.45    5.70
   6   1   1   19.66    4.98
  -6  -1  -1   33.46   10.58
  -6   1  -1   21.58    7.73
   6   1   1   19.77    4.47
   6  -1   1   18.70    4.75
   6   1   1   18.55    4.67
   6   1   1   25.98    3.76
   6  -1   1   24.61    3.96
   6   1   1   29.94    5.44
   6   1   1   41.75   10.04
   6  -1   1   26.57    8.04
   6  -1   1   24.79    4.85
   6   1   1   24.04    4.26
   6   1   1   33.62    5.19
   6   1   1   28.26    5.92
   6  -1   1   22.85    5.74
  -6   1  -1   29.22    7.56
  -6  -1  -1   21.92    7.18
   6   1   2  556.17   31.35
   6   1   2  548.51   31.28
   6  -1   2  558.13   30.36
  -6  -1  -2  503.17   35.59
  -6   1  -2  640.15   41.68
  -6  -1  -2  582.99   40.57
   6   1   2  550.51   31.34
   6   1   2  545.50   40.31
   6  -1   2  547.05   40.23
   6  -1   2  579.49   30.41
   6   1   2  562.59   29.22
   6  -1   2  576.14   29.81
   6   1   2  556.29   31.55
   6   1   2  591.20   29.83
   6  -1   2  591.97   30.19
   6   1   2  574.47   30.60
   6  -1   2  604.25   31.18
   6   1   2  594.93   32.59
   6  -1   2  547.68   31.30
  -6  -1  -3    4.62    3.24
  -6  -1  -3    2.60    5.33
   6   1   3    2.65    3.34
  -6  -1  -3    5.61    3.65
   6   1   3    8.43    4.13
   6  -1   3    9.46    3.38
   6  -1   3   14.20    3.40
   6   1   3    7.44    4.21
   6   1   3   12.03    4.26
   6   1   3    5.28    3.85
   6  -1   3    8.56    4.13
   6   1   3    6.46    4.57
   6  -1   3    5.07    3.58
   6   1   4  200.10   14.19
  -6  -1  -4  205.48   23.49
  -6   1  -4  170.73   19.84
  -6  -1  -4  178.01   17.74
   6   1   4  194.56   13.81
   6  -1   4  163.97   12.47
   6  -1   4  202.42   14.12
   6  -1   4  183.82   12.64
   6   1   4  169.75   13.42
   6   1   4  212.30   13.56
   6  -1   4  189.70   13.47
   6   1   4  198.61   13.91
   6  -1   4  198.30   14.08
   6   1   4  172.99   13.90
   6  -1   4  185.43   12.42
  -6  -1  -4  201.61   12.48
  -6  -1  -5   -4.96    5.56
  -6   1  -5   -1.99    4.83
   6   1   5   -2.53    3.47
   6  -1   5    2.69    2.79
   6   1   5    3.44    3.24
   6  -1   5    3.71    3.39
   6   1   5    2.93    3.26
   6   1   5    1.67    3.93
   6  -1   5   -1.19    4.03
   6   1   5    0.44    2.76
   6   1   5   -1.28    4.35
   6  -1   5   -4.30    3.86
   6   1   5    1.84    3.68
  -6   1  -6  469.89   34.34
  -6  -1  -6  413.16   32.91
  -6  -1  -6  401.68   22.01
   6   1   6  371.40   22.45
  -6  -1  -6  330.78   32.23
   6   1   6  342.95   21.63
   6  -1   6  426.48   22.79
   6  -1   6  399.62   22.84
   6   1   6  442.09   23.40
   6   1   6  336.38   21.61
   6  -1   6  404.22   23.18
   6   1   6  418.45   21.99
   6  -1   6  398.85   22.79
   6   1   6  382.44   22.31
  -6  -1  -7  145.06   10.63
   6   1   7  122.07   10.10
  -6  -1  -7   86.37   15.64
  -6  -1  -7  143.21   15.91
  -6   1  -7  135.65   18.18
  -6  -1  -7  112.00   16.74
   6   1   7  136.30   11.06
   6  -1   7  162.58   11.65
   6   1   7  148.90   11.47
   6   1   7  159.61   10.69
   6  -1   7  145.00   11.03
   6   1   7  135.84    9.91
  -6  -1  -8  170.84   12.64
   6  -1   8  180.23   12.96
   6   1   8  190.53   13.49
   6  -1   8  189.15   13.07
   6   1   8  202.68   13.66
   6   1   8  208.24   13.11
   6  -1   8  190.31   12.52
  -6  -1  -9  195.06   12.87
   6  -1   9  183.11   12.71
   6  -1   9  187.00   12.49
   6   1   9  184.40   12.87
   6   1   9  197.80   12.82
   6  -1  10  188.76   11.76
   6   1  10  186.49   12.01
   6   1  10  168.50   11.87
  -6  -1 -11   35.72    4.48
   6   1  11   36.23    4.00
   6  -1  11   34.48    4.42
   6   1  11   40.55    4.90
   6   1  11   29.77    4.45
   6   1  11   33.02    4.32
  -6  -1 -12  184.63   11.54
   6  -1  12  202.08   11.86
   6   1  12  215.64   12.06
   6   1  12  216.98   12.20
   6  -1  13  144.08    8.59
   6   1  13  146.17    8.63
   6  -1  14    3.23    1.29
   6   2 -12   86.23    5.92
  -6  -2  12   65.70    5.28
   6  -2 -12   88.51    5.89
  -6   2  12   78.46    5.87
   6  -2 -12   87.68    5.88
   6   2 -12   82.10    6.20
   6  -2 -11    2.30    2.17
   6   2 -11    2.10    2.34
  -6  -2  11    0.29    1.59
   6  -2 -11    3.65    2.14
   6  -2 -10    1.62    2.31
   6   2 -10    0.48    2.82
  -6  -2  10    2.83    2.07
   6  -2 -10    0.37    2.25
   6   2  -9  222.95   15.36
  -6  -2   9  230.03   14.11
   6   2  -9  262.74   14.79
   6  -2  -9  244.57   14.43
   6   2  -9  212.34   15.54
   6   2  -8  307.92   19.90
   6   2  -8  338.67   19.11
   6   2  -8  306.23   17.95
   6  -2  -8  326.35   18.63
   6   2  -7  522.38   29.64
   6   2  -7  537.86   27.15
   6  -2  -7  502.48   27.78
   6   2  -7  504.78   27.45
   6  -2  -7  465.50   26.96
   6   2  -7  531.36   27.01
   6  -2  -7  542.90   28.62
   6   2  -7  488.79   29.88
   6  -2  -6   58.99    7.40
   6   2  -6   74.21    8.88
   6   2  -6   73.10    6.86
   6   2  -6   78.32    7.62
   6  -2  -6   61.30    7.34
   6   2  -6   71.68    7.26
   6  -2  -6   57.04    6.21
   6   2  -6   75.22    7.09
   6   2  -5   98.19   10.25
   6   2  -5  129.59    9.59
  -6   2   5   91.54   16.07
  -6   2   5  132.19   15.95
  -6  -2   5  133.52   21.19
   6   2  -5  122.22   10.17
   6  -2  -5   82.09    9.27
   6  -2  -5  112.05    8.95
   6   2  -5  102.27    9.24
   6  -2  -5   93.73    7.86
   6   2  -5  107.36    9.41
   6  -2  -5  102.54    9.50
   6  -2  -4   11.12    3.90
   6   2  -4   19.99    5.85
  -6   2   4    7.48    5.13
  -6   2   4   19.69    6.00
  -6  -2   4    7.04    5.61
   6  -2  -4   11.92    4.34
   6  -2  -4    9.45    3.10
  -6  -2   4   11.26    2.47
   6   2  -4   13.52    4.21
   6   2  -3  733.15   40.09
   6   2  -3  744.47   38.03
  -6   2   3  702.94   51.10
  -6   2   3  716.71   47.85
  -6  -2   3  701.60   58.44
   6   2  -3  723.96   38.64
   6  -2  -3  674.87   38.90
   6  -2  -3  707.56   36.81
   6   2  -3  764.83   38.66
  -6  -2   3  702.76   35.25
   6   2  -3  751.11   38.69
   6   2  -3  711.12   40.63
   6  -2  -3  742.90   37.44
   6  -2  -2   30.33    4.48
   6   2  -2   26.55    5.94
  -6  -2   2   26.46    8.18
  -6   2   2   26.49    8.92
   6   2  -2   30.39    5.17
  -6   2   2   20.84    8.05
  -6  -2   2   15.60   10.79
   6  -2  -2   29.62    5.67
   6   2  -2   22.62    5.11
   6  -2  -2   34.96    4.66
   6   2  -2   28.02    5.34
   6   2  -2   33.52    5.86
   6   2  -1  101.40   10.37
  -6  -2   1   96.62    7.97
   6   2  -1   80.10    8.76
  -6  -2   1   73.67   15.95
  -6  -2   1  134.21   22.42
   6   2  -1   93.45    9.41
   6  -2  -1  111.19   10.30
   6  -2  -1  102.83    8.03
   6   2  -1   82.04    9.01
  -6  -2   1   86.01    6.73
   6   2  -1   90.35    7.49
   6   2  -1   82.05    9.36
   6  -2  -1   96.52    7.42
   6   2   0   76.89    9.12
  -6  -2   0   84.69    7.40
   6   2   0   87.60    8.60
  -6  -2   0   52.42   14.16
  -6   2   0   78.71   12.51
  -6  -2   0   58.85   10.74
  -6  -2   0   86.17   15.32
   6  -2   0   85.86    9.01
   6  -2   0   76.44    6.87
   6   2   0   67.34    8.27
   6   2   0   79.28    7.04
   6   2   0   97.18    9.67
   6   2   0   72.14    9.06
   6   2   1   17.44    5.30
   6   2   1   12.80    4.65
  -6  -2  -1   17.04    3.68
  -6  -2  -1    7.30    8.23
  -6   2  -1   28.21    7.74
   6   2   1   14.07    4.46
  -6   2  -1   18.94    6.77
  -6  -2  -1   17.42    6.24
  -6  -2  -1   24.91    7.26
   6   2   1   23.52    5.08
   6  -2   1   19.35    3.69
   6   2   1   27.55    4.61
   6   2   2  246.79   17.87
  -6  -2  -2  280.26   16.25
  -6  -2  -2  252.16   31.47
  -6   2  -2  260.02   25.39
  -6   2  -2  272.50   25.05
   6   2   2  260.60   17.95
   6  -2   2  261.22   15.85
   6   2   2  270.01   18.52
   6   2   2  264.02   15.51
   6   2   2  276.23   16.76
   6   2   2  246.27   18.10
   6   2   3   75.88    8.33
  -6  -2  -3   57.96   15.37
  -6  -2  -3   66.94   11.56
   6   2   3   62.53    7.78
   6  -2   3   69.90    8.02
   6   2   3   74.60   14.21
   6   2   3   90.15    9.09
   6   2   3   75.46    7.01
   6   2   3   74.55    7.89
   6   2   3   70.41    8.50
   6   2   3   58.89    7.65
   6   2   4    6.59    3.34
  -6  -2  -4    2.97    6.09
   6   2   4    6.15    3.76
  -6  -2  -4    3.70    4.49
   6   2   4    2.04    3.58
   6  -2   4    7.83    3.59
   6   2   4   -5.20    6.73
   6   2   4    2.75    3.33
   6   2   4    7.86    3.86
   6   2   4    3.53    3.89
   6   2   4    9.82    4.26
   6   2   5  210.09   15.72
   6  -2   5  220.96   15.61
   6   2   5  230.53   15.96
   6   2   5  231.01   15.89
   6   2   5  238.75   15.01
   6   2   5  266.18   16.23
   6   2   5  246.77   16.14
  -6  -2  -6  104.78    8.80
   6   2   6  106.24    9.41
   6  -2   6   98.51    9.17
   6   2   6   77.59    8.41
   6  -2   6  105.49    9.63
   6  -2   6  131.15   10.32
   6   2   6  107.76    8.97
   6   2   6   92.02    8.70
   6   2   6  111.05    9.62
   6   2   6  109.20    9.23
  -6  -2  -7   60.67    6.57
   6   2   7   54.36    6.48
   6  -2   7   71.18    7.31
   6   2   7   65.57    6.80
   6  -2   7   71.47    7.36
   6   2   7   62.75    6.88
   6   2   7   58.62    6.26
   6   2   7   78.94    7.53
   6   2   7   61.78    6.48
  -6  -2  -8   24.91    4.65
   6   2   8   21.20    4.03
   6  -2   8   32.48    4.94
   6  -2   8   31.27    4.91
   6   2   8   30.09    4.67
  -6  -2  -9  251.89   15.18
   6  -2   9  266.98   15.36
   6   2   9  241.77   15.00
  -6  -2 -10    4.31    2.98
   6  -2  10    5.18   12.97
   6   2  10    5.43    3.10
   6   2  10    0.34    2.61
  -6  -2 -11  365.41   18.32
   6  -2  11  329.01   17.92
   6   2  11  351.12   17.98
   6   2  11  327.44   17.71
  -6  -2 -12   27.48    3.14
   6  -2  13    9.48    2.70
   6  -3  -8    0.33    2.03
   6   3  -8    1.42    2.29
  -6  -3   8    1.77    1.64
  -6   3   8    5.24    2.26
   6  -3  -7   41.78    5.42
   6   3  -7   47.09    6.01
   6   3  -7   56.79    5.95
  -6  -3   7   61.41    5.31
   6  -3  -6   25.61    4.32
   6   3  -6   23.21    4.75
   6   3  -6   23.06    4.63
  -6  -3   6   24.60    3.78
  -6  -3   6   25.14    2.99
   6   3  -5  342.66   21.08
  -6  -3   5  377.62   20.16
   6   3  -5  374.86   19.85
   6   3  -5  338.26   19.00
  -6  -3   5  354.72   18.42
   6   3  -5  338.34   18.85
   6   3  -5  353.24   21.79
   6  -3  -5  320.65   19.76
   6   3  -4  115.13   10.26
  -6  -3   4  129.36    9.46
   6   3  -4  107.72    8.14
   6   3  -4  115.07    9.00
   6   3  -4  105.00    8.57
  -6  -3   4  121.93    7.91
   6   3  -4   97.85    8.35
   6  -3  -4  104.61    8.85
   6   3  -3    2.87    3.72
   6  -3  -3    4.10    2.66
  -6  -3   3    3.18    2.79
  -6  -3   3    2.30    1.88
   6   3  -3    1.92    3.23
   6   3  -2   14.52    4.78
  -6  -3   2   15.28    3.47
   6   3  -2   11.33    3.16
   6   3  -2   20.12    4.44
  -6  -3   2   15.74    3.67
   6   3  -2   10.90    3.82
  -6  -3   2   10.10    2.48
   6   3  -2   13.81    4.28
   6   3  -1  230.61   17.47
  -6  -3   1  274.67   16.12
   6   3  -1  257.45   16.44
   6   3  -1  256.49   17.03
   6   3  -1  283.89   17.23
  -6  -3   1  293.23   15.42
   6   3  -1  254.86   17.02
   6   3   0   41.46    6.62
  -6  -3   0   41.05    5.36
   6   3   0   31.53    5.18
   6  -3   0   35.43    6.60
   6   3   0   44.23    5.84
  -6  -3   0   47.80    4.80
   6   3   0   38.23    5.85
  -6  -3   0   38.90    4.36
   6   3   0   32.27    5.75
   6   3   1   18.16    4.94
   6   3   1   29.34    5.50
  -6  -3  -1   33.56    4.66
   6   3   1   20.92    4.62
   6  -3   1   34.02    6.12
   6   3   1   20.65    5.05
  -6  -3  -1   27.59    3.83
   6   3   1   20.37    4.78
   6   3   1   24.90    5.48
   6   3   2   29.95    5.68
   6   3   2   37.27    5.86
  -6  -3  -2   39.44    4.97
   6   3   2   23.80    4.88
   6   3   2   27.08    5.27
  -6  -3  -2   37.98    4.34
   6   3   2   35.06    4.40
   6   3   2   31.72    5.86
   6   3   3  103.23    9.30
   6   3   3  107.98    9.15
   6   3   3   92.32    7.79
   6   3   3   89.31    9.27
   6   3   4  154.73   13.11
  -6  -3  -4  245.43   13.37
   6   3   4  198.81   13.77
   6   3   4  195.56   13.77
   6  -3   4  243.98   15.22
   6   3   4  192.68   13.69
   6   3   4  215.75   12.96
   6   3   4  225.76   14.14
  -6  -3  -5   68.59    6.14
   6   3   5   62.48    6.32
   6  -3   5   58.04    6.78
   6   3   5   58.29    6.19
   6   3   5   54.79    5.75
   6   3   5   53.40    6.13
  -6  -3  -6    0.66    2.57
   6   3   6    4.90    2.59
   6   3   6    1.19    2.55
   6  -3   6    7.16    3.89
   6   3   6    4.95    2.39
   6   3   6    2.41    2.66
   6   3   6    1.45    2.30
   6   3   7  116.88    8.01
   6   3   7   87.59    7.42
   6   3   7   87.73    7.29
   6   3   7  135.31    8.06
  -6  -3  -8    1.17    1.86
   6   3   8    3.54    2.20
  -6  -3  -9  153.55    8.61
   7   0 -14    0.60    0.93
   7   0 -14    1.78    1.69
   7   0 -13   69.36    5.24
  -7   0  13   68.43    5.11
   7   0 -13   69.72    5.48
   7   0 -13   57.23    4.71
   7   0 -12   -0.69    2.08
  -7   0  12   -0.32    2.17
   7   0 -12    2.65    2.61
   7   0 -11    6.80    2.68
  -7   0  11    5.59    2.72
   7   0 -11    5.62    3.44
   7   0 -10   -0.52    2.42
  -7   0  10   -1.40    3.13
   7   0 -10   -1.63    3.89
   7   0  -9   53.19    6.22
  -7   0   9   48.63    5.83
   7   0  -9   46.34    5.99
   7   0  -9   48.93    6.67
   7   0  -9   47.80    5.29
   7   0  -8    1.96    3.38
   7   0  -8   -2.52    3.60
  -7   0   8    3.24    3.35
   7   0  -8   -3.01    3.22
   7   0  -8    1.09    2.82
   7   0  -8    0.62    3.72
   7   0  -8    1.93    2.58
   7   0  -7 1591.86   73.34
   7   0  -7 1440.69   71.99
   7   0  -7 1482.88   72.60
   7   0  -7 1406.85   72.22
   7   0  -7 1556.66   72.36
  -7   0   7 1306.19   85.15
   7   0  -7 1492.15   71.74
  -7   0   7 1461.43   71.76
   7   0  -7 1558.24   73.42
   7   0  -6   -3.63    3.64
   7   0  -6    0.71    3.66
  -7   0   6    2.37    4.86
   7   0  -6    1.22    3.16
  -7   0   6    2.14    4.37
   7   0  -6    1.26    2.99
   7   0  -6   -2.55    6.19
   7   0  -6   -0.62    3.80
   7   0  -6    4.69    3.80
  -7   0   5  138.81   17.75
   7   0  -5  112.11    9.61
  -7   0   5  109.96   15.90
  -7   0   5   95.81   14.70
   7   0  -5  117.84   10.21
   7   0  -5   98.39    9.13
   7   0  -5  103.19    9.75
   7   0  -5   99.43   16.17
   7   0  -5   99.02    9.42
   7   0  -5  119.81   10.65
   7   0  -4    1.46    3.73
  -7   0   4   -2.26    5.47
  -7   0   4   -2.50    3.97
  -7   0   4    4.02    4.51
   7   0  -4    1.44    3.60
   7   0  -4   -2.40    4.39
   7   0  -4    0.59    3.77
   7   0  -4    1.32    4.02
  -7   0   3 1031.09   68.13
  -7   0   3  980.75   63.25
   7   0  -3 1096.01   54.52
   7   0  -3 1016.93   66.13
  -7   0   3 1028.77   65.25
   7   0  -3 1078.11   52.37
   7   0  -3  989.41   52.70
   7   0  -3 1109.04   54.41
   7   0  -3 1082.86   52.14
   7   0  -3 1091.10   54.26
   7   0  -3 1089.42   54.25
  -7   0   2    8.71    5.98
   7   0  -2   -1.23    3.14
  -7   0   2   -2.64    6.83
   7   0  -2    0.67    3.36
   7   0  -2   -2.89    4.02
   7   0  -2    0.97    2.25
   7   0  -2    2.85    3.96
   7   0  -2    2.29    3.63
   7   0  -2    0.49    3.28
  -7   0   1   12.94    5.59
   7   0  -1    2.71    4.03
  -7   0   1    3.84    5.28
   7   0  -1    5.71    3.98
   7   0  -1    4.31    2.75
   7   0  -1    2.26    5.08
   7   0  -1    4.63    3.37
  -7   0   0   -2.14    3.39
  -7   0   0   -1.90    3.48
   7   0   0    0.69    3.75
   7   0   0    2.88    2.71
   7   0   0   -2.25    5.05
   7   0   0   -2.18    3.61
   7   0   0    0.75    4.25
  -7   0  -1   79.88   14.40
   7   0   1   79.76    8.28
   7   0   1   74.46    7.00
   7   0   1   72.14    6.81
   7   0   1   71.40    7.22
   7   0   1   63.61   13.08
   7   0   1   83.05    8.06
   7   0   1   67.05    8.62
  -7   0  -1   77.22   12.71
  -7   0  -2   -0.38    2.29
   7   0   2   -1.72    3.24
   7   0   2    0.49    2.64
   7   0   2    2.31    4.23
   7   0   2   -3.67    4.33
   7   0   2    0.61    3.92
   7   0   2   -3.45    4.05
  -7   0  -2   -2.18    5.28
  -7   0  -3  113.06    8.20
   7   0   3  115.48    8.78
   7   0   3  123.02    9.52
   7   0   3  105.49    9.58
   7   0   3  117.23   10.34
   7   0   3  105.93    9.70
  -7   0  -3  102.86   15.61
  -7   0  -4   -1.87    2.64
  -7   0  -4    2.46    4.50
   7   0   4    1.77    2.19
   7   0   4    1.16    4.18
   7   0   4    2.18    3.38
  -7   0  -5   40.92    4.64
  -7   0  -5   40.20   10.05
   7   0   5   34.36    6.17
   7   0   5   28.58    5.74
   7   0   5   33.59    4.66
   7   0   6   -1.04    2.81
   7   0   6    5.98    3.99
   7   0   7  901.56   46.58
   7   0   7  997.39   47.70
   7   0   8   -0.41    2.39
   7   0   8   -2.02    3.81
   7   0   8    0.47    3.14
   7   0   9   43.90    5.52
   7   0   9   50.78    5.41
   7   0  10    1.41    2.25
   7   0  10   -1.76    2.92
   7   0  11  689.37   33.80
   7   0  11  700.35   33.72
   7   0  12    1.33    1.56
   7  -1 -13   56.10    4.12
   7   1 -13   51.16    4.10
   7  -1 -12   20.20    2.80
   7   1 -12   20.80    2.95
  -7   1  12   12.01    2.44
  -7  -1  12   16.92    2.59
   7   1 -12   23.93    3.02
   7  -1 -12   18.30    3.42
   7   1 -12   19.23    3.10
   7  -1 -12   21.22    2.67
  -7   1  12   17.16    2.88
  -7   1  11  394.10   21.09
  -7  -1  11  383.58   20.87
   7   1 -11  452.94   22.11
   7  -1 -11  381.74   21.61
   7   1 -11  387.93   21.42
   7  -1 -11  427.91   21.36
   7   1 -11  430.63   22.14
   7   1 -10   10.98    3.21
  -7  -1  10   11.93    2.29
  -7   1  10   10.72    3.15
  -7  -1  10    7.29    2.65
   7  -1 -10   12.20    2.91
   7   1 -10   11.49    3.05
   7   1 -10    8.92    2.67
   7  -1 -10    8.98    3.52
   7   1 -10    8.36    3.28
  -7   1   9  136.19    9.95
  -7  -1   9  137.39    9.81
   7  -1  -9  149.32   10.94
   7  -1  -9  152.34   10.93
   7   1  -9  151.16   10.63
   7  -1  -9  133.07   10.63
   7   1  -9  144.06   10.77
   7   1  -9  136.90    9.84
   7  -1  -8    1.55    3.03
   7   1  -8   -0.66    3.65
   7  -1  -8   -0.58    2.87
   7  -1  -8    0.57    2.91
   7   1  -8    0.96    2.71
   7   1  -8    1.70    3.02
   7   1  -8    1.49    2.02
   7   1  -8    0.50    2.66
   7  -1  -8   -1.14    3.78
   7   1  -8    4.84    3.65
   7   1  -8    1.25    2.53
   7  -1  -7   98.88    9.00
   7   1  -7  100.45    8.41
   7   1  -7   89.63    8.73
   7   1  -7   88.24    7.24
   7  -1  -7   80.42    8.48
   7   1  -7   88.52    8.32
   7   1  -7   97.09    8.41
   7   1  -7  105.45    8.37
   7  -1  -7   95.00    8.60
  -7   1   7   91.54    8.01
  -7  -1   7  101.19    8.32
   7  -1  -6   30.49    5.18
   7   1  -6   26.60    5.77
   7   1  -6   25.09    5.54
   7  -1  -6   27.55    5.19
  -7   1   6   25.41    4.43
  -7  -1   6   25.25    4.40
   7   1  -6   24.70    4.67
   7   1  -6   30.58    5.40
   7   1  -6   27.70    4.06
   7   1  -6   26.70    4.95
   7  -1  -6   28.14    5.21
   7   1  -6   27.36    4.95
   7   1  -6   25.96    4.85
   7   1  -5  125.49   11.22
   7  -1  -5  124.05   10.63
  -7   1   5  101.11   15.62
   7   1  -5  123.92   10.18
  -7   1   5  101.33   16.24
  -7   1   5  120.12   16.89
  -7  -1   5  114.48   18.52
   7   1  -5  124.09   16.64
   7  -1  -5  143.68   18.23
   7   1  -5  117.39    8.63
   7  -1  -5   98.22    9.45
   7   1  -5  121.97    9.87
  -7  -1   5  111.95   15.34
   7   1  -5  120.77   10.01
   7  -1  -5  134.52   10.98
   7  -1  -5  140.22   10.33
   7   1  -5  133.07   11.71
   7  -1  -4    7.94    3.24
  -7   1   4    2.16    4.44
  -7  -1   4    6.37    5.16
   7   1  -4   11.23    4.78
   7  -1  -4    7.35    3.70
  -7  -1   4   16.69    5.79
  -7   1   4   -2.52    5.16
  -7   1   4   21.37    6.79
   7  -1  -4    8.62    3.44
   7   1  -4    7.68    2.62
   7   1  -4    7.27    4.17
   7  -1  -4   13.02    4.41
   7   1  -4    8.87    5.39
   7  -1  -4   16.28    7.07
   7  -1  -4   11.31    4.26
   7   1  -4    3.85    3.69
   7   1  -4   11.52    3.99
   7  -1  -4   11.71    4.74
   7   1  -3  277.24   20.01
   7  -1  -3  324.03   18.52
   7   1  -3  283.86   18.92
  -7  -1   3  241.13   27.46
  -7   1   3  281.67   29.00
  -7   1   3  289.08   26.95
  -7  -1   3  291.76   24.49
   7  -1  -3  298.57   19.41
   7   1  -3  286.63   27.43
   7  -1  -3  278.95   27.49
   7   1  -3  304.26   17.23
  -7   1   3  293.53   27.48
  -7  -1   3  275.39   26.62
   7   1  -3  344.75   20.11
   7  -1  -3  325.06   19.80
   7   1  -3  320.44   17.21
   7   1  -3  303.01   19.39
   7  -1  -3  289.44   17.52
   7   1  -2  231.32   16.63
   7   1  -2  207.68   15.08
  -7  -1   2  151.72   22.22
  -7  -1   2  217.25   20.37
   7   1  -2  228.37   15.92
   7  -1  -2  217.53   15.36
   7   1  -2  175.62   21.27
   7  -1  -2  222.66   23.48
   7  -1  -2  211.44   15.08
  -7   1   2  206.04   22.06
   7   1  -2  222.19   13.37
  -7  -1   2  225.28   22.90
   7  -1  -2  241.05   16.07
   7   1  -2  218.47   13.54
   7   1  -2  218.47   15.76
   7  -1  -2  260.70   16.74
   7  -1  -2  206.25   13.06
   7   1  -2  194.38   15.89
  -7   1   1  107.34   15.05
  -7  -1   1  121.60   16.18
   7   1  -1  114.04   10.65
  -7  -1   1   85.85   16.45
  -7   1   1  128.76   16.34
  -7  -1   1   95.48   12.82
   7   1  -1   98.47    9.74
   7  -1  -1   90.27    8.72
   7  -1  -1  104.58    9.32
   7   1  -1   96.64    7.58
   7  -1  -1   92.79    9.39
   7   1  -1   89.02    7.29
   7   1  -1   81.57   14.14
   7  -1  -1  114.93   15.87
   7   1  -1   95.96    8.12
   7   1  -1  100.54   10.28
   7  -1  -1   85.84    9.74
   7   1  -1   82.17    9.38
   7   1   0  252.90   18.04
  -7  -1   0  291.21   31.35
  -7   1   0  317.91   26.87
   7   1   0  273.52   18.36
   7   1   0  238.34   25.20
   7  -1   0  208.90   24.04
  -7   1   0  278.64   25.83
  -7  -1   0  246.92   25.09
   7   1   0  269.88   15.74
   7   1   0  286.26   18.66
   7   1   0  274.37   15.74
   7  -1   0  272.51   17.48
   7   1   0  290.01   16.71
   7  -1   0  271.79   18.46
   7   1   0  235.14   17.47
   7   1   1  151.63   13.29
  -7  -1  -1  203.52   12.74
   7   1   1  181.23   14.21
  -7  -1  -1  194.88   25.70
  -7  -1  -1  198.97   19.81
   7   1   1  199.97   14.68
   7   1   1  181.84   21.53
   7  -1   1  166.84   20.64
  -7   1  -1  184.07   21.03
  -7  -1  -1  199.14   21.59
   7  -1   1  218.09   14.05
   7  -1   1  183.79   14.30
   7   1   1  193.07   12.43
   7   1   1  191.97   14.55
   7   1   1  189.95   12.48
   7  -1   1  199.04   13.30
   7   1   1  197.42   13.39
   7   1   1  218.72   15.47
   7  -1   1  203.09   14.59
  -7  -1  -2   35.10    4.98
  -7  -1  -2   26.66   10.25
  -7   1  -2   19.23    7.75
   7   1   2   40.53    6.27
  -7  -1  -2   34.32    7.17
   7  -1   2   38.01    5.33
   7   1   2   34.20    6.06
   7   1   2   25.20    5.46
   7   1   2   35.19    5.07
   7   1   2   30.68    5.32
   7   1   2   37.18    6.74
   7  -1   2   26.26    5.47
   7  -1   2   39.35    6.11
  -7   1  -2   21.41    7.72
  -7  -1  -2   15.01    6.95
  -7  -1  -3  673.10   34.07
   7   1   3  690.28   36.25
  -7   1  -3  607.01   45.53
  -7  -1  -3  590.80   45.44
   7  -1   3  647.88   34.78
   7   1   3  667.48   35.97
   7   1   3  686.54   34.56
   7   1   3  663.84   35.24
   7  -1   3  671.19   35.88
   7   1   3  684.03   36.36
   7  -1   3  647.30   34.69
  -7  -1  -4  421.07   23.05
   7   1   4  410.09   24.42
  -7  -1  -4  381.22   36.28
  -7   1  -4  449.07   35.07
  -7   1  -4  395.18   33.97
  -7  -1  -4  397.47   34.26
   7   1   4  411.85   23.99
   7  -1   4  443.32   24.95
   7   1   4  445.50   24.51
   7   1   4  426.90   23.71
   7   1   4  429.08   24.48
   7  -1   4  414.08   24.57
   7   1   4  423.05   24.52
   7  -1   4  411.82   22.73
  -7  -1  -5   24.44    4.41
   7   1   5   13.73    3.87
   7  -1   5   20.70    4.15
   7   1   5   15.55    3.46
   7  -1   5   22.58    4.55
   7   1   5   21.87    4.81
   7   1   5   23.61    5.18
   7  -1   5   16.10    4.51
   7   1   5   15.67    4.19
  -7  -1  -6   41.41    5.45
   7  -1   6   43.69    5.93
   7  -1   6   35.48    5.09
   7  -1   6   42.39    5.71
   7   1   6   42.49    5.98
   7  -1   6   36.72    5.71
   7   1   6   44.28    5.11
  -7  -1  -7  223.92   14.00
   7  -1   7  232.17   14.65
   7  -1   7  207.08   13.99
   7   1   7  216.10   13.39
   7   1   7  247.66   15.05
  -7  -1  -8    6.89    3.11
   7  -1   8    8.17    2.83
   7  -1   8   13.39    3.34
   7   1   8    6.93    3.83
   7   1   8   13.46    3.80
  -7  -1  -9  113.15    8.13
   7  -1   9  105.96    7.84
   7   1   9   99.95    8.00
  -7  -1 -10    8.14    2.59
   7  -1  10    8.74    2.78
   7   1  10    9.34    2.48
   7  -1  10    9.83    2.38
   7   1  10   12.60    2.94
  -7  -1 -11  108.08    7.01
   7  -1  11  118.97    7.60
   7   1  11  114.56    6.88
   7   1  11  120.96    7.66
   7  -1  12   21.94    2.59
   7   2 -10   80.51    6.26
  -7  -2  10   83.00    5.71
   7  -2 -10   73.29    5.80
   7   2 -10   89.98    6.68
   7  -2  -9   37.30    4.24
   7   2  -9   24.44    4.07
   7   2  -9   36.41    4.51
  -7  -2   9   31.26    3.69
   7   2  -9   36.29    3.89
   7  -2  -9   28.42    3.84
  -7  -2   8   67.70    5.83
   7   2  -8   69.42    6.31
   7  -2  -8   75.32    6.34
   7   2  -8   69.58    5.66
   7  -2  -8   69.10    6.49
   7   2  -7   63.27    7.14
   7   2  -7   73.30    6.11
   7   2  -7   80.66    7.09
   7  -2  -7   73.43    6.58
   7  -2  -7   65.73    6.41
   7   2  -7   81.36    6.67
   7   2  -7   68.21    5.85
   7  -2  -7   80.74    7.14
   7  -2  -6   13.54    3.74
   7   2  -6   15.80    3.38
   7  -2  -6    8.41    3.34
   7  -2  -6    6.71    2.91
   7   2  -6   12.23    3.40
   7  -2  -5    0.48    2.79
   7   2  -5   -0.74    3.26
   7  -2  -5   -1.84    3.28
   7   2  -5    1.70    3.27
   7  -2  -5   -0.92    2.37
   7   2  -5   -2.07    2.84
   7   2  -5    0.48    2.97
   7   2  -4  229.58   17.25
   7   2  -4  254.69   15.88
   7   2  -4  251.97   16.40
   7  -2  -4  241.90   16.62
   7  -2  -4  251.90   15.25
   7   2  -4  240.84   15.84
   7   2  -4  218.29   17.09
   7  -2  -4  280.62   15.56
   7   2  -3  188.18   14.99
   7   2  -3  185.67   13.42
   7   2  -3  191.28   13.82
   7  -2  -3  199.43   14.51
   7  -2  -3  210.26   12.92
   7   2  -3  187.21   13.72
   7   2  -3  182.45   15.25
   7  -2  -3  186.85   12.13
   7   2  -2  144.60   12.77
  -7  -2   2  168.13   11.16
   7   2  -2  155.91   12.27
   7  -2  -2  154.12   12.40
   7  -2  -2  153.31   11.04
   7  -2  -2  169.69   10.98
   7   2  -2  150.04   12.00
   7   2  -2  144.90   11.90
   7   2  -2  121.02   12.59
   7   2  -1   55.96    8.07
   7   2  -1   37.30    7.31
  -7  -2   1   60.13    6.39
   7   2  -1   54.44    7.03
   7  -2  -1   80.27    8.20
   7  -2  -1   57.36    5.93
   7   2  -1   67.16    7.99
   7   2   0  119.53   11.14
  -7  -2   0  135.94    9.72
   7   2   0  119.44   10.54
   7  -2   0  125.18    9.42
   7   2   0  134.82    9.17
   7   2   0  127.70   11.09
   7   2   0   94.15   10.74
   7   2   1    0.69    3.76
   7   2   1    8.24    4.32
   7   2   1    7.37    3.89
   7  -2   1    7.24    3.00
   7   2   1    3.35    3.53
   7   2   1    5.97    3.11
   7   2   2  576.11   34.46
   7   2   2  645.19   35.23
   7  -2   2  708.91   35.58
   7   2   2  659.98   35.37
   7   2   2  655.27   33.55
   7   2   2  689.25   35.77
   7   2   3   40.86    5.75
   7  -2   3   38.12    4.79
   7  -2   3   49.94    6.28
   7   2   3   30.16    5.66
   7  -2   3   33.39    6.13
   7   2   3   38.37    6.10
   7   2   3   40.47    4.75
   7   2   3   40.72    5.72
   7   2   3   45.17    6.33
  -7  -2  -4   86.49    7.41
   7   2   4   75.48    8.12
   7  -2   4   58.95    6.62
   7   2   4   85.08    8.08
   7  -2   4   88.25    8.40
   7  -2   4   89.20    8.75
   7   2   4   72.05    7.62
   7   2   4   88.53    7.02
   7   2   4   88.80    7.83
   7   2   4   77.73    8.13
  -7  -2  -5   27.70    4.53
   7   2   5   26.95    4.73
   7  -2   5   21.84    4.13
   7  -2   5   19.46    4.43
   7   2   5   25.61    4.52
   7   2   5   23.75    4.34
   7   2   5   24.72    4.74
   7   2   5   27.99    4.63
  -7  -2  -6  116.83    8.38
   7   2   6   90.74    8.01
   7  -2   6   96.78    8.06
   7  -2   6  114.87    9.07
   7   2   6  100.01    7.81
   7   2   6  109.07    8.51
   7   2   6   89.20    7.76
  -7  -2  -7  244.11   13.98
   7   2   7  187.33   13.13
   7  -2   7  221.97   13.63
   7  -2   7  227.81   14.21
   7  -2   7  253.97   14.52
   7   2   7  246.17   13.77
   7   2   7  236.65   14.04
  -7  -2  -8   35.01    4.56
   7  -2   8   35.71    4.21
   7   2   8   37.78    4.44
   7   2   8   42.52    4.64
   7  -2   9    6.57    2.43
   7  -2   9    7.95    7.99
   7   2   9    5.69    2.41
  -7  -2 -10   64.03    4.77
   7  -2  10   61.77    4.60
   7  -2  10   54.31    4.66
  -7  -3   7   19.05    2.49
   7   3  -6  101.64    7.35
  -7  -3   6  102.97    6.46
   7   3  -5  183.64   12.14
  -7  -3   5  203.54   11.44
   7   3  -5  192.74   11.39
   7   3  -4   30.63    5.01
  -7  -3   4   44.03    4.29
   7   3  -4   39.52    4.19
   7   3  -4   38.74    4.00
   7   3  -3    0.49    2.70
   7   3  -3    2.32    2.55
  -7  -3   3   -0.98    1.88
   7   3  -3    0.29    1.77
   7   3  -3   -0.37    2.36
  -7  -3   3    1.23    2.02
   7   3  -3   -3.07    2.50
   7   3  -3    0.97    2.30
   7   3  -2   89.35    8.51
   7   3  -2  103.48    7.68
   7   3  -2  105.70    8.25
  -7  -3   2  120.42    6.88
   7   3  -2  116.60    8.25
   7   3  -2   90.51    8.72
   7   3  -1   -3.50    3.30
   7   3  -1    0.48    2.86
   7  -3  -1    0.46    2.57
   7   3  -1    4.26    2.47
   7   3  -1    1.22    2.38
   7   3  -1    2.85    2.56
   7   3   0  201.52   13.43
  -7  -3   0  238.42   12.67
   7   3   0  196.66   12.88
  -7  -3   0  210.44   11.33
   7   3   0  220.24   13.39
  -7  -3  -1  105.53    7.34
   7   3   1   86.44    7.30
  -7  -3  -1   97.69    6.24
   7   3   1  102.61    7.88
  -7  -3  -2   -0.31    2.77
   7   3   2   -0.38    2.42
   7  -3   2   -3.31    3.09
  -7  -3  -2    2.03    1.47
  -7  -3  -3   29.01    3.69
   7   3   3   21.37    3.54
   7  -3   3   28.66    4.56
   7  -3   3   26.13    4.23
  -7  -3  -3   23.17    2.79
   7   3   3   23.63    3.82
   7  -3   4  230.12   14.51
   7   3   4  233.47   14.28
   7   3   5    4.19    1.80
   7  -3   5   -0.29    4.88
  -7  -3  -6    9.42    2.19
   8   0 -11    0.26    1.48
  -8   0  11    1.17    1.58
   8   0 -11    0.20    1.39
  -8   0  10   52.90    4.80
   8   0 -10   59.24    5.08
   8   0 -10   47.33    4.51
   8   0 -10   49.35    5.34
   8   0  -9    1.20    2.40
   8   0  -9    5.20    2.54
  -8   0   9   -1.82    2.14
   8   0  -9    1.35    2.10
   8   0  -9    2.99    3.13
   8   0  -8   30.81    4.56
   8   0  -8   43.11    5.12
   8   0  -8   30.35    4.12
   8   0  -8   37.91    5.39
   8   0  -7    1.01    3.03
   8   0  -7    0.52    3.08
  -8   0   7   -0.45    2.78
   8   0  -7   -0.84    2.44
   8   0  -7   -1.47    2.78
   8   0  -7    1.54    3.42
   8   0  -7   -0.45    2.95
   8   0  -6    0.54    3.46
   8   0  -6    5.02    3.23
  -8   0   6    0.47    2.81
   8   0  -6    2.33    3.32
   8   0  -6    1.77    2.39
   8   0  -6    1.64    2.96
   8   0  -6    1.03    2.89
   8   0  -5    2.73    2.83
   8   0  -5   -0.58    3.20
   8   0  -5    1.75    3.37
   8   0  -5   -2.48    3.36
   8   0  -5    0.45    2.39
   8   0  -5   -0.57    3.28
   8   0  -4  151.19   11.55
   8   0  -4  171.85   12.44
   8   0  -4  160.78   12.71
   8   0  -4  177.19   11.69
   8   0  -4  178.19   12.91
   8   0  -4  207.51   13.71
   8   0  -3    2.20    2.61
   8   0  -3    3.84    3.32
   8   0  -3   -1.33    3.91
   8   0  -3    0.46    2.44
   8   0  -3    1.32    3.21
   8   0  -3    2.67    4.01
   8   0  -2 1207.60   59.23
   8   0  -2 1148.70   59.10
   8   0  -2 1167.79   57.40
   8   0  -2 1223.88   59.53
   8   0  -1   -1.32    3.37
   8   0  -1    0.53    2.61
   8   0  -1   -1.94    3.94
   8   0  -1   -0.47    2.16
   8   0  -1    2.70    3.39
   8   0  -1    2.02    3.58
   8   0  -1    1.42    4.27
   8   0   0    6.52    4.05
   8   0   0    6.04    3.23
   8   0   0    1.80    3.06
   8   0   0    2.85    2.47
   8   0   0    3.89    3.72
   8   0   0    6.94    3.50
   8   0   0    7.07    4.49
  -8   0  -1    0.73    2.56
   8   0   1   -5.00    3.96
   8   0   1    0.52    2.68
   8   0   1    0.96    2.48
   8   0   1    4.11    3.36
   8   0   1    1.68    3.73
   8   0   1   -4.66    4.26
  -8   0  -2  624.42   31.33
   8   0   2  603.12   33.12
   8   0   2  645.91   32.35
   8   0   2  602.37   32.61
   8   0   2  653.45   33.52
   8   0   2  624.49   33.58
   8   0   3    0.96    2.44
   8   0   3   -0.41    2.32
   8   0   3    0.58    3.92
   8   0   3    1.04    3.30
  -8   0  -4   30.52    3.93
   8   0   4   29.57    4.27
   8   0   5    1.94    2.92
   8   0   5    0.51    3.59
   8   0   5   -0.53    3.63
   8   0   6    7.62    2.97
   8   0   6    3.80    3.73
   8   0   7   -0.36    2.17
   8   0   7   -2.01    2.87
   8   0   8    5.50    2.58
   8   0   8    2.54    2.52
   8   0   9    0.28    2.18
   8   0  11    0.38    1.21
   8  -1 -11   27.61    2.88
   8  -1 -10    2.96    1.68
   8   1 -10    3.25    1.82
  -8   1  10    2.21    1.70
   8  -1 -10    2.46    1.81
  -8   1   9  206.43   12.01
  -8  -1   9  205.11   11.84
  -8  -1   9  196.21   11.28
   8   1  -9  210.17   12.44
   8  -1  -9  237.39   12.85
   8  -1  -9  221.55   12.33
   8   1  -9  204.86   12.62
  -8   1   8   95.83    7.62
  -8  -1   8  106.69    7.63
   8   1  -8  105.75    8.41
   8   1  -8  125.78    8.60
   8  -1  -8  106.82    8.42
   8  -1  -8  104.47    8.22
   8   1  -8  115.89    8.09
   8   1  -8  105.26    7.42
   8  -1  -8  121.96    8.16
   8   1  -8  122.04    8.80
   8  -1  -7   14.68    3.30
   8   1  -7   18.46    3.97
   8   1  -7   13.22    3.15
   8  -1  -7    8.18    3.33
   8   1  -7   11.45    3.23
   8  -1  -7   10.77    3.18
   8   1  -7   10.26    3.13
   8   1  -7   15.62    3.12
   8   1  -6  480.02   24.97
   8   1  -6  451.84   25.32
   8  -1  -6  488.25   26.11
   8  -1  -6  462.07   24.77
   8   1  -6  444.74   24.92
   8   1  -6  466.92   24.71
   8  -1  -6  481.43   24.58
  -8   1   6  433.72   24.23
   8   1  -6  464.09   25.62
  -8  -1   6  436.44   24.14
   8  -1  -5   29.45    4.17
   8   1  -5   25.88    4.99
   8   1  -5   23.70    4.76
  -8   1   5   26.07    4.25
  -8  -1   5   28.11    4.17
   8   1  -5   25.44    4.31
   8  -1  -5   29.90    4.58
   8   1  -5   28.57    4.68
   8   1  -5   23.59    4.52
   8   1  -4  118.27   10.18
   8   1  -4  120.30    9.81
   8  -1  -4  126.88    9.13
   8  -1  -4  129.89    9.54
   8   1  -4  121.98   10.07
   8   1  -4  109.57    9.59
   8  -1  -4  131.80    8.72
   8   1  -4  110.40    9.92
   8   1  -3   40.56    5.69
   8   1  -3   38.22    5.74
   8   1  -3   57.00    6.84
   8  -1  -3   45.51    5.64
   8   1  -3   39.44    4.49
   8   1  -3   46.40    6.30
   8  -1  -2  259.92   17.72
   8   1  -2  280.52   16.12
   8   1  -2  285.14   16.22
   8   1  -2  306.00   18.61
   8  -1  -2  320.62   19.26
   8  -1  -1    7.09    3.52
   8  -1  -1    8.97    4.16
   8   1  -1    8.83    2.63
   8   1  -1    3.26    3.54
   8   1  -1    8.24    3.33
   8  -1  -1   10.15    4.26
  -8  -1   0  108.92    8.41
   8   1   0   97.08    9.32
   8  -1   0  107.07    9.18
   8  -1   0  105.96    9.71
   8   1   0  105.51    9.89
   8   1   0   98.64    8.32
   8   1   0   95.09    9.37
   8  -1   0  112.94    9.88
  -8  -1  -1   -0.42    3.01
   8   1   1    4.98    3.65
   8  -1   1   -0.55    3.29
   8  -1   1   -0.65    3.56
   8   1   1    0.62    3.38
   8   1   1    0.95    3.32
   8   1   1    5.90    4.16
   8  -1   1    1.73    3.65
  -8  -1  -2  165.07   10.30
   8   1   2  131.29   10.97
   8  -1   2  137.75   11.31
   8   1   2  125.15   10.62
   8   1   2  132.57    9.78
   8   1   2  151.15   10.74
   8   1   2  137.74   11.29
   8   1   3  264.73   16.49
   8  -1   3  210.44   15.28
   8  -1   3  261.73   15.96
   8   1   3  254.30   15.87
   8   1   3  283.74   15.68
   8   1   3  279.18   16.40
   8   1   3  260.62   16.27
  -8  -1  -4   34.79    4.52
   8   1   4   31.39    4.72
   8  -1   4   22.94    4.53
   8  -1   4   35.75    4.87
   8  -1   4   44.01    5.64
   8   1   4   41.33    5.36
   8   1   4   30.96    5.03
   8   1   4   39.12    5.06
  -8  -1  -5   47.91    5.22
   8  -1   5   45.61    5.48
   8  -1   5   54.34    5.50
   8   1   5   54.50    5.95
   8   1   5   48.97    5.93
  -8  -1  -6  232.70   13.19
   8  -1   6  235.31   13.78
   8  -1   6  207.21   13.06
   8   1   6  201.11   12.64
   8   1   6  228.67   13.64
  -8  -1  -7   11.13    3.01
   8  -1   7    9.28    2.99
   8  -1   7   10.36    2.43
   8  -1   7   13.36    3.25
   8   1   7   13.56    2.35
   8   1   7   11.02    3.38
  -8  -1  -8  264.41   13.83
   8  -1   8  250.69   14.06
   8   1   8  255.08   14.29
   8   1   8  245.73   14.20
  -8  -1  -9   94.94    6.12
   8   1   9   89.82    6.39
   8  -1   9  107.35    6.48
   8   1   9   93.23    6.55
   8  -1  10    5.04    1.73
   8   1  10    6.97    1.42
   8  -2  -8    3.84    1.55
   8   2  -7  179.06   11.10
  -8  -2   7  181.73   10.12
  -8  -2   7  180.10   10.34
   8   2  -7  181.26   10.67
   8  -2  -7  169.94   10.39
   8   2  -7  174.70   10.21
   8   2  -7  179.58   11.04
   8   2  -6    6.32    2.68
   8   2  -6    6.27    2.61
  -8  -2   6    6.49    2.19
   8   2  -6    5.25    2.11
   8   2  -6    7.20    2.51
   8  -2  -6    7.65    2.38
   8   2  -6    6.54    2.54
   8   2  -6    8.74    2.29
  -8  -2   5   99.26    6.90
   8   2  -5   83.41    6.65
   8   2  -5   92.61    7.30
   8  -2  -5   80.99    6.59
   8   2  -5   85.97    6.94
   8   2  -5   85.97    6.73
   8   2  -4   41.30    5.84
  -8  -2   4   71.47    5.95
   8   2  -4   60.49    5.76
   8   2  -4   71.58    6.62
   8  -2  -4   73.96    5.87
   8   2  -4   68.63    6.09
   8   2  -4   48.46    5.88
   8   2  -3   27.33    4.71
   8   2  -3   32.14    4.96
  -8  -2   3   37.49    4.59
   8  -2  -3   44.93    4.54
   8   2  -3   33.33    4.62
   8   2  -3   35.41    4.95
   8   2  -2  157.31   11.72
  -8  -2   2  177.51   11.07
   8   2  -2  165.82   11.48
   8  -2  -2  180.94   11.14
   8   2  -2  169.61   11.75
   8   2  -2  169.16   11.72
   8   2  -1    3.81    3.22
   8   2  -1    7.03    3.05
   8   2  -1    7.15    3.22
   8  -2  -1    8.96    2.64
   8   2  -1    5.46    3.23
   8   2   0    0.48    2.89
   8   2   0    2.55    2.88
   8  -2   0    3.08    2.96
   8   2   0   -1.00    2.93
   8   2   1  122.42    9.84
   8  -2   1  136.45   10.36
   8  -2   1  128.57    9.93
   8   2   1  134.91    8.58
  -8  -2  -2  155.85   10.22
   8   2   2  133.65   10.50
   8   2   2  161.27   10.91
   8  -2   2  154.92   11.02
   8  -2   2  153.31   10.91
   8   2   2  147.45    9.65
   8   2   2  164.42   11.11
  -8  -2  -3   98.91    7.28
   8   2   3   81.59    7.45
   8   2   3   93.58    7.45
   8  -2   3   82.22    7.77
   8   2   3   90.85    6.97
   8   2   3   91.25    7.51
  -8  -2  -4   88.58    6.87
   8   2   4   87.18    7.07
   8  -2   4   89.61    7.44
   8  -2   4   99.97    7.69
   8   2   4   72.85    6.47
   8   2   4   81.49    6.63
   8   2   4   80.15    6.73
  -8  -2  -5  300.34   15.24
   8   2   5  276.82   14.20
   8   2   5  263.90   14.86
  -8  -2  -6    1.92    2.30
   8  -2   6   -2.17    2.51
   8   2   6    0.81    2.18
  -8  -2  -7  219.04   11.56
   8   2   7  192.99   11.25
  -8  -2  -8    8.10    1.97
   8  -2   8    9.60    1.90
   9   0  -9   43.12    3.23
  -9   0   8    1.65    1.85
   9   0  -8   -1.68    1.89
   9   0  -8    1.76    1.33
   9   0  -7  366.65   18.67
   9   0  -7  334.82   17.56
  -9   0   7  327.32   17.82
   9   0  -6    0.39    2.43
   9   0  -6    0.29    1.74
   9   0  -6   -0.68    2.21
  -9   0   5   20.28    3.38
   9   0  -5   25.05    4.00
   9   0  -5   17.90    2.96
   9   0  -5   17.15    3.36
   9   0  -4   -4.62    2.93
   9   0  -4   -0.86    2.77
   9   0  -4    0.33    1.86
   9   0  -4   -1.33    2.56
   9   0  -4   -0.90    2.79
   9   0  -3   11.86    3.36
   9   0  -3    9.07    2.77
   9   0  -3    2.32    2.83
  -9   0   2   -1.10    2.06
   9   0  -2    0.43    2.68
   9   0  -2   -0.36    2.15
   9   0  -2   -0.47    2.64
  -9   0   1   13.23    2.71
   9   0  -1   12.43    3.57
   9   0  -1   14.30    2.99
   9   0  -1    9.84    2.83
   9   0  -1   14.48    3.51
   9   0  -1   11.34    3.73
  -9   0   0    1.83    2.00
   9   0   0    1.35    2.71
   9   0   0    2.16    2.29
   9   0   0    0.80    2.30
   9   0   0   -0.99    3.43
   9   0   1   61.54    5.21
   9   0   1   45.10    5.61
   9   0   2    0.58    1.76
   9   0   2    0.45    2.72
   9   0   2    1.51    2.54
   9   0   3  605.02   30.95
   9   0   4    1.08    2.29
   9   0   5   29.89    3.72
   9   0   7  504.21   24.28
   9  -1  -8   -0.96    1.36
   9   1  -8    0.19    1.21
   9  -1  -8    0.99    1.45
   9   1  -7   82.46    5.87
   9  -1  -7   81.03    6.01
   9   1  -7   80.43    5.72
   9  -1  -7   70.87    5.62
   9  -1  -6   78.49    6.53
   9   1  -6   81.84    6.07
   9  -1  -6   89.68    6.28
   9   1  -6   85.62    6.16
   9   1  -6   77.57    5.86
  -9   1   6   77.62    5.85
  -9  -1   5   12.44    2.84
   9   1  -5   13.16    2.85
   9   1  -5   12.22    2.63
   9   1  -5   10.95    2.84
   9  -1  -5   13.34    2.82
   9   1  -5   11.72    2.69
   9   1  -5    8.00    2.52
  -9  -1   4  194.53   11.37
   9   1  -4  190.50   12.01
   9   1  -4  204.47   12.35
   9  -1  -4  219.35   12.87
   9   1  -4  183.89   11.25
   9  -1  -4  201.71   11.85
   9   1  -4  188.96   11.93
  -9   1   4  188.83   11.45
  -9  -1   4  191.14   11.38
  -9  -1   3  101.89    7.20
   9   1  -3   97.78    7.90
   9  -1  -3  101.99    8.15
   9   1  -3   99.86    6.92
   9  -1  -3   98.40    7.45
   9   1  -3  102.97    7.94
   9   1  -3  104.77    8.00
  -9  -1   3   94.22    7.06
  -9  -1   2    3.38    2.46
   9  -1  -2    6.11    2.98
   9   1  -2   10.23    2.96
   9  -1  -2    3.97    2.89
   9  -1  -2    3.58    2.40
   9   1  -2    6.49    2.49
   9   1  -2   10.93    3.26
  -9  -1   1  374.73   18.19
   9   1  -1  321.23   18.78
   9   1  -1  306.59   18.56
   9  -1  -1  351.16   19.03
   9  -1  -1  320.65   18.73
   9  -1  -1  353.17   18.54
   9   1  -1  311.26   18.68
  -9  -1   0   84.83    6.43
   9   1   0   81.72    7.06
   9   1   0   68.85    6.46
   9  -1   0   91.11    7.49
   9   1   0   87.58    7.07
   9   1   0   74.41    6.17
   9   1   0   80.58    7.27
   9   1   1   28.48    4.03
   9  -1   1   17.66    3.61
   9  -1   1   30.23    4.54
   9   1   1   29.29    3.95
   9   1   1   27.88    3.85
   9   1   1   21.86    3.95
  -9  -1  -2   21.39    3.33
   9   1   2   19.16    3.33
   9  -1   2   14.51    3.21
   9   1   2   20.57    3.46
   9   1   2   24.20    3.84
  -9  -1  -3  140.67    9.02
   9  -1   3  162.39    9.60
   9   1   3  158.00    9.63
   9   1   3  129.24    9.09
  -9  -1  -4    2.67    2.11
   9  -1   4    0.53    1.77
   9   1   4    0.81    2.17
   9   1   4    3.07    2.14
  -9  -1  -5  106.27    6.55
   9  -1   5  103.21    7.23
   9   1   5   92.48    6.32
   9   1   5   94.15    6.94
  -9  -1  -6    0.58    1.43
   9  -1   6    0.95    1.50
   9  -1   6    2.56    2.00
   9  -1   7   23.85    2.61
   9   1   7   22.49    2.65
   9  -2  -4   47.62    4.20
   9  -2  -3   28.07    3.57
   9  -2  -2  254.36   14.40
  -9  -2  -1   29.34    3.31
   9  -2   1   31.71    3.97
  -9  -2  -2   67.14    5.08
   9  -2   2   66.34    5.48
  -9  -2  -3   66.77    4.89
   9  -2   3   62.88    5.07
  -9  -2  -4    0.77    1.57
  10   0  -4    4.67    1.57
  10   0  -2  386.36   19.15
  10   0  -1   -0.68    1.81
  10   0   0    6.58    2.20
  10   0   2    4.77    1.82
  10  -1  -2   34.12    3.06
  10   1  -2   22.96    2.65
  10  -1  -1   38.14    3.29
  10   1   0    3.10    1.54
  10   1   1   50.78    3.81
   0   0   0    0.00    0.00


TITL gro21_23_auto in P2(1)/n
REM P2(1)/n (#14 in standard setting)
CELL 1.54184   8.122902   3.913780  15.071757  90.0000  92.0129  90.0000
ZERR    1.00   0.000185   0.000110   0.000422   0.0000   0.0022   0.0000
LATT  1
SYMM -x+1/2, y+1/2,-z+1/2
SFAC C Cl I
UNIT 12.00 10.00 2.00
REM  CrysAlisPro recorded range (K): Min=100.0; max=100.1; aver:100.0
TEMP -173
SIZE 0.03 0.04 0.08
TREF
HKLF 4
END
_computing_structure_solution     'SHELXT 2018/2 (Sheldrick, 2018)'
;
_shelx_hkl_checksum              93985
_olex2_exptl_crystal_mounting_method
'Hampton Research 20 micron nylon CryoLoop'
_olex2_submission_original_sample_id gro21_23
_olex2_submission_special_instructions 'No special instructions were received'
_oxdiff_diffrn_reflns_filtered   284
_oxdiff_exptl_absorpt_empirical_details
;
Empirical correction (ABSPACK) includes:
- Absorption correction using spherical harmonics
- Frame scaling
;
_oxdiff_exptl_absorpt_empirical_full_max 1.507
_oxdiff_exptl_absorpt_empirical_full_min 0.657
loop_
_space_group_symop_operation_xyz
'x, y, z'
'-x+1/2, y+1/2, -z+1/2'
'-x, -y, -z'
'x-1/2, -y-1/2, z-1/2'
loop_
_atom_site_label
_atom_site_type_symbol
_atom_site_fract_x
_atom_site_fract_y
_atom_site_fract_z
_atom_site_U_iso_or_equiv
_atom_site_adp_type
_atom_site_occupancy
_atom_site_site_symmetry_order
_atom_site_calc_flag
_atom_site_refinement_flags_posn
_atom_site_refinement_flags_adp
_atom_site_refinement_flags_occupancy
_atom_site_disorder_assembly
_atom_site_disorder_group
I1 I 0.7836(5) 0.1612(13) 0.6447(3) 0.0246(4) Uani 0.3744(13) 1 d D . P A 1
Cl1 Cl 0.4156(10) 0.394(3) 0.6992(4) 0.0370(5) Uani 0.9280(13) 1 d D . P B 1
Cl2 Cl 0.8398(4) 0.2577(18) 0.4324(4) 0.0361(5) Uani 0.9464(13) 1 d D . P C 1
Cl3 Cl 0.7594(12) 0.154(3) 0.6332(7) 0.0306(15) Uani 0.6256(13) 1 d D . P A 2
I2 I 0.406(4) 0.383(10) 0.7086(14) 0.0370(5) Uani 0.0720(13) 1 d D . P B 2
I3 I 0.863(2) 0.254(10) 0.430(2) 0.0361(5) Uani 0.0536(13) 1 d D . P C 2
C1 C 0.6154(4) 0.3504(9) 0.5588(2) 0.0279(7) Uani 1 1 d D . . . .
C2 C 0.4632(4) 0.4546(9) 0.5890(2) 0.0285(7) Uani 1 1 d D . . . .
C3 C 0.6522(4) 0.3942(9) 0.4698(2) 0.0284(7) Uani 1 1 d D . . . .
loop_
_atom_site_aniso_label
_atom_site_aniso_U_11
_atom_site_aniso_U_22
_atom_site_aniso_U_33
_atom_site_aniso_U_23
_atom_site_aniso_U_13
_atom_site_aniso_U_12
I1 0.0222(10) 0.0277(6) 0.0233(9) 0.0011(7) -0.0060(8) 0.0024(7)
Cl1 0.0332(11) 0.0512(9) 0.0268(14) -0.0030(12) 0.0053(9) -0.0060(8)
Cl2 0.0230(12) 0.0469(6) 0.0385(6) -0.0113(4) 0.0030(10) -0.0012(12)
Cl3 0.027(2) 0.0331(14) 0.031(2) 0.0006(14) -0.0147(13) 0.0003(15)
I2 0.0332(11) 0.0512(9) 0.0268(14) -0.0030(12) 0.0053(9) -0.0060(8)
I3 0.0230(12) 0.0469(6) 0.0385(6) -0.0113(4) 0.0030(10) -0.0012(12)
C1 0.0262(13) 0.0266(17) 0.0307(14) -0.0058(13) -0.0036(11) -0.0048(12)
C2 0.0270(14) 0.0288(18) 0.0297(16) -0.0082(13) -0.0004(11) -0.0075(12)
C3 0.0241(14) 0.0287(18) 0.0322(15) -0.0069(13) -0.0014(11) -0.0065(13)
loop_
_atom_type_symbol
_atom_type_description
_atom_type_scat_dispersion_real
_atom_type_scat_dispersion_imag
_atom_type_scat_source
C C 0.0181 0.0091 'International Tables Vol C Tables 4.2.6.8 and 6.1.1.4'
Cl Cl 0.3639 0.7018 'International Tables Vol C Tables 4.2.6.8 and 6.1.1.4'
I I -0.3257 6.8362 'International Tables Vol C Tables 4.2.6.8 and 6.1.1.4'
loop_
_exptl_crystal_face_index_h
_exptl_crystal_face_index_k
_exptl_crystal_face_index_l
_exptl_crystal_face_perp_dist
-2 0 -1 0.0135
2 -2 1 0.0376
2 0 1 0.0176
2 2 1 0.0285
-4 0 7 0.0118
4 -1 -5 0.0187
0 -2 7 0.0371
0 0 -10 0.0077
0 -1 10 0.0226
-2 -1 -7 0.0227
loop_
_geom_angle_atom_site_label_1
_geom_angle_atom_site_label_2
_geom_angle_atom_site_label_3
_geom_angle
_geom_angle_site_symmetry_1
_geom_angle_site_symmetry_3
_geom_angle_publ_flag
C2 C1 I1 119.5(3) . . ?
C2 C1 Cl3 119.7(4) . . ?
C2 C1 C3 120.0(3) . . ?
C3 C1 I1 120.3(3) . . ?
C3 C1 Cl3 120.3(4) . . ?
C1 C2 Cl1 120.2(4) . . ?
C1 C2 I2 121.2(10) . . ?
C1 C2 C3 120.0(3) . 3_666 ?
C3 C2 Cl1 119.8(4) 3_666 . ?
C3 C2 I2 118.8(10) 3_666 . ?
C1 C3 Cl2 119.8(3) . . ?
C1 C3 I3 119.4(11) . . ?
C1 C3 C2 120.0(3) . 3_666 ?
C2 C3 Cl2 120.2(3) 3_666 . ?
C2 C3 I3 120.6(11) 3_666 . ?
loop_
_geom_bond_atom_site_label_1
_geom_bond_atom_site_label_2
_geom_bond_distance
_geom_bond_site_symmetry_2
_geom_bond_publ_flag
I1 C1 1.992(6) . ?
Cl1 C2 1.735(6) . ?
Cl2 C3 1.727(5) . ?
Cl3 C1 1.769(10) . ?
I2 C2 1.899(18) . ?
I3 C3 1.912(18) . ?
C1 C2 1.393(5) . ?
C1 C3 1.395(5) . ?
C2 C3 1.398(5) 3_666 ?
loop_
_geom_torsion_atom_site_label_1
_geom_torsion_atom_site_label_2
_geom_torsion_atom_site_label_3
_geom_torsion_atom_site_label_4
_geom_torsion
_geom_torsion_site_symmetry_1
_geom_torsion_site_symmetry_2
_geom_torsion_site_symmetry_3
_geom_torsion_site_symmetry_4
_geom_torsion_publ_flag
I1 C1 C2 Cl1 -4.1(6) . . . . ?
I1 C1 C2 C3 176.3(3) . . . 3_666 ?
I1 C1 C3 Cl2 4.3(5) . . . . ?
I1 C1 C3 C2 -176.3(3) . . . 3_666 ?
Cl3 C1 C2 I2 -1.0(15) . . . . ?
Cl3 C1 C2 C3 -179.1(5) . . . 3_666 ?
Cl3 C1 C3 I3 -2.1(14) . . . . ?
Cl3 C1 C3 C2 179.1(5) . . . 3_666 ?
C2 C1 C3 Cl2 -178.9(4) . . . . ?
C2 C1 C3 I3 179.4(13) . . . . ?
C2 C1 C3 C2 0.6(6) . . . 3_666 ?
C3 C1 C2 Cl1 179.0(5) . . . . ?
C3 C1 C2 I2 177.5(14) . . . . ?
C3 C1 C2 C3 -0.6(6) . . . 3_666 ?
loop_
_exptl_oxdiff_crystal_face_indexfrac_h
_exptl_oxdiff_crystal_face_indexfrac_k
_exptl_oxdiff_crystal_face_indexfrac_l
_exptl_oxdiff_crystal_face_x
_exptl_oxdiff_crystal_face_y
_exptl_oxdiff_crystal_face_z
-1.9978 -0.0004 -1.0024 0.3216 -0.0909 -0.2128
1.9951 -1.9969 0.9972 0.0978 0.0198 0.8740
1.9978 0.0004 1.0024 -0.3216 0.0909 0.2128
2.0004 1.9977 1.0076 -0.7409 0.1620 -0.4484
-3.6312 0.3783 7.1750 0.0744 -0.9429 -0.3248
3.9315 -1.0334 -5.4209 -0.0622 0.7921 0.6072
0.0335 -1.8261 6.7930 0.0531 -0.6596 0.7497
0.1555 0.1359 -9.7694 0.4179 0.8779 -0.2337
0.3432 -0.5254 9.5225 -0.3927 -0.8254 0.4055
-1.5139 -1.4329 -7.4719 0.8653 0.4703 0.1733
