#------------------------------------------------------------------------------
#$Date: 2021-09-06 13:27:43 +0300 (Mon, 06 Sep 2021) $
#$Revision: 268665 $
#$URL: file:///home/coder/svn-repositories/cod/cif/7/24/31/7243185.cif $
#------------------------------------------------------------------------------
#
# This file is available in the Crystallography Open Database (COD),
# http://www.crystallography.net/
#
# All data on this site have been placed in the public domain by the
# contributors.
#
data_7243185
loop_
_publ_author_name
'Breton, Logan S.'
'Smith, Mark D.'
'zur Loye, Hans-Conrad'
_publ_section_title
;
 Trends in rare earth thiophosphate syntheses: Rb3Ln(PS4)2 (Ln = La, Ce,
 Pr), Rb3&#x2212;xNaxLn(PS4)2 (Ln = Ce, Pr; x = 0.50, 0.55), and RbEuPS4
 obtained by molten flux crystal growth
;
_journal_issue                   30
_journal_name_full               CrystEngComm
_journal_page_first              5241
_journal_page_last               5248
_journal_paper_doi               10.1039/D1CE00703C
_journal_volume                  23
_journal_year                    2021
_chemical_formula_moiety         '0.25(Eu4 P4 Rb4 S16)'
_chemical_formula_sum            'Eu P Rb S4'
_chemical_formula_weight         396.64
_chemical_properties_physical    Air-sensitive,Moisture-sensitive
_space_group_crystal_system      orthorhombic
_space_group_IT_number           62
_space_group_name_Hall           '-P 2ac 2n'
_space_group_name_H-M_alt        'P n m a'
_atom_sites_solution_primary     dual
_audit_creation_date             2021-05-17
_audit_creation_method
;
Olex2 1.2
(compiled May 18 2018 14:05:52 for OlexSys, GUI svn.r5506)
;
_audit_update_record
;
2021-05-19 deposited with the CCDC.	2021-07-05 downloaded from the CCDC.
;
_cell_angle_alpha                90
_cell_angle_beta                 90
_cell_angle_gamma                90
_cell_formula_units_Z            4
_cell_length_a                   17.3308(4)
_cell_length_b                   6.6787(2)
_cell_length_c                   6.43470(10)
_cell_measurement_reflns_used    8916
_cell_measurement_temperature    301(2)
_cell_measurement_theta_max      36.22
_cell_measurement_theta_min      3.38
_cell_volume                     744.80(3)
_computing_cell_refinement       'SAINT v8.37A (Bruker, 2015)'
_computing_data_reduction        'SAINT v8.37A (Bruker, 2015)'
_computing_molecular_graphics    'Olex2 (Dolomanov et al., 2009)'
_computing_publication_material  'Olex2 (Dolomanov et al., 2009)'
_computing_structure_refinement  'ShelXL (Sheldrick, 2015)'
_computing_structure_solution    'ShelXT (Sheldrick, 2015)'
_diffrn_ambient_temperature      301(2)
_diffrn_measured_fraction_theta_full 0.999
_diffrn_measured_fraction_theta_max 0.999
_diffrn_measurement_device_type  'Bruker APEX-II CCD'
_diffrn_measurement_method       '\f and \w scans'
_diffrn_radiation_type           MoK\a
_diffrn_radiation_wavelength     0.71073
_diffrn_reflns_av_R_equivalents  0.0306
_diffrn_reflns_av_unetI/netI     0.0154
_diffrn_reflns_Laue_measured_fraction_full 0.999
_diffrn_reflns_Laue_measured_fraction_max 0.999
_diffrn_reflns_limit_h_max       24
_diffrn_reflns_limit_h_min       -24
_diffrn_reflns_limit_k_max       9
_diffrn_reflns_limit_k_min       -9
_diffrn_reflns_limit_l_max       9
_diffrn_reflns_limit_l_min       -9
_diffrn_reflns_number            12334
_diffrn_reflns_point_group_measured_fraction_full 0.999
_diffrn_reflns_point_group_measured_fraction_max 0.999
_diffrn_reflns_theta_full        25.242
_diffrn_reflns_theta_max         29.992
_diffrn_reflns_theta_min         3.377
_diffrn_standards_number         0
_exptl_absorpt_coefficient_mu    16.132
_exptl_absorpt_correction_T_max  0.2740
_exptl_absorpt_correction_T_min  0.1919
_exptl_absorpt_correction_type   multi-scan
_exptl_absorpt_process_details
;
SADABS-2016/2 (Bruker,2016) was used for absorption correction.
wR2(int) was 0.1122 before and 0.0516 after correction.
The Ratio of minimum to maximum transmission is 0.7004.
The \l/2 correction factor is Not present.
;
_exptl_crystal_colour            yellow
_exptl_crystal_colour_primary    yellow
_exptl_crystal_density_diffrn    3.537
_exptl_crystal_description       plate
_exptl_crystal_F_000             716
_exptl_crystal_size_max          0.05
_exptl_crystal_size_mid          0.05
_exptl_crystal_size_min          0.01
_refine_diff_density_max         1.177
_refine_diff_density_min         -0.995
_refine_diff_density_rms         0.167
_refine_ls_extinction_method     none
_refine_ls_goodness_of_fit_ref   1.171
_refine_ls_hydrogen_treatment    undef
_refine_ls_matrix_type           full
_refine_ls_number_parameters     43
_refine_ls_number_reflns         1170
_refine_ls_number_restraints     0
_refine_ls_restrained_S_all      1.171
_refine_ls_R_factor_all          0.0263
_refine_ls_R_factor_gt           0.0247
_refine_ls_shift/su_max          0.001
_refine_ls_shift/su_mean         0.000
_refine_ls_structure_factor_coef Fsqd
_refine_ls_weighting_details
'w=1/[\s^2^(Fo^2^)+(0.0236P)^2^+4.3127P] where P=(Fo^2^+2Fc^2^)/3'
_refine_ls_weighting_scheme      calc
_refine_ls_wR_factor_gt          0.0638
_refine_ls_wR_factor_ref         0.0647
_reflns_Friedel_coverage         0.000
_reflns_number_gt                1120
_reflns_number_total             1170
_reflns_threshold_expression     'I > 2\s(I)'
_cod_data_source_file            d1ce00703c2.cif
_cod_data_source_block           lb2017a_longscan
_cod_depositor_comments
'Adding full bibliography for 7243182--7243187.cif.'
_cod_database_code               7243185
_shelx_shelxl_version_number     2018/3
_shelx_space_group_comment
;
The symmetry employed for this shelxl refinement is uniquely defined
by the following loop, which should always be used as a source of
symmetry information in preference to the above space-group names.
They are only intended as comments.
;
_shelx_estimated_absorpt_t_max   0.855
_shelx_estimated_absorpt_t_min   0.499
_olex2_refinement_description
;
1. Uiso/Uaniso restraints and constraints
Uanis(Rb1A) = Uanis(Rb1B)
2. Others
 Sof(Rb1B)=0.5*(1-FVAR(2))
 Sof(Rb1A)=0.5*FVAR(2)
;
_shelx_res_file
;
TITL lb2017a_longscan_a.res in Pnma
    lb2017a_longscan.res
    created by SHELXL-2018/3 at 16:45:52 on 17-May-2021
REM Old TITL LB2017A_longscan in Pnma
REM SHELXT solution in Pnma: R1 0.111, Rweak 0.003, Alpha 0.013
REM <I/s> 1.282 for 109 systematic absences, Orientation as input
REM Formula found by SHELXT: P S4 Rb Eu
CELL 0.71073 17.3308 6.6787 6.4347 90 90 90
ZERR 4 0.0004 0.0002 0.0001 0 0 0
LATT 1
SYMM 0.5-X,-Y,0.5+Z
SYMM -X,0.5+Y,-Z
SYMM 0.5+X,0.5-Y,0.5-Z
SFAC Eu P Rb S
UNIT 4 4 4 16
EADP Rb1A Rb1B

L.S. 20
PLAN  20
SIZE 0.01 0.05 0.05
TEMP 28.14
list 4
fmap 2 53
ACTA
OMIT -4 60
OMIT 2 0 0
REM <olex2.extras>
REM <HklSrc "%./LB2017A_longscan.hkl">
REM </olex2.extras>

WGHT    0.023600    4.312700
FVAR       0.26327   0.26064
EU1   1    0.519204    0.250000    0.204999    10.50000    0.02150    0.02803 =
         0.02263    0.00000    0.00120    0.00000
RB1B  3    0.290958    0.250000    0.501484   -20.50000    0.02656    0.02488 =
         0.04869    0.00000    0.01318    0.00000
P1    2    0.596508    0.250000    0.721739    10.50000    0.01735    0.01258 =
         0.02022    0.00000    0.00217    0.00000
S1    4    0.661611    0.250000    0.461182    10.50000    0.02143    0.02508 =
         0.02739    0.00000    0.00797    0.00000
S2    4    0.618776    0.495515    0.899330    11.00000    0.02823    0.01380 =
         0.03113   -0.00396   -0.00205    0.00063
S3    4    0.480726    0.250000    0.659332    10.50000    0.01516    0.04949 =
         0.02783    0.00000    0.00284    0.00000
RB1A  3    0.292154    0.250000    0.562664    20.50000    0.02656    0.02488 =
         0.04869    0.00000    0.01318    0.00000
HKLF 4




REM  lb2017a_longscan_a.res in Pnma
REM wR2 = 0.0647, GooF = S = 1.171, Restrained GooF = 1.171 for all data
REM R1 = 0.0247 for 1120 Fo > 4sig(Fo) and 0.0263 for all 1170 data
REM 43 parameters refined using 0 restraints

END

WGHT      0.0236      4.3126

REM Highest difference peak  1.177,  deepest hole -0.995,  1-sigma level  0.167
Q1    1   0.2652  0.2500  0.4780  10.50000  0.05    1.18
Q2    1   0.2951  0.2500  0.6517  10.50000  0.05    1.16
Q3    1   0.2945  0.1908  0.5686  11.00000  0.05    1.16
Q4    1   0.2957  0.2500  0.4170  10.50000  0.05    1.07
Q5    1   0.4827  0.1680  0.6020  11.00000  0.05    0.98
Q6    1   0.3155  0.2500  0.5175  10.50000  0.05    0.93
Q7    1   0.4980  0.2500  0.7025  10.50000  0.05    0.86
Q8    1   0.5982  0.4845  0.9753  11.00000  0.05    0.60
Q9    1   0.5030  0.2500  0.4775  10.50000  0.05    0.58
Q10   1   0.6375  0.2500  0.5413  10.50000  0.05    0.57
Q11   1   0.6014  0.5085  0.8430  11.00000  0.05    0.55
Q12   1   0.4986  0.2500  0.3220  10.50000  0.05    0.55
Q13   1   0.5743  0.2500  0.7135  10.50000  0.05    0.50
Q14   1   0.5262  0.2500  0.0604  10.50000  0.05    0.47
Q15   1   0.6308  0.5187  0.8307  11.00000  0.05    0.47
Q16   1   0.6772  0.2500  0.5128  10.50000  0.05    0.46
Q17   1   0.6445  0.1715  0.4052  11.00000  0.05    0.45
Q18   1   0.4452  0.2500  0.5386  10.50000  0.05    0.44
Q19   1   0.5360  0.2500  0.5941  10.50000  0.05    0.40
Q20   1   0.6155  0.2001  0.6890  11.00000  0.05    0.40
;
_shelx_res_checksum              32107
_shelx_hkl_file
;
   0   0  -1   -0.10    0.40
   0   0   1    0.30    0.60
   0   0   1    0.00    0.50
   0   0   1    0.00    0.40
   0   0  -1    0.80    0.50
   0   0  -1    0.30    0.50
   0   0   2  234.38    7.90
   0   0  -2  245.18    8.10
   0   0   2  237.08    8.50
   0   0  -2  234.98    8.00
   0   0   2  235.78    7.80
   0   0  -2  247.38    7.70
   0   0  -3    0.80    1.00
   0   0  -3    0.10    0.90
   0   0   3    0.80    0.80
   0   0   3    0.30    1.00
   0   0  -3    0.50    0.70
   0   0   4  506.75   16.60
   0   0   4  517.25   15.80
   0   0  -4  483.25   16.70
   0   0  -4  509.25   16.60
   0   0   4  486.85   16.50
   0   0   5    0.00    0.60
   0   0  -5    0.20    1.30
   0   0   5    1.00    1.60
   0   0   5    1.10    1.00
   0   0   6   14.40    2.30
   0   0  -6   10.80    2.60
   0   0   7    1.60    1.30
   0   0  -7    2.70    2.20
   0   0  -8   61.89    5.90
   0   0   8   62.39    4.20
   0   0   8   56.29    3.80
   0   0   9    2.20    1.30
   0   0  -9    1.20    2.20
   0   0  -9    1.10    2.60
   0   0 -10   98.09    6.90
   0   0 -10  101.69    8.20
   0  -1   0    0.30    0.40
   0   1   0    0.10    0.30
   0  -1   0    0.50    0.40
   0   1   0   -0.30    0.30
   0  -1   0    0.10    0.60
   0   1   0    0.50    0.60
   0  -1   1  875.31   25.30
   0   1  -1  902.71   24.90
   0   1  -1  843.12   25.30
   0   1   1  882.51   25.10
   0  -1   1  878.11   25.20
   0  -1  -1  895.51   25.00
   0   1  -1  859.71   25.00
   0  -1  -1  833.42   25.00
   0   1   1  870.91   24.70
   0  -1   1  852.01   25.00
   0  -1   2    0.60    0.90
   0  -1  -2    0.50    0.90
   0   1  -2    0.80    0.70
   0   1   2    0.20    0.70
   0  -1   2    0.50    0.70
   0   1  -2    1.50    1.10
   0   1   2    0.90    0.60
   0  -1   2    0.80    0.80
   0  -1  -2    0.00    0.70
   0  -1  -2    0.90    0.70
   0   1   3  558.24   17.50
   0  -1   3  583.14   17.60
   0  -1  -3  577.84   18.30
   0  -1   3  576.44   17.90
   0  -1   3  559.14   17.90
   0   1   3  570.44   17.30
   0  -1   3  566.74   17.60
   0   1  -3  550.74   17.80
   0  -1  -3  562.74   17.70
   0   1  -3  573.14   18.10
   0  -1  -3  564.74   17.50
   0  -1  -4    1.70    1.20
   0  -1  -4    1.80    1.20
   0  -1   4    2.70    1.30
   0   1   4    2.20    0.90
   0  -1   4    4.30    1.60
   0  -1  -4    1.80    1.20
   0  -1   4    4.00    1.60
   0   1   4    1.30    1.10
   0  -1   4    2.20    1.20
   0   1  -4    3.30    1.40
   0   1  -4    1.10    1.10
   0  -1   5   72.39    4.60
   0   1  -5   77.09    5.00
   0  -1   5   78.19    4.80
   0  -1  -5   75.79    4.30
   0  -1  -5   82.79    5.10
   0   1   5   82.19    4.30
   0  -1   5   71.69    4.40
   0  -1  -5   90.29    5.30
   0   1  -5   83.39    5.20
   0  -1   5   76.99    4.80
   0  -1   6    4.30    1.40
   0   1  -6    1.40    1.80
   0  -1   6    2.10    1.50
   0  -1  -6    2.10    1.00
   0   1   6    1.20    1.30
   0   1  -6    4.80    1.50
   0  -1   6    1.80    1.70
   0   1   7   92.89    5.10
   0  -1  -7   96.69    6.60
   0   1  -7   93.79    6.80
   0  -1   7   92.69    5.20
   0  -1   7   95.99    5.10
   0   1  -8    2.30    2.30
   0  -1  -8    1.50    2.00
   0  -1   8    1.60    1.30
   0  -1   8    3.30    2.00
   0  -1  -8    3.90    2.70
   0   1   8    2.30    1.70
   0   1   8    2.60    1.50
   0  -1   9   82.69    4.20
   0   1   9   76.59    4.00
   0  -1  -9   85.59    7.20
   0   1  -9   79.79    7.10
   0  -1  -9   75.49    6.20
   0  -1 -10   -0.20    2.10
   0   1 -10   -0.10    2.30
   0  -1 -10    1.50    2.30
   0   1 -10    5.50    5.20
   0  -2   0 9419.16  265.87
   0  -2  -1    0.90    0.60
   0   2  -1    1.50    0.80
   0  -2  -1   -1.40    0.80
   0  -2   1    1.10    1.10
   0   2   1    0.50    0.50
   0  -2   1   -0.20    0.70
   0   2  -1    1.70    1.20
   0  -2  -1   -0.20    0.70
   0   2   1   -0.60    1.00
   0  -2   1   -0.10    0.60
   0  -2  -2  769.32   22.50
   0   2   2  746.03   21.70
   0  -2   2  734.43   22.50
   0  -2  -2  760.12   22.00
   0   2  -2  729.53   23.10
   0  -2  -2  729.93   22.60
   0  -2   2  736.23   22.80
   0  -2   2  726.43   22.90
   0   2   2  741.93   22.60
   0   2  -2  739.33   22.30
   0   2   3    0.00    1.00
   0  -2   3    0.00    0.80
   0  -2  -3    0.70    0.90
   0   2  -3    0.80    1.10
   0  -2  -3    2.60    1.20
   0  -2   3    0.50    1.00
   0   2  -3    0.50    1.00
   0   2   3    0.70    0.70
   0  -2  -3    0.30    1.10
   0  -2   3   -0.60    1.00
   0  -2  -4 1946.41   54.89
   0  -2  -4 1872.21   54.69
   0  -2   4 1861.91   55.19
   0   2   4 1797.62   54.29
   0  -2   4 1894.91   54.69
   0  -2   4 1946.41   54.79
   0  -2  -4 1861.81   55.89
   0   2   4 1971.80   54.69
   0  -2   4 1845.12   55.29
   0   2  -4 1798.22   55.39
   0   2  -4 1886.71   55.19
   0  -2  -5    2.00    1.20
   0   2  -5    1.80    1.60
   0  -2   5    3.30    1.90
   0  -2   5    2.70    1.40
   0  -2   5    2.50    1.60
   0  -2  -5    2.30    1.70
   0   2   5    1.40    1.40
   0   2  -5    3.10    1.90
   0  -2   6  275.57   11.00
   0  -2   6  247.58   10.50
   0  -2  -6  281.67   11.60
   0   2  -6  279.47   11.70
   0   2  -6  244.78   11.70
   0   2   6  280.37   10.50
   0  -2   6  256.57   11.30
   0  -2  -6  261.67   10.80
   0  -2   7    3.50    1.90
   0  -2   7    1.90    1.40
   0   2   7    2.10    1.60
   0  -2  -7    2.30    2.10
   0  -2  -7    1.90    0.90
   0  -2  -7   -0.40    1.70
   0  -2   7    0.10    1.80
   0   2  -7    1.90    2.40
   0   2   8  119.79    6.10
   0  -2  -8  112.69    7.80
   0  -2   8  106.79    5.70
   0   2  -8  112.09    7.90
   0  -2  -8  115.29    7.70
   0  -2  -9   -2.30    2.20
   0   2  -9   -0.20    2.30
   0   2   9    1.40    1.60
   0  -2   9    0.50    1.60
   0  -2  -9    2.80    2.50
   0   2 -10   18.40    3.70
   0   2 -10   25.90    5.30
   0  -2 -10   22.60    4.40
   0  -2 -10   28.40    5.30
   0  -3   0   -0.10    0.90
   0   3   0    0.50    0.70
   0   3   0    0.70    0.60
   0  -3   0    1.10    1.00
   0   3   0    0.20    1.50
   0  -3   0    0.00    1.00
   0   3   0   -0.60    0.50
   0   3  -1  713.03   21.20
   0   3  -1  712.23   21.50
   0  -3  -1  746.33   22.20
   0  -3   1  683.13   22.40
   0   3   1  695.73   22.60
   0   3   1  712.63   20.60
   0   3   1  724.53   21.80
   0   3  -1  695.03   22.80
   0   3  -1  687.93   21.70
   0  -3  -1  690.23   22.20
   0  -3  -1  716.63   21.10
   0  -3   1  710.33   21.70
   0  -3   2   -0.80    0.60
   0   3   2    0.50    1.40
   0   3  -2   -0.50    1.40
   0  -3  -2    0.90    1.00
   0   3  -2    0.70    0.90
   0  -3   2    0.80    1.20
   0  -3   2   -0.80    1.10
   0   3   2    0.30    0.50
   0  -3  -2    1.50    0.90
   0   3  -2    1.60    0.90
   0  -3  -2    0.70    1.10
   0   3  -3  291.17   10.70
   0  -3  -3  277.77   10.60
   0   3  -3  288.37   10.20
   0  -3   3  287.77   11.30
   0  -3  -3  304.97   10.50
   0  -3  -3  288.97   11.60
   0   3  -3  291.17   11.80
   0   3   3  309.17   11.30
   0   3   3  284.57    9.70
   0  -3   3  292.37   11.80
   0  -3  -3  306.17   11.30
   0  -3   3  298.77   11.20
   0  -3   4    2.10    1.30
   0  -3  -4    1.30    1.80
   0   3  -4    3.20    1.20
   0  -3   4    0.90    1.20
   0   3  -4    2.30    1.50
   0  -3   4    2.40    1.60
   0  -3  -4    1.70    1.10
   0  -3  -4    3.30    1.50
   0   3   4    2.80    1.70
   0  -3   5   55.69    4.20
   0  -3   5   62.19    4.60
   0  -3  -5   60.39    4.50
   0   3   5   62.99    4.60
   0  -3  -5   63.79    5.00
   0   3  -5   69.09    4.90
   0  -3   5   60.89    4.30
   0   3  -5   64.09    4.10
   0  -3   5   51.49    4.30
   0  -3  -5   60.99    4.20
   0  -3  -6    3.70    2.20
   0   3  -6    1.40    1.80
   0  -3  -6    3.30    2.30
   0  -3   6    3.50    1.80
   0  -3   6    1.20    2.00
   0  -3   6    4.60    1.50
   0   3  -6    4.00    1.50
   0   3   6    5.30    2.20
   0  -3  -7   72.79    6.00
   0  -3   7   61.49    5.60
   0   3   7   66.29    5.10
   0  -3   7   63.79    5.00
   0  -3  -7   72.49    5.90
   0   3  -7   60.29    5.60
   0  -3  -8    4.00    2.60
   0  -3   8    0.80    1.80
   0  -3  -8    1.00    2.70
   0   3  -8   -2.90    2.00
   0   3   8    0.80    1.80
   0  -3  -9   63.69    6.40
   0   3  -9   63.69    6.40
   0  -3   9   63.29    4.40
   0   3   9   66.89    4.80
   0  -3  -9   63.19    6.50
   0  -3 -10    1.70    2.50
   0  -3 -10   -1.30    2.10
   0  -4   0 9999.00  290.27
   0   4  -1    1.00    0.70
   0   4  -1   -0.10    0.70
   0   4  -1   -0.80    1.50
   0  -4   1    1.20    1.30
   0  -4  -1    0.30    1.10
   0   4   1    3.30    1.90
   0  -4  -1    0.80    1.00
   0   4   1    0.30    0.80
   0   4  -1    0.30    0.80
   0   4   1    0.80    0.60
   0  -4  -2  113.49    6.00
   0   4  -2  107.49    5.20
   0  -4   2  134.79    6.20
   0   4   2  115.09    4.40
   0   4  -2  119.29    5.40
   0  -4   2  117.19    6.40
   0   4   2  112.79    6.60
   0  -4  -2  116.69    6.20
   0   4  -2  110.89    6.90
   0  -4  -2  128.69    5.40
   0   4  -2  109.69    5.80
   0  -4   3    1.00    1.30
   0   4  -3    1.50    1.00
   0  -4   3    2.60    1.90
   0  -4  -3    2.10    1.30
   0   4  -3    0.30    1.90
   0   4   3    2.50    2.20
   0  -4  -3    1.70    1.30
   0   4  -3   -0.30    0.90
   0  -4  -3    1.10    1.30
   0  -4  -4  265.07   11.30
   0  -4   4  231.48   11.60
   0  -4   4  283.27   10.90
   0  -4   4  249.48   10.80
   0  -4  -4  265.27   10.20
   0   4   4  272.67   11.40
   0   4  -4  237.38    9.50
   0  -4  -4  249.08   10.40
   0   4  -4  260.97   10.40
   0   4  -5    1.30    1.00
   0   4  -5   -1.50    1.40
   0  -4  -5    0.60    1.70
   0  -4   5    0.60    1.30
   0   4   5    0.00    1.90
   0  -4   5   -0.90    1.30
   0  -4  -5    1.70    1.80
   0  -4  -6    3.00    2.00
   0  -4  -6    2.40    2.40
   0  -4   6    4.60    2.20
   0   4  -6    4.20    1.20
   0  -4   6    5.00    2.60
   0   4   6    0.60    2.10
   0   4  -6    2.50    2.00
   0   4  -7    4.20    2.40
   0  -4   7    1.10    2.40
   0  -4   7    0.40    1.80
   0  -4  -7    4.20    2.50
   0   4   7    4.30    2.20
   0  -4  -7    2.20    2.50
   0   4  -8   34.40    5.30
   0  -4   8   36.90    5.30
   0  -4   8   36.40    3.70
   0  -4  -8   36.90    5.30
   0   4   8   39.40    4.40
   0  -4  -8   28.70    5.50
   0  -4  -9    3.90    2.80
   0  -4  -9    5.10    2.80
   0   4   9    4.50    2.90
   0  -4   9    4.30    2.40
   0  -5   0    0.00    1.30
   0   5   0    1.80    0.80
   0   5   0    7.40    1.90
   0   5   0    4.90    2.50
   0  -5   0    1.30    1.50
   0   5   0    0.80    0.80
   0   5  -1  279.27   10.80
   0   5  -1  282.27   13.00
   0   5  -1  284.97    9.90
   0  -5   1  269.17   11.20
   0  -5  -1  299.87   11.10
   0   5   1  280.07    9.20
   0   5   1  289.77    9.60
   0   5   1  302.17   13.00
   0  -5  -1  297.27   11.80
   0   5  -2    1.60    2.50
   0  -5  -2   -0.40    1.60
   0   5   2    4.60    2.60
   0  -5   2    0.40    1.40
   0   5   2    1.40    0.60
   0   5  -2    0.90    1.10
   0   5   3  197.88   10.10
   0   5  -3  195.98    8.30
   0  -5  -3  209.38    9.90
   0  -5  -3  188.78    8.20
   0   5  -3  196.48   10.70
   0  -5   3  193.78    9.80
   0  -5   4    4.70    2.20
   0   5  -4    2.70    1.60
   0  -5  -4    2.00    2.00
   0   5  -4    3.20    2.70
   0   5  -4    1.50    1.10
   0  -5  -4    4.70    1.80
   0   5  -5   14.10    2.20
   0  -5  -5   19.70    4.30
   0   5  -5   20.60    3.60
   0  -5   5   23.80    4.90
   0  -5  -5   15.90    2.90
   0   5   5   20.20    4.20
   0  -5   5   17.60    3.40
   0  -5   6    3.80    1.90
   0  -5  -6    3.60    2.40
   0  -5  -6    0.10    1.60
   0  -5   6    2.10    2.50
   0   5   6    3.80    2.60
   0   5  -6    3.40    1.90
   0  -5   7   54.69    5.60
   0  -5  -7   59.09    7.80
   0   5  -7   52.79    5.30
   0   5   7   52.49    6.40
   0  -5   7   56.99    4.50
   0  -5   8   -4.20    2.50
   0  -5  -8    2.80    2.60
   0   5   8    0.50    2.30
   0  -5  -8    0.40    2.60
   0  -5  -9   31.90    6.20
   0  -5  -9   33.70    5.40
   0  -6   0 1748.13   52.59
   0  -6   0 1683.23   52.39
   0   6   0 1687.03   49.30
   0   6   0 1793.32   54.99
   0   6  -1    1.10    2.70
   0  -6   1   -0.90    1.60
   0  -6  -1    0.30    1.60
   0  -6  -1   -1.90    1.70
   0   6   1    3.10    2.60
   0   6  -1    1.10    0.90
   0  -6  -2  201.48   10.00
   0   6  -2  183.98   11.10
   0  -6   2  185.98    9.40
   0  -6  -2  196.38    8.80
   0   6  -2  192.08    8.00
   0   6   2  211.08   11.30
   0  -6  -3    1.20    1.60
   0  -6   3    0.40    2.20
   0   6  -3    0.10    2.60
   0   6   3    1.00    2.60
   0  -6  -3   -2.00    1.90
   0   6  -3    1.00    1.20
   0  -6   4  671.93   24.10
   0   6  -4  680.13   26.00
   0  -6  -4  643.74   22.30
   0   6  -4  647.64   22.10
   0  -6  -4  660.13   24.40
   0   6   4  663.73   25.00
   0   6   5    1.90    2.80
   0  -6  -5   -0.40    2.10
   0  -6   5   -0.60    1.70
   0  -6  -5    2.00    2.10
   0  -6  -6   88.79    7.90
   0   6  -6   87.79    6.20
   0  -6  -6   96.49    7.50
   0  -6   6   82.99    5.80
   0   6   6   97.39    7.90
   0  -6  -7   -3.70    2.30
   0  -6  -7    0.60    2.20
   0  -6   7    0.30    2.70
   0  -6   7    4.50    2.60
   0   6   7   -0.40    2.50
   0  -6   8   34.70    5.90
   0  -6  -8   36.60    6.10
   0   6   8   46.00    6.20
   0  -6  -8   43.40    5.80
   0  -6  -9    5.40    2.70
   0  -6  -9    1.70    2.90
   0  -7   0    5.40    2.40
   0   7   0    8.40    3.70
   0   7  -1  145.09   10.50
   0   7   1  137.29    9.80
   0  -7  -1  154.78    8.90
   0  -7  -1  137.79    8.30
   0  -7   1  146.09    8.40
   0  -7   2    2.10    2.20
   0   7  -2    2.10    1.00
   0  -7  -2   -3.20    1.90
   0   7   2    1.50    2.90
   0   7  -2    3.20    3.40
   0  -7  -2    0.10    1.90
   0   7  -3   30.70    6.20
   0   7  -3   26.50    2.70
   0   7   3   27.60    5.70
   0  -7  -3   30.00    4.30
   0  -7  -3   25.50    4.70
   0  -7   3   32.20    5.50
   0   7   4   -1.10    2.90
   0   7  -4    2.40    3.60
   0  -7  -4    2.40    2.20
   0   7  -4    1.00    1.40
   0  -7  -4    2.20    2.80
   0  -7   4   -0.40    2.20
   0   7  -5    9.10    3.00
   0   7   5    9.40    4.00
   0  -7  -5   12.20    3.40
   0  -7   5   14.60    3.40
   0  -7  -6    0.10    2.00
   0  -7   6    2.60    1.90
   0  -7  -6    2.30    3.00
   0   7   6    1.90    2.80
   0  -7   7   13.40    3.80
   0  -7  -7   15.50    3.80
   0  -7  -7   14.90    4.60
   0  -7  -8   -2.20    2.10
   0  -7  -8    3.60    4.10
   0   7   8    3.90    3.20
   0  -7   8   -1.00    3.10
   0   8   0 1699.13   57.39
   0  -8   0 1705.23   53.89
   0  -8  -1    0.30    2.40
   0  -8  -1   -0.40    2.00
   0   8  -1   -0.50    3.20
   0  -8   1    2.10    2.40
   0   8   1    2.50    3.60
   0   8  -2   10.20    4.60
   0  -8   2   23.60    4.60
   0   8   2   23.20    5.70
   0  -8  -2   19.50    4.10
   0  -8  -2   17.10    4.10
   0  -8   3    1.70    2.60
   0   8  -3    0.20    3.50
   0  -8  -3   -3.80    2.70
   0  -8  -3   -2.40    2.30
   0   8   3   -0.70    3.20
   0   8   4   42.60    7.40
   0  -8   4   54.69    6.10
   0  -8  -4   55.39    7.30
   0   8  -4   48.80    8.20
   0  -8  -4   51.79    5.30
   0  -8   5    5.40    2.40
   0   8   5   -1.10    2.90
   0  -8  -5   -0.10    2.00
   0  -8  -5   -0.10    2.90
   0  -8   6    5.50    2.00
   0   8   6    2.80    3.50
   0  -8  -6   -1.80    2.10
   0  -8  -6    2.00    3.30
   0  -8   7    3.30    3.00
   0  -8  -7    4.50    4.30
   0   8   7    7.60    3.20
   0  -8  -7   -2.90    1.60
   0  -9   0    2.50    3.00
   0   9   0    0.10    3.60
   0  -9   1   36.10    6.00
   0   9  -1   38.60    7.90
   0   9   1   27.90    6.70
   0  -9  -1   38.50    6.40
   0  -9  -2   -1.10    2.00
   0   9  -2   -2.60    2.90
   0  -9   2    2.10    2.80
   0  -9  -2    4.50    3.30
   0   9   2   -2.20    3.80
   0  -9  -3   23.40    4.80
   0  -9   3   31.20    6.00
   0  -9  -3   33.00    6.00
   0   9   3   32.30    6.90
   0   9  -3   30.70    6.80
   0  -9  -4   -1.20    2.70
   0   9   4   -1.10    2.60
   0  -9  -4    0.30    2.10
   0  -9   4    4.20    2.60
   0   9  -4   10.80    4.60
   0   9   5    6.60    3.10
   0  -9   5    2.20    2.10
   0  -9  -5    2.90    2.90
   0  -9  -5   -3.00    2.60
   0  -9  -6   -0.20    2.30
   0  -9  -6    7.40    4.00
   0   9   6    4.30    2.90
   0 -10   0  161.98   10.70
   0  10   0  156.48   13.00
   0 -10   1   -0.30    2.20
   0  10   1    1.30    3.80
   0  10  -1   -2.10    3.70
   0 -10  -1    5.50    3.30
   0  10  -2   37.00    7.90
   0 -10   2   39.40    6.30
   0 -10  -2   35.10    6.60
   0  10   2   27.20    7.30
   0 -10  -3   -1.40    2.30
   0 -10  -3    3.10    2.80
   0  10   3    4.00    3.80
   0 -10   3    0.70    2.20
   0  10  -3    0.10    3.80
   0  10   4  111.29   10.60
   0 -10  -4   93.99    8.50
   0 -10   4  120.79    8.30
   0  11   0    8.30    4.70
   0 -11   0    3.20    2.70
   0  11  -1   19.40    6.40
   0 -11   1   14.60    3.50
   0 -11  -1   25.00    8.00
   0  11   1   24.90    7.20
   1   0  -1   60.59    2.40
  -1   0   1   58.39    2.70
   1   0  -1   64.19    2.30
  -1   0  -1   61.39    1.90
   1   0   1   65.39    2.40
   1   0  -1   59.49    2.70
  -1   0  -1   63.79    2.40
  -1   0  -1   64.59    2.70
   1   0   1   57.59    2.60
  -1   0   1   60.49    2.40
  -1   0   2  550.74   17.10
  -1   0   2  543.35   16.90
   1   0   2  565.54   17.20
  -1   0  -2  564.54   16.20
   1   0  -2  562.74   16.80
  -1   0  -2  566.94   17.40
  -1   0   2  577.04   16.80
  -1   0  -2  549.54   16.90
   1   0  -2  548.65   17.00
   1   0   2  579.54   16.20
   1   0  -3 1197.48   34.80
  -1   0  -3 1206.18   35.30
  -1   0   3 1206.08   34.80
  -1   0   3 1176.38   34.80
   1   0   3 1141.39   34.70
   1   0   3 1210.08   35.20
   1   0   3 1203.68   33.90
   1   0  -3 1155.88   34.80
   1   0  -3 1184.78   34.70
  -1   0  -3 1185.18   34.90
  -1   0   3 1184.18   34.90
   1   0   4  486.35   15.10
  -1   0  -4  496.25   16.40
   1   0  -4  491.95   15.80
   1   0   4  506.75   16.80
   1   0   4  476.55   16.20
  -1   0   4  494.55   16.40
  -1   0   4  510.85   16.10
   1   0  -4  485.45   16.30
   1   0  -4  510.95   16.50
  -1   0  -4  472.45   16.60
  -1   0  -5  188.08    8.60
   1   0   5  189.38    8.60
  -1   0   5  182.98    8.20
   1   0  -5  191.48    8.40
  -1   0  -5  187.98    8.40
   1   0  -5  191.88    8.40
  -1   0   5  187.38    7.70
   1   0   5  195.88    7.00
   1   0   6   17.00    2.20
   1   0  -6   15.90    3.30
   1   0  -6   14.50    3.00
   1   0   6   18.90    2.50
  -1   0   6   19.90    2.80
  -1   0  -6   16.50    3.10
   1   0   7  398.66   13.00
  -1   0  -7  388.96   15.70
  -1   0   7  384.26   13.80
   1   0  -7  400.76   15.70
   1   0   7  377.46   13.40
   1   0   8   18.70    2.10
  -1   0   8   11.90    2.40
   1   0  -8   12.50    3.60
   1   0   8   10.80    1.80
  -1   0   8   14.50    2.80
  -1   0  -8   11.90    3.30
  -1   0   9   84.99    4.80
   1   0  -9   84.69    6.10
   1   0  -9   76.69    6.90
  -1   0  -9   87.99    7.40
   1   0 -10    1.90    2.70
   1   0 -10    3.70    2.20
  -1   0 -10    2.20    2.10
  -1   0 -10    4.10    2.60
   1  -1   0    0.20    0.50
  -1   1   0    0.70    0.50
  -1  -1   0   -0.10    0.70
  -1  -1   0    0.10    0.40
   1   1   0    0.20    0.80
  -1   1   0    0.10    0.70
  -1   1   0    0.20    0.50
  -1  -1   0    0.30    0.30
   1  -1   0   -0.20    0.50
  -1  -1   0    1.50    0.30
   1  -1   0   -1.00    0.50
   1   1   1  508.35   15.20
   1  -1  -1  522.75   15.20
   1  -1  -1  524.65   15.40
  -1   1  -1  509.95   15.60
  -1  -1   1  496.35   15.10
   1   1   1  530.05   14.70
  -1  -1   1  514.85   15.00
  -1   1  -1  517.45   15.40
  -1   1  -1  526.95   15.40
   1  -1  -1  532.55   15.40
  -1   1   1  526.85   15.30
   1   1  -1  513.55   15.80
   1   1  -1  517.85   14.80
  -1  -1  -1  507.45   15.50
  -1   1   1  515.95   15.40
   1  -1   1  521.35   15.40
  -1  -1  -1  504.65   15.20
   1  -1   1  509.65   15.30
  -1   1   1  520.35   15.10
   1  -1   1  498.75   15.80
  -1  -1   2 1668.03   47.50
   1   1   2 1677.23   47.90
   1  -1  -2 1703.73   47.40
   1  -1  -2 1686.63   47.70
  -1  -1   2 1648.94   46.90
   1   1   2 1639.54   47.00
   1   1   2 1664.93   47.00
  -1  -1  -2 1681.33   47.20
  -1  -1  -2 1690.63   48.00
   1   1  -2 1605.04   47.30
   1  -1   2 1669.23   47.30
  -1   1   2 1644.64   47.40
   1   1  -2 1623.54   47.40
  -1   1   2 1620.74   47.20
   1  -1   2 1670.63   47.60
   1  -1   2 1677.33   47.80
  -1  -1  -2 1671.03   46.90
  -1   1  -3  100.39    4.80
  -1  -1   3  103.99    4.80
   1  -1  -3  105.39    4.80
   1   1   3   94.19    4.30
  -1  -1   3  102.69    4.40
  -1   1  -3  100.29    5.00
   1  -1  -3  103.09    5.00
  -1  -1   3   94.79    4.70
   1  -1  -3   95.89    4.60
  -1  -1   3   96.19    4.90
   1   1   3  100.59    4.50
   1   1   3  103.99    5.10
   1   1  -3  107.49    4.70
  -1   1   3  101.79    4.50
   1  -1   3  106.09    4.90
  -1  -1  -3  103.99    4.60
  -1   1   3  109.39    4.60
  -1  -1  -3   93.19    5.00
   1   1  -3  100.59    4.70
  -1  -1  -3  104.29    4.30
   1  -1   3  103.39    4.50
   1  -1   3   99.99    4.80
   1  -1  -4 2038.00   59.79
   1  -1  -4 1860.41   59.59
  -1  -1   4 2055.89   59.69
   1   1   4 2130.19   58.29
  -1   1  -4 2084.99   60.09
   1  -1  -4 2101.79   59.49
  -1   1  -4 2044.10   59.49
  -1  -1   4 2153.38   58.99
  -1  -1   4 2017.50   59.59
  -1  -1   4 2018.80   59.89
   1  -1   4 2111.19   59.59
  -1   1   4 2047.60   58.79
  -1  -1  -4 2007.20   59.99
   1   1  -4 2049.70   59.49
  -1   1   4 2060.79   59.19
  -1  -1  -4 1927.91   58.89
  -1  -1  -4 2077.19   59.29
   1  -1   4 2029.70   59.59
   1  -1   4 1917.71   58.89
   1   1  -4 2136.59   59.59
   1  -1   4 2082.19   58.79
   1  -1  -5   42.50    3.70
  -1  -1   5   44.60    3.90
  -1   1  -5   43.10    4.30
  -1  -1   5   44.70    3.50
  -1  -1   5   42.00    4.10
  -1   1  -5   50.39    4.10
   1  -1  -5   41.80    3.60
   1  -1  -5   44.90    3.40
   1   1   5   47.90    3.00
  -1  -1   5   47.90    3.80
   1  -1   5   48.90    3.30
  -1   1   5   49.80    3.40
   1  -1   5   46.90    3.90
   1   1  -5   44.30    3.90
   1  -1   5   46.00    3.60
   1   1  -5   40.70    3.60
  -1  -1  -5   44.00    2.90
   1  -1   5   49.70    3.40
  -1  -1  -5   45.80    3.90
  -1  -1  -5   43.60    3.80
   1   1   6  637.84   19.90
   1  -1  -6  634.54   21.80
  -1  -1   6  669.13   21.10
  -1   1  -6  640.34   21.90
   1  -1  -6  620.94   20.60
  -1  -1   6  595.34   21.20
   1  -1   6  641.64   21.80
   1   1  -6  607.14   21.90
  -1  -1  -6  643.84   21.80
   1  -1   6  619.34   20.30
  -1   1   6  644.14   20.60
   1   1  -6  655.23   22.00
   1  -1   6  624.34   19.80
  -1   1  -7   14.30    3.30
   1   1   7   13.40    2.20
  -1  -1   7    9.60    2.40
   1  -1  -7   11.50    2.80
  -1  -1   7   12.30    2.10
   1  -1  -7   11.20    3.00
  -1   1   7   10.50    2.50
  -1  -1  -7   12.80    2.90
   1  -1   7   14.80    2.10
   1   1  -7   12.90    3.20
   1  -1   7   11.80    3.20
   1  -1   7   13.70    2.10
   1  -1  -8  164.38    8.80
  -1  -1   8  163.98    7.50
  -1   1  -8  165.68    9.70
   1   1   8  157.48    6.80
   1   1   8  163.18    6.50
   1  -1  -8  172.58    9.70
  -1  -1   8  138.49    8.10
  -1   1   8  167.38    7.70
   1  -1   8  167.98    6.60
  -1  -1  -8  179.38    9.80
   1  -1   8  156.78    6.70
   1   1  -8  176.28    9.80
   1  -1  -9    5.70    2.50
   1  -1  -9    4.60    2.90
  -1   1  -9    0.60    2.30
  -1  -1   9    1.50    1.50
  -1  -1  -9    0.50    2.20
  -1  -1  -9    2.90    2.50
   1   1  -9   -2.20    1.40
   1   1  -9    0.70    2.40
  -1   1   9    5.40    1.90
  -1   1 -10    4.80    3.00
   1  -1 -10   13.60    3.70
   1  -1 -10   10.90    3.40
   1   1 -10    8.80    3.60
  -1  -1 -10   14.00    3.40
   1   1 -10   10.50    2.90
  -1  -1 -10    4.30    2.80
   1  -2   0   -0.80    0.80
  -1   2   0    0.10    0.60
  -1   2   0    0.30    0.70
   1  -2   0    1.10    0.90
  -1  -2   0    0.40    0.60
  -1   2   0    0.30    1.10
   1   2   0    0.10    1.10
   1   2   0   -0.10    0.50
  -1  -2   0    0.00    0.50
   1   2   0   -0.10    0.40
   1   2   0    0.20    0.40
  -1  -2   0   -0.40    0.90
   1  -2   0    0.50    0.90
   1   2   1  572.34   15.90
   1  -2  -1  554.34   16.70
  -1  -2   1  548.45   17.70
  -1  -2   1  555.54   16.80
  -1   2  -1  565.14   17.60
  -1  -2   1  571.14   16.70
   1  -2  -1  559.34   17.40
   1   2   1  570.84   17.50
   1  -2  -1  559.64   17.30
  -1   2  -1  544.15   17.00
  -1   2  -1  548.65   16.90
   1   2  -1  565.54   16.60
  -1   2   1  578.94   16.60
   1  -2   1  549.54   17.40
   1   2  -1  540.05   17.80
  -1  -2  -1  560.54   17.30
  -1   2   1  575.14   17.60
   1   2  -1  569.94   16.60
  -1   2   1  538.25   17.10
  -1  -2  -1  572.34   16.30
   1  -2   1  558.84   17.20
  -1  -2  -1  543.95   17.10
  -1  -2   2   86.39    4.10
   1   2   2   79.09    4.00
  -1   2  -2   77.89    3.90
  -1   2  -2   76.29    4.30
  -1   2  -2   84.19    4.00
   1  -2  -2   82.59    4.00
   1   2   2   81.19    3.20
   1  -2  -2   78.59    4.10
  -1  -2   2   79.99    3.90
   1  -2  -2   88.09    3.80
  -1  -2   2   80.89    4.50
  -1   2   2   79.29    4.20
   1   2  -2   81.89    3.40
   1  -2   2   78.39    4.00
  -1  -2  -2   82.59    3.50
   1   2  -2   82.69    3.80
  -1  -2  -2   78.59    4.30
   1  -2   2   80.99    4.70
   1  -2   2   81.79    4.10
   1   2  -2   83.59    4.70
  -1   2   2   80.59    3.50
  -1  -2  -2   81.89    3.90
  -1   2  -3  534.55   17.50
  -1  -2   3  519.95   17.90
  -1  -2   3  522.45   17.60
   1   2   3  515.85   16.70
  -1   2  -3  515.95   17.00
   1  -2  -3  542.95   16.80
   1  -2  -3  530.25   17.60
   1   2   3  517.55   16.10
  -1  -2   3  524.85   16.30
   1  -2  -3  490.75   16.70
   1  -2  -3  521.95   17.10
  -1   2   3  530.75   16.50
  -1  -2  -3  520.15   16.50
  -1  -2  -3  544.85   16.60
   1  -2   3  544.65   17.30
  -1   2   3  542.65   17.10
  -1  -2  -3  520.95   17.70
   1  -2   3  515.85   17.10
   1   2  -3  539.55   16.50
   1   2  -3  534.65   17.00
   1  -2   3  510.25   16.90
   1  -2  -4   96.29    5.00
  -1   2  -4   89.69    5.60
   1  -2  -4   97.19    5.10
  -1  -2   4   99.29    5.50
  -1  -2   4   94.49    4.60
  -1  -2   4   86.59    5.10
   1   2   4   96.19    4.80
   1  -2  -4   95.09    5.60
   1   2   4   90.39    4.40
  -1  -2   4   98.29    5.20
   1  -2  -4  100.99    5.30
  -1   2  -4   93.99    5.30
   1  -2   4  101.09    5.20
  -1  -2  -4   91.69    5.60
  -1  -2  -4  101.29    4.80
   1   2  -4   97.19    5.10
   1  -2   4   89.79    5.20
  -1   2   4   92.69    4.70
  -1  -2  -4  100.59    5.00
   1  -2   4   96.99    4.80
  -1   2   4   97.29    5.10
   1   2  -4   96.39    5.20
   1  -2   4   97.79    5.00
   1  -2  -5  767.72   26.10
  -1  -2   5  767.62   25.90
   1  -2  -5  819.12   25.80
  -1  -2   5  865.91   26.40
  -1  -2   5  803.22   26.20
   1  -2  -5  822.42   25.90
  -1  -2   5  807.72   25.00
  -1   2  -5  819.12   26.10
   1   2   5  818.32   24.90
  -1   2  -5  668.63   26.30
   1  -2   5  799.42   25.70
  -1   2   5  858.61   25.50
   1   2  -5  840.62   26.00
  -1  -2  -5  749.53   25.30
   1  -2   5  770.62   25.10
   1  -2   5  850.11   25.60
  -1  -2  -5  819.42   25.70
   1   2  -5  746.33   25.80
   1  -2  -6   12.60    3.00
  -1  -2   6   14.60    2.60
   1   2   6   12.00    2.40
  -1   2  -6   13.70    3.10
  -1  -2   6   16.40    3.50
  -1  -2   6   17.50    3.00
   1  -2  -6   13.60    2.90
  -1   2  -6   10.80    2.80
   1  -2  -6   16.30    2.80
   1  -2   6   19.50    3.30
  -1   2   6   17.50    3.00
   1  -2   6   17.50    3.30
   1  -2   6   16.10    2.40
  -1  -2  -6   14.80    2.30
   1   2  -6   10.40    2.90
  -1  -2  -6    9.90    2.50
  -1  -2   7  244.78   10.60
   1   2   7  245.78    9.50
  -1  -2   7  214.28   10.70
  -1   2  -7  254.17   11.70
   1  -2  -7  239.88   11.30
   1  -2  -7  223.78    9.90
   1  -2  -7  237.98   11.00
  -1   2   7  251.97   10.20
  -1  -2  -7  219.78    9.00
   1  -2   7  224.48   11.80
  -1  -2  -7  255.47   11.50
   1  -2   7  247.98    9.60
   1  -2   7  229.08    9.40
   1   2  -7  252.07   11.50
  -1  -2   8   79.19    5.20
   1   2   8   74.19    4.40
   1  -2  -8   84.29    6.90
   1  -2  -8   80.99    6.40
  -1   2  -8   80.09    6.80
   1   2  -8   78.79    6.60
  -1   2   8   75.59    5.30
  -1  -2  -8   80.79    6.70
  -1  -2  -8   75.89    6.30
   1  -2   8   77.79    4.30
  -1  -2   9   18.90    2.90
  -1   2  -9   26.10    5.20
   1  -2  -9   23.50    4.40
  -1  -2  -9   15.80    5.00
  -1   2   9   29.20    3.30
   1   2  -9   19.60    4.20
  -1  -2  -9   25.20    5.10
   1  -2 -10    2.30    2.00
   1  -2 -10    0.10    2.40
  -1   2 -10    5.30    3.70
   1   2 -10   -6.90    2.90
  -1  -2 -10    0.30    2.10
  -1  -2 -10    0.30    2.10
  -1   3   0   -0.80    1.20
   1   3   0   -0.10    0.50
   1  -3   0    0.10    1.00
   1  -3   0    0.50    1.00
  -1   3   0    1.10    0.90
   1   3   0   -0.80    1.20
  -1  -3   0    0.10    0.90
   1   3   0    1.60    0.80
  -1   3   0   -0.40    0.70
   1  -3   0    0.40    0.90
   1   3   0    0.70    0.50
  -1   3   0   -0.50    0.60
  -1  -3   0    0.40    0.80
  -1  -3   0    1.00    1.20
   1   3   1  272.17   10.50
  -1   3  -1  252.17    9.70
  -1   3  -1  274.37   10.50
  -1  -3   1  282.37    9.40
   1  -3  -1  266.17    9.20
   1  -3  -1  285.27   10.10
  -1   3  -1  264.17    9.50
  -1  -3   1  273.27   10.40
   1  -3  -1  272.27   10.00
   1   3   1  275.07    8.10
  -1  -3   1  262.57    9.20
  -1   3   1  258.37    9.60
   1   3  -1  278.17    9.20
  -1  -3  -1  271.47   10.00
  -1  -3  -1  265.47    8.80
   1   3  -1  272.97    8.90
   1  -3   1  270.77    9.80
  -1  -3  -1  283.87    9.90
   1   3  -1  273.57   10.80
  -1   3   1  269.47    8.80
   1  -3   1  273.87   10.20
  -1   3   1  290.07   10.60
   1   3  -1  266.37    9.20
  -1   3  -2 1039.40   31.30
  -1   3  -2 1055.39   32.60
   1  -3  -2 1027.30   31.90
   1   3   2 1080.89   32.20
   1  -3  -2 1015.30   31.70
  -1  -3   2 1030.80   31.30
   1   3   2 1048.20   29.80
  -1  -3   2 1032.50   32.40
  -1   3  -2 1023.00   31.20
   1  -3  -2 1051.59   31.00
  -1  -3   2 1069.19   31.40
  -1  -3  -2 1091.19   31.90
   1   3  -2 1053.39   32.90
   1  -3   2 1055.59   31.60
  -1  -3  -2 1034.70   31.60
  -1  -3  -2 1067.49   30.60
  -1   3   2 1026.90   30.50
  -1   3   2 1063.29   32.20
   1  -3   2 1005.10   31.90
   1  -3   2 1095.69   32.30
   1   3  -2 1050.39   30.70
   1   3   3   70.39    4.50
  -1  -3   3   69.89    4.20
  -1   3  -3   61.49    3.70
  -1  -3   3   71.39    4.60
  -1   3  -3   75.59    4.30
   1   3   3   63.99    3.40
  -1   3  -3   66.69    4.80
  -1  -3   3   68.99    4.10
   1  -3  -3   70.49    4.50
   1  -3  -3   67.79    3.90
   1  -3  -3   64.99    4.10
   1  -3   3   68.79    4.70
  -1   3   3   64.09    4.40
  -1  -3  -3   76.49    4.60
   1  -3   3   64.49    4.20
  -1  -3  -3   66.59    4.60
   1   3  -3   72.29    4.00
  -1  -3  -3   68.39    3.70
   1   3  -3   65.59    3.40
   1  -3   3   63.79    4.20
  -1  -3  -3   62.79    3.90
  -1   3   3   69.69    3.50
   1  -3  -4 1364.76   40.90
  -1   3  -4 1353.26   40.90
  -1   3  -4 1381.36   41.30
  -1  -3   4 1379.96   40.30
   1  -3  -4 1337.67   41.50
  -1  -3   4 1333.17   41.40
   1  -3  -4 1325.37   40.90
   1   3   4 1357.06   41.00
   1  -3   4 1354.16   41.50
  -1  -3  -4 1426.36   41.70
   1   3  -4 1330.37   39.90
  -1  -3  -4 1370.16   40.60
   1  -3   4 1308.87   41.10
  -1   3   4 1449.85   41.60
   1  -3   4 1434.86   41.40
  -1  -3  -4 1304.07   40.50
  -1  -3   5   35.40    3.50
  -1   3  -5   40.10    4.00
   1  -3  -5   40.50    4.10
  -1  -3   5   38.50    3.30
  -1  -3   5   38.80    3.70
   1  -3  -5   36.90    3.30
   1   3   5   44.00    3.80
  -1  -3   5   41.00    3.90
   1  -3  -5   40.00    3.90
   1  -3   5   40.60    3.70
   1   3  -5   43.90    4.00
  -1  -3  -5   41.40    4.10
   1  -3   5   36.40    3.60
   1   3  -5   37.20    2.90
   1  -3   5   37.70    3.70
  -1  -3  -5   46.30    3.90
  -1  -3  -5   43.10    3.40
  -1   3   5   51.39    4.30
   1  -3   5   36.70    3.60
   1  -3  -6  491.55   17.80
  -1   3  -6  488.45   18.10
  -1  -3   6  495.15   16.70
   1   3   6  479.35   17.00
  -1  -3   6  487.75   18.30
   1  -3  -6  491.05   18.20
  -1   3  -6  468.75   17.60
  -1  -3  -6  439.46   17.10
   1  -3   6  445.16   16.80
  -1   3   6  492.65   17.60
  -1  -3  -6  466.45   18.10
   1   3  -6  460.75   16.40
   1  -3   6  491.05   17.40
   1  -3   6  516.25   17.80
   1   3  -6  504.25   18.00
  -1  -3  -6  500.15   17.80
  -1  -3   7   12.10    3.40
   1  -3  -7   16.90    3.70
  -1   3  -7   13.60    3.50
   1   3   7   15.70    3.10
  -1  -3   7   15.80    2.90
   1  -3  -7   13.10    3.50
   1  -3   7   16.40    3.40
   1   3  -7   13.70    3.40
  -1   3   7   12.30    2.90
  -1  -3  -7   13.90    3.60
  -1  -3  -7    9.20    2.70
   1  -3   7   13.70    2.60
   1  -3   7   14.80    3.40
   1   3  -7   13.20    2.60
   1  -3  -8  153.98    9.30
   1   3   8  145.29    7.20
  -1  -3   8  153.58    8.30
  -1   3  -8  156.48    9.50
   1  -3  -8  156.18    9.50
  -1  -3  -8  144.49    9.00
  -1  -3  -8  150.58    9.30
   1   3  -8  137.09    8.90
   1  -3   8  153.08    8.30
   1  -3   8  150.38    7.20
  -1  -3   9    2.50    2.00
  -1   3  -9    1.20    3.20
   1  -3  -9    3.10    2.50
   1  -3  -9    6.60    3.40
  -1   3   9    1.40    1.90
  -1  -3  -9    5.60    3.00
  -1  -3  -9   -2.20    2.00
   1   3  -9   -1.00    2.30
   1  -3 -10    6.80    3.30
   1  -3 -10   10.90    3.30
  -1  -3 -10    5.40    3.00
  -1  -3 -10   13.80    3.90
   1  -4   0    1.10    1.30
  -1  -4   0    0.20    1.00
  -1   4   0    0.10    1.80
  -1   4   0    0.30    1.00
  -1   4   0    1.00    0.80
   1  -4   0    0.40    1.20
   1   4   0    0.90    1.00
   1   4   0    0.20    0.50
   1   4   0   -0.80    1.90
  -1   4   0    1.30    0.70
   1   4   0    0.30    0.60
  -1  -4   0   -0.30    1.10
   1  -4  -1   34.50    3.70
   1   4   1   39.50    1.80
   1  -4  -1   42.00    3.10
   1   4   1   38.80    1.70
  -1   4  -1   33.70    3.80
  -1  -4   1   47.50    3.20
  -1   4  -1   40.30    2.80
   1  -4  -1   42.50    3.50
  -1   4  -1   38.50    2.80
  -1   4  -1   36.40    2.90
  -1  -4   1   39.80    3.60
   1   4   1   45.60    4.20
  -1   4   1   45.20    4.20
  -1   4   1   42.80    2.40
   1   4  -1   44.40    2.90
   1   4  -1   48.30    4.50
   1   4  -1   40.60    2.40
  -1  -4  -1   40.90    3.40
   1  -4   1   42.50    3.40
   1   4  -1   42.10    2.50
   1  -4  -2  167.18    8.00
   1   4   2  185.08    5.80
  -1   4  -2  184.28    9.10
  -1   4  -2  179.88    8.10
  -1  -4   2  189.18    7.80
   1   4   2  186.98    8.80
  -1  -4   2  188.88    7.70
   1  -4  -2  187.68    7.40
   1   4   2  175.98    5.80
  -1  -4   2  177.08    8.50
  -1   4  -2  168.58    7.30
   1  -4   2  183.28    8.40
  -1   4   2  198.48    9.00
  -1   4   2  183.38    6.60
  -1  -4  -2  184.68    8.20
   1   4  -2  184.68    7.20
  -1  -4  -2  190.18    7.10
   1  -4   2  194.78    8.40
   1   4  -2  176.38    7.70
   1   4  -2  195.08    7.20
  -1  -4  -2  168.38    8.80
   1   4  -2  199.08    9.50
  -1   4  -3  550.34   18.30
  -1  -4   3  562.54   19.10
  -1  -4   3  536.45   19.30
   1  -4  -3  579.74   18.40
  -1  -4   3  522.75   19.70
   1  -4  -3  546.45   19.50
  -1   4  -3  574.24   18.70
  -1   4  -3  575.24   20.50
   1   4   3  574.14   16.70
   1  -4  -3  565.24   19.20
   1   4   3  556.24   19.70
   1   4  -3  564.84   17.80
  -1  -4  -3  584.14   18.10
   1  -4   3  545.55   19.40
  -1   4   3  601.14   20.10
  -1  -4  -3  545.55   19.40
  -1  -4  -3  540.15   18.90
   1   4  -3  604.64   21.00
   1  -4   3  579.24   20.40
   1  -4  -4  277.47   11.60
   1   4   4  273.47   11.50
   1  -4  -4  286.07   10.70
  -1   4  -4  257.57   11.00
  -1  -4   4  271.87   10.40
  -1   4  -4  247.78   10.10
  -1  -4   4  276.37   11.30
   1  -4   4  274.37   11.50
  -1  -4  -4  236.68   10.30
  -1   4   4  283.17   11.80
  -1  -4  -4  280.07   10.40
   1   4  -4  280.07   10.70
   1  -4   4  253.57   11.10
   1  -4   4  242.78   10.80
  -1  -4  -4  273.77   11.60
   1   4  -4  249.28    9.50
  -1   4  -5   78.99    5.50
   1   4   5   81.79    5.80
  -1  -4   5   83.99    4.80
  -1  -4   5   67.99    5.20
  -1   4  -5   76.69    4.70
   1  -4  -5   80.29    6.10
   1  -4  -5   78.29    5.30
   1   4  -5   90.29    7.30
   1  -4   5   69.09    5.30
   1   4  -5   75.99    4.20
  -1  -4  -5   78.49    5.20
   1  -4   5   79.09    5.40
  -1   4   5   91.69    6.20
  -1  -4  -5   71.59    5.80
  -1  -4   6   10.30    2.40
   1  -4  -6   10.70    2.80
  -1   4  -6   12.20    3.00
  -1  -4   6   16.60    3.60
   1   4   6   15.10    3.20
   1  -4  -6    9.70    3.00
   1   4  -6   12.40    2.40
  -1  -4  -6   13.60    3.40
   1   4  -6   12.60    3.00
  -1  -4  -6   16.10    3.50
   1  -4   6   11.50    2.80
   1  -4   6   11.20    3.00
   1  -4  -7  202.18   10.50
  -1  -4   7  215.18    9.10
  -1  -4   7  212.98   11.30
  -1   4  -7  201.98   10.60
   1  -4  -7  196.28   11.00
   1   4   7  201.28    9.90
   1   4  -7  207.48   10.50
   1   4  -7  201.88    8.30
  -1  -4  -7  220.48   10.70
  -1   4   7  211.38   10.50
  -1  -4  -7  206.98   11.20
  -1  -4   8    6.80    3.10
   1  -4  -8    4.70    2.80
   1  -4  -8    2.20    3.70
  -1   4  -8    6.50    2.90
  -1  -4  -8    3.00    2.70
   1   4  -8   19.20    4.20
   1  -4   8    3.10    2.10
  -1   4   8    8.10    2.60
  -1  -4  -8    1.80    2.20
   1  -4   8    8.80    2.70
   1  -4  -9   45.80    6.20
  -1   4  -9   31.90    5.70
  -1  -4   9   55.89    5.20
   1  -4  -9   51.79    6.70
  -1  -4  -9   48.00    6.50
  -1  -4  -9   64.39    6.80
   1  -4 -10    1.20    3.40
  -1  -4 -10    0.10    3.00
  -1  -5   0    0.40    1.40
   1  -5   0    0.10    1.50
  -1  -5   0    0.00    1.20
   1  -5   0   -0.30    1.30
  -1   5   0   -0.20    0.80
   1   5   0    0.50    0.60
  -1   5   0    0.90    2.10
  -1   5   0    0.60    0.80
   1   5   0    0.60    0.50
   1   5   0    0.90    0.90
   1   5   0   -2.20    1.70
  -1   5  -1  170.38    9.30
   1  -5  -1  152.38    8.00
  -1  -5   1  162.58    7.60
  -1   5  -1  168.88    7.60
   1  -5  -1  165.48    7.70
   1   5   1  170.98    9.20
  -1   5  -1  167.18    6.80
  -1   5   1  169.18    6.40
   1   5  -1  167.88    6.30
  -1   5   1  177.38    9.40
  -1  -5  -1  161.08    8.00
   1   5  -1  166.68    9.40
   1  -5   1  169.48    8.00
  -1  -5  -1  169.98    7.30
  -1   5  -2  369.56   13.30
  -1   5  -2  387.06   16.10
  -1   5  -2  363.36   13.60
   1   5   2  376.56   15.60
   1  -5  -2  382.76   14.80
   1  -5  -2  349.67   14.30
  -1  -5   2  382.86   14.10
   1   5  -2  385.66   16.20
   1   5  -2  376.86   13.30
   1  -5   2  385.86   14.70
   1   5  -2  389.56   12.90
  -1  -5  -2  383.36   14.70
  -1  -5  -2  443.36   15.50
  -1   5   2  393.96   15.80
  -1   5  -3   41.60    3.30
   1  -5  -3   42.30    3.60
  -1  -5   3   36.80    3.70
  -1   5  -3   36.90    5.30
   1   5   3   44.40    4.90
   1  -5  -3   45.50    4.60
  -1  -5   3   46.50    5.50
   1   5  -3   41.50    3.00
  -1   5   3   48.50    5.90
   1   5  -3   38.10    3.20
  -1  -5  -3   48.40    4.60
   1   5  -3   38.80    5.70
  -1  -5  -3   44.70    3.50
   1  -5   3   49.80    6.00
  -1  -5   4  792.42   27.20
   1   5   4  837.52   28.30
   1  -5  -4  828.82   26.40
   1  -5  -4  825.42   28.00
  -1   5  -4  818.62   26.50
  -1   5  -4  729.13   25.60
  -1  -5   4  842.92   26.80
  -1  -5  -4  826.92   27.90
   1  -5   4  822.42   27.90
  -1   5   4  864.01   28.50
  -1  -5  -4  794.62   25.80
   1   5  -4  780.32   25.20
   1  -5  -5   16.60    3.90
  -1  -5   5   18.50    3.00
  -1  -5   5   17.30    3.20
   1  -5  -5   13.90    2.90
  -1   5  -5   12.10    2.90
   1   5   5   12.30    3.30
  -1  -5  -5   14.10    2.70
  -1  -5  -5    9.30    3.40
   1   5  -5   15.60    2.50
  -1   5   5   12.00    3.60
   1   5  -5   14.60    2.90
   1  -5   5   15.60    3.30
  -1  -5   6  282.07   13.10
   1   5   6  295.77   13.40
   1  -5  -6  291.17   12.70
  -1  -5   6  297.77   11.30
   1  -5  -6  293.87   14.00
  -1   5  -6  297.67   12.90
   1  -5   6  308.27   13.10
  -1  -5  -6  278.47   12.20
  -1   5   6  298.67   13.70
   1   5  -6  250.67   10.30
  -1  -5  -6  286.17   13.90
   1   5  -6  294.67   12.80
   1  -5   6  300.67   12.40
  -1  -5   7    2.30    2.70
  -1  -5   7    3.80    1.70
   1   5   7   11.30    3.40
  -1   5  -7    5.90    2.80
   1  -5  -7    4.30    2.80
   1  -5  -7    4.80    2.80
   1  -5   7    5.20    2.70
  -1  -5  -7    7.40    3.20
   1  -5   7    1.30    2.00
  -1   5   7    1.60    2.30
  -1  -5  -7    4.80    4.60
   1   5  -7    5.80    2.20
  -1   5  -8   88.99    7.70
  -1  -5   8   74.59    7.40
   1  -5  -8  100.49    8.30
   1  -5  -8   71.59    6.70
   1   5   8   84.09    6.30
   1  -5   8   71.39    6.80
  -1  -5  -8   72.29    7.40
   1  -5   8   87.89    5.70
  -1  -5  -8   79.09    6.70
  -1   5   8   83.69    6.60
  -1  -5   9    8.80    4.30
   1  -5  -9   -1.60    2.00
   1  -5  -9    2.60    3.00
  -1   5   9    7.30    3.10
  -1  -5  -9    0.10    2.30
  -1  -5  -9    5.30    3.30
  -1  -6   0    4.60    2.00
  -1   6   0    2.30    1.00
   1  -6   0    0.10    2.30
   1  -6   0    9.20    2.60
   1   6   0    3.70    2.90
  -1  -6   0   -0.30    1.60
  -1   6   0   13.60    4.00
  -1   6  -1   90.69    7.50
   1  -6  -1   95.09    6.40
   1   6   1  101.89    7.70
  -1   6  -1   86.99    4.60
   1  -6  -1   97.89    6.30
  -1  -6   1   99.59    6.10
  -1  -6  -1   84.79    5.70
   1   6  -1  101.99    7.90
  -1   6   1   95.69    7.60
   1  -6   1   98.39    6.30
   1   6  -1   90.39    4.00
  -1   6   1   86.49    4.10
  -1  -6  -1   92.79    6.30
  -1  -6   2   35.60    4.60
   1  -6  -2   36.30    3.80
   1  -6  -2   48.00    5.80
   1   6   2   53.69    6.70
  -1   6  -2   29.50    2.90
  -1   6  -2   30.70    5.50
  -1   6   2   36.10    2.20
   1  -6   2   42.10    5.40
  -1   6   2   45.30    6.30
   1   6  -2   36.80    2.70
  -1  -6  -2   35.70    3.60
  -1  -6  -2   30.50    4.30
   1   6  -2   39.50    6.50
  -1  -6   3  139.99    8.20
   1  -6  -3  144.19    8.70
   1   6   3  153.88    9.60
   1  -6  -3  148.59    7.50
  -1   6  -3  134.29    9.40
  -1   6  -3  137.69    6.90
   1  -6   3  135.59    8.60
  -1  -6  -3  150.08    8.70
   1   6  -3  148.09    9.90
   1   6  -3  142.19    8.00
  -1   6   3  133.19    5.20
  -1  -6  -3  139.49    7.00
  -1   6   3  141.79    9.30
   1   6  -3  134.79    6.50
   1  -6  -4   29.90    4.70
  -1  -6   4   33.30    4.90
  -1   6  -4   28.80    5.30
  -1   6  -4   29.60    5.60
   1   6   4   25.00    4.90
   1  -6  -4   32.30    4.40
  -1   6   4   24.20    4.90
   1  -6   4   23.20    4.90
  -1  -6  -4   30.00    5.00
   1   6  -4   21.60    3.10
   1   6  -4   25.70    2.50
  -1  -6  -4   29.30    3.90
   1  -6  -5  256.27   13.00
   1  -6  -5  246.58   11.30
  -1  -6   5  243.78   10.70
  -1   6  -5  237.58   11.00
   1   6   5  246.28   12.80
   1   6  -5  239.28    9.60
   1   6  -5  249.78   10.80
  -1   6   5  258.27   13.20
  -1  -6  -5  255.37   11.20
  -1  -6  -5  254.17   12.90
   1  -6   5  260.07   12.00
  -1   6  -6    7.00    2.50
   1   6   6    5.20    2.90
  -1  -6   6    1.10    2.40
   1  -6  -6    7.20    3.90
   1  -6  -6    6.10    2.70
  -1  -6   6    7.90    2.20
   1  -6   6    9.70    2.90
  -1  -6  -6    4.30    2.90
  -1   6   6    3.50    3.10
  -1  -6   7   67.99    4.30
  -1  -6   7   65.29    6.60
   1   6   7   80.19    6.90
   1  -6  -7   65.59    6.30
   1  -6  -7   62.89    7.10
  -1  -6  -7   65.89    6.10
   1  -6   7   65.09    6.40
  -1  -6  -7   69.29    7.50
   1  -6   7   73.69    5.40
  -1   6   7   75.39    6.90
  -1  -6   8   32.40    5.30
   1  -6  -8   33.10    5.50
   1  -6  -8   37.80    6.40
   1   6   8   39.00    5.60
   1  -6   8   29.30    5.10
  -1  -6  -8   29.40    5.00
  -1   6   8   35.10    5.30
  -1  -6  -8   35.90    6.20
   1  -6  -9    7.70    4.00
  -1  -6  -9    5.40    3.00
  -1  -6  -9    6.00    3.20
  -1  -7   0   -0.40    1.90
   1  -7   0   -1.00    1.70
  -1   7   0    2.10    3.00
   1   7   0    1.10    3.20
  -1   7  -1   54.39    7.70
  -1   7  -1   33.40    2.60
  -1  -7   1   36.50    4.90
   1  -7  -1   28.90    4.60
   1  -7  -1   34.80    5.00
   1   7   1   46.60    7.40
   1  -7   1   40.80    5.60
  -1  -7  -1   40.30    5.20
  -1   7   1   41.80    6.80
  -1  -7  -1   31.70    4.80
   1   7  -1   34.00    6.50
   1  -7  -2  203.18   10.00
   1  -7  -2  188.08   10.60
  -1   7  -2  173.48    7.80
  -1   7  -2  195.68   12.10
  -1  -7   2  200.48   10.10
   1   7   2  197.68   11.90
  -1   7   2  193.18   11.90
   1  -7   2  190.78   10.30
   1   7  -2  182.38   11.90
  -1  -7  -2  197.58   10.50
  -1  -7  -2  180.98    9.30
   1  -7  -3   14.10    4.00
   1  -7  -3   21.40    3.90
   1   7   3   16.60    4.80
  -1   7  -3   18.00    4.90
  -1   7  -3   18.90    2.70
  -1  -7  -3   20.50    3.80
   1   7  -3   16.70    2.40
   1   7  -3   22.00    5.40
   1  -7   3   14.70    4.20
  -1   7   3   10.70    4.10
  -1  -7  -3   13.90    3.80
   1   7   4  269.97   14.20
  -1  -7   4  263.77   12.80
   1  -7  -4  276.17   12.10
   1  -7  -4  263.67   13.50
  -1   7  -4  255.97   14.60
  -1   7  -4  253.67   10.90
   1   7  -4  252.77   14.70
  -1   7   4  263.67   14.30
  -1  -7  -4  262.97   13.40
   1  -7   4  269.77   13.70
   1   7  -4  253.37   10.40
  -1  -7  -4  258.47   11.50
   1  -7  -5   15.40    4.80
  -1   7  -5    7.60    2.50
  -1  -7   5   16.50    3.30
   1   7   5   14.90    4.50
  -1  -7  -5   11.00    3.10
   1  -7   5   13.90    3.60
  -1   7   5    6.30    3.80
   1  -7  -6  130.89    8.50
   1   7   6  136.99    9.80
   1  -7  -6  129.59    9.90
  -1  -7   6  137.89    7.00
   1  -7   6  131.59    8.00
  -1   7   6  128.99   10.00
  -1  -7  -6  153.58   10.50
  -1  -7  -6  139.69    8.50
   1   7   7   10.70    3.60
   1  -7  -7   11.90    3.20
   1  -7  -7    4.70    3.20
  -1  -7   7    6.80    3.10
  -1  -7  -7    9.00    3.10
  -1  -7  -7    7.90    3.90
  -1   7   7    7.30    3.20
   1  -7   7    5.70    2.10
   1  -7  -8   57.59    6.10
   1  -7  -8  108.59   16.80
  -1  -7   8   71.79    7.20
   1   7   8   67.59    6.60
  -1   7   8   56.19    6.30
   1  -7   8   65.79    8.00
  -1  -7  -8   56.59    6.10
  -1  -7  -8   81.29   10.40
   1  -8   0    0.50    2.30
  -1  -8   0   -1.90    2.00
  -1   8   0    4.20    3.70
   1   8   0   -0.30    3.50
  -1   8  -1   11.80    5.10
   1   8   1   19.50    5.80
   1  -8  -1   17.20    4.00
  -1  -8   1   15.40    3.80
   1  -8  -1   17.90    4.20
   1  -8   1   18.30    4.20
  -1  -8  -1   19.60    4.30
  -1  -8  -1   21.70    4.50
  -1   8   1   17.80    5.30
   1   8  -1   19.90    5.60
  -1   8  -2   37.50    2.90
  -1  -8   2   44.20    6.10
   1  -8  -2   40.30    5.70
  -1   8  -2   50.79    8.70
   1   8   2   40.20    7.10
   1  -8  -2   45.00    6.20
   1   8  -2   53.29    8.60
  -1   8   2   45.40    7.50
  -1  -8  -2   36.60    5.80
  -1  -8  -2   44.50    5.80
   1  -8   2   33.20    5.60
   1   8   3  123.59   10.00
   1  -8  -3  110.49    8.80
   1  -8  -3  123.29    9.40
  -1   8  -3  124.79   10.50
  -1  -8   3  120.19    8.70
  -1   8   3  117.69    9.90
  -1  -8  -3  112.69    8.70
   1  -8   3  122.09    9.10
   1   8  -3   95.49    9.70
   1  -8  -4   55.89    5.70
  -1   8  -4   47.30    7.90
   1   8   4   57.99    7.90
  -1  -8   4   61.99    6.20
   1  -8  -4   64.79    7.00
  -1  -8  -4   52.99    5.40
  -1   8   4   44.50    7.80
  -1  -8  -4   48.90    7.00
   1  -8   4   60.79    8.00
   1   8   5   12.30    4.30
   1  -8  -5    4.30    3.50
   1  -8  -5    5.20    2.60
  -1  -8   5   10.80    2.70
  -1   8   5    8.80    4.10
  -1  -8  -5    3.90    3.30
   1  -8   5   11.30    3.40
  -1  -8  -5    7.70    3.00
   1   8   6   11.90    4.00
   1  -8  -6    5.10    3.70
   1  -8  -6    4.20    2.70
  -1   8   6    6.20    3.00
   1  -8   6    7.50    2.70
  -1  -8  -6    8.00    3.20
  -1  -8  -6    1.00    2.90
   1  -8  -7   54.89   10.20
   1  -8  -7   40.30    5.60
  -1  -8   7   42.60    6.70
   1   8   7   40.60    7.20
  -1  -8  -7   37.30    5.60
   1  -8   7   42.40    6.30
  -1   8   7   64.79    7.10
  -1  -8  -7   43.00    9.20
   1   9   0   -3.30    3.40
  -1   9   0   -1.50    2.80
   1  -9   0   -1.40    2.20
  -1  -9   0    3.20    2.90
  -1  -9   1   24.90    4.80
   1   9   1   21.60    6.40
  -1   9  -1   35.70    7.60
   1   9  -1   48.30    8.70
  -1   9   1   25.70    6.50
  -1  -9  -1   32.80    5.50
   1  -9   1   18.80    4.50
   1  -9  -2   22.00    4.90
  -1   9  -2   31.70    7.20
   1   9   2   45.40    8.00
  -1  -9   2   37.50    6.00
   1  -9  -2   33.50    5.70
  -1   9   2   34.70    7.10
  -1  -9  -2   39.50    5.90
   1   9  -2   42.40    8.10
  -1  -9  -2   39.40    6.60
   1  -9   2   36.50    6.40
  -1   9  -3    5.60    3.90
   1   9   3   10.00    4.50
  -1  -9   3   12.60    4.30
   1  -9  -3    9.00    4.00
   1  -9  -3    9.40    3.50
  -1   9   3   21.20    5.70
  -1  -9  -3    6.50    3.10
   1   9  -3    4.30    4.20
   1  -9   3    8.80    4.00
   1   9   4  119.59   10.70
  -1  -9   4  152.48    9.30
   1  -9  -4  118.49    8.80
   1  -9  -4  108.59    9.40
  -1   9  -4  116.69   10.90
  -1   9   4  151.68   11.50
  -1  -9  -4  124.59    9.90
  -1  -9  -4  122.39    8.70
   1  -9   4  130.59    9.50
   1  -9  -5   -1.10    2.90
   1  -9  -5    3.30    2.80
  -1  -9   5    3.80    2.10
   1   9   5    3.40    3.70
   1  -9   5    5.30    2.10
  -1  -9  -5    1.40    2.50
  -1   9   5   -2.00    3.20
  -1  -9  -5    0.80    3.30
   1  -9  -6   58.39    8.70
   1  -9  -6   51.29    5.90
   1   9   6   82.99    8.00
  -1  -9  -6   57.19    6.00
  -1   9   6   69.09    7.70
  -1  -9  -6   59.89    8.60
   1  10   0    2.20    3.70
   1 -10   0    3.90    3.40
  -1  10   0    3.40    4.20
  -1 -10   0    0.40    2.70
  -1  10  -1   17.20    6.10
   1 -10  -1   13.80    4.10
  -1 -10   1   11.30    3.60
   1  10   1   12.30    5.50
   1  10  -1   19.20    6.40
   1 -10   1   10.20    3.40
  -1  10   1   -0.30    3.70
  -1 -10  -1   14.20    4.20
  -1 -10   2   11.70    3.60
   1  10   2    9.80    4.80
   1 -10  -2    7.60    3.50
  -1  10  -2   11.20    5.30
   1  10  -2    0.90    4.40
   1 -10   2   16.80    4.80
  -1  10   2   15.90    5.60
  -1 -10  -2    8.50    3.80
  -1  10  -3   23.00    6.80
   1 -10  -3   18.30    4.40
  -1 -10   3   15.30    4.20
   1 -10  -3   17.40    4.70
   1  10   3   20.90    5.70
  -1 -10  -3   19.60    5.00
   1  10  -3   17.50    6.00
  -1 -10  -3   19.50    4.20
   1 -10   3   18.70    4.50
  -1  10   3   24.00    5.90
   1 -10  -4   -0.20    2.20
  -1 -10   4   13.70    3.90
   1  10   4    2.90    2.90
   1 -10  -4    6.50    5.80
   1 -10   4    5.70    3.00
  -1 -10  -4    1.00    3.50
  -1 -10  -4    1.00    2.30
  -1  10   4    3.30    3.40
   1  11   0    4.90    4.30
  -1  11   0    3.90    4.20
   1 -11   0    2.00    2.40
  -1 -11   0    0.40    2.20
  -1 -11   1    6.40    2.90
   1  11   1   14.00    5.00
  -1  11  -1   -1.00    3.80
   1 -11   1   -0.10    2.20
  -1  11   1    1.20    3.50
   1  11  -1    7.40    4.80
  -1 -11  -1    2.20    2.20
   2   0   0  659.53   21.90
   2   0   0  871.31   22.10
   2   0  -1   86.89    2.90
   2   0  -1   85.69    3.80
  -2   0   1   79.59    3.80
  -2   0   1   90.39    2.90
   2   0  -1   86.89    3.20
  -2   0   1   90.29    3.30
  -2   0  -1   88.09    3.20
  -2   0  -1   81.59    3.50
   2   0   2 6538.95  188.18
  -2   0   2 6520.85  194.38
  -2   0  -2 6440.56  190.08
   2   0  -3   66.59    3.40
   2   0   3   67.09    3.50
   2   0  -3   67.49    3.70
   2   0   3   68.89    4.00
  -2   0  -3   57.49    3.70
   2   0   3   64.99    2.50
  -2   0  -3   66.39    3.60
   2   0  -3   63.19    3.60
  -2   0   3   66.89    3.90
  -2   0  -4    2.80    1.40
  -2   0   4    1.80    0.90
  -2   0   4    2.20    1.40
   2   0  -4    3.30    1.30
   2   0  -4    0.40    0.90
   2   0  -4    2.30    1.20
   2   0   4    2.80    0.80
  -2   0  -4    2.40    1.40
   2   0   4    1.50    1.50
   2   0   4    3.50    1.30
   2   0   5   17.00    2.30
  -2   0  -5   13.10    2.30
   2   0  -5   17.30    2.80
  -2   0   5   14.00    2.50
  -2   0   5   13.50    2.50
   2   0  -5   11.00    2.20
   2   0   5   18.90    3.50
  -2   0  -5   17.80    3.10
  -2   0  -6    1.60    1.90
   2   0   6    3.30    1.10
   2   0   6    3.90    1.20
   2   0   6    3.10    2.20
  -2   0   6    1.90    1.60
   2   0  -6    2.80    2.00
   2   0  -6    4.60    1.60
  -2   0   7  194.58    8.70
  -2   0  -7  211.28   10.30
   2   0   7  192.08    6.90
   2   0   7  186.58    7.10
  -2   0   8  122.89    6.60
  -2   0  -8  116.19    8.20
   2   0  -8  125.89    8.20
   2   0  -8  113.09    6.70
  -2   0   9    4.40    1.90
  -2   0  -9    3.10    2.60
   2   0  -9    7.90    3.20
   2   0  -9    1.50    2.00
   2   0 -10   58.59    5.20
  -2   0 -10   57.39    6.60
   2   0 -10   62.19    6.30
  -2   0 -10   59.09    5.70
  -2   1   0  502.35   14.90
  -2  -1   0  500.75   14.50
  -2   1   0  489.25   14.80
  -2   1   0  502.45   14.90
   2  -1   0  505.75   14.90
   2   1   0  492.05   15.20
   2  -1  -1 1515.95   43.00
   2   1   1 1483.45   43.00
  -2   1  -1 1518.15   43.00
  -2  -1   1 1503.45   43.80
   2  -1  -1 1545.85   43.20
  -2   1  -1 1542.55   43.30
  -2   1  -1 1545.75   43.80
  -2  -1  -1 1501.25   42.90
  -2   1   1 1558.44   43.20
   2  -1   1 1495.65   42.90
  -2  -1  -1 1523.85   43.50
  -2  -1  -1 1526.25   42.40
   2  -1   1 1500.15   44.00
  -2   1  -2  483.35   15.60
  -2  -1   2  522.55   15.60
  -2   1  -2  495.05   15.20
   2  -1  -2  509.25   15.70
   2   1   2  502.45   14.90
   2  -1  -2  503.65   15.40
   2   1   2  500.25   14.90
   2   1   2  500.75   16.10
  -2  -1   2  524.45   14.70
  -2   1  -2  505.95   16.50
  -2  -1   2  487.25   15.60
   2  -1  -2  515.85   15.50
  -2  -1  -2  521.95   16.20
  -2   1   2  503.65   15.70
  -2  -1  -2  513.05   15.10
   2  -1   2  500.05   15.00
  -2  -1  -2  504.05   14.80
   2   1  -2  501.45   15.40
   2   1  -2  465.35   14.90
   2  -1   2  514.25   16.20
  -2   1   2  506.95   15.40
   2  -1  -3  632.74   19.30
  -2  -1   3  640.84   20.00
   2   1   3  624.94   18.60
  -2   1  -3  624.74   19.80
   2  -1  -3  627.64   19.60
   2   1   3  619.44   20.20
   2  -1  -3  633.74   20.00
  -2  -1   3  590.64   20.10
   2   1   3  628.24   19.10
  -2  -1   3  635.94   19.30
   2  -1  -3  633.44   19.80
  -2   1  -3  613.54   20.30
   2   1  -3  642.94   19.20
   2  -1   3  624.54   18.60
   2   1  -3  625.54   20.40
  -2  -1  -3  645.14   20.30
  -2   1   3  631.44   19.50
  -2  -1  -3  633.44   19.30
  -2  -1  -3  641.84   18.70
   2  -1   3  624.44   20.00
   2  -1   3  623.24   18.80
   2  -1   3  631.14   19.70
  -2   1   3  634.34   19.60
  -2  -1   4   73.59    3.80
  -2   1  -4   71.49    4.40
   2  -1  -4   66.19    4.60
   2  -1  -4   77.39    4.50
   2   1   4   71.19    3.90
   2   1   4   75.69    4.90
  -2  -1   4   66.49    4.20
   2  -1  -4   71.39    4.30
  -2   1  -4   72.39    4.70
  -2  -1   4   75.09    5.00
  -2  -1  -4   69.49    4.20
   2  -1   4   69.79    4.20
  -2   1   4   73.99    4.20
   2  -1   4   73.79    4.30
   2   1  -4   74.99    4.10
   2   1  -4   73.39    4.40
   2  -1   4   70.89    4.50
  -2   1   4   71.79    4.10
  -2  -1  -4   70.89    3.70
  -2  -1   5   72.99    5.20
   2  -1  -5   82.59    5.10
   2  -1  -5   74.19    4.80
  -2   1  -5   80.19    5.30
   2   1   5   83.29    3.80
  -2  -1   5   75.99    5.00
   2  -1  -5   73.19    4.70
  -2  -1   5   75.19    4.90
  -2   1  -5   78.29    5.10
   2  -1   5   82.89    3.90
   2  -1   5   81.29    5.20
   2  -1   5   70.19    4.60
  -2   1   5   78.09    5.50
  -2  -1  -5   84.79    5.00
  -2  -1  -5   76.59    3.60
  -2   1   5   76.69    4.60
   2  -1   5   78.69    3.90
   2   1  -5   84.39    4.90
   2   1  -5   73.89    4.90
   2  -1  -6   32.00    3.00
   2  -1  -6   25.90    3.40
   2   1   6   25.80    2.30
  -2   1  -6   22.80    3.40
  -2  -1   6   30.60    3.90
   2  -1  -6   30.40    4.20
  -2  -1   6   31.30    3.10
  -2  -1  -6   30.10    4.00
   2   1  -6   26.60    3.80
   2  -1   6   26.10    2.20
  -2   1   6   29.40    3.60
   2  -1   6   24.00    3.70
   2  -1   6   28.10    2.30
  -2  -1   7   28.90    3.80
   2  -1  -7   29.20    4.50
  -2  -1   7   31.40    3.20
  -2   1  -7   27.70    4.40
   2  -1  -7   28.40    3.90
   2   1   7   26.10    2.20
   2   1   7   30.90    2.40
  -2  -1  -7   26.00    4.40
  -2   1   7   26.90    3.60
   2  -1   7   23.30    2.20
   2  -1   7   25.80    2.10
   2  -1   7   30.40    4.70
   2   1  -7   37.80    5.20
   2  -1  -8   14.10    3.20
  -2  -1   8   14.30    2.80
  -2   1  -8   18.40    3.90
   2  -1  -8   10.10    3.00
  -2   1   8   19.10    3.30
  -2  -1  -8   16.00    4.00
   2   1  -8    9.90    3.20
  -2  -1   9  110.09    6.80
  -2   1  -9  122.69    8.60
   2  -1  -9  128.39    7.70
   2  -1  -9  137.39    9.00
  -2  -1  -9  104.59    9.40
   2   1  -9  116.39    6.70
  -2   1   9  124.39    6.50
   2   1  -9  107.49    8.20
   2  -1 -10    3.00    3.00
   2  -1 -10    3.80    2.30
  -2   1 -10    4.60    2.80
  -2  -1 -10    2.70    2.30
  -2  -1 -10    4.70    2.70
   2   1 -10    2.00    2.50
   2   1 -10    4.40    3.40
  -2   2   0 1122.49   32.30
  -2  -2   0 1107.19   33.00
  -2  -2   0 1129.79   31.40
   2  -2   0 1106.69   32.60
  -2   2   0 1083.69   32.50
   2  -2   0 1105.29   32.60
  -2  -2   0 1132.29   31.50
   2   2   0 1082.79   33.10
  -2   2   0 1139.19   32.90
   2  -2   0 1135.69   32.70
  -2   2  -1  535.95   16.60
  -2  -2   1  546.35   16.00
   2   2   1  538.45   17.00
   2  -2  -1  530.75   16.40
  -2  -2   1  522.95   17.40
  -2  -2   1  545.45   16.20
  -2   2  -1  559.84   16.80
  -2   2  -1  543.25   17.10
  -2   2  -1  562.54   17.10
   2  -2  -1  545.35   17.00
   2   2  -1  552.74   15.90
  -2   2   1  556.44   16.30
  -2  -2  -1  543.85   15.50
   2  -2   1  528.35   16.70
   2   2  -1  532.95   17.60
  -2   2   1  530.85   16.70
   2   2  -1  535.55   15.80
   2  -2   1  522.65   17.00
  -2   2   1  539.05   17.10
  -2  -2  -1  555.84   17.00
  -2  -2  -1  536.25   16.80
  -2   2  -2 5298.77  160.88
   2  -2  -2 5089.89  156.18
  -2  -2   2 5157.08  159.98
  -2   2   2 5329.47  152.48
   2  -2   2 5087.79  159.78
   2  -2  -3  647.74   20.10
  -2   2  -3  631.14   20.10
  -2   2  -3  597.34   20.70
   2   2   3  635.94   18.80
   2  -2  -3  639.24   19.90
   2   2   3  617.84   19.50
  -2  -2   3  623.24   20.00
   2  -2  -3  634.24   20.00
  -2  -2   3  635.24   20.80
  -2   2  -3  633.44   20.20
  -2  -2   3  631.04   18.90
  -2  -2  -3  643.44   20.80
  -2   2   3  644.44   20.20
  -2   2   3  635.44   19.60
   2  -2   3  604.84   20.10
   2  -2   3  650.03   20.80
   2   2  -3  629.24   18.90
   2   2  -3  650.63   19.80
  -2  -2  -3  648.74   19.40
   2  -2   3  618.84   19.60
  -2  -2  -3  610.24   19.20
  -2   2  -4    1.70    1.60
  -2  -2   4    1.40    1.00
   2   2   4    1.40    0.80
  -2   2  -4    1.90    1.50
   2  -2  -4    2.70    1.50
  -2  -2   4    1.80    1.40
   2  -2  -4    2.10    1.30
  -2  -2   4    2.20    1.50
   2   2   4    0.80    1.10
   2  -2  -4    2.20    1.40
  -2  -2   4    1.50    1.40
   2  -2  -4    1.10    1.30
  -2  -2  -4    0.90    1.20
  -2   2   4    1.70    1.40
  -2  -2  -4    1.20    1.30
   2  -2   4    1.10    1.20
   2   2  -4    1.00    1.30
  -2   2   4    3.80    1.30
   2  -2   4    1.20    1.40
  -2  -2  -4    2.20    1.00
   2  -2   4    1.40    1.00
   2   2  -4    1.00    1.20
   2  -2  -5    7.80    2.10
  -2  -2   5   15.50    2.30
   2  -2  -5   11.20    2.50
  -2  -2   5    8.70    2.20
  -2  -2   5   11.00    2.80
   2  -2  -5    8.50    2.30
  -2   2  -5    5.60    2.20
   2   2   5    7.40    1.80
  -2   2  -5   11.30    2.70
   2  -2   5    8.90    2.10
   2  -2   5   10.60    2.60
   2   2  -5   10.70    2.30
  -2  -2  -5   11.80    2.90
   2  -2   5   13.20    2.80
  -2  -2  -5    8.70    1.90
   2   2  -5    9.50    2.40
   2  -2   5    5.40    1.60
  -2   2   5    6.50    2.10
  -2   2  -6    1.90    2.20
  -2  -2   6    6.50    2.70
   2  -2  -6    8.10    1.80
   2  -2  -6    6.60    2.40
   2  -2  -6    1.00    1.90
  -2  -2   6    9.20    2.30
   2   2   6    5.40    1.70
   2   2  -6    5.30    2.40
  -2  -2  -6    2.30    2.00
  -2  -2  -6    9.00    1.80
   2  -2   6    6.80    2.00
   2  -2   6    6.50    1.70
  -2   2   6    5.00    2.20
   2  -2   6    6.70    2.40
   2   2  -6    6.70    2.00
   2  -2  -7    1.00    2.10
  -2  -2   7   -0.50    1.90
   2   2   7    0.80    1.30
  -2   2  -7    0.20    2.10
   2  -2  -7    5.40    2.70
  -2  -2  -7    3.20    0.90
  -2   2   7    1.10    1.90
   2  -2   7    2.30    1.10
  -2  -2  -7    2.00    2.00
   2  -2   7    1.40    1.30
   2   2  -7   -0.40    1.80
   2  -2   7    1.80    2.10
   2   2  -7    6.60    1.90
   2  -2  -8  108.39    7.70
   2   2   8  103.69    4.60
   2  -2  -8  108.59    7.30
  -2   2  -8  114.59    8.10
   2  -2   8   94.19    4.70
   2   2  -8  119.09    7.90
   2  -2   8  103.89    4.60
  -2  -2  -8   99.69    7.50
   2  -2   8  113.59    7.40
  -2   2   8  114.69    7.20
   2  -2  -9    4.80    3.10
  -2   2  -9    7.80    3.00
   2  -2  -9    5.90    2.60
  -2  -2   9    7.80    2.40
  -2   2   9    5.60    2.10
   2   2  -9    4.60    1.90
   2   2  -9    4.40    2.50
  -2  -2  -9    6.00    3.00
  -2  -2  -9    4.90    2.80
  -2   2 -10   64.49    6.60
   2  -2 -10   59.19    6.50
   2  -2 -10   46.80    5.30
  -2  -2 -10   57.99    6.40
   2   2 -10   39.70    9.50
  -2  -2 -10   50.59    6.50
  -2   3   0  165.68    6.10
  -2  -3   0  157.68    6.20
  -2  -3   0  153.88    6.90
   2  -3   0  169.68    6.80
   2   3   0  147.89    7.10
  -2   3   0  154.58    7.10
  -2   3   0  161.88    6.50
   2  -3   0  156.08    6.60
  -2  -3   0  155.08    5.90
   2  -3   0  153.58    6.70
   2  -3  -1 1101.99   31.50
  -2   3  -1 1041.70   31.70
  -2  -3   1 1050.09   31.10
   2  -3  -1 1057.29   32.10
   2   3   1 1092.69   32.60
  -2  -3   1 1081.29   31.10
  -2  -3   1 1062.99   32.70
   2  -3  -1 1062.69   32.20
  -2   3  -1 1078.79   31.60
  -2   3  -1  991.60   31.90
  -2   3  -1 1061.29   32.60
  -2  -3  -1 1085.89   31.80
   2  -3   1 1077.59   32.00
   2   3  -1 1082.49   33.20
   2  -3   1 1041.50   32.00
  -2  -3  -1 1064.39   30.40
   2   3  -1 1050.39   30.80
  -2   3   1 1025.00   31.80
  -2   3   1 1088.09   32.60
   2   3  -1 1120.69   30.60
   2   3  -1 1054.09   30.90
  -2  -3  -1 1028.30   32.10
  -2   3   1 1037.90   30.90
  -2  -3   2  379.76   14.20
  -2   3  -2  404.46   14.20
   2  -3  -2  373.76   13.50
   2  -3  -2  386.16   12.90
   2  -3  -2  377.56   13.60
  -2  -3   2  401.86   12.90
   2   3   2  387.16   13.80
  -2   3  -2  404.86   13.30
  -2  -3   2  385.36   13.00
  -2   3  -2  383.16   13.20
  -2  -3  -2  391.16   13.40
   2   3  -2  378.26   14.60
  -2  -3  -2  405.96   13.60
  -2   3   2  399.46   14.00
   2   3  -2  390.86   12.30
  -2  -3  -2  402.66   12.30
   2   3  -2  389.76   12.60
   2  -3   2  407.16   14.30
  -2   3   2  379.46   12.60
   2  -3   2  384.06   13.50
  -2  -3  -2  397.46   14.00
  -2   3  -3  408.86   14.00
   2  -3  -3  405.56   14.40
  -2   3  -3  408.06   14.10
   2   3   3  401.46   12.10
  -2   3  -3  409.16   14.70
  -2  -3   3  388.76   14.80
  -2  -3   3  400.96   13.90
   2  -3  -3  390.96   14.00
   2   3   3  390.96   14.00
  -2  -3   3  419.36   13.30
   2  -3  -3  402.16   13.60
   2  -3   3  402.26   15.10
   2  -3   3  394.26   14.10
   2   3  -3  424.26   13.70
  -2  -3  -3  405.16   13.10
   2   3  -3  408.66   12.70
   2  -3   3  387.86   13.90
  -2   3   3  404.56   14.50
  -2  -3  -3  379.76   14.70
  -2  -3  -3  380.76   13.50
  -2   3   3  396.56   13.20
  -2   3  -4   59.29    4.30
   2   3   4   62.69    4.30
  -2   3  -4   59.89    4.20
  -2  -3   4   62.99    3.50
   2  -3  -4   58.89    4.10
  -2  -3   4   57.89    4.20
   2  -3  -4   58.69    4.50
   2  -3  -4   56.89    4.10
  -2  -3   4   64.19    4.70
   2  -3   4   62.39    4.10
   2  -3   4   55.69    4.30
  -2  -3  -4   56.09    3.70
   2   3  -4   60.09    3.20
   2   3  -4   56.39    4.00
  -2   3   4   67.99    4.80
   2  -3   4   67.89    4.90
  -2  -3  -4   64.19    4.00
  -2   3  -5   54.89    4.50
  -2  -3   5   48.50    4.30
  -2   3  -5   50.49    4.20
   2  -3  -5   48.90    5.90
  -2  -3   5   49.90    4.20
   2   3   5   54.59    4.10
  -2  -3   5   51.99    3.40
   2  -3  -5   45.40    3.90
  -2  -3   5   51.19    4.50
   2  -3  -5   59.09    4.50
   2  -3   5   56.49    4.00
   2  -3   5   58.49    4.50
  -2   3   5   53.29    4.50
   2  -3   5   56.49    3.90
   2  -3   5   49.00    4.40
   2   3  -5   53.19    4.30
   2   3  -5   53.59    3.20
  -2  -3  -5   50.79    4.10
  -2  -3  -5   49.60    3.60
  -2  -3   6   11.60    3.30
  -2  -3   6   12.90    2.40
   2   3   6   10.60    2.40
  -2  -3   6    8.10    2.10
  -2   3  -6    7.20    2.40
   2  -3  -6    8.90    2.70
   2  -3  -6   15.30    3.40
   2   3  -6   10.00    1.80
   2  -3   6   15.60    3.10
  -2  -3  -6   13.60    3.10
  -2  -3  -6   15.40    2.50
   2   3  -6   14.60    3.20
  -2  -3  -6   10.50    2.70
  -2   3   6   14.70    3.10
   2  -3   6    8.80    2.70
  -2   3  -7   23.90    4.60
   2  -3  -7   20.20    4.00
   2   3   7   18.90    3.00
   2  -3  -7   19.90    4.10
  -2  -3   7   19.80    4.20
   2  -3   7   21.40    2.80
   2  -3   7   24.00    4.10
   2  -3   7   19.40    3.30
  -2  -3  -7   17.60    3.70
   2   3  -7   20.70    3.90
  -2  -3  -7   17.80    3.70
   2  -3  -8   11.00    3.70
  -2  -3   8    5.50    2.70
  -2   3  -8    7.70    3.20
   2   3   8   13.30    2.30
   2  -3  -8   12.10    3.70
   2   3  -8    5.60    3.00
   2  -3   8   10.20    3.30
   2  -3   8    9.70    2.10
  -2  -3  -8    7.20    3.00
  -2  -3  -8    7.30    3.40
  -2   3   8   12.80    3.00
  -2   3  -9   87.79    7.50
   2  -3  -9   86.59    7.30
   2  -3  -9  105.19    7.70
  -2  -3   9   85.89    6.00
  -2   3   9   91.59    6.10
  -2  -3  -9   93.79    7.70
   2   3  -9   74.29    4.60
   2   3  -9   79.39    7.40
  -2  -3  -9   84.49    7.30
   2  -3 -10    6.70    3.10
   2  -3 -10    4.30    3.00
  -2  -3 -10    1.80    2.40
  -2  -3 -10   18.20    3.90
   2  -4   0  664.33   21.80
   2  -4   0  688.33   21.80
  -2   4   0  635.34   20.40
  -2   4   0  687.13   22.70
  -2  -4   0  654.33   20.80
   2   4   0  667.73   22.80
  -2   4   0  673.73   20.70
  -2  -4   0  676.23   21.10
  -2   4   0  641.94   21.30
  -2  -4   1   26.80    3.70
  -2   4  -1   20.70    3.40
   2  -4  -1   22.30    2.50
   2   4   1   30.30    4.00
  -2  -4   1   23.70    2.20
  -2  -4   1   26.60    2.50
  -2   4  -1   25.30    2.50
   2  -4  -1   24.90    2.80
  -2   4  -1   24.00    2.40
   2  -4  -1   30.40    3.70
   2   4  -1   24.10    2.10
   2   4  -1   25.40    1.70
  -2  -4  -1   43.40    6.00
  -2  -4  -1   28.30    2.20
  -2  -4  -1   27.50    2.80
   2   4  -1   30.80    4.30
   2  -4   1   27.60    2.90
  -2   4   1   25.30    3.70
  -2   4   1   23.30    2.50
   2  -4  -2 2501.35   75.59
  -2  -4   2 2680.13   74.69
  -2   4  -2 2650.53   74.89
  -2   4  -2 2517.55   75.69
  -2  -4   2 2561.74   76.49
   2  -4  -2 2614.34   74.69
   2  -4  -2 2614.44   75.79
  -2  -4   2 2647.73   74.89
  -2   4  -2 2690.93   76.79
   2   4   2 2620.44   76.39
  -2   4  -2 2540.35   74.89
   2   4  -2 2396.16   74.59
  -2   4   2 2757.62   76.59
   2  -4   2 2614.44   75.89
  -2  -4  -2 2662.13   75.59
  -2  -4  -2 2614.94   73.79
   2   4  -2 2602.34   73.99
   2   4  -2 2598.04   77.29
   2   4  -2 2689.73   73.99
   2  -4   2 2500.75   76.59
  -2   4   2 2591.54   73.89
  -2   4  -3   38.30    3.10
  -2  -4   3   35.30    3.20
  -2  -4   3   38.20    3.80
   2  -4  -3   37.10    3.30
  -2   4  -3   33.90    3.20
   2  -4  -3   38.40    3.90
   2   4   3   37.90    4.00
   2  -4  -3   38.50    3.30
  -2  -4   3   31.30    3.30
  -2   4  -3   52.29    4.70
   2  -4   3   41.60    5.40
   2   4  -3   46.70    5.70
   2   4  -3   37.70    3.00
  -2  -4  -3   36.90    2.80
   2   4  -3   36.10    2.50
   2  -4   3   37.80    3.40
  -2  -4  -3   37.00    3.70
  -2   4   3   39.30    4.10
  -2  -4  -3   35.50    3.20
   2  -4  -4    0.40    1.50
   2  -4  -4   -0.80    1.60
  -2  -4   4    1.30    1.30
  -2  -4   4   -0.40    1.10
   2   4   4    1.10    1.90
  -2   4  -4    0.40    1.50
  -2   4  -4    2.60    2.40
  -2   4  -4    1.80    1.10
   2   4  -4    1.10    0.80
  -2  -4  -4    0.10    1.00
  -2  -4  -4    1.20    1.60
  -2   4   4    2.00    2.10
  -2  -4  -4    1.20    1.30
   2  -4   4    1.30    2.00
   2   4  -4    0.90    1.10
   2  -4   4    0.60    1.20
  -2   4  -5    9.50    2.80
  -2  -4   5    9.60    2.60
  -2  -4   5    9.60    2.10
  -2   4  -5    8.10    1.80
   2  -4  -5    8.80    2.70
  -2  -4   5   10.10    2.90
   2   4   5   11.80    2.90
   2  -4  -5    6.80    2.30
   2  -4   5    6.30    2.60
  -2  -4  -5    9.00    2.30
  -2   4   5    5.00    2.60
  -2  -4  -5    9.40    2.00
   2   4  -5    7.70    2.20
  -2  -4  -5    8.40    2.60
   2  -4   5    5.60    1.80
   2   4  -5    9.30    1.60
  -2  -4   6    3.30    1.20
  -2  -4   6   -0.80    2.10
  -2  -4   6    0.10    1.50
   2   4   6    0.50    1.90
   2  -4  -6    2.70    2.20
  -2   4  -6   -1.20    1.40
   2  -4  -6    1.80    2.30
  -2  -4  -6   -0.10    1.90
   2  -4   6    1.90    2.00
  -2  -4  -6    0.20    1.60
   2  -4   6   -0.10    1.70
  -2   4   6   -0.50    2.10
   2   4  -6   -1.10    1.60
   2   4  -6    5.30    1.20
   2  -4  -7  126.79    8.10
  -2   4  -7  120.79    8.00
   2   4   7  117.69    7.00
  -2  -4   7  121.99    5.90
   2  -4  -7  118.79    8.30
  -2  -4   7  130.09    8.80
  -2   4   7  132.99    8.20
   2  -4   7  123.99    7.50
   2   4  -7  114.09    7.50
   2  -4   7  127.49    7.60
  -2  -4  -7  130.29    8.70
   2   4  -7  124.19    5.50
  -2  -4  -7  133.69    7.90
   2   4   8   72.49    5.00
  -2  -4   8   72.49    6.90
   2  -4  -8   65.89    6.50
  -2   4   8   72.69    6.20
  -2  -4  -8   78.19    6.60
  -2  -4  -8   89.89    7.40
   2  -4   8   75.39    5.40
   2  -4   8   71.09    5.80
   2   4  -8   62.09    6.10
   2  -4  -9    1.70    2.50
  -2  -4   9    3.20    2.60
   2  -4  -9   -0.20    2.60
  -2   4  -9   -2.60    3.00
  -2  -4  -9    2.70    2.70
  -2  -4  -9    2.70    2.50
  -2   4   9    3.80    2.50
  -2  -5   0  162.48    7.50
  -2   5   0  158.68    8.90
  -2   5   0  156.58    6.60
  -2   5   0  165.38    8.20
   2  -5   0  151.18    7.80
  -2  -5   0  160.98    7.30
   2   5   0  142.69    8.80
   2  -5   0  155.28    7.80
   2   5   1  492.35   19.10
   2  -5  -1  492.45   17.60
  -2   5  -1  524.45   19.40
  -2   5  -1  497.55   16.70
   2  -5  -1  515.25   18.20
  -2  -5   1  519.95   17.30
  -2   5  -1  477.35   17.20
   2   5  -1  509.55   15.30
  -2  -5  -1  520.15   17.90
   2   5  -1  500.75   19.60
   2   5  -1  488.75   16.60
  -2   5   1  523.95   19.30
  -2  -5  -1  515.65   16.70
   2  -5   1  489.35   17.80
  -2  -5   2  142.69    7.00
  -2  -5   2  158.38    7.30
  -2   5  -2  148.19    8.80
   2  -5  -2  163.08    7.40
   2   5   2  141.69    8.40
   2  -5  -2  155.18    8.10
  -2   5  -2  142.89    7.00
   2   5  -2  145.09    6.40
  -2  -5  -2  158.88    6.70
   2   5  -2  149.69    9.20
   2  -5   2  169.58    8.30
   2   5  -2  147.49    6.10
  -2  -5  -2  158.08    8.00
  -2   5   2  162.08    9.00
  -2  -5   3  192.28    8.90
  -2   5  -3  189.58   10.40
   2   5   3  193.68   10.10
  -2   5  -3  187.88    8.60
  -2   5  -3  189.18    8.40
  -2  -5   3  194.18    9.20
   2  -5  -3  210.48    8.80
   2  -5  -3  207.58    9.90
   2   5  -3  185.28   12.40
  -2  -5  -3  193.18    9.50
   2   5  -3  198.38    8.00
   2   5  -3  197.38    7.70
  -2  -5  -3  206.38    8.10
   2  -5   3  201.38   10.50
  -2  -5   4   23.80    3.60
   2   5   4   27.00    4.50
   2  -5  -4   28.60    3.60
  -2   5  -4   23.00    4.60
  -2   5  -4   30.20    4.20
  -2  -5   4   29.10    3.80
   2  -5  -4   30.40    4.80
  -2  -5  -4   21.90    3.10
   2  -5   4   26.90    4.60
   2   5  -4   29.80    3.60
   2   5  -4   24.80    2.30
  -2   5   4   32.50    5.10
  -2  -5  -4   29.00    5.00
  -2  -5   5   26.30    4.20
  -2   5  -5   21.90    3.40
   2  -5  -5   24.10    3.80
   2  -5  -5   18.60    3.90
  -2  -5   5   23.70    3.10
   2  -5   5   23.30    4.10
   2   5  -5   21.90    2.10
  -2   5   5   30.10    4.80
  -2  -5  -5   21.80    3.40
  -2  -5  -5   26.30    4.80
  -2  -5   6   24.50    3.10
   2  -5  -6   17.50    4.00
   2   5   6   15.90    3.70
  -2  -5   6   21.20    4.30
  -2   5  -6   23.80    4.20
   2  -5  -6   19.30    3.70
  -2  -5  -6   15.70    3.20
   2   5  -6   22.90    3.70
   2   5  -6   24.00    2.10
  -2  -5  -6   21.70    4.40
  -2   5   6   24.90    4.70
   2  -5   6   22.80    4.10
   2   5   7   15.50    3.70
  -2   5  -7   11.70    3.30
   2  -5  -7   11.60    3.70
   2  -5  -7   18.30    4.10
  -2  -5   7   13.40    2.10
  -2  -5   7   15.90    4.20
   2  -5   7   16.40    3.40
   2  -5   7    8.90    3.30
   2   5  -7   13.60    3.60
  -2  -5  -7   13.40    3.30
  -2   5   7   12.60    3.80
  -2  -5  -7   13.60    6.20
  -2  -5   8    8.10    3.50
   2   5   8   11.00    2.80
   2  -5  -8    6.40    3.40
  -2   5  -8    5.60    3.70
   2  -5  -8    6.30    2.80
   2  -5   8   11.80    3.00
  -2  -5  -8    8.80    3.20
   2  -5   8    7.90    2.80
  -2  -5  -8    3.00    2.90
  -2   5   8    5.30    2.80
   2  -5  -9   60.29    7.90
  -2  -5   9   66.39    6.70
   2  -5  -9   51.59    6.90
  -2  -5  -9   51.19    5.80
  -2   5   9   57.79    6.10
  -2  -5  -9   55.49    7.60
  -2   6   0  202.58    8.00
   2  -6   0  206.18   10.10
   2   6   0  187.28   11.20
   2  -6   0  198.88   10.10
  -2  -6   0  213.48    9.60
  -2   6   0  207.18   11.40
   2  -6  -1   97.89    6.70
   2  -6  -1  108.79    6.70
  -2  -6   1   92.89    5.90
   2   6   1  106.49    8.00
  -2   6  -1   89.69    5.00
  -2   6  -1  102.89    7.70
  -2  -6  -1   88.49    6.20
  -2  -6  -1   96.69    5.80
   2   6  -1   99.99    7.90
   2  -6   1   87.99    6.30
  -2   6   1   94.79    4.70
  -2   6   1   94.79    7.60
  -2   6  -2 1160.78   36.00
   2   6   2 1221.58   39.60
  -2  -6   2 1233.98   37.20
   2  -6  -2 1190.98   37.10
   2  -6  -2 1184.58   38.20
  -2   6  -2 1200.48   40.00
  -2  -6  -2 1167.78   37.90
  -2  -6  -2 1181.08   36.10
   2   6  -2 1132.39   34.50
  -2   6   2 1130.09   34.90
   2  -6   2 1215.78   38.20
  -2   6   2 1246.28   39.80
   2   6  -2 1180.58   40.20
   2   6  -2 1096.49   35.60
   2  -6  -3  209.58    9.60
  -2  -6   3  202.58   10.10
  -2   6  -3  223.88    9.40
   2   6   3  238.08   11.90
  -2   6  -3  202.58   11.70
   2  -6  -3  215.98   11.00
   2   6  -3  203.48   12.20
  -2  -6  -3  217.68    9.20
   2   6  -3  205.98    8.50
   2  -6   3  226.88   11.60
   2   6  -3  202.58    8.30
  -2   6   3  211.68   11.70
  -2  -6  -3  229.58   11.10
   2   6   4    3.30    2.90
  -2   6  -4    3.90    1.80
  -2   6  -4    1.20    2.80
   2  -6  -4    0.50    1.80
  -2  -6   4    0.60    1.90
   2  -6  -4    5.20    2.60
   2   6  -4    4.40    1.20
  -2  -6  -4    1.60    1.80
  -2   6   4    0.20    2.80
  -2  -6  -4    3.50    2.30
   2  -6  -5    3.00    2.90
   2   6   5    4.20    2.90
  -2   6  -5    2.80    2.00
  -2  -6   5    4.70    1.80
  -2  -6   5    3.50    1.80
   2  -6  -5    3.50    2.20
  -2   6   5    4.20    3.00
   2  -6   5    6.00    2.90
  -2  -6  -5    1.90    2.00
   2   6  -5    4.40    1.90
  -2  -6  -5    1.20    2.60
   2  -6  -6   -0.40    1.90
  -2  -6   6   -2.90    1.90
   2   6   6    3.90    2.70
  -2  -6   6    1.30    1.40
  -2   6  -6    4.10    2.20
   2  -6  -6    0.90    2.70
   2   6  -6    1.20    1.70
  -2  -6  -6    1.70    2.50
  -2   6   6    1.60    2.90
   2  -6   6    1.80    2.30
  -2  -6  -6    0.50    2.60
   2  -6  -7   -0.80    2.70
   2   6   7    0.30    2.40
   2  -6  -7    4.80    3.10
  -2  -6   7    0.10    2.60
  -2   6  -7    1.60    2.70
  -2  -6   7    1.40    1.10
   2  -6   7    0.80    2.40
  -2   6   7    2.40    2.70
  -2  -6  -7    3.20    2.90
   2  -6   7   -0.20    1.50
  -2  -6  -7    0.40    2.20
   2  -6  -8   53.39    7.70
   2  -6  -8   32.00    5.40
   2   6   8   48.10    5.30
   2  -6   8   56.49    5.80
  -2   6   8   46.90    7.50
   2  -6   8   51.59    4.40
  -2  -6  -8   45.10    6.00
  -2  -6  -8   49.50    7.50
   2  -6  -9    7.80    4.00
  -2  -6  -9    8.00    4.10
  -2   7   0   28.00    2.30
  -2   7   0   24.00    5.40
  -2  -7   0   32.80    4.90
   2   7   0   31.40    6.00
   2  -7   0   29.90    4.80
  -2   7  -1  220.68   12.70
   2  -7  -1  203.68   10.90
   2  -7  -1  199.18   10.70
   2   7   1  194.68   12.20
  -2   7  -1  202.58    8.30
  -2  -7   1  208.98   10.20
   2   7  -1  199.58   12.50
  -2  -7  -1  221.18   10.30
  -2   7   1  222.58   12.70
   2  -7   1  199.08   10.60
  -2  -7  -1  197.18   10.30
   2   7   2   94.89    8.30
  -2   7  -2   99.89    8.70
  -2  -7   2   88.29    7.20
   2  -7  -2  102.49    6.90
  -2   7  -2   92.19    5.20
   2  -7  -2   99.49    7.40
  -2  -7  -2   89.59    6.10
  -2   7   2   94.79    4.80
  -2  -7  -2   96.59    7.10
   2  -7   2   99.59    7.40
  -2   7   2  105.89    8.60
   2   7  -2   84.29    8.30
   2  -7  -3   61.89    6.30
  -2   7  -3   67.99    7.40
   2   7   3   88.69    7.80
  -2  -7   3   69.99    6.20
  -2   7  -3   74.79    4.90
   2  -7  -3   76.49    5.90
   2   7  -3   73.49    7.80
  -2   7   3   73.39    7.50
   2  -7   3   71.69    6.90
  -2  -7  -3   81.99    5.60
  -2  -7  -3   71.59    6.60
  -2   7  -4   19.20    5.10
  -2  -7   4   28.00    4.70
   2  -7  -4   24.50    5.40
  -2   7  -4   22.80    3.50
   2   7   4   22.20    5.00
   2  -7  -4   22.70    4.10
  -2  -7  -4   27.70    4.10
   2   7  -4   23.70    2.60
  -2  -7  -4   33.70    5.90
  -2   7   4   28.80    5.80
   2  -7   4   23.20    5.20
  -2  -7   5   10.00    2.70
   2   7   5    5.00    3.40
   2  -7  -5    8.40    6.60
  -2   7  -5    5.20    2.10
  -2  -7  -5    8.70    6.60
  -2  -7  -5   10.00    2.90
  -2   7   5    9.60    4.10
   2  -7   5    5.70    3.00
   2  -7  -6    0.20    2.20
  -2  -7   6    4.50    1.50
   2   7   6    3.70    2.90
   2  -7  -6    1.50    2.90
  -2  -7  -6    1.20    2.20
  -2  -7  -6   -1.30    2.80
   2  -7   6    3.60    2.40
  -2   7   6    5.00    3.20
   2  -7  -7    5.80    3.50
   2   7   7    6.30    2.70
  -2  -7   7    7.20    3.60
   2  -7  -7    3.40    2.50
  -2   7   7    5.00    2.80
   2  -7   7    3.00    2.90
   2  -7   7    9.40    2.60
  -2  -7  -7    5.50    3.40
  -2  -7  -7    6.70    2.80
   2  -7  -8    6.80    4.50
   2   7   8   15.70    4.00
   2  -7  -8    3.00    2.40
  -2  -7   8   12.00    4.60
  -2  -7  -8    2.30    2.50
  -2   7   8    2.10    3.20
  -2  -7  -8    1.00    3.30
   2  -7   8   -0.80    3.30
   2   8   0  104.09    9.50
  -2   8   0   81.09    8.70
  -2  -8   0   90.89    7.00
   2  -8   0   67.69    6.60
   2  -8  -1   15.80    4.10
   2  -8  -1   11.10    3.40
  -2   8  -1   15.20    5.10
   2   8   1   21.50    5.90
  -2   8  -1   23.20    2.20
  -2  -8   1   14.00    3.60
  -2   8   1   19.90    5.90
  -2  -8  -1   24.40    4.20
  -2  -8  -1   14.00    3.70
   2  -8   1   17.70    4.30
   2   8  -1   24.20    6.10
  -2   8  -2  359.16   14.20
   2   8   2  401.76   19.60
   2  -8  -2  396.66   17.40
   2  -8  -2  403.86   17.90
  -2  -8   2  390.66   16.70
  -2   8  -2  418.46   20.10
   2  -8   2  416.26   17.90
  -2  -8  -2  398.06   17.30
  -2   8   2  419.66   19.70
  -2  -8  -2  408.06   16.70
   2   8  -2  388.56   20.00
   2  -8  -3   15.80    4.00
   2  -8  -3    8.90    3.90
  -2   8  -3   10.70    4.80
  -2  -8   3   11.60    3.90
   2   8   3    5.60    3.80
   2   8  -3   14.40    5.40
  -2  -8  -3    6.70    3.30
  -2  -8  -3    8.20    3.60
  -2   8   3   14.10    4.90
   2  -8   3   10.20    4.10
   2  -8  -4    1.30    2.30
  -2  -8   4    0.40    2.00
   2  -8  -4    3.40    3.50
  -2   8  -4    4.30    3.70
   2   8   4    2.40    3.60
  -2  -8  -4    1.00    2.00
   2  -8   4   -0.60    2.50
  -2  -8  -4   -0.10    2.60
  -2  -8   5    1.60    1.50
   2  -8  -5    4.40    2.40
   2  -8  -5    3.90    3.20
   2  -8   5    2.60    2.20
  -2   8   5   -5.10    2.80
  -2  -8  -5    2.40    3.20
  -2  -8  -5    0.60    1.90
   2  -8  -6    4.90    3.50
   2  -8  -6    3.00    2.50
   2   8   6    3.90    3.00
  -2   8   6   -5.40    2.50
  -2  -8  -6   -1.10    1.60
   2  -8   6    7.00    2.60
  -2  -8  -6   -3.60    2.30
  -2  -8   7   51.19    7.30
   2   8   7   40.50    6.30
   2  -8  -7   26.90    5.10
   2  -8  -7   25.90    6.50
  -2  -8  -7   32.70    5.20
  -2   8   7   42.40    6.90
   2  -8   7   35.50    5.90
  -2  -8  -7   34.90    6.90
   2   9   0   46.60    8.20
  -2   9   0   43.20    8.10
   2  -9   0   60.29    8.00
  -2  -9   0   41.30    5.90
  -2   9  -1   58.79    9.20
   2  -9  -1   58.59    8.60
   2   9   1   51.39    8.90
  -2  -9   1   61.49    6.20
  -2   9   1   58.09    9.00
  -2  -9  -1   56.49    6.40
   2   9  -1   60.99    9.10
   2  -9   1   63.89    6.80
   2   9   2   30.20    7.20
   2  -9  -2   29.50    5.80
  -2   9  -2   23.10    6.50
   2  -9  -2   12.40    3.70
  -2  -9   2   31.50    5.50
  -2  -9  -2   21.20    4.70
   2  -9   2   12.80    4.20
   2   9  -2   28.00    7.00
  -2  -9  -2   26.30    4.80
  -2   9   2   26.00    6.40
  -2  -9   3   31.30    5.70
   2  -9  -3   27.20    5.40
   2   9   3   39.10    7.60
  -2   9  -3   31.20    6.80
   2  -9  -3   26.30    5.50
   2  -9   3   35.40    6.70
  -2  -9  -3   25.60    4.90
  -2  -9  -3   37.40    6.50
   2   9  -3   25.00    6.60
  -2   9   3   32.90    7.20
   2  -9  -4    6.60    3.10
  -2   9  -4    8.00    4.40
  -2  -9   4    5.00    2.70
   2   9   4    8.70    4.50
   2  -9  -4    7.20    3.70
  -2   9   4   -1.90    3.40
  -2  -9  -4    8.80    4.00
  -2  -9  -4   -0.20    2.40
   2  -9   4    6.00    3.10
   2   9   5    1.20    3.10
   2  -9  -5    1.00    2.90
   2  -9  -5   -3.00    1.90
  -2  -9  -5    2.90    2.50
   2  -9   5   14.70    3.60
  -2   9   5    4.10    3.70
  -2  -9  -5    4.70    3.30
   2  -9  -6    7.70    4.10
   2  -9  -6   10.10    3.40
   2   9   6   17.60    4.50
  -2  -9  -6    8.00    4.30
  -2   9   6   12.60    4.70
  -2  -9  -6    7.40    3.00
  -2 -10   0   19.70    4.90
   2  10   0   17.60    6.40
  -2  10   0   19.40    5.90
   2 -10   0   15.00    4.30
   2 -10  -1    8.80    3.80
  -2 -10   1    9.40    3.30
   2  10   1    4.60    4.40
  -2  10  -1    9.10    5.10
  -2 -10  -1    9.90    3.40
   2 -10   1   11.30    4.00
   2  10  -1   15.60    6.10
  -2  10   1   13.90    5.20
   2  10   2  159.58   12.80
   2 -10  -2  131.19   10.30
  -2  10  -2  115.49   11.40
  -2 -10   2  134.39   11.00
   2 -10   2  135.99   10.40
   2  10  -2  141.89   12.50
  -2  10   2  132.19   11.80
  -2 -10  -2  124.29    9.70
  -2 -10   3   50.49    5.50
   2  10   3   50.69    9.20
  -2  10  -3   52.49    9.10
   2 -10  -3   38.30    6.30
   2 -10  -3   32.40    6.20
  -2 -10  -3   42.50    6.30
   2 -10   3   60.39    6.70
  -2  10   3   41.20    8.00
  -2 -10  -3   42.30    7.20
   2  10  -3   60.29    9.70
   2 -10  -4    5.60    3.20
   2 -10  -4    1.80    3.20
  -2  10  -4   -2.30    3.50
   2  10   4    8.10    4.50
  -2  10   4    0.00    3.00
   2 -10   4    7.00    2.70
  -2 -10  -4    1.40    2.60
   2  11   0    7.50    5.00
   2 -11   0    4.90    2.70
  -2 -11   0    5.70    2.40
  -2  11   0    2.20    3.80
  -2  11  -1   25.40    7.10
   2 -11  -1   24.50    6.20
   2  11   1   29.80    6.60
  -2 -11   1   24.00    4.60
  -2 -11  -1   29.00    5.50
   2  11  -1   33.60    7.60
   2 -11   1   30.70    6.00
  -2  11   1   19.70    6.10
  -3   0   0    0.70    0.90
   3   0   0   -0.90    0.70
   3   0   0   -0.30    0.80
  -3   0   0    0.60    0.80
   3   0   0    0.10    0.50
  -3   0   0    0.80    0.50
   3   0  -1  958.60   29.70
   3   0   1 1019.30   28.40
   3   0  -1 1027.80   28.90
   3   0   1 1076.29   29.80
  -3   0   1  962.50   29.80
  -3   0  -1 1003.30   29.60
  -3   0   1 1016.90   28.60
  -3   0   1 1017.20   29.00
  -3   0  -1 1025.20   28.40
   3   0  -1 1022.00   28.60
   3   0  -2   36.60    1.80
   3   0  -2   30.90    2.60
  -3   0  -2   32.30    2.10
   3   0  -2   33.40    2.20
  -3   0  -2   35.70    2.60
  -3   0   2   35.10    2.30
  -3   0   2   35.10    2.90
   3   0   2   35.10    2.70
   3   0   3    1.70    0.30
  -3   0   3    1.20    1.30
   3   0  -3    4.30    1.50
   3   0  -3    1.10    1.10
  -3   0   3    2.50    1.10
  -3   0  -3    2.20    1.30
   3   0  -3    1.80    1.00
   3   0   3    0.60    1.20
   3   0   3    0.80    0.80
  -3   0  -3    1.30    0.80
   3   0  -3    0.60    0.70
   3   0   4  369.66   11.20
  -3   0  -4  393.06   13.30
  -3   0  -4  360.06   13.70
   3   0  -4  370.46   12.70
   3   0   4  372.36   13.40
   3   0  -4  353.96   13.10
  -3   0   4  401.06   13.70
   3   0   4  382.16   13.80
  -3   0   4  371.76   13.20
   3   0   4  376.86   11.00
   3   0  -4  387.36   13.30
  -3   0  -5 1690.33   53.89
   3   0  -5 1837.22   53.19
   3   0   5 1815.22   53.79
   3   0   5 1830.72   50.19
  -3   0  -5 1803.22   53.09
  -3   0   5 1721.23   52.99
   3   0  -5 1747.93   52.59
   3   0  -5 1729.73   52.59
   3   0   5 1763.12   50.39
  -3   0   5 1914.01   53.29
  -3   0  -6  355.36   15.30
   3   0   6  330.67   10.50
   3   0  -6  348.37   12.40
   3   0  -6  338.57   13.60
   3   0   6  344.07   10.40
   3   0  -6  349.47   13.40
  -3   0   6  351.96   13.30
  -3   0  -7  345.87   14.20
   3   0  -7  327.47   13.90
   3   0  -7  334.67   12.50
   3   0   7  318.07   14.20
  -3   0   7  326.37   13.00
   3   0  -8   34.50    4.20
  -3   0  -8   18.10    4.00
   3   0  -8   24.80    4.60
  -3   0   8   30.90    4.60
   3   0  -9   36.60    4.10
  -3   0  -9   43.10    6.50
  -3   0   9   36.20    3.70
   3   0  -9   48.40    6.40
  -3   0 -10   11.30    3.20
   3   0 -10    8.00    2.80
   3   1   0    0.40    0.60
   3  -1   0    0.90    0.70
  -3  -1   0   -0.40    0.60
  -3   1   0    0.50    0.70
  -3   1   0    0.60    0.70
   3  -1   0    0.30    0.70
  -3   1   0    0.60    0.80
   3  -1   0    0.00    0.80
  -3  -1   0    0.10    1.00
   3   1   1  314.97   10.40
  -3  -1   1  330.57    9.80
  -3   1  -1  290.97   11.40
   3   1   1  317.77   10.00
  -3   1  -1  328.77    9.90
   3  -1  -1  319.27   10.10
   3  -1  -1  319.37   10.30
   3  -1   1  305.17   11.10
   3   1  -1  317.17    9.60
  -3   1   1  324.77   10.10
   3  -1   1  326.67    9.80
  -3  -1  -1  320.07    9.90
  -3   1   1  327.37   10.40
  -3  -1  -1  315.97   10.90
   3  -1  -2 1268.27   36.20
  -3  -1   2 1284.87   36.10
  -3   1  -2 1227.18   37.40
   3  -1  -2 1267.37   36.50
   3   1   2 1235.68   36.80
   3   1   2 1229.98   35.40
  -3  -1   2 1287.37   36.60
  -3   1  -2 1248.38   35.50
   3  -1  -2 1240.28   36.00
   3   1  -2 1165.08   35.00
  -3   1   2 1247.98   36.50
  -3  -1  -2 1249.18   35.20
  -3  -1  -2 1262.57   35.60
   3   1  -2 1215.58   35.90
   3  -1   2 1250.67   35.30
  -3   1   2 1228.08   36.10
  -3  -1  -2 1276.07   36.90
   3  -1   2 1245.38   37.20
  -3   1  -3  575.84   18.70
   3  -1  -3  599.34   18.30
   3   1   3  606.14   19.40
  -3  -1   3  592.44   18.70
  -3  -1   3  595.64   19.20
   3   1   3  569.94   17.80
   3  -1  -3  585.74   18.60
   3   1   3  583.84   17.30
  -3   1  -3  600.54   19.70
   3  -1  -3  582.84   19.20
   3  -1  -3  613.04   18.70
   3   1  -3  594.84   17.80
  -3   1   3  572.04   18.50
   3  -1   3  588.74   17.30
  -3  -1  -3  581.64   18.20
  -3  -1  -3  569.64   19.30
  -3  -1  -3  589.24   17.30
  -3   1   3  599.64   18.80
   3   1  -3  592.94   18.50
   3  -1   3  594.44   18.70
   3  -1   3  576.04   19.20
   3   1   4 1089.79   33.40
   3   1   4 1043.70   31.80
   3  -1  -4 1086.59   32.70
  -3   1  -4 1021.60   33.40
  -3  -1   4 1108.69   33.90
   3   1   4 1059.29   30.70
  -3   1  -4 1094.49   32.80
   3  -1  -4 1089.19   32.60
   3  -1  -4 1089.69   32.10
  -3  -1   4 1059.49   32.70
   3  -1  -4 1049.30   33.50
   3  -1   4 1056.79   32.60
  -3   1   4 1081.89   32.60
   3  -1   4 1078.19   33.20
  -3  -1  -4 1061.99   30.90
  -3  -1  -4 1037.40   33.40
   3   1  -4 1078.79   32.50
   3  -1   4 1083.39   31.20
   3  -1   4 1061.49   30.90
  -3  -1  -4 1067.99   32.30
   3   1  -4 1090.49   31.90
  -3   1   4 1039.80   32.40
   3  -1  -5    2.80    1.60
   3  -1  -5    0.80    1.50
  -3   1  -5    0.60    1.10
  -3  -1   5    0.60    1.00
  -3   1  -5   -0.60    1.20
   3   1   5   -1.00    1.50
   3  -1  -5   -0.20    1.20
  -3  -1   5    0.70    1.90
   3  -1  -5    0.90    1.10
   3   1   5    1.10    0.80
   3   1  -5    0.80    1.60
  -3  -1  -5    0.20    1.40
   3   1  -5    0.90    1.20
   3  -1   5    1.40    0.80
  -3   1   5    3.40    1.80
  -3  -1  -5    0.30    0.50
   3  -1   5    0.70    1.80
   3  -1   5    1.10    0.80
  -3   1   5    0.10    0.70
   3  -1  -6  517.95   18.90
   3  -1  -6  562.44   18.60
   3  -1  -6  563.24   19.50
  -3   1  -6  557.54   19.70
   3   1   6  552.54   16.40
  -3  -1   6  512.95   19.50
  -3  -1   6  571.54   19.70
   3  -1   6  485.65   17.10
   3   1  -6  516.65   18.90
  -3  -1  -6  568.34   19.40
  -3   1   6  555.84   18.70
   3  -1   6  538.95   19.70
   3   1  -6  566.64   19.40
  -3  -1   7   18.10    3.40
   3  -1  -7   18.50    3.40
   3  -1  -7   12.10    3.00
  -3   1  -7   18.00    4.00
  -3  -1  -7   17.00    3.70
   3  -1   7   15.90    1.10
   3   1  -7   10.00    2.80
   3  -1   7   13.30    3.60
   3  -1   7   13.70    1.20
   3   1  -7   16.90    3.00
  -3   1   7   15.80    3.10
   3  -1  -8   40.40    5.00
   3  -1  -8   34.50    5.20
  -3  -1   8   38.20    5.40
  -3   1  -8   36.80    5.30
  -3  -1  -8   35.40    5.40
   3   1  -8   34.70    3.50
   3   1  -8   34.30    4.80
   3  -1  -9   -1.90    1.70
  -3  -1   9    2.20    1.70
  -3   1  -9    0.90    2.20
   3  -1  -9    2.20    2.80
  -3  -1  -9    5.20    3.00
   3   1  -9    4.20    2.00
  -3   1   9    1.60    1.70
   3   1  -9    0.50    2.20
   3  -1 -10    8.00    3.50
  -3   1 -10    2.60    2.90
   3  -1 -10    6.70    2.60
  -3  -1 -10    5.90    2.70
   3   1 -10    7.40    3.20
   3   1 -10    6.80    3.10
  -3  -1 -10   13.30    4.30
  -3   2   0    0.80    0.80
   3  -2   0    0.90    1.00
   3  -2   0    0.00    1.00
  -3   2   0   -0.30    0.70
  -3  -2   0    0.50    1.10
   3  -2   0    0.90    0.80
  -3  -2   0   -0.20    0.40
  -3   2   0    0.10    1.10
   3   2   0   -1.30    1.10
  -3   2  -1 2740.73   76.89
  -3   2  -1 2682.63   76.89
  -3  -2   1 2721.53   77.59
  -3   2  -1 2771.82   77.99
  -3  -2  -1 2671.83   76.89
   3  -2   1 2708.63   76.59
  -3  -2  -1 2697.93   76.69
  -3   2   1 2657.63   76.99
  -3   2  -2  743.93   22.60
  -3   2  -2  743.63   23.20
  -3  -2   2  724.03   22.20
   3   2   2  720.13   22.40
  -3   2  -2  730.43   22.50
  -3  -2   2  760.22   21.20
   3  -2  -2  704.73   22.60
   3  -2  -2  733.33   22.60
  -3  -2   2  725.43   23.50
   3  -2  -2  761.42   22.40
  -3   2   2  751.62   22.20
  -3  -2  -2  752.22   21.40
   3   2  -2  746.33   20.90
  -3  -2  -2  713.13   23.00
  -3   2   2  751.62   22.90
  -3  -2  -2  712.33   22.00
   3  -2   2  721.63   22.10
  -3   2   2  738.53   22.40
   3  -2   2  738.13   24.00
   3  -2  -3   56.89    3.50
  -3  -2   3   61.99    4.30
   3   2   3   56.49    3.30
  -3   2  -3   55.69    3.70
  -3   2  -3   58.19    3.60
  -3   2  -3   53.59    4.10
  -3  -2   3   51.39    3.40
   3  -2  -3   47.50    3.40
  -3  -2   3   55.39    2.50
  -3  -2   3   56.99    3.80
   3   2   3   54.19    2.50
   3  -2  -3   52.59    3.60
  -3  -2  -3   57.09    3.10
   3   2  -3   60.29    3.50
  -3  -2  -3   54.09    3.00
   3  -2   3   54.39    3.20
  -3   2   3   56.19    3.30
   3  -2   3   59.09    4.30
  -3   2   3   58.49    3.90
  -3  -2  -3   56.89    4.10
   3   2  -3   56.89    2.50
  -3  -2   4   34.80    2.30
  -3   2  -4   30.50    4.10
   3  -2  -4   32.10    3.10
   3  -2  -4   34.40    3.20
   3  -2  -4   35.10    3.20
  -3   2  -4   32.20    3.20
   3   2   4   36.30    2.60
   3  -2  -4   29.90    3.00
  -3  -2   4   34.30    3.40
   3   2   4   32.10    2.20
  -3  -2   4   33.00    3.40
  -3  -2   4   35.80    3.20
   3  -2   4   32.10    3.50
  -3  -2  -4   37.20    3.60
  -3  -2  -4   30.70    2.30
   3  -2   4   33.30    3.10
  -3   2   4   31.30    3.20
  -3  -2  -4   34.80    2.90
   3  -2   4   34.40    2.50
  -3   2   4   32.60    2.80
   3   2  -4   37.20    3.60
  -3  -2   5  667.53   23.30
  -3   2  -5  683.73   22.80
  -3  -2   5  703.23   23.50
   3  -2  -5  672.13   22.30
  -3   2  -5  617.84   23.70
   3  -2  -5  702.53   22.60
   3  -2  -5  662.13   23.30
   3   2   5  702.43   20.90
  -3  -2   5  647.84   22.60
   3  -2   5  662.23   22.70
  -3  -2  -5  690.73   22.20
   3  -2   5  683.53   21.20
   3  -2   5  665.33   20.90
   3   2  -5  715.03   22.60
   3  -2   5  688.43   23.00
  -3  -2  -5  628.24   21.10
  -3   2   5  677.33   22.30
   3   2  -5  663.83   21.40
  -3   2  -6  100.79    6.50
  -3  -2   6   91.69    6.90
   3  -2  -6   91.19    5.90
   3  -2  -6   92.49    6.20
  -3  -2   6   92.89    8.60
   3   2   6   86.69    4.40
  -3  -2  -6   84.39    5.80
   3  -2   6   89.59    4.40
  -3  -2  -6   88.59    4.20
   3   2  -6   86.89    5.20
   3   2  -6   94.89    6.10
   3  -2   6   85.29    6.10
   3  -2   6   96.69    4.80
  -3   2   6   83.39    5.70
   3   2   7  336.37   11.30
  -3   2  -7  361.96   15.00
  -3  -2   7  348.57   14.80
   3  -2  -7  338.27   14.00
   3  -2  -7  348.27   14.60
  -3  -2  -7  346.87   14.30
  -3   2   7  343.97   13.80
   3   2  -7  349.87   14.40
   3  -2   7  336.67   11.30
   3  -2   7  337.47   11.20
   3  -2   7  346.87   14.50
  -3   2  -8  139.99    9.00
   3  -2  -8  115.89    8.20
  -3  -2   8  117.29    7.50
   3  -2  -8  125.09    7.80
   3   2  -8  118.79    8.10
   3   2  -8  125.59    6.00
  -3  -2  -8  125.59    8.20
   3  -2   8  135.99    8.20
  -3   2   8  131.19    7.40
  -3   2  -9   85.39    7.30
   3  -2  -9   85.49    7.40
  -3  -2   9   85.59    5.80
   3  -2  -9   82.29    6.60
   3   2  -9   72.19    6.80
  -3  -2  -9   76.19    7.00
  -3  -2  -9   76.49    6.80
  -3   2   9   80.69    5.70
   3  -2 -10   19.20    4.50
  -3   2 -10    7.00    3.10
   3  -2 -10   15.10    3.50
  -3  -2 -10    8.90    3.10
  -3  -2 -10   10.20    3.30
   3   3   0    0.20    1.40
   3  -3   0   -0.60    1.00
   3  -3   0    0.00    1.10
  -3  -3   0    0.10    0.70
  -3   3   0   -0.90    0.70
  -3   3   0   -0.70    1.40
  -3  -3   0    0.50    0.70
   3  -3   0   -0.30    0.80
  -3  -3   0   -0.10    1.10
  -3   3   0    1.30    0.90
  -3   3  -1  247.58    9.70
  -3   3  -1  248.98    9.10
  -3  -3   1  255.37    8.40
  -3   3  -1  242.98    9.50
  -3   3  -1  234.78    9.10
   3  -3  -1  248.68    9.50
   3  -3  -1  252.47    9.00
   3   3   1  246.18    9.80
   3  -3  -1  255.17    9.50
  -3  -3   1  251.17    8.40
  -3  -3   1  245.18   10.00
  -3   3   1  246.48    8.60
   3   3  -1  253.27    7.80
  -3   3   1  243.68    9.20
   3   3  -1  244.98    7.60
  -3   3   1  251.37    9.80
  -3  -3  -1  230.18    9.30
   3  -3   1  241.48    9.30
  -3  -3  -1  248.68    7.60
  -3  -3  -1  241.48    8.90
   3   3  -1  241.28    8.10
  -3  -3  -1  237.28    9.20
   3   3  -1  230.68   10.10
   3  -3   1  246.78    9.50
   3   3   2  678.23   21.50
  -3   3  -2  662.43   21.20
  -3  -3   2  678.33   20.60
   3  -3  -2  679.23   20.80
  -3   3  -2  661.53   21.50
  -3   3  -2  655.53   22.00
   3  -3  -2  637.64   21.30
  -3  -3   2  659.53   20.50
  -3  -3   2  635.64   22.10
   3  -3  -2  659.13   21.30
   3  -3   2  633.54   20.90
  -3  -3  -2  637.24   20.90
   3   3  -2  672.23   19.50
  -3  -3  -2  682.33   19.60
   3  -3   2  681.33   22.30
  -3   3   2  641.54   21.00
  -3  -3  -2  668.53   21.70
   3   3  -2  673.53   20.00
  -3   3   2  691.73   21.80
  -3   3   2  649.83   20.30
   3   3  -2  679.53   22.60
  -3   3  -3  388.86   13.80
  -3  -3   3  377.56   13.30
  -3   3  -3  384.56   13.90
   3  -3  -3  394.76   13.90
  -3  -3   3  391.36   12.10
   3   3   3  388.26   13.60
   3  -3  -3  363.76   13.10
  -3   3  -3  379.76   13.50
   3  -3   3  370.36   14.80
  -3  -3  -3  367.46   14.20
  -3  -3  -3  378.76   12.40
  -3   3   3  376.66   12.80
   3  -3   3  361.66   13.10
   3   3  -3  394.16   11.70
  -3  -3  -3  354.66   12.80
  -3   3   3  378.96   13.90
   3   3   4  794.42   24.70
   3  -3  -4  730.73   24.90
  -3  -3   4  756.02   26.10
  -3   3  -4  795.12   25.40
  -3  -3   4  765.92   25.20
   3  -3  -4  802.12   25.50
  -3  -3   4  789.52   23.10
  -3   3  -4  743.83   26.60
  -3  -3   4  758.92   25.10
   3  -3  -4  811.82   25.00
   3  -3   4  752.32   24.40
  -3   3   4  786.72   25.50
   3   3  -4  803.72   23.20
  -3  -3  -4  727.93   23.90
   3  -3   4  812.82   26.30
  -3  -3  -4  774.62   24.10
   3   3  -4  781.82   24.60
  -3  -3   5    0.90    1.10
   3   3   5    1.40    1.50
   3  -3  -5   -0.20    1.80
  -3  -3   5    2.50    1.30
  -3  -3   5    1.90    2.20
  -3   3  -5    3.40    2.00
  -3   3  -5    1.10    1.50
   3  -3   5    0.70    1.90
   3   3  -5    3.20    1.10
  -3  -3  -5    1.50    1.50
  -3  -3  -5    5.30    1.40
   3   3  -5    0.50    1.50
   3  -3   5    1.80    1.00
  -3   3   5    1.30    1.90
   3   3   6  436.46   14.70
  -3   3  -6  411.76   16.20
  -3  -3   6  424.96   17.00
   3  -3  -6  433.86   16.30
   3  -3  -6  449.66   16.30
   3  -3   6  377.86   14.10
   3   3  -6  385.66   13.40
  -3  -3  -6  414.96   15.50
   3   3  -6  418.56   15.80
   3  -3   6  432.46   16.30
  -3  -3  -6  366.46   14.50
  -3   3   6  417.46   15.90
   3  -3   6  409.36   14.90
   3   3   7   11.30    2.30
  -3   3  -7   10.60    3.30
  -3  -3   7    8.10    3.50
   3  -3  -7    5.80    2.80
   3  -3  -7    6.40    2.60
  -3  -3  -7   15.10    1.60
   3  -3   7   10.60    2.30
   3   3  -7   11.60    1.80
  -3   3   7   12.70    3.30
   3  -3   7   12.80    2.00
   3  -3   7   10.10    3.10
   3   3  -7   11.40    3.20
  -3  -3  -7    7.80    2.90
   3  -3  -8   29.40    5.00
   3  -3  -8   29.00    5.00
  -3   3  -8   35.70    5.40
   3   3   8   29.20    2.30
  -3  -3   8   31.80    5.00
  -3  -3  -8   21.30    4.30
   3  -3   8   24.70    4.60
   3   3  -8   29.70    4.70
  -3  -3  -8   31.50    5.90
   3  -3   8   26.10    2.30
   3   3  -8   25.90    2.50
  -3   3   8   31.70    4.70
   3  -3  -9    3.30    2.60
  -3   3  -9    2.40    3.00
  -3  -3   9   -1.70    2.00
   3  -3  -9    3.50    2.50
  -3  -3  -9    4.00    2.80
  -3  -3  -9    2.80    2.50
   3  -3   9    6.50    2.60
   3   3  -9    0.80    4.00
  -3   3   9    4.00    2.50
   3  -3 -10    8.30    3.60
   3  -3 -10    9.70    3.30
  -3  -3 -10    8.00    3.60
  -3  -3 -10    3.60    2.90
  -3   4   0   -0.20    0.70
  -3  -4   0    0.10    1.00
   3  -4   0    0.00    1.00
   3   4   0   -1.50    1.70
  -3   4   0    0.80    1.40
  -3  -4   0    0.40    0.90
  -3   4   0   -0.10    1.60
   3  -4   0    1.00    1.40
  -3  -4   0   -0.30    1.10
   3  -4   0    1.70    1.20
  -3   4  -1  382.26   14.00
  -3   4  -1  408.76   15.40
  -3  -4   1  402.26   15.30
  -3   4  -1  379.96   14.00
  -3  -4   1  405.76   13.50
  -3   4  -1  424.86   14.00
   3  -4  -1  431.76   14.90
   3  -4  -1  419.06   14.20
  -3  -4   1  418.96   13.40
   3  -4  -1  401.86   14.70
   3   4   1  412.56   15.40
  -3  -4  -1  408.66   14.20
  -3   4   1  416.66   15.30
   3   4  -1  406.26   12.10
   3   4  -1  392.26   12.10
  -3  -4  -1  412.76   12.80
  -3   4   1  390.06   14.10
  -3   4   1  388.06   14.20
   3   4  -1  391.06   15.70
   3  -4   1  424.06   14.80
  -3  -4   2    6.60    1.60
   3  -4  -2    8.70    2.20
  -3   4  -2    8.60    2.70
   3  -4  -2    9.00    2.30
   3   4   2   11.60    2.70
  -3   4  -2    8.90    2.10
   3  -4  -2    6.20    1.70
  -3  -4   2    8.40    1.90
  -3  -4   2    5.30    2.10
  -3   4  -2    9.40    2.50
  -3   4  -2   10.00    2.20
   3   4  -2    8.20    1.70
  -3   4   2    6.50    2.30
  -3   4   2    7.80    1.60
  -3  -4  -2    8.50    2.30
  -3  -4  -2   10.50    1.60
   3   4  -2   10.80    1.60
   3  -4   2    6.90    2.20
  -3   4   2   14.40    2.60
   3   4  -2    5.80    2.90
  -3  -4  -2    6.20    1.70
   3  -4   2    6.80    2.20
   3   4  -2   12.80    1.70
   3  -4  -3    1.50    1.50
  -3   4  -3    2.90    1.30
  -3  -4   3    2.80    1.60
  -3  -4   3    1.40    1.30
  -3   4  -3   -0.80    1.10
  -3   4  -3    3.10    2.00
   3   4   3    3.60    2.00
   3  -4  -3    2.60    1.60
   3   4  -3    3.10    1.20
  -3   4   3    2.60    2.20
   3  -4   3    5.00    1.50
  -3  -4  -3    0.70    1.70
   3   4  -3    2.00    0.90
   3  -4   3    1.00    1.90
  -3  -4  -3    3.10    1.20
  -3  -4  -3   -1.30    1.00
  -3   4  -4  209.38    9.40
   3  -4  -4  217.78   10.20
  -3   4  -4  233.78   10.00
   3  -4  -4  212.28    9.60
  -3  -4   4  223.48    9.80
   3   4   4  228.18   10.10
  -3  -4   4  222.28    8.10
  -3   4  -4  231.18   10.60
   3  -4   4  214.68    9.40
   3  -4   4  221.88   10.90
  -3  -4  -4  233.68   10.30
   3   4  -4  218.28    7.70
  -3  -4  -4  209.08    9.00
  -3  -4  -4  224.98    8.80
  -3   4   4  219.68   10.40
  -3  -4   5 1035.00   29.80
   3  -4  -5 1011.90   33.00
   3   4   5 1032.50   32.20
  -3   4  -5 1024.40   32.60
   3  -4  -5 1018.70   32.20
  -3  -4   5  982.70   32.60
  -3  -4   5  994.70   32.60
  -3   4   5  968.00   34.80
   3  -4   5  935.81   31.40
   3  -4   5 1029.90   33.10
  -3  -4  -5  917.91   31.00
   3   4  -5 1033.80   31.70
  -3  -4  -5 1014.30   31.40
   3   4  -5  961.70   29.30
  -3  -4  -5 1043.30   33.10
  -3  -4   6  198.88   10.60
  -3  -4   6  190.58   10.00
  -3  -4   6  208.78    7.70
  -3   4  -6  217.78   10.50
   3   4   6  205.88    9.60
   3  -4  -6  224.08   11.00
   3  -4  -6  193.88    9.90
   3  -4   6  209.88    9.50
   3   4  -6  228.78   13.40
  -3  -4  -6  199.58    9.50
  -3   4   6  204.08   10.50
   3   4  -6  196.38    7.40
  -3  -4  -6  190.18    8.80
  -3  -4  -6  208.98   10.80
   3  -4   6  215.18   10.60
  -3  -4   7  169.08   10.50
   3  -4  -7  182.38    9.90
  -3   4  -7  177.38    9.90
   3  -4  -7  187.78   10.40
   3   4   7  179.68    8.50
  -3   4   7  196.08   10.20
  -3  -4  -7  170.98    9.30
   3  -4   7  177.48    9.00
   3  -4   7  177.98    9.60
   3   4  -7  175.08    9.20
   3   4  -7  168.78    6.60
  -3  -4  -7  183.08   10.50
  -3  -4   8   12.40    3.70
   3   4   8   11.00    2.30
  -3   4  -8   15.70    3.70
  -3   4   8   14.00    3.70
  -3  -4  -8   18.80    4.70
  -3  -4  -8   14.50    3.60
   3  -4   8   15.30    3.70
   3   4  -8   18.50    3.60
   3  -4   8   13.60    2.70
   3  -4  -9   20.80    4.60
  -3   4  -9   19.20    4.30
   3  -4  -9   13.50    3.90
  -3  -4   9   22.50    4.20
  -3   4   9   25.40    4.20
  -3  -4  -9   15.70    3.80
  -3  -4  -9   21.40    4.50
   3  -4   9   25.80    4.30
   3   5   0    1.60    2.30
  -3   5   0   -0.70    0.90
  -3   5   0   -0.70    1.90
  -3  -5   0    0.60    1.30
   3  -5   0    0.20    1.30
  -3  -5   0   -0.60    1.20
   3  -5   0   -0.90    1.50
  -3   5  -1   68.49    5.90
   3  -5  -1   67.09    5.20
   3   5   1   72.89    6.00
   3  -5  -1   75.79    5.10
  -3  -5   1   76.89    4.60
   3   5  -1   69.99    6.20
  -3   5   1   75.89    6.20
  -3  -5  -1   75.59    4.20
   3   5  -1   64.79    2.60
   3  -5   1   71.69    5.30
  -3  -5  -1   74.09    4.90
  -3   5  -2  364.16   16.90
  -3  -5   2  328.17   12.60
   3  -5  -2  395.56   16.80
   3   5   2  348.27   14.60
  -3  -5   2  354.16   12.70
   3  -5  -2  345.17   12.90
  -3   5  -2  337.47   14.70
  -3   5  -2  339.07   12.80
  -3  -5  -2  341.07   13.50
   3  -5   2  340.37   14.00
   3   5  -2  339.37   11.20
  -3  -5  -2  349.57   11.90
   3   5  -2  331.57   11.70
  -3   5   2  357.66   14.80
   3   5  -2  342.67   15.40
  -3   5  -3  160.28    7.90
   3  -5  -3  176.98    8.10
  -3  -5   3  152.58    7.80
  -3   5  -3  172.98    9.60
   3   5   3  180.48    9.40
  -3  -5   3  159.88    7.90
   3  -5  -3  162.28    8.80
   3   5  -3  161.28    7.90
   3   5  -3  162.08    6.50
  -3  -5  -3  160.88    8.60
   3  -5   3  185.68   10.10
   3   5  -3  180.48   10.40
  -3   5   3  185.98    9.70
  -3  -5  -3  170.98    7.10
  -3   5  -4  339.07   13.40
  -3  -5   4  346.97   12.20
  -3  -5   4  324.17   13.50
   3   5   4  357.46   14.50
   3  -5  -4  326.67   13.20
  -3   5  -4  332.67   14.90
   3  -5  -4  336.47   14.40
   3   5  -4  318.47   11.20
   3   5  -4  334.77   12.40
  -3  -5  -4  340.17   12.30
  -3   5   4  359.56   15.10
   3  -5   4  332.47   15.00
  -3  -5  -4  329.77   14.10
   3  -5  -5    1.60    1.90
   3   5   5    0.50    2.30
  -3  -5   5    2.80    1.10
  -3  -5   5    0.40    1.20
  -3   5  -5    1.30    1.90
   3  -5  -5    1.60    2.30
  -3  -5  -5    2.60    2.40
   3   5  -5    5.10    1.70
  -3  -5  -5   -0.20    1.40
   3   5  -5    3.30    1.10
  -3   5   5    4.10    2.80
  -3  -5   6  247.58   12.20
  -3  -5   6  236.28   11.60
   3  -5  -6  251.37   11.70
  -3   5  -6  237.28   11.50
   3   5   6  245.68   11.60
   3  -5  -6  251.97   12.60
  -3  -5   6  248.88    8.70
   3  -5   6  258.77   12.10
  -3  -5  -6  237.88   12.40
  -3   5   6  232.28   12.20
   3   5  -6  225.88    8.20
  -3  -5  -6  241.78   10.80
   3   5  -6  247.98   11.20
  -3  -5   7   12.70    4.00
  -3   5  -7   11.60    3.40
   3   5   7    7.10    2.80
   3  -5  -7   16.90    4.30
   3  -5  -7    9.30    3.40
  -3   5   7   10.30    3.50
  -3  -5  -7    8.10    3.40
  -3  -5  -7   10.80    3.00
   3   5  -7    9.30    2.90
   3  -5   7    8.00    3.10
   3  -5   7   14.90    3.50
   3  -5  -8   30.10    5.30
  -3   5  -8   25.90    4.90
  -3  -5   8   27.20    5.50
   3   5   8   23.80    3.70
   3  -5  -8   22.00    5.10
   3  -5   8   21.60    4.20
  -3  -5  -8   26.10    4.70
   3  -5   8   20.90    3.50
  -3  -5  -8   23.50    5.20
  -3   5   8   23.60    4.70
   3  -5  -9    1.60    2.70
   3  -5  -9    2.00    2.60
  -3  -5  -9    1.70    2.80
  -3  -5  -9    0.30    2.30
  -3   5   9    6.00    3.70
   3  -5   9    1.10    1.70
  -3  -6   0    2.60    1.80
  -3   6   0    2.70    1.40
   3  -6   0    1.90    2.00
   3   6   0   -1.00    2.20
  -3   6   0    4.50    2.90
   3  -6   0    2.20    2.30
  -3   6  -1  611.54   20.60
   3  -6  -1  628.84   22.40
   3  -6  -1  641.84   22.70
  -3  -6   1  611.84   21.20
  -3   6  -1  665.03   24.20
   3   6   1  675.23   24.50
  -3  -6  -1  578.44   22.60
  -3   6   1  640.44   24.00
   3  -6   1  623.44   22.60
  -3   6   1  629.64   20.50
  -3  -6  -1  604.24   20.90
   3   6  -1  638.44   24.50
   3   6   2  223.38   11.80
  -3  -6   2  217.68    9.70
  -3   6  -2  211.88    9.20
   3  -6  -2  216.68   10.00
  -3   6  -2  232.88   12.20
   3  -6  -2  225.28   11.00
   3   6  -2  205.28    7.30
   3   6  -2  195.88   11.90
  -3  -6  -2  215.08    8.90
  -3   6   2  235.48   12.00
  -3  -6  -2  204.48   10.30
   3  -6  -3   23.30    3.50
  -3  -6   3   26.20    3.80
   3  -6  -3   38.40    5.60
  -3  -6   3   37.10    4.70
  -3   6  -3   26.60    5.20
   3   6   3   27.10    5.00
  -3   6  -3   22.30    3.20
   3  -6   3   31.90    5.60
  -3   6   3   33.70    5.60
   3   6  -3   26.80    2.40
  -3  -6  -3   29.90    3.20
   3   6  -3   31.30    5.90
  -3  -6  -3   44.90    5.60
   3  -6  -4   13.60    3.90
  -3  -6   4   16.60    3.20
  -3  -6   4   13.10    2.80
  -3   6  -4   10.80    2.80
  -3   6  -4    9.80    3.90
   3   6   4   14.90    4.00
   3  -6  -4    8.80    2.60
  -3   6   4    6.10    3.40
   3   6  -4   10.60    2.10
   3  -6   4    5.00    3.40
  -3  -6  -4    9.90    2.40
   3   6  -4   10.90    1.80
  -3  -6  -4   11.90    3.70
   3  -6  -5  207.78   11.30
  -3   6  -5  191.58   10.80
  -3  -6   5  191.88   10.00
   3   6   5  191.08   10.80
   3  -6  -5  190.48    9.80
  -3  -6   5  178.88    7.80
  -3   6   5  198.78   11.60
  -3  -6  -5  211.38    9.30
   3   6  -5  168.88    7.00
   3  -6   5  186.88   10.70
  -3  -6  -5  200.78   11.10
  -3   6  -6   25.90    4.60
   3   6   6   24.80    4.80
  -3  -6   6   28.00    2.20
  -3  -6   6   25.50    4.90
   3  -6  -6   30.40    4.90
   3  -6  -6   24.50    4.90
   3  -6   6   30.70    5.30
  -3  -6  -6   28.30    4.20
   3   6  -6   23.30    3.90
  -3   6   6   29.90    5.70
   3   6   7  131.19    8.30
  -3   6  -7  104.79    7.60
   3  -6  -7  110.09    8.90
   3  -6  -7  106.99    7.90
  -3  -6   7  120.99    8.90
   3  -6   7  112.89    7.50
  -3  -6  -7  114.39    9.00
  -3  -6  -7  102.49    7.30
  -3   6   7  117.59    8.80
   3  -6   7  115.99    7.80
   3   6   8   62.29    5.60
   3  -6  -8   52.59    7.00
  -3  -6   8   62.19    6.80
   3  -6  -8   61.09    8.00
   3  -6   8   47.30    6.00
  -3  -6  -8   47.10    7.40
   3  -6   8   42.30    4.50
  -3  -6  -8   44.90    5.20
  -3   6   8   60.39    6.00
  -3  -7   0   -0.80    1.60
   3  -7   0    1.10    2.50
   3   7   0   -1.70    2.90
  -3   7   0    0.90    3.00
  -3   7   0   -0.30    0.80
   3  -7  -1   59.49    5.90
  -3   7  -1   62.09    4.20
  -3  -7   1   64.49    5.40
   3   7   1   65.19    8.30
  -3   7  -1   64.79    7.20
   3  -7  -1   62.39    5.90
  -3   7   1   64.09    7.10
   3   7  -1   77.59    9.60
  -3  -7  -1   49.40    5.10
  -3  -7  -1   57.59    5.00
  -3   7   1   67.39    3.80
   3  -7   1   52.49    5.60
   3   7   2   97.89    8.40
   3  -7  -2   83.49    7.10
  -3   7  -2  102.09    5.70
  -3   7  -2  102.09    8.70
   3  -7  -2   85.79    6.60
  -3  -7   2   97.19    6.60
  -3  -7  -2   90.89    6.00
   3   7  -2   93.29    8.50
  -3   7   2   85.99    4.90
  -3  -7  -2   89.99    6.90
  -3   7   2   97.79    8.40
   3  -7   2   91.29    7.30
   3  -7  -3   53.29    6.70
  -3  -7   3   60.59    5.60
   3  -7  -3   68.69    5.80
  -3   7  -3   55.09    4.50
  -3   7  -3   75.69    9.20
   3   7   3   56.49    7.70
  -3  -7  -3   63.09    4.80
  -3   7   3   66.99    7.20
   3  -7   3   72.39    7.10
  -3  -7  -3   60.39    6.10
  -3   7   3   58.79    3.80
   3   7  -3   76.49    9.70
  -3   7  -4  159.88    8.50
   3   7   4  168.48   10.90
   3  -7  -4  161.98   10.30
  -3  -7   4  168.58    8.70
  -3   7  -4  168.88   11.40
   3  -7  -4  166.98    9.10
   3   7  -4  172.88    7.80
  -3  -7  -4  162.08   10.30
  -3   7   4  175.28   11.30
  -3  -7  -4  173.18    8.50
   3  -7   4  148.99   10.50
  -3  -7   5    4.10    1.50
   3  -7  -5    1.70    3.80
   3   7   5    3.40    2.90
  -3   7  -5   -1.40    2.00
   3  -7  -5   -2.20    3.50
  -3  -7  -5    0.70    2.00
  -3   7   5    1.20    3.00
  -3  -7  -5    1.90    2.70
   3  -7   5    4.80    2.90
   3   7   6  124.29    9.10
   3  -7  -6  117.59    9.30
   3  -7  -6  106.69    7.90
  -3   7   6  141.89   11.70
  -3  -7  -6  109.79    9.10
   3  -7   6  118.19    8.20
  -3  -7  -6  105.99    7.40
  -3  -7   7    4.20    3.10
   3  -7  -7    4.70    3.30
   3  -7  -7    0.50    2.40
   3   7   7    5.70    3.20
  -3   7   7    9.40    3.50
   3  -7   7    3.90    2.10
  -3  -7  -7    0.40    2.20
  -3  -7  -7    0.20    2.80
   3  -7   7   -0.90    2.70
   3  -7  -8    7.70    3.50
   3  -7  -8   14.80    5.40
  -3  -7   8    5.50    3.80
  -3  -7  -8   10.80    3.90
  -3   7   8   18.70    4.30
   3  -7   8   12.70    4.20
  -3  -7  -8   10.20    3.50
  -3   8   0   -2.90    2.50
  -3  -8   0    0.40    2.10
   3   8   0    1.40    3.70
  -3   8   0    2.70    1.10
   3  -8   0   -0.60    2.20
   3  -8  -1   60.49    6.40
   3   8   1   66.29    8.90
   3  -8  -1   59.99    6.40
  -3   8  -1   55.29    3.80
  -3   8  -1   66.19    8.80
  -3  -8   1   56.49    5.50
  -3  -8  -1   51.79    5.60
   3   8  -1   58.59    8.90
   3  -8   1   52.89    6.60
  -3   8   1   67.09    8.90
  -3  -8   2    4.10    2.70
   3  -8  -2    5.30    2.90
  -3   8  -2   -1.00    3.30
   3   8   2    6.20    4.10
   3  -8  -2    1.90    2.60
  -3   8  -2    4.80    1.90
   3   8  -2    2.20    4.00
  -3  -8  -2    7.50    3.20
   3  -8   2    4.10    3.00
  -3   8   2    6.00    4.40
  -3  -8  -2    3.90    2.50
  -3  -8   3    0.20    2.30
  -3   8  -3   -3.80    1.90
   3  -8  -3    0.70    2.10
   3  -8  -3    1.40    2.90
  -3   8  -3    1.50    3.40
   3   8   3   -0.20    3.00
  -3   8   3    5.90    3.90
  -3  -8  -3   -0.20    2.30
  -3  -8  -3   -0.60    1.80
   3   8  -3    1.30    3.70
   3  -8   3    2.10    3.20
  -3   8  -4   65.09    9.00
   3  -8  -4   48.80    5.60
   3  -8  -4   63.39    8.30
  -3  -8   4   57.79    5.90
   3   8   4   54.79    7.90
  -3  -8  -4   52.79    7.30
   3  -8   4   54.99    8.00
  -3  -8  -4   44.70    4.90
  -3   8   4   67.99   10.40
   3  -8  -5  211.78   12.90
   3  -8  -5  200.48   11.20
  -3  -8   5  203.18    8.80
  -3  -8  -5  209.38   10.70
  -3  -8  -5  200.48   12.50
  -3   8   5  225.68   13.80
   3  -8   5  204.08   12.00
  -3  -8   6   51.19    7.20
   3  -8  -6   48.30    7.00
   3   8   6   59.09    8.20
   3  -8  -6   49.50    5.70
   3  -8   6   53.69    5.60
  -3  -8  -6   40.90    5.50
  -3   8   6   61.79    8.90
  -3  -8  -6   53.59    8.10
   3  -8  -7   39.50    7.50
  -3  -8   7   38.30    6.30
   3  -8  -7   35.40    5.70
   3   8   7   41.70    6.50
  -3   8   7   36.20    6.60
   3  -8   7   38.30    5.90
  -3  -8  -7   32.90    6.10
  -3  -8  -7   28.00    4.90
   3   9   0   -3.70    3.10
   3  -9   0   -2.60    2.20
  -3   9   0   -5.70    2.80
  -3  -9   0    2.40    2.50
   3   9   1   11.80    5.60
  -3   9  -1    8.10    5.00
  -3  -9   1   14.10    3.90
   3  -9  -1    6.20    3.70
  -3  -9  -1   12.60    3.90
   3   9  -1    3.20    4.20
   3  -9   1    4.00    3.20
  -3   9   1    5.10    4.20
  -3  -9   2   49.60    6.90
   3   9   2   62.59    9.70
   3  -9  -2   38.20    6.20
  -3   9  -2   43.30    8.00
   3  -9  -2   46.30    6.70
   3   9  -2   50.19    8.80
   3  -9   2   49.90    7.20
  -3   9   2   42.60    7.70
  -3  -9  -2   49.20    6.80
  -3  -9  -2   49.70    6.10
   3   9   3   14.10    5.10
   3  -9  -3   17.20    4.80
  -3  -9   3   25.60    4.80
  -3   9  -3   20.20    6.00
   3  -9  -3   20.90    4.50
  -3  -9  -3   21.50    5.20
   3  -9   3   22.40    5.40
  -3  -9  -3   19.10    4.10
   3   9  -3   19.20    5.80
  -3   9   3   22.10    6.20
   3  -9  -4   38.80    5.80
  -3  -9   4   54.39    4.90
  -3   9  -4   41.70    7.60
   3  -9  -4   40.00    7.20
   3   9   4   40.90    7.90
  -3  -9  -4   37.60    5.60
  -3  -9  -4   46.60    7.50
  -3   9   4   31.90    6.90
   3  -9   4   43.90    7.20
   3   9   5    5.00    4.10
   3  -9  -5    3.20    3.50
   3  -9  -5    1.70    2.50
  -3  -9  -5   -0.70    2.80
  -3  -9  -5    5.70    2.80
   3  -9   5    5.90    3.30
  -3   9   5   11.60    4.70
   3   9   6   44.60    6.80
  -3  -9   6   39.70    7.10
   3  -9  -6   39.90    6.10
   3  -9  -6   53.29    7.80
  -3   9   6   68.09    7.50
  -3  -9  -6   35.70    5.50
  -3  -9  -6   55.29    8.50
   3 -10   0    1.70    2.70
  -3  10   0    1.10    4.00
  -3 -10   0   -1.30    2.00
   3  10   0   -1.80    3.70
   3  10   1   69.89   10.00
   3 -10  -1   75.19    7.90
  -3 -10   1   82.59    7.00
  -3  10  -1   83.69   11.50
   3 -10   1   71.39    7.70
  -3  10   1   80.69   11.00
  -3 -10  -1   78.49    7.40
   3  10  -1   90.69   12.00
  -3 -10   2   39.30    6.80
  -3  10  -2   49.50    8.50
   3  10   2   49.30    8.70
   3 -10  -2   35.30    6.70
  -3  10   2   34.80    7.70
   3 -10   2   47.90    7.90
  -3 -10  -2   35.00    6.10
   3  10  -2   37.60    8.10
   3  10   3    7.50    3.90
  -3 -10   3   27.60    4.40
  -3  10  -3   15.90    5.50
   3 -10  -3   12.70    4.20
   3 -10  -3    5.80    3.40
  -3 -10  -3    8.20    3.60
  -3  10   3   12.00    4.90
  -3 -10  -3   17.60    5.30
   3 -10   3    9.10    3.80
   3  10   4    3.70    3.70
   3 -10  -4    1.30    3.10
   3 -10  -4    2.60    3.00
  -3  10  -4    9.70    4.50
   3 -10   4    6.10    2.90
  -3 -10  -4    2.90    2.80
  -3 -10  -4    2.60    5.10
   3  11   0    6.50    4.10
  -3 -11   0    7.90    2.10
  -3  11   0   -2.70    2.90
   3 -11  -1   12.40    3.90
   3  11   1    5.00    4.30
  -3 -11   1   12.20    3.40
  -3  11  -1   20.20    6.30
  -3  11   1   21.30    6.30
   3  11  -1    7.70    4.90
   3 -11   1   16.90    4.30
  -3 -11  -1   15.30    4.00
  -4   0   0 1178.98   33.30
   4   0   0 1169.18   33.20
  -4   0   0 1153.38   33.80
  -4   0   0 1194.08   33.90
   4   0   0 1164.18   33.80
   4   0   0 1145.49   33.90
  -4   0   1  191.98    7.40
  -4   0  -1  185.28    7.00
  -4   0  -1  187.78    6.00
   4   0  -1  188.68    6.10
   4   0   1  185.58    6.00
  -4   0   1  198.68    6.10
   4   0  -1  188.38    6.30
  -4   0   1  190.08    6.30
   4   0  -1  185.28    7.20
   4   0  -2 1093.89   34.10
   4   0  -2 1184.88   33.20
  -4   0   2 1149.19   33.20
   4   0  -2 1149.78   32.50
  -4   0  -2 1075.99   33.90
  -4   0  -2 1195.78   33.20
   4   0   2 1121.09   34.10
  -4   0   2 1152.38   34.40
   4   0  -3  441.96   13.60
   4   0  -3  442.96   13.30
   4   0  -3  446.36   14.20
  -4   0  -3  449.76   14.20
  -4   0  -3  421.66   15.00
   4   0  -3  405.86   14.80
  -4   0   3  409.06   15.00
  -4   0   3  438.86   14.30
   4   0   3  423.46   14.90
   4   0  -4  422.76   15.40
   4   0  -4  450.95   15.20
  -4   0  -4  405.26   16.50
   4   0  -4  469.95   14.20
   4   0   4  436.76   14.80
  -4   0   4  448.16   15.90
  -4   0  -4  442.96   15.10
   4   0  -4  449.56   14.50
  -4   0   4  436.76   15.20
   4   0   4  453.65   16.00
   4   0  -5  110.59    5.60
   4   0  -5  104.99    5.90
  -4   0   5  121.09    6.70
  -4   0   5  107.79    6.10
   4   0  -5  104.59    5.10
  -4   0  -5  112.89    6.20
   4   0  -5  114.69    6.20
   4   0   5  111.09    6.70
  -4   0   6  363.06   13.50
  -4   0  -6  322.27   13.30
   4   0  -6  305.67   12.50
   4   0   6  328.07   14.00
   4   0  -6  318.77   11.80
   4   0  -6  333.47   13.30
   4   0   7   13.10    3.50
   4   0  -7    7.30    2.70
   4   0  -7    5.40    2.00
  -4   0  -7    9.60    3.20
  -4   0   7    9.10    2.70
  -4   0  -8   85.59    7.00
   4   0  -8   86.19    7.00
  -4   0   8   91.79    6.20
   4   0  -8   95.49    5.80
   4   0  -9   23.30    4.60
  -4   0  -9   26.60    5.40
  -4   0   9   29.10    4.10
   4   0  -9   30.10    4.10
   4   0 -10   28.30    4.30
  -4   0 -10   25.00    4.90
   4   0 -10   30.30    5.40
  -4  -1   0 2171.08   61.49
  -4  -1   0 2130.79   60.59
   4  -1   0 2201.68   61.19
   4  -1   0 2113.79   61.19
   4  -1  -1 1781.02   51.19
  -4   1  -1 1837.02   50.59
  -4   1  -1 1616.74   51.79
   4  -1  -1 1781.62   50.79
   4   1   1 1737.53   51.19
  -4  -1   1 1841.52   49.90
   4  -1  -1 1793.62   50.99
   4   1  -1 1822.52   50.19
  -4   1   1 1771.72   51.29
  -4   1   1 1835.02   50.89
   4  -1   1 1813.52   50.49
  -4  -1  -1 1829.22   51.29
   4   1  -1 1779.62   49.70
  -4  -1  -1 1795.92   50.79
  -4  -1   2  123.19    4.90
   4  -1  -2  122.99    5.40
  -4  -1   2  123.59    5.50
   4  -1  -2  116.49    4.80
   4  -1  -2  120.49    5.00
   4   1   2  120.29    4.40
  -4   1  -2  119.39    4.40
  -4   1  -2  121.59    5.20
  -4   1  -2  116.99    6.10
   4   1   2  124.19    5.60
  -4   1   2  114.59    4.90
  -4  -1  -2  113.49    5.50
   4  -1   2  123.29    6.10
  -4   1   2  118.29    4.80
   4  -1   2  123.59    4.20
  -4  -1  -2  116.59    4.20
  -4  -1  -2  121.89    4.50
   4   1  -2  116.29    4.70
  -4   1   2  125.09    5.50
  -4  -1   3 1371.96   40.30
   4  -1  -3 1378.36   41.40
  -4   1  -3 1416.26   40.60
   4  -1  -3 1367.16   39.90
  -4  -1   3 1383.66   41.20
   4   1   3 1329.77   41.10
   4  -1  -3 1416.96   40.40
  -4   1  -3 1320.67   41.60
   4   1   3 1333.77   38.70
  -4  -1  -3 1365.96   39.80
   4  -1   3 1375.86   41.50
   4   1  -3 1426.46   38.60
   4   1  -3 1379.26   40.10
  -4   1   3 1335.47   40.20
  -4   1   3 1346.97   40.80
   4   1  -3 1415.46   39.00
   4  -1   3 1354.06   38.60
  -4  -1  -3 1304.57   41.10
  -4  -1  -3 1402.86   38.60
   4  -1  -4  409.96   14.10
  -4   1  -4  396.16   17.10
  -4   1  -4  408.36   14.20
   4  -1  -4  389.46   13.80
  -4  -1   4  405.76   15.30
   4   1   4  394.96   13.10
   4  -1  -4  398.56   13.40
   4  -1  -4  375.86   14.80
   4   1   4  392.36   11.80
   4   1   4  381.76   14.70
  -4  -1   4  394.36   14.10
   4   1  -4  414.96   13.90
  -4   1   4  386.96   13.90
  -4   1   4  405.36   14.30
   4  -1   4  395.66   11.80
   4   1  -4  410.66   13.10
   4  -1   4  401.66   14.80
  -4  -1  -4  390.26   11.70
  -4  -1  -4  388.06   14.80
  -4  -1  -4  394.86   13.60
   4  -1   4  420.96   12.10
  -4  -1   5   59.99    5.20
   4  -1  -5   57.69    4.50
   4   1   5   67.09    5.20
  -4  -1   5   53.99    4.20
   4  -1  -5   58.09    4.60
   4   1   5   59.89    2.30
   4  -1  -5   55.69    4.40
   4  -1  -5   60.69    4.00
  -4   1  -5   56.29    4.50
   4  -1   5   62.19    5.00
   4  -1   5   61.89    2.40
   4   1  -5   66.19    4.60
   4  -1   5   56.99    2.30
  -4   1   5   55.79    4.10
   4   1  -5   67.19    4.00
  -4  -1  -5   56.99    4.30
  -4   1   5   64.99    4.70
   4  -1  -6    2.20    2.00
  -4  -1   6    1.90    2.40
   4  -1  -6    3.10    1.70
   4   1   6   -0.60    1.90
  -4   1  -6    3.30    2.20
   4   1  -6    0.90    1.90
   4   1  -6    1.60    1.20
  -4   1   6    1.70    1.90
  -4  -1  -6    1.40    1.80
   4  -1   6    1.10    2.70
   4   1  -6    1.40    1.30
   4  -1  -7    3.70    2.10
  -4   1  -7    4.90    2.70
   4  -1  -7    5.60    2.20
  -4  -1   7    8.00    2.70
   4   1  -7    2.50    1.50
  -4   1   7    5.20    2.50
   4   1  -7    3.10    2.50
   4  -1   7    6.70    2.90
  -4  -1  -7    4.50    2.50
   4   1  -7    4.40    1.90
  -4   1  -8    9.20    3.60
  -4  -1   8    7.10    2.70
   4  -1  -8    6.30    2.60
   4  -1  -8   10.50    3.40
  -4   1   8    3.40    2.20
   4   1  -8    8.70    2.10
   4  -1   8   10.00    3.30
  -4  -1  -8    8.20    3.10
   4  -1  -9  107.89    6.90
  -4  -1   9  108.69    6.80
   4  -1  -9   91.49    7.50
  -4   1  -9  117.09    8.50
   4   1  -9  104.39    5.80
  -4  -1  -9  102.39    7.90
   4   1  -9  100.39    7.70
  -4   1   9   96.19    6.50
  -4   1 -10   40.90    6.50
   4  -1 -10   31.30    5.10
   4  -1 -10   32.20    5.70
  -4  -1 -10   33.40    5.30
  -4  -1 -10   46.40    6.40
   4   1 -10   46.80    7.30
  -4   2   0 6417.56  187.98
   4  -2   0 6256.57  187.58
  -4  -2   1  286.37    8.40
   4  -2  -1  264.37    9.70
  -4   2  -1  277.37    9.70
  -4  -2   1  277.17   10.50
  -4  -2   1  277.67    8.70
   4   2   1  279.17   10.00
  -4   2  -1  282.57   10.10
   4  -2  -1  271.47    9.50
   4  -2  -1  279.17    9.80
  -4  -2   1  276.37    8.50
  -4   2   1  279.17    9.40
   4  -2   1  268.87    9.40
   4   2  -1  282.37    8.30
  -4   2   1  270.27    9.60
  -4   2   1  275.77   10.00
  -4  -2  -1  264.27    9.70
  -4  -2  -1  281.37    9.80
   4  -2   1  277.87   10.30
   4   2   2  335.27   11.40
  -4  -2   2  340.27   11.20
   4  -2  -2  341.07   11.70
  -4   2  -2  322.27   12.30
   4  -2  -2  335.27   11.80
  -4   2  -2  338.57   11.70
   4  -2  -2  337.77   11.40
  -4   2  -2  334.87   11.40
   4   2   2  333.67   12.00
  -4  -2   2  326.67   12.70
  -4   2   2  336.77   11.50
  -4   2   2  339.07   12.00
  -4  -2  -2  326.27   11.00
  -4   2   2  335.87   11.30
   4  -2   2  353.26   13.20
   4  -2   2  336.67   11.10
  -4  -2  -2  336.77   12.10
   4   2  -2  341.67   10.80
  -4  -2  -2  350.06   10.30
   4   2   3  183.48    8.30
  -4   2  -3  192.68    7.40
  -4  -2   3  190.48    7.70
   4   2   3  194.48    7.20
  -4  -2   3  185.58    8.70
   4  -2  -3  192.08    7.80
  -4  -2   3  185.88    8.00
   4  -2  -3  191.28    8.00
   4  -2  -3  195.28    7.70
  -4   2  -3  189.08    8.80
  -4  -2  -3  179.78    9.80
   4  -2   3  187.98    6.90
   4   2  -3  201.08    7.40
   4  -2   3  200.18    9.00
  -4   2   3  192.68    8.20
  -4  -2  -3  185.08    6.80
  -4   2   3  176.28    7.40
  -4  -2  -3  195.98    7.00
  -4   2  -4    6.00    2.30
   4  -2  -4    5.00    1.50
  -4  -2   4    7.60    2.30
   4  -2  -4    5.60    1.60
  -4  -2   4    9.10    2.10
  -4  -2   4    6.40    2.30
  -4   2  -4    6.40    2.10
   4  -2  -4    7.50    1.90
   4  -2  -4    9.50    2.50
   4   2   4    8.60    1.60
   4   2  -4    8.60    1.20
   4   2  -4    8.10    1.90
  -4   2   4    7.90    2.30
  -4  -2  -4    8.90    1.90
   4  -2   4    8.30    1.50
  -4   2   4   10.80    2.00
  -4  -2  -4    9.30    1.50
   4  -2   4    7.60    2.40
   4  -2  -5   85.79    5.70
  -4   2  -5   91.69    5.80
   4   2   5   89.19    4.20
   4  -2  -5   84.99    5.30
  -4  -2   5   80.29    5.80
  -4  -2   5   87.69    6.30
   4  -2  -5   83.09    5.40
  -4  -2   5   86.79    5.50
  -4  -2  -5   79.99    4.20
   4   2  -5   87.49    5.40
   4  -2   5   82.99    4.20
  -4   2   5   83.79    5.50
   4  -2   5   83.19    5.90
  -4  -2  -5   90.69    5.20
   4  -2   5   88.79    4.10
   4   2  -5   91.29    4.30
  -4   2  -6   13.50    2.80
  -4  -2   6   14.30    2.40
   4   2   6   21.80    2.70
  -4  -2   6   22.50    4.60
   4  -2   6   19.90    1.70
  -4  -2  -6   27.90    4.00
   4  -2   6   15.50    2.00
  -4   2   6   14.10    3.00
   4   2  -6   18.30    2.60
   4   2  -6   19.00    3.40
  -4   2  -7    4.20    2.40
   4  -2  -7    0.90    2.00
   4  -2  -7    2.60    2.00
  -4  -2   7    1.60    2.30
   4   2  -7    4.10    1.60
   4   2  -7    3.10    1.30
   4  -2   7    2.50    0.70
  -4   2   7    3.00    2.30
   4  -2   7    3.00    2.50
  -4  -2  -7    1.50    2.00
   4  -2   7    3.20    0.70
   4   2  -7    3.00    2.40
   4  -2  -8   37.50    5.40
  -4   2  -8   42.50    6.00
  -4  -2   8   39.90    5.40
   4  -2  -8   36.10    5.10
  -4  -2  -8   27.60    4.50
   4  -2   8   39.90    6.00
  -4   2   8   35.20    4.90
   4   2  -8   31.90    2.80
   4   2  -8   50.79    5.40
   4  -2  -9   32.50    5.30
   4  -2  -9   32.70    5.00
  -4  -2   9   40.70    4.50
  -4   2  -9   48.30    6.80
   4   2  -9   28.80    3.00
  -4   2   9   33.20    4.50
   4   2  -9   37.70    5.70
  -4  -2  -9   36.70    5.70
  -4   2 -10   96.99    7.90
   4  -2 -10   84.79    6.70
   4  -2 -10   76.99    7.40
  -4  -2 -10   92.69    7.70
  -4  -2 -10   92.09    7.60
  -4   3   0 1303.77   40.40
  -4  -3   0 1386.76   39.70
   4  -3   0 1347.67   40.60
   4   3   0 1362.46   41.60
   4  -3   0 1427.26   41.00
  -4  -3   0 1390.56   38.70
  -4   3   0 1327.07   40.30
  -4  -3   0 1315.47   41.10
  -4   3   0 1415.26   41.20
   4  -3   0 1386.26   41.10
  -4  -3   0 1375.46   40.00
  -4  -3   0 1399.16   39.00
   4  -3  -1 1180.38   34.80
   4   3   1 1132.59   35.10
  -4  -3   1 1185.08   33.30
   4  -3  -1 1128.69   34.70
  -4   3  -1 1181.98   35.00
  -4  -3   1 1078.19   35.30
  -4  -3   1 1172.08   33.20
   4  -3  -1 1142.79   34.20
  -4   3  -1 1173.98   35.00
  -4   3  -1 1124.69   34.50
   4   3  -1 1150.48   32.20
  -4   3   1 1143.79   33.90
  -4   3   1 1187.08   35.20
  -4  -3  -1 1123.49   34.70
   4   3  -1 1147.59   35.90
  -4  -3  -1 1178.58   32.20
   4  -3   1 1111.79   34.30
  -4   3   1 1125.89   34.50
  -4  -3  -1 1145.99   34.50
   4   3  -1 1150.38   32.10
   4  -3   1 1125.19   34.90
   4  -3  -2   83.89    4.80
   4  -3  -2   78.99    4.70
  -4   3  -2   77.59    4.50
  -4  -3   2   83.49    3.60
  -4   3  -2   82.09    4.80
  -4   3  -2   79.39    4.80
  -4  -3   2   83.39    5.40
  -4  -3   2   82.69    4.10
   4  -3  -2   83.79    4.40
  -4   3  -2   87.79    5.00
   4   3   2   89.09    5.00
  -4   3   2   77.79    4.10
  -4  -3  -2   78.59    4.40
  -4   3   2   78.29    5.00
   4  -3   2   82.89    5.60
   4   3  -2   85.29    3.70
  -4  -3  -2   83.09    3.30
   4  -3   2   81.59    4.40
  -4  -3  -2   83.49    4.90
  -4   3  -3  989.00   31.80
   4  -3  -3 1032.40   31.00
  -4  -3   3 1013.60   32.70
  -4   3  -3 1035.20   31.50
  -4  -3   3 1013.60   28.90
   4  -3  -3 1017.30   31.50
  -4  -3   3 1024.00   31.00
  -4   3  -3 1016.90   31.40
   4   3   3 1026.90   31.20
   4  -3  -3  941.81   31.20
   4  -3   3 1008.60   30.70
  -4  -3  -3 1043.20   29.80
  -4   3   3  981.50   30.50
   4   3  -3 1067.39   30.40
  -4  -3  -3 1006.80   32.20
  -4   3   3 1015.50   31.80
   4  -3   3  980.20   32.90
  -4  -3  -3  982.80   30.40
   4   3  -3 1018.00   28.70
  -4  -3   4  282.47   11.20
  -4  -3   4  251.07   12.20
   4  -3  -4  284.17   11.10
  -4   3  -4  258.77   11.60
   4  -3  -4  272.27   11.20
  -4   3  -4  276.37   11.30
   4  -3  -4  278.27   11.40
  -4  -3   4  282.37   11.50
   4   3   4  286.97   10.80
  -4   3  -4  284.47   11.20
  -4  -3   4  280.87    8.80
  -4   3   4  294.47   11.70
  -4  -3  -4  262.87   10.00
   4  -3   4  301.57   12.70
   4   3  -4  290.67   10.70
   4  -3   4  278.67   10.30
  -4  -3  -4  277.77   10.90
   4   3  -4  279.57    8.60
   4  -3  -5   48.90    8.00
  -4  -3   5   36.20    4.60
  -4   3  -5   42.70    4.20
   4  -3  -5   30.90    4.00
   4   3   5   36.40    3.30
  -4  -3   5   31.80    3.50
  -4  -3  -5   29.50    2.70
   4   3  -5   35.30    3.50
  -4  -3  -5   32.90    3.40
   4   3  -5   32.00    2.20
  -4   3   5   41.30    5.00
   4  -3   5   43.90    5.60
   4  -3   5   31.10    2.70
  -4  -3   6    4.70    1.40
  -4  -3   6    3.40    2.70
   4  -3  -6    3.60    2.40
  -4   3  -6    1.10    1.80
   4   3   6    2.10    1.60
   4  -3  -6   -0.30    1.80
  -4  -3  -6    4.70    1.30
   4  -3   6    7.60    1.30
   4   3  -6    3.60    1.00
   4  -3   6    0.80    2.00
   4  -3   6    0.60    1.40
  -4  -3  -6    2.50    2.00
   4   3  -6    3.20    1.80
  -4   3   6    4.80    2.60
   4   3   7    7.00    1.50
  -4  -3   7    5.30    3.30
   4  -3  -7    4.90    2.70
  -4   3  -7    2.70    2.30
   4  -3  -7    3.70    2.50
   4   3  -7    2.40    2.00
   4  -3   7    3.80    1.50
  -4  -3  -7    4.50    1.00
   4  -3   7    2.40    2.40
  -4   3   7    6.20    2.90
   4   3  -7    8.40    1.30
  -4  -3  -7   10.60    3.10
   4   3  -7    7.80    1.30
   4  -3   7    5.50    1.50
  -4  -3   8    5.30    3.20
   4  -3  -8    3.40    2.80
   4  -3  -8    3.40    2.70
  -4   3  -8   -0.80    2.30
  -4  -3  -8    1.30    2.60
  -4   3   8    8.20    2.90
   4   3  -8    6.00    2.90
  -4  -3  -8    4.20    2.70
   4  -3   8    5.00    2.60
  -4  -3   9   80.39    6.40
   4  -3  -9   69.49    6.70
   4  -3  -9   69.99    6.50
  -4   3  -9   77.79    7.00
  -4  -3  -9   69.19    6.60
  -4  -3  -9   68.99    6.90
   4  -3   9   88.69    6.80
  -4   3   9   71.29    5.80
   4  -3 -10   30.20    5.50
   4  -3 -10   34.80    5.20
  -4   3 -10   28.10    5.80
  -4  -3 -10   31.20    5.40
   4  -4   0  448.26   16.40
  -4   4   0  466.35   15.70
   4  -4   0  466.65   16.80
  -4  -4   0  472.45   14.60
  -4   4   0  476.45   17.30
   4  -4   0  500.45   16.90
  -4   4   0  480.85   16.40
  -4  -4   0  457.35   16.90
  -4  -4   0  492.25   15.00
  -4  -4   0  468.55   15.60
   4   4   0  465.45   17.60
   4  -4  -1   76.69    4.60
  -4  -4   1   73.09    3.70
  -4  -4   1   64.69    4.90
   4  -4  -1   75.89    5.00
   4  -4  -1   72.39    4.70
  -4   4  -1   66.49    4.30
  -4   4  -1   70.39    4.40
   4   4   1   76.99    5.50
  -4  -4   1   74.79    3.90
  -4   4  -1   76.89    5.30
  -4   4  -1   66.99    4.30
  -4  -4  -1   76.09    3.30
  -4   4   1   68.79    4.40
  -4  -4  -1   73.59    4.40
   4  -4   1   71.79    4.90
   4   4  -1   72.19    5.70
   4  -4   1   68.69    4.50
  -4   4   1   73.29    5.30
  -4   4   1   67.69    3.90
  -4  -4  -1   71.49    4.40
  -4  -4  -1   61.29    5.20
  -4   4  -2  477.15   17.10
  -4  -4   2  475.45   15.00
   4  -4  -2  481.75   15.90
  -4   4  -2  490.45   16.90
  -4  -4   2  447.06   17.30
   4  -4  -2  440.66   16.40
  -4   4  -2  437.06   16.70
  -4   4  -2  441.86   16.10
   4   4   2  469.55   17.10
  -4  -4   2  471.55   15.50
   4  -4  -2  471.95   16.70
   4   4  -2  454.85   14.80
  -4  -4  -2  474.95   14.30
   4  -4   2  473.35   17.40
   4   4  -2  463.45   18.00
  -4  -4  -2  439.26   16.60
   4  -4   2  428.26   16.20
   4   4  -2  474.35   14.30
  -4   4   2  459.15   15.30
  -4  -4  -2  489.85   16.40
  -4   4   2  476.15   17.20
   4  -4  -3  196.98    8.50
   4   4   3  196.38    9.20
  -4   4  -3  184.98    9.00
  -4  -4   3  206.98    7.70
  -4  -4   3  195.98    8.40
  -4   4  -3  188.28    8.70
  -4   4  -3  204.08    8.90
  -4   4  -3  192.38    9.40
   4  -4  -3  193.28    9.20
   4  -4   3  190.88    8.50
   4   4  -3  197.18    7.60
   4   4  -3  193.48    6.70
  -4  -4  -3  192.98    8.90
   4  -4   3  209.98   10.70
  -4   4   3  207.18    9.70
  -4  -4  -3  210.08    7.50
  -4   4  -4  268.67   11.20
   4   4   4  280.57   11.40
   4  -4  -4  265.27   11.60
  -4   4  -4  255.27   11.60
  -4  -4   4  279.67   13.10
  -4   4   4  278.37   12.00
   4  -4   4  257.67   12.40
   4  -4   4  253.87   10.50
   4   4  -4  260.77   10.10
  -4  -4  -4  264.47   11.40
  -4  -4  -4  256.87    9.80
   4   4  -4  264.57    9.00
  -4  -4  -4  236.58   10.10
  -4  -4   5   61.49    4.80
   4  -4  -5   54.79    5.30
   4   4   5   58.89    4.80
   4  -4  -5   59.79    5.00
  -4  -4   5   59.89    5.40
  -4   4  -5   53.19    4.90
   4  -4   5   53.39    3.90
  -4  -4  -5   53.59    4.20
   4   4  -5   54.09    4.40
   4   4  -5   57.89    2.70
  -4   4   5   69.69    5.80
   4  -4   5   72.49    6.10
  -4  -4  -5   62.99    5.40
  -4  -4  -5   53.99    3.80
  -4   4  -6  186.48    9.80
  -4  -4   6  185.98   10.30
   4  -4  -6  197.38    9.70
   4   4   6  193.78    8.90
   4  -4  -6  193.28   10.10
   4  -4   6  180.88    8.60
  -4  -4  -6  169.98    8.00
   4   4  -6  177.68    8.80
  -4  -4  -6  184.18    8.90
  -4  -4  -6  170.48    9.80
   4  -4   6  187.08   10.10
   4  -4   6  174.08    8.00
  -4   4   6  182.78   10.00
  -4   4  -7    3.40    2.40
   4  -4  -7    4.40    2.50
   4  -4  -7    6.10    3.00
  -4  -4   7   10.20    3.80
   4   4   7    2.90    1.80
   4  -4   7    6.80    3.00
  -4  -4  -7    5.00    2.40
  -4   4   7    7.60    3.00
  -4  -4  -7    5.70    3.00
   4  -4   7    4.70    1.90
   4   4  -7    7.70    2.60
   4  -4  -8   68.39    9.50
  -4  -4   8   64.49    6.70
   4   4   8   55.69    3.50
  -4   4  -8   50.19    5.60
   4  -4  -8   53.49    8.70
  -4  -4  -8   57.29    5.70
  -4   4   8   54.99    5.70
   4  -4   8   56.99    5.50
  -4  -4  -8   56.89    7.50
   4   4  -8   53.29    5.60
   4  -4   8   48.50    3.60
  -4   4  -9   11.20    3.90
   4  -4  -9   18.80    4.40
  -4  -4   9   18.70    3.90
  -4  -4  -9   13.90    3.70
  -4   4   9   20.40    4.30
  -4  -4  -9   17.80    4.80
   4  -4   9   15.20    3.70
   4  -5   0  693.13   24.00
   4   5   0  706.43   25.40
  -4   5   0  716.23   25.00
  -4  -5   0  699.63   22.80
   4  -5   0  712.83   24.20
  -4  -5   0  706.53   22.20
   4   5   1  668.43   24.20
   4  -5  -1  671.93   22.70
   4  -5  -1  653.03   23.00
  -4  -5   1  663.53   21.50
  -4   5  -1  684.93   24.10
  -4   5  -1  672.53   21.90
  -4  -5   1  666.43   21.20
  -4   5   1  686.03   24.10
  -4  -5  -1  658.23   22.20
  -4  -5  -1  667.23   23.50
   4   5  -1  674.53   24.60
   4  -5   1  684.53   23.20
  -4  -5  -1  654.23   20.80
   4  -5  -2   44.00    3.90
  -4  -5   2   39.80    3.40
  -4  -5   2   41.20    3.40
   4  -5  -2   39.00    5.00
  -4   5  -2   39.20    3.70
   4   5   2   41.10    5.40
  -4   5  -2   43.90    4.90
   4  -5   2   42.00    5.30
   4   5  -2   41.00    2.30
  -4  -5  -2   44.50    2.90
  -4  -5  -2   42.30    4.00
  -4  -5   3  407.46   14.50
  -4  -5   3  393.26   14.80
  -4   5  -3  419.06   16.70
   4   5   3  421.46   16.50
   4  -5  -3  389.86   14.80
   4  -5  -3  394.86   15.90
  -4   5   3  429.46   16.80
   4   5  -3  393.36   13.30
  -4  -5  -3  409.16   15.70
   4  -5   3  402.46   17.20
  -4  -5  -3  408.96   13.60
   4   5  -3  387.46   12.90
  -4  -5   4  147.39    6.10
   4  -5  -4  140.29    8.40
   4   5   4  139.39    8.30
  -4   5  -4  140.39    7.70
  -4  -5   4  142.59    7.70
  -4   5  -4  144.49    8.90
   4  -5  -4  139.89    7.60
  -4  -5  -4  148.49    8.50
  -4   5   4  147.69    8.90
   4   5  -4  137.19    5.40
   4   5  -4  147.89    6.70
   4  -5   4  137.39    9.30
  -4  -5  -4  143.79    6.60
   4  -5  -5   28.40    5.00
  -4   5  -5   26.90    4.20
  -4  -5   5   30.60    4.80
   4  -5  -5   32.30    4.80
  -4  -5   5   30.90    3.50
  -4  -5   5   25.90    2.10
   4   5   5   34.70    5.10
   4   5  -5   28.10    1.80
  -4  -5  -5   29.70    3.80
  -4  -5  -5   26.20    4.50
   4   5  -5   27.30    3.10
  -4   5   5   30.40    5.20
   4  -5   5   37.80    6.10
  -4   5  -6    2.20    2.00
   4  -5  -6    0.80    2.20
   4  -5  -6    1.10    2.60
   4   5   6   -1.20    2.10
  -4  -5   6    1.30    2.60
  -4  -5  -6    2.00    1.90
  -4   5   6    4.50    2.80
   4  -5   6    2.70    2.70
  -4  -5  -6    0.40    2.40
   4   5  -6    1.00    1.60
  -4   5  -7    4.30    2.40
   4  -5  -7    0.30    2.40
  -4  -5   7    2.40    2.90
   4  -5  -7    1.40    2.70
   4   5  -7   -1.20    2.30
   4  -5   7    0.50    1.90
  -4   5   7    2.70    2.60
   4  -5   7    1.80    2.30
  -4  -5  -7    2.90    2.60
  -4  -5  -7   -0.10    1.80
   4  -5  -8    2.50    2.90
  -4   5  -8    0.30    2.80
   4   5   8    0.00    1.90
  -4  -5   8   14.00    4.50
   4  -5  -8    2.70    2.90
  -4  -5  -8    2.50    2.60
   4  -5   8    2.90    2.10
  -4   5   8    1.10    2.50
  -4  -5  -8    1.60    2.30
   4  -5  -9   51.49    6.70
   4  -5  -9   53.09    7.10
  -4  -5   9   56.69    7.30
  -4   5   9   56.99    6.00
   4  -5   9   54.59    5.70
  -4  -5  -9   49.60    7.50
  -4   6   0 1270.47   38.60
  -4  -6   0 1243.98   39.20
  -4   6   0 1284.27   42.10
   4   6   0 1307.27   42.70
   4  -6   0 1231.78   40.70
   4  -6   0 1278.87   40.70
   4  -6  -1   43.00    4.90
  -4  -6   1   39.50    3.90
  -4   6  -1   45.70    3.70
   4   6   1   73.19    8.50
   4  -6  -1   47.40    4.90
  -4   6  -1   52.29    5.80
  -4   6   1   45.00    3.60
   4   6  -1   51.09    7.10
  -4   6   1   55.29    7.10
  -4  -6  -1   45.10    3.80
  -4  -6  -1   46.90    5.20
   4  -6   1   45.90    4.90
   4  -6  -2   53.09    5.40
  -4  -6   2   57.69    4.50
   4  -6  -2   66.39    5.30
  -4   6  -2   61.79    6.30
   4   6   2   58.19    6.20
  -4  -6  -2   58.09    4.00
  -4   6   2   61.59    6.40
   4   6  -2   61.29    6.80
   4  -6   2   56.29    5.60
  -4  -6  -2   54.89    5.10
   4  -6  -3   36.50    5.20
   4  -6  -3   42.10    4.30
  -4  -6   3   35.10    3.90
   4   6   3   48.80    6.50
  -4   6  -3   43.00    6.20
  -4   6  -3   40.20    4.00
  -4  -6   3   37.30    3.80
  -4  -6  -3   42.20    3.60
  -4   6   3   52.69    6.90
  -4  -6  -3   48.50    5.10
   4  -6   3   42.70    6.40
   4   6  -3   39.00    2.60
   4   6   4    4.40    3.00
   4  -6  -4    6.40    2.40
  -4  -6   4    7.10    2.20
  -4  -6   4    5.90    1.90
  -4   6  -4    4.00    2.10
  -4   6  -4    1.80    3.00
   4  -6  -4   10.10    3.40
  -4  -6  -4    4.10    1.90
  -4  -6  -4    9.90    3.40
   4   6  -4    7.00    1.60
   4  -6   4    4.30    3.40
  -4   6   4    1.10    2.90
  -4   6  -5   19.90    3.60
  -4  -6   5   26.00    2.30
  -4   6  -5   29.30    5.40
   4  -6  -5   27.50    5.10
  -4  -6   5   27.10    4.20
   4   6   5   26.50    5.10
   4  -6  -5   18.70    3.50
  -4  -6  -5   37.30    6.00
  -4   6   5   32.30    5.90
   4   6  -5   26.70    3.50
   4  -6   5   28.50    5.30
  -4  -6  -5   32.20    4.20
   4   6   6    0.30    2.50
  -4   6  -6    0.20    1.80
   4  -6  -6    4.30    2.60
  -4  -6   6    1.40    2.80
   4  -6  -6    3.80    3.30
  -4   6   6    0.90    3.00
   4  -6   6    3.50    2.80
  -4  -6  -6    4.20    2.20
  -4  -6  -6    2.30    3.40
  -4  -6   7    4.80    3.00
  -4   6  -7    3.00    2.70
   4  -6  -7    3.60    3.00
   4  -6  -7    0.30    2.30
   4   6   7    2.20    2.10
  -4   6   7    0.40    2.70
  -4  -6  -7    0.10    2.00
  -4  -6  -7   -0.50    2.60
   4  -6   7    4.50    2.40
   4  -6   7    2.80    2.40
   4  -6  -8   15.10    3.90
  -4  -6   8    8.80    3.80
   4   6   8    9.40    5.20
  -4  -6  -8    9.30    3.10
  -4  -6  -8    8.10    3.40
   4  -6   8    2.40    3.20
  -4   6   8   16.70    4.10
   4  -7   0  263.87   12.90
  -4   7   0  278.67   14.50
  -4   7   0  254.77   10.50
  -4  -7   0  273.87   12.00
   4   7   0  284.77   14.90
   4  -7  -1  242.18   12.20
  -4   7  -1  239.58   10.10
   4   7   1  248.28   13.80
   4  -7  -1  236.58   12.20
  -4   7  -1  258.57   13.80
  -4  -7  -1  237.38   11.40
   4  -7   1  247.68   12.30
  -4   7   1  236.68    9.60
  -4  -7  -1  245.38   10.70
  -4   7   1  266.47   14.00
   4   7  -1  246.28   14.10
   4  -7  -2   20.40    4.10
   4  -7  -2   35.30    5.20
  -4   7  -2   26.00    3.60
  -4   7  -2   27.50    5.90
   4   7   2   21.50    5.10
  -4  -7   2   31.50    4.50
  -4  -7  -2   26.70    3.80
  -4  -7  -2   30.20    5.20
   4   7  -2   29.00    5.90
   4  -7   2   29.70    5.40
  -4   7   2   24.70    5.60
  -4   7   2   33.50    2.80
  -4   7  -3  257.37   11.10
  -4   7  -3  265.87   14.20
   4   7   3  269.87   14.20
   4  -7  -3  245.38   11.80
   4  -7  -3  233.68   12.70
  -4  -7   3  234.88   11.30
  -4   7   3  254.97   13.90
  -4  -7  -3  264.07   12.80
   4  -7   3  234.68   13.50
  -4  -7  -3  253.17   10.70
   4  -7  -4   65.49    6.80
  -4   7  -4   55.09    5.20
  -4   7  -4   70.19    7.40
   4  -7  -4   54.49    5.50
  -4  -7   4   68.29    4.90
   4   7   4   70.89    7.30
  -4  -7  -4   71.69    5.20
  -4  -7  -4   70.09    6.80
   4  -7   4   79.49    7.80
  -4   7   4   65.89    8.30
  -4   7  -5    3.30    3.70
  -4   7  -5    2.30    2.00
   4  -7  -5    2.60    3.20
  -4  -7   5    5.20    1.60
   4   7   5   12.80    4.00
   4  -7  -5    6.80    3.50
  -4  -7  -5    6.70    3.50
  -4  -7  -5    6.10    2.60
  -4   7   5    8.00    4.00
   4  -7   5    3.50    3.10
   4   7   6    2.50    2.90
  -4  -7   6    1.40    2.90
   4  -7  -6    1.80    3.00
   4  -7  -6    4.50    2.70
   4  -7   6    6.20    3.10
  -4  -7  -6   -2.40    2.40
  -4  -7  -6    1.40    2.10
  -4   7   6    1.00    2.70
   4  -7  -7    3.50    2.90
  -4  -7   7    3.40    3.20
   4   7   7    7.10    3.40
   4  -7  -7    4.40    3.30
  -4   7   7    4.80    3.50
  -4  -7  -7    4.90    3.70
   4  -7   7    1.80    2.70
   4  -7   7    6.50    2.60
  -4  -7  -7    0.30    2.10
   4  -7  -8   -1.80    2.40
   4  -7  -8    4.60    3.20
  -4  -7   8    3.60    3.10
  -4   7   8    7.40    3.50
  -4  -7  -8   -0.50    2.70
  -4  -7  -8    2.50    2.40
   4  -8   0   23.50    4.70
  -4   8   0   25.80    6.00
  -4  -8   0   32.00    5.00
  -4   8   0   30.10    2.70
   4   8   0   30.40    6.80
  -4   8  -1    2.60    3.60
   4  -8  -1    5.10    3.00
  -4  -8   1    6.20    2.90
   4  -8  -1    6.30    3.10
  -4   8  -1    4.50    1.60
   4   8   1    5.40    4.00
  -4   8   1    6.40    1.40
   4  -8   1    4.80    3.20
  -4   8   1    9.50    4.30
   4   8  -1   -0.50    3.50
  -4  -8  -1    4.00    2.80
   4   8   2   71.19    8.10
  -4   8  -2   56.89    4.70
  -4  -8   2   71.89    6.00
  -4   8  -2   74.59    8.30
   4  -8  -2   71.99    6.80
   4  -8  -2   67.59    6.90
   4  -8   2   78.29    7.50
  -4   8   2   85.79   10.30
   4   8  -2   81.19   10.40
  -4  -8  -2   77.99    6.00
  -4  -8  -2   74.29    6.70
  -4   8  -3   32.10    4.70
  -4   8  -3   30.60    6.30
   4   8   3   40.40    7.20
  -4  -8   3   31.50    5.10
   4  -8  -3   29.70    4.90
  -4   8   3   37.90    7.10
   4  -8   3   32.20    6.30
  -4  -8  -3   32.10    4.80
  -4  -8  -3   33.40    5.30
   4  -8  -4   68.29    6.50
  -4  -8   4   65.49    5.10
  -4   8  -4   69.69    9.40
   4   8   4   65.99    8.90
   4  -8  -4   71.29    7.40
  -4  -8  -4   72.49    5.80
  -4  -8  -4   72.59    7.30
   4  -8   4   57.99    8.30
  -4   8   4   62.09    8.60
  -4  -8   5    8.00    2.90
   4  -8  -5   10.40    4.00
  -4   8  -5    7.20    4.50
   4  -8  -5   16.10    4.10
  -4  -8  -5    9.60    4.00
   4  -8   5    8.00    3.20
  -4   8   5   11.90    4.70
  -4  -8  -5    9.50    3.00
  -4  -8   6   39.70    6.50
   4  -8  -6   35.30    5.60
   4   8   6   44.70    7.00
   4  -8  -6   34.80    6.40
  -4  -8  -6   37.20    6.30
  -4   8   6   53.19    8.10
  -4  -8  -6   43.50    5.80
   4  -8   6   53.89    5.50
   4  -8  -7    5.30    3.70
  -4  -8   7   -1.40    2.90
   4  -8  -7    2.70    2.40
   4   8   7    3.30    3.00
   4  -8   7    5.80    2.20
   4  -8   7   -1.60    2.90
  -4  -8  -7    6.60    2.80
  -4   8   7   11.10    3.80
  -4  -8  -7    2.80    3.20
  -4   9   0  108.49   10.20
   4  -9   0  109.69   10.60
   4   9   0  104.49   10.40
  -4  -9   0  102.99    7.90
   4   9   1  103.59   10.30
  -4  -9   1   97.49    7.60
  -4   9  -1  103.49   10.40
   4  -9  -1  117.09    9.20
  -4   9   1  126.69   11.00
  -4  -9  -1  117.99    8.50
   4  -9   1  110.59   10.20
   4   9  -1  111.89   10.60
  -4   9  -2   14.80    5.60
  -4  -9   2   10.60    3.20
   4   9   2    3.00    4.10
   4  -9  -2    6.30    3.60
   4  -9  -2    4.60    3.20
  -4  -9  -2   11.70    4.10
   4  -9   2    8.80    3.90
  -4   9   2   11.00    5.20
  -4  -9  -2   10.10    3.20
   4   9  -2   12.80    5.00
  -4  -9   3   49.30    5.30
  -4   9  -3   62.99    9.60
   4   9   3   54.29    8.30
   4  -9  -3   53.29    7.20
   4  -9  -3   55.59    8.20
  -4   9   3   55.49    9.00
   4  -9   3   67.29   11.60
  -4  -9  -3   49.90    7.00
  -4  -9  -3   52.89    5.50
   4   9   4   24.20    5.70
   4  -9  -4   22.40    5.30
   4  -9  -4   21.60    4.70
  -4  -9   4   33.60    3.60
  -4   9  -4   21.60    5.90
  -4   9   4   14.30    5.30
   4  -9   4   32.50    6.70
  -4  -9  -4   16.50    3.90
  -4  -9  -4   22.00    5.40
   4  -9  -5    4.80    2.90
   4  -9  -5    3.40    3.90
   4   9   5    2.20    3.20
  -4  -9  -5    8.10    4.40
   4  -9   5    2.80    2.60
  -4  -9  -5    5.60    2.70
  -4   9   5    8.60    4.20
   4  -9  -6   -2.60    3.00
   4  -9  -6   -1.70    2.40
   4   9   6    5.60    3.50
   4  -9   6    7.10    2.60
  -4  -9  -6    7.30    3.80
  -4   9   6    1.00    5.50
  -4  -9  -6    4.10    2.60
   4  10   0  150.28   12.90
   4 -10   0  134.79   10.40
  -4 -10   0  146.79    9.70
  -4  10   0  148.39   12.90
   4 -10  -1    6.30    3.40
   4  10   1    6.80    4.50
  -4  10  -1   22.60    7.00
  -4 -10   1    4.10    2.10
  -4 -10  -1    7.50    3.30
   4 -10   1    3.70    3.30
  -4  10   1    2.60    4.70
   4  10  -1   10.40    5.30
  -4 -10   2    8.60    2.90
   4 -10  -2    7.90    4.10
  -4  10  -2   16.30    5.60
   4  10   2    2.60    3.70
   4  10  -2    2.30    4.20
   4 -10   2    5.20    3.50
  -4 -10  -2    1.00    2.40
  -4  10   2    7.60    4.70
   4 -10  -3    8.80    4.00
   4  10   3   10.30    4.90
  -4  10  -3    9.90    4.90
   4 -10  -3    9.40    4.00
  -4 -10   3    6.10    2.50
   4 -10   3   13.30    4.70
  -4  10   3    1.20    4.00
  -4 -10  -3   10.00    3.90
  -4  10  -4    3.80    3.80
   4  10   4   10.70    4.20
   4 -10  -4    0.60    2.80
   4 -10  -4    1.20    2.90
  -4 -10  -4    3.90    4.50
  -4  10   4    5.70    3.60
  -4 -10  -4    2.40    2.50
   4 -10   4   11.30    3.70
  -4  11   0   23.20    6.20
   4  11   0   29.90    6.70
   4 -11   0   23.30    6.00
  -4 -11   0   30.50    5.40
  -5   0   0    0.20    0.70
  -5   0   0    0.10    1.00
   5   0   0    0.50    1.00
   5   0   0    2.80    1.30
  -5   0  -1 1757.72   51.59
   5   0  -1 1849.21   51.69
  -5   0   1 1899.51   51.89
  -5   0  -1 1822.52   52.79
  -5   0   1 1931.11   53.19
   5   0  -1 1795.92   52.89
   5   0   1 1821.52   52.99
  -5   0   1 1874.01   51.59
   5   0   1 1699.53   51.49
  -5   0  -2  610.84   20.60
   5   0   2  671.53   21.10
   5   0  -2  648.84   19.70
   5   0  -2  668.03   19.20
  -5   0   2  650.13   21.10
  -5   0  -2  648.24   18.30
   5   0  -2  646.44   20.90
  -5   0  -2  665.93   19.70
  -5   0  -2  645.24   18.40
  -5   0   2  659.33   19.00
   5   0   3 1444.36   43.70
   5   0  -3 1478.85   41.50
  -5   0  -3 1504.95   42.50
   5   0  -3 1510.05   41.80
  -5   0   3 1444.06   42.60
   5   0  -3 1336.07   43.30
  -5   0  -3 1402.66   43.50
  -5   0   3 1425.26   43.70
   5   0  -3 1511.35   42.60
  -5   0  -4   40.20    3.30
  -5   0  -4   45.40    3.90
  -5   0   4   44.60    3.40
   5   0   4   44.50    4.10
   5   0  -4   37.20    2.70
   5   0  -4   39.80    3.50
   5   0  -4   47.30    3.50
  -5   0   4   42.50    4.00
   5   0  -4   46.00    2.80
   5   0  -5  829.22   24.70
  -5   0  -5  838.82   26.20
  -5   0   5  791.42   26.80
   5   0  -5  809.92   26.00
   5   0  -5  754.82   26.20
   5   0   5  805.92   27.00
   5   0  -5  808.82   25.30
  -5   0   6  286.77   12.20
   5   0  -6  245.18   12.60
   5   0   6  264.57   12.40
   5   0  -6  272.67   11.60
  -5   0  -6  277.97   11.70
   5   0  -6  275.77   10.30
   5   0  -7  463.05   16.10
  -5   0  -7  470.05   18.00
   5   0  -7  457.65   17.80
  -5   0   7  474.45   17.80
   5   0   7  442.96   18.40
   5   0  -8   74.19    6.40
   5   0  -8   78.89    6.00
  -5   0  -8   93.29    7.20
  -5   0   8   78.39    6.20
   5   0  -9   49.60    6.90
  -5   0  -9   53.89    7.60
   5   0  -9   39.30    4.00
  -5   0   9   36.70    4.90
   5   0 -10   10.70    4.30
  -5   0 -10   11.60    3.50
   5   0 -10   15.30    4.30
  -5   0  10    7.10    3.50
   5  -1   0    0.20    0.80
  -5  -1   0    0.10    0.80
  -5  -1   0   -0.10    0.60
   5  -1   0    0.50    0.90
   5   1   0    1.10    0.90
  -5   1   0    0.10    0.90
  -5   1   0    0.60    0.90
   5  -1   0   -0.40    1.00
  -5   1   0    0.80    0.90
  -5  -1   0    0.60    0.50
  -5  -1   1  980.20   27.50
   5  -1  -1  932.11   28.40
  -5   1  -1  959.00   27.70
  -5   1  -1  923.71   29.20
  -5  -1   1  979.90   28.50
  -5  -1   1  970.50   27.20
   5  -1  -1  913.41   27.90
   5   1   1  908.41   28.40
   5  -1  -1  980.90   28.20
   5   1  -1  973.40   27.00
   5  -1   1  956.90   29.60
  -5  -1  -1  937.81   28.00
  -5   1   1  931.91   28.00
   5  -1   1  943.71   27.60
  -5  -1  -1  929.51   28.40
  -5   1   1  997.10   28.20
  -5   1   1  982.70   28.70
   5   1  -1  965.10   27.20
  -5  -1   2  902.21   27.60
   5  -1  -2  885.91   26.70
  -5   1  -2  902.81   26.00
   5  -1  -2  885.01   26.90
   5  -1  -2  882.11   27.60
  -5   1  -2  908.21   28.60
  -5   1  -2  905.11   27.10
  -5  -1   2  897.71   26.70
   5   1   2  869.71   27.60
  -5  -1  -2  892.41   27.70
   5  -1   2  925.31   25.80
  -5  -1  -2  918.41   26.10
  -5  -1  -2  895.61   25.90
  -5   1   2  957.80   27.90
  -5   1   2  891.21   27.20
  -5   1   2  888.41   26.60
  -5   1  -3  114.59    5.60
   5  -1  -3  116.49    5.10
   5  -1  -3  111.89    5.40
  -5  -1   3  119.09    6.40
  -5  -1   3  116.39    5.40
  -5   1  -3  114.09    6.40
   5  -1  -3  115.89    6.30
   5   1   3  121.69    6.30
  -5   1   3  117.29    6.10
  -5  -1  -3  118.69    5.00
   5  -1   3  116.19    6.40
   5   1  -3  117.69    3.90
   5  -1   3  115.49    3.90
   5   1  -3  115.39    5.20
  -5  -1  -3  115.39    6.10
  -5   1   3  120.99    5.50
  -5  -1  -3  118.99    3.80
   5   1  -3  126.59    4.20
   5  -1  -4  508.15   17.10
   5  -1  -4  546.55   16.90
   5   1   4  514.45   18.40
  -5  -1   4  501.15   17.40
  -5   1  -4  535.85   17.70
  -5   1  -4  500.75   18.70
  -5  -1   4  526.25   19.00
   5  -1  -4  525.65   17.40
   5  -1  -4  514.65   23.00
  -5   1   4  527.55   18.10
   5   1  -4  511.15   17.20
  -5  -1  -4  504.25   18.40
  -5   1   4  499.45   17.30
   5   1  -4  505.85   15.70
  -5  -1  -4  528.15   17.00
   5  -1   4  516.95   18.50
   5   1  -4  520.05   16.00
   5  -1  -5  444.46   14.90
   5   1   5  435.16   16.70
   5  -1  -5  385.76   15.90
   5  -1  -5  433.66   15.60
  -5   1  -5  427.56   15.70
  -5  -1   5  422.56   15.70
  -5  -1   5  432.56   16.80
   5   1  -5  443.16   13.60
   5   1  -5  419.66   14.30
  -5   1   5  411.96   15.40
   5  -1   5  430.06   16.50
   5   1  -5  423.66   15.40
  -5   1   5  458.85   16.20
   5  -1  -6  201.28    9.70
   5   1   6  200.18   10.40
  -5  -1   6  195.28   10.30
  -5   1  -6  222.98   10.10
   5  -1  -6  205.68    8.90
   5  -1   6  207.38   10.40
   5   1  -6  205.78    7.80
  -5  -1  -6  198.98    9.50
   5   1  -6  197.28    8.60
  -5   1   6  212.88    9.90
   5   1  -6  212.38    9.70
  -5  -1   7   57.19    5.50
  -5   1  -7   51.39    5.30
   5  -1  -7   55.19    5.30
  -5  -1  -7   61.49    5.50
   5   1  -7   51.19    5.10
   5   1  -7   54.69    4.60
  -5   1   7   51.89    5.00
   5  -1   7   56.49    5.70
   5   1  -7   55.89    3.70
   5  -1  -8   28.00    4.60
   5  -1  -8   30.90    4.30
  -5  -1   8   31.80    4.80
  -5   1  -8   18.70    3.90
   5   1  -8   27.20    3.00
   5   1  -8   36.60    5.30
  -5   1   8   32.80    4.80
  -5  -1  -8   25.50    4.80
   5  -1  -9    5.90    3.10
  -5   1  -9    5.80    3.00
   5  -1  -9    5.90    2.30
  -5  -1   9    5.70    2.70
   5   1  -9   12.00    3.40
  -5   1   9    2.60    2.30
   5   1  -9    3.20    2.00
  -5  -1  -9    4.80    3.00
  -5  -1  10    0.00    3.50
   5  -1 -10   -0.60    2.50
   5  -1 -10    3.70    2.40
  -5   1 -10    1.90    2.50
  -5   1  10    2.80    3.40
  -5  -1 -10    5.90    2.80
   5  -2   0    0.60    1.20
   5  -2   0    0.70    1.00
  -5  -2   0    0.60    0.90
  -5  -2   0    0.10    1.10
   5  -2   0    0.40    1.10
  -5   2   0   -0.40    1.00
  -5   2   0    1.40    1.10
  -5  -2   1   47.90    2.20
  -5   2  -1   49.90    3.10
  -5  -2   1   49.10    2.30
  -5   2  -1   49.70    3.50
  -5  -2   1   46.80    3.80
  -5   2  -1   51.09    3.80
   5   2   1   48.80    3.40
   5  -2  -1   47.60    3.00
  -5  -2   1   48.50    2.00
   5  -2  -1   46.70    3.10
   5   2   1   46.50    3.10
   5  -2  -1   45.80    3.20
  -5  -2  -1   47.50    3.10
  -5   2   1   46.80    3.00
   5  -2   1   49.20    2.90
  -5  -2  -1   48.90    3.10
  -5   2   1   49.80    3.50
   5  -2   1   39.40    3.50
  -5   2   1   46.90    3.00
  -5   2  -2   13.90    2.80
  -5   2  -2   10.30    1.70
   5   2   2    8.40    1.70
  -5   2  -2   12.10    2.30
  -5  -2   2   13.00    1.90
   5  -2  -2   10.10    1.90
   5   2   2   11.40    2.40
   5  -2  -2    9.60    1.90
   5  -2  -2   14.50    2.30
  -5  -2   2   10.50    2.40
  -5  -2  -2    8.00    1.80
  -5   2   2   12.50    2.00
  -5   2   2   12.30    2.30
  -5  -2  -2    9.20    1.00
   5   2  -2   10.10    1.40
   5  -2   2   14.80    3.20
  -5   2   2    9.00    1.60
  -5  -2  -2   10.30    1.60
   5  -2   2   11.70    1.70
   5  -2  -3 1869.51   54.39
   5   2   3 1907.71   53.59
  -5  -2   3 1872.71   54.99
   5  -2  -3 1936.21   54.49
  -5  -2   3 1892.01   54.29
  -5   2  -3 1768.52   55.99
   5  -2  -3 1812.92   54.79
  -5   2  -3 1899.11   53.79
   5   2   3 1778.62   55.19
  -5  -2   3 1838.82   56.19
  -5   2  -3 1941.81   54.89
  -5  -2  -3 1832.62   55.49
  -5   2   3 1911.01   55.09
   5  -2   3 1795.52   56.19
  -5  -2  -3 1918.61   53.29
   5  -2   3 1857.11   53.19
  -5   2   3 1884.81   54.29
  -5  -2  -3 1840.22   53.09
   5   2   4  176.78    8.90
  -5  -2   4  185.08    9.40
  -5  -2   4  193.58    8.40
  -5   2  -4  186.88    8.50
   5  -2  -4  190.18    8.20
  -5   2  -4  187.98    9.60
   5  -2  -4  191.48    8.30
   5   2   4  186.28    7.10
  -5  -2   4  200.18    9.10
   5  -2  -4  199.28    8.90
   5  -2   4  207.68    9.70
   5   2  -4  196.18    8.00
  -5  -2  -4  189.68    7.60
  -5   2   4  201.68    8.80
   5  -2   4  189.58    6.80
  -5   2   4  180.48    8.00
  -5   2  -5   92.89    5.90
  -5  -2   5   80.39    5.40
   5  -2  -5   91.79    5.70
   5  -2  -5   90.19    5.50
   5   2   5   87.99    3.90
  -5  -2   5   95.49    6.80
   5   2  -5   81.99    3.60
  -5  -2  -5   90.09    5.30
   5  -2   5   97.49    6.60
   5  -2   5   93.09    5.00
  -5  -2  -5   91.99    4.10
   5   2  -5   89.59    3.50
  -5   2   5   88.49    6.00
   5   2  -5   84.69    5.40
  -5  -2   6  395.86   16.30
   5  -2  -6  427.26   16.50
  -5   2  -6  434.76   16.80
   5  -2   6  417.86   12.80
   5   2  -6  433.36   13.40
  -5   2   6  435.86   17.50
   5   2  -6  413.46   13.80
  -5  -2  -6  461.25   16.20
   5   2  -6  450.25   16.30
   5  -2   6  450.15   17.40
   5  -2   6  418.76   12.80
   5  -2  -7  529.25   19.20
   5  -2  -7  555.24   20.00
  -5   2  -7  528.55   20.10
  -5  -2   7  512.15   20.40
   5  -2   7  497.15   20.00
  -5  -2  -7  548.35   19.60
  -5   2   7  524.95   19.40
   5   2  -7  491.15   16.70
   5   2  -7  524.45   16.30
   5   2  -7  503.55   19.30
  -5  -2   8   16.60    4.00
   5  -2  -8   13.30    3.50
   5  -2  -8   10.80    3.20
  -5   2  -8    8.30    3.30
   5   2  -8   13.30    3.60
   5  -2   8    9.20    3.50
  -5  -2  -8    9.60    3.40
  -5   2   8   10.70    3.30
   5   2  -8   13.80    2.00
   5  -2  -9  103.99    7.10
   5  -2  -9  108.29    8.30
  -5   2  -9  107.19    8.20
   5   2  -9  104.59    9.60
   5  -2   9  103.89    7.80
  -5  -2  -9   94.69    7.70
  -5   2   9  105.19    7.00
   5  -2 -10    7.20    2.80
  -5   2 -10    7.80    3.70
   5  -2 -10   10.10    3.60
  -5  -2 -10    6.30    3.40
  -5  -2 -10   13.70    3.80
  -5  -3   0    0.60    0.80
  -5  -3   0    0.40    0.60
  -5   3   0   -0.30    0.80
   5  -3   0   -0.90    0.90
  -5  -3   0    0.10    0.50
   5  -3   0   -1.40    1.10
   5  -3   0    0.70    1.10
  -5   3   0   -0.40    0.90
   5   3   0   -0.10    1.50
  -5  -3   0    1.00    1.40
  -5   3   0    1.50    1.60
  -5  -3   0    1.30    1.00
   5  -3  -1  573.74   18.60
  -5   3  -1  595.24   19.10
  -5  -3   1  587.04   17.30
  -5  -3   1  583.64   17.30
   5  -3  -1  593.54   19.20
   5   3   1  562.24   19.30
  -5  -3   1  556.94   19.80
  -5   3  -1  582.64   19.10
   5  -3  -1  583.64   18.90
  -5   3  -1  584.24   19.10
  -5   3   1  573.04   18.80
   5  -3   1  553.04   18.50
  -5   3   1  560.04   19.10
  -5   3   1  572.74   18.30
   5   3  -1  586.44   20.20
   5  -3   1  565.04   19.30
  -5  -3  -1  563.94   18.60
  -5  -3  -1  561.24   18.90
  -5  -3   2  486.65   14.10
   5   3   2  472.85   16.40
  -5   3  -2  475.55   16.70
  -5   3  -2  478.55   16.60
  -5   3  -2  470.05   16.20
   5  -3  -2  481.75   16.40
  -5  -3   2  468.05   15.30
  -5   3  -2  496.55   16.40
   5  -3  -2  478.65   15.90
  -5  -3   2  475.45   14.30
  -5  -3  -2  465.85   16.60
  -5   3   2  446.86   15.50
   5   3  -2  471.15   14.50
  -5   3   2  498.35   17.10
   5  -3   2  492.15   17.80
  -5  -3  -2  453.65   15.80
   5  -3   2  469.75   15.70
  -5  -3  -2  490.85   14.10
  -5  -3   3   76.29    4.30
  -5   3  -3   66.99    4.60
  -5   3  -3   77.19    4.90
   5  -3  -3   76.89    4.60
   5   3   3   72.89    4.60
  -5  -3   3   67.79    5.20
   5  -3  -3   69.49    4.70
   5  -3  -3   68.19    4.60
  -5   3  -3   68.69    4.90
  -5  -3  -3   73.59    5.10
   5  -3   3   68.19    4.00
  -5   3   3   69.49    4.10
  -5   3   3   71.79    5.10
  -5  -3  -3   72.59    4.00
   5  -3   3   78.09    6.00
  -5  -3  -3   76.09    3.60
   5   3  -3   80.29    4.00
   5  -3  -4  385.06   14.50
   5  -3  -4  390.86   14.30
   5   3   4  416.56   13.90
  -5   3  -4  389.96   14.10
  -5  -3   4  360.46   15.20
  -5  -3   4  383.26   14.80
  -5   3  -4  342.87   15.00
  -5   3  -4  395.56   14.70
   5  -3   4  401.16   16.10
  -5  -3  -4  402.66   13.40
  -5  -3  -4  385.66   13.10
  -5   3   4  408.46   15.10
   5  -3   4  372.46   13.20
  -5   3  -5  302.67   12.60
   5   3   5  296.87   11.00
  -5  -3   5  291.77   12.30
   5  -3  -5  274.57   13.20
   5  -3  -5  308.07   12.40
  -5  -3   5  299.27   13.00
  -5  -3  -5  291.37   10.60
   5  -3   5  295.97   13.40
   5  -3   5  297.87   10.60
  -5  -3  -5  317.17   11.60
   5   3  -5  281.67   11.60
  -5   3   5  291.17   12.60
   5  -3  -6  156.78    8.50
  -5   3  -6  149.29    8.60
   5  -3  -6  152.38    8.30
  -5  -3   6  148.19    8.20
   5   3   6  155.28    6.60
  -5  -3   6  144.29    9.20
   5  -3   6  171.58    9.40
   5   3  -6  142.99    7.90
  -5   3   6  152.48    8.60
  -5  -3  -6  153.08    7.90
   5  -3   6  148.49    6.20
  -5  -3  -6  151.98    6.60
   5  -3   6  150.38    6.70
   5  -3  -7   46.10    5.10
  -5   3  -7   46.60    5.20
   5  -3  -7   61.49    5.60
  -5  -3   7   55.49    7.30
  -5  -3  -7   51.79    5.00
   5  -3   7   43.90    2.70
   5   3  -7   44.90    4.70
   5  -3   7   48.30    2.80
   5  -3   7   57.59    5.90
  -5   3   7   48.90    5.20
   5  -3  -8   18.10    4.20
  -5   3  -8   16.10    4.00
  -5  -3   8   13.10    4.30
   5  -3  -8   18.70    3.90
   5   3  -8   21.30    4.20
   5  -3   8   20.50    4.60
  -5   3   8   15.20    3.80
  -5  -3  -8   23.60    4.30
   5  -3  -9    4.70    3.20
  -5   3  -9    2.70    3.50
  -5  -3   9    1.20    2.60
   5  -3  -9    0.60    2.00
  -5  -3  -9    3.50    2.50
  -5   3   9    7.00    3.10
   5  -3   9    4.90    2.50
  -5  -3  -9   12.20    3.60
   5  -3 -10    5.90    2.90
  -5   3 -10    2.00    4.00
   5  -3 -10    2.40    2.70
  -5  -3 -10    2.30    2.50
  -5  -3 -10   -1.50    3.40
   5  -4   0    0.40    1.00
  -5  -4   0   -0.30    0.80
   5   4   0   -1.40    1.60
  -5   4   0    0.80    0.90
   5  -4   0   -1.10    1.40
  -5  -4   0    0.30    0.70
  -5  -4   0    1.50    1.20
  -5  -4   0    0.60    0.80
  -5   4   0    1.40    1.70
  -5  -4   0   -0.30    0.90
   5  -4   0   -1.10    1.10
  -5   4   0    3.70    1.50
   5  -4  -1  611.54   20.90
  -5   4  -1  637.34   21.30
  -5   4  -1  601.54   20.50
   5   4   1  618.44   21.50
  -5   4  -1  573.84   20.30
   5  -4  -1  611.34   20.70
  -5  -4   1  596.04   21.40
  -5  -4   1  635.14   19.10
   5  -4  -1  616.34   20.40
   5  -4   1  581.04   20.30
  -5   4   1  630.94   21.30
   5  -4   1  646.84   21.20
  -5  -4  -1  622.14   18.00
  -5   4   1  614.04   19.70
  -5  -4  -1  616.24   19.90
  -5   4   1  591.54   20.40
  -5  -4  -1  590.24   20.70
  -5  -4  -1  608.94   20.40
   5   4  -1  636.44   22.30
  -5   4  -2  326.87   12.20
   5   4   2  312.97   12.90
  -5  -4   2  298.07   11.10
  -5   4  -2  314.47   12.30
  -5   4  -2  332.07   13.60
   5  -4  -2  317.17   11.90
  -5   4  -2  334.57   13.00
  -5  -4   2  322.07   10.60
   5  -4  -2  320.27   12.60
   5   4  -2  313.27   10.30
  -5  -4  -2  323.77   10.00
  -5  -4  -2  306.97   12.40
  -5  -4  -2  325.97   12.00
  -5   4   2  322.37   13.10
   5  -4   2  350.66   13.70
   5  -4   2  293.77   11.80
  -5   4   2  304.07   11.30
  -5  -4  -2  276.47   12.70
   5   4  -2  309.67    9.90
  -5  -4   3  776.12   24.40
  -5   4  -3  764.62   25.00
   5   4   3  797.62   25.60
  -5   4  -3  771.42   25.60
   5  -4  -3  756.22   25.30
   5  -4  -3  756.02   24.60
  -5   4  -3  741.13   25.50
  -5  -4   3  762.12   22.60
  -5   4   3  776.22   26.00
   5  -4   3  755.92   27.20
   5  -4   3  713.63   24.40
  -5  -4  -3  742.23   23.90
   5   4  -3  775.22   23.20
   5  -4  -4   20.30    3.70
  -5   4  -4   16.70    2.80
   5  -4  -4   26.40    4.10
  -5  -4   4   18.50    2.90
   5   4   4   24.60    3.80
  -5   4  -4   25.60    4.20
   5  -4   4   19.00    4.00
  -5   4   4   28.20    5.10
   5   4  -4   25.40    3.20
   5  -4   4   23.40    3.20
  -5  -4  -4   23.30    2.50
  -5  -4   5  465.95   18.20
  -5  -4   5  447.96   17.50
  -5   4  -5  478.85   18.00
   5   4   5  478.45   17.10
   5  -4  -5  462.75   18.00
   5  -4  -5  491.05   17.70
  -5  -4  -5  470.15   17.20
   5   4  -5  512.05   17.70
   5  -4   5  442.46   16.20
  -5   4   5  454.35   18.20
  -5  -4  -5  471.55   16.40
   5  -4   5  467.55   19.00
   5   4   6  139.29    7.30
  -5  -4   6  137.19    9.00
   5  -4  -6  149.88    8.40
  -5   4  -6  149.49    8.70
   5  -4  -6  148.79    8.80
   5   4  -6  125.49    7.40
  -5   4   6  146.29    8.90
   5  -4   6  144.29    7.20
   5  -4   6  133.99    6.60
   5  -4   6  157.78    9.50
  -5  -4  -6  154.78    7.80
   5   4   7  259.17   10.20
  -5   4  -7  264.77   14.80
   5  -4  -7  264.77   12.90
  -5  -4   7  287.17   14.40
   5  -4  -7  262.77   12.60
   5  -4   7  271.57   13.10
   5  -4   7  263.37   10.70
  -5  -4  -7  240.98   11.60
   5   4  -7  265.87   11.90
  -5  -4  -7  248.08   12.90
  -5   4   7  241.58   12.50
  -5   4  -8   36.00    5.40
  -5  -4   8   52.79    7.20
   5  -4  -8   46.40    6.30
   5  -4  -8   50.29    8.00
   5   4  -8   56.09    9.30
  -5  -4  -8   42.70    5.90
   5  -4   8   43.10    6.10
   5  -4   8   36.60    2.90
  -5   4   8   48.00    5.30
  -5  -4  -8   40.60    5.30
   5  -4  -9   23.30    4.90
  -5   4  -9   15.00    4.20
  -5  -4   9   23.10    5.20
   5  -4  -9   30.90    5.50
  -5  -4  -9   19.00    4.30
  -5   4   9   26.80    4.80
  -5  -4  -9   20.00    4.50
   5  -5   0   -0.80    1.60
  -5  -5   0    0.10    1.30
   5  -5   0   -1.10    1.60
  -5  -5   0    0.00    0.80
   5   5   0   -0.20    2.50
  -5   5   0   -0.70    2.20
  -5  -5   1  203.88    8.20
  -5  -5   1  207.98    8.50
   5  -5  -1  209.38   10.00
   5   5   1  210.58   10.90
  -5   5  -1  221.78    9.30
   5  -5  -1  213.08    9.80
  -5   5  -1  211.18   10.70
  -5  -5  -1  212.48   10.30
   5  -5   1  214.18   10.20
   5   5  -1  220.08   11.40
  -5  -5  -1  210.98    9.20
  -5   5   1  222.78   10.80
  -5  -5  -1  206.58    8.00
  -5   5  -2  250.07   12.00
  -5  -5   2  258.07   10.10
   5   5   2  267.27   12.40
  -5  -5   2  273.57   10.00
  -5   5  -2  246.18   10.70
   5  -5  -2  270.57   11.00
   5  -5  -2  273.57   11.80
   5  -5   2  272.57   12.30
  -5   5   2  264.37   12.30
   5   5  -2  270.07   13.30
   5   5  -2  249.38    8.00
  -5  -5  -2  257.87    9.10
  -5  -5  -2  260.57   11.10
   5  -5  -3   39.90    5.10
  -5   5  -3   41.60    4.90
   5  -5  -3   37.10    3.80
  -5   5  -3   34.70    5.10
   5   5   3   35.40    5.00
  -5  -5   3   30.00    3.30
  -5  -5   3   32.20    3.10
  -5  -5  -3   33.60    4.40
   5   5  -3   33.10    2.40
  -5  -5  -3   35.30    2.70
  -5   5   3   37.70    5.40
   5  -5   3   28.20    5.10
   5  -5  -4  145.69    8.00
  -5   5  -4  159.28    9.10
  -5   5  -4  154.08    8.20
   5   5   4  154.28    8.80
   5  -5  -4  144.49    8.70
  -5  -5   4  146.39    7.80
  -5  -5  -4  150.48    6.80
  -5   5   4  154.28    9.20
   5   5  -4  151.58    6.70
   5  -5   4  151.18    9.80
  -5  -5  -4  148.69    8.60
  -5  -5   5  177.78    9.40
  -5  -5   5  192.18   10.40
   5   5   5  199.28   10.00
   5  -5  -5  191.58   10.40
   5  -5  -5  193.88    9.70
  -5   5  -5  170.08   10.10
  -5   5  -5  189.78    9.80
   5   5  -5  199.38    8.60
  -5  -5  -5  197.18   10.50
  -5   5   5  180.88   10.50
   5  -5   5  183.28   11.00
  -5  -5  -5  199.68    8.70
   5   5   6   85.69    6.40
  -5  -5   6  100.99    7.70
  -5   5  -6   87.89    6.70
   5  -5  -6   96.69    7.50
   5  -5  -6   80.59    6.60
  -5  -5   6   82.69    6.10
  -5  -5  -6   96.19    7.50
   5  -5   6   96.49    7.60
  -5  -5  -6   93.29    6.00
  -5   5   6   88.49    7.40
   5   5  -6   78.09    5.50
   5  -5  -7   30.20    5.40
  -5  -5   7   24.80    5.00
   5  -5  -7   24.10    4.50
   5   5   7   23.30    3.80
  -5   5  -7   23.20    4.10
   5  -5   7   30.30    5.20
  -5   5   7   27.90    5.30
  -5  -5  -7   30.40    5.70
  -5  -5  -7   28.10    4.30
   5  -5   7   24.70    4.80
   5   5  -7   21.90    5.90
  -5  -5   8   28.10    5.80
  -5   5  -8   10.60    3.80
   5  -5  -8   23.60    4.90
   5  -5  -8   15.00    4.20
  -5  -5  -8   20.40    4.30
  -5  -5  -8   16.90    4.90
   5  -5   8   14.60    3.30
   5  -5   8   23.40    4.60
  -5   5   8   21.90    4.40
  -5  -5   9    7.40    3.60
   5  -5  -9    4.70    3.10
  -5  -5  -9   -0.30    2.90
  -5   5   9    7.80    2.90
  -5  -5  -9    2.60    2.60
  -5  -6   0   -1.90    1.30
   5  -6   0    3.30    2.40
   5  -6   0    1.90    2.30
  -5   6   0   -3.00    2.40
  -5   6   0   -0.30    1.00
   5   6   0   -0.20    2.60
  -5  -6   1    3.10    1.80
   5  -6  -1    0.30    2.10
   5   6   1    1.90    2.90
   5  -6  -1    1.30    1.90
  -5   6  -1    4.70    3.10
   5  -6   1    4.10    2.80
   5   6  -1    8.30    3.80
  -5  -6  -1    3.90    1.70
  -5  -6  -1    3.40    2.30
  -5   6   1    4.60    2.90
   5  -6  -2    1.70    2.40
  -5  -6   2    2.30    1.70
   5   6   2    5.70    3.20
  -5   6  -2    3.30    1.90
  -5  -6   2    0.00    1.30
   5  -6  -2    3.70    2.20
  -5   6  -2    1.50    2.80
  -5  -6  -2    2.30    1.40
   5   6  -2    3.10    3.30
  -5   6   2    3.50    3.10
   5  -6   2    1.30    2.50
  -5  -6  -2    3.30    2.20
  -5   6  -3  593.44   23.10
   5  -6  -3  593.14   22.30
   5   6   3  612.24   23.10
  -5  -6   3  570.94   20.50
  -5   6  -3  593.34   20.80
  -5  -6   3  580.84   19.90
   5  -6  -3  601.34   21.10
  -5  -6  -3  597.54   21.70
  -5   6   3  573.24   22.90
  -5  -6  -3  603.44   19.20
   5  -6   3  583.74   23.50
   5   6  -3  537.55   17.60
   5  -6  -4   55.29    5.90
  -5   6  -4   72.59    6.90
  -5   6  -4   67.49    5.30
  -5  -6   4   66.89    5.10
   5  -6  -4   63.29    5.50
  -5  -6   4   62.09    3.70
   5   6   4   64.99    6.50
   5   6  -4   63.69    3.70
  -5   6   4   68.29    6.90
   5  -6   4   69.89    8.70
  -5  -6  -4   65.99    6.10
  -5  -6  -4   57.19    4.30
  -5   6  -5   15.50    3.50
   5   6   5   19.40    4.50
   5  -6  -5   19.90    3.90
  -5  -6   5   17.50    3.00
   5  -6  -5   18.00    4.20
  -5   6  -5   22.40    5.10
  -5   6   5   26.30    5.20
  -5  -6  -5   13.80    3.70
   5   6  -5   20.10    2.80
   5  -6   5   15.90    4.30
  -5  -6  -5   20.20    3.30
   5  -6  -6  140.89   11.00
  -5  -6   6  145.99    9.80
   5  -6  -6  131.69    8.70
  -5   6  -6  143.19    8.70
   5   6   6  152.58    9.30
  -5  -6  -6  149.19    8.00
  -5   6   6  148.19   10.20
   5  -6   6  140.19    9.60
  -5  -6  -6  145.59    9.80
   5  -6  -7  173.08   10.40
   5  -6  -7  180.58   11.40
   5   6   7  175.98    9.60
  -5   6  -7  169.28   10.20
  -5  -6  -7  188.98    9.70
  -5  -6  -7  197.38   12.00
   5  -6   7  175.88   10.40
   5  -6   7  173.58    9.60
  -5   6   7  186.98   16.20
   5  -6  -8    7.90    3.60
   5  -6  -8   13.10    3.90
  -5  -6   8   -0.50    2.60
   5  -6   8   10.00    2.90
  -5   6   8    7.30    3.30
  -5  -6  -8   -0.10    2.10
  -5  -6  -8   -0.80    2.70
  -5  -7   0   -0.60    1.60
  -5   7   0   -2.20    2.60
  -5   7   0    0.00    1.20
   5   7   0   -4.80    2.60
   5  -7   0    1.10    2.20
  -5   7  -1  108.59    6.20
  -5  -7   1  117.09    7.10
  -5   7  -1  103.49    8.60
   5   7   1  103.69    8.90
   5  -7  -1   98.19    7.60
   5  -7  -1   94.19    7.50
   5  -7   1   87.99    7.40
   5   7  -1  101.79    9.10
  -5   7   1  112.39    9.00
  -5  -7  -1  108.69    7.10
  -5   7   1  103.49    5.70
  -5  -7  -1  111.39    6.20
   5  -7  -2   52.29    5.60
  -5   7  -2   51.49    4.40
  -5   7  -2   53.79    7.40
  -5  -7   2   53.49    4.70
   5   7   2   57.89    8.00
   5  -7  -2   55.09    6.00
  -5  -7  -2   50.79    4.30
   5  -7   2   54.79    6.20
  -5  -7  -2   58.39    5.70
  -5   7   2   45.20    6.80
   5   7  -2   65.79    8.70
   5   7   3   13.90    4.30
  -5   7  -3    8.40    3.90
   5  -7  -3   10.60    3.10
   5  -7  -3   11.10    3.90
  -5  -7   3   14.20    3.20
  -5   7  -3    9.30    3.70
  -5   7   3    9.80    4.20
   5  -7   3   13.40    4.60
  -5  -7  -3    8.80    3.30
  -5  -7  -3   15.30    2.80
   5  -7  -4   92.49    7.90
  -5   7  -4   90.19    6.40
   5  -7  -4   93.99    6.90
   5   7   4   95.49    8.30
  -5   7  -4   96.39    8.50
  -5  -7   4   87.69    5.00
  -5  -7  -4   90.09    7.60
  -5   7   4   80.49    8.20
  -5  -7  -4   90.79    5.90
   5  -7   4  110.59    9.20
   5  -7  -5   68.89    7.80
   5  -7  -5   60.99    6.90
  -5   7  -5   65.29    7.40
   5   7   5   66.09    8.30
   5  -7   5   73.29    7.50
  -5  -7  -5   71.79    7.10
  -5   7   5   62.29    8.20
  -5  -7  -5   70.39    5.40
   5   7   6   50.49    6.80
  -5  -7   6   32.60    5.70
   5  -7  -6   36.00    5.70
   5  -7  -6   61.59    8.60
  -5   7   6   51.39    7.80
  -5  -7  -6   46.90    5.80
  -5  -7  -6   33.10    6.30
   5  -7   6   50.39    7.40
   5   7   7   18.90    4.00
   5  -7  -7   15.60    4.40
   5  -7  -7   16.90    4.30
  -5  -7   7   26.60    5.40
  -5  -7  -7   19.00    4.10
  -5  -7  -7   14.40    4.40
  -5   7   7   19.30    4.80
   5  -7   7   27.70    4.50
   5  -7   7   14.70    4.00
   5  -7  -8   11.50    3.90
  -5  -7   8    0.80    3.00
   5  -7  -8    5.30    3.20
  -5  -7  -8    8.40    3.00
  -5   7   8   11.30    4.10
  -5  -7  -8    5.70    3.50
   5  -7   8   13.20    3.30
  -5   8   0    0.10    1.30
  -5   8   0    1.30    3.20
   5  -8   0    1.10    2.30
   5   8   0   -1.70    3.30
  -5  -8   0    0.30    2.00
  -5  -8   1  105.59    7.20
   5  -8  -1  120.59    8.80
  -5   8  -1   90.49    5.90
   5   8   1  102.79    9.50
   5  -8  -1  113.79    8.80
  -5   8  -1  104.19    9.40
  -5   8   1  105.39    9.40
   5   8  -1  108.79    9.90
  -5   8   1  104.09    5.50
  -5  -8  -1  103.59    7.50
   5  -8   1  108.59    8.50
   5   8   2   78.29    9.70
   5  -8  -2   74.99    7.00
  -5  -8   2   70.99    5.90
   5  -8  -2   73.39    7.20
  -5   8  -2   82.59    6.40
  -5   8  -2   70.79    9.30
   5   8  -2   93.49    9.30
  -5  -8  -2   70.49    5.80
   5  -8   2   74.19    7.40
  -5  -8  -2   72.49    6.70
  -5   8   2   87.39    8.70
  -5   8  -3  117.29   10.40
   5   8   3  145.19   10.90
  -5  -8   3  136.99    8.10
  -5   8  -3  126.49    7.60
   5  -8  -3  127.59   10.80
   5  -8  -3  133.19    9.20
  -5  -8  -3  133.79    7.80
  -5  -8  -3  144.99    9.50
   5  -8   3  141.19   10.70
   5  -8  -4    0.70    2.40
   5   8   4    6.40    4.00
  -5  -8   4    9.30    2.10
   5  -8  -4    5.30    3.20
  -5   8  -4   12.80    4.50
   5  -8   4    4.00    3.60
  -5  -8  -4    5.20    2.30
  -5   8   4    0.20    3.50
  -5  -8  -4    1.20    2.60
   5  -8  -5  117.89    9.60
   5  -8  -5  104.69    8.20
  -5   8  -5  119.79   11.40
   5   8   5  115.89   13.10
   5  -8   5  112.49    9.40
  -5  -8  -5   98.49    8.90
  -5  -8  -5  117.89    7.50
  -5   8   5  125.59   10.40
   5  -8  -6   25.80    4.80
  -5  -8   6   20.10    5.10
   5  -8  -6   27.40    5.70
   5   8   6   36.30    6.10
  -5  -8  -6   21.30    4.10
  -5  -8  -6   17.20    4.30
   5  -8   6   33.90    6.40
  -5   8   6   32.50    6.30
   5  -8  -7   63.79    8.60
   5  -8  -7   54.69    6.10
   5   8   7   69.79    6.80
  -5  -8   7   58.89    8.00
  -5  -8  -7   53.39    5.50
  -5  -8  -7   62.89    9.10
   5  -8   7   62.59    5.70
  -5   8   7   53.29    7.90
  -5  -9   0    0.80    2.40
  -5   9   0    2.20    4.20
   5   9   0    3.40    4.10
   5  -9   0   -4.40    1.90
  -5   9  -1   27.10    7.00
  -5  -9   1   17.40    4.00
   5   9   1   19.50    6.10
   5  -9  -1   27.50    5.80
  -5   9   1   21.30    6.10
   5   9  -1   27.30    7.00
   5  -9   1   19.20    5.20
  -5  -9  -1   19.20    4.30
   5  -9  -2   34.80    5.90
   5  -9  -2   36.50    6.80
  -5   9  -2   32.10    6.90
  -5  -9   2   33.50    5.30
   5   9   2   39.70    7.80
  -5   9   2   30.60    6.90
  -5  -9  -2   37.80    6.40
   5  -9   2   43.90    8.80
   5   9  -2   31.30    7.10
  -5  -9   3   10.80    3.10
   5  -9  -3    3.40    3.40
  -5   9  -3    2.90    4.10
   5  -9  -3    4.10    2.90
   5   9   3   11.80    4.70
  -5  -9  -3   -1.00    2.60
  -5  -9  -3    2.80    2.40
  -5   9   3    2.80    4.30
   5  -9   3    8.60    4.00
   5   9   4   13.10    4.90
  -5   9  -4   14.20    5.00
   5  -9  -4   10.40    3.70
   5  -9  -4   15.70    4.60
  -5  -9  -4   14.60    3.70
  -5   9   4   19.30    6.00
  -5  -9  -4   14.30    4.40
   5  -9   4   22.40    5.40
   5   9   5   28.70    6.10
   5  -9  -5   37.50    7.00
   5  -9  -5   35.10    6.10
  -5   9  -5   49.30    7.90
   5  -9   5   40.50    7.10
  -5  -9  -5   36.90    7.10
  -5   9   5   35.70    6.70
   5  -9  -6    6.90    3.40
   5  -9  -6   12.70    4.10
   5   9   6   23.60    4.80
  -5  -9   6    9.70    4.50
  -5  -9  -6    4.10    2.60
  -5  -9  -6   19.70    5.20
   5  -9   6   14.00    3.50
  -5   9   6   16.60    6.80
  -5  10   0   16.00    5.30
   5  10   0    0.00    3.90
   5 -10   0   -4.70    2.40
  -5 -10   0    4.40    2.40
   5 -10  -1    0.50    3.00
  -5  10  -1   -2.50    3.30
   5  10   1    6.90    4.40
  -5  10   1    0.10    3.70
  -5 -10  -1    5.50    3.00
   5 -10   1    1.90    3.50
   5  10  -1    3.80    3.90
  -5  10  -2   -6.90    3.00
   5 -10  -2    3.00    3.00
  -5 -10   2    3.50    2.20
   5  10   2    4.50    3.90
   5 -10   2    1.00    2.90
  -5 -10  -2    4.70    3.10
  -5  10   2    2.40    3.30
   5 -10  -3   85.39    8.70
   5  10   3   83.79    9.20
   5 -10  -3   80.99    8.10
  -5  10   3   77.39   10.70
   5 -10   3   77.89    8.40
  -5 -10  -3   77.29    7.80
  -5  10  -4   15.20    5.60
   5 -10  -4    6.20    3.70
   5  10   4   17.30    4.70
   5 -10  -4    9.70    3.70
  -5 -10  -4    3.60    3.60
   5 -10   4   19.00    4.80
  -5  10   4   13.90    4.60
  -5 -10  -4   10.90    3.40
  -6   0   0 2123.99   59.29
   6   0   0 2082.49   60.09
  -6   0   0 2134.09   59.99
   6   0   0 2030.20   59.89
  -6   0   0 2082.89   59.99
   6   0  -1 3640.84  100.79
  -6   0   1 3674.03  102.19
  -6   0  -1 3460.75  101.79
   6   0  -2  331.77   10.40
  -6   0   2  345.37   12.50
   6   0   2  327.87   12.30
   6   0  -2  338.97   11.00
  -6   0   2  327.47   10.20
   6   0  -2  329.97   12.20
  -6   0  -2  298.57   11.80
  -6   0   2  320.87   11.00
  -6   0  -2  341.07    9.80
   6   0  -3    4.40    1.10
  -6   0  -3    6.20    1.60
  -6   0   3    4.40    2.10
   6   0  -3    4.70    1.50
  -6   0  -3    2.60    1.10
   6   0  -3    3.40    1.60
  -6   0   3    3.00    1.10
   6   0   3    2.90    1.60
   6   0   4   64.29    5.10
  -6   0   4   60.59    4.10
  -6   0   4   70.29    5.20
   6   0  -4   72.69    4.30
   6   0  -4   70.09    3.60
  -6   0  -4   58.09    4.60
   6   0  -4   55.49    4.40
   6   0  -4   62.59    3.40
  -6   0  -4   71.39    4.30
   6   0  -5   14.70    2.30
  -6   0  -5   10.30    2.60
   6   0  -5   11.90    2.10
  -6   0   5   13.40    3.20
   6   0  -5   12.90    2.80
  -6   0   5   14.40    3.30
   6   0   5   13.90    3.40
   6   0  -6   99.19    6.40
  -6   0   6   99.29    6.90
  -6   0  -6  103.09    6.50
   6   0   6  109.99    7.50
   6   0  -6  102.39    5.30
   6   0  -6   97.39    5.50
  -6   0   7    2.10    2.20
  -6   0  -7    1.30    2.30
   6   0  -7    7.10    2.00
   6   0   7    1.80    2.70
   6   0  -7    1.10    1.50
   6   0  -7    0.40    2.10
  -6   0   8   87.99    6.90
   6   0  -8   88.39    6.90
   6   0   8   84.69    7.40
   6   0  -8   84.89    5.40
  -6   0  -8   78.09    6.70
   6   0  -9   49.70    5.70
  -6   0  -9   58.79    6.50
   6   0  -9   62.49    4.50
  -6   0   9   62.59    5.70
  -6   0  10    9.80    3.40
   6   0 -10   16.40    4.20
  -6   0 -10   18.70    4.30
   6   1   0  149.88    5.80
  -6   1   0  144.99    6.00
  -6  -1   0  152.98    5.00
  -6  -1   0  151.28    5.90
   6  -1   0  152.18    6.40
  -6   1   0  154.68    6.10
  -6   1   0  142.79    6.20
  -6  -1   0  150.88    6.10
   6  -1   0  139.09    5.80
   6  -1   0  147.99    6.00
   6  -1  -1 1537.95   45.30
  -6  -1   1 1571.64   46.00
  -6  -1   1 1638.34   44.80
   6   1   1 1515.15   45.90
  -6   1  -1 1598.74   45.10
  -6   1  -1 1548.05   46.80
   6  -1  -1 1511.45   45.80
   6  -1  -1 1567.84   45.50
  -6  -1   1 1614.14   44.80
  -6   1   1 1603.44   45.60
  -6   1   1 1607.54   46.30
  -6  -1  -1 1582.04   45.00
  -6  -1  -1 1548.65   45.80
   6  -1   1 1586.34   47.10
   6   1  -1 1581.24   44.40
  -6   1   1 1570.24   45.50
   6   1  -1 1595.74   44.60
  -6   1  -2 1913.81   55.19
   6  -1  -2 1879.51   53.79
  -6  -1   2 1855.31   52.89
  -6   1  -2 1897.91   52.19
   6  -1  -2 1943.11   53.09
  -6  -1   2 1857.31   54.19
   6   1   2 1808.52   54.09
   6  -1  -2 1823.32   54.19
  -6   1   2 1851.01   52.79
  -6  -1  -2 1864.11   51.99
  -6   1   2 1904.11   54.29
   6  -1   2 1870.31   51.99
   6   1  -2 1842.92   53.19
  -6   1   2 1547.15   55.69
   6  -1   2 1770.42   54.89
  -6  -1  -2 1843.82   52.19
  -6  -1  -2 1873.41   54.09
  -6   1  -3  520.05   17.10
   6   1   3  504.55   17.90
  -6  -1   3  501.65   16.80
   6  -1  -3  534.75   17.00
  -6  -1   3  515.45   18.20
  -6   1  -3  481.35   18.30
   6  -1  -3  530.75   16.50
  -6   1  -3  511.25   15.10
   6  -1  -3  508.75   18.20
   6  -1   3  507.45   14.90
  -6  -1  -3  519.65   14.80
  -6  -1  -3  524.75   14.80
  -6  -1  -3  532.65   16.30
  -6  -1  -3  500.05   18.90
   6   1  -3  515.15   16.50
   6  -1   3  525.55   18.60
  -6   1   3  521.55   16.90
  -6   1   3  523.35   18.00
  -6   1  -4    1.00    1.20
   6  -1  -4    1.90    1.40
   6  -1  -4    2.50    1.60
   6  -1  -4    2.10    1.30
  -6  -1   4    1.30    1.20
   6  -1  -4    2.30    1.10
  -6  -1   4    3.20    2.20
   6   1   4    4.10    2.00
  -6   1  -4    2.70    1.30
  -6   1   4    0.90    1.70
  -6   1   4    3.20    1.30
   6   1  -4    1.80    0.90
   6  -1   4    3.10    2.20
  -6  -1  -4    1.40    1.20
   6   1  -4    0.90    0.70
   6   1  -4    0.70    1.20
  -6   1  -5  206.88    9.40
  -6  -1   5  208.98    9.30
  -6  -1   5  206.68   10.40
   6  -1  -5  187.78    9.40
   6  -1  -5  209.08    8.60
   6  -1  -5  201.18    9.10
   6   1   5  193.18   11.20
   6   1  -5  201.38    7.80
  -6   1   5  181.38    8.80
   6   1  -5  214.68    9.10
   6   1  -5  212.88    7.20
  -6   1   5  222.68   10.10
   6  -1   5  204.88   10.20
  -6  -1  -5  218.78    9.10
  -6   1  -6   16.20    3.50
   6  -1  -6   11.20    3.10
  -6  -1   6   16.70    3.50
   6  -1  -6   13.70    2.80
   6   1   6   18.20    4.20
   6  -1  -6   23.00    3.70
  -6  -1  -6    8.80    2.70
   6   1  -6   15.30    2.10
   6  -1   6   12.30    3.50
  -6   1   6   18.40    4.30
   6   1  -6   14.90    2.40
   6   1  -6   15.30    3.20
  -6  -1   7   43.60    6.00
   6  -1  -7   38.20    4.50
   6   1   7   35.70    5.60
  -6   1  -7   36.90    5.50
   6   1  -7   38.50    3.40
   6   1  -7   35.90    2.90
  -6   1   7   31.20    4.80
   6   1  -7   28.40    4.20
  -6  -1  -7   34.40    4.60
   6  -1   7   34.90    5.50
   6  -1  -8   56.79    5.60
  -6  -1   8   59.79    6.00
   6  -1  -8   46.70    4.60
  -6   1  -8   54.09    6.00
   6  -1   8   53.99    6.90
  -6  -1  -8   56.59    5.90
   6   1  -8   53.69    3.60
   6   1  -8   47.30    5.30
  -6   1   8   60.09    5.70
  -6  -1   9   46.00    5.70
   6  -1  -9   40.60    4.30
   6   1  -9   54.09    5.70
  -6  -1  -9   49.60    6.60
  -6   1   9   36.20    5.10
   6   1  -9   39.60    3.40
   6  -1 -10   33.60    4.60
  -6  -1  10   23.90    4.70
   6  -1 -10   25.80    4.60
  -6  -1 -10   30.00    5.00
   6   2   0 2382.86   67.99
  -6  -2   0 2437.06   68.19
   6  -2   0 2366.46   69.19
   6  -2   0 2468.45   69.29
  -6  -2   0 2322.07   69.39
  -6   2   0 2421.56   68.89
  -6   2   0 2431.46   69.09
   6  -2   0 2373.26   68.59
   6  -2  -1  933.01   27.70
  -6  -2   1  921.31   28.80
   6  -2  -1  863.51   27.20
  -6   2  -1  951.50   28.10
  -6  -2   1  904.71   26.00
   6   2   1  874.81   27.30
   6  -2  -1  877.51   27.50
  -6   2  -1  903.11   27.20
  -6  -2   1  929.41   26.10
  -6   2  -1  896.21   28.20
  -6  -2  -1  874.31   27.50
   6  -2   1  895.61   26.90
  -6  -2  -1  884.81   27.50
  -6   2   1  940.31   27.90
  -6   2   1  864.61   27.30
   6  -2   1  905.71   28.60
   6  -2  -2  178.38    7.40
  -6  -2   2  187.78    8.80
   6   2   2  175.28    7.80
   6   2   2  174.18    7.10
  -6   2  -2  171.88    8.30
  -6  -2   2  174.98    6.70
  -6   2  -2  183.78    7.00
  -6  -2   2  180.98    7.80
   6  -2  -2  178.78    7.60
  -6   2   2  188.18    8.00
   6  -2   2  187.88    9.00
  -6  -2  -2  177.88    7.80
  -6   2   2  185.48    7.30
  -6  -2  -2  181.58    5.80
   6   2  -2  177.28    6.30
   6  -2   2  174.88    6.60
  -6   2   2  172.58    7.10
  -6  -2  -2  171.08    6.80
   6  -2  -3  850.51   26.10
   6  -2  -3  853.11   26.00
  -6   2  -3  827.62   25.10
   6   2   3  845.12   27.00
  -6  -2   3  822.42   27.90
   6  -2  -3  810.02   26.50
  -6  -2   3  855.11   26.80
   6   2   3  837.02   25.10
  -6   2  -3  856.51   26.40
  -6  -2   3  844.62   25.80
  -6   2  -3  756.12   28.40
   6  -2   3  832.72   24.60
   6   2  -3  861.51   25.30
  -6   2   3  826.92   25.60
  -6  -2  -3  863.41   24.80
  -6  -2  -3  793.82   26.90
  -6   2   3  847.52   26.90
  -6  -2  -3  828.52   24.70
   6  -2   3  799.32   27.90
  -6   2  -4   10.00    2.40
  -6  -2   4    7.20    2.50
   6  -2  -4   13.80    2.80
   6  -2  -4   12.60    2.50
   6  -2  -4   11.30    2.40
  -6  -2   4    7.90    1.80
  -6   2  -4   13.30    2.50
   6   2   4    9.50    2.60
  -6  -2   4   16.70    3.30
   6   2   4   13.80    1.90
  -6   2   4   11.40    2.70
  -6   2   4   15.90    2.70
   6   2  -4   13.80    2.40
  -6  -2  -4   12.60    1.40
  -6  -2  -4   10.80    1.90
   6  -2   4   11.70    3.30
   6   2   5   20.00    4.20
  -6  -2   5   15.20    4.00
   6  -2  -5   18.50    3.30
  -6   2  -5   17.20    3.50
   6  -2  -5   13.70    2.70
  -6  -2   5   16.90    3.10
   6  -2   5   19.10    4.20
  -6  -2  -5   13.90    2.50
   6  -2   5   12.50    1.30
  -6  -2  -5   13.50    1.30
   6  -2   5   15.70    1.50
  -6   2   5   18.10    3.70
   6   2  -5   15.60    2.90
   6  -2  -6   30.60    4.50
  -6  -2   6   35.20    5.50
  -6   2  -6   33.60    4.40
   6  -2  -6   33.30    4.40
  -6  -2   6   35.30    3.60
  -6  -2  -6   34.20    4.40
   6  -2   6   30.00    5.00
  -6   2   6   32.80    4.90
   6   2  -6   33.90    3.80
  -6   2  -7  125.79    8.10
  -6  -2   7  103.29    7.90
   6  -2  -7  125.39    7.80
   6  -2  -7  122.29    7.30
   6   2  -7  111.79    7.20
  -6   2   7  111.79    7.60
   6   2  -7  124.19    4.50
   6   2  -7  105.09    4.50
  -6  -2  -7  106.59    7.20
   6  -2   7  133.69    8.60
  -6   2  -8   68.79    6.60
   6  -2  -8   73.29    5.90
  -6  -2   8   62.99    6.40
   6  -2  -8   66.49    6.30
   6  -2   8   66.69    6.50
   6   2  -8   68.09    6.00
  -6  -2  -8   62.59    7.00
  -6   2   8   70.79    6.20
  -6  -2   9   11.30    3.20
   6  -2  -9   12.20    3.30
   6  -2  -9   21.30    3.70
  -6   2  -9   16.20    4.20
  -6   2   9   15.50    3.40
  -6  -2  -9   13.80    3.70
   6  -2   9   11.70    4.30
   6   2  -9   10.40    3.40
  -6   2 -10   15.40    3.80
   6  -2 -10   13.80    4.10
   6  -2 -10   20.70    4.00
  -6  -2 -10   21.40    4.20
  -6  -2 -10   18.20    4.50
  -6   2  10   28.60    5.10
  -6  -3   0   34.60    2.60
  -6  -3   0   29.80    3.20
   6  -3   0   32.30    3.20
  -6   3   0   34.70    3.00
   6  -3   0   37.30    3.40
  -6   3   0   33.40    3.30
   6   3   0   41.00    5.00
  -6  -3   0   35.70    1.50
   6  -3   0   35.60    3.00
  -6   3   0   32.50    2.90
  -6   3  -1 1064.99   32.50
   6  -3  -1 1049.70   32.40
  -6   3  -1 1049.00   32.10
   6  -3  -1 1054.39   32.20
  -6  -3   1 1016.10   33.10
   6  -3  -1 1044.10   31.90
  -6  -3   1 1065.89   30.30
  -6   3  -1 1044.20   32.30
   6   3   1 1020.70   32.60
  -6  -3   1 1042.80   30.20
   6  -3   1 1058.09   32.80
  -6   3   1 1018.20   32.00
  -6  -3  -1 1026.30   32.20
   6  -3   1 1048.40   31.70
  -6  -3  -1 1053.39   31.90
  -6   3   1 1047.60   31.70
  -6   3   1 1043.80   32.50
   6  -3  -2 1143.39   35.30
   6   3   2 1145.79   35.20
  -6  -3   2 1121.89   36.60
  -6   3  -2 1146.79   35.90
  -6  -3   2 1154.68   32.60
   6  -3  -2 1144.99   35.30
  -6   3  -2 1175.78   35.10
   6  -3  -2 1128.29   34.70
  -6   3  -2 1172.88   35.20
  -6   3  -2 1142.89   35.50
  -6  -3   2 1178.78   34.00
  -6  -3  -2 1132.79   34.70
  -6   3   2 1131.59   34.50
   6   3  -2 1162.58   32.90
  -6   3   2 1098.19   34.90
  -6   3   2 1166.08   35.80
  -6  -3  -2 1207.28   32.50
  -6  -3  -2 1082.49   36.50
   6  -3   2 1182.88   37.10
   6  -3   2 1144.19   34.40
   6   3   3  373.36   13.50
  -6   3  -3  387.46   14.00
  -6  -3   3  385.36   13.30
  -6  -3   3  371.16   14.10
   6  -3  -3  380.26   13.90
   6  -3  -3  393.06   13.70
  -6   3  -3  336.77   14.30
   6  -3  -3  360.26   13.90
  -6  -3   3  383.26   16.40
  -6   3  -3  375.96   13.40
  -6   3   3  394.96   14.60
  -6   3   3  358.46   13.10
   6  -3   3  362.06   15.40
  -6  -3  -3  346.27   12.70
   6   3  -3  379.56   12.40
   6  -3   3  371.46   12.80
  -6  -3  -3  392.96   12.00
  -6   3   3  361.06   13.30
  -6  -3   4    3.30    2.30
  -6   3  -4    5.80    2.20
  -6   3  -4    4.50    1.90
   6  -3  -4    4.60    2.10
  -6  -3   4    1.50    1.30
   6  -3  -4    7.70    2.30
   6   3   4    6.40    2.00
  -6   3   4    2.50    2.10
   6  -3   4    1.80    2.30
   6  -3   4    4.40    1.40
   6   3  -4    1.70    1.40
  -6  -3  -4    5.70    1.60
  -6  -3  -4    3.70    1.20
  -6  -3   5  132.19    7.50
   6   3   5  152.78    6.50
  -6  -3   5  138.49    8.30
   6  -3  -5  154.48    8.00
   6  -3  -5  141.59    7.70
  -6   3  -5  139.79    7.90
  -6   3   5  143.59    8.20
   6  -3   5  155.58   10.50
  -6  -3  -5  139.09    6.00
  -6  -3  -5  140.09    6.80
   6   3  -5  151.98    7.20
   6  -3   5  131.59    5.90
  -6   3  -6   18.60    4.00
  -6  -3   6   14.40    4.30
   6   3   6   19.20    2.30
   6  -3  -6   18.00    3.70
   6  -3  -6   18.00    3.60
  -6  -3   6   20.10    3.50
  -6  -3  -6   17.80    1.90
  -6  -3  -6   19.30    3.40
  -6   3   6   17.80    3.80
   6  -3   6   17.90    1.80
   6   3  -6   17.50    3.20
   6  -3   6   19.90    2.20
   6  -3   6   19.10    4.00
   6  -3  -7   19.80    3.80
   6  -3  -7   30.00    4.80
  -6  -3   7   24.50    5.10
  -6   3  -7   19.60    4.30
   6   3  -7   35.00    4.80
  -6  -3  -7   19.20    3.60
  -6   3   7   30.20    4.90
   6  -3   7   27.60    5.20
   6  -3  -8   48.00    6.10
  -6   3  -8   37.40    5.50
  -6  -3   8   41.50    6.40
   6  -3  -8   35.10    5.50
   6   3  -8   45.40    5.10
  -6  -3  -8   43.70    5.70
  -6   3   8   40.60    5.70
   6  -3   8   41.70    6.10
  -6   3  -9   31.70    5.20
   6  -3  -9   31.60    5.10
  -6  -3   9   27.00    5.30
   6  -3  -9   33.80    4.90
  -6  -3  -9   41.20    6.10
  -6   3   9   38.70    5.60
   6  -3   9   29.50    5.00
  -6  -3  -9   37.90    6.10
   6  -3 -10   31.30    5.30
   6  -3 -10   32.20    4.90
  -6   3 -10   17.10    4.70
  -6  -3 -10   29.20    5.00
  -6  -3 -10   32.00    6.90
  -6   4   0  735.63   24.40
   6  -4   0  712.23   24.10
  -6  -4   0  738.03   21.20
  -6  -4   0  727.73   22.50
   6  -4   0  714.93   23.60
   6  -4   0  747.43   24.30
  -6   4   0  724.13   23.70
  -6  -4   0  698.73   24.40
   6   4   0  742.73   25.10
  -6  -4   0  737.23   22.90
  -6   4   0  668.53   23.40
  -6  -4   1 1526.55   42.90
  -6  -4   1 1519.35   43.40
   6  -4  -1 1555.24   45.50
  -6  -4   1 1467.25   43.10
  -6   4  -1 1441.56   44.90
   6   4   1 1467.45   45.90
  -6  -4   1 1462.15   46.80
  -6   4  -1 1469.95   45.00
   6  -4  -1 1502.95   46.00
   6  -4  -1 1545.75   45.00
  -6   4  -1 1487.25   45.50
   6   4  -1 1471.35   46.70
  -6   4   1 1492.55   45.70
   6  -4   1 1441.56   44.60
  -6   4   1 1451.35   45.70
   6  -4   1 1465.95   45.60
  -6   4   1 1463.45   44.20
  -6  -4  -1 1517.75   41.80
  -6  -4  -1 1517.75   44.10
  -6  -4  -1 1402.46   45.00
  -6  -4   2  140.89    5.50
   6  -4  -2  143.59    7.50
  -6   4  -2  142.19    7.10
  -6   4  -2  129.59    8.20
   6   4   2  146.29    7.80
  -6  -4   2  134.59    6.10
  -6  -4   2  156.68    5.90
  -6   4  -2  151.98    7.70
   6  -4  -2  143.59    7.00
  -6   4   2  135.09    7.60
  -6  -4  -2  140.89    4.90
   6  -4   2  151.28    8.50
   6   4  -2  138.39    4.80
   6  -4   2  136.09    6.80
   6   4  -2  139.09    4.70
  -6  -4  -2  147.39    8.10
  -6  -4  -2  136.49    6.90
  -6   4   2  132.79    6.40
   6  -4  -3   -0.40    1.50
  -6   4  -3   -0.10    1.70
   6  -4  -3    2.40    1.60
  -6  -4   3    0.70    1.10
  -6   4  -3    2.40    1.50
  -6   4  -3    2.80    1.70
   6   4   3   -0.90    1.70
   6  -4   3   -0.90    1.00
  -6   4   3    0.80    2.00
   6  -4   3    2.10    2.50
  -6  -4  -3    2.20    1.20
   6   4  -3    2.20    1.10
  -6  -4   4   50.09    4.90
  -6   4  -4   41.50    4.30
  -6  -4   4   47.40    4.00
   6  -4  -4   44.20    4.50
   6  -4  -4   41.40    4.10
   6   4   4   41.70    4.30
  -6   4  -4   36.30    4.60
   6   4  -4   45.70    3.30
  -6   4   4   47.60    5.80
  -6  -4  -4   42.00    3.10
   6  -4   4   29.40    5.00
   6  -4   4   39.20    3.30
  -6  -4   5    7.30    2.90
  -6   4  -5    6.50    2.40
  -6  -4   5    8.50    2.10
   6   4   5    8.10    2.50
   6  -4  -5    9.30    3.10
   6  -4  -5   10.00    2.90
  -6  -4  -5   10.40    1.90
   6  -4   5    8.00    3.20
  -6  -4  -5    7.50    2.10
   6  -4   5    8.90    1.80
  -6   4   5    8.40    3.10
   6   4  -5    9.10    2.10
  -6  -4   6   50.29    7.70
  -6  -4   6   52.99    5.90
  -6   4  -6   47.00    5.10
   6  -4  -6   48.10    5.90
   6   4   6   46.10    3.90
   6  -4  -6   46.20    5.00
  -6  -4  -6   47.60    3.30
   6  -4   6   55.69    7.10
   6  -4   6   41.30    3.80
  -6  -4  -6   53.29    4.50
  -6   4   6   53.09    6.40
   6  -4  -7    2.70    2.50
   6  -4  -7    3.00    2.50
  -6  -4   7    1.40    3.00
  -6   4  -7    3.00    2.40
   6   4   7    1.50    1.30
  -6   4   7    0.00    2.50
   6  -4   7    6.40    1.70
   6   4  -7    0.40    1.70
  -6  -4  -7    2.70    2.70
   6  -4   7    4.30    2.90
  -6  -4  -7    4.20    3.50
  -6  -4   8   53.19    7.40
  -6   4  -8   60.99    6.30
   6  -4  -8   57.29    7.00
  -6  -4  -8   57.49    5.70
   6  -4   8   53.19    5.80
  -6  -4  -8   53.09    7.00
  -6   4   8   60.49    6.10
   6  -4  -9   31.40    5.30
   6  -4  -9   40.10    5.80
  -6  -4   9   32.60    5.80
  -6   4  -9   30.80    5.80
  -6  -4  -9   36.60    5.90
   6  -4   9   46.20    5.10
  -6   4   9   40.10    5.40
  -6  -4  -9   34.20    5.10
  -6  -5   0   36.20    3.30
  -6   5   0   45.00    5.00
   6  -5   0   41.60    5.10
   6   5   0   48.10    6.20
  -6  -5   0   46.10    3.60
  -6  -5   0   42.10    2.70
   6  -5   0   33.50    4.30
   6  -5  -1  579.84   20.50
  -6   5  -1  557.04   21.10
   6   5   1  560.84   21.50
  -6  -5   1  573.24   18.70
  -6   5  -1  578.84   19.80
   6  -5  -1  612.54   24.30
  -6  -5   1  568.44   18.30
  -6  -5   1  578.44   18.80
  -6   5   1  530.85   24.50
  -6  -5  -1  569.84   19.50
   6  -5   1  587.44   21.10
   6   5  -1  589.64   29.00
  -6   5  -2  663.03   22.20
  -6  -5   2  632.14   20.50
  -6  -5   2  641.24   20.20
   6  -5  -2  642.84   22.20
  -6  -5   2  653.53   21.10
  -6   5  -2  653.23   23.50
   6   5   2  654.53   23.70
   6  -5  -2  642.14   22.90
  -6  -5  -2  650.63   22.20
   6  -5   2  670.93   24.80
  -6  -5  -2  652.13   19.60
  -6   5   2  628.54   23.40
  -6  -5   3  179.68    7.20
   6   5   3  190.48   10.00
  -6  -5   3  173.58    8.30
  -6  -5   3  185.38    6.60
  -6   5  -3  164.68    9.50
   6  -5  -3  178.38    8.80
   6  -5  -3  197.98    9.90
  -6   5  -3  176.98    8.90
  -6  -5  -3  180.68    7.00
  -6   5   3  194.68   10.20
   6  -5   3  189.88   11.00
   6   5  -3  173.58    6.50
  -6  -5  -3  183.78    9.20
   6  -5  -4    2.50    2.40
  -6  -5   4    1.30    1.30
  -6   5  -4    3.70    2.60
   6   5   4   -0.10    2.10
   6  -5  -4    3.90    2.30
  -6   5  -4    3.30    2.30
   6  -5   4    0.40    2.90
  -6   5   4    0.40    2.80
  -6  -5  -4    6.10    2.90
  -6  -5  -4    0.60    1.40
   6   5  -4    2.50    1.10
  -6  -5   5   82.19    6.00
  -6   5  -5   78.09    6.20
   6  -5  -5   85.49    6.40
  -6  -5   5   85.19    6.90
   6   5   5   81.89    6.40
  -6   5  -5   77.19    6.60
   6  -5  -5   76.49    6.70
  -6   5   5   90.59    7.40
  -6  -5  -5   79.69    5.10
  -6  -5  -5   88.89    6.90
   6  -5   5   82.49    7.50
   6   5  -5   71.19    4.60
   6   5   6    0.60    2.10
   6  -5  -6   -1.10    2.30
   6  -5  -6    0.10    2.20
  -6  -5   6    7.90    2.00
  -6   5  -6    1.20    2.40
  -6  -5   6    1.20    3.00
   6  -5   6    0.10    2.50
  -6  -5  -6    2.80    2.90
  -6  -5  -6    3.20    2.10
  -6   5   6   -0.10    2.50
   6   5  -6    3.80    2.00
  -6  -5   7   14.90    4.30
   6  -5  -7   16.10    4.70
   6  -5  -7   18.90    4.30
   6   5   7   14.60    2.80
  -6  -5  -7   15.30    4.50
   6  -5   7   14.80    3.10
  -6  -5  -7   13.50    3.20
  -6   5   7   18.20    4.60
   6  -5   7   14.90    4.20
  -6   5  -8   21.10    4.70
   6  -5  -8   21.60    4.70
   6  -5  -8   19.00    4.10
  -6  -5   8   23.70    5.40
  -6  -5  -8   27.80    5.70
  -6  -5  -8   20.10    4.10
   6  -5   8   18.00    4.30
  -6   5   8   16.20    5.70
   6  -5  -9   23.00    4.60
   6  -5  -9   24.80    4.90
  -6  -5   9   23.40    5.00
  -6  -5  -9   17.20    7.00
  -6   5   9   22.00    4.60
   6  -5   9   23.80    4.00
  -6  -5  -9   21.50    4.50
   6   6   0  477.55   20.40
   6  -6   0  489.35   19.00
  -6  -6   0  485.05   17.30
  -6   6   0  477.45   19.70
   6   6   1  173.28   10.60
  -6  -6   1  172.28    7.90
  -6   6  -1  169.48    8.40
   6  -6  -1  181.28    9.70
   6  -6  -1  174.58    9.70
  -6  -6   1  175.18    8.10
  -6   6  -1  176.18   10.50
  -6  -6  -1  173.08    7.50
   6   6  -1  168.08   10.90
   6  -6   1  172.48    9.80
  -6  -6  -1  191.28    9.40
  -6   6   1  172.18   10.40
  -6  -6   2   32.40    3.30
  -6  -6   2   32.90    2.80
   6   6   2   40.50    6.30
  -6   6  -2   41.80    6.30
  -6   6  -2   35.30    3.90
   6  -6  -2   33.20    4.80
  -6  -6   2   31.40    3.30
   6  -6  -2   38.70    5.10
  -6  -6  -2   32.20    2.90
  -6   6   2   39.10    6.20
  -6  -6  -2   35.40    4.90
   6  -6   2   31.30    4.90
   6  -6  -3  293.37   12.90
  -6  -6   3  280.37   12.10
   6  -6  -3  304.97   14.10
  -6   6  -3  301.17   14.50
  -6  -6   3  300.77   11.40
   6   6   3  310.37   14.60
  -6   6  -3  307.47   12.90
  -6  -6   3  294.27   10.50
   6  -6   3  298.77   15.20
  -6   6   3  308.77   14.70
  -6  -6  -3  312.17   11.10
  -6  -6  -3  294.67   13.40
  -6   6  -4    4.20    2.20
   6   6   4    1.70    2.90
   6  -6  -4    7.40    3.10
  -6  -6   4    2.60    1.60
  -6   6  -4    3.30    2.90
   6  -6  -4    4.90    2.60
  -6   6   4    3.20    3.10
   6   6  -4    5.20    1.30
   6  -6   4    7.50    3.60
  -6  -6  -4    4.70    1.80
  -6  -6  -4    3.50    2.30
   6  -6  -5   14.40    4.20
  -6   6  -5    5.10    3.20
   6   6   5    6.40    3.30
  -6  -6   5    4.20    3.20
  -6   6  -5   14.20    3.10
  -6  -6   5    7.20    2.00
   6  -6  -5    6.10    2.70
   6   6  -5    8.10    1.90
   6  -6   5    8.70    3.70
  -6  -6  -5   11.10    2.60
  -6   6   5    9.90    3.70
  -6  -6  -5    5.90    3.20
   6  -6  -6   13.40    3.60
   6   6   6   20.30    4.10
  -6  -6   6   15.90    4.50
  -6   6  -6   17.60    3.60
  -6  -6  -6   12.10    3.00
   6  -6   6   14.80    4.30
  -6  -6  -6   12.00    3.50
  -6   6   6   17.50    4.70
   6  -6  -7   49.70    6.80
  -6  -6   7   38.20    6.10
  -6   6  -7   34.60    4.90
   6   6   7   60.09    5.30
   6  -6  -7   46.40    6.50
   6  -6   7   39.40    5.20
  -6  -6  -7   45.40    4.90
  -6   6   7   54.19    7.30
  -6  -6  -7   36.90    6.00
   6  -6   7   55.69    6.10
  -6  -6   8   31.50    6.00
   6  -6  -8   31.10    5.90
   6  -6  -8   20.60    4.10
  -6  -6  -8   16.90    4.50
  -6  -6  -8   26.20    4.40
   6  -6   8   33.30    5.30
  -6   6   8   30.10    5.30
  -6   7   0    0.50    1.30
  -6  -7   0    0.80    1.90
  -6   7   0    3.00    3.20
   6  -7   0    1.60    2.70
   6   7   0   -1.90    2.80
  -6   7  -1  235.38   13.40
  -6  -7   1  245.98   10.90
   6  -7  -1  253.77   12.60
  -6   7  -1  221.98   10.40
   6  -7  -1  246.18   12.70
   6   7   1  259.17   14.10
   6  -7   1  241.38   12.60
  -6  -7  -1  250.97   10.20
  -6   7   1  246.68   13.60
   6   7  -1  226.28   13.90
  -6  -7  -1  239.78   11.40
  -6   7   1  243.78   10.40
  -6   7  -2  217.18   12.60
   6  -7  -2  214.08   11.70
   6  -7  -2  222.38   11.40
   6   7   2  211.18   12.60
  -6  -7   2  188.98    9.40
  -6   7   2  196.18   12.20
   6   7  -2  201.18   13.10
  -6  -7  -2  225.38    9.30
   6  -7   2  201.38   11.90
  -6  -7  -2  203.18   10.70
  -6   7  -3   95.19    8.50
  -6   7  -3   87.89    6.20
  -6  -7   3   82.19    5.60
  -6  -7   3   94.59    6.20
   6  -7  -3   86.29    6.90
   6   7   3   81.29    8.00
   6  -7  -3  103.29    8.10
  -6  -7  -3   94.89    7.40
  -6  -7  -3   91.99    5.50
  -6   7   3   88.39    8.20
   6  -7   3   96.89    8.70
   6  -7  -4    4.70    3.40
  -6   7  -4    5.70    2.80
  -6  -7   4    7.40    1.60
  -6  -7   4    7.50    2.00
   6  -7  -4    9.10    3.30
  -6   7  -4    8.10    3.80
   6   7   4    4.90    3.40
  -6  -7   4    8.10    1.40
  -6  -7  -4    6.60    3.50
  -6   7   4    7.00    4.00
   6  -7   4    2.20    3.50
  -6  -7  -4    6.70    2.10
   6  -7  -5   35.40    6.20
   6   7   5   43.30    6.60
  -6   7  -5   26.20    5.80
   6  -7  -5   33.40    6.60
  -6   7  -5   31.80    4.80
   6  -7   5   43.00    7.00
  -6  -7  -5   29.90    5.60
  -6   7   5   27.60    6.90
  -6  -7  -5   28.60    4.20
   6   7   6    9.80    3.10
   6  -7  -6    9.00    4.10
  -6  -7   6    6.40    3.70
   6  -7  -6    3.10    2.50
  -6  -7  -6    8.20    2.80
  -6  -7  -6    5.70    3.10
  -6   7   6   14.00    4.70
   6  -7   6   11.30    3.80
   6  -7  -7    7.30    3.30
   6  -7  -7   11.40    4.00
  -6  -7   7    9.10    4.10
   6   7   7   17.50    4.00
  -6  -7  -7    4.50    3.10
   6  -7   7   15.00    3.80
   6  -7   7    3.80    3.30
  -6   7   7   12.10    4.50
  -6  -7  -7    9.50    3.10
   6  -7  -8   12.80    3.80
  -6  -7   8   26.80    5.60
   6  -7  -8   16.50    3.90
   6  -7   8   16.70    3.40
  -6   7   8   15.80    4.30
  -6  -7  -8   18.30    3.70
  -6  -7  -8   16.40    4.90
   6  -8   0   90.69    7.90
  -6   8   0   79.19    8.40
  -6   8   0   75.89    5.30
   6   8   0   76.99    9.80
  -6  -8   0   82.79    6.50
  -6   8  -1  253.87   14.80
   6  -8  -1  212.58   12.70
  -6  -8   1  246.58   11.70
   6   8   1  256.87   15.20
  -6   8  -1  233.08   12.30
   6  -8  -1  252.37   13.40
   6   8  -1  250.87   15.30
  -6   8   1  234.78   10.20
   6  -8   1  261.97   13.80
  -6   8   1  253.07   14.80
  -6  -8  -1  259.07   12.30
   6  -8  -2   19.80    5.00
   6   8   2   27.20    5.80
  -6  -8   2   25.90    4.30
  -6   8  -2   13.50    5.30
   6  -8  -2   17.00    4.00
  -6   8  -2   16.30    3.20
   6  -8   2   15.70    4.70
  -6   8   2   15.60    5.20
  -6  -8  -2   16.90    4.30
  -6   8  -3   -0.10    3.10
   6  -8  -3    0.00    2.30
   6  -8  -3    0.50    2.40
  -6  -8   3    8.30    2.50
  -6   8  -3    1.50    2.10
   6   8   3    4.90    3.70
  -6   8   3   -0.80    2.90
   6  -8   3   -1.60    2.90
  -6  -8  -3   -1.80    2.30
  -6  -8  -3    0.20    1.80
  -6  -8   4   12.10    2.10
  -6   8  -4   18.30    5.70
   6  -8  -4    7.80    3.30
   6   8   4    7.30    3.70
   6  -8  -4   11.00    4.60
  -6  -8  -4    9.50    2.90
   6  -8   4   11.90    4.40
  -6   8   4    6.80    4.20
  -6  -8  -4    6.40    3.50
  -6   8  -5    4.30    4.20
   6  -8  -5    2.50    3.50
   6  -8  -5    4.70    2.90
   6   8   5    3.00    4.40
  -6  -8  -5    9.90    4.10
   6  -8   5    4.80    3.40
  -6  -8  -5    2.00    2.00
  -6   8   5    3.70    4.00
   6  -8  -6    8.40    3.40
  -6  -8   6   12.30    4.20
   6  -8  -6   10.50    4.60
  -6  -8  -6   12.50    4.90
  -6   8   6   19.80    5.50
   6  -8   6    4.90    2.40
  -6  -8  -6   11.60    3.20
   6   8   7    7.70    4.20
   6  -8  -7    5.30    3.10
  -6  -8   7   -3.60    3.10
   6  -8  -7   -0.40    2.60
  -6   8   7    2.00    3.30
  -6  -8  -7    0.80    1.80
   6  -8   7    5.50    2.90
  -6  -8  -7    1.90    2.70
   6   9   0   16.00    5.60
  -6   9   0    8.50    4.70
  -6  -9   0    9.70    3.10
   6  -9   0   14.30    4.60
  -6   9  -1  101.49   10.10
  -6  -9   1  104.19    7.40
   6  -9  -1   97.29    8.80
   6   9   1   90.89    9.90
   6   9  -1  111.19   10.80
   6  -9   1  104.79    9.00
  -6  -9  -1  108.59    8.10
  -6   9   1   91.79    9.70
   6  -9  -2   80.99    8.00
  -6   9  -2   83.39    9.20
  -6  -9   2   91.69    6.80
   6   9   2   85.39    9.30
   6  -9  -2   95.79    8.80
   6  -9   2   95.19    8.90
  -6  -9  -2  101.59    8.00
  -6   9   2   85.39    9.30
  -6  -9   3   38.10    4.20
   6  -9  -3   16.70    4.60
  -6   9  -3   26.60    6.70
   6  -9  -3   19.10    4.40
   6   9   3   37.80    7.30
   6  -9   3   24.50    5.90
  -6  -9  -3   28.00    6.00
  -6   9   3   24.90    6.30
  -6  -9  -3   29.70    4.60
   6  -9  -4    3.20    2.80
  -6   9  -4    0.30    3.00
   6   9   4    1.30    2.90
   6  -9  -4   -2.30    2.30
  -6   9   4    3.50    3.60
  -6  -9  -4    0.70    2.90
  -6  -9  -4    3.00    2.20
   6  -9   4    8.90    3.80
   6  -9  -5   11.60    4.50
   6   9   5   24.70    5.60
   6  -9  -5   20.30    4.70
  -6   9  -5   17.70    5.00
  -6  -9  -5   16.00    4.40
   6  -9   5   17.60    4.10
  -6  -9  -5   11.30    3.80
  -6   9   5   23.10    5.20
   6  10   0   49.70    9.00
   6 -10   0   56.29    8.50
  -6  10   0   61.09   10.20
  -6 -10   0   46.70    6.60
   6 -10  -1   12.50    4.70
  -6  10  -1   16.10    5.90
   6  10  -1   17.40    6.00
   6 -10   1    7.70    4.00
  -6  10   1   13.40    5.60
  -6 -10  -1   10.70    3.70
  -6  10  -2    5.80    4.20
   6 -10  -2    2.40    3.40
   6  10   2    1.00    3.60
  -6 -10   2   11.00    2.50
  -6 -10  -2   -1.70    1.80
   6 -10   2    6.40    3.80
  -6  10   2    3.10    4.00
   6  10   3   66.69    9.80
  -6  10  -3   42.60    7.90
   6 -10  -3   47.50    7.20
   6 -10  -3   78.29   12.40
  -6 -10  -3   60.89    8.50
  -6  10   3   57.19   10.60
   6 -10   3   57.79    9.50
   6  10   4    6.90    4.50
   6 -10  -4    3.00    3.40
   6 -10  -4   -3.20    2.30
  -6  10   4    5.60    3.50
   6 -10   4    4.80    3.10
  -6 -10  -4    4.30    2.90
  -6 -10  -4    1.60    2.00
   7   0   0    1.60    1.20
   7   0   0    1.30    1.30
  -7   0   0    1.60    1.20
  -7   0   0    1.80    1.30
  -7   0   0    1.80    0.90
   7   0  -1 1082.89   32.60
   7   0  -1 1132.59   33.70
  -7   0   1 1134.49   32.50
  -7   0  -1 1047.20   33.50
  -7   0   1 1120.79   33.80
   7   0  -1 1243.78   33.40
   7   0   1 1038.70   33.70
  -7   0  -1 1050.99   32.30
  -7   0   2  334.77   11.20
  -7   0  -2  332.67   10.10
   7   0  -2  330.77   11.00
   7   0  -2  320.87   12.30
  -7   0   2  332.27   10.40
  -7   0   2  334.97   12.60
  -7   0  -2  311.87   12.20
  -7   0  -3   47.60    4.20
   7   0  -3   51.09    2.80
   7   0  -3   49.10    3.30
  -7   0  -3   45.80    3.30
  -7   0   3   51.79    4.40
  -7   0   3   50.99    3.40
   7   0   3   55.79    4.50
   7   0  -3   45.90    3.90
   7   0  -4  229.48    8.00
   7   0  -4  222.68    8.10
   7   0  -4  196.38    9.70
   7   0  -4  226.18    9.10
  -7   0   4  237.88   10.60
  -7   0  -4  235.78    9.20
   7   0   4  230.78   10.60
  -7   0   4  213.88    9.20
   7   0  -5  417.76   14.00
   7   0  -5  426.56   15.20
  -7   0   5  393.06   15.20
  -7   0  -5  423.16   15.20
  -7   0   5  381.46   16.20
   7   0   5  402.66   16.70
   7   0  -5  418.16   13.60
   7   0  -6   44.30    3.40
   7   0   6   40.30    5.60
   7   0  -6   37.40    3.10
  -7   0   6   34.60    5.30
  -7   0  -6   46.50    5.50
   7   0  -6   38.60    4.20
  -7   0  -7  149.99    8.60
   7   0  -7  128.19    7.10
  -7   0   7  145.09    8.90
   7   0   7  141.79    9.40
   7   0  -7  142.19    6.70
   7   0  -7  148.19    8.40
  -7   0  -8  185.78   10.50
  -7   0   8  195.88   10.80
   7   0   8  175.48   11.00
   7   0  -8  189.58    8.30
  -7   0   9   84.79    6.80
   7   0  -9   84.59    5.20
  -7   0  -9   80.19    7.20
   7   0  -9   81.29    6.90
  -7   0 -10    3.50    2.80
  -7  -1   0   -0.10    1.00
  -7  -1   0    0.10    0.60
   7   1   0    0.30    0.90
  -7   1   0    1.00    1.00
   7  -1   0    1.10    1.00
   7  -1   0    2.00    1.50
   7  -1   0    0.50    0.90
  -7   1   0    0.40    1.10
  -7  -1   0    0.70    0.70
  -7   1   0    1.30    1.20
   7   1   1  194.28    8.00
  -7  -1   1  202.48    8.10
   7  -1  -1  198.08    7.60
  -7  -1   1  199.28    6.90
  -7   1  -1  206.88    7.30
  -7  -1   1  205.08    6.90
   7  -1  -1  203.48    7.50
  -7   1  -1  194.78    7.70
  -7   1  -1  203.18    8.60
   7  -1  -1  192.18    8.00
   7   1  -1  199.18    6.50
  -7  -1  -1  195.28    7.10
  -7   1   1  200.68    8.30
  -7  -1  -1  181.28    7.70
  -7  -1  -1  201.18    7.80
   7  -1   1  209.98    9.00
   7   1  -1  201.88    6.90
   7  -1   1  190.38    7.10
  -7   1   1  191.68    7.50
  -7   1   1  199.28    7.60
   7  -1  -2  143.89    6.00
  -7   1  -2  140.19    5.20
  -7  -1   2  144.69    5.80
   7   1   2  150.88    7.00
   7  -1  -2  138.99    6.00
  -7  -1   2  145.89    4.50
  -7   1  -2  148.29    7.50
   7  -1  -2  140.89    6.90
  -7  -1   2  142.99    7.00
  -7  -1  -2  138.59    6.70
   7   1  -2  143.09    5.50
  -7   1   2  144.19    7.00
  -7  -1  -2  144.99    5.20
   7   1  -2  133.29    4.70
   7  -1   2  137.39    5.10
  -7   1   2  141.09    5.70
  -7  -1  -2  141.39    5.50
   7  -1  -3  890.81   34.20
  -7   1  -3  972.00   33.10
  -7  -1   3 1049.99   33.10
  -7   1  -3 1033.80   29.30
   7  -1  -3 1026.20   30.70
  -7  -1   3 1012.00   31.10
  -7   1  -3 1065.09   31.50
   7  -1  -3 1068.69   31.30
  -7  -1  -3  980.30   32.30
  -7   1   3 1032.90   30.40
   7  -1   3 1017.00   33.20
   7  -1   3 1050.59   29.20
   7   1  -3 1060.99   30.70
  -7  -1  -3 1066.09   29.20
  -7   1   3 1051.99   31.40
  -7   1   3 1020.00   32.50
  -7  -1  -3 1036.50   30.50
  -7  -1  -3 1017.20   29.00
  -7  -1   4  822.62   28.10
   7   1   4  821.92   27.50
   7  -1  -4  792.12   27.50
   7  -1  -4  826.42   25.30
  -7  -1   4  797.92   26.10
   7  -1  -4  830.72   26.20
  -7   1  -4  817.82   26.30
   7   1  -4  813.82   25.70
   7   1  -4  831.62   23.60
  -7  -1  -4  834.12   25.60
   7   1  -4  810.32   23.90
  -7   1   4  858.51   27.60
   7  -1   4  864.01   28.30
  -7   1   4  793.82   26.10
   7   1   5  586.84   21.90
   7  -1  -5  607.84   19.60
   7  -1  -5  603.24   20.50
  -7  -1   5  582.64   20.60
   7  -1  -5  567.24   19.90
  -7  -1   5  645.54   22.50
  -7   1  -5  603.84   20.80
  -7   1   5  549.74   20.40
  -7   1   5  601.54   21.60
  -7  -1  -5  601.24   20.20
   7   1  -5  605.04   20.40
   7   1  -5  638.54   18.30
   7  -1  -6   60.49    5.00
   7   1   6   57.99    5.90
  -7  -1   6   55.49    4.60
  -7   1  -6   56.99    5.10
  -7  -1   6   53.49    5.80
   7  -1  -6   59.59    4.40
   7  -1  -6   64.49    4.50
  -7   1   6   64.39    5.80
   7   1  -6   58.99    3.20
  -7  -1  -6   63.69    5.00
   7   1  -6   61.29    3.80
   7   1  -6   62.69    5.00
   7  -1   6   63.09    6.10
   7  -1  -7  174.08    9.50
  -7  -1   7  154.28   10.00
  -7   1  -7  189.48   10.00
   7   1   7  194.78   11.00
   7  -1  -7  198.48    8.80
   7   1  -7  185.58    9.60
  -7  -1  -7  191.38    9.80
   7  -1   7  172.58   10.40
   7   1  -7  173.78    6.90
  -7   1   7  198.68   10.40
   7   1  -7  175.48    7.60
  -7  -1   8   33.20    5.60
   7  -1  -8   44.70    5.80
   7  -1  -8   35.30    4.50
  -7   1  -8   44.50    6.10
   7  -1   8   32.70    5.60
   7   1  -8   36.00    5.00
   7   1  -8   33.50    2.70
  -7   1   8   26.80    4.90
  -7  -1  -8   35.10    5.10
   7  -1  -9   42.70    6.00
  -7   1  -9   38.10    5.80
   7  -1  -9   44.90    4.50
  -7  -1   9   41.70    6.00
   7  -1   9   38.80    6.20
  -7   1   9   55.09    5.50
   7   1  -9   26.40    4.90
  -7  -1  -9   41.30    5.90
   7  -1 -10    3.20    3.50
  -7  -1  10   -2.20    2.70
  -7   1 -10    6.90    3.10
  -7  -1 -10    4.70    2.50
  -7   1  10    6.50    3.50
  -7   2   0    0.10    1.00
  -7   2   0   -0.40    0.80
  -7   2   0    0.90    1.30
   7  -2   0    0.70    1.10
   7  -2   0   -0.70    0.80
  -7  -2   0    0.70    0.90
  -7  -2   0    0.10    0.40
   7   2   0   -0.20    0.90
  -7  -2   0   -0.40    1.10
   7  -2  -1  256.57    9.60
   7   2   1  242.78    9.30
   7  -2  -1  247.58    9.20
  -7  -2   1  253.77    9.60
  -7  -2   1  247.88   10.50
  -7   2  -1  246.38    9.70
  -7  -2   1  243.48    8.00
  -7   2  -1  233.48   10.00
   7  -2  -1  233.58    9.30
  -7  -2   1  240.88    8.00
  -7   2  -1  253.87    9.20
  -7   2   1  253.57    9.90
   7  -2   1  238.18    8.80
  -7   2   1  254.37    9.40
  -7  -2  -1  234.48    9.30
   7  -2   1  229.68   10.30
  -7   2   1  245.38    9.30
  -7  -2  -1  244.18    9.50
  -7   2  -2  130.19    5.60
  -7  -2   2  126.69    6.40
   7  -2  -2  129.99    5.90
  -7  -2   2  127.69    7.20
   7  -2  -2  129.79    6.10
  -7  -2   2  116.79    5.20
  -7   2  -2  130.29    7.00
   7   2   2  126.19    6.40
   7  -2  -2  119.09    6.10
   7  -2   2  128.09    5.30
   7   2  -2  126.09    4.80
  -7   2   2  122.49    5.80
   7  -2   2  135.59    7.60
  -7   2   2  137.69    6.80
  -7  -2  -2  124.39    6.40
  -7   2   2  131.39    5.90
  -7  -2  -2  120.79    5.50
   7  -2  -3    4.30    1.70
  -7  -2   3    5.80    2.10
   7  -2  -3    2.20    1.40
  -7   2  -3    7.30    2.10
   7   2   3    3.00    1.80
   7  -2  -3    4.00    1.60
  -7   2  -3    8.20    2.40
  -7  -2   3    3.80    1.40
  -7   2  -3    3.90    1.30
  -7  -2  -3    4.50    1.70
  -7   2   3    2.80    1.20
  -7   2   3    3.60    1.30
  -7  -2  -3    3.70    1.10
  -7  -2  -3    4.80    1.30
   7   2  -3    2.10    1.10
   7  -2   3    4.30    1.10
  -7   2   3    6.30    2.40
   7  -2   3    4.10    2.10
   7  -2  -4  692.03   21.90
  -7  -2   4  656.93   23.10
   7   2   4  655.83   22.90
   7  -2  -4  667.23   21.50
  -7   2  -4  657.43   22.10
   7   2  -4  618.64   21.00
  -7   2   4  635.94   21.60
   7  -2   4  658.23   19.60
  -7  -2  -4  665.93   21.60
  -7   2   4  664.83   22.80
   7  -2   4  648.14   23.80
  -7  -2  -4  653.03   19.40
  -7  -2   5  763.52   26.30
   7  -2  -5  783.22   26.30
  -7   2  -5  791.42   26.70
   7  -2  -5  821.32   26.00
   7   2   5  777.42   27.60
   7   2  -5  828.02   25.90
  -7  -2  -5  801.52   25.50
  -7   2   5  831.32   29.20
   7  -2   5  772.02   22.50
   7  -2   5  822.92   28.50
  -7  -2   6  162.98   10.20
   7  -2  -6  176.88    9.10
  -7   2  -6  186.08    9.50
   7  -2  -6  182.48    9.70
   7   2  -6  164.98    8.50
  -7  -2  -6  172.18    8.50
   7  -2   6  169.58   10.10
  -7   2   6  172.48    9.60
  -7  -2   7  101.39    8.10
   7  -2  -7  106.49    6.80
  -7   2  -7   98.59    7.30
   7  -2  -7  104.49    7.20
   7  -2   7   97.89    7.80
   7   2  -7   92.49    6.60
  -7   2   7   97.79    7.40
  -7  -2  -7   90.29    6.60
  -7  -2   8   47.90    6.60
  -7   2  -8   33.40    5.00
   7  -2  -8   40.40    5.20
   7  -2  -8   44.70    6.10
  -7  -2  -8   37.30    5.10
   7  -2   8   37.00    6.30
  -7   2   8   39.70    5.80
   7   2  -8   30.90    4.60
  -7   2  -9   31.50    6.60
   7  -2  -9   33.60    5.20
  -7  -2   9   44.00    6.00
   7  -2  -9   31.90    4.90
  -7   2   9   28.80    4.80
   7  -2   9   41.40    6.40
  -7  -2  -9   29.80    5.30
   7  -2 -10    6.60    3.70
   7  -2 -10    8.60    2.60
  -7   2 -10    0.50    2.80
  -7  -2  10    2.20    3.40
  -7   2  10   10.50    3.40
  -7  -2 -10    2.50    4.40
   7  -3   0   -0.90    1.20
  -7  -3   0    1.50    0.90
   7  -3   0   -0.70    0.80
  -7  -3   0    1.40    1.20
   7  -3   0    2.30    1.70
  -7  -3   0    0.10    0.40
  -7   3   0    2.00    1.60
  -7   3   0   -0.60    0.90
  -7  -3   1  155.98    5.70
   7  -3  -1  165.08    7.40
  -7   3  -1  156.38    7.60
  -7   3  -1  170.18    7.60
   7  -3  -1  157.18    7.20
   7  -3  -1  158.28    7.60
  -7  -3   1  150.38    8.10
  -7  -3   1  163.98    6.10
  -7   3  -1  155.38    7.30
  -7  -3   1  159.98    5.70
   7   3   1  151.18    7.70
  -7   3   1  164.28    7.80
  -7  -3  -1  151.78    7.00
   7  -3   1  160.88    6.90
  -7   3   1  144.09    7.70
   7  -3   1  172.68    8.30
  -7  -3  -1  152.38    7.20
   7  -3  -2   99.49    5.60
  -7   3  -2   99.79    6.10
  -7  -3   2  108.29    6.60
  -7   3  -2  103.29    5.80
  -7   3  -2  105.19    5.60
  -7  -3   2   96.09    4.60
   7  -3  -2  101.89    5.80
   7  -3  -2  108.49    5.60
   7   3   2  103.19    5.80
  -7   3   2  100.09    5.20
   7  -3   2  103.79    7.00
   7   3  -2  100.39    3.80
  -7  -3  -2   93.29    5.60
  -7   3   2   99.29    5.40
  -7   3   2  101.69    6.20
  -7  -3  -2  101.69    3.40
   7  -3   2   97.99    5.00
  -7  -3  -2   95.59    5.20
   7  -3  -3  723.03   23.00
  -7   3  -3  690.13   22.50
  -7  -3   3  716.13   23.80
  -7  -3   3  706.03   22.40
   7  -3  -3  721.03   23.30
  -7   3  -3  707.33   23.30
   7   3   3  708.73   22.70
   7   3  -3  708.53   21.30
  -7   3   3  666.53   22.70
  -7  -3  -3  661.63   21.90
   7  -3   3  677.33   21.80
  -7   3   3  693.13   23.90
  -7  -3  -3  733.63   21.00
  -7   3   3  676.63   22.60
   7  -3   3  727.53   25.50
   7   3   4  540.15   17.90
   7  -3  -4  557.74   19.10
  -7   3  -4  551.14   18.20
  -7  -3   4  554.34   19.90
  -7   3  -4  535.85   19.20
   7  -3  -4  556.54   19.00
  -7  -3   4  532.45   18.60
   7  -3   4  522.15   17.10
  -7  -3  -4  543.15   17.40
   7   3  -4  556.64   17.80
  -7   3   4  538.25   19.80
   7  -3   4  507.25   20.90
  -7  -3  -4  516.85   17.10
   7  -3  -5  423.16   15.80
  -7   3  -5  416.36   16.20
   7   3   5  401.06   13.70
  -7  -3   5  404.26   16.80
  -7  -3   5  394.36   15.60
   7  -3  -5  413.86   15.70
  -7  -3  -5  413.66   14.50
  -7  -3  -5  402.26   13.40
   7  -3   5  393.56   13.20
  -7   3   5  424.86   16.70
   7  -3   5  424.16   17.80
  -7  -3   6   50.69    6.90
  -7   3  -6   52.99    5.20
   7  -3  -6   51.79    5.10
   7  -3  -6   46.00    4.90
  -7  -3  -6   52.99    4.50
   7  -3   6   50.49    2.90
   7   3  -6   49.90    4.40
  -7  -3  -6   47.80    2.60
  -7   3   6   52.09    6.50
   7  -3   6   56.69    7.00
   7  -3   6   46.40    2.50
  -7   3  -7  152.18    9.30
   7  -3  -7  146.99    8.70
  -7  -3   7  160.78   10.60
   7  -3  -7  145.19    9.00
  -7   3   7  156.08    9.50
   7  -3   7  153.08   10.00
  -7  -3  -7  154.08    8.50
  -7   3  -8   35.50    5.40
  -7  -3   8   34.30    6.10
   7  -3  -8   34.30    5.60
   7  -3  -8   35.20    5.40
  -7   3   8   26.10    5.00
   7   3  -8   33.60    5.00
  -7  -3  -8   35.90    5.20
   7  -3   8   32.50    5.30
  -7   3  -9   40.90    6.50
   7  -3  -9   34.00    5.00
   7  -3  -9   38.90    6.20
  -7  -3  -9   23.50    4.90
  -7   3   9   27.30    5.20
   7  -3   9   40.70    6.20
   7  -4   0   -0.20    1.60
  -7  -4   0    0.80    1.10
  -7  -4   0    3.30    1.60
  -7   4   0   -1.70    1.50
  -7   4   0    1.00    1.30
   7  -4   0   -1.60    1.30
   7  -4   0    1.20    1.20
  -7  -4   0    0.50    1.10
  -7  -4   0    0.40    0.60
   7   4   0   -1.30    1.80
  -7   4  -1  502.75   18.30
  -7  -4   1  522.65   16.20
  -7   4  -1  548.65   18.90
   7  -4  -1  523.15   18.80
   7   4   1  543.05   19.40
  -7  -4   1  517.95   16.60
   7  -4  -1  536.25   18.40
  -7  -4   1  544.65   16.50
  -7  -4  -1  512.95   17.30
  -7  -4  -1  487.55   18.40
   7  -4   1  506.85   17.90
  -7   4   1  528.65   17.90
  -7   4   1  509.35   18.90
   7  -4   1  512.25   19.00
  -7  -4  -1  528.45   18.10
  -7   4  -2  179.08    8.70
   7  -4  -2  181.78    8.30
  -7  -4   2  182.78    6.30
  -7  -4   2  177.08    7.30
   7   4   2  180.18    9.10
   7  -4  -2  180.78    8.90
  -7   4  -2  194.78    8.70
  -7   4  -2  156.28    9.50
  -7   4   2  169.98    9.00
   7  -4   2  183.68    8.10
  -7   4   2  172.88    7.80
   7  -4   2  192.88   10.10
  -7  -4  -2  187.48    5.90
  -7  -4  -2  165.98    8.10
   7  -4  -3   35.60    5.20
  -7   4  -3   30.20    3.50
   7   4   3   39.60    4.70
   7  -4  -3   38.10    4.50
  -7  -4   3   34.80    3.20
  -7   4  -3   32.70    3.70
  -7   4  -3   32.30    4.20
   7  -4   3   35.10    3.10
  -7  -4  -3   31.00    3.40
   7  -4   3   36.00    5.50
   7   4  -3   28.40    2.20
  -7  -4  -3   32.90    2.30
  -7   4   3   36.50    6.00
   7   4   4  106.89    6.40
  -7   4  -4  102.39    6.50
   7  -4  -4  109.69    6.60
  -7  -4   4  102.69    6.10
   7  -4  -4  111.89    7.00
  -7  -4   4  119.89    7.50
  -7   4  -4  108.49    6.80
  -7   4   4  104.59    7.30
  -7  -4  -4  108.89    5.10
   7  -4   4  112.69    8.30
  -7  -4  -4   97.49    5.80
   7  -4   4   98.89    5.40
   7   4  -4  117.49    6.80
  -7  -4   5  228.88   11.40
   7  -4  -5  216.38   10.50
   7  -4  -5  212.48   10.70
  -7  -4   5  209.48   10.20
  -7   4  -5  220.68   10.20
  -7   4  -5  217.28   10.70
   7   4   5  219.18    9.60
   7   4  -5  221.98    9.20
  -7   4   5  244.98   11.70
  -7  -4  -5  212.48    8.70
   7  -4   5  209.48   12.00
  -7  -4  -5  228.88    9.20
   7   4   6   16.20    2.60
   7  -4  -6   18.10    3.90
  -7  -4   6   18.80    3.40
   7  -4  -6   13.00    3.60
  -7  -4   6   11.10    4.00
  -7   4  -6   16.90    3.90
  -7  -4  -6   16.80    2.30
   7  -4   6   15.60    2.70
  -7  -4  -6   15.70    3.10
  -7   4   6   16.70    4.20
   7   4  -6   19.60    3.10
   7  -4   6   24.20    5.20
   7  -4   6   15.40    2.30
   7  -4  -7   75.89    6.60
  -7   4  -7   78.39    6.90
   7  -4  -7   79.19    6.90
  -7  -4   7   76.09    8.00
  -7   4   7   75.69    6.90
   7  -4   7   87.69    7.70
  -7  -4  -7   87.29    6.20
   7  -4   7   83.19    4.30
  -7  -4   8   96.39    8.80
   7  -4  -8  104.69    8.30
  -7   4  -8  113.39    8.30
  -7  -4  -8  106.89    7.60
  -7  -4  -8  120.39    9.00
   7  -4   8  108.89    8.50
  -7   4   8  121.69    8.60
  -7  -4   9   56.59    7.40
   7  -4  -9   41.50    5.80
  -7   4  -9   62.39    6.90
   7  -4  -9   56.09    7.20
  -7  -4  -9   48.20    6.60
   7  -4   9   61.29    5.90
  -7  -4  -9   54.59    5.90
  -7   4   9   65.09    6.10
   7  -5   0   -0.90    1.90
  -7  -5   0    1.70    1.00
  -7  -5   0    1.00    1.40
  -7  -5   0    1.10    1.00
   7  -5   0   -1.40    1.40
   7   5   0   -0.40    2.60
  -7  -5   1   39.00    3.10
  -7  -5   1   40.20    3.10
   7  -5  -1   48.60    5.90
   7  -5  -1   40.20    4.30
   7   5   1   38.40    5.60
  -7   5  -1   45.00    5.70
  -7  -5   1   41.70    3.00
   7   5  -1   42.90    6.30
   7  -5   1   49.10    6.10
  -7  -5  -1   43.60    3.80
  -7   5   1   39.00    5.40
  -7  -5  -1   45.80    2.80
   7  -5  -2   52.39    6.10
  -7  -5   2   39.70    2.90
   7   5   2   41.60    5.70
   7  -5  -2   41.50    4.90
  -7   5  -2   37.40    5.40
  -7  -5   2   32.00    3.10
  -7   5  -2   32.40    3.70
  -7  -5   2   31.20    2.50
  -7   5   2   46.10    5.80
   7  -5   2   49.60    6.50
  -7  -5  -2   37.60    2.40
   7  -5  -3  368.16   14.40
  -7   5  -3  356.06   14.60
  -7   5  -3  361.76   15.30
   7   5   3  386.16   15.70
   7  -5  -3  363.16   15.30
  -7  -5   3  368.86   13.80
  -7   5   3  346.97   15.60
   7  -5   3  381.66   17.20
  -7  -5  -3  358.76   14.60
   7   5  -3  366.16   11.50
  -7  -5  -3  371.56   12.10
   7   5   4  325.07   13.90
  -7   5  -4  320.37   14.00
  -7   5  -4  329.37   13.70
   7  -5  -4  311.87   14.00
  -7  -5   4  312.17   12.90
   7  -5  -4  325.87   13.40
   7  -5   4  302.37   15.30
   7   5  -4  300.47   10.90
  -7   5   4  322.77   14.70
  -7  -5  -4  308.47   13.60
  -7  -5  -4  309.87   11.20
  -7   5  -5  285.97   13.00
   7  -5  -5  276.07   12.60
   7  -5  -5  293.17   13.50
  -7   5  -5  275.37   12.80
   7   5   5  295.77   12.70
  -7  -5   5  278.57   13.50
  -7  -5   5  251.87   12.10
   7   5  -5  269.47   10.60
  -7  -5  -5  282.07   11.00
   7  -5   5  274.57   14.60
  -7   5   5  274.97   13.80
  -7  -5  -5  283.47   13.20
   7  -5  -6   34.10    5.50
  -7   5  -6   29.40    4.60
   7  -5  -6   26.40    4.30
  -7  -5   6   23.30    3.40
  -7  -5   6   36.30    6.10
   7   5   6   32.10    4.60
  -7  -5  -6   37.00    6.00
   7   5  -6   33.10    4.00
  -7   5   6   37.30    6.00
  -7  -5  -6   29.40    4.10
   7  -5   6   36.10    6.50
   7   5   7   75.89    5.00
  -7   5  -7   70.09    6.60
   7  -5  -7   77.19    6.80
  -7  -5   7   89.49    8.30
   7  -5   7   77.59    7.50
  -7  -5  -7   82.29    6.20
  -7   5   7   73.49    7.10
  -7  -5  -7   82.19    7.70
   7  -5   7   78.99    5.30
  -7   5  -8   18.70    4.70
  -7  -5   8   16.10    4.40
   7  -5  -8   20.00    4.80
   7  -5  -8   13.30    3.80
  -7  -5  -8   13.20    3.30
  -7  -5  -8   14.70    4.40
   7  -5   8   20.10    5.20
  -7   5   8    5.30    3.30
  -7  -5   9   32.30    6.30
   7  -5  -9   16.10    4.20
   7  -5  -9   34.50    5.90
   7  -5   9   18.20    3.80
  -7  -5  -9   15.00    4.30
  -7   5   9   26.10    4.70
  -7  -5  -9   23.00    4.40
  -7   6   0    2.20    2.90
  -7  -6   0    0.40    1.50
   7  -6   0   -2.40    1.90
   7   6   0    3.30    3.10
  -7   6  -1   64.39    5.00
  -7   6  -1   61.29    6.30
  -7  -6   1   57.49    4.30
   7   6   1   64.09    8.00
  -7  -6   1   61.09    4.20
  -7  -6   1   63.09    4.10
   7  -6  -1   53.99    5.50
   7  -6  -1   52.99    5.70
  -7  -6  -1   66.69    4.00
  -7  -6  -1   61.79    4.90
   7  -6   1   61.49    6.10
   7   6  -1   62.89    7.00
  -7   6   1   70.89    6.70
   7   6   2   42.70    6.40
   7  -6  -2   53.99    6.60
  -7  -6   2   48.90    3.30
  -7   6  -2   41.10    4.30
   7  -6  -2   47.60    5.70
  -7   6  -2   47.10    6.20
  -7  -6   2   41.20    3.50
  -7  -6   2   37.70    3.60
  -7  -6  -2   46.30    4.70
  -7   6   2   51.19    6.70
   7  -6   2   54.89    7.30
  -7  -6  -2   43.00    3.10
  -7  -6   3    4.00    1.60
   7  -6  -3    3.70    2.10
  -7  -6   3    4.60    1.20
  -7  -6   3    3.80    1.80
  -7   6  -3    2.00    1.80
  -7   6  -3    4.40    3.00
   7   6   3    4.70    3.00
   7  -6  -3    3.00    2.60
   7  -6   3    0.80    2.70
  -7  -6  -3    3.40    1.50
  -7   6   3   -0.60    2.70
  -7  -6  -3    2.30    2.10
  -7  -6   4  186.88    9.70
   7  -6  -4  194.98   11.20
  -7   6  -4  194.68   11.40
   7   6   4  232.08   11.90
   7  -6  -4  221.28   10.60
  -7   6  -4  209.38   10.50
  -7   6   4  205.38   11.90
   7  -6   4  206.98   12.70
  -7  -6  -4  214.78    8.60
  -7  -6  -4  191.78   10.80
  -7  -6   5  261.77   12.30
  -7   6  -5  276.57   13.70
  -7   6  -5  285.57   13.00
   7  -6  -5  270.07   12.80
   7  -6  -5  256.77   13.50
  -7  -6   5  287.57   14.20
   7   6   5  281.47   13.30
   7  -6   5  235.38   14.10
  -7  -6  -5  277.87   13.70
  -7  -6  -5  275.07   11.00
  -7   6   5  260.57   14.00
   7   6  -5  247.48    9.90
   7  -6  -6   49.99    6.40
  -7   6  -6   51.99    5.60
   7  -6  -6   73.29    8.70
   7   6   6   59.69    5.50
  -7  -6   6   49.90    7.10
  -7   6   6   47.90    7.20
  -7  -6  -6   57.69    4.80
   7  -6   6   67.79    8.70
  -7  -6  -6   39.70    5.90
   7   6   7   30.50    4.40
   7  -6  -7   28.40    5.10
   7  -6  -7   30.30    5.70
  -7  -6   7   41.00    6.60
  -7   6   7   28.20    5.40
   7  -6   7   43.00    6.50
  -7  -6  -7   41.00    5.10
  -7  -6  -7   27.80    5.40
   7  -6   7   25.30    4.30
   7  -6  -8   13.10    4.70
  -7  -6   8   18.30    4.60
   7  -6  -8    9.20    3.40
  -7  -6  -8    8.00    4.00
   7  -6   8   11.80    3.40
  -7   6   8    8.50    3.30
   7  -7   0    3.30    2.90
  -7   7   0   -1.50    2.60
   7   7   0    0.30    3.00
  -7   7   0   -0.30    1.00
  -7  -7   0   -1.60    1.60
   7   7   1   40.70    7.10
  -7   7  -1   34.30    6.10
  -7  -7   1   40.90    4.80
   7  -7  -1   41.60    6.50
  -7  -7  -1   39.30    5.10
  -7   7   1   45.40    6.90
   7   7  -1   38.70    7.00
   7  -7   1   45.40    6.40
  -7  -7   2   26.10    3.80
   7   7   2   21.90    5.40
  -7  -7   2   26.30    2.40
   7  -7  -2   19.20    4.50
   7  -7  -2   19.90    4.20
  -7   7  -2   23.40    3.90
  -7   7  -2   21.40    5.10
  -7   7   2   15.40    4.70
  -7  -7  -2   24.00    3.30
  -7  -7  -2   36.80    5.40
   7  -7   2   24.50    5.50
   7  -7  -3  135.29    8.80
  -7  -7   3  138.99    6.90
  -7   7  -3  132.79   10.00
  -7   7  -3  141.29    8.20
   7   7   3  137.09   10.10
   7  -7  -3  152.78    9.90
  -7  -7   3  130.39    7.60
  -7  -7   3  139.09    6.00
  -7   7   3  147.69   10.70
   7  -7   3  129.49   10.40
  -7  -7  -3  138.49    6.80
  -7  -7  -3  147.59    9.20
  -7  -7   4   89.79    6.40
   7  -7  -4   98.09    8.30
  -7   7  -4  116.49    7.40
  -7   7  -4  109.09    8.90
   7   7   4   96.99    8.40
   7  -7  -4  101.79    7.50
   7  -7   4  110.99    9.60
  -7  -7  -4  105.59    7.40
  -7  -7  -4  104.29    8.10
  -7   7   4  100.49    9.00
  -7   7  -5   96.49    8.40
   7  -7  -5   98.79    8.50
  -7  -7   5   88.49    8.20
   7   7   5  101.99    8.20
   7  -7  -5   91.49    8.50
  -7   7  -5   99.89    7.10
   7  -7   5   95.19    8.90
  -7  -7  -5   98.59    8.20
  -7   7   5  108.79    9.40
  -7  -7  -5   93.19    6.10
   7  -7  -6   12.20    3.40
  -7  -7   6   20.30    5.20
   7   7   6   18.30    4.20
   7  -7  -6   13.70    4.10
  -7  -7  -6   14.10    3.30
  -7   7   6   13.10    4.60
  -7  -7  -6   10.40    3.90
   7  -7   6   13.10    3.90
  -7  -7   7   55.89    7.90
   7  -7  -7   51.39    6.70
   7   7   7   64.59    6.20
   7  -7  -7   62.59    7.00
  -7  -7  -7   59.39    5.60
  -7  -7  -7   69.39    7.60
   7  -7   7   53.69    6.10
  -7   7   7   64.39    8.50
   7  -7   7   64.49    6.70
  -7   8   0   -0.30    3.10
  -7  -8   0   -0.70    1.90
   7  -8   0    0.10    2.70
  -7   8   0    2.10    2.70
   7   8   0   -2.20    3.30
   7  -8  -1  110.49    8.70
   7  -8  -1   92.29    8.30
   7   8   1  101.99    9.70
  -7  -8   1  108.09    7.10
  -7   8  -1   98.39    6.50
  -7   8  -1   99.19    9.40
   7  -8   1  100.79    8.60
  -7   8   1   94.99    6.20
  -7  -8  -1  107.59    7.50
  -7   8   1  114.99    9.70
   7   8  -1   93.59    9.70
   7  -8  -2   42.40    8.20
   7   8   2   62.29    8.70
   7  -8  -2   60.89    7.90
  -7   8  -2   50.79    8.10
  -7  -8   2   57.49    5.50
  -7   8  -2   51.49    4.70
   7  -8   2   42.00    7.10
  -7  -8  -2   63.69    7.60
  -7  -8  -2   43.30    4.70
   7   8   3    8.80    4.40
  -7  -8   3   17.70    2.90
   7  -8  -3   12.00    3.70
   7  -8  -3   15.20    4.90
  -7   8  -3    7.30    4.30
  -7  -8  -3   11.50    3.80
  -7  -8  -3   16.90    3.30
  -7   8   3   14.60    4.90
   7  -8   3   13.50    4.90
   7  -8  -4   13.90    4.40
  -7   8  -4   17.30    5.20
   7  -8  -4   11.30    3.80
   7   8   4   22.40    5.50
  -7   8   4   20.80    5.70
   7  -8   4   23.70    6.20
  -7  -8  -4   14.70    3.10
  -7  -8  -4   15.30    4.70
  -7  -8   5   48.00    7.20
   7  -8  -5   51.99    6.70
   7  -8  -5   37.40    6.40
  -7   8  -5   42.20    7.80
  -7  -8  -5   50.39    7.60
   7  -8   5   39.70    7.20
  -7  -8  -5   41.10    5.20
  -7   8   5   44.70    7.60
   7  -8  -6   -3.40    1.90
   7  -8  -6    2.90    3.00
  -7  -8   6    1.20    3.30
   7   8   6    8.30    3.30
  -7  -8  -6    0.10    2.50
   7  -8   6    4.10    2.80
  -7   8   6    2.10    3.60
  -7  -8  -6    0.20    2.00
  -7  -9   0   -0.70    2.10
   7   9   0    0.10    3.90
  -7   9   0    1.70    3.90
   7  -9   0   -0.90    2.70
   7   9   1    5.50    4.10
  -7  -9   1    1.90    1.70
   7  -9  -1    0.70    3.10
  -7   9  -1    0.20    3.80
   7  -9   1    0.90    3.10
  -7   9   1   -1.60    3.50
  -7  -9  -1    5.10    2.80
   7   9  -1    6.30    4.40
  -7  -9   2   13.70    3.30
  -7   9  -2    6.00    4.40
   7  -9  -2    3.00    3.20
   7   9   2    3.80    4.20
   7  -9  -2    0.30    2.70
  -7  -9  -2    3.80    2.90
   7  -9   2    5.10    4.10
  -7   9   2    0.60    3.70
   7  -9  -3   33.20    6.10
  -7  -9   3   60.09    5.20
  -7   9  -3   65.19    9.50
   7   9   3   59.99    8.90
   7  -9  -3   49.70    7.40
  -7  -9  -3   42.20    6.40
  -7   9   3   48.90    8.20
   7  -9   3   46.40    8.20
  -7  -9  -3   48.20    4.80
   7   9   4   47.30    7.80
   7  -9  -4   35.50    6.10
   7  -9  -4   37.70    6.70
  -7   9  -4   44.30    7.60
  -7  -9  -4   45.90    6.80
  -7   9   4   41.30    7.80
   7  -9   4   46.20    8.10
  -7  -9  -4   47.40    4.80
   7  -9  -5   60.09    6.70
   7   9   5   71.09    7.40
   7  -9  -5   34.90    8.60
  -7   9  -5   77.29    8.10
  -7  -9   5   54.49    7.70
  -7  -9  -5   50.99    5.20
   7  -9   5   43.60    7.40
  -7  -9  -5   68.79    7.50
  -7   9   5   59.19    9.10
   7  10   0   -2.20    4.00
  -7 -10   0    3.60    2.20
  -7  10   0    5.40    3.80
   7 -10   0    7.60    4.50
   7  10   1    4.30    4.50
  -7  10  -1    7.90    4.50
  -7 -10   1    9.30    2.70
   7 -10  -1   13.50    4.50
  -7 -10  -1   11.20    3.60
   7 -10   1    8.40    4.20
  -7  10   1    5.20    4.10
   7  10   2   15.30    5.50
  -7 -10   2   20.20    4.00
   7 -10  -2    2.70    3.50
  -7  10  -2   17.50    5.30
  -7 -10  -2   19.20    4.20
  -7  10   2   10.70    5.10
   7 -10   2   17.20    5.30
  -7  10  -3    7.90    3.80
   7 -10  -3    1.60    3.00
   7 -10  -3    0.20    3.10
   7  10   3    4.10    3.50
   7 -10   3    3.30    3.80
  -7  10   3    5.00    4.80
  -7 -10  -3    0.10    2.50
  -8   0   0 1450.05   42.70
  -8   0   0 1442.76   41.80
  -8   0   0 1417.66   42.70
   8   0   0 1450.75   42.90
   8   0   0 1452.15   42.60
   8   0  -1 3206.18   89.99
  -8   0   1 3273.97   90.39
  -8   0   1 3231.68   90.39
   8   0   1 3126.19   91.99
   8   0   1 3149.28   90.29
   8   0  -1 3180.98   91.59
  -8   0   1 3344.77   91.89
  -8   0  -1 3077.29   91.79
  -8   0  -1 3208.58   90.39
   8   0  -1 3156.78   90.79
   8   0  -2  937.41   29.80
  -8   0   2  965.90   30.00
  -8   0  -2  922.21   29.80
   8   0   2  943.21   30.40
  -8   0  -2  924.71   27.40
  -8   0   2  937.51   27.50
  -8   0   2  945.11   28.50
   8   0  -2  966.60   28.20
   8   0  -2  925.91   27.80
  -8   0   3  412.36   15.40
  -8   0  -3  369.96   14.80
  -8   0  -3  392.56   13.60
   8   0   3  411.06   15.60
  -8   0   3  362.16   14.60
   8   0  -3  416.46   12.70
   8   0  -3  391.46   15.00
   8   0  -3  415.46   13.60
   8   0  -4   86.99    4.20
   8   0  -4   94.39    5.20
  -8   0   4   88.59    5.20
   8   0  -4   87.69    4.10
  -8   0   4   82.79    6.20
   8   0   4   92.59    6.50
  -8   0  -4   89.19    5.20
  -8   0   5   38.40    5.20
   8   0  -5   34.70    2.80
   8   0  -5   41.80    3.80
   8   0  -5   41.30    3.00
  -8   0  -5   38.20    3.90
   8   0   5   46.20    6.10
  -8   0   5   34.10    3.50
   8   0  -6   21.50    2.90
   8   0  -6   19.30    2.60
  -8   0  -6   14.20    3.20
   8   0   6   14.50    3.80
  -8   0   6   14.50    3.90
   8   0  -6   22.30    3.80
   8   0  -7   53.69    5.10
  -8   0  -7   52.09    5.30
  -8   0   7   52.39    5.90
   8   0  -7   51.39    4.10
   8   0  -7   52.59    3.80
   8   0   7   57.69    7.50
  -8   0  -8   19.90    4.50
   8   0   8   34.40    6.40
   8   0  -8   30.30    3.50
   8   0  -8   30.40    4.90
  -8   0   8   29.20    5.30
   8   0  -9   38.10    5.70
   8   0  -9   39.20    3.90
  -8   0   9   42.90    5.90
  -8   0  -9   42.70    6.60
  -8   0 -10   34.70    5.80
  -8   0  10   32.70    5.30
  -8   1   0 2556.44   77.39
   8  -1   0 2655.43   76.89
  -8  -1   0 2850.41   75.69
  -8   1   0 2802.32   76.89
  -8  -1   0 2630.64   76.69
   8  -1   0 2587.44   77.69
   8   1   0 2690.33   76.89
  -8   1   0 2732.63   77.19
  -8  -1   0 2656.63   76.89
   8  -1   0 2734.03   76.79
  -8   1  -1  402.36   13.00
  -8  -1   1  397.26   12.50
  -8   1  -1  411.06   13.40
   8  -1  -1  381.56   13.90
   8   1   1  398.66   13.90
  -8   1  -1  385.56   14.30
   8  -1  -1  381.36   13.30
  -8  -1   1  381.46   13.90
   8  -1  -1  390.66   13.00
  -8  -1   1  400.96   12.60
  -8   1   1  401.36   13.30
  -8   1   1  378.56   14.00
   8   1  -1  389.86   12.00
   8  -1   1  381.56   12.80
  -8  -1  -1  371.46   13.50
  -8   1   1  402.96   13.40
   8  -1   1  417.16   15.00
  -8  -1  -1  387.26   12.90
   8   1  -1  375.96   13.10
   8  -1  -2   47.70    3.20
  -8  -1   2   52.99    2.20
   8   1   2   52.09    4.20
  -8   1  -2   51.39    4.30
  -8  -1   2   51.69    4.30
   8  -1  -2   54.69    3.40
  -8   1  -2   47.00    2.70
  -8  -1   2   51.29    3.10
   8  -1  -2   43.60    3.80
  -8   1   2   48.30    4.10
  -8  -1  -2   48.90    2.80
   8   1  -2   51.39    2.80
   8  -1   2   51.09    4.60
   8   1  -2   52.29    2.50
  -8   1   2   47.50    3.00
  -8  -1  -2   47.10    3.80
   8  -1   2   48.40    2.90
   8  -1  -3  115.49    5.60
  -8   1  -3  107.19    4.10
  -8  -1   3  112.89    6.90
  -8  -1   3  110.59    5.40
   8   1   3  113.59    6.80
   8  -1  -3  100.69    6.40
  -8   1  -3  111.89    5.70
  -8   1  -3  112.69    6.90
   8  -1  -3  110.99    5.20
  -8   1   3  111.19    5.00
  -8  -1  -3  110.79    4.00
   8  -1   3  113.69    4.20
  -8  -1  -3  114.59    4.10
  -8  -1  -3  105.59    5.00
  -8  -1  -3  118.79    6.60
  -8   1   3   99.89    6.50
  -8   1   3  109.09    5.60
   8  -1   3  115.19    7.30
  -8  -1   4  491.05   19.20
  -8  -1   4  503.85   17.40
   8  -1  -4  512.05   17.40
   8  -1  -4  490.25   16.50
   8   1   4  514.05   19.00
  -8   1  -4  524.55   17.70
  -8  -1  -4  505.95   16.80
   8  -1   4  506.25   19.60
  -8   1   4  486.55   17.40
   8   1  -4  505.65   16.90
  -8   1   4  498.55   18.80
   8   1   5   22.40    3.90
   8  -1  -5   24.90    3.70
  -8  -1   5   31.80    3.30
  -8   1  -5   34.50    3.90
   8  -1  -5   31.10    3.00
   8  -1  -5   29.10    3.10
   8   1  -5   28.00    2.10
  -8  -1  -5   32.80    4.00
   8  -1   5   26.50    4.70
  -8   1   5   32.50    3.20
   8   1  -5   36.50    3.50
   8   1  -5   28.40    1.90
  -8  -1   6   29.30    3.20
  -8  -1   6   30.10    5.10
   8  -1  -6   30.50    3.40
   8  -1  -6   27.80    3.00
  -8   1  -6   27.80    4.40
   8  -1  -6   32.70    4.50
   8   1   6   33.50    5.50
   8   1  -6   32.30    2.40
   8   1  -6   27.80    4.00
   8  -1   6   37.10    6.00
   8   1  -6   26.70    2.00
  -8  -1  -6   24.10    3.90
  -8   1   6   26.50    4.70
   8  -1  -7   15.30    3.50
  -8  -1   7   11.10    3.90
  -8   1  -7   16.20    3.80
   8  -1  -7   16.20    3.10
   8   1   7   11.90    4.00
   8   1  -7   12.80    3.00
  -8  -1  -7   17.10    3.80
   8   1  -7   12.60    1.70
   8  -1   7   11.20    3.90
   8   1  -7   13.70    2.00
  -8   1   7   12.60    3.90
   8  -1  -8   42.00    5.40
  -8   1  -8   52.79    5.90
  -8  -1   8   54.89    6.20
   8  -1  -8   48.10    4.30
  -8   1   8   55.99    6.00
   8   1  -8   46.70    5.10
   8  -1   8   54.29    7.60
   8   1  -8   42.20    2.70
  -8  -1  -8   42.60    7.80
   8  -1  -9   33.10    5.50
  -8  -1   9   32.50    5.70
   8  -1  -9   39.40    4.90
  -8   1  -9   40.10    6.00
  -8   1   9   36.20    5.70
   8  -1   9   27.10    5.40
  -8  -1  -9   37.10    6.10
  -8  -1  10   30.80    5.50
  -8   1 -10   34.00    5.50
  -8   1  10   40.50    6.00
  -8  -1 -10   29.10    5.20
  -8   2   0    2.00    1.30
  -8  -2   0    2.00    0.60
   8  -2   0    2.50    1.40
   8   2   0    2.70    1.20
  -8   2   0    2.00    1.70
  -8  -2   0    1.50    1.00
   8  -2   0    1.70    1.30
  -8   2   0    0.40    1.20
  -8  -2   0    2.10    1.50
  -8  -2   0    2.30    1.30
   8  -2   0    0.50    1.00
  -8  -2   1 1961.40   58.99
  -8  -2   1 1996.50   57.59
   8  -2  -1 1938.71   57.09
   8   2   1 1924.41   57.19
  -8  -2   1 1942.81   55.79
  -8   2  -1 2026.20   57.69
  -8   2  -1 1801.22   58.09
   8  -2  -1 2014.80   57.59
  -8  -2   1 2008.90   55.69
   8  -2  -1 1899.11   57.39
  -8   2  -1 2021.50   57.09
  -8  -2  -1 1955.10   57.29
   8   2  -1 1954.70   55.49
   8  -2   1 1974.10   58.99
  -8   2   1 1944.81   57.29
   8  -2   1 1929.21   56.59
  -8   2   1 1990.00   57.39
  -8   2   1 2075.49   58.09
  -8  -2  -1 1943.11   57.59
   8  -2  -2 1258.87   39.90
   8  -2  -2 1400.66   39.80
  -8  -2   2 1289.07   40.20
   8  -2  -2 1320.17   39.40
  -8   2  -2 1347.17   38.90
   8   2   2 1352.36   40.30
  -8  -2   2 1310.17   38.50
  -8   2  -2 1251.97   40.90
  -8  -2  -2 1267.87   38.90
   8   2  -2 1342.17   37.80
   8  -2   2 1321.17   41.80
  -8   2   2 1355.36   40.70
  -8  -2  -2 1366.76   41.60
   8  -2   2 1283.37   38.40
  -8   2   2 1302.07   39.40
   8  -2  -3  730.33   22.80
   8  -2  -3  702.23   22.60
  -8   2  -3  709.53   23.10
  -8  -2   3  686.93   22.20
  -8   2  -3  703.43   24.70
   8   2   3  707.93   23.90
   8  -2  -3  654.93   23.60
  -8   2  -3  713.93   21.60
  -8  -2   3  695.03   23.80
  -8  -2  -3  729.83   21.30
  -8   2   3  722.23   24.10
   8  -2   3  694.53   21.10
  -8  -2  -3  690.73   21.20
  -8   2   3  690.83   22.30
  -8   2   3  693.43   22.70
   8  -2   3  683.73   24.90
   8   2  -3  721.43   21.60
  -8   2  -4   84.99    5.60
  -8  -2   4   76.39    4.90
  -8  -2   4   85.69    6.40
   8  -2  -4   71.09    4.90
   8  -2  -4   80.99    5.20
  -8   2   4   92.49    6.40
  -8  -2  -4   78.59    4.40
   8  -2   4   80.89    6.70
  -8   2   4   75.09    4.90
   8  -2   4   84.99    3.40
  -8  -2  -4   82.89    3.30
  -8  -2  -4   80.09    3.30
   8  -2  -5   37.70    4.40
  -8  -2   5   32.00    3.50
   8  -2  -5   39.10    4.80
  -8   2  -5   36.70    4.90
  -8  -2   5   34.40    5.40
   8   2   5   44.00    6.10
  -8  -2  -5   33.40    3.40
   8   2  -5   31.50    3.40
   8  -2   5   33.00    5.50
  -8   2   5   33.20    4.90
   8  -2  -6   45.60    5.00
   8  -2  -6   57.59    5.10
  -8   2  -6   49.10    5.10
  -8  -2   6   51.19    6.70
   8   2   6   56.59    7.20
  -8  -2   6   52.59    4.40
   8  -2   6   43.80    6.10
  -8  -2  -6   49.30    4.50
  -8   2   6   49.99    5.50
   8   2  -6   71.19    7.50
  -8  -2   7   91.69    7.90
  -8   2  -7   81.09    6.90
   8  -2  -7   99.09    6.50
   8  -2  -7  103.89    7.20
   8  -2   7  100.29    8.20
   8   2  -7   97.29    6.60
  -8   2   7   93.39    7.50
  -8  -2  -7  103.29    6.80
  -8  -2   8   59.69    7.60
  -8   2  -8   56.89    7.20
   8  -2  -8   57.49    5.20
   8  -2  -8   52.79    5.80
   8   2  -8   49.50    5.20
  -8   2   8   48.00    6.60
   8  -2   8   50.69    6.80
  -8  -2  -8   49.90    5.50
  -8  -2   9   21.40    5.00
  -8   2  -9   24.90    4.90
   8  -2  -9   20.40    4.20
  -8  -2  -9   14.00    3.70
  -8   2   9   17.50    4.10
   8  -2   9   21.70    4.80
  -8  -2  10    3.50    3.60
  -8   2 -10    7.20    3.30
   8  -2 -10   -8.90    3.40
   8  -2 -10   14.60    4.80
  -8  -2 -10    5.00    2.60
  -8   2  10    7.60    3.40
  -8   3   0 1905.61   55.39
   8  -3   0 1926.41   55.59
  -8   3   0 1875.31   55.59
  -8  -3   0 1837.72   54.09
  -8  -3   0 1844.52   51.99
  -8  -3   0 1844.62   57.29
  -8   3   0 1783.92   54.99
   8  -3   0 1901.31   55.89
  -8   3  -1  305.17   11.60
  -8   3  -1  312.37   11.90
  -8  -3   1  300.77   10.00
  -8  -3   1  304.87    9.70
   8  -3  -1  302.97   11.60
  -8  -3   1  301.07   12.80
   8  -3  -1  295.77   11.90
  -8  -3   1  299.37    9.70
   8  -3  -1  290.07   11.50
  -8   3  -1  295.87   12.20
  -8   3   1  287.97   11.40
  -8  -3  -1  299.97   11.80
  -8   3   1  312.07   12.20
  -8  -3  -1  299.57   11.40
   8  -3   1  310.37   12.80
   8  -3   1  282.37   11.00
  -8   3   1  302.87   11.70
   8  -3  -2   39.30    3.70
  -8  -3   2   36.20    2.70
  -8   3  -2   40.80    3.90
  -8   3  -2   40.10    3.60
  -8   3  -2   34.50    3.40
  -8  -3   2   40.80    3.90
   8  -3  -2   37.40    3.40
  -8   3   2   35.10    3.10
  -8   3   2   41.50    4.90
  -8   3   2   41.30    3.40
  -8  -3  -2   36.90    3.20
   8  -3   2   37.80    3.00
   8  -3   2   28.50    4.40
   8   3  -2   39.10    1.70
  -8  -3  -2   33.90    3.30
  -8  -3   3   51.69    3.70
   8   3   3   56.69    4.20
   8  -3  -3   58.69    4.60
   8  -3  -3   55.19    4.30
  -8  -3   3   49.99    4.70
  -8   3  -3   54.69    4.50
  -8   3  -3   56.19    4.10
  -8  -3  -3   56.19    3.60
   8  -3   3   55.59    5.60
  -8  -3  -3   57.79    3.00
  -8   3   3   57.89    5.00
   8  -3   3   52.69    3.40
   8   3  -3   56.89    3.10
  -8   3  -4  347.47   12.50
  -8  -3   4  329.17   12.90
   8  -3  -4  324.57   13.10
  -8   3  -4  360.16   13.90
  -8  -3   4  355.36   14.40
   8  -3  -4  336.77   13.40
  -8  -3  -4  356.96   11.80
  -8   3   4  351.16   14.50
  -8  -3  -4  316.37   11.40
   8  -3   4  316.57   11.40
   8   3  -4  335.27   11.90
   8  -3   4  319.37   17.00
  -8  -3   5   28.90    5.00
   8  -3  -5   35.00    4.70
  -8   3  -5   33.80    5.00
   8  -3  -5   25.90    4.20
  -8  -3   5   29.80    4.30
   8  -3   5   26.60    2.10
  -8  -3  -5   24.10    2.10
  -8   3   5   27.60    4.70
   8   3  -5   27.90    3.00
  -8  -3  -5   27.20    3.30
   8  -3   5   38.60    6.50
  -8  -3   6   26.20    4.00
   8  -3  -6   26.00    4.40
  -8  -3   6   31.90    5.80
  -8   3  -6   21.60    4.00
   8  -3  -6   22.40    4.10
  -8  -3  -6   23.30    3.50
  -8   3   6   28.30    5.00
   8   3  -6   19.30    3.30
   8  -3   6   24.20    5.30
   8  -3   6   18.70    1.20
   8  -3  -7   14.30    3.70
   8  -3  -7    7.20    3.00
  -8   3  -7    5.50    3.10
  -8  -3   7    3.80    3.30
   8   3  -7    7.40    2.50
  -8  -3  -7    9.10    2.90
  -8   3   7    9.70    3.40
   8  -3   7    7.50    3.40
  -8  -3   8   32.60    5.80
   8  -3  -8   34.50    5.10
   8  -3  -8   36.00    5.80
  -8   3  -8   47.20    6.90
   8   3  -8   38.60    6.60
  -8   3   8   38.30    5.90
   8  -3   8   47.00    7.00
  -8  -3  -8   39.80    5.60
  -8  -3   9   22.90    4.90
   8  -3  -9   39.00    5.30
   8  -3  -9   45.10    4.80
  -8   3  -9   26.40    4.70
   8  -3   9   33.40    5.70
  -8   3   9   26.30    4.60
  -8  -3  -9   31.50    4.90
   8  -4   0  643.44   22.50
  -8  -4   0  651.13   18.80
   8  -4   0  667.83   22.50
  -8  -4   0  646.14   20.30
  -8  -4   0  615.84   20.70
  -8   4   0  640.34   22.40
  -8  -4   1 1463.65   40.80
   8   4   1 1447.76   44.40
  -8   4  -1 1333.87   44.60
  -8  -4   1 1442.86   41.10
  -8  -4   1 1371.36   41.20
   8  -4  -1 1434.86   43.50
  -8   4  -1 1434.56   43.70
   8  -4  -1 1475.05   44.00
  -8   4   1 1388.66   42.90
   8  -4   1 1440.66   44.50
  -8  -4  -1 1341.27   43.50
   8  -4   1 1341.57   42.60
  -8  -4  -1 1384.66   42.80
  -8   4   1 1440.66   44.10
  -8  -4   2  435.26   14.40
  -8  -4   2  433.96   13.20
   8   4   2  439.86   16.60
  -8   4  -2  409.26   17.30
  -8  -4   2  439.26   13.20
  -8   4  -2  453.25   16.20
   8  -4  -2  415.46   15.60
   8  -4  -2  435.56   16.40
  -8   4  -2  430.46   16.10
   8  -4   2  426.36   17.70
   8  -4   2  408.26   15.20
  -8  -4  -2  399.66   15.50
  -8   4   2  435.66   16.80
  -8   4   2  425.96   15.40
  -8   4  -3  213.28    9.90
  -8   4  -3  198.18    9.80
   8  -4  -3  205.08   10.00
   8   4   3  203.48    9.70
  -8  -4   3  212.68   10.20
   8  -4  -3  218.78    9.70
  -8   4  -3  207.58    9.70
  -8  -4   3  213.98    8.80
  -8  -4  -3  194.08    8.80
   8  -4   3  212.88    8.90
   8   4  -3  208.48    7.20
   8  -4   3  226.38   13.00
  -8   4   3  199.58   10.40
  -8  -4  -3  211.18    7.30
   8  -4  -4   60.39    5.20
  -8  -4   4   52.09    4.20
  -8  -4   4   49.90    5.20
  -8   4  -4   60.09    5.10
  -8   4  -4   53.19    4.80
   8   4   4   51.89    4.50
   8  -4  -4   51.89    4.70
   8   4  -4   47.40    3.30
  -8  -4  -4   44.80    3.70
  -8  -4  -4   52.59    3.40
   8  -4   4   47.00    3.60
   8  -4   4   67.29    8.20
  -8   4   4   50.79    5.60
  -8  -4   5   22.90    4.80
   8   4   5   33.20    4.10
  -8  -4   5   34.00    3.90
   8  -4  -5   34.80    5.00
  -8   4  -5   41.30    5.80
  -8   4  -5   35.60    4.60
   8  -4  -5   32.20    4.30
   8   4  -5   28.80    3.30
   8  -4   5   28.70    2.80
  -8  -4  -5   27.60    3.10
  -8  -4  -5   31.70    2.60
   8  -4   5   30.00    5.90
  -8   4   5   27.60    5.10
  -8  -4   6   26.00    2.80
  -8  -4   6   12.60    4.10
   8  -4  -6   12.80    3.30
   8  -4  -6   15.70    3.70
  -8   4  -6   13.00    3.40
  -8   4   6   17.00    4.40
   8  -4   6   10.70    1.90
  -8  -4  -6   12.70    2.70
   8  -4   6   14.60    4.40
  -8  -4  -6   16.60    1.90
   8   4  -6   15.60    2.90
  -8  -4   7   36.50    6.80
  -8   4  -7   30.50    5.20
   8  -4  -7   28.90    5.10
   8  -4  -7   31.10    5.00
  -8   4   7   32.00    5.40
   8  -4   7   36.70    6.40
  -8  -4  -7   28.10    4.30
   8   4  -7   17.70    3.50
   8  -4  -8   22.50    6.50
  -8   4  -8    8.80    3.70
   8  -4  -8   12.80    3.60
  -8   4   8   11.30    5.50
  -8  -4  -8   11.80    3.40
  -8   4  -9   30.10    5.60
  -8  -4   9   19.10    4.70
   8  -4  -9   17.10    4.30
   8  -4  -9   22.30    4.50
   8  -4   9   26.70    5.00
  -8  -4  -9   23.30    5.70
  -8   4   9   26.20    5.10
  -8  -4  -9   19.60    4.70
   8   5   0  849.02   30.50
   8  -5   0  960.50   30.00
   8  -5   0  824.82   29.40
  -8   5   0  862.81   29.70
  -8  -5   0  848.52   27.60
  -8  -5   0  885.51   25.70
  -8  -5   0  856.61   27.30
   8  -5  -1  140.09    8.00
   8  -5  -1  125.29    7.90
  -8  -5   1  139.49    6.20
   8   5   1  131.29    8.70
  -8  -5   1  131.19    6.10
  -8  -5   1  129.39    5.70
  -8  -5  -1  151.78    5.20
   8  -5   1  121.79    8.10
  -8   5   1  130.39    8.30
  -8  -5  -1  136.19    6.90
  -8   5  -2   27.00    4.90
   8  -5  -2   21.90    3.60
  -8  -5   2   23.40    3.00
  -8  -5   2   19.00    1.90
  -8   5  -2   18.70    3.40
  -8  -5   2   20.70    2.20
   8  -5  -2   14.00    3.10
   8   5   2   18.50    4.30
   8  -5   2   20.60    4.50
  -8  -5  -2   24.10    3.80
  -8   5   2   25.20    4.80
  -8  -5  -2   17.40    1.60
   8  -5  -3   48.00    4.70
  -8   5  -3   55.29    5.50
   8   5   3   58.19    5.80
   8  -5  -3   57.29    5.60
  -8  -5   3   52.29    4.20
  -8   5  -3   56.59    5.10
  -8   5   3   62.29    6.20
   8  -5   3   67.89    8.40
  -8  -5  -3   56.39    3.20
  -8  -5  -3   62.19    5.20
  -8   5  -4  178.88    9.60
  -8   5  -4  185.18    9.90
  -8  -5   4  189.88   10.50
   8  -5  -4  170.28    9.80
   8  -5  -4  195.68    9.70
   8   5   4  181.88    9.80
  -8  -5   4  173.58    8.70
  -8  -5  -4  182.18    7.40
   8  -5   4  168.58   11.10
   8   5  -4  167.68    7.50
  -8   5   4  194.78   10.90
  -8  -5  -4  177.48    9.70
   8  -5  -5    6.20    2.80
  -8   5  -5    5.10    2.50
   8   5   5   10.70    3.00
  -8  -5   5    9.30    2.30
   8  -5  -5   13.10    3.80
  -8   5  -5   14.30    3.50
  -8  -5   5   10.30    3.80
   8  -5   5    5.30    3.40
   8   5  -5    7.10    1.70
  -8   5   5    4.40    3.10
  -8  -5  -5    7.20    2.10
  -8  -5  -5    6.80    3.10
  -8   5  -6   20.50    4.70
   8   5   6   19.70    3.60
   8  -5  -6   20.70    4.60
   8  -5  -6   22.30    4.60
  -8  -5   6   16.40    4.80
  -8  -5  -6   23.80    5.10
  -8   5   6   12.60    4.20
   8   5  -6   17.60    3.10
   8  -5   6   17.40    4.90
  -8  -5   7    9.00    4.50
  -8   5  -7   10.30    3.70
   8  -5  -7   11.40    6.10
   8  -5  -7   11.00    3.70
  -8  -5  -7    8.80    3.70
  -8   5   7   11.80    4.00
   8  -5   7    8.20    3.70
  -8  -5  -7    8.40    2.70
   8  -5   7    7.10    2.20
   8  -5  -8   20.70    4.50
  -8   5  -8    9.90    3.30
  -8  -5   8   29.60    6.40
   8  -5  -8   25.50    5.50
   8  -5   8   25.60    5.30
  -8  -5  -8   25.10    4.30
  -8   5   8   36.20    6.10
  -8  -5  -8   21.50    5.10
  -8  -5   9   20.30    5.20
   8  -5  -9   11.40    3.90
   8  -5  -9   14.30    3.60
  -8  -5  -9   19.70    3.90
   8  -5   9   17.00    3.80
  -8   5   9   19.90    4.30
  -8  -5  -9   13.90    4.60
   8  -6   0    4.60    2.80
   8   6   0    5.10    3.50
  -8   6   0    4.80    3.30
  -8  -6   0    5.20    2.00
  -8  -6   1  501.75   17.10
   8  -6  -1  482.55   19.50
   8   6   1  496.35   20.70
  -8   6  -1  496.65   20.10
   8  -6  -1  494.45   19.50
  -8  -6   1  484.15   16.40
  -8   6  -1  489.55   18.30
  -8  -6   1  467.85   16.90
  -8  -6  -1  489.65   18.00
  -8  -6  -1  511.65   15.90
  -8   6   1  488.15   20.30
   8  -6   1  483.15   19.90
  -8   6  -2  370.96   16.60
  -8  -6   2  365.06   13.20
   8   6   2  400.56   17.40
  -8  -6   2  354.46   12.80
  -8  -6   2  358.96   13.60
  -8   6  -2  376.56   15.10
   8  -6  -2  364.66   16.10
   8  -6  -2  365.16   15.50
   8  -6   2  395.46   17.40
  -8   6   2  356.76   16.70
  -8  -6  -2  370.26   15.00
  -8  -6  -2  384.46   12.40
  -8  -6   3  230.38    8.30
  -8  -6   3  226.88   10.10
   8   6   3  223.88   12.40
  -8   6  -3  223.98   12.10
   8  -6  -3  231.08   12.00
  -8  -6   3  234.38    8.20
  -8   6  -3  215.18   10.90
   8  -6  -3  235.58   11.30
  -8  -6  -3  228.58   11.30
  -8  -6  -3  228.88    8.60
   8  -6   3  220.08   13.30
  -8   6   3  230.78   12.60
  -8   6  -4   38.80    4.90
  -8  -6   4   31.40    3.70
   8  -6  -4   38.60    5.80
   8  -6  -4   40.70    5.40
  -8   6  -4   50.79    6.80
   8   6   4   38.40    5.90
   8  -6   4   47.80    7.70
  -8  -6  -4   54.99    3.80
  -8   6   4   41.70    6.40
  -8  -6  -4   59.19    7.30
  -8  -6   5   24.50    5.30
  -8   6  -5   20.20    3.90
  -8  -6   5   26.80    4.30
   8  -6  -5   19.80    4.60
   8  -6  -5   18.60    4.00
   8   6   5   24.20    4.80
  -8   6  -5   20.90    4.60
  -8   6   5   24.00    5.40
  -8  -6  -5   22.60    5.00
   8  -6   5   18.20    5.00
  -8  -6  -5   20.20    3.20
  -8  -6   6   20.90    8.30
   8  -6  -6   14.00    3.70
   8  -6  -6   12.40    3.80
  -8   6  -6    7.90    2.80
   8   6   6   24.80    4.50
  -8  -6  -6   14.60    3.00
  -8  -6  -6   18.80    5.00
   8  -6   6   10.10    4.60
  -8   6  -7   27.20    4.60
   8  -6  -7   27.80    5.90
  -8  -6   7   34.40    6.60
   8  -6  -7   32.20    5.50
   8  -6   7   40.40    6.70
  -8  -6  -7   35.10    6.60
  -8  -6  -7   34.60    4.60
  -8   6   7   29.50    6.00
   8  -6   7   27.90    4.40
   8  -6  -8   20.20    4.80
  -8  -6   8   32.80    6.10
   8  -6  -8   17.80    4.30
  -8   6   8   27.60    5.10
  -8  -6  -8   23.60    4.30
  -8  -6  -8   22.20    7.20
   8  -6   8   24.20    4.80
   8  -7   0  387.56   17.40
   8   7   0  348.97   18.10
  -8   7   0  399.16   18.20
  -8  -7   0  386.76   15.10
   8   7   1   81.09    8.10
  -8   7  -1   71.79    7.60
  -8   7  -1   76.99    5.70
   8  -7  -1   82.19    7.30
   8  -7  -1   72.79    6.80
  -8  -7   1   76.69    5.50
  -8   7   1   88.29    8.10
   8  -7   1   77.49    7.30
  -8  -7  -1   73.49    6.00
   8  -7  -2   16.90    4.30
  -8  -7   2   16.50    3.00
   8   7   2    7.30    4.00
  -8  -7   2   15.50    2.90
  -8  -7   2   15.30    2.30
   8  -7  -2   20.50    4.80
  -8   7  -2   15.80    3.60
  -8   7  -2   11.10    4.20
  -8   7   2    8.20    4.10
   8  -7   2   16.50    4.80
  -8  -7  -2   13.60    3.80
  -8  -7  -2   14.50    2.50
  -8  -7   3    8.90    1.40
  -8  -7   3    8.50    1.90
   8  -7  -3    8.00    3.10
   8  -7  -3    6.00    3.30
  -8   7  -3   11.40    4.20
   8   7   3   10.80    4.40
  -8   7  -3   12.80    3.20
  -8  -7   3    8.00    2.10
   8  -7   3    8.60    4.30
  -8  -7  -3   11.80    3.70
  -8  -7  -3    9.40    2.30
  -8   7   3   11.10    4.40
   8   7   4   66.69    7.20
   8  -7  -4   65.59    6.40
  -8   7  -4   62.49    5.80
  -8  -7   4   56.59    5.00
  -8   7  -4   65.09    7.10
   8  -7  -4   66.19    8.70
  -8   7   4   63.09    8.60
  -8  -7  -4   53.69    5.00
   8  -7   4   81.19   10.40
  -8  -7  -4   64.19    6.60
  -8   7  -5    7.50    2.50
   8  -7  -5    2.90    3.40
  -8  -7   5    9.40    3.70
   8   7   5    9.50    4.00
  -8   7  -5   12.00    3.90
  -8   7   5   14.30    4.80
   8  -7   5   12.00    4.70
  -8  -7  -5    4.20    3.20
  -8  -7  -5    5.50    2.20
   8  -7  -6    4.30    3.20
   8   7   6    7.10    3.40
  -8  -7   6    4.70    3.60
   8  -7  -6    7.80    3.30
   8  -7   6   10.10    3.60
  -8  -7  -6    6.50    2.60
  -8   7   6   10.10    4.50
  -8  -7  -6    5.90    3.70
   8  -7  -7    1.10    2.70
   8  -7  -7    1.10    2.40
  -8  -7   7   10.60    3.50
   8  -7   7    1.40    2.40
  -8  -7  -7    2.40    2.90
  -8   7   7    2.90    3.70
   8  -8   0  128.89    9.80
  -8   8   0  129.69   10.50
  -8   8   0  121.29    7.30
   8   8   0  137.19   11.10
  -8  -8   0  133.69    8.10
  -8  -8   1  252.47   11.60
  -8   8  -1  241.38   14.60
   8   8   1  238.58   14.90
  -8   8  -1  232.28   11.20
   8  -8  -1  250.37   13.80
  -8  -8  -1  254.07   12.20
  -8   8   1  241.18   14.70
  -8   8   1  237.48   13.60
   8  -8   1  260.97   14.20
   8   8   2   84.69   10.30
  -8  -8   2   75.99    5.60
   8  -8  -2   63.79    7.20
   8  -8  -2   71.99    7.10
  -8   8  -2   64.99    9.00
  -8  -8  -2   77.79    6.80
  -8  -8  -2   67.69    4.80
   8  -8   2   72.79    8.20
  -8   8   2   61.99    8.70
  -8  -8   3   49.40    3.80
  -8   8  -3   36.70    7.10
   8   8   3   45.20    7.80
   8  -8  -3   29.90    5.80
   8  -8  -3   52.49    7.70
  -8   8  -3   36.70    5.60
  -8  -8  -3   43.30    4.10
   8  -8   3   34.70    6.60
  -8  -8  -3   52.09    9.10
  -8   8   3   55.59    8.40
  -8   8  -4   10.30    4.80
   8  -8  -4   16.00    4.10
   8  -8  -4    9.50    4.10
   8   8   4   17.10    5.10
  -8   8   4   17.50    5.50
  -8  -8  -4   17.10    4.50
   8  -8   4   13.90    4.80
  -8  -8  -4   15.40    3.10
   8  -8  -5   11.00    4.50
   8  -8  -5    9.80    3.70
  -8  -8   5    5.20    4.10
  -8   8  -5   19.60    4.40
  -8   8   5   18.10    5.60
  -8  -8  -5   11.70    4.50
   8  -8   5   11.90    4.50
  -8  -8  -5    9.70    2.70
   8   8   6   16.60    3.70
  -8  -8   6    3.10    3.80
   8  -8  -6   11.30    3.80
   8  -8  -6    6.10    3.80
   8  -8   6    4.50    3.20
  -8  -8  -6    7.00    3.70
  -8   8   6    4.40    3.80
  -8  -9   0   93.79    7.20
   8  -9   0  100.39    9.10
  -8   9   0   93.49    9.70
   8   9   0   88.79    9.80
   8  -9  -1   20.40    5.40
   8   9   1   18.40    5.80
  -8  -9   1   22.50    4.00
  -8   9  -1   19.40    6.00
   8  -9   1   12.80    4.60
  -8  -9  -1   24.10    4.60
  -8   9   1   13.90    5.30
   8  -9  -2    3.60    3.20
  -8  -9   2    7.60    2.40
  -8   9  -2    3.40    4.00
   8   9   2    8.30    4.30
   8  -9  -2    5.10    3.60
  -8  -9  -2    2.70    2.70
  -8   9   2    6.60    4.10
   8  -9   2    6.90    4.20
   8   9   3   15.40    5.70
   8  -9  -3   14.20    4.50
   8  -9  -3   16.60    4.80
  -8   9  -3   12.20    4.90
   8  -9   3   13.40    5.40
  -8   9   3   22.10    5.70
  -8  -9  -3   10.20    2.70
  -8  -9  -3   15.70    4.40
  -8   9  -4   28.00    6.50
   8   9   4   34.60    7.00
   8  -9  -4   12.70    3.90
   8  -9  -4   21.90    5.70
  -8  -9  -4   24.20    4.00
  -8  -9  -4   28.60    5.80
  -8   9   4   28.10    6.30
   8  -9   4   17.60    5.50
  -8   9  -5    4.90    3.60
   8  -9  -5    2.80    2.50
   8  -9  -5    2.20    3.20
   8   9   5    7.30    3.50
  -8  -9  -5    3.10    4.30
   8  -9   5    2.90    3.20
  -8  -9  -5    1.30    2.10
   8 -10   0    8.80    4.50
  -8 -10   0    7.60    2.30
  -8  10   0    3.10    4.10
  -8  10  -1   51.79    8.80
  -8 -10   1   59.49    5.40
   8  10   1   60.89    9.30
   8 -10  -1   51.89    7.90
  -8 -10  -1   57.39    6.00
   8 -10   1   57.99    9.30
  -8  10   1   65.09    9.60
  -8  10  -2   43.30    8.10
   8 -10  -2   40.50    6.90
   8  10   2   42.20    8.00
  -8  10   2   50.99    9.50
  -8 -10  -2   58.09    6.10
   8 -10   2   39.20    7.30
   8 -10  -3   69.69   14.40
  -8  10  -3   38.70    7.60
   8 -10  -3   40.90    7.70
   8  10   3   46.50    8.10
   8 -10   3   25.50    6.00
  -8 -10  -3   39.90    6.60
  -8  10   3   36.90    7.50
  -9   0   0    0.80    0.90
   9   0   0    0.40    1.40
  -9   0   0    2.30    1.40
   9   0   0    0.30    1.10
  -9   0   0    0.70    1.30
   9   0   1   57.79    3.50
   9   0  -1   52.89    3.90
   9   0  -1   52.49    3.70
   9   0  -1   48.70    3.00
  -9   0   1   54.09    3.40
  -9   0   1   56.39    4.30
  -9   0   1   54.49    3.30
  -9   0  -1   50.69    3.10
  -9   0  -1   54.29    3.40
  -9   0  -1   50.49    4.00
   9   0   1   56.99    4.50
   9   0  -2   42.00    2.90
  -9   0   2   41.40    3.10
  -9   0  -2   41.80    4.20
  -9   0   2   42.10    4.00
  -9   0   2   43.80    2.60
   9   0   2   40.90    4.20
  -9   0  -2   43.60    2.60
  -9   0  -3  273.37   10.10
   9   0  -3  267.77    9.20
  -9   0  -3  262.47    8.10
   9   0  -3  255.97   11.20
  -9   0  -3  264.17    8.00
   9   0   3  265.97   12.00
  -9   0   3  276.47   11.80
  -9   0  -3  249.18   11.30
   9   0  -3  264.47    9.90
  -9   0   3  267.87    8.90
  -9   0   4  301.27   11.80
  -9   0  -4  295.67   11.70
  -9   0   4  315.17   13.50
   9   0   4  324.27   14.00
   9   0  -4  306.37   10.40
   9   0  -4  273.77   14.30
   9   0  -4  318.37   10.50
   9   0   5   16.50    4.30
   9   0  -5   15.50    3.10
   9   0  -5   14.60    2.20
  -9   0  -5   13.50    2.80
   9   0  -5   15.80    2.20
  -9   0   5   16.50    4.00
  -9   0   6  400.16   17.10
   9   0  -6  367.16   13.60
  -9   0  -6  389.76   15.30
   9   0   6  394.66   17.30
   9   0  -6  389.26   13.20
   9   0  -6  391.06   15.20
   9   0  -7   81.39    6.30
   9   0  -7   93.19    4.90
  -9   0   7   87.89    7.60
   9   0   7   96.59    8.10
  -9   0  -7   85.59    6.60
   9   0  -7   89.79    5.90
  -9   0  -8   51.69    6.00
  -9   0   8   55.59    6.40
   9   0   8   51.59    7.10
   9   0  -8   68.49    6.10
   9   0  -8   61.49    3.90
  -9   0   9    8.30    3.90
   9   0  -9    4.10    2.70
  -9   0  -9    5.90    3.30
  -9   0  10    8.50    3.20
  -9   0 -10   12.50    3.80
  -9   1   0   -0.40    1.00
   9  -1   0    0.40    1.10
   9   1   0    2.70    1.40
  -9   1   0   -0.90    1.10
  -9   1   0    0.20    0.90
   9  -1   0    1.90    1.70
  -9  -1   0    0.00    0.70
  -9  -1   0    0.20    1.00
  -9  -1   0    0.50    1.30
   9  -1  -1    5.10    1.90
  -9  -1   1    6.60    1.50
   9  -1  -1    5.30    1.50
  -9  -1   1    6.40    2.20
  -9   1  -1    4.50    1.80
   9   1   1    4.50    1.80
  -9  -1   1    6.80    1.40
   9  -1  -1    4.50    1.70
  -9   1  -1    3.60    1.30
  -9   1  -1    4.10    1.50
   9  -1   1    6.90    2.40
   9   1  -1    4.60    1.50
  -9  -1  -1    3.40    1.20
  -9   1   1    4.30    1.80
   9  -1   1    8.20    1.80
  -9   1   1    6.70    1.80
  -9  -1  -1    4.90    1.60
   9   1  -1    4.80    1.20
  -9   1   1    2.90    1.20
   9  -1  -2  423.56   13.90
  -9  -1   2  399.96   15.40
   9   1   2  407.46   15.20
  -9   1  -2  414.76   13.10
  -9  -1   2  412.56   13.50
  -9  -1   2  413.76   12.30
   9  -1  -2  385.36   15.10
  -9   1  -2  416.96   15.60
   9  -1  -2  397.36   13.70
  -9  -1  -2  409.26   15.80
  -9  -1  -2  386.96   13.20
  -9   1   2  372.46   15.00
   9   1  -2  419.86   13.00
   9  -1   2  387.56   15.70
   9  -1   2  384.46   13.10
  -9   1   2  399.16   13.50
   9   1  -2  392.16   12.60
  -9  -1  -2  415.66   13.60
  -9  -1   3 1796.02   54.69
  -9  -1   3 1745.33   52.19
   9  -1  -3 1765.62   52.29
   9   1   3 1738.23   54.19
   9  -1  -3 1814.82   51.99
   9  -1  -3 1658.83   53.99
  -9   1  -3 2064.09   59.29
  -9   1  -3 1821.02   52.79
  -9   1  -3 1764.72   50.39
  -9  -1  -3 1811.62   50.39
   9  -1   3 1642.74   54.69
  -9  -1  -3 1828.52   51.69
  -9   1   3 1752.42   52.59
  -9   1   3 1680.73   54.09
   9   1  -3 1909.01   52.39
   9  -1   3 1837.62   50.59
  -9  -1  -3 1767.72   55.29
  -9  -1  -3 1749.53   50.39
  -9   1   3 1717.83   51.49
  -9  -1   4  131.99    6.70
   9  -1  -4  134.29    6.80
   9   1   4  138.09    9.40
  -9   1  -4  137.09    7.10
   9  -1  -4  135.99    6.30
  -9  -1   4  134.99    8.40
   9  -1   4  130.69    8.60
  -9   1   4  135.49    6.80
   9   1  -4  140.09    6.50
  -9  -1  -4  135.69    6.40
  -9   1   4  125.99    8.00
  -9   1  -5  520.35   18.80
  -9  -1   5  520.25   18.70
   9   1   5  537.65   20.50
   9  -1  -5  519.35   18.40
  -9  -1   5  543.15   20.40
   9  -1  -5  492.85   18.70
   9  -1  -5  543.65   17.60
  -9   1   5  501.55   18.50
   9   1  -5  505.65   17.90
  -9  -1  -5  522.15   18.10
   9  -1   5  530.35   21.00
  -9   1   5  491.85   19.90
   9   1   6  246.68   12.80
   9  -1  -6  244.28   10.10
  -9  -1   6  229.08   11.00
   9  -1  -6  243.68   10.30
  -9   1  -6  246.78   11.50
   9  -1  -6  257.67   11.30
  -9  -1   6  266.27   12.90
  -9  -1  -6  239.98   10.90
  -9   1   6  258.07   12.80
   9  -1   6  254.97   13.20
   9   1  -6  243.98   10.80
   9   1   7  201.78   12.10
   9  -1  -7  225.78    9.70
  -9   1  -7  224.28   11.40
  -9  -1   7  223.18   12.40
   9  -1  -7  219.48   11.00
   9   1  -7  210.88   10.60
  -9  -1  -7  223.08   10.90
  -9   1   7  240.08   12.50
   9  -1   7  229.78   12.70
  -9  -1   8    9.40    3.50
  -9   1  -8   11.50    3.90
   9   1   8   10.50    4.30
   9  -1  -8   12.70    3.60
   9  -1  -8   14.10    2.70
  -9  -1  -8   13.70    3.80
   9   1  -8   11.20    3.30
   9  -1   8   13.30    4.20
  -9   1   8   24.70    5.00
   9  -1  -9   28.20    4.90
  -9   1  -9   36.50    5.60
   9  -1  -9   36.70    4.40
  -9  -1  -9   31.30    5.50
   9  -1   9   45.40    7.40
  -9  -1  10    1.20    3.00
  -9   1 -10    7.90    3.10
  -9   1  10   12.20    3.30
  -9  -1 -10    5.80    3.30
   9  -2   0   -0.30    1.10
   9   2   0   -0.40    1.10
  -9  -2   0    0.10    0.60
   9  -2   0    2.60    1.70
  -9   2   0   -0.20    1.10
  -9  -2   0    2.10    1.50
  -9  -2   0    2.30    1.00
   9  -2   0    0.70    1.10
  -9   2   0    4.60    1.80
  -9  -2   0    0.90    1.30
  -9   2   0    0.60    1.60
  -9   2  -1  302.47   11.50
  -9   2  -1  272.97   11.90
   9  -2  -1  304.57   11.50
  -9   2  -1  302.97   11.00
   9  -2  -1  288.37   11.00
   9   2   1  297.27   11.30
  -9  -2   1  285.07   11.40
  -9  -2  -1  287.27   11.10
  -9  -2  -1  305.87   10.80
   9   2  -1  300.77    9.80
   9  -2   1  292.07   10.60
  -9   2   1  284.87   11.20
  -9   2   1  302.67   11.30
  -9   2   1  300.17   11.90
  -9  -2  -1  289.07   11.40
  -9  -2   2  312.27   12.30
   9  -2  -2  298.87   11.30
  -9  -2   2  297.77   10.50
  -9   2  -2  313.37   11.00
   9   2   2  312.07   12.30
   9  -2  -2  286.47   11.90
  -9   2  -2  306.37   12.80
   9  -2  -2  304.17   11.60
   9  -2   2  298.57   10.50
  -9  -2  -2  307.47   11.10
   9  -2   2  338.07   13.70
  -9  -2  -2  310.77   10.60
   9   2  -2  304.37    9.70
  -9  -2  -2  295.77   12.00
  -9   2   2  299.17   11.30
  -9   2   2  301.17   12.50
  -9   2   2  306.37   11.50
   9  -2  -3   58.99    4.30
  -9   2  -3   57.79    4.50
  -9   2  -3   63.59    3.60
   9  -2  -3   63.09    4.40
  -9  -2   3   61.19    5.20
  -9  -2   3   59.29    3.90
   9   2   3   65.99    5.30
   9   2  -3   66.99    3.60
   9  -2   3   65.39    5.90
  -9  -2  -3   56.89    3.30
  -9  -2  -3   61.79    3.20
  -9   2   3   66.09    5.30
   9  -2   3   59.29    3.20
  -9   2   3   58.19    4.20
  -9  -2  -3   63.19    3.40
  -9  -2   4  124.29    6.60
   9   2   4  148.59    8.50
   9  -2  -4  135.19    7.10
   9  -2  -4  125.79    6.70
  -9   2  -4  133.09    7.30
   9  -2   4  126.79    4.80
  -9   2   4  131.19    6.90
  -9  -2  -4  137.79    4.80
  -9  -2  -4  141.79    6.20
  -9  -2  -4  132.39    4.80
   9   2  -4  133.79    6.20
   9  -2   4  121.89   11.10
   9  -2  -5  160.18    7.80
  -9  -2   5  147.89    7.90
   9  -2  -5  149.69    8.10
  -9  -2   5  146.09    9.60
   9   2   5  163.68    9.60
  -9   2  -5  167.88    8.60
   9  -2   5  155.88   10.10
  -9  -2  -5  158.78    7.40
  -9   2   5  168.38    9.60
   9   2  -5  142.49    7.20
   9   2   6  212.78   11.80
  -9  -2   6  199.38   10.00
  -9  -2   6  230.48   12.30
   9  -2  -6  200.28   10.20
  -9   2  -6  219.68   10.90
   9  -2   6  201.98   12.00
   9   2  -6  210.18    9.70
  -9   2   6  215.08   11.60
  -9  -2  -6  225.18    9.90
   9  -2  -7   43.20    5.20
  -9   2  -7   34.60    4.90
  -9  -2   7   39.50    6.20
   9  -2  -7   40.50    5.40
   9  -2   7   29.20    5.90
  -9   2   7   39.60    6.10
   9   2  -7   39.60    4.40
  -9  -2  -7   41.70    5.20
   9  -2  -8  100.39    7.70
   9  -2  -8  109.19    6.90
  -9   2  -8   99.59    7.90
  -9  -2   8  115.59    9.00
   9   2  -8   96.19    7.00
  -9  -2  -8  102.39    7.50
  -9   2   8   99.49    8.10
   9  -2   8   95.99    8.80
  -9  -2   9   -0.40    2.50
   9  -2  -9    4.70    2.40
   9  -2  -9    7.00    3.20
  -9   2  -9    5.60    3.10
   9  -2   9    3.90    3.10
  -9   2   9   14.90    3.80
  -9  -2  -9    1.50    2.50
   9  -2  10    4.10    2.70
  -9   3   0    0.90    1.80
  -9  -3   0   -0.30    0.80
   9  -3   0    0.80    1.10
  -9  -3   0    1.20    0.60
   9  -3   0    1.60    1.70
  -9   3   0   -0.40    0.90
  -9   3   0   -0.20    1.10
  -9  -3   0    2.00    1.60
   9  -3   0    1.20    1.20
   9  -3  -1    8.10    2.50
  -9   3  -1    9.70    2.60
   9  -3  -1    3.60    1.60
  -9   3  -1    4.70    1.60
   9   3   1    4.80    1.80
  -9  -3   1   10.30    1.70
   9  -3  -1    6.00    1.70
  -9  -3   1    6.60    1.30
  -9  -3   1    4.30    2.10
  -9   3  -1    6.20    2.10
  -9   3   1    3.50    2.20
   9  -3   1    4.70    1.50
  -9  -3  -1    6.00    1.90
  -9   3   1    7.40    1.90
  -9  -3  -1    4.10    1.40
  -9   3   1    3.30    1.30
   9  -3   1    3.80    2.40
  -9   3  -2  304.77   11.90
  -9  -3   2  325.47   12.90
   9   3   2  303.27   12.40
  -9   3  -2  316.27   12.70
   9  -3  -2  320.17   12.10
   9  -3  -2  315.07   12.60
  -9  -3   2  311.57   10.90
   9  -3   2  302.37   11.30
  -9  -3  -2  299.27   11.80
  -9  -3  -2  304.77   12.50
  -9   3   2  299.17   12.00
  -9   3   2  345.37   13.50
  -9   3   2  325.77   12.10
   9  -3   2  308.57   14.10
   9  -3  -3 1235.98   38.10
  -9  -3   3 1240.98   37.30
   9  -3  -3 1240.18   38.40
  -9   3  -3 1247.38   37.50
   9   3   3 1167.48   38.90
  -9  -3   3 1251.87   40.00
  -9   3  -3 1172.48   38.50
  -9   3  -3 1240.98   38.60
  -9   3   3 1208.48   38.00
  -9   3   3 1269.17   39.90
  -9  -3  -3 1264.27   36.30
   9   3  -3 1255.97   35.90
   9  -3   3 1308.67   41.10
   9  -3   3 1202.58   36.70
  -9  -3  -3 1209.58   37.10
  -9   3  -4   83.09    5.90
   9  -3  -4   80.29    5.60
   9  -3  -4   88.79    5.90
   9   3   4   90.79    6.70
  -9   3  -4   74.89    4.80
  -9  -3   4   72.09    5.00
  -9  -3   4   83.99    6.60
  -9  -3  -4   82.79    4.40
  -9  -3  -4   75.69    4.10
  -9   3   4   80.09    6.50
   9  -3   4   80.19    4.10
   9  -3   4   69.69    6.90
   9   3  -4   84.89    4.50
   9  -3  -5  395.56   15.60
  -9  -3   5  384.26   15.30
   9  -3  -5  410.16   15.60
  -9  -3   5  396.86   17.20
  -9   3   5  416.16   17.10
   9  -3   5  393.36   12.60
   9  -3   5  398.26   18.00
   9   3  -5  388.06   14.20
  -9  -3  -5  410.76   14.20
  -9  -3  -5  364.46   12.50
   9  -3  -6  186.28   10.00
  -9   3  -6  198.28   10.50
  -9  -3   6  189.68    9.70
   9  -3  -6  200.88   10.10
  -9  -3   6  207.28   12.10
  -9  -3  -6  200.08    9.10
   9   3  -6  184.88    9.30
  -9   3   6  213.28   11.50
   9  -3   6  194.78   12.10
  -9  -3   7  159.98   11.10
  -9   3  -7  172.48   10.20
   9  -3  -7  174.48    9.60
   9  -3  -7  175.78   10.00
   9  -3   7  164.08   11.20
   9   3  -7  161.68    8.60
  -9   3   7  162.98   10.40
  -9  -3   8   12.70    4.60
   9  -3  -8   20.20    4.40
  -9   3  -8   14.70    3.70
   9  -3  -8   15.60    3.80
  -9  -3  -8   13.10    3.50
  -9   3   8   12.10    3.90
  -9  -3   9   19.70    4.90
   9  -3  -9   18.30    4.60
   9  -3  -9   27.60    4.50
  -9   3  -9   21.60    4.40
   9  -3   9   28.20    5.70
  -9   3   9   25.90    5.00
  -9  -3  -9   28.20    4.60
   9  -4   0    1.50    1.80
   9  -4   0   -0.60    1.60
  -9   4   0    0.70    1.90
  -9  -4   0    0.40    0.90
  -9  -4   0    0.50    1.00
  -9   4   0   -0.20    1.30
  -9  -4   0   -0.10    0.60
  -9  -4   1   35.70    2.50
  -9  -4   1   39.50    2.80
  -9  -4   1   35.10    2.60
   9  -4  -1   43.10    5.30
  -9   4  -1   32.80    4.40
   9  -4  -1   43.00    4.20
  -9   4   1   30.80    3.20
   9  -4   1   30.50    4.20
  -9  -4  -1   47.00    4.50
  -9  -4  -1   37.50    3.30
  -9   4   1   38.50    4.30
   9  -4  -2   25.40    4.90
  -9   4  -2   17.40    2.90
   9  -4  -2   39.20    4.80
  -9   4  -2   24.20    3.80
  -9  -4   2   21.00    1.70
  -9  -4   2   27.20    3.10
  -9  -4   2   22.80    1.70
  -9   4   2   28.40    4.70
   9  -4   2   24.40    3.20
  -9  -4  -2   23.00    3.40
  -9  -4   3  150.28    8.60
   9  -4  -3  145.89    7.70
   9  -4  -3  145.19    8.10
  -9   4  -3  132.89    7.80
   9   4   3  141.69    7.90
  -9  -4   3  138.69    6.80
  -9   4  -3  147.89    7.80
  -9   4  -3  141.19    7.90
  -9  -4  -3  150.88    5.40
   9  -4   3  138.89    6.70
   9   4  -3  134.59    5.10
  -9  -4  -3  133.99    6.90
  -9   4   3  140.89    8.70
   9  -4   3  139.79    9.50
  -9   4  -4  158.38    8.30
  -9   4  -4  164.78    8.90
   9  -4  -4  167.68    9.00
   9  -4  -4  172.38    8.80
  -9  -4   4  166.18    8.10
  -9  -4   4  170.08    9.70
   9   4  -4  160.28    6.60
   9  -4   4  181.88   11.00
   9  -4   4  152.68    7.10
  -9  -4  -4  164.78    6.70
  -9   4   4  162.58    9.80
  -9   4  -5   13.40    3.00
   9  -4  -5   10.70    3.30
  -9  -4   5   10.80    3.80
  -9  -4   5   11.40    2.50
  -9   4  -5   12.70    3.50
   9  -4  -5   17.90    3.80
   9   4  -5   11.80    2.30
   9  -4   5   10.40    1.90
  -9   4   5   11.90    3.90
  -9  -4  -5   13.50    2.00
  -9  -4  -5   11.30    2.40
   9  -4   5   20.00    5.10
  -9  -4   6  197.18   10.10
   9  -4  -6  211.98   11.00
  -9  -4   6  204.48   12.20
  -9   4  -6  206.98   11.00
   9  -4  -6  211.18   10.80
  -9  -4  -6  210.78    9.40
   9  -4   6  205.28   12.70
  -9   4   6  230.98   12.30
   9   4  -6  205.58   12.00
  -9  -4  -6  183.58    7.50
   9  -4   6  190.88    7.50
  -9  -4   7   56.09    8.10
  -9   4  -7   58.39    6.20
   9  -4  -7   47.20    6.00
   9  -4  -7   52.29    6.80
  -9  -4  -7   50.29    4.90
  -9   4   7   57.79    6.60
   9  -4   7   49.50    7.70
  -9   4  -8   28.90    5.40
  -9  -4   8   52.89    7.50
   9  -4  -8   33.80    5.40
   9  -4  -8   33.40    5.50
   9  -4   8   37.80    7.00
  -9  -4  -8   36.40    5.20
  -9   4   8   45.00    6.50
  -9   4  -9    5.50    3.40
   9  -4  -9    7.00    2.70
   9  -4  -9    7.50    3.40
  -9  -4   9    7.70    3.80
  -9  -4  -9    4.70    2.80
   9  -4   9    9.10    3.60
  -9  -4  -9    7.20    3.70
  -9   4   9    9.10    3.50
  -9  -5   0   -1.10    0.80
   9  -5   0   -0.40    1.70
  -9  -5   0    0.00    1.20
  -9  -5   0    0.50    0.90
  -9   5   0   -0.40    2.20
   9  -5   0    4.30    2.80
   9   5   1   -1.80    2.50
  -9   5  -1    5.00    2.90
  -9  -5   1    1.80    1.30
  -9  -5   1    1.00    1.00
  -9  -5   1    2.30    1.10
   9  -5  -1    0.30    2.00
   9  -5  -1    3.40    1.90
  -9   5   1    0.00    2.30
  -9  -5  -1    4.10    1.00
  -9  -5  -1    1.40    1.60
   9  -5   1    4.10    2.80
  -9  -5   2  120.99    5.90
   9   5   2  121.59    8.20
  -9  -5   2  120.89    5.20
   9  -5  -2  110.09    7.60
  -9  -5   2  111.89    4.90
  -9   5  -2  119.49    7.30
   9  -5  -2  118.49    7.40
  -9   5   2  114.99    8.10
  -9  -5  -2  123.39    4.30
  -9  -5  -2  120.59    6.90
   9  -5   2  108.89    8.50
  -9   5  -3  636.94   22.90
   9  -5  -3  616.24   23.30
  -9  -5   3  642.94   21.50
   9   5   3  639.44   23.60
  -9   5  -3  658.23   23.40
   9  -5  -3  642.64   22.90
   9  -5   3  642.74   25.60
  -9  -5  -3  653.03   19.40
  -9   5   3  627.64   24.20
   9  -5  -4   73.89    6.00
  -9   5  -4   72.69    6.00
   9   5   4   79.29    6.20
   9  -5  -4   64.29    6.10
  -9  -5   4   80.59    6.80
  -9  -5   4   62.79    5.00
  -9   5  -4   74.79    6.30
  -9   5   4   66.59    6.70
   9   5  -4   66.69    4.60
  -9  -5  -4   73.79    4.10
   9  -5   4   80.69    7.60
   9   5   5  218.58   10.40
  -9   5  -5  196.78   10.50
  -9  -5   5  195.88   11.60
  -9   5  -5  212.18   11.10
   9  -5  -5  200.28   10.60
   9  -5  -5  222.98   11.50
  -9  -5  -5  213.58    8.80
   9  -5   5  203.18   12.80
  -9   5   5  203.08   12.00
   9  -5  -6  117.89    8.20
  -9  -5   6  108.69    9.00
   9  -5  -6  126.49    8.80
  -9   5  -6  129.59    8.70
  -9  -5  -6  128.89   13.10
  -9   5   6  109.49    9.00
  -9  -5  -6  122.19    6.80
   9  -5   6   97.29    9.00
  -9   5  -7  113.19    8.50
   9  -5  -7  112.49    8.60
  -9  -5   7  116.69    9.80
   9  -5  -7  126.99    8.70
   9  -5   7  108.29    5.50
  -9   5   7  109.19    9.10
  -9  -5  -7  118.79    7.30
   9  -5   7  102.09    9.50
  -9  -5  -7  126.99    9.30
   9  -5  -8    6.70    3.00
   9  -5  -8    1.50    2.90
  -9  -5   8   19.20    5.10
  -9   5  -8    7.50    3.40
  -9   5   8   10.10    3.80
   9  -5   8    6.20    3.30
  -9  -5  -8    4.60    2.70
  -9  -5  -8    7.10    3.80
  -9  -6   0   -1.20    0.90
   9  -6   0    2.00    2.50
  -9   6   0    0.00    2.70
  -9  -6   0   -2.30    1.10
  -9  -6   1   89.29    5.10
  -9   6  -1   92.29    6.50
  -9   6  -1   96.79    7.70
  -9  -6   1   94.79    5.00
  -9  -6   1   90.99    5.30
   9   6   1   77.69    7.50
   9  -6  -1   88.49    7.00
   9  -6  -1   90.09    7.30
  -9  -6  -1   93.19    6.10
   9  -6   1   95.09    7.70
  -9   6   1   84.69    7.30
   9  -6  -2   99.99    7.40
   9   6   2  107.29    8.50
  -9  -6   2  106.99    5.50
   9  -6  -2  114.69    8.20
  -9  -6   2  105.49    5.00
  -9   6  -2  124.29    8.70
  -9  -6   2  102.69    5.80
  -9   6  -2  103.49    7.00
  -9  -6  -2  109.59    4.70
  -9  -6  -2  108.29    7.00
  -9   6   2  111.59    8.60
   9  -6   2  120.39    9.10
  -9   6  -3   15.20    4.10
   9   6   3   23.30    5.00
  -9  -6   3   21.10    3.50
   9  -6  -3   16.60    3.80
  -9   6  -3   15.10    3.20
   9  -6  -3   18.90    3.80
  -9  -6  -3   28.90    4.80
  -9  -6  -3   22.30    2.50
   9  -6   3   15.70    4.90
  -9   6   3   14.70    4.30
  -9   6  -4   41.80    6.20
   9  -6  -4   46.40    6.60
  -9  -6   4   50.49    7.00
   9   6   4   44.80    6.30
  -9   6  -4   51.99    5.30
   9  -6  -4   36.80    5.00
  -9  -6   4   45.40    4.30
  -9  -6  -4   49.40    6.50
  -9   6   4   40.00    6.40
   9  -6   4   42.80    7.00
  -9  -6  -4   44.00    3.40
  -9   6  -5   68.69    6.60
   9  -6  -5   57.49    5.90
   9  -6  -5   56.79    6.40
   9   6   5   52.39    5.80
  -9   6  -5   55.19    5.70
  -9  -6   5   57.39    5.10
  -9  -6   5   65.29    8.10
  -9   6   5   64.69    7.30
  -9  -6  -5   63.79    6.70
  -9  -6  -5   54.99    5.50
   9  -6   5   76.29    9.90
   9  -6  -6   56.99    7.80
  -9  -6   6   71.49    7.50
   9  -6  -6   56.29    6.30
  -9   6   6   62.89    8.50
  -9  -6  -6   65.99    7.10
  -9  -6  -6   61.29    4.90
   9  -6   6   59.89    8.60
  -9  -6   7   15.40    4.20
   9  -6  -7    8.10    3.50
  -9   6  -7   11.40    4.00
   9  -6  -7   10.60    3.70
  -9   6   7    9.70    4.20
  -9  -6  -7    9.20    4.00
   9  -6   7    9.50    4.20
  -9  -6  -7   12.40    3.00
   9  -6   7    5.40    3.00
   9  -6  -8   29.70    5.50
   9  -6  -8   33.30    5.50
  -9  -6   8   31.70    6.80
  -9  -6  -8   22.10    5.40
  -9   6   8   36.90    6.20
  -9  -6  -8   40.50    4.60
   9  -6   8   35.20    6.10
  -9   7   0   -0.70    2.80
  -9   7   0    4.00    2.10
   9  -7   0   -0.10    2.70
  -9  -7   0    0.50    1.80
   9  -7  -1    1.10    2.60
  -9   7  -1    4.60    3.50
   9  -7  -1    5.30    2.90
  -9   7  -1    6.30    2.30
   9   7   1    4.90    3.90
  -9  -7   1    7.00    2.40
  -9   7   1    1.00    3.40
   9  -7   1    2.50    3.40
  -9  -7  -1    8.80    2.90
  -9   7  -2   78.79    7.70
  -9  -7   2   68.89    4.80
  -9  -7   2   81.59    4.60
   9  -7  -2   76.39    7.20
  -9   7  -2   71.89    5.90
  -9  -7   2   76.49    5.20
   9   7   2   71.29    7.80
   9  -7  -2   84.19    7.20
   9  -7   2   57.99    8.10
  -9  -7  -2   82.69    6.60
  -9   7   2   76.49    7.80
  -9  -7  -2   76.39    4.50
  -9   7  -3  273.17   14.60
   9  -7  -3  239.58   13.50
  -9  -7   3  245.28    8.80
   9  -7  -3  250.97   13.00
   9   7   3  278.87   14.80
  -9   7  -3  275.77   12.60
  -9  -7  -3  279.77   13.40
   9  -7   3  263.97   15.50
  -9   7   3  261.77   14.70
  -9  -7  -3  267.07   10.00
  -9  -7   4   18.90    3.30
   9  -7  -4   15.50    4.00
  -9   7  -4   12.80    4.60
  -9   7  -4   24.70    4.70
   9  -7  -4   14.50    7.00
   9   7   4   17.60    4.70
   9  -7   4   15.90    5.20
  -9  -7  -4   16.90    4.20
  -9  -7  -4   15.80    2.70
  -9  -7   5  111.19    9.30
  -9   7  -5  110.39    8.80
   9   7   5  104.99    8.30
  -9   7  -5   96.29    7.70
   9  -7  -5  115.09    9.10
  -9  -7  -5  106.39    6.30
  -9   7   5  117.09    9.90
   9  -7   5  109.59   14.20
  -9  -7  -5  118.19    9.10
   9  -7  -6   62.09    6.50
   9  -7  -6   64.19    7.20
  -9  -7   6   52.79    7.90
   9  -7   6   47.30    7.70
  -9  -7  -6   54.89    8.20
  -9  -7  -6   60.19    5.10
  -9   7   6   57.59    8.40
   9  -7  -7   60.69    6.50
  -9  -7   7   54.29    8.10
   9  -7  -7   54.19    7.80
  -9  -7  -7   48.90    5.10
   9  -7   7   47.00    7.90
  -9  -7  -7   44.90    7.60
  -9   7   7   55.49    8.20
  -9   8   0   -0.20    3.50
  -9  -8   0    0.80    2.10
  -9   8   0    1.90    1.80
   9  -8   0    1.30    2.90
  -9  -8   1   18.80    3.70
  -9   8  -1   20.80    5.80
   9   8   1   25.50    6.50
  -9  -8  -1   21.60    4.30
   9  -8   1   18.30    4.80
  -9   8   1   12.70    7.90
  -9   8   1   15.40    3.10
   9   8   2    9.80    4.60
   9  -8  -2    4.10    3.10
  -9  -8   2    4.50    2.00
  -9   8  -2    5.60    2.50
  -9   8  -2   -0.60    3.20
   9  -8  -2    3.40    3.60
  -9   8   2    3.00    3.80
   9  -8   2    9.10    4.80
  -9  -8  -2    2.30    2.80
   9   8   3   30.90    6.40
   9  -8  -3   28.20    5.70
  -9   8  -3   27.80    5.50
   9  -8  -3   41.40    7.00
  -9  -8   3   36.10    2.80
  -9   8  -3   40.40    7.50
  -9  -8  -3   33.50    6.80
  -9   8   3   33.10    6.80
  -9  -8  -3   34.10    3.60
   9  -8   3   32.10    7.70
   9   8   4   45.10    7.10
   9  -8  -4   29.70    5.30
   9  -8  -4   31.40    5.90
  -9   8   4   45.20    7.80
   9  -8   4   42.20    7.90
  -9  -8  -4   41.00    4.00
  -9  -8  -4   60.29    8.10
  -9  -8   5    6.00    4.00
   9  -8  -5    6.70    3.40
   9  -8  -5    4.50    3.20
  -9   8  -5   12.60    3.40
   9  -8   5   12.40    4.60
  -9  -8  -5    8.00    2.50
  -9  -8  -5   10.00    4.00
  -9   8   5    6.60    4.30
  -9  -8   6   51.79    8.10
   9  -8  -6   39.10    6.70
   9  -8  -6   32.50    5.60
  -9   8   6   47.50    7.90
  -9  -8  -6   42.40    7.70
   9  -8   6   45.80    7.40
  -9  -8  -6   47.30    4.70
  -9  -9   0    4.10    2.10
  -9   9   0   -1.10    3.30
   9  -9   0    0.70    3.60
  -9   9  -1    1.80    3.90
  -9  -9   1    3.70    1.80
   9   9   1    5.80    4.00
   9  -9  -1    1.20    3.10
  -9   9   1    0.70    3.30
   9  -9   1    1.20    3.30
  -9  -9  -1    6.90    3.00
   9  -9  -2   11.20    3.90
  -9  -9   2   12.10    2.70
   9  -9  -2   10.30    4.40
   9   9   2    1.70    4.30
  -9   9  -2   11.10    4.70
  -9  -9  -2   10.80    3.50
   9  -9   2    4.10    3.40
  -9   9   2    8.80    4.60
   9   9   3   99.69    9.60
   9  -9  -3   77.99    7.80
   9  -9  -3   92.69    8.90
  -9   9  -3   92.39    9.50
  -9   9   3   91.89    9.80
  -9  -9  -3   92.89    8.10
  -9  -9  -3   88.09    5.80
   9  -9   3   69.79    9.80
   9  -9  -4   14.90    4.00
   9   9   4   26.20    6.30
   9  -9  -4   19.70    5.50
  -9   9  -4   22.20    6.40
  -9   9   4   20.30    6.10
  -9  -9  -4   18.20    3.40
   9  -9   4   28.00    6.50
  -9  -9  -4   20.30    5.10
  -9  -9   5   39.60    6.90
  -9   9  -5   42.00    7.10
   9  -9  -5   24.10    5.90
   9   9   5   46.80    7.40
   9  -9  -5   30.80    6.90
   9  -9   5   28.60    6.20
  -9  -9  -5   38.10    4.70
  -9  -9  -5   21.50    6.00
  -9   9   5   34.20    7.30
   9 -10   0    5.60    3.90
  -9  10   0   -1.60    3.20
   9 -10  -1   22.30    6.00
  -9  10  -1   16.90    6.00
  -9 -10   1   32.40    3.60
  -9  10   1   16.40    5.60
   9 -10   1   14.40    5.10
  -9 -10  -1   17.20    3.90
  -9  10  -2   26.10    6.90
   9 -10  -2   23.40    9.30
   9 -10   2   25.50    6.60
  -9 -10  -2   20.40    4.30
  -9  10   2   19.80    6.60
   9 -10  -3    2.90    3.00
   9 -10  -3    4.10    3.30
  -9  10   3    6.70    4.20
  -9 -10  -3   10.70    3.20
   9 -10   3    1.70    3.20
  10   0   0 2269.57   63.59
 -10   0   0 2063.29   62.89
 -10   0   0 2187.38   63.09
 -10   0   0 2174.78   62.09
  10   0   0 2111.09   62.89
  10   0  -1 1250.57   38.50
 -10   0  -1 1248.28   37.10
  10   0   1 1252.67   37.40
  10   0   1 1192.78   39.00
 -10   0  -1 1227.38   38.80
 -10   0   1 1244.48   37.40
  10   0  -1 1258.47   36.90
 -10   0   1 1227.98   37.50
 -10   0  -1 1332.67   37.70
  10   0  -1 1272.67   37.90
 -10   0   1 1316.07   38.80
  10   0   2   47.70    4.80
 -10   0  -2   61.99    4.70
 -10   0   2   57.09    3.20
  10   0  -2   48.70    3.50
 -10   0  -2   54.89    3.30
 -10   0   2   60.29    3.80
  10   0  -2   68.09    4.70
 -10   0   2   61.69    4.90
 -10   0   3 1234.18   38.40
  10   0  -3 1216.58   36.10
 -10   0   3 1177.08   34.90
 -10   0  -3 1180.48   34.60
 -10   0  -3 1204.48   34.20
  10   0  -3 1190.48   35.30
  10   0  -4   92.59    5.30
 -10   0   4   86.59    5.40
  10   0   4   88.69    7.00
 -10   0   4   84.29    7.00
  10   0  -4   93.39    4.50
 -10   0  -4   96.49    5.60
  10   0  -5   10.60    1.90
 -10   0   5    7.50    2.00
  10   0   5    6.20    2.90
 -10   0  -5    8.80    2.40
  10   0  -5   12.50    2.00
 -10   0   5    5.40    3.00
  10   0  -5   11.90    2.80
 -10   0   6    7.10    3.50
  10   0  -6    5.70    2.20
  10   0  -6    8.50    1.70
  10   0   6    6.00    3.10
 -10   0  -6    5.10    2.30
  10   0  -6    4.30    1.60
  10   0  -7   97.09    4.90
  10   0  -7   97.89    6.80
  10   0   7   87.89    8.30
 -10   0  -7  112.19    7.60
  10   0  -7   95.49    5.40
 -10   0   7  111.69    8.60
 -10   0   8   -0.60    3.00
  10   0   8   -2.40    2.50
  10   0  -8    3.00    1.40
 -10   0  -8    3.00    2.50
  10   0  -8    0.40    2.20
 -10   0  -9   51.39    6.90
  10   0  -9   61.29    7.90
  10   0   9   39.60    6.50
 -10   0   9   66.69    6.90
 -10   0 -10   19.60    5.20
 -10   1   0  127.49    5.80
 -10   1   0  122.19    6.40
  10  -1   0  118.39    6.80
  10   1   0  115.79    6.10
 -10  -1   0  129.19    5.00
 -10   1   0  105.29    6.00
 -10  -1   0  123.99    6.30
  10  -1   0  124.29    6.20
 -10  -1   0  111.59    5.80
  10   1   1    6.30    2.20
 -10   1  -1    4.90    1.70
 -10  -1   1    4.70    1.20
  10  -1  -1    4.90    2.10
 -10   1  -1    7.30    1.90
  10  -1  -1    5.00    1.90
 -10  -1   1    3.60    1.30
 -10   1  -1    2.90    1.60
  10  -1  -1    5.80    1.50
 -10  -1   1    2.60    1.90
 -10  -1  -1    2.80    1.40
  10   1  -1    5.50    1.60
  10  -1   1    5.00    2.40
 -10  -1  -1    2.80    1.50
  10  -1   1    5.80    1.70
 -10   1   1    3.80    2.00
 -10   1   1    4.60    1.60
  10   1  -1    3.80    0.90
 -10   1   1    6.60    1.80
 -10  -1   2 1485.35   46.50
  10  -1  -2 1538.45   44.70
  10  -1  -2 1490.15   44.30
 -10   1  -2 1453.65   46.40
 -10   1  -2 1565.64   43.80
  10   1   2 1516.85   46.40
 -10  -1   2 1533.05   43.00
  10  -1  -2 1441.26   46.20
 -10  -1   2 1476.25   44.10
 -10  -1  -2 1517.85   44.50
 -10   1   2 1500.85   44.30
 -10  -1  -2 1496.55   45.90
  10   1  -2 1423.56   43.60
 -10   1   2 1672.73   47.90
 -10  -1  -2 1481.65   44.00
  10  -1   2 1460.25   43.90
  10  -1   2 1533.55   47.10
  10   1  -2 1497.05   43.40
 -10   1   2 1460.95   46.20
 -10  -1   3   98.19    7.00
 -10  -1   3   97.79    5.40
  10  -1  -3  110.89    5.80
  10  -1  -3  119.69    5.60
  10   1   3  103.49    7.00
 -10   1   3  107.69    7.10
 -10  -1  -3  107.29    5.20
  10  -1   3   97.29    7.20
 -10  -1  -3  113.89    4.40
 -10   1   3  104.19    5.00
 -10   1   3  106.09    5.80
 -10  -1  -3  100.29    4.30
  10   1  -3  104.69    5.00
  10  -1   3  108.89    4.40
 -10   1  -4   43.20    6.40
 -10  -1   4   32.90    3.40
  10  -1  -4   36.70    3.30
  10   1   4   41.20    5.70
  10  -1  -4   34.40    3.50
 -10   1   4   42.40    3.70
  10   1  -4   34.40    3.10
  10  -1   4   35.10    5.70
 -10  -1  -4   35.90    3.30
 -10   1  -5   53.29    4.80
 -10  -1   5   57.69    5.90
  10  -1  -5   55.09    4.00
  10  -1  -5   48.90    4.50
  10   1   5   53.19    6.00
 -10  -1   5   53.19    4.40
 -10   1   5   55.39    5.90
 -10  -1  -5   56.49    4.50
  10  -1   5   44.20    5.90
  10   1  -5   49.10    4.10
 -10   1   5   58.49    4.40
  10   1   6   24.20    5.30
  10  -1  -6   22.30    3.20
 -10  -1   6   20.40    4.70
 -10   1  -6   21.00    4.30
  10  -1  -6   21.70    3.20
  10  -1  -6   18.60    3.40
 -10  -1   6   30.10    4.40
 -10   1   6   28.60    5.20
  10  -1   6   16.60    4.60
  10   1  -6   16.70    3.00
 -10  -1  -6   23.00    3.90
 -10   1  -7    1.40    2.40
  10  -1  -7    0.20    1.60
  10  -1  -7   -0.70    1.90
 -10  -1   7   -0.70    2.70
  10   1   7   -1.60    2.30
 -10   1   7   -2.90    2.50
  10   1  -7    0.30    1.60
 -10  -1  -7    0.90    1.90
  10  -1   7    0.80    2.70
 -10   1  -8   63.59    7.30
  10  -1  -8   61.69    4.60
  10  -1  -8   64.09    6.10
 -10  -1   8   66.59    7.30
  10   1   8   67.69    7.40
 -10  -1  -8   66.19    6.30
  10   1  -8   56.19    5.60
  10  -1   8   72.49    8.10
 -10   1   8   67.19    7.20
  10  -1  -9   12.60    3.70
 -10   1  -9    9.50    3.60
 -10  -1   9   16.30    4.80
  10  -1  -9   26.00    3.30
  10  -1   9   13.40    4.40
 -10   1   9   22.00    5.00
 -10  -1  -9   22.50    4.60
 -10  -1  10   66.59    7.30
 -10   1 -10   81.69   12.60
 -10   1  10   60.59    6.90
 -10  -1 -10   60.99    6.80
 -10   2   0  862.41   28.70
 -10   2   0  927.01   28.60
 -10  -2   0  875.71   29.40
 -10  -2   0  918.01   26.00
 -10  -2   0  871.81   27.50
  10  -2   0  866.21   29.00
  10  -2   0  870.51   27.80
  10  -2   0  883.41   28.10
 -10   2   0  894.11   28.00
 -10  -2   0  926.61   28.20
  10   2   0  899.81   27.50
 -10  -2   1 2450.35   66.39
 -10  -2   1 2348.47   67.79
  10  -2  -1 2335.07   67.79
  10  -2  -1 2229.38   67.39
 -10   2  -1 2374.76   67.59
 -10  -2   1 2199.78   65.89
 -10   2  -1 2169.28   68.19
  10   2   1 2371.96   67.49
 -10   2  -1 2402.36   67.19
  10  -2   1 2303.07   69.29
 -10   2   1 2372.56   68.29
 -10  -2  -1 2274.57   67.89
  10   2  -1 2345.07   65.59
 -10   2   1 2214.08   67.19
 -10  -2  -1 2382.16   66.79
  10  -2   1 2208.18   66.49
 -10  -2  -1 2196.68   67.19
  10  -2  -2  127.79    6.50
  10  -2  -2  111.19    5.90
 -10   2  -2  116.19    5.60
 -10  -2   2  105.59    5.20
  10   2   2  106.89    6.60
 -10  -2   2  117.79    6.90
  10  -2   2  109.79    7.30
  10  -2   2  111.59    5.20
 -10  -2  -2  117.59    5.90
  10   2  -2  111.59    4.30
 -10   2   2  120.49    6.20
 -10  -2  -2  112.99    6.40
 -10  -2  -2  117.19    5.40
 -10   2   2  110.09    7.00
  10  -2  -3  129.09    6.60
 -10  -2   3  116.89    6.00
 -10   2  -3  123.59    5.60
  10  -2  -3  125.89    6.60
 -10   2  -3  128.59    7.00
 -10  -2   3  135.79    7.80
  10   2   3  123.59    7.60
 -10   2   3  116.69    7.70
  10  -2   3  132.19    8.50
 -10   2   3  124.09    6.10
 -10   2   3  123.19    6.60
 -10  -2  -3  128.49    5.50
 -10  -2  -3  126.69    5.40
  10   2  -3  125.79    5.40
  10  -2   3  120.59    5.20
 -10  -2  -3  125.39    5.30
 -10  -2   4  217.38   11.50
  10   2   4  219.38   11.20
  10  -2  -4  226.88    9.80
 -10   2  -4  217.08   10.10
  10  -2  -4  224.18    9.50
 -10  -2   4  204.98    9.30
 -10  -2  -4  214.58    7.20
 -10  -2  -4  214.28    8.60
  10   2  -4  210.38    8.60
  10  -2   4  216.68    8.20
 -10  -2  -4  218.18    7.40
 -10   2   4  234.88   11.50
 -10   2   4  219.48    9.80
  10  -2   4  205.98   11.80
 -10  -2   5   12.80    4.00
  10  -2  -5   12.20    2.80
  10   2   5    7.00    3.50
 -10  -2   5    6.00    2.20
  10  -2  -5    7.10    2.30
 -10   2  -5    9.20    3.00
 -10   2   5    8.60    3.50
  10  -2   5   14.90    4.40
 -10  -2  -5    7.70    2.10
  10  -2  -6   36.30    4.70
 -10   2  -6   31.20    4.50
  10   2   6   37.80    6.20
 -10  -2   6   33.80    5.70
 -10  -2   6   34.40    3.60
 -10  -2  -6   32.30    4.40
 -10   2   6   32.10    5.50
  10  -2   6   41.90    7.00
  10   2  -6   34.60    3.80
  10   2   7    1.00    2.80
 -10   2  -7    0.80    2.50
  10  -2  -7    2.80    2.20
  10  -2  -7    4.10    2.70
 -10  -2   7    2.10    3.20
 -10  -2  -7    2.20    2.10
  10  -2   7    0.40    3.10
 -10   2   7    1.20    3.30
  10   2  -7   -0.60    1.80
  10  -2  -8    7.30    3.00
  10  -2  -8    6.00    2.30
 -10   2  -8    3.50    3.20
 -10  -2   8    2.40    3.30
 -10   2   8    4.90    3.00
  10   2  -8    1.70    2.50
  10  -2   8    5.70    3.20
 -10  -2  -8    3.60    2.70
 -10  -2   9   76.59    8.00
 -10   2  -9   81.39    7.60
  10  -2  -9   80.49    6.10
  10  -2  -9   97.29    8.10
  10  -2   9   88.39    8.50
 -10  -2  -9   99.59    7.70
 -10   2   9   95.49    8.20
 -10  -3   0   67.89    2.90
 -10   3   0   64.09    4.60
  10  -3   0   65.09    5.30
  10  -3   0   71.39    5.00
 -10  -3   0   71.09    4.20
 -10  -3   0   73.99    5.40
  10  -3   0   71.29    4.60
 -10   3   0   75.09    5.40
 -10  -3   1    1.70    1.00
  10  -3  -1    2.10    1.80
 -10  -3   1    1.60    1.00
  10  -3  -1    4.20    1.60
 -10  -3   1    0.10    1.60
 -10   3  -1    1.00    1.40
 -10   3  -1   -0.20    1.50
  10   3   1    2.70    1.70
 -10   3   1    4.70    2.30
  10  -3   1    1.90    1.20
  10  -3   1    3.90    2.20
 -10   3   1    2.40    1.30
 -10  -3  -1    0.80    1.20
 -10  -3   2 1075.59   32.30
 -10   3  -2 1089.89   33.60
  10  -3  -2 1115.39   34.50
  10   3   2 1031.00   34.20
 -10  -3   2 1129.49   35.00
 -10   3  -2 1046.40   34.30
  10  -3  -2 1117.49   34.00
 -10   3   2 1127.59   35.40
 -10   3   2 1081.59   34.00
 -10  -3  -2 1035.70   33.60
  10  -3   2 1100.59   36.50
  10  -3   2 1042.10   32.90
 -10   3  -3   61.59    5.10
  10  -3  -3   71.89    5.00
 -10   3  -3   60.49    4.80
  10  -3  -3   62.09    5.00
 -10   3  -3   67.89    4.50
 -10  -3   3   64.19    5.60
 -10  -3   3   57.99    4.00
 -10  -3  -3   57.99    3.90
 -10   3   3   68.79    6.00
  10  -3   3   65.69    6.30
 -10   3   3   70.99    4.80
 -10  -3  -3   61.09    3.20
  10  -3   3   57.99    3.70
  10   3  -3   63.59    3.20
 -10  -3   4   30.50    4.00
 -10   3  -4   30.10    4.60
 -10  -3   4   33.00    5.40
 -10   3  -4   29.70    3.50
  10   3   4   26.60    4.50
  10  -3  -4   33.60    4.20
  10  -3  -4   31.40    4.20
  10  -3   4   29.60    5.40
 -10   3   4   37.70    5.50
 -10  -3  -4   28.90    2.70
  10   3  -4   29.00    2.60
  10  -3   4   26.80    2.30
 -10  -3  -4   28.70    2.40
  10  -3  -5   41.90    5.20
 -10   3  -5   39.00    5.40
 -10  -3   5   46.40    6.50
 -10  -3   5   38.20    3.90
  10  -3  -5   47.70    5.60
  10   3  -5   37.30    3.30
  10  -3   5   36.40    6.40
  10  -3   5   40.20    2.40
 -10  -3  -5   37.10    2.60
 -10   3   5   58.59    7.30
 -10  -3  -5   37.40    3.60
 -10   3  -6    7.70    3.10
 -10  -3   6   14.10    2.30
 -10  -3   6    8.90    4.00
  10  -3  -6    8.70    2.80
  10  -3  -6    8.60    3.00
 -10  -3  -6    7.90    2.60
  10   3  -6    7.50    2.10
  10  -3   6    5.50    3.60
 -10   3   6    5.00    3.30
 -10   3  -7    1.50    2.70
  10  -3  -7    0.10    2.30
  10  -3  -7   -0.70    2.30
 -10  -3   7    0.80    3.10
  10  -3   7    1.20    3.30
 -10  -3  -7    1.70    2.20
 -10   3   7    0.30    3.10
  10   3  -7   -2.30    2.60
 -10  -3   8   54.59    7.80
 -10   3  -8   39.80    5.60
  10  -3  -8   52.19    6.60
  10  -3  -8   51.09    5.30
 -10   3   8   43.00    8.10
 -10  -3  -8   46.20    5.20
  10  -3   8   31.30    5.90
 -10   3  -9    9.30    3.50
  10  -3  -9   13.10    4.50
  10  -3  -9   20.40    3.80
 -10  -3   9    8.80    3.90
 -10   3   9   12.20    3.80
  10  -3   9   16.00    4.40
 -10  -3  -9   14.60    3.50
 -10  -4   0  978.80   31.70
 -10   4   0 1051.59   33.90
 -10  -4   0 1043.60   29.50
  10  -4   0 1093.89   33.90
 -10   4   0 1003.30   33.00
  10  -4  -1  556.74   19.90
 -10   4  -1  529.65   22.00
 -10  -4   1  556.64   17.10
 -10  -4   1  555.64   17.50
 -10  -4   1  566.84   17.00
 -10   4  -1  539.05   19.70
 -10  -4  -1  500.15   18.70
  10  -4   1  544.15   21.10
 -10   4  -2   41.50    5.00
 -10  -4   2   40.40    4.50
 -10  -4   2   33.80    2.00
 -10   4  -2   40.60    3.80
  10  -4  -2   41.40    4.50
 -10  -4   2   32.80    2.80
  10  -4  -2   32.60    4.10
  10  -4   2   34.30    3.50
 -10  -4  -2   39.50    3.50
  10  -4   2   34.70    5.40
 -10   4   2   37.90    5.20
 -10   4  -3  671.03   23.20
  10  -4  -3  676.43   23.20
 -10  -4   3  702.23   24.50
  10  -4  -3  664.23   23.80
 -10   4  -3  676.63   23.70
 -10  -4   3  668.93   22.10
 -10   4  -3  637.54   23.70
 -10  -4  -3  702.43   20.10
 -10  -4  -3  623.44   22.30
  10  -4   3  634.74   21.90
  10  -4   3  733.73   26.50
 -10   4   3  708.43   25.20
 -10  -4   4   53.49    4.40
  10  -4  -4   57.39    5.40
  10  -4  -4   55.89    5.10
 -10   4  -4   45.20    4.50
 -10   4  -4   56.09    5.30
 -10  -4   4   56.89    5.90
 -10  -4  -4   52.79    3.40
 -10   4   4   51.99    5.90
  10  -4   4   47.50    6.60
  10  -4   4   55.79    3.70
  10   4  -4   58.29    3.20
 -10  -4   5    3.80    1.40
 -10  -4   5    0.10    2.60
 -10   4  -5    1.50    1.80
 -10   4  -5    1.30    2.20
  10  -4  -5    2.40    2.60
  10  -4  -5    0.30    2.20
 -10  -4  -5    1.90    1.50
 -10   4   5    2.30    3.20
  10  -4   5    1.80    1.10
  10   4  -5    2.80    1.30
  10  -4   5    1.10    2.80
 -10  -4  -5   -1.10    0.80
 -10   4  -6    2.70    2.90
  10  -4  -6    2.20    2.50
 -10  -4   6    5.30    1.70
  10  -4  -6    3.10    2.30
 -10  -4   6   -0.10    3.20
 -10  -4  -6    3.90    2.10
  10  -4   6    0.90    3.40
 -10  -4  -6    4.00    0.90
 -10  -4  -6    3.10    0.90
 -10   4   6    1.60    3.10
  10   4  -6    2.80    2.20
  10  -4   6    0.10    1.20
 -10   4  -7   58.49    6.20
 -10  -4   7   64.99    8.60
  10  -4  -7   64.09    6.30
  10  -4  -7   61.99    6.10
  10  -4   7   80.79   10.30
 -10  -4  -7   57.09    5.20
 -10   4   7   60.49    6.90
 -10   4  -8    3.40    2.60
  10  -4  -8    2.10    2.80
  10  -4  -8    3.10    2.20
 -10  -4   8    0.40    3.10
 -10  -4  -8    2.50    2.20
 -10   4   8   -0.90    2.40
  10  -4   8   -5.30    2.40
  10  -4  -9   33.40    5.50
 -10  -4   9   28.70    5.90
  10  -4  -9   18.30    4.40
 -10   4  -9   32.40    5.50
 -10  -4  -9   27.90    6.20
 -10  -4  -9   39.10    5.70
 -10   4   9   40.60    6.20
  10  -4   9   29.70    5.50
 -10   5   0   74.49    6.40
 -10  -5   0   75.59    3.40
 -10  -5   0   80.39    4.80
  10  -5   0   77.29    6.50
 -10  -5   0   68.79    4.50
 -10  -5   1    2.50    1.30
  10  -5  -1    0.40    2.00
 -10  -5   1    3.10    1.20
  10  -5  -1    3.10    2.10
 -10   5  -1    6.40    3.00
 -10  -5   1    1.50    1.40
 -10   5   1    2.60    2.70
  10  -5   1    0.60    2.40
 -10  -5  -1    0.50    1.60
  10  -5  -2  563.54   20.70
 -10  -5   2  510.05   17.50
  10  -5  -2  523.95   19.80
 -10   5  -2  533.15   19.90
 -10  -5   2  521.55   16.40
 -10  -5   2  515.25   16.40
 -10   5  -2  522.05   20.20
  10  -5   2  517.35   21.90
 -10  -5  -2  552.54   19.20
 -10   5   2  534.85   21.10
 -10  -5   3   42.50    3.70
  10  -5  -3   49.80    7.20
  10  -5  -3   29.20    4.50
 -10   5  -3   43.20    4.90
 -10  -5   3   42.50    5.90
  10  -5   3   56.89    8.10
 -10   5   3   36.90    5.80
 -10  -5  -3   41.20    2.50
 -10   5  -4    8.20    3.10
 -10  -5   4    9.20    3.80
 -10   5  -4   10.10    3.10
  10  -5  -4    6.40    2.60
  10  -5  -4    6.60    2.70
 -10  -5   4    6.00    2.10
  10  -5   4    4.20    3.40
 -10   5   4    8.40    3.80
 -10  -5  -4    6.60    1.70
  10  -5  -5   41.50    5.90
  10  -5  -5   27.50    4.90
 -10   5  -5   34.00    6.10
 -10   5  -5   28.10    4.70
 -10  -5   5   30.20    4.20
 -10  -5   5   31.90    6.10
 -10  -5  -5   27.00    3.10
 -10   5   5   31.90    6.00
  10  -5   5   35.50    6.90
 -10  -5   6   11.60    4.20
 -10   5  -6   15.80    4.00
  10  -5  -6   14.20    4.20
  10  -5  -6    9.10    3.30
  10  -5   6   16.90    5.10
 -10   5   6   16.70    4.90
 -10  -5  -6   11.30    2.80
 -10   5  -7    0.70    2.40
  10  -5  -7    1.60    2.60
  10  -5  -7    1.80    2.50
 -10  -5   7   -5.20    2.90
 -10  -5  -7   -1.70    2.40
 -10   5   7    4.30    3.20
  10  -5   7    1.20    3.20
 -10  -5  -7   -1.20    1.80
 -10   5  -8   28.10    5.50
  10  -5  -8   37.90    6.10
  10  -5  -8   30.40    5.40
 -10  -5   8   35.90    6.50
 -10  -5  -8   25.70    5.80
 -10  -5  -8   22.00    4.20
 -10   5   8   25.00    5.40
  10  -5   8   36.80    7.20
 -10   6   0  223.08   12.50
 -10  -6   0  232.78   10.10
  10  -6   0  228.58   12.40
 -10  -6   0  229.78    8.40
 -10   6  -1  671.23   25.00
 -10  -6   1  651.43   21.10
 -10  -6   1  645.44   20.50
  10  -6  -1  634.74   24.40
 -10  -6   1  592.94   20.90
  10  -6  -1  656.13   24.10
  10  -6   1  629.94   25.00
 -10  -6  -1  628.44   22.20
 -10   6   1  638.24   24.90
  10  -6  -2   51.79    5.50
 -10  -6   2   45.30    2.90
 -10   6  -2   54.29    7.10
 -10  -6   2   43.30    3.20
 -10  -6   2   43.10    3.80
 -10   6  -2   45.70    5.00
  10  -6  -2   36.40    5.10
  10  -6   2   50.19    7.70
 -10  -6  -2   47.50    4.90
 -10   6   2   46.30    6.90
 -10  -6  -2   46.40    2.70
  10  -6  -3   37.60    5.50
 -10   6  -3   33.30    5.70
  10   6   3   29.80    5.50
  10  -6  -3   42.10    6.60
 -10   6  -3   46.40    6.00
 -10  -6  -3   31.40    2.60
 -10   6   3   29.80    5.90
 -10  -6  -3   39.20    5.20
  10  -6   3   38.90    7.10
 -10  -6   4   80.39    5.80
 -10  -6   4   81.39    7.70
  10   6   4   86.49    7.40
  10  -6  -4   94.59    7.70
 -10   6  -4   85.69    7.50
 -10   6  -4   82.49    6.70
  10  -6  -4   99.69    7.40
 -10   6   4   85.99    8.20
 -10  -6  -4   91.99    4.80
 -10  -6  -4   86.29    7.30
  10  -6   4   83.59    8.50
  10  -6  -5    0.50    2.40
  10  -6  -5    1.60    2.60
 -10   6  -5    3.80    2.80
 -10   6  -5   12.10    3.10
 -10  -6   5   -2.30    3.30
  10  -6   5    0.00    3.00
 -10   6   5    2.90    3.30
 -10  -6  -5    2.90    1.70
 -10  -6   6    6.60    4.10
  10  -6  -6    9.90    3.30
  10  -6  -6   10.80    4.10
 -10   6  -6    9.50    3.00
 -10  -6  -6    7.10    3.90
  10  -6   6    8.20    5.40
 -10  -6  -6    9.40    2.60
 -10   6   6   15.10    4.80
 -10  -6   7    2.50    3.10
 -10   6  -7   -1.60    2.90
  10  -6  -7    3.40    2.90
  10  -6  -7   -0.30    2.30
  10  -6   7    4.10    3.30
 -10  -6  -7    3.00    2.20
 -10  -6  -7    0.40    2.90
 -10   6   7    2.40    3.30
  10  -6  -8   -3.00    2.70
 -10  -6   8   11.70    4.00
  10  -6  -8    4.30    2.90
 -10   6   8   12.60    4.20
  10  -6   8    1.90    2.60
 -10  -6  -8    2.50    2.00
 -10  -6  -8    3.10    3.50
  10  -7   0   21.20    5.40
 -10   7   0   18.30    5.00
 -10  -7   0   15.40    3.20
 -10   7  -1    2.10    2.10
 -10  -7   1    1.60    1.80
  10  -7  -1   -2.70    2.40
 -10   7  -1   -0.60    2.80
  10  -7  -1    0.90    2.40
 -10  -7  -1    1.70    2.00
  10  -7   1   -0.70    2.70
 -10   7   1    0.90    3.30
  10  -7  -2  282.17   14.30
  10   7   2  264.57   14.80
 -10   7  -2  264.67   12.50
 -10   7  -2  255.77   14.30
 -10  -7   2  239.38   10.20
 -10  -7   2  258.97   11.00
 -10  -7   2  238.58    9.70
  10  -7  -2  273.87   13.70
 -10  -7  -2  271.17    9.70
  10  -7   2  243.98   14.70
 -10  -7  -2  268.87   12.70
 -10   7   2  273.57   15.00
 -10   7  -3   10.90    3.20
  10   7   3    8.00    4.10
 -10  -7   3    7.60    2.30
 -10   7  -3    5.30    3.60
  10  -7  -3    8.70    3.90
  10  -7  -3    9.30    3.60
  10  -7   3    0.10    3.50
 -10   7   3    7.40    4.30
 -10  -7  -3   10.70    3.70
 -10  -7  -3    9.40    2.10
 -10   7  -4   11.20    4.10
  10  -7  -4    6.00    3.40
  10   7   4    1.00    2.70
 -10  -7   4   10.40    2.40
 -10   7  -4    5.50    2.50
  10  -7  -4    3.50    2.80
 -10  -7   4    5.80    3.70
 -10   7   4    9.40    4.20
  10  -7   4    1.80    3.30
 -10  -7  -4    6.10    2.10
  10  -7  -5    9.70    4.10
 -10   7  -5   13.50    3.70
 -10  -7   5   12.30    4.50
 -10   7  -5    6.00    3.20
  10  -7   5   20.90    5.80
 -10  -7  -5    6.10    3.30
 -10  -7  -5   10.70    2.60
 -10   7   5   15.90    4.90
  10  -7  -6   -1.20    2.50
 -10  -7   6   -1.30    3.20
  10  -7  -6    4.50    2.90
 -10  -7  -6    4.50    2.10
 -10   7   6   -1.70    3.00
  10  -7   6    0.10    2.90
 -10  -7  -6    4.50    3.10
  10  -7  -7    3.60    3.40
 -10  -7   7    3.20    3.70
  10  -7  -7    1.10    2.70
 -10  -7  -7    1.40    2.00
 -10   7   7    6.10    3.70
 -10  -7  -7   -3.90    3.00
  10  -7   7   -2.80    2.20
  10  -8   0  196.58   13.00
 -10   8   0  194.78   17.40
 -10  -8   0  210.18   10.50
 -10   8  -1   68.29    6.00
 -10  -8   1   69.89    5.40
  10  -8  -1   79.79    8.00
 -10   8  -1   93.59   16.10
 -10   8   1   56.99    6.20
 -10   8   1   84.79    8.70
 -10  -8  -1   79.79    6.40
  10  -8   1   87.29   11.30
 -10   8  -2    7.00    4.70
  10  -8  -2    5.70    3.00
 -10  -8   2   11.50    2.50
  10  -8  -2    9.80    3.90
 -10   8  -2    6.00    2.70
  10  -8   2   14.40    5.30
 -10  -8  -2   12.00    3.70
 -10   8   2    5.80    3.80
  10   8   3  170.98   12.40
  10  -8  -3  152.08   11.00
 -10  -8  -3  163.88    7.50
  10  -8   3  152.28   12.40
 -10  -8  -3  157.48   10.40
 -10   8   3  162.28   12.30
  10  -8  -4   16.10    5.10
 -10   8  -4   18.90    5.10
 -10  -8   4    9.40    4.30
  10  -8  -4   14.80    4.10
 -10  -8  -4   18.60    5.20
  10  -8   4    9.60    4.30
 -10  -8  -4   17.00    2.90
 -10   8   4   10.50    4.50
 -10   8  -5    5.70    2.90
 -10  -8   5    6.30    3.70
  10  -8  -5    0.40    2.80
  10  -8  -5    0.30    2.70
 -10  -8  -5    0.60    2.70
 -10  -8  -5   -1.00    1.70
 -10   8   5    1.20    3.20
  10  -8   5   -0.40    2.60
  10  -8  -6    2.30    3.00
 -10  -8   6   -5.10    2.90
 -10  -8  -6    2.10    2.00
  10  -8   6    3.70    2.80
 -10  -8  -6   -2.10    4.70
 -10   8   6    5.60    3.60
 -10   9   0   22.00    6.20
  10  -9   0   24.50    6.00
 -10  -9   0   23.00    4.10
 -10   9  -1    3.80    4.10
 -10  -9   1    1.50    1.80
  10  -9  -1   -1.90    2.70
 -10  -9  -1    6.60    2.90
 -10   9   1    5.00    4.10
  10  -9   1    4.70    3.60
  10  -9  -2   70.09    9.30
 -10   9  -2   74.99   10.30
 -10  -9   2   66.99    5.00
 -10  -9  -2   71.99    6.90
  10  -9   2   81.29   11.00
 -10   9   2   71.19   10.10
 -10   9  -3    3.30    3.40
  10  -9  -3    6.00    3.50
  10  -9  -3    6.80    3.90
 -10   9   3    9.20    4.70
 -10  -9  -3    5.10    2.90
  10  -9   3   10.60    5.50
 -10  -9   4   -2.20    3.10
  10  -9  -4    2.00    3.10
  10  -9  -4    6.50    3.20
 -10   9  -4    6.60    3.10
 -10   9   4    1.00    3.70
  10  -9   4    8.30    3.80
 -10  -9  -4    5.80    3.30
 -10  -9  -4    3.50    2.30
 -10   9  -5   11.60    3.90
 -10  -9   5    7.20    4.10
  10  -9  -5   10.60    7.10
  10  -9  -5   11.50    4.30
 -10   9   5   12.90    4.40
 -10  -9  -5    7.20    2.20
  10  -9   5   10.50    4.00
 -10  -9  -5    5.10    3.50
 -10  10   0   21.00    7.30
  10 -10   0   32.40    6.70
 -10 -10   0   41.80    4.40
 -10  10  -1   87.09    9.50
  10 -10  -1  137.69   21.30
 -10 -10   1   65.49    6.30
  10 -10   1   88.49    9.20
 -10 -10  -1   90.09    7.20
  10 -10  -2    9.20    4.20
 -10  10  -2   23.00    9.10
 -10 -10  -2   13.60    3.20
 -10  10   2    7.90    4.80
  10 -10   2    4.10    4.40
 -11   0   0    0.70    1.60
  11   0   0    2.70    1.70
 -11   0   0    1.10    1.30
  11   0   0    4.20    1.60
 -11   0   0    1.50    1.00
  11   0  -1    0.50    0.80
  11   0   1    1.90    2.00
  11   0   1    0.60    1.10
  11   0  -1    2.10    1.40
 -11   0  -1    2.00    1.10
 -11   0   1    2.80    1.90
 -11   0   1    2.50    1.40
 -11   0   1    1.70    1.10
 -11   0  -1    0.30    1.20
  11   0  -1    2.10    1.50
 -11   0  -1    2.90    1.50
 -11   0   2   14.90    3.20
  11   0  -2    0.20    1.00
  11   0  -2    1.30    1.30
  11   0  -2    1.40    1.20
 -11   0  -2    3.00    1.40
 -11   0   2    2.30    1.20
 -11   0  -2    1.60    1.20
  11   0   2    2.80    1.80
 -11   0   2    1.60    1.30
  11   0   3   18.70    4.50
 -11   0   3   12.50    3.30
  11   0  -3   16.10    2.50
 -11   0   3   17.00    2.10
  11   0  -3   18.20    2.60
 -11   0  -3   14.10    1.60
 -11   0  -3   16.30    2.10
  11   0   4  703.53   26.10
 -11   0   4  718.83   25.40
 -11   0   4  665.73   23.30
  11   0  -4  707.03   21.70
 -11   0  -4  704.13   23.20
  11   0  -4  709.53   22.90
 -11   0  -5   32.80    4.40
 -11   0   5   37.00    3.60
  11   0  -5   35.70    2.70
  11   0  -5   29.30    2.70
 -11   0   5   38.80    5.70
  11   0   5   43.50    6.90
  11   0  -5   32.60    3.70
  11   0  -6  687.23   21.60
 -11   0  -6  728.03   24.70
 -11   0   6  719.43   26.70
  11   0   6  728.53   27.50
  11   0  -6  662.23   22.10
  11   0  -6  687.73   24.10
 -11   0   7   -1.00    2.80
  11   0   7    2.50    3.40
  11   0  -7    2.40    2.00
  11   0  -7    2.90    1.80
  11   0  -7   -0.80    1.00
 -11   0  -7    1.70    2.30
 -11   0  -8   52.09    6.00
  11   0   8   56.79    8.20
 -11   0   8   68.29    8.40
  11   0  -8   59.29    3.30
  11   0  -8   55.09    5.80
 -11   0   9    5.10    3.20
 -11   0  -9   -1.30    2.30
  11   0   9    4.50    3.60
 -11   1   0    0.80    1.10
 -11   1   0    0.00    0.90
 -11  -1   0    0.40    1.50
 -11  -1   0    0.50    0.80
  11  -1   0   -1.40    1.40
 -11  -1   0    0.00    1.20
 -11   1   0    1.20    1.50
  11   1   0   -0.60    1.30
  11  -1   0    1.70    1.40
 -11   1  -1 1591.94   46.80
  11   1   1 1551.34   47.80
 -11  -1   1 1561.24   48.10
 -11  -1   1 1592.24   46.00
 -11  -1   1 1595.44   45.90
 -11   1  -1 1581.04   46.70
  11  -1  -1 1589.14   47.50
 -11   1  -1 1594.44   48.00
  11  -1  -1 1544.05   47.80
 -11  -1  -1 1485.35   47.30
  11   1  -1 1519.55   46.20
 -11   1   1 1510.05   46.80
 -11  -1  -1 1608.24   46.90
 -11  -1  -1 1616.64   45.40
 -11   1   1 1570.84   46.80
  11  -1   1 1641.54   48.50
  11  -1   1 1557.44   46.70
 -11   1   1 1518.85   47.70
  11   1   2   77.99    5.90
 -11  -1   2   81.79    4.60
 -11  -1   2   79.59    3.80
 -11  -1   2   87.09    6.20
 -11   1  -2   84.69    4.50
  11  -1  -2   81.49    4.70
  11  -1  -2   87.69    5.10
 -11   1   2   83.39    6.10
 -11  -1  -2   78.09    4.40
  11   1  -2   81.59    4.20
  11  -1   2   78.99    6.30
  11  -1   2   81.89    4.40
 -11   1   2   87.09    5.30
  11   1  -2   91.09    4.10
 -11  -1  -2   85.99    5.50
 -11  -1  -2   87.49    5.00
 -11   1   2   82.69    4.70
  11  -1  -3  140.59    6.70
 -11   1  -3  137.79    5.50
  11  -1  -3  140.29    6.70
  11   1   3  146.49    8.70
 -11  -1   3  129.39    6.60
 -11  -1   3  136.69    8.40
  11   1  -3  143.19    6.20
  11  -1   3  147.39    9.10
 -11   1   3  132.49    6.10
 -11   1   3  125.59    8.00
 -11   1   3  143.29    7.10
  11  -1   3  151.98    5.60
 -11  -1  -3  132.79    5.70
  11   1  -3  144.19    5.20
 -11  -1  -3  143.49    5.50
 -11  -1   4  105.39    7.50
  11   1   4  102.19    7.70
  11  -1  -4  104.39    6.00
  11  -1  -4  108.09    5.60
 -11  -1   4   93.79    5.80
 -11   1  -4  111.19    6.40
  11  -1   4   82.99    7.50
 -11   1   4   92.99    7.30
 -11   1   4   91.79    5.80
 -11  -1  -4  103.09    5.60
  11  -1  -5  810.82   26.40
 -11   1  -5  780.72   26.70
  11  -1  -5  792.32   25.10
  11   1   5  795.02   28.90
 -11  -1   5  854.11   28.80
  11  -1  -5  807.02   26.30
 -11  -1   5  767.62   26.50
 -11  -1  -5  795.82   25.90
  11   1  -5  779.92   25.60
 -11   1   5  753.02   28.40
  11  -1   5  776.52   29.50
 -11   1   5  747.63   26.50
  11   1   6   50.09    7.00
 -11  -1   6   62.89    4.80
 -11  -1   6   69.99    6.90
  11  -1  -6   55.69    5.10
  11  -1  -6   58.59    4.30
 -11   1  -6   62.99    5.70
  11  -1  -6   54.99    4.20
 -11  -1  -6   59.19    5.10
  11   1  -6   60.99    5.30
  11  -1   6   57.29    7.50
 -11   1   6   62.89    7.80
 -11   1  -7   85.99    7.00
  11  -1  -7   91.39    5.40
  11   1   7   96.99    8.70
 -11  -1   7   88.49    8.00
  11  -1  -7   89.39    6.80
 -11   1   7   83.19    8.10
 -11  -1  -7   83.19    6.50
  11   1  -7   88.59    6.30
  11  -1   7   92.89    8.60
 -11  -1   8   16.30    4.80
  11   1   8   15.80    5.00
 -11   1  -8   20.10    4.40
  11  -1  -8   21.70    5.10
 -11   1   8   19.80    5.00
  11  -1   8   16.60    5.10
 -11  -1  -8   20.20    4.50
  11   1  -8   22.60    4.10
  11  -1  -9    9.50    5.60
 -11   1  -9   13.90    4.40
 -11  -1   9    4.60    3.60
 -11   1   9   11.20    4.00
  11  -1   9   13.20    4.90
 -11  -1  -9   17.10    4.50
  11   2   0   -0.20    1.20
 -11  -2   0    0.30    1.50
 -11  -2   0   -0.50    0.70
 -11  -2   0    2.10    1.10
 -11   2   0   -1.50    0.90
 -11  -2   0   -2.10    1.00
 -11   2   0    0.40    1.70
  11  -2   0    0.10    1.90
  11  -2   0    1.50    1.20
 -11   2   0    1.00    1.50
  11  -2  -1   60.89    4.80
 -11   2  -1   63.29    5.20
 -11  -2   1   63.09    3.50
  11   2   1   66.49    4.90
 -11  -2   1   64.99    4.90
  11  -2  -1   61.19    4.40
 -11   2  -1   71.29    4.70
 -11   2  -1   69.29    5.30
 -11  -2   1   65.39    3.80
  11  -2  -1   63.89    4.60
  11  -2   1   68.99    5.80
 -11  -2  -1   65.19    4.80
 -11   2   1   61.99    4.50
  11   2  -1   68.19    3.80
 -11  -2  -1   64.79    4.30
 -11  -2  -1   63.59    4.40
  11  -2   1   67.09    4.20
 -11   2   1   63.59    4.50
 -11   2   1   62.99    5.20
  11  -2  -2  500.65   17.50
 -11  -2   2  505.25   16.20
 -11  -2   2  478.35   14.70
  11  -2  -2  499.85   17.10
 -11   2  -2  516.55   16.70
  11   2   2  503.95   18.30
 -11  -2   2  480.15   18.20
 -11   2   2  483.45   17.10
 -11   2   2  476.75   17.40
 -11  -2  -2  490.65   16.40
  11  -2   2  505.75   19.30
  11   2  -2  508.25   14.70
 -11  -2  -2  479.65   17.90
  11   2  -2  479.75   14.80
 -11  -2  -2  501.15   17.20
  11  -2   2  466.15   16.20
 -11   2   2  485.45   18.70
  11  -2  -3   -0.20    1.20
 -11  -2   3    0.20    2.70
 -11  -2   3   -0.50    1.10
 -11   2  -3    0.10    1.10
  11  -2  -3   -1.20    1.40
  11   2   3    3.20    2.40
 -11   2   3    0.90    1.10
 -11   2   3    0.50    0.90
 -11   2   3   -0.90    2.40
  11  -2   3    0.20    0.90
 -11  -2  -3    1.00    1.10
 -11  -2  -3    0.00    1.00
  11   2  -3    0.40    0.90
  11  -2   3   -0.30    2.20
 -11  -2  -3    0.70    1.00
 -11  -2   4  200.78   11.20
  11   2   4  188.88   10.70
  11  -2  -4  204.98    9.10
 -11   2  -4  200.28    7.30
  11  -2  -4  190.78    9.10
 -11   2  -4  203.18    9.70
 -11  -2   4  193.58    8.90
 -11  -2  -4  215.18    8.30
 -11   2   4  189.48    8.50
 -11  -2  -4  193.68    6.70
 -11   2   4  186.98    9.20
  11   2  -4  199.88    8.10
  11  -2   4  192.78   11.50
 -11  -2  -4  199.38    7.60
 -11   2   4  192.28   10.70
 -11  -2   5   -5.00    2.10
  11  -2  -5   -0.90    1.60
  11  -2  -5    2.40    2.10
  11   2   5    3.00    2.90
 -11  -2   5    0.80    1.40
 -11   2  -5    4.00    1.90
  11  -2   5    1.90    3.20
  11   2  -5    0.60    1.20
 -11   2   5    0.10    2.70
 -11  -2  -5    0.60    1.50
  11  -2  -6  322.97   12.90
 -11  -2   6  301.07   14.40
 -11   2  -6  298.57   14.00
  11   2   6  337.07   15.90
 -11  -2   6  322.27   15.40
  11  -2  -6  309.57   13.60
  11  -2   6  319.67   16.40
 -11  -2  -6  313.07   12.90
 -11   2   6  309.67   15.30
  11  -2  -7    2.60    1.90
  11   2   7   -0.80    2.60
 -11   2  -7    1.50    2.20
 -11  -2   7    0.70    3.20
  11   2  -7    0.20    1.80
  11  -2   7   -1.60    2.70
 -11   2   7    2.30    3.50
 -11   2  -8  160.38   11.10
  11  -2  -8  177.98   10.30
  11  -2  -8  174.48    8.80
 -11  -2  -8  175.78   10.00
  11  -2   8  163.58   11.70
 -11   2   8  193.28   18.10
  11  -2  -9   -1.40    3.60
 -11  -2   9    1.10    3.00
 -11   2  -9    4.40    2.60
  11  -2  -9    2.90    2.50
 -11   2   9    4.40    3.20
 -11  -2  -9   -1.70    2.40
  11  -2   9    7.70    3.90
 -11  -3   0   -0.90    0.90
 -11  -3   0   -0.70    1.10
 -11   3   0   -0.80    1.90
 -11  -3   0    1.60    1.70
 -11  -3   0    0.00    0.70
  11   3   0   -0.50    1.30
  11  -3   0    0.20    2.00
 -11   3   0    1.20    1.40
  11  -3  -1  992.70   32.10
 -11  -3   1 1035.30   32.50
 -11   3  -1 1011.60   31.90
 -11   3  -1 1018.40   32.00
 -11  -3   1 1033.70   29.60
 -11  -3   1  975.20   30.10
  11  -3  -1 1038.50   32.80
  11   3   1 1010.10   31.70
 -11  -3  -1 1000.90   31.40
 -11   3   1 1075.39   33.30
 -11   3   1  986.20   32.00
 -11  -3  -1  955.90   32.50
  11  -3   1  994.50   33.90
  11  -3   1  952.50   31.10
 -11  -3  -1  946.91   31.50
  11  -3  -2   60.69    5.00
 -11   3  -2   50.49    4.30
  11   3   2   52.09    4.80
 -11  -3   2   57.09    3.60
 -11   3  -2   56.09    4.60
  11  -3  -2   57.49    4.60
 -11  -3  -2   56.49    4.00
 -11   3   2   56.39    4.40
 -11  -3  -2   57.49    4.20
 -11   3  -3   88.49    6.20
 -11   3  -3   86.19    5.90
  11  -3  -3   90.69    5.80
 -11   3  -3   83.19    5.30
 -11  -3   3   86.59    6.70
  11   3   3   88.89    6.60
 -11  -3   3   87.99    5.00
  11  -3  -3   85.49    6.00
 -11   3   3   88.59    5.70
  11  -3   3   89.79    7.50
  11  -3   3   90.29    4.80
 -11   3   3   88.19    7.20
 -11  -3  -3   92.09    5.10
 -11  -3  -3   90.39    4.90
 -11  -3  -3   92.59    4.10
  11   3  -3   86.59    3.70
  11  -3  -4   80.39    6.20
 -11   3  -4   72.09    4.70
 -11  -3   4   70.99    5.00
  11  -3  -4   82.89    5.80
  11   3   4   74.09    6.70
 -11  -3   4   85.69    7.10
 -11  -3  -4   84.39    4.30
 -11  -3  -4   79.19    4.20
  11  -3   4   78.59    7.50
  11  -3   4   85.59    4.30
  11   3  -4   78.59    4.20
 -11  -3  -4   78.59    4.40
 -11   3   4   85.89    7.30
  11   3   5  652.93   24.50
  11  -3  -5  624.64   22.30
 -11  -3   5  593.74   22.00
 -11  -3   5  654.03   25.20
 -11   3  -5  640.94   23.10
  11  -3  -5  660.83   22.70
  11  -3   5  592.24   18.80
 -11  -3  -5  598.44   18.70
  11  -3   5  600.34   25.30
  11   3  -5  608.34   20.90
 -11   3   5  668.43   24.90
 -11  -3  -5  651.93   20.80
  11  -3  -6   46.50    5.20
 -11  -3   6   46.20    7.00
 -11   3  -6   52.19    5.80
  11  -3  -6   48.60    5.90
 -11  -3   6   44.50    4.00
  11   3  -6   46.50    4.20
  11  -3   6   49.99    8.10
 -11  -3  -6   52.49    4.50
 -11   3   6   53.89    7.40
 -11   3  -7   56.19    6.40
  11  -3  -7   73.09    6.10
 -11  -3   7   70.79    8.90
  11  -3  -7   73.89    6.50
 -11  -3  -7   54.49    5.20
 -11   3   7   76.79    7.70
  11   3  -7   62.49    8.10
  11  -3   7   73.19    9.60
  11  -3  -8   10.20    3.10
 -11  -3   8    9.10    4.20
  11  -3  -8   17.50    4.20
  11  -3   8   14.30    4.30
 -11  -3  -8   13.60    3.60
 -11   3   8   22.40    5.20
  11  -3  -9   18.00    3.30
 -11   3  -9    9.30    3.80
  11  -3  -9   -0.20    5.10
 -11  -3   9    3.80    3.10
  11  -3   9   11.90    4.10
 -11   3   9    9.20    3.60
 -11  -4   0    0.80    1.00
 -11   4   0    0.30    2.20
 -11  -4   0    1.00    0.70
 -11   4   0    1.60    1.20
  11  -4   0   -1.10    1.90
 -11  -4   1    4.20    2.20
 -11  -4   1    0.10    1.00
  11  -4  -1    1.40    2.10
  11  -4  -1    1.40    2.00
 -11  -4   1    1.70    1.10
 -11  -4   1    0.90    1.00
 -11   4  -1    0.60    1.10
 -11   4  -1    2.70    2.20
 -11   4   1    0.60    1.00
 -11   4   1    3.40    2.50
 -11  -4  -1    1.30    1.00
  11  -4   1    2.20    2.20
 -11   4  -2    1.50    2.10
  11  -4  -2    1.60    1.90
 -11  -4   2    2.10    2.30
 -11  -4   2    0.80    1.10
  11  -4  -2    0.50    2.20
 -11   4  -2   -1.50    1.20
 -11   4   2    2.30    2.50
  11  -4   2   -0.10    2.60
 -11  -4   3   11.70    2.40
 -11   4  -3   12.30    2.80
  11  -4  -3    7.70    2.80
  11  -4  -3    6.40    2.70
 -11   4  -3   13.50    3.50
 -11  -4   3    9.40    3.60
 -11   4  -3    7.30    2.60
  11  -4   3    4.00    2.80
 -11   4   3    9.90    3.60
 -11  -4  -3   11.10    2.10
 -11  -4  -3    7.80    1.40
  11  -4   3    8.80    1.90
  11  -4  -4  414.56   16.00
  11  -4  -4  412.06   16.40
 -11  -4   4  403.46   17.20
 -11   4  -4  388.46   15.10
 -11  -4   4  372.66   14.80
 -11   4  -4  420.76   16.50
 -11   4   4  385.86   17.40
 -11  -4  -4  369.96   14.10
 -11  -4  -4  404.76   13.20
  11  -4   4  433.66   18.90
  11   4  -4  360.56   12.50
  11  -4   4  365.86   13.70
 -11   4  -5   17.10    4.20
 -11   4  -5   19.30    3.30
 -11  -4   5   18.60    4.90
  11  -4  -5   17.50    3.60
  11  -4  -5   22.50    4.20
 -11   4   5   26.20    5.60
 -11  -4  -5   20.00    2.50
  11  -4   5   20.50    2.30
  11  -4   5   26.20    6.10
  11   4  -5   18.30    2.50
 -11  -4  -5   19.30    2.90
  11  -4  -6  390.96   16.70
 -11  -4   6  386.56   19.00
  11  -4  -6  394.06   16.70
 -11   4  -6  417.06   17.50
  11   4  -6  361.26   14.20
 -11  -4  -6  405.06   13.30
  11  -4   6  367.66   12.30
  11  -4   6  379.96   19.30
 -11  -4  -6  450.35   19.20
 -11   4   6  432.46   19.00
  11  -4   6  383.76   12.50
  11  -4  -7    4.30    2.60
  11  -4  -7    1.30    2.30
 -11   4  -7    2.60    2.70
 -11  -4   7    3.30    3.50
  11  -4   7   -1.20    3.30
 -11   4   7    7.70    4.30
 -11  -4  -7   -0.60    1.70
  11  -4  -8   58.89    6.20
 -11   4  -8   35.30    8.20
 -11  -4   8   39.70    6.70
  11  -4  -8   27.80    4.50
 -11  -4  -8   33.60    5.00
  11  -4   8   32.90    6.30
 -11   4   8   28.20    5.80
  11  -4  -9    1.20    2.30
 -11  -4   9    3.30    3.10
 -11   4  -9    8.90    3.60
  11  -4  -9    2.20    2.40
 -11  -4  -9    5.70    2.90
  11  -4   9    2.50    3.30
 -11   4   9    3.70    2.90
 -11  -5   0   -1.20    1.20
 -11  -5   0   -1.00    0.70
  11  -5   0    0.50    2.40
 -11   5   0    1.10    2.70
 -11  -5   0    0.50    0.80
  11  -5  -1  593.34   22.20
 -11   5  -1  613.64   22.60
 -11  -5   1  604.64   19.30
 -11  -5   1  605.94   18.80
 -11  -5   1  568.34   19.40
  11  -5  -1  591.34   22.70
  11  -5   1  604.74   23.70
 -11   5   1  598.24   23.00
 -11  -5  -1  603.94   20.50
 -11  -5   2   40.30    2.60
 -11   5  -2   45.00    5.80
  11  -5  -2   48.80    6.40
 -11  -5   2   36.50    3.20
  11  -5  -2   44.20    4.90
 -11  -5   2   33.80    2.40
 -11   5  -2   32.20    4.60
 -11   5   2   36.30    5.70
  11  -5   2   43.00    6.60
 -11   5  -3   38.50    5.00
 -11  -5   3   37.80    5.80
 -11  -5   3   41.50    3.70
  11  -5  -3   45.60    6.20
 -11   5  -3   44.90    5.90
 -11  -5  -3   40.10    2.40
 -11   5   3   35.80    5.80
  11  -5   3   46.60    7.10
  11  -5  -4   51.39    6.30
 -11  -5   4   44.20    4.30
  11  -5  -4   56.59    7.10
 -11   5  -4   56.59    7.30
 -11  -5   4   47.50    6.60
 -11   5  -4   48.10    6.50
  11  -5   4   56.29    8.00
 -11  -5  -4   48.10    3.20
 -11   5   4   47.00    6.80
  11  -5  -5  318.07   14.80
 -11   5  -5  295.47   13.40
  11  -5  -5  313.27   14.30
 -11   5  -5  300.87   14.40
 -11  -5   5  298.17   13.40
 -11  -5   5  333.87   16.10
 -11  -5  -5  314.47   11.60
 -11   5   5  339.07   16.40
  11  -5   5  300.77   16.60
  11  -5  -6   29.90    5.00
  11  -5  -6   30.20    5.30
 -11   5  -6   41.10    6.30
  11  -5   6   32.60    7.00
 -11  -5  -6   32.70    3.70
  11  -5  -7   52.39    6.70
 -11  -5   7   43.00    7.40
 -11   5  -7   46.40    6.30
  11  -5  -7   47.40    6.50
 -11  -5  -7   47.30    4.70
  11  -5   7   52.39    8.60
 -11   5   7   40.10    6.90
  11  -5  -8    7.90    3.60
 -11  -5   8   15.60    4.90
  11  -5  -8   12.80    3.70
  11  -5   8   10.00    3.90
 -11   5   8   13.10    4.30
 -11  -5  -8    4.40    3.50
 -11  -6   0    0.70    1.60
 -11   6   0   -2.40    2.70
  11  -6   0   -3.50    1.70
 -11  -6   0    0.50    1.10
  11  -6  -1   23.60    4.80
  11  -6  -1   23.20    5.00
 -11  -6   1   22.20    2.60
 -11  -6   1   25.20    2.40
 -11  -6   1   21.50    3.10
 -11   6  -1   17.90    4.90
 -11   6   1   19.80    4.80
 -11  -6  -1   23.80    3.90
  11  -6   1   27.00    5.80
 -11  -6   2  186.58    7.70
 -11  -6   2  199.88    8.80
 -11   6  -2  209.98   11.90
  11  -6  -2  212.48   11.70
 -11   6  -2  215.68   11.00
 -11  -6   2  201.08    7.70
  11  -6  -2  211.88   11.30
 -11   6   2  202.58   12.10
  11  -6   2  200.48   12.80
 -11  -6  -2  198.88   10.20
  11  -6  -3    1.30    2.20
 -11  -6   3   -0.20    2.80
 -11  -6   3    1.30    1.50
 -11   6  -3    0.70    2.10
  11  -6  -3   -2.10    2.20
 -11   6  -3    5.40    3.30
  11  -6   3    0.60    3.10
 -11   6   3    3.80    3.30
 -11  -6  -3    0.20    1.00
 -11  -6  -3    0.30    2.20
 -11   6  -4   62.69    6.20
 -11  -6   4   67.89    7.10
 -11  -6   4   56.69    4.90
 -11   6  -4   66.69    8.00
  11  -6  -4   47.40    6.30
  11  -6  -4   54.19    6.00
 -11  -6  -4   65.79    3.90
 -11   6   4   70.99    7.80
  11  -6   4   79.19   10.10
 -11  -6  -4   61.09    6.40
  11  -6  -5    3.90    3.00
 -11   6  -5   -5.50    1.90
 -11   6  -5    3.90    2.70
 -11  -6   5   -0.90    2.80
  11  -6  -5    0.00    3.20
 -11   6   5    2.90    3.50
 -11  -6  -5   -0.70    1.40
 -11  -6  -5   -0.80    2.60
  11  -6   5   -2.10    2.50
 -11   6  -6  101.89    7.90
  11  -6  -6   96.89    8.30
  11  -6  -6   91.79    7.80
 -11  -6   6  102.99    9.30
 -11   6   6  101.39    9.30
  11  -6   6   91.39    9.30
 -11  -6  -6   94.79    6.00
 -11  -6  -6   98.69    8.70
  11  -6  -7    1.60    2.50
 -11  -6   7   -0.80    2.80
  11  -6  -7    4.30    3.00
 -11   6  -7   -0.80    3.10
  11  -6   7    1.50    3.00
 -11  -6  -7   -0.20    1.70
 -11  -6  -7   -1.10    2.50
 -11   6   7    6.20    4.00
  11  -6  -8   66.79    7.00
  11  -6  -8   61.79    6.80
  11  -6   8   69.79    9.60
 -11  -6  -8   57.19    7.60
 -11  -6  -8   58.99    5.50
 -11   6   8   76.69   11.10
  11  -7   0   -1.40    2.80
 -11   7   0   -2.80    2.70
 -11  -7   0    1.20    1.70
  11  -7  -1  187.68   11.10
 -11   7  -1  191.68   10.30
  11  -7  -1  188.08   11.60
 -11   7  -1  170.68   11.60
 -11  -7   1  189.28    8.70
 -11  -7   1  179.18    8.10
 -11  -7  -1  176.68    9.60
  11  -7   1  194.38   12.50
 -11   7   1  156.78   11.50
 -11  -7   2   15.90    2.40
 -11  -7   2   14.60    2.60
 -11   7  -2   13.30    4.70
  11  -7  -2   14.90    4.30
  11  -7  -2    8.70    3.70
 -11   7  -2   15.90    3.70
  11  -7   2   20.50    5.70
 -11   7   2   17.60    5.10
 -11  -7  -2   14.40    2.10
 -11  -7  -2   13.80    3.70
 -11  -7   3   16.90    3.10
 -11   7  -3   21.10    5.30
 -11   7  -3   16.20    3.60
  11  -7  -3   18.00    4.70
 -11  -7  -3    8.50    3.30
 -11  -7  -3   15.70    2.30
  11  -7   3   14.60    5.40
  11  -7  -4   28.20    5.40
 -11   7  -4   30.30    4.80
 -11   7  -4   27.60    5.60
  11  -7  -4   36.80    6.70
 -11  -7   4   28.10    6.00
 -11  -7  -4   26.80    3.30
 -11   7   4   34.10    6.70
 -11  -7  -4   25.20    5.40
  11  -7   4   28.60    7.30
 -11  -7   5  187.58   12.50
 -11   7  -5  181.98   11.20
  11  -7  -5  150.48   15.00
  11  -7  -5  189.28   11.90
 -11   7  -5  171.88   10.60
 -11  -7  -5  164.78    8.00
 -11  -7  -5  190.58   11.70
 -11   7   5  180.18   12.80
  11  -7   5  170.68   12.70
  11  -7  -6   14.00    3.60
  11  -7  -6    6.90    3.50
 -11  -7   6   20.10    5.50
 -11  -7  -6   16.70    3.20
  11  -7   6   13.10    4.80
 -11   7   6   24.20    5.80
 -11  -7  -6   12.00    4.40
  11  -7  -7   11.50    4.70
 -11  -7   7   20.80    7.40
  11  -7  -7   11.80    4.20
 -11   7   7   17.60    6.10
 -11  -7  -7   18.60    3.30
  11  -7   7   24.00    5.80
 -11  -7  -7   24.70    5.60
 -11   8   0   -1.70    3.00
 -11  -8   0   -0.10    1.60
 -11   8   0    0.00    2.20
  11  -8   0    2.10    3.20
  11  -8  -1    1.60    3.20
 -11   8  -1    0.10    3.20
 -11  -8   1    2.40    1.70
 -11   8  -1    2.60    2.00
 -11   8   1    1.30    3.40
 -11  -8  -1    2.70    2.10
  11  -8   1    0.20    3.10
 -11   8  -2   -0.20    3.60
 -11   8  -2   -0.90    2.10
  11  -8  -2   -0.90    2.90
  11  -8  -2   -1.50    2.30
 -11  -8   2    3.90    1.40
 -11  -8  -2   -0.60    2.00
 -11   8   2    5.40    4.50
  11  -8   2   -0.60    3.30
  11  -8  -3    2.80    3.50
 -11   8  -3    4.00    3.80
 -11  -8  -3    5.50    3.10
  11  -8   3    0.50    3.70
 -11   8   3   -0.40    3.60
 -11  -8  -3    2.70    1.60
  11  -8  -4   79.79    7.70
 -11   8  -4   90.19    8.40
  11  -8  -4   90.09    8.60
 -11  -8   4   90.89    9.10
 -11   8   4   87.99    9.50
 -11  -8  -4   89.69    8.30
  11  -8   4   93.99    9.70
 -11  -8  -4  101.49    5.40
  11  -8  -5    6.80    3.80
 -11  -8   5    1.50    3.50
  11  -8  -5    3.60    2.80
 -11  -8  -5    1.90    3.00
  11  -8   5   13.00    4.70
 -11   8   5    8.80    4.00
 -11  -8  -5    6.50    2.20
  11  -8  -6   73.59    7.70
  11  -8  -6   77.09    8.20
 -11  -8   6   95.99    9.50
 -11   8   6  106.39   10.10
 -11  -8  -6   80.09    5.60
 -11  -8  -6   79.79    8.30
  11  -8   6  120.59   10.00
 -11  -9   0    6.10    2.40
 -11   9   0    3.80    4.30
  11  -9   0   -1.00    3.40
 -11  -9   1   76.39    5.90
  11  -9  -1   90.79    9.10
 -11   9  -1   92.29    9.70
  11  -9   1   87.09    9.40
 -11   9   1   86.09    9.70
 -11   9  -2   12.90    5.10
  11  -9  -2    2.80    3.90
  11  -9   2    5.30    4.60
 -11  -9  -2    7.70    3.10
 -11   9   2    8.10    4.50
  11  -9  -3    3.90    3.30
 -11   9  -3   10.60    4.50
  11  -9  -3    4.40    3.90
 -11   9   3    2.20    3.70
  11  -9   3    0.70    3.30
 -11  -9  -3    7.60    3.00
 -11   9  -4   12.50    4.40
 -11  -9   4   14.50    8.60
  11  -9  -4   23.20    7.30
  11  -9  -4    6.10    3.10
 -11  -9  -4   20.40    4.90
  11  -9   4   12.80    4.50
 -11  -9  -4    6.50    2.60
 -11 -10   0    9.30    2.40
 -11  10   0    0.60    4.80
  11 -10   0    1.00    4.00
 -11  10  -1    7.90    6.40
  11 -10  -1    1.70    3.70
 -11 -10  -1    6.80    2.30
 -11  10   1    5.00    4.70
  11 -10   1    6.70    5.20
  11 -10  -2   39.10    7.30
 -11  10  -2   53.49    9.60
  11 -10   2   48.90    8.90
 -11  10   2   51.09    8.90
 -11 -10  -2   42.90    6.00
 -12   0   0  250.57    9.50
 -12   0   0  242.58   10.30
 -12   0   0  265.87   10.70
  12   0   0  251.77   11.10
  12   0   0  263.47   10.90
 -12   0  -1  930.11   28.90
  12   0  -1  934.61   28.40
  12   0   1  962.90   31.10
 -12   0   1  988.50   30.60
 -12   0  -1  882.31   30.30
 -12   0  -1 1012.00   29.60
  12   0  -1  960.80   29.70
 -12   0   1  922.51   29.10
  12   0  -1  913.81   30.10
 -12   0   1  911.51   29.30
  12   0   1  931.11   29.20
  12   0   2  389.36   16.30
  12   0  -2  405.66   14.30
 -12   0  -2  385.06   13.60
 -12   0   2  415.46   15.80
 -12   0   2  400.56   13.70
 -12   0   2  398.86   14.40
  12   0  -2  405.66   13.70
  12   0  -3  350.96   12.50
 -12   0  -3  342.17   12.10
 -12   0  -3  363.46   11.60
 -12   0   3  350.06   11.80
 -12   0  -4   28.10    4.00
 -12   0   4   22.20    3.40
 -12   0   4   27.60    4.70
  12   0  -4   30.10    2.80
  12   0  -4   31.80    3.80
  12   0   4   34.20    5.90
  12   0  -5   19.30    2.10
  12   0  -5   16.30    3.70
 -12   0   5   17.00    3.10
  12   0   5   16.60    4.60
 -12   0   5   17.80    4.50
  12   0  -5   16.40    2.40
 -12   0  -5   16.90    3.30
  12   0  -6    7.60    2.40
  12   0   6    5.40    3.80
 -12   0  -6    6.40    2.50
  12   0  -6    9.60    1.70
 -12   0   6    7.10    3.80
  12   0  -6    7.60    1.60
  12   0  -7  110.09    4.90
 -12   0  -7  114.59    7.80
 -12   0   7  105.09    9.00
  12   0  -7  101.99    7.20
  12   0   7  115.09    9.60
  12   0  -7   90.99    5.80
 -12   0  -8   17.80    4.10
 -12   0   8   16.80    5.80
  12   0   8   21.20    5.30
  12   0  -8   20.80    4.90
 -12   0   9   39.00    6.60
 -12   0  -9   39.10    5.90
  12   0   9   40.40    7.60
 -12   1   0 1029.00   30.50
  12  -1   0 1006.40   32.00
  12   1   0  893.91   30.80
  12  -1   0  928.91   31.00
 -12  -1   0 1043.40   29.50
 -12  -1   0 1012.00   31.60
 -12   1   0  961.20   31.30
 -12   1   0 1001.30   31.50
 -12  -1   0  947.51   30.80
  12   1   1    7.10    2.60
 -12   1  -1   11.30    2.60
 -12  -1   1   13.90    2.30
  12  -1  -1   12.90    3.00
 -12   1  -1   10.90    2.40
 -12  -1   1    9.80    1.90
 -12   1  -1   13.20    2.50
 -12  -1   1    4.80    2.40
  12  -1  -1    8.80    2.20
 -12  -1  -1    8.20    2.10
 -12   1   1   12.10    2.40
  12  -1   1    8.60    2.10
 -12   1   1    8.80    2.80
 -12   1   1   12.30    2.60
 -12  -1  -1   13.60    2.10
  12   1  -1   11.70    2.40
  12  -1   1   11.20    3.10
 -12  -1  -1   14.20    2.70
  12  -1  -2  968.20   29.90
  12  -1  -2  917.91   29.10
 -12   1  -2  958.50   29.70
  12   1   2  875.01   31.20
 -12  -1   2  948.91   31.40
 -12  -1   2  967.60   29.20
 -12   1  -2  962.00   28.90
 -12  -1   2  912.61   27.90
  12  -1   2  995.70   32.20
 -12  -1  -2  909.21   29.60
 -12   1   2  926.21   29.20
  12  -1   2  898.01   28.50
 -12   1   2  906.01   29.70
 -12  -1  -2  942.01   28.70
  12   1  -2  964.10   28.30
  12   1  -2  915.21   28.20
 -12   1   2  937.91   31.20
 -12  -1   3   75.49    4.90
  12  -1  -3   79.69    4.90
 -12  -1   3   78.59    6.40
 -12   1  -3   78.89    3.90
  12  -1  -3   87.79    5.20
 -12  -1   3   76.79    3.20
  12   1  -3   81.19    3.70
 -12   1   3   74.39    5.10
 -12   1   3   75.89    4.40
  12   1  -3   76.19    4.30
 -12  -1  -3   74.79    3.90
  12  -1   3   71.79    3.70
  12  -1   3   64.29    6.50
 -12   1   3   81.19    6.60
 -12  -1  -3   74.49    4.10
  12  -1  -4  342.67   12.60
  12  -1  -4  341.47   13.10
 -12   1  -4  351.26   13.80
  12   1   4  355.26   15.90
 -12  -1   4  319.17   13.10
 -12  -1   4  356.96   15.30
  12   1  -4  324.17   12.30
  12  -1   4  308.47   15.70
 -12   1   4  313.37   13.40
 -12  -1  -4  355.66   12.90
 -12   1   4  343.07   15.30
  12  -1  -5   23.50    3.80
 -12  -1   5   32.10    3.40
 -12   1  -5   31.80    4.80
  12  -1  -5   30.40    3.70
 -12  -1   5   30.20    5.40
  12   1   5   33.20    5.90
  12   1  -5   29.50    3.90
 -12  -1  -5   29.50    4.00
 -12   1   5   26.50    5.10
  12  -1   5   17.20    4.40
 -12   1   5   36.70    3.80
  12   1   6    6.70    4.00
 -12  -1   6    2.30    3.00
  12  -1  -6    2.60    2.20
  12  -1  -6    4.40    1.90
 -12   1  -6    4.80    2.70
  12  -1  -6    2.20    1.60
  12  -1   6    2.50    3.40
  12   1  -6    4.40    2.20
 -12   1   6    2.60    3.50
 -12  -1  -6    1.70    1.90
  12   1   7   20.50    5.90
 -12  -1   7   24.70    5.50
 -12   1  -7   15.20    3.70
  12  -1  -7   19.20    3.70
  12  -1  -7   25.20    3.40
 -12   1   7   17.40    5.30
  12  -1   7   16.40    5.30
  12   1  -7   17.10    3.50
 -12  -1  -7   25.30    4.90
 -12   1  -8   40.10    5.70
  12  -1  -8   35.30    3.40
  12  -1  -8   40.80    5.80
  12   1   8   24.20    5.80
 -12  -1   8   33.50    6.40
  12  -1   8   39.90    7.30
 -12  -1  -8   29.50    5.10
 -12   1   8   32.20    6.30
 -12  -1   9    0.20    3.70
 -12   1  -9    1.40    2.90
 -12   1   9    2.20    3.50
  12  -1   9    2.50    3.30
 -12  -1  -9    2.40    2.40
 -12  -2   0   86.99    5.70
  12   2   0   80.69    5.10
 -12  -2   0   84.29    6.10
 -12  -2   0   81.59    5.00
 -12   2   0   89.49    6.00
  12  -2   0   75.09    5.00
 -12  -2   0   88.59    4.00
 -12   2   0   80.09    6.10
  12  -2   0   99.19    6.80
 -12   2   0   86.49    5.30
 -12   2  -1 1190.08   36.40
 -12  -2   1 1169.18   37.20
 -12  -2   1 1146.09   34.60
  12  -2  -1 1184.78   36.30
  12   2   1 1206.28   37.00
 -12  -2   1 1147.59   35.00
  12  -2  -1 1198.28   37.40
 -12   2   1 1153.28   37.50
 -12  -2  -1 1132.89   36.40
  12   2  -1 1219.68   35.10
  12  -2   1 1172.58   38.20
 -12  -2  -1 1149.69   36.00
 -12   2   1 1158.38   36.80
 -12   2   1 1146.99   36.40
 -12  -2  -1 1146.69   38.80
 -12  -2  -1 1187.38   34.00
 -12   2  -2  151.98    7.30
 -12  -2   2  143.39    5.60
 -12  -2   2  163.18    6.90
  12  -2  -2  155.38    8.00
  12  -2  -2  169.98    7.80
  12   2   2  156.18    8.70
 -12  -2   2  155.08    8.80
 -12   2   2  157.98    7.60
  12   2  -2  156.88    5.70
  12  -2   2  163.38    9.40
  12   2  -2  151.78    5.30
  12  -2   2  148.09    6.90
 -12  -2  -2  150.58    7.60
 -12  -2  -2  154.68    7.10
 -12   2   2  149.88    7.80
 -12   2   2  149.49    8.90
  12  -2  -3   68.69    5.10
 -12   2  -3   72.99    5.20
 -12  -2   3   65.59    6.40
  12  -2  -3   73.59    5.00
  12   2   3   74.19    6.30
 -12  -2   3   71.29    4.60
 -12   2  -3   63.19    4.10
 -12  -2  -3   73.99    4.20
  12  -2   3   69.89    4.10
 -12   2   3   71.79    5.10
 -12   2   3   72.99    4.50
  12   2  -3   70.19    3.70
  12  -2   3   69.99    6.60
 -12  -2  -3   66.39    4.10
 -12   2   3   65.19    6.40
 -12  -2   4   72.99    6.90
  12  -2  -4   77.59    5.40
 -12   2  -4   74.59    3.80
  12   2   4   74.59    6.80
 -12  -2   4   75.69    5.20
 -12   2  -4   79.69    5.90
  12  -2  -4   76.49    5.40
 -12  -2  -4   78.59    4.70
 -12   2   4   67.39    6.90
  12  -2   4   72.39    7.30
 -12   2   4   75.19    5.30
  12  -2   4   71.69    3.40
  12   2  -4   69.09    4.40
  12  -2  -5    6.90    2.50
 -12   2  -5   10.60    3.20
 -12  -2   5    6.50    2.00
 -12  -2   5   12.40    4.20
  12   2   5   10.50    3.80
  12  -2  -5    8.70    2.50
  12  -2   5   10.90    4.60
  12   2  -5   13.60    2.30
 -12   2   5    9.40    4.20
 -12  -2  -5    7.90    2.30
  12  -2  -6   43.60    4.40
  12   2   6   34.70    6.00
 -12   2  -6   38.50    5.10
  12  -2  -6   47.90    5.00
 -12  -2   6   54.29    5.60
 -12  -2   6   33.50    5.90
 -12  -2  -6   37.90    4.20
  12   2  -6   39.00    3.90
  12  -2   6   51.19    7.80
 -12   2   6   37.10    6.30
 -12   2  -7   34.70    5.30
  12  -2  -7   42.60    5.30
  12   2   7   33.50    6.70
  12  -2  -7   47.40    5.80
 -12  -2   7   36.30    6.30
 -12  -2  -7   43.40    5.60
  12  -2   7   54.49    8.90
 -12   2   7   51.99    7.60
 -12   2  -8    4.40    3.00
 -12  -2   8    3.40    3.20
  12  -2  -8    3.90    2.90
  12  -2  -8    8.40    2.50
 -12  -2  -8    3.00    2.60
 -12   2   8    9.20    4.10
  12  -2   8    1.60    3.40
 -12  -2   9   66.49    7.50
 -12   2  -9   55.99    6.30
  12  -2   9   45.10    7.80
 -12   2   9   53.69    7.60
 -12  -2  -9   54.19    6.20
  12  -3   0  714.73   25.60
  12   3   0  735.43   23.20
 -12   3   0  718.63   24.10
 -12  -3   0  718.83   24.20
 -12   3   0  751.62   25.00
 -12  -3   0  685.33   23.10
 -12  -3   0  683.23   21.20
  12  -3  -1    4.70    2.10
 -12   3  -1    5.10    2.10
  12  -3  -1    2.20    2.30
 -12  -3   1    7.40    1.80
 -12   3  -1    3.50    2.20
  12   3   1    1.40    1.80
 -12  -3   1    5.00    1.40
 -12  -3   1    3.30    2.30
 -12  -3  -1    3.60    0.90
 -12  -3  -1    3.70    1.90
 -12  -3  -1    5.60    1.60
 -12   3   1    4.60    2.70
 -12   3   1    3.80    1.70
  12  -3   1    2.50    1.40
 -12  -3  -1    4.80    1.90
 -12   3  -2  722.53   23.70
 -12  -3   2  720.43   25.00
 -12   3  -2  680.63   24.10
  12   3   2  709.73   24.50
  12  -3  -2  744.33   24.70
  12  -3  -2  720.43   24.00
 -12   3   2  639.04   24.60
 -12  -3  -2  691.63   23.70
 -12   3   2  718.83   25.60
 -12  -3  -2  718.63   23.00
  12  -3   2  662.43   22.70
  12  -3   2  711.43   26.30
 -12   3  -3   35.50    4.00
 -12  -3   3   40.90    5.60
  12  -3  -3   61.79    7.10
  12   3   3   55.39    5.40
  12  -3  -3   44.20    4.30
 -12   3  -3   47.50    4.80
 -12   3  -3   44.90    4.00
 -12  -3   3   42.50    3.60
  12  -3   3   51.29    7.00
 -12   3   3   43.70    4.00
 -12   3   3   53.09    5.90
 -12  -3  -3   43.00    3.40
 -12  -3  -3   42.90    3.60
  12  -3   3   39.00    3.10
 -12  -3  -3   44.60    2.90
  12  -3  -4  247.48   11.40
 -12  -3   4  249.68   10.80
 -12   3  -4  243.38    9.90
 -12   3  -4  264.87   12.10
 -12  -3   4  247.48   13.10
  12  -3  -4  253.77   11.40
  12   3   4  262.87   13.00
 -12   3  -4  236.28   11.50
  12  -3   4  265.87   14.10
 -12   3   4  265.27   13.50
  12   3  -4  252.67    9.20
 -12  -3  -4  257.87    9.50
 -12  -3  -4  248.88    9.30
  12  -3   4  246.98    9.30
 -12  -3  -4  239.58    9.20
  12   3   5   13.30    3.80
 -12  -3   5   13.20    2.70
 -12  -3   5   13.70    4.60
  12  -3  -5   20.60    4.00
 -12   3  -5   19.40    2.40
  12  -3  -5   14.60    3.50
 -12   3  -5   22.90    4.50
 -12  -3  -5   19.90    3.10
 -12  -3  -5   16.10    1.30
  12  -3   5    9.20    3.70
 -12   3   5   21.60    5.00
  12   3  -5   15.70    2.50
 -12  -3  -5   14.60    1.40
 -12   3  -6   -2.40    1.70
 -12  -3   6   -1.70    2.60
  12  -3  -6   -0.40    1.90
  12   3  -6   -2.70    1.50
  12  -3   6    0.20    3.00
 -12  -3  -6    2.10    2.00
 -12   3   6    1.60    3.40
 -12   3  -7   19.00    4.30
  12  -3  -7   19.40    3.60
 -12  -3   7   25.40    6.00
  12  -3  -7   16.40    3.80
 -12   3   7   23.80    5.60
 -12  -3  -7   20.70    3.80
  12  -3   7   13.20    8.10
 -12  -3   8   31.80    5.90
  12  -3  -8   31.00    5.00
 -12   3  -8   31.30    5.80
  12  -3  -8   32.70    5.00
 -12   3   8   20.80    4.90
  12  -3   8   19.80    5.30
 -12  -3  -8   40.40    5.60
 -12  -3   9    8.50    3.70
  12  -3  -9    6.90    3.30
 -12   3  -9   -0.30    2.40
 -12   3   9    1.50    3.40
 -12  -3  -9    1.50    2.30
  12  -3   9    0.60    2.80
  12  -4   0  123.19    8.50
 -12   4   0  134.59    8.20
 -12  -4   0  129.29    4.80
 -12   4   0  132.99    7.40
 -12  -4   0  127.29    7.50
 -12  -4   1  403.96   14.30
 -12   4  -1  424.06   16.30
 -12  -4   1  420.26   13.70
  12  -4  -1  439.46   16.80
 -12   4  -1  450.25   17.10
  12  -4  -1  415.66   17.20
 -12  -4   1  419.46   16.70
 -12  -4   1  434.86   13.90
  12  -4   1  429.56   18.50
 -12   4   1  376.66   16.00
 -12   4   1  448.86   17.80
 -12  -4   2  230.98   11.50
  12  -4  -2  231.58   10.90
 -12   4  -2  232.58   10.80
 -12   4  -2  206.28   10.40
  12  -4  -2  224.08   11.20
 -12  -4   2  222.38    8.90
  12  -4   2  232.88   13.00
 -12   4   2  234.58   12.20
  12  -4  -3  206.28   10.50
 -12   4  -3  219.48   10.80
 -12  -4   3  193.08   10.90
 -12  -4   3  188.28    8.60
 -12   4  -3  199.88    9.70
  12  -4  -3  192.68    9.90
 -12   4  -3  192.08    9.90
 -12  -4  -3  183.88    9.00
  12  -4   3  207.58   12.10
 -12  -4  -3  204.08    7.00
 -12   4   3  208.48   11.70
 -12  -4   4   19.20    3.30
 -12  -4   4   26.90    5.40
  12  -4  -4   19.40    3.70
 -12   4  -4   24.80    4.00
 -12   4  -4   14.60    3.50
  12  -4  -4   26.80    4.90
  12  -4   4   19.60    2.70
 -12  -4  -4   21.10    2.20
  12  -4   4   11.80    3.80
 -12   4   4   21.60    5.20
 -12  -4  -4   24.30    2.70
 -12  -4  -4   19.90    3.00
 -12   4  -5    2.70    2.70
 -12   4  -5    3.90    2.10
  12  -4  -5    5.60    2.80
 -12  -4   5    4.90    3.60
 -12  -4   5    9.40    2.50
  12  -4  -5    6.20    2.90
  12  -4   5    6.50    4.00
 -12   4   5    1.50    3.30
 -12  -4  -5    5.60    1.90
  12   4  -5    4.90    1.50
 -12  -4  -5    9.60    1.90
 -12  -4  -5   10.80    1.50
  12  -4   5    9.00    1.90
 -12  -4   6    5.00    3.90
  12  -4  -6    6.70    2.80
  12  -4  -6    7.00    2.90
 -12   4  -6    3.30    2.80
 -12   4   6    3.90    3.50
 -12  -4  -6    3.40    2.00
  12  -4   6    3.00    3.60
  12  -4  -7   60.99    6.40
 -12   4  -7   63.29    6.80
 -12  -4   7   66.19    8.70
  12  -4  -7   67.89    6.40
  12  -4   7   73.19   10.10
 -12  -4  -7   64.09    5.40
 -12   4   7   63.29    8.40
  12  -4  -8   11.70    4.00
 -12   4  -8   20.40    4.50
  12  -4  -8   20.60    4.40
 -12  -4   8   16.70    4.80
 -12   4   8   16.60    4.80
  12  -4   8   17.60    5.30
 -12  -4  -8    8.20    2.80
 -12  -5   0  434.26   16.40
  12  -5   0  471.55   19.60
 -12   5   0  477.65   19.30
 -12  -5   0  471.65   16.20
 -12  -5   0  463.15   14.20
  12  -5  -1    3.30    2.30
  12  -5  -1    4.10    2.80
 -12  -5   1    5.30    1.60
 -12   5  -1    5.30    3.30
 -12  -5   1    9.40    1.80
 -12  -5   1    3.80    1.60
 -12  -5  -1    8.70    2.60
  12  -5   1    0.80    2.40
 -12   5   1    1.00    2.90
 -12  -5   2  374.26   16.30
 -12  -5   2  370.16   13.40
  12  -5  -2  370.96   15.90
  12  -5  -2  387.46   16.60
 -12   5  -2  380.96   16.30
 -12  -5   2  364.46   12.60
 -12   5   2  378.86   17.10
  12  -5   2  380.56   18.10
 -12  -5   3   50.69    6.70
 -12  -5   3   37.30    4.20
 -12   5  -3   41.30    5.60
 -12   5  -3   41.90    5.80
  12  -5  -3   35.60    5.60
  12  -5  -3   47.80    6.40
 -12  -5  -3   40.70    2.40
 -12   5   3   43.70    6.50
  12  -5   3   46.50    7.10
  12  -5  -4  132.59    8.50
  12  -5  -4  112.49    8.40
 -12   5  -4  131.59   10.20
 -12   5  -4  139.89    9.50
 -12  -5   4  119.29    7.10
 -12  -5   4  135.79    9.60
  12  -5   4  116.59    9.80
 -12   5   4  119.89    9.60
 -12  -5  -4  133.29    5.60
 -12   5  -5   12.60    4.00
  12  -5  -5   12.50    3.60
  12  -5  -5   10.30    3.60
 -12  -5   5   10.60    4.20
 -12  -5   5   11.20    2.70
 -12   5  -5   12.80    3.20
  12  -5   5   13.30    4.60
 -12   5   5   20.80    5.60
 -12  -5  -5   17.00    2.80
  12  -5  -6    1.30    2.80
  12  -5  -6    4.70    2.80
 -12  -5   6    6.30    3.80
 -12   5  -6    0.50    2.30
 -12   5   6    5.70    3.50
 -12  -5  -6    3.90    1.30
  12  -5   6   -0.80    2.90
 -12  -5  -6    3.80    2.00
 -12  -5   7    7.00    4.50
  12  -5  -7   11.30    3.70
  12  -5  -7    6.70    2.70
 -12   5  -7   13.10    4.10
 -12   5   7    8.60    4.30
 -12  -5  -7    6.80    2.70
  12  -5   7    3.30    3.80
 -12   5  -8   18.00    4.60
  12  -5  -8   15.80    4.40
  12  -5  -8   15.50    4.20
 -12  -5   8   22.30    5.30
  12  -5   8   15.70    4.60
 -12   5   8   19.30    5.20
 -12  -5  -8   12.90    3.30
 -12  -6   0   52.79    4.50
 -12   6   0   61.09    6.80
  12  -6   0   58.49    7.80
 -12  -6   0   58.29    3.30
 -12  -6   1  295.37   11.40
  12  -6  -1  287.77   14.10
 -12   6  -1  289.57   14.80
  12  -6  -1  298.47   14.90
 -12  -6   1  281.47   11.20
 -12  -6   1  295.47   10.80
  12  -6   1  294.37   15.50
 -12  -6  -1  303.87   12.60
 -12   6   1  305.37   15.20
 -12   6  -2   46.50    5.80
 -12  -6   2   44.50    2.90
  12  -6  -2   51.09    5.80
  12  -6  -2   54.49    7.10
 -12  -6   2   48.30    3.90
 -12  -6   2   49.50    3.00
 -12   6  -2   64.59    7.90
 -12  -6  -2   51.49    5.10
 -12   6   2   49.10    7.00
  12  -6   2   32.70    6.10
 -12  -6   3   22.30    3.30
  12  -6  -3   16.90    4.00
  12  -6  -3   25.10    4.90
 -12   6  -3   16.00    4.30
 -12   6  -3   25.60    4.60
 -12  -6   3   21.50    5.00
 -12  -6  -3   21.10    4.20
 -12  -6  -3   18.20    1.90
 -12   6   3   24.70    5.70
  12  -6   3   23.90    6.00
  12  -6  -4   35.10    6.20
 -12  -6   4   37.60    3.90
 -12  -6   4   34.80    6.40
  12  -6  -4   33.40    5.50
 -12   6  -4   24.90    4.60
 -12   6  -4   30.50    5.40
 -12   6   4   34.20    6.50
 -12  -6  -4   28.50    5.40
  12  -6   4   39.00    7.50
 -12  -6  -4   25.30    2.60
 -12  -6   5    1.50    3.20
 -12   6  -5    2.10    2.40
 -12   6  -5    2.60    2.50
  12  -6  -5    1.50    2.40
  12  -6  -5   -1.60    2.40
 -12   6   5   -0.10    3.30
 -12  -6  -5    1.20    2.70
  12  -6   5    0.00    2.80
 -12  -6  -5    3.40    1.80
 -12   6  -6   18.70    4.20
 -12  -6   6   21.00    5.70
  12  -6  -6   13.10    4.00
  12  -6  -6   20.80    4.50
  12  -6   6   15.00    5.30
 -12  -6  -6   16.20    3.00
 -12  -6  -6   17.20    4.80
 -12   6   6   17.70    5.50
 -12   6  -7    6.50    3.90
  12  -6  -7    8.90    3.70
 -12  -6   7   20.00    5.60
  12  -6  -7   16.30    4.10
  12  -6   7   14.10    4.70
 -12   6   7   11.30    4.50
 -12  -6  -7   11.90    4.50
 -12  -6  -7    9.10    2.60
  12  -7   0  182.58   12.00
 -12   7   0  192.68   12.40
 -12  -7   0  176.48    9.10
  12  -7  -1    0.70    3.20
 -12  -7   1    1.20    1.50
 -12  -7   1    0.60    1.40
 -12   7  -1    0.40    3.10
 -12   7  -1    2.80    2.20
 -12  -7  -1   -0.30    1.90
  12  -7   1    2.00    3.30
 -12   7   1   -0.80    3.30
 -12  -7   2  182.68    8.70
 -12   7  -2  194.28   12.40
 -12   7  -2  173.28   10.40
  12  -7  -2  194.68   12.20
  12  -7  -2  199.78   11.60
 -12  -7   2  192.38    7.70
 -12   7   2  197.28   12.80
  12  -7   2  193.68   13.40
 -12  -7  -2  184.28   10.30
 -12  -7   3    6.20    3.60
  12  -7  -3   10.10    3.50
 -12  -7   3    7.80    2.30
 -12   7  -3    7.10    3.80
  12  -7  -3    7.40    3.80
 -12   7  -3   10.40    3.30
 -12  -7  -3    2.80    2.70
 -12   7   3    3.20    3.80
  12  -7  -4   67.79    7.40
  12  -7  -4   62.59    6.80
 -12   7  -4   59.49    8.10
 -12  -7   4   69.49    9.00
 -12   7  -4   65.69    6.70
 -12  -7  -4   66.09    6.90
 -12  -7  -4   65.29    4.00
 -12   7   4   58.99    8.60
  12  -7   4   64.29    9.20
  12  -7  -5    2.30    3.30
 -12   7  -5    6.50    2.70
 -12   7  -5    0.60    2.80
  12  -7  -5    1.20    3.20
 -12  -7   5    0.10    3.50
 -12  -7  -5    8.40    3.90
 -12  -7  -5    0.50    1.40
 -12   7   5    8.40    4.50
  12  -7   5    1.10    3.40
  12  -7  -6    2.90    3.20
 -12  -7   6    7.10    3.90
  12  -7  -6    0.00    2.40
 -12   7   6    5.20    4.10
  12  -7   6   -0.60    3.20
 -12  -7  -6    1.10    1.80
 -12  -7  -6    7.20    3.70
  12  -7  -7    1.70    3.10
 -12  -7   7    7.00    3.90
  12  -7  -7    5.00    4.10
 -12  -7  -7    5.60    3.50
  12  -7   7    0.20    3.00
 -12  -7  -7    9.30    2.60
 -12   7   7   12.70    4.60
  12  -8   0   30.40    6.90
 -12   8   0   31.00    5.20
 -12   8   0   29.10    6.50
 -12  -8   0   32.30    4.60
 -12   8  -1   52.09    8.20
 -12  -8   1   49.40    4.40
  12  -8  -1   49.60    7.70
 -12   8  -1   54.59    5.50
  12  -8   1   60.09    9.20
 -12   8   1   56.09    8.60
 -12  -8  -1   64.49    5.60
 -12  -8   2   53.59    3.50
 -12   8  -2   52.69    8.00
  12  -8  -2   58.69    8.30
 -12   8  -2   45.20    6.60
  12  -8  -2   62.29    8.90
 -12   8   2   51.29    8.40
 -12  -8  -2   46.60    6.20
  12  -8   2   46.20    8.70
  12  -8  -3   46.80    8.50
  12  -8  -3   32.30    6.30
 -12  -8   3   41.50    7.10
 -12   8  -3   55.49    8.10
 -12   8   3   35.20    7.50
 -12  -8  -3   42.00    3.10
 -12  -8  -3   46.10    6.40
  12  -8   3   52.09    8.90
 -12   8  -4   12.80    3.90
 -12  -8   4   13.80    5.00
  12  -8  -4    9.90    4.20
  12  -8  -4    5.50    4.10
 -12  -8  -4   13.10    4.10
 -12   8   4   10.30    4.40
  12  -8   4    5.00    3.70
 -12  -8  -4   10.70    2.20
 -12  -8   5    2.00    3.80
  12  -8  -5    1.50    2.70
  12  -8  -5    0.80    2.90
 -12   8  -5    1.30    2.50
 -12  -8  -5    2.20    1.50
 -12  -8  -5    5.80    3.20
  12  -8   5    3.10    3.30
 -12   8   5   12.00    4.90
 -12   9   0  117.39   10.90
 -12  -9   0  112.19    7.50
  12  -9   0   91.99    9.80
 -12   9  -1    6.50    4.10
 -12  -9   1   12.30    2.80
  12  -9  -1    2.10    3.90
  12  -9   1   -3.10    3.20
 -12   9   1   -0.10    3.90
 -12  -9  -1    4.50    1.80
  12  -9  -2   71.19   10.10
 -12   9  -2   66.39   10.00
 -12   9   2   81.29   11.00
  12  -9   2   62.39    9.80
 -12  -9  -2   68.39    6.60
  12  -9  -3    4.60    3.00
 -12  -9   3   11.70    4.60
  12  -9  -3    7.90    4.10
 -12   9  -3   19.70    5.40
 -12  -9  -3   11.70    4.30
 -12   9   3    7.40    4.60
  12  -9   3   20.00    5.50
  12  -9  -4   24.60    5.30
 -12  -9   4   25.80    6.00
  12  -9  -4   25.00    5.80
 -12   9  -4   19.90    5.00
 -12   9   4   16.10    5.50
 -12  -9  -4   31.00    5.50
  12  -9   4   26.20    6.60
 -12  -9  -4   25.80    2.90
 -12 -10   0   21.20    3.70
  12 -10   0   18.40    5.70
 -12  10   0   26.50    7.00
  12 -10  -1   43.40    8.00
 -12  10  -1   33.70    7.80
 -12 -10  -1   31.80    5.00
  12 -10   1   26.90    6.70
 -12  10   1   28.50    7.40
  13   0   0    0.80    1.30
 -13   0   0    7.40    2.40
  13   0   0    2.00    1.80
 -13   0   0    2.00    1.30
 -13   0   0    1.90    1.40
 -13   0  -1  128.29    6.20
  13   0  -1  132.69    5.80
 -13   0   1  129.09    6.40
 -13   0  -1  126.09    7.10
  13   0   1  130.19    6.40
 -13   0   1  117.99    6.30
 -13   0  -1  133.59    6.70
 -13   0   1  114.59    7.00
  13   0  -1  125.79    6.70
  13   0   1  134.59    7.90
 -13   0   2  278.37   11.30
  13   0   2  293.37   13.40
  13   0  -2  281.07   11.10
  13   0  -2  291.57   10.70
 -13   0  -2  289.57   11.10
 -13   0   2  282.07   12.50
 -13   0   2  275.67   10.60
 -13   0  -2  294.67   10.80
 -13   0   3    2.80    2.80
 -13   0  -3    5.60    1.80
 -13   0   3    2.50    1.10
 -13   0  -3    2.40    1.20
  13   0   3    2.20    2.60
 -13   0   3    7.00    2.90
  13   0  -3    2.50    1.70
  13   0  -3    2.30    1.40
  13   0   4  372.86   17.90
 -13   0  -4  409.96   15.40
  13   0  -4  400.56   14.70
  13   0  -4  414.96   14.10
 -13   0   4  404.26   15.60
 -13   0   4  422.66   17.40
 -13   0   5   43.90    6.40
  13   0  -5   35.40    3.70
  13   0   5   36.30    6.20
 -13   0  -5   42.20    5.20
  13   0  -5   37.30    3.00
  13   0  -5   38.00    2.80
 -13   0   5   44.10    6.40
  13   0  -6  359.26   12.40
  13   0  -6  363.66   14.80
 -13   0   6  406.06   18.00
 -13   0  -6  373.56   15.50
  13   0  -6  358.06   12.50
  13   0   6  384.56   18.60
  13   0  -7    3.30    2.40
 -13   0   7    2.30    3.40
 -13   0  -8  224.58   12.10
 -13   0   8  222.98   13.60
  13   0   8  202.08   13.80
 -13   0  -9    5.00    3.20
  13   0   9    0.70    3.20
 -13   0   9   -2.30    3.00
  13   1   0    0.80    1.70
  13  -1   0    0.40    1.10
 -13   1   0    2.50    2.10
 -13   1   0    1.20    1.20
  13  -1   0   -0.30    1.70
 -13  -1   0   -0.10    1.70
 -13  -1   0    1.80    1.50
 -13  -1   0    0.00    1.00
 -13   1   0    1.90    1.40
  13   1   1   75.39    5.80
 -13  -1   1   69.79    5.60
 -13   1  -1   65.99    4.90
 -13   1  -1   72.89    4.70
  13  -1  -1   70.69    4.40
  13  -1  -1   64.39    5.30
 -13  -1   1   66.49    4.20
 -13  -1   1   67.79    4.20
  13  -1   1   72.69    5.90
 -13   1   1   75.09    5.70
 -13  -1  -1   66.59    5.10
 -13   1   1   73.39    4.80
 -13  -1  -1   68.89    4.00
  13   1  -1   65.99    4.60
  13  -1   1   67.69    4.50
 -13  -1  -1   69.19    4.80
 -13   1   1   66.69    4.60
 -13   1  -2   30.40    3.70
  13   1   2   18.30    3.80
  13  -1  -2   29.20    4.00
 -13  -1   2   20.70    2.20
 -13  -1   2   29.90    4.90
 -13  -1   2   29.10    3.50
 -13   1  -2   21.70    3.10
  13  -1  -2   21.10    2.80
  13   1  -2   24.80    2.70
  13  -1   2   24.30    2.50
 -13   1   2   24.00    4.10
 -13  -1  -2   31.40    4.10
  13  -1   2   25.70    4.90
  13   1  -2   23.80    2.20
 -13  -1  -2   26.30    3.10
 -13   1   2   33.70    4.30
  13  -1  -3 1420.16   42.00
 -13  -1   3 1365.56   41.90
 -13  -1   3 1365.96   44.10
  13   1   3 1312.57   44.60
  13  -1  -3 1335.07   41.60
 -13   1  -3 1390.56   40.30
 -13   1   3 1338.07   42.50
  13   1  -3 1427.76   40.00
  13   1  -3 1353.56   40.60
 -13  -1  -3 1397.76   40.20
  13  -1   3 1374.16   40.20
 -13  -1  -3 1352.26   40.80
 -13   1   3 1444.16   44.50
  13  -1   3 1369.36   45.20
 -13   1   3 1335.37   41.30
  13  -1  -4   38.10    3.80
 -13  -1   4   38.90    3.90
  13  -1  -4   33.40    4.90
 -13  -1   4   44.70    6.00
  13   1   4   36.10    5.70
 -13   1  -4   40.70    4.40
  13   1  -4   39.50    3.40
 -13   1   4   40.10    5.80
 -13   1   4   39.30    3.90
  13  -1   4   52.79    7.80
 -13  -1  -4   44.50    4.00
  13  -1  -5  135.49    6.90
 -13  -1   5  140.39    9.30
 -13  -1   5  124.99    7.40
  13  -1  -5  138.99    7.60
  13   1   5  135.09    9.80
 -13   1  -5  136.69    8.10
 -13   1   5  139.29    9.70
  13   1  -5  132.99    7.70
 -13  -1  -5  147.69    7.70
  13  -1   5  127.49   10.10
  13  -1  -6   19.60    3.70
 -13  -1   6   20.60    3.20
 -13   1  -6   14.80    3.70
  13  -1  -6   18.50    3.10
  13   1   6   22.50    5.50
  13  -1  -6   23.70    3.30
 -13  -1   6   15.40    4.70
  13  -1   6   14.40    4.70
 -13   1   6   12.90    4.50
 -13  -1  -6   15.80    3.40
  13   1  -6   22.70    3.60
 -13  -1   7  109.39    9.10
 -13   1  -7  109.29    8.10
  13   1   7  104.89    9.70
  13  -1  -7  106.49    5.90
  13  -1  -7  114.19    7.70
 -13  -1  -7  115.39    7.70
  13   1  -7  111.49    7.30
 -13   1   7  116.09    9.90
  13  -1  -8    3.70    1.90
 -13   1  -8    5.00    3.30
 -13  -1   8    0.00    3.30
  13  -1  -8    0.70    2.40
  13   1   8    2.40    3.30
 -13  -1  -8    2.10    2.40
  13  -1   8    3.00    3.60
 -13   1   8    6.10    3.80
 -13  -1   9    5.30    3.90
 -13   1  -9    7.70    3.40
 -13   1   9    2.70    3.40
 -13  -1  -9    7.00    3.20
  13  -1   9    9.60    4.40
 -13  -2   0   -0.60    1.70
 -13   2   0   -0.70    1.10
  13   2   0    0.30    1.50
 -13  -2   0    0.40    0.90
  13  -2   0   -2.00    1.60
 -13  -2   0   -0.90    0.90
 -13   2   0   -1.40    1.80
 -13  -2   1   67.99    5.70
  13   2   1   60.89    5.20
 -13   2  -1   65.09    5.10
  13  -2  -1   71.69    5.70
 -13  -2   1   61.89    3.80
 -13  -2   1   66.49    4.00
  13  -2  -1   64.79    4.70
 -13   2   1   64.59    4.80
 -13   2   1   62.49    5.70
 -13  -2  -1   63.49    5.20
  13   2  -1   61.49    4.10
 -13  -2  -1   64.29    4.90
  13  -2   1   62.29    6.00
 -13  -2  -1   59.29    4.60
  13  -2   1   63.79    4.60
 -13  -2  -1   64.59    3.40
 -13  -2   2  100.49    4.50
  13   2   2  100.19    7.10
  13  -2  -2  103.29    6.60
  13  -2  -2   93.69    6.70
 -13  -2   2  113.19    7.70
 -13  -2   2  114.89    5.60
 -13   2  -2  100.69    5.90
  13   2  -2  105.69    4.50
  13  -2   2   96.59    5.50
 -13  -2  -2  114.89    6.00
 -13   2   2   91.29    6.10
 -13   2   2   97.59    7.40
 -13  -2  -2  104.69    6.20
 -13   2  -3   25.20    3.80
 -13   2  -3   24.80    2.80
  13  -2  -3   19.60    3.60
 -13  -2   3   22.40    3.20
  13   2   3   20.30    4.20
  13  -2  -3   19.50    3.40
 -13  -2   3   23.90    5.30
 -13   2   3   16.60    4.30
 -13  -2  -3   22.60    3.00
 -13   2   3   24.20    3.70
  13  -2   3   25.20    5.20
  13  -2   3   22.30    2.40
 -13  -2  -3   25.20    2.50
  13   2  -3   19.20    2.00
 -13  -2   4  421.16   16.10
  13  -2  -4  441.46   16.30
  13   2   4  434.86   18.80
 -13   2  -4  426.06   14.10
 -13   2  -4  449.06   17.20
  13  -2  -4  446.66   16.50
 -13  -2   4  430.36   18.80
  13  -2   4  425.76   13.70
  13   2  -4  412.06   14.60
 -13   2   4  418.66   16.70
 -13  -2  -4  448.96   15.30
 -13   2   4  435.46   18.90
 -13  -2  -4  426.16   13.50
  13  -2   4  464.65   19.80
 -13  -2  -4  426.26   13.80
 -13  -2   5   53.89    4.60
 -13  -2   5   61.79    6.80
  13  -2  -5   58.29    5.10
  13  -2  -5   52.09    4.70
  13   2   5   69.29    8.90
 -13   2  -5   50.99    5.30
  13  -2   5   43.20    6.70
  13   2  -5   56.59    4.10
 -13  -2  -5   51.09    4.40
 -13   2   5   50.89    7.20
 -13   2  -6  432.66   17.50
  13   2   6  406.96   19.20
 -13  -2   6  381.56   17.30
  13  -2  -6  432.86   15.80
 -13  -2   6  409.56   18.50
  13  -2  -6  408.26   16.50
  13   2  -6  383.76   15.20
 -13   2   6  394.36   18.90
 -13  -2  -6  407.96   15.80
  13  -2   6  390.96   19.80
  13  -2  -7    1.60    1.90
 -13  -2   7    1.90    3.20
 -13   2  -7    4.30    3.00
  13  -2  -7    5.90    2.70
  13   2   7    0.10    2.90
 -13  -2  -7    0.60    2.00
  13  -2   7   -3.60    2.30
 -13   2   7    9.10    4.40
 -13   2  -8  141.59    9.90
  13  -2  -8  148.09    9.60
  13  -2  -8  152.38    8.00
 -13  -2   8  161.28   11.20
 -13   2   8  137.89   11.10
  13  -2   8  158.68   12.00
 -13  -2  -8  154.78    9.50
 -13  -2   9   18.30    4.90
 -13   2  -9    5.50    2.90
  13  -2   9    5.70    4.10
 -13  -2  -9   15.80    4.00
 -13   2   9   16.30    4.60
  13  -3   0    0.10    2.40
 -13   3   0   -1.50    2.10
 -13  -3   0    0.30    0.90
 -13   3   0    1.10    1.70
 -13  -3   0    0.50    1.90
  13   3   0    1.50    1.60
 -13  -3   0    2.50    1.20
 -13   3  -1   48.10    4.90
  13   3   1   59.99    5.00
 -13  -3   1   48.00    3.30
  13  -3  -1   47.40    4.60
 -13   3  -1   54.69    4.50
 -13  -3   1   52.49    3.60
 -13  -3   1   53.89    5.10
 -13  -3  -1   53.89    4.80
 -13   3   1   47.90    5.20
 -13  -3  -1   53.99    2.70
 -13   3   1   48.30    4.30
 -13  -3  -1   54.19    4.60
  13  -3   1   56.89    6.20
  13   3   2   31.60    5.70
 -13   3  -2   29.90    4.20
 -13  -3   2   32.60    5.00
  13  -3  -2   31.80    4.60
 -13   3  -2   27.80    4.00
 -13  -3   2   28.20    3.30
 -13  -3   2   25.10    1.70
  13  -3   2   28.40    2.90
 -13   3   2   30.50    5.30
  13  -3   2   23.00    4.60
 -13  -3  -2   30.10    3.40
 -13  -3  -2   26.30    3.60
  13   3   3  985.90   33.00
  13  -3  -3  982.70   31.50
 -13  -3   3  943.01   30.10
 -13   3  -3  940.81   32.00
 -13  -3   3  936.71   33.10
  13  -3  -3  968.90   31.80
 -13   3  -3  982.20   30.60
 -13   3   3  986.30   34.00
  13  -3   3  951.80   34.10
 -13  -3  -3 1010.90   28.70
 -13  -3  -3  910.31   30.30
 -13  -3  -3  974.10   29.90
 -13   3   3  865.31   32.40
 -13  -3   4   38.40    3.90
  13   3   4   29.80    5.30
 -13   3  -4   46.80    5.20
  13  -3  -4   45.50    4.70
 -13  -3   4   40.00    6.50
  13  -3  -4   42.40    4.70
 -13   3  -4   38.60    3.60
 -13   3  -4   43.00    4.30
  13  -3   4   47.80    7.40
 -13  -3  -4   46.40    3.00
 -13  -3  -4   40.10    3.30
  13  -3   4   41.60    3.10
  13   3  -4   39.70    2.70
 -13  -3  -4   42.30    3.40
 -13   3   4   37.30    6.40
 -13  -3   5   87.59    6.00
 -13   3  -5  102.79    7.50
  13  -3  -5  106.19    7.00
  13   3   5  103.79    8.50
 -13  -3   5   93.29    8.40
  13  -3  -5   96.39    6.90
  13   3  -5   88.89    4.90
 -13  -3  -5  104.69    5.70
  13  -3   5  100.79    9.10
 -13   3   5   99.09    8.60
 -13  -3  -5   86.69    3.30
 -13   3  -6   15.90    4.10
  13  -3  -6   15.10    3.60
  13  -3  -6   10.20    3.20
 -13  -3   6    8.70    4.40
 -13  -3  -6   15.30    5.00
 -13   3   6   12.50    4.90
  13  -3   6   15.00    4.80
  13   3  -6   10.30    2.60
 -13  -3   7   96.49    8.70
  13  -3  -7   84.89    7.10
  13  -3  -7   93.19    6.80
 -13   3  -7   98.49    8.00
 -13   3   7   87.09    8.60
 -13  -3  -7   94.69    6.70
  13  -3   7   86.59   11.20
  13  -3  -8    3.50    3.00
  13  -3  -8    3.70    2.30
 -13  -3   8    0.80    2.70
 -13   3  -8    4.90    2.60
 -13  -3  -8    3.20    2.40
 -13   3   8    3.90    3.60
  13  -3   8    2.80    3.10
 -13  -3   9   -1.70    2.90
 -13   3  -9   10.10    3.60
  13  -3   9    4.80    3.70
 -13  -3  -9    3.00    2.60
 -13   3   9    3.40    3.60
 -13  -4   0    0.40    0.90
 -13  -4   0   -0.90    1.80
  13  -4   0    1.40    2.70
 -13   4   0   -1.10    1.00
 -13   4   0    1.50    2.60
 -13  -4   0    0.20    1.10
 -13   4  -1   77.69    6.50
 -13  -4   1   78.29    4.10
  13  -4  -1   83.39    6.20
  13  -4  -1   87.99    7.10
 -13  -4   1   77.89    4.40
 -13  -4   1   76.09    6.10
 -13   4  -1   72.69    5.50
 -13  -4   1   77.99    4.10
 -13   4   1   91.69    7.20
 -13  -4  -1   77.59    6.70
  13  -4   1   88.49    7.80
 -13   4   1   79.49    6.30
 -13  -4   2  188.38    7.80
 -13   4  -2  176.08    9.60
 -13  -4   2  180.88   10.20
  13  -4  -2  185.18   10.10
 -13   4  -2  174.48    9.20
  13  -4  -2  186.38    9.80
  13  -4   2  165.68   11.00
 -13  -4  -2  174.08    8.60
 -13   4   2  190.18   11.10
  13  -4  -3    1.20    2.30
 -13  -4   3    4.20    1.80
  13  -4  -3    2.30    2.40
 -13   4  -3    4.00    1.80
 -13   4  -3    3.60    2.30
 -13   4  -3    2.30    2.70
 -13  -4   3    0.00    2.60
 -13   4   3    1.70    3.00
 -13  -4  -3    1.80    1.10
  13  -4   3    2.80    2.70
 -13  -4  -3    1.70    1.70
 -13  -4   4  228.28   12.90
 -13   4  -4  264.57   12.60
 -13  -4   4  228.08   10.50
  13  -4  -4  247.18   11.80
 -13   4  -4  233.38   10.70
  13  -4  -4  252.27   12.10
 -13  -4  -4  253.47    9.90
  13  -4   4  241.18   13.80
  13  -4   4  228.28    9.60
 -13   4   4  228.28   13.40
 -13  -4  -4  216.48    9.50
 -13  -4  -4  246.88    9.00
  13  -4  -5   26.30    4.70
 -13  -4   5   33.10    3.70
 -13  -4   5   28.80    6.00
 -13   4  -5   30.10    3.80
  13  -4  -5   33.80    5.50
 -13   4  -5   24.80    5.10
 -13   4   5   20.40    5.30
 -13  -4  -5   28.50    3.10
 -13  -4  -5   26.50    2.60
  13  -4   5   28.40    2.80
  13  -4   5   39.50    7.40
 -13  -4  -5   26.40    2.20
  13  -4  -6  211.08   11.50
 -13   4  -6  210.48   11.90
  13  -4  -6  226.68   11.70
 -13  -4  -6  216.08    9.70
  13  -4   6  198.18   15.20
  13  -4  -7    4.10    2.80
  13  -4  -7    4.90    2.90
 -13   4  -7    2.50    2.70
 -13  -4   7    3.90    3.80
 -13  -4  -7    3.60    2.40
  13  -4   7   -1.10    3.20
 -13   4   7    6.30    3.70
 -13   4  -8  140.69    9.70
  13  -4  -8  133.99    8.80
 -13  -4   8  126.49   10.40
  13  -4  -8  108.89    9.10
 -13   4   8  147.09   11.10
  13  -4   8  121.99   11.10
 -13  -4  -8  124.59    8.30
 -13   5   0    0.70    2.80
 -13  -5   0    0.30    1.10
 -13  -5   0    0.70    0.90
 -13  -5   0   -1.30    1.20
  13  -5   0    1.50    3.00
 -13  -5   1   39.10    3.20
 -13   5  -1   43.60    6.20
  13  -5  -1   49.90    6.50
  13  -5  -1   44.30    6.80
 -13  -5   1   37.30    2.90
 -13  -5   1   43.90    6.00
 -13  -5   1   36.80    3.10
  13  -5   1   39.90    6.60
 -13   5   1   39.40    6.30
  13  -5  -2    2.30    2.90
 -13  -5   2    4.10    2.80
 -13   5  -2    6.00    3.20
  13  -5  -2    5.00    2.80
 -13  -5   2    7.40    2.00
 -13   5   2    6.70    3.60
  13  -5   2    4.70    3.40
 -13  -5   3  487.95   18.00
 -13  -5   3  505.05   21.00
  13  -5  -3  510.65   20.60
 -13   5  -3  533.85   20.90
 -13   5  -3  516.05   20.20
  13  -5  -3  504.75   20.10
 -13   5   3  514.85   21.90
  13  -5   3  517.05   22.60
  13  -5  -4   15.80    4.00
 -13  -5   4    9.70    2.60
 -13   5  -4   13.60    3.40
  13  -5  -4   13.20    3.90
 -13  -5   4   14.60    4.70
 -13   5  -4   20.40    4.10
 -13  -5  -4   18.20    2.40
  13  -5   4   13.30    4.40
 -13   5   4   10.10    4.50
  13  -5  -5   57.49    6.40
 -13   5  -5   68.19    5.60
  13  -5  -5   61.39    6.20
 -13   5  -5   56.29    6.30
 -13  -5   5   86.79   14.50
 -13  -5   5   57.29    5.10
 -13  -5  -5   57.89    4.40
 -13   5   5   54.29    9.40
 -13  -5  -5   65.09    4.30
  13  -5   5   61.99    8.30
  13  -5  -6    4.20    4.80
  13  -5  -6    5.80    3.10
 -13   5  -6    6.90    3.00
 -13  -5   6   12.60    5.00
  13  -5   6    4.10    3.60
 -13  -5  -6    8.50    1.40
 -13  -5  -6    9.90    2.60
 -13   5   6    3.40    3.60
  13  -5  -7   64.69    6.80
  13  -5  -7   59.09    6.40
 -13  -5   7   57.69    8.80
 -13   5  -7   56.69    6.50
  13  -5   7   56.69    9.10
 -13  -5  -7   60.39    5.20
 -13   5   7   55.29    8.50
  13  -5  -8   -0.80    3.20
  13  -5  -8    5.30    2.60
 -13   5  -8   11.30    3.90
 -13  -5   8    2.80    3.90
 -13  -5  -8   -0.20    3.00
  13  -5   8    8.40    3.80
 -13   5   8    9.50    3.70
 -13  -5  -8    2.90    2.10
 -13  -6   0    0.90    1.60
 -13   6   0    2.80    3.00
  13  -6   0   -1.70    2.30
 -13   6  -1   31.30    6.10
 -13  -6   1   28.70    3.60
 -13  -6   1   26.00    2.80
  13  -6  -1   30.60    5.50
  13  -6  -1   25.70    5.70
 -13  -6   1   36.40    2.80
 -13   6   1   27.10    5.70
 -13  -6  -1   38.50    5.00
  13  -6   1   24.30    5.60
 -13  -6   2   40.80    2.50
  13  -6  -2   35.30    5.80
 -13  -6   2   39.20    3.60
 -13   6  -2   45.10    6.40
 -13  -6   2   38.50    6.10
  13  -6  -2   51.19    6.80
 -13  -6   2   39.40    2.50
 -13   6  -2   40.10    6.30
 -13   6   2   49.00    7.40
  13  -6   2   44.70    7.50
 -13  -6  -2   53.99    5.30
  13  -6  -3    7.70    3.10
  13  -6  -3   12.60    4.20
 -13  -6   3    6.30    3.60
 -13   6  -3    5.30    3.30
 -13   6  -3   11.00    3.30
 -13  -6   3    6.80    2.20
 -13  -6  -3   10.60    3.30
 -13   6   3   12.20    4.90
  13  -6   3   14.20    5.20
  13  -6  -4  156.48   10.60
 -13  -6   4  169.88    8.90
 -13  -6   4  164.88   11.40
  13  -6  -4  164.28   10.40
 -13   6  -4  163.28   10.40
 -13   6  -4  164.18   10.30
  13  -6   4  176.88   13.00
 -13  -6  -4  171.08   10.50
 -13  -6  -4  176.88    8.90
 -13   6   4  142.49   11.40
  13  -6  -5   23.40    5.20
 -13   6  -5   21.20    4.40
  13  -6  -5   24.60    4.90
 -13   6  -5   26.10    4.90
 -13  -6   5   30.70    6.60
  13  -6   5   23.30    6.00
 -13  -6  -5   27.30    3.20
 -13  -6  -5   19.30    4.70
 -13   6   5   25.80    6.50
 -13   6  -6  131.29    9.50
 -13  -6   6  142.19   11.40
  13  -6  -6  153.48   10.50
  13  -6  -6  159.88   10.20
 -13  -6  -6  144.99    7.40
 -13  -6  -6  142.99   10.50
 -13   6   6  146.89   11.70
  13  -6   6  148.19   11.90
  13  -6  -7   -1.30    2.70
  13  -6  -7    0.40    2.10
 -13   6  -7    1.30    3.90
 -13  -6   7    9.10    4.20
 -13  -6  -7    0.60    1.90
 -13   6   7    0.90    3.60
  13  -6   7    5.20    4.10
 -13  -6  -7    7.10    3.60
 -13   7   0   -1.60    2.90
  13  -7   0   -1.50    2.60
 -13  -7   0    1.70    1.90
 -13  -7   1   21.20    3.00
 -13   7  -1   17.40    4.30
  13  -7  -1    6.20    4.10
 -13  -7   1   21.00    3.50
 -13   7  -1   25.20    5.90
  13  -7   1   21.30    6.20
 -13  -7  -1   17.20    3.70
 -13   7   1   17.40    5.60
  13  -7  -2   13.90    4.70
 -13   7  -2    9.20    3.00
 -13   7  -2    9.00    4.10
 -13  -7   2   10.10    1.60
  13  -7  -2    4.20    3.00
 -13  -7   2   10.90    4.30
 -13  -7   2   11.80    2.50
 -13  -7  -2   13.00    3.70
 -13   7   2   11.00    4.60
  13  -7   2    7.60    5.40
 -13  -7   3  216.88   13.00
 -13  -7   3  195.48    9.70
 -13   7  -3  219.48   13.10
  13  -7  -3  199.38   12.50
  13  -7  -3  207.78   12.20
 -13   7  -3  200.98   11.50
 -13   7   3  191.28   13.30
  13  -7   3  188.48   13.60
 -13  -7  -3  199.78   11.50
 -13  -7   4   21.40    5.90
 -13   7  -4   20.10    4.80
  13  -7  -4   15.20    4.50
  13  -7  -4   17.60    4.50
 -13   7   4   19.70    6.00
 -13  -7  -4   14.10    4.20
  13  -7   4   13.80    4.70
 -13  -7  -4   18.60    2.50
 -13  -7   5   29.90    6.60
 -13   7  -5   26.50    4.90
  13  -7  -5   21.80    5.00
 -13   7  -5   23.00    4.40
  13  -7  -5   25.50    5.70
 -13  -7  -5   24.30    3.20
 -13  -7  -5   20.30    5.10
 -13   7   5   42.30    7.70
  13  -7   5   31.20    6.90
  13  -7  -6    8.80    3.30
  13  -7  -6    4.10    3.20
 -13  -7   6    5.40    4.50
 -13  -7  -6    5.40    3.10
 -13  -7  -6    9.70    3.90
 -13   7   6    4.30    3.70
  13  -7   6    4.80    3.90
  13  -8   0    4.30    4.10
 -13  -8   0   -0.80    1.60
 -13   8   0    1.90    3.40
 -13   8  -1   21.90    5.90
  13  -8  -1   18.70    5.20
 -13   8  -1   25.70    6.50
 -13  -8   1   25.50    3.70
 -13  -8  -1   25.90    4.40
  13  -8   1   18.20    5.60
 -13   8   1   27.80    6.40
 -13   8  -2   44.00    7.40
  13  -8  -2   45.50    7.10
  13  -8  -2   41.40    6.20
 -13  -8  -2   52.69    7.50
  13  -8   2   43.90    8.60
 -13   8   2   54.39    8.90
  13  -8  -3    0.60    2.80
 -13  -8   3    0.00    3.40
  13  -8  -3   -1.10    3.30
 -13   8  -3    3.40    2.80
 -13  -8  -3    1.00    2.50
 -13   8   3    6.80    4.30
  13  -8   3    4.10    4.40
  13  -8  -4   66.59    8.80
 -13  -8   4   48.70    8.00
 -13   8  -4   63.09    8.90
  13  -8  -4   75.59    9.90
  13  -8   4   57.99    8.40
 -13   8   4   69.49   10.10
 -13  -8  -4   60.49    3.80
 -13  -8  -4   68.59    8.90
 -13   8  -5   14.80    4.20
  13  -8  -5    9.60    4.10
  13  -8  -5   11.70    4.30
  13  -8   5   13.90    4.80
 -13  -8  -5   17.00    4.70
 -13   9   0   -3.70    3.00
  13  -9   0    2.30    3.30
  13  -9  -1   12.40    4.70
 -13   9  -1    7.20    4.60
 -13   9   1   10.10    5.30
  13  -9   1    4.90    3.90
 -13   9  -2    2.40    3.70
  13  -9  -2    1.10    3.30
 -13   9   2   -5.20    3.00
  13  -9   2    3.60    3.90
 -13  -9  -2    5.30    2.20
  13  -9  -3   60.69    8.70
 -13  -9   3   53.79   13.10
  13  -9  -3   43.70   11.70
 -13   9  -3   88.79    9.00
  13  -9   3   78.49   10.90
 -13  -9  -3   73.69    7.10
 -13   9  -4    1.60    2.80
  13  -9  -4    0.70    3.00
 -13  -9   4    0.70    3.00
  13  -9  -4    0.60    3.20
 -13   9   4    1.90    3.30
  13  -9   4    5.30    3.60
  14   0   0    5.70    2.30
 -14   0   0    4.50    2.20
 -14   0   0   15.90    2.60
 -14   0   0    4.20    1.70
  14   0   0    8.20    2.10
 -14   0   1 1264.77   39.40
  14   0  -1 1243.38   38.60
  14   0   1 1252.77   40.00
 -14   0   1 1240.68   38.30
 -14   0  -1 1278.87   38.40
 -14   0  -1 1237.08   37.70
  14   0   1 1204.58   38.00
 -14   0   1 1226.68   38.00
  14   0  -2  249.38    9.80
 -14   0   2  245.38    9.90
  14   0   2  254.47   14.00
 -14   0   2  257.27   11.80
 -14   0  -2  260.57   10.10
 -14   0   2  236.38   10.40
  14   0  -2  252.57   10.30
 -14   0  -2  237.58   10.10
 -14   0   3   18.20    3.00
  14   0   3   23.20    4.90
  14   0  -3   26.80    3.50
 -14   0   3   30.90    5.00
 -14   0  -3   23.30    2.50
 -14   0   3   23.20    2.30
  14   0  -3   29.20    3.00
  14   0   4   36.50    6.50
 -14   0   4   39.90    5.90
  14   0  -4   32.60    3.20
 -14   0   4   38.00    4.10
 -14   0  -4   33.70    4.30
  14   0  -5    7.80    1.50
  14   0   5    7.60    3.60
 -14   0   5    3.20    2.90
  14   0  -5    1.80    1.60
  14   0  -5    7.50    2.00
 -14   0  -5    2.90    2.40
  14   0  -6   31.10    2.50
 -14   0  -6   38.90    5.70
  14   0  -6   33.80    2.60
 -14   0   6   44.90    7.10
  14   0   6   27.20    5.80
  14   0  -6   36.30    5.80
 -14   0  -7   29.90    5.00
 -14   0   7   41.00    8.60
  14   0   7   24.80    6.30
  14   0  -7   37.50    5.20
 -14   0  -8    0.00    2.40
  14   0   8    3.70    3.90
 -14   0   8   -3.00    3.00
  14   0   9   43.20    8.20
 -14   0   9   47.00    8.00
 -14   0  -9   48.90    8.40
 -14   1   0 1787.52   52.69
 -14   1   0 1792.82   53.79
  14   1   0 1781.42   53.79
 -14  -1   0 1784.02   53.79
 -14  -1   0 1717.43   53.09
  14  -1   0 1749.53   54.29
 -14  -1   0 1777.12   51.69
 -14  -1   1   -0.90    1.00
  14  -1  -1   -0.80    1.70
 -14  -1   1    0.20    0.90
 -14   1  -1    1.40    1.90
 -14  -1   1    1.50    2.20
  14  -1  -1   -0.10    1.10
  14   1   1    0.90    2.10
 -14   1  -1    1.10    1.40
 -14   1   1    0.90    1.10
 -14  -1  -1    1.60    1.10
 -14   1   1    0.00    1.20
  14  -1   1    1.80    1.20
  14  -1   1   -0.60    1.80
 -14  -1  -1    1.10    1.70
  14   1  -1   -0.60    1.50
 -14   1   1    0.00    2.10
  14  -1  -2  227.38   10.40
  14   1   2  214.48   11.40
 -14   1  -2  202.78    9.60
 -14  -1   2  229.18   11.30
 -14   1  -2  203.88    9.30
 -14  -1   2  211.18    9.30
 -14  -1   2  209.78    8.40
 -14   1   2  217.58    9.90
 -14   1   2  246.98   11.50
 -14  -1  -2  240.08    9.30
 -14   1   2  214.08    9.50
  14  -1   2  209.68    8.80
  14   1  -2  219.38    8.20
 -14  -1  -2  222.68   10.20
  14   1  -2  226.78    8.90
 -14  -1  -2  230.38    9.00
  14  -1   2  220.18   11.60
  14   1   3    2.00    2.60
 -14  -1   3    4.60    1.10
 -14  -1   3    2.90    2.70
  14  -1  -3    5.90    2.00
  14  -1  -3    4.70    2.30
 -14   1  -3    5.10    1.70
 -14  -1   3    2.80    1.40
  14  -1   3    3.10    1.30
 -14   1   3    5.00    1.40
 -14   1   3    3.10    1.70
 -14  -1  -3    7.00    1.80
  14   1  -3    4.60    1.50
  14   1  -3    2.70    1.20
 -14  -1  -3    2.40    1.30
  14  -1   3    3.80    2.60
 -14   1   3    4.50    3.00
 -14   1  -4  435.46   16.50
 -14  -1   4  451.75   18.10
  14   1   4  407.76   18.60
  14  -1  -4  382.66   15.20
 -14  -1   4  401.96   15.80
 -14   1  -4  381.26   12.60
  14  -1  -4  431.76   15.30
 -14   1  -4  408.36   12.40
 -14  -1  -4  419.66   15.30
  14   1  -4  401.86   14.50
 -14   1   4  418.66   17.90
 -14   1   4  403.96   14.30
  14  -1   4  412.96   19.00
  14  -1  -5    3.20    1.90
 -14  -1   5    2.10    3.00
  14  -1  -5    4.10    1.90
 -14   1  -5   -0.50    2.10
 -14  -1   5   -0.10    1.00
  14   1   5   -3.10    2.00
  14  -1   5    5.00    3.30
 -14   1   5    3.80    3.30
 -14  -1  -5    1.60    2.00
  14   1  -5    3.60    1.80
 -14   1  -6   -0.10    2.30
 -14  -1   6    5.70    3.00
  14  -1  -6    0.50    1.70
  14  -1  -6   -0.80    1.90
  14   1   6    2.00    3.70
  14  -1  -6    2.50    2.10
 -14  -1   6    0.30    3.20
  14  -1   6    0.30    3.30
 -14  -1  -6    0.90    2.10
 -14   1   6   -3.00    2.90
 -14   1  -7    4.80    2.90
  14  -1  -7    5.00    1.90
  14  -1  -7   -2.40    1.90
  14   1   7    5.00    4.00
  14  -1   7    0.60    3.20
 -14  -1  -7    1.90    2.40
  14   1  -7    0.30    2.10
 -14  -1   8   41.90    7.20
 -14   1  -8   47.10    6.20
  14   1   8   41.90    7.90
 -14   1   8   37.50    7.10
 -14  -1  -8   45.00    6.30
  14  -1   8   59.69    9.80
 -14   1  -9    1.40    2.80
 -14  -1   9   -2.00    3.50
 -14  -1  -9    4.00    2.60
 -14   1   9   -3.40    3.60
  14  -1   9    6.30    4.00
 -14   2   0  105.49    6.20
 -14  -2   0  108.89    5.00
  14   2   0   96.99    6.20
 -14   2   0   99.29    6.90
 -14  -2   0  117.69    7.20
  14  -2   0  102.39    7.60
 -14  -2   1  438.26   15.10
 -14   2  -1  441.66   16.70
  14  -2  -1  443.56   17.70
  14  -2  -1  448.26   16.20
 -14   2  -1  456.05   16.40
 -14  -2   1  431.76   14.90
  14   2   1  444.76   17.20
 -14  -2  -1  434.96   17.50
 -14   2   1  453.55   16.60
 -14  -2  -1  450.25   14.30
 -14  -2  -1  423.36   16.50
  14  -2   1  430.76   18.10
  14  -2   1  429.66   16.30
  14   2  -1  440.86   15.40
  14  -2  -2  340.37   14.10
 -14   2  -2  359.26   14.50
  14  -2  -2  320.17   13.00
 -14  -2   2  315.47   14.80
 -14  -2   2  309.07   10.90
 -14   2  -2  339.67   13.00
 -14  -2   2  313.27   12.10
  14   2   2  375.66   20.50
  14  -2   2  327.97   15.10
  14   2  -2  331.87   11.10
 -14  -2  -2  316.87   12.80
 -14   2   2  320.17   14.70
 -14   2   2  312.47   13.40
 -14  -2  -2  349.47   18.10
  14  -2   2  298.87   12.40
  14   2   3  333.97   15.50
  14  -2  -3  352.36   14.10
 -14   2  -3  347.17   12.70
  14  -2  -3  358.36   13.80
 -14   2  -3  336.27   14.00
 -14  -2   3  340.87   15.90
 -14  -2   3  342.57   13.20
  14   2  -3  337.77   11.40
  14  -2   3  325.17   12.20
 -14  -2  -3  353.06   12.60
 -14   2   3  337.97   14.20
 -14  -2  -3  325.17   12.60
  14  -2   3  333.37   16.10
 -14   2   3  352.86   16.00
 -14  -2   4    1.10    1.30
  14  -2  -4   -0.50    1.50
  14  -2  -4   -0.40    1.90
 -14   2  -4    1.40    2.40
  14   2   4    0.30    2.40
 -14  -2   4    0.70    2.80
 -14   2  -4    3.30    1.30
  14   2  -4    0.20    1.10
 -14  -2  -4    3.00    1.00
 -14   2   4    4.10    3.50
 -14  -2  -4    1.80    1.70
 -14  -2  -4    0.70    1.00
  14  -2   4   -0.40    2.80
 -14   2   4    2.80    1.70
 -14  -2   5    2.10    3.30
  14  -2  -5    4.60    2.10
 -14   2  -5    1.60    2.20
 -14  -2   5    2.40    1.80
  14   2   5    1.20    3.00
 -14   2   5    0.40    3.20
  14   2  -5    1.00    1.40
 -14  -2  -5    0.50    1.80
  14  -2   5   -2.80    3.00
  14  -2  -6    5.10    2.50
  14   2   6   10.70    4.60
  14  -2  -6    3.80    2.20
 -14  -2   6    3.20    3.40
 -14   2  -6    0.40    2.40
  14  -2   6    5.80    3.90
 -14  -2  -6    1.40    2.10
  14   2  -6    0.30    1.80
 -14   2   6    2.70    3.60
 -14  -2   7  127.49    9.80
  14  -2  -7  125.39    8.50
  14   2   7  128.09   10.70
  14  -2  -7  129.09    7.30
  14  -2   7  123.39   11.00
 -14  -2  -7  126.99    8.10
 -14   2   7  120.09   10.10
  14  -2  -8    0.10    2.10
 -14   2  -8    2.50    2.60
 -14  -2   8    2.50    2.80
  14  -2  -8    1.40    3.30
 -14  -2  -8    0.30    2.40
 -14   2   8    4.60    4.10
  14  -2   8    2.30    3.60
 -14   2  -9   28.00    5.20
 -14  -2   9   26.90    5.70
 -14  -2  -9   27.70    5.10
 -14   2   9   22.90    5.50
 -14  -3   0 1303.77   42.60
 -14   3   0 1375.86   46.70
  14  -3   0 1398.56   45.80
 -14   3   0 1413.06   43.40
  14   3   0 1470.75   42.80
 -14  -3   0 1397.16   40.50
  14  -3  -1   -0.60    2.30
 -14   3  -1    2.50    1.60
 -14  -3   1    0.60    1.20
 -14  -3   1    4.10    1.30
 -14   3  -1    0.00    2.30
 -14  -3   1    2.60    2.30
  14  -3  -1    4.10    2.20
  14   3   1    1.50    2.30
  14  -3   1    3.60    2.60
 -14  -3  -1    3.60    1.20
 -14   3   1   -0.30    2.30
 -14   3   1   -0.10    1.00
 -14  -3  -1    0.80    1.80
 -14   3  -2  155.98    8.40
  14  -3  -2  174.28    9.50
 -14  -3   2  148.49    9.40
 -14  -3   2  156.88    7.20
  14   3   2  164.08    9.40
 -14  -3   2  162.78    5.90
  14  -3  -2  168.68    8.80
 -14   3  -2  155.68    8.40
 -14   3   2  150.08    8.40
 -14   3   2  152.38    9.90
 -14  -3  -2  161.08    8.00
 -14  -3  -2  151.48    9.10
  14  -3   2  151.88   10.00
 -14   3  -3    2.90    1.70
 -14  -3   3    6.90    2.10
  14   3   3    3.40    2.80
  14  -3  -3    1.40    1.90
 -14   3  -3    6.50    2.40
  14  -3  -3    5.60    2.70
 -14  -3   3    4.20    3.20
 -14   3   3    4.30    3.60
 -14  -3  -3    7.70    2.20
 -14  -3  -3    9.50    1.90
  14  -3   3    6.50    1.70
  14  -3   3    5.90    3.00
  14   3   4  305.37   14.90
 -14   3  -4  270.87   12.90
 -14  -3   4  322.97   15.80
  14  -3  -4  294.97   12.90
  14  -3  -4  304.67   13.20
 -14  -3   4  297.37   12.30
 -14   3  -4  287.77   11.30
 -14   3  -4  296.27   13.70
 -14  -3  -4  302.37   11.10
  14   3  -4  275.27    9.90
 -14  -3  -4  278.07   10.50
  14  -3   4  265.67   10.60
  14  -3   4  293.97   15.50
 -14   3   4  275.97   15.00
 -14  -3  -4  299.07   10.90
 -14   3  -5    4.00    1.80
 -14  -3   5    4.40    1.70
  14  -3  -5    3.30    2.30
 -14   3  -5    0.00    2.40
 -14  -3   5   -2.50    2.60
  14   3   5    0.90    2.80
  14  -3  -5    4.10    2.50
  14   3  -5    1.70    1.30
  14  -3   5   -0.30    3.10
 -14   3   5   -2.10    3.40
  14  -3   5    1.30    1.00
 -14  -3  -5    0.40    1.60
  14  -3  -6    3.40    2.60
 -14  -3   6    3.30    3.70
  14  -3  -6   -0.60    2.00
  14   3   6   -4.00    5.50
 -14   3  -6   -0.80    2.00
 -14  -3  -6   -0.30    1.70
  14  -3   6    2.10    3.90
 -14   3   6    3.60    3.80
  14  -3  -7    3.70    2.30
  14  -3  -7    0.90    2.60
 -14  -3   7    3.10    3.60
 -14   3   7   -1.20    3.00
 -14  -3  -7    4.40    2.60
  14  -3   7    2.60    3.80
  14  -3  -8   46.80    5.00
 -14   3  -8   44.10    6.50
 -14  -3   8   43.20    7.10
  14  -3  -8   32.90    5.50
  14  -3   8   34.70    7.10
 -14   3   8   32.30    6.80
 -14  -3  -8   37.10    5.50
 -14   4   0    4.60    2.80
 -14  -4   0    5.90    1.60
 -14   4   0    6.80    2.30
  14  -4   0    3.80    3.30
 -14  -4   0    4.30    2.60
 -14  -4   0    5.20    1.30
 -14   4  -1  594.54   22.30
 -14  -4   1  601.44   20.70
 -14  -4   1  644.54   20.00
  14  -4  -1  622.54   23.00
  14  -4  -1  642.84   24.30
 -14  -4   1  636.54   23.40
 -14   4  -1  647.94   23.70
 -14  -4   1  638.94   20.00
 -14  -4  -1  673.53   22.80
 -14   4   1  658.53   24.70
  14  -4   1  625.14   25.30
  14  -4  -2  128.89    8.10
 -14  -4   2  124.39    6.30
  14  -4  -2  123.69    8.50
 -14   4  -2  127.29    7.40
 -14  -4   2  134.09    8.90
  14  -4   2  127.79    9.70
 -14  -4  -2  132.39    8.30
 -14   4   2  131.19    9.40
 -14   4  -3   18.50    3.70
 -14  -4   3   10.40    3.70
  14  -4  -3    7.50    3.20
 -14   4  -3   18.20    4.40
 -14  -4   3   11.00    2.40
  14  -4  -3   18.30    3.90
 -14   4  -3   17.00    3.10
 -14  -4  -3    9.10    2.40
  14  -4   3   14.60    4.70
 -14   4   3   12.90    4.40
 -14  -4  -3   12.00    1.80
 -14  -4   4   23.20    3.60
 -14   4  -4   20.40    4.40
  14  -4  -4   15.80    3.50
 -14  -4   4   14.30    4.30
  14  -4  -4   24.70    4.50
 -14   4  -4   17.90    3.40
  14  -4   4   19.50    5.70
 -14  -4  -4   18.30    3.10
 -14  -4  -4   28.00    2.40
 -14   4   4   18.70    5.10
  14  -4   4   16.90    3.30
 -14  -4  -4   22.80    2.60
  14  -4  -5   -1.00    2.10
 -14   4  -5    0.80    1.30
 -14   4  -5    2.90    2.80
 -14  -4   5    3.90    3.90
 -14  -4   5    4.90    1.50
  14  -4   5    2.10    2.00
  14  -4   5   -0.60    3.30
 -14  -4  -5   -0.50    1.50
 -14  -4  -5    6.10    1.50
 -14   4   5    1.80    3.90
  14  -4  -6   21.20    4.50
 -14  -4   6   20.50    5.60
  14  -4  -6   29.60    5.00
 -14   4  -6   19.50    4.80
 -14  -4  -6   23.50    3.70
  14  -4   6   20.00    5.80
 -14   4   6   18.00    5.50
 -14  -4   7   14.50    5.10
  14  -4  -7   14.30    3.70
  14  -4  -7   14.40    3.90
 -14  -4  -7   17.80    3.60
  14  -4   7   27.00    6.90
 -14   4   7   25.40    6.40
  14  -4  -8    6.70    2.40
 -14  -4   8    2.50    3.40
 -14   4  -8    3.20    3.30
  14  -4  -8    3.70    3.20
 -14  -4  -8   -2.10    2.00
  14  -4   8   -2.10    3.10
 -14   4   8    3.70    3.40
 -14  -5   0  774.02   24.80
 -14  -5   0  756.92   22.60
 -14   5   0  751.82   28.30
 -14  -5   0  736.63   26.80
  14  -5   0  769.32   29.20
 -14  -5   1    5.10    1.30
 -14  -5   1    1.50    1.20
  14  -5  -1   -0.60    2.40
 -14   5  -1   -1.40    2.40
 -14  -5   1    1.90    1.30
 -14  -5   1    2.10    2.70
  14  -5  -1    2.30    2.10
 -14   5   1    4.50    3.40
 -14  -5  -1    0.90    2.10
  14  -5   1   -0.50    2.70
  14  -5  -2  109.19    8.60
 -14  -5   2  120.99    6.10
 -14   5  -2  116.59    8.40
  14  -5  -2  103.89    7.90
 -14  -5   2  102.09    8.20
 -14  -5  -2  121.99    7.40
 -14   5   2  124.69    9.60
  14  -5   2  111.19    9.70
 -14  -5   3   -0.60    2.80
 -14  -5   3    1.10    1.30
  14  -5  -3    0.60    2.30
 -14   5  -3    0.00    2.70
 -14   5  -3    0.90    2.70
  14  -5  -3    4.30    3.00
  14  -5   3    1.80    3.00
 -14  -5  -3    1.90    1.80
 -14   5   3    1.80    3.30
 -14  -5   4  173.58    9.00
 -14   5  -4  179.28   10.90
 -14  -5   4  192.28   12.00
  14  -5  -4  182.18   10.50
 -14   5  -4  177.28    9.90
  14  -5  -4  168.08   10.60
 -14  -5  -4  178.48    7.00
 -14   5   4  176.68   12.20
  14  -5   4  168.78   12.00
 -14  -5  -4  189.48    8.90
 -14   5  -5    3.00    3.00
 -14  -5   5    1.60    3.50
  14  -5  -5    4.60    3.30
  14  -5  -5    0.60    2.00
 -14   5  -5    3.30    1.90
  14  -5   5    6.80    4.30
 -14   5   5    2.80    3.20
 -14  -5  -5    2.90    1.60
 -14  -5  -5    1.90    1.60
  14  -5  -6   -1.50    2.20
  14  -5  -6    0.50    2.20
 -14  -5   6    2.40    3.50
 -14   5  -6    3.40    2.50
  14  -5   6   -0.50    3.20
 -14  -5  -6    0.80    1.70
 -14   5   6    1.50    3.50
  14  -5  -7   -2.40    2.40
 -14   5  -7    5.40    3.40
  14  -5  -7   -7.00    2.50
 -14  -5   7    0.90    3.70
 -14   5   7    3.70    3.20
  14  -5   7    4.60    3.90
 -14  -5  -7    1.10    1.90
 -14  -5   8    7.20    4.80
 -14   5  -8   24.50    4.60
  14  -5  -8   19.50    4.40
  14  -5  -8   18.40    7.70
  14  -5   8   26.40    9.80
 -14  -5  -8   19.90    3.70
 -14   5   8   21.50    7.00
 -14  -6   0   38.50    2.70
 -14   6   0   43.20    6.90
  14  -6   0   37.50    6.80
 -14   6  -1   99.89    8.70
 -14  -6   1   99.79    5.30
 -14  -6   1  116.39    8.50
  14  -6  -1  105.49    8.90
 -14  -6   1   98.99    5.40
 -14  -6   1  100.99    5.60
 -14  -6  -1  107.59    6.90
  14  -6   1  132.09   10.60
 -14   6   1  102.39    9.10
 -14  -6   2  103.29    8.40
  14  -6  -2   86.99    7.60
 -14   6  -2  109.69    8.40
  14  -6  -2   99.19    8.50
 -14   6  -2  111.69    8.90
 -14  -6   2  105.49    5.90
  14  -6   2  118.09   10.50
 -14  -6  -2  109.29    7.50
 -14   6   2   94.89    9.30
  14  -6  -3  120.09    8.80
 -14  -6   3  124.09    7.00
 -14   6  -3  120.89    8.80
  14  -6  -3  114.69    9.20
 -14   6  -3  117.99    9.10
 -14  -6   3  118.09   10.00
  14  -6   3  112.39   10.50
 -14   6   3  124.49   11.30
 -14  -6  -3  119.59    8.40
 -14  -6   4    6.30    3.80
 -14   6  -4    3.60    2.80
  14  -6  -4    8.40    4.90
 -14   6  -4   -1.40    2.00
 -14  -6   4    3.50    1.80
  14  -6  -4    0.80    2.60
 -14  -6  -4    3.40    1.30
 -14   6   4    5.80    4.40
  14  -6   4   -0.40    2.80
 -14   6  -5    0.30    2.70
  14  -6  -5    3.30    3.00
 -14  -6   5    1.70    3.90
  14  -6  -5    0.40    2.60
 -14   6  -5    4.20    2.20
 -14   6   5    4.30    3.90
 -14  -6  -5   -0.80    1.60
 -14  -6  -5   -1.10    2.60
 -14  -6  -5    0.50    1.40
  14  -6   5   -2.40    2.80
  14  -6  -6    1.80    2.60
 -14  -6   6    4.40    3.60
  14  -6  -6    6.90    3.20
 -14   6  -6    8.00    4.10
 -14  -6  -6    1.50    3.00
 -14  -6  -6    2.30    1.70
 -14   6   6    0.10    3.50
  14  -6   6   13.50    5.00
 -14  -6   7   60.79   13.60
 -14   6  -7   61.29    7.90
  14  -6  -7   62.49    6.80
  14  -6  -7   49.99    6.80
  14  -6   7   45.60    7.60
 -14   6   7   63.59   10.50
 -14  -6  -7   57.09    8.20
 -14  -6  -7   47.50    4.50
 -14  -7   0  428.46   16.50
 -14   7   0  429.96   20.60
  14  -7   0  405.66   20.50
 -14   7  -1    1.40    3.30
 -14  -7   1    1.50    1.40
 -14   7  -1    1.90    2.30
 -14  -7   1   -0.80    1.30
 -14  -7   1    1.10    3.60
  14  -7  -1   -1.00    2.70
  14  -7   1    4.60    3.60
 -14   7   1    2.20    4.30
 -14  -7  -1    1.10    2.20
 -14   7  -2   50.59    6.70
  14  -7  -2   58.39    8.00
 -14  -7   2   47.00    4.10
 -14  -7   2   48.90    7.30
 -14   7  -2   48.60    7.80
  14  -7  -2   47.50    7.30
 -14   7   2   57.99    8.70
 -14  -7  -2   57.59    7.20
  14  -7   2   31.80    6.80
 -14   7  -3    0.30    3.30
 -14  -7   3    7.00    2.20
  14  -7  -3    2.00    2.90
 -14  -7   3    0.30    3.30
 -14   7  -3    5.90    3.10
  14  -7  -3    3.50    3.50
 -14  -7  -3    5.70    5.00
 -14   7   3    1.70    3.60
  14  -7   3    3.90    4.30
 -14   7  -4   84.39    7.80
 -14  -7   4   86.99    8.90
  14  -7  -4   59.49    7.90
 -14   7  -4   76.79    7.30
  14  -7  -4   62.29    6.90
  14  -7   4   77.69    8.70
 -14   7   4   65.29    9.50
 -14  -7  -4   67.39    7.10
 -14  -7  -4   72.19    3.70
 -14   7  -5   -6.70    2.80
 -14  -7   5    6.80    4.30
  14  -7  -5    1.70    2.80
  14  -7  -5   -2.60    2.50
 -14   7  -5    8.10    2.60
 -14  -7  -5    0.80    2.70
 -14   7   5    0.20    3.70
 -14  -7  -5   -1.50    1.50
 -14  -7  -5    0.80    1.40
  14  -7   5   -1.10    2.80
  14  -7  -6    2.80    3.70
  14  -7  -6   -3.60    2.60
 -14  -7  -6    2.10    1.60
  14  -7   6    0.50    2.60
 -14   7   6    2.90    5.20
 -14  -7  -6   -0.30    4.20
  14  -8   0    3.50    3.80
 -14   8   0    3.30    4.00
 -14  -8   0    4.80    2.10
 -14   8  -1  145.69   11.50
  14  -8  -1  114.69   10.40
 -14  -8   1  111.79    6.40
 -14   8   1  107.69   10.60
  14  -8   1   99.39   10.60
 -14  -8  -1  122.39    8.00
  14  -8  -2   30.00    6.70
 -14   8  -2   32.50    6.80
 -14  -8   2   25.70    6.00
 -14  -8   2   27.20    3.80
  14  -8   2   21.20    6.20
 -14   8   2   26.00    6.60
 -14  -8  -2   30.20    5.50
 -14  -8   3    3.70    4.00
 -14   8  -3    8.30    3.40
  14  -8  -3   -0.20    2.00
  14  -8  -3    1.70    3.30
 -14  -8  -3    5.30    2.60
  14  -8   3    5.20    3.80
 -14   8   3    6.10    4.60
  14  -8  -4    9.60    3.50
  14  -8  -4   -1.30    2.90
 -14  -8   4   10.00    4.40
 -14   8  -4    9.20    3.30
 -14   8   4    7.50    4.70
 -14  -8  -4    3.00    2.50
  14  -8   4   -1.50    2.70
 -14  -8   5    0.60    2.70
  14  -8  -5   10.70    3.90
  14  -8  -5    5.30    3.30
 -14  -8  -5    2.50    1.60
 -14   8   5    5.70    3.90
  14  -8   5    3.70    5.30
 -14  -9   0  125.39    7.60
  14  -9   0  135.09   11.90
 -14   9   0  132.09   11.70
 -14   9  -1    0.70    4.00
  14  -9  -1    0.80    4.10
 -14   9   1   -3.00    3.40
 -14  -9  -1    8.60    2.40
  14  -9   1   -0.60    3.90
  14  -9  -2   34.40   10.70
 -14  -9   2   15.30    6.20
 -14   9  -2   36.40    7.40
  14  -9   2   28.90    6.90
 -14   9   2   35.50   10.50
 -14  -9  -2   21.20    4.10
  14  -9  -3    1.40    3.10
 -14   9  -3   17.20    4.20
 -14  -9   3   -0.30    3.40
 -14  -9  -3   10.00    2.90
  14  -9   3    7.00    4.60
 -14   9   3   13.60    5.30
 -15   0   0    1.00    1.50
 -15   0   0   -1.30    1.70
  15   0   0    2.90    2.10
 -15   0   0    1.50    1.40
 -15   0  -1    8.00    2.10
 -15   0   1   10.50    4.80
 -15   0  -1    8.50    2.60
 -15   0   1   10.00    2.10
  15   0   1   11.20    2.40
  15   0   1   12.50    3.40
 -15   0   1    9.30    2.10
  15   0  -1    9.00    2.50
 -15   0   2  244.88   10.30
  15   0  -2  261.47   10.30
 -15   0   2  270.67   12.40
  15   0  -2  266.57   10.80
 -15   0   2  244.88   10.90
  15   0   2  271.17   13.20
 -15   0  -2  264.97   10.90
 -15   0  -2  273.77   10.70
 -15   0   3    7.90    2.20
  15   0  -3   11.90    2.40
  15   0   3    9.80    3.60
 -15   0  -3    7.40    1.90
 -15   0   3    8.40    1.70
 -15   0  -3   13.50    2.50
  15   0  -3    9.70    2.40
 -15   0   3   10.30    3.50
 -15   0   4  224.68   12.00
 -15   0  -4  240.48   10.70
  15   0   4  220.48   13.10
  15   0  -4  209.28    9.40
 -15   0   4  202.48   10.30
  15   0  -4  214.78    8.80
  15   0  -5   20.60    2.50
 -15   0  -5   13.00    3.30
 -15   0   5   19.30    5.10
  15   0  -5   14.30    3.30
 -15   0   5   19.70    3.30
  15   0   5   13.30    4.30
  15   0  -5   11.20    2.20
 -15   0   6  155.38   10.70
  15   0   6  133.09   11.00
  15   0  -6  133.59    7.90
 -15   0  -6  159.78    9.20
  15   0   7   -0.50    3.30
 -15   0  -7    1.20    2.40
 -15   0   7   -1.70    2.80
  15   0  -7   -5.50    2.10
 -15   0  -8  177.58   10.80
  15   0   8  155.78   12.60
 -15   0   8  159.38   11.90
 -15   0   9    1.80    3.80
 -15   0  -9   12.50    3.80
  15   0   9    4.70    3.90
  15  -1   0    1.70    1.90
 -15   1   0    1.00    1.30
  15   1   0    0.60    1.80
 -15  -1   0    0.20    1.20
 -15  -1   0   -0.30    1.80
 -15  -1   0    1.50    1.10
 -15   1   0   -1.00    2.00
  15  -1  -1  327.87   13.80
  15   1   1  319.17   14.10
 -15   1  -1  335.67   12.70
 -15  -1   1  326.87   12.30
 -15  -1   1  312.07   15.20
 -15   1  -1  335.27   13.40
 -15  -1   1  318.07   12.20
 -15  -1  -1  319.07   12.80
 -15   1   1  347.57   15.40
 -15   1   1  329.67   13.00
  15  -1   1  298.17   12.30
 -15  -1  -1  318.57   11.70
  15   1  -1  330.27   12.80
 -15  -1   2    3.20    1.80
 -15   1  -2    1.70    1.80
 -15  -1   2    0.00    2.30
  15   1   2   -1.00    2.40
 -15  -1   2    2.80    1.10
  15  -1  -2    2.80    1.60
  15  -1  -2    4.50    2.40
 -15   1  -2    0.60    1.50
 -15   1   2    2.30    2.60
 -15  -1  -2    1.70    1.40
 -15  -1  -2    1.50    1.50
 -15   1   2    2.00    1.70
 -15  -1  -2    0.90    1.50
 -15   1   2    4.50    1.50
  15   1  -2    0.50    1.50
  15   1  -2    2.50    1.00
  15  -1   2    3.80    2.60
 -15   1  -3  247.38   11.10
 -15  -1   3  244.18    8.50
  15   1   3  212.08   12.50
 -15  -1   3  241.08   10.70
 -15  -1   3  241.38   12.30
  15  -1  -3  243.38   10.80
  15  -1  -3  253.97   11.20
 -15   1  -3  235.78    9.50
 -15   1   3  253.57   12.60
 -15   1   3  225.68    9.90
  15   1  -3  233.78    9.40
  15   1  -3  246.78    9.00
 -15   1   3  235.78   11.10
 -15  -1  -3  241.38   10.00
  15  -1   3  255.67   13.40
 -15  -1  -3  263.97    9.50
  15  -1  -4  193.88    9.10
 -15   1  -4  205.98   10.20
 -15  -1   4  196.08   11.10
  15  -1  -4  188.28    9.00
 -15   1  -4  194.38    8.30
  15   1   4  159.18   11.30
 -15  -1   4  184.48    9.40
 -15   1  -4  174.28    6.80
 -15   1   4  193.28   11.30
 -15   1   4  199.48    9.80
 -15  -1  -4  204.08    9.20
 -15  -1  -4  177.48    6.20
 -15   1   4  192.38    8.10
  15  -1   4  184.68   12.00
 -15  -1  -4  180.28    6.30
  15   1   5  439.66   20.60
 -15  -1   5  446.66   19.40
  15  -1  -5  488.35   16.80
 -15   1  -5  452.35   18.20
 -15  -1   5  440.36   17.70
  15  -1  -5  445.36   17.60
 -15  -1  -5  465.45   17.40
  15  -1   5  449.46   21.10
  15   1  -5  431.46   16.20
 -15   1   5  459.05   19.90
  15  -1  -6   -2.10    1.70
  15   1   6    0.70    2.80
  15  -1  -6    3.10    1.60
 -15   1  -6    3.90    2.60
 -15  -1   6    4.60    3.60
  15  -1   6   -0.10    3.20
  15   1  -6    1.70    2.00
 -15  -1  -6    3.60    2.50
 -15   1   6   -0.10    3.40
  15  -1  -7   35.50    5.20
 -15  -1   7   49.50    7.60
 -15   1  -7   33.40    5.40
  15   1   7   30.30    6.60
  15  -1  -7   38.40    3.60
 -15   1   7   36.80    7.20
  15  -1   7   37.00    7.00
 -15  -1  -7   36.90    5.20
 -15  -1   8   28.20    6.40
 -15   1  -8   34.50    5.50
  15   1   8   35.20    7.40
 -15  -1  -8   32.30    5.20
  15  -1   8   31.90    6.40
 -15   1   8   34.80    7.00
 -15  -1   9   16.90    5.50
 -15   1  -9   12.20    3.90
 -15  -1  -9   20.50    4.70
 -15   1   9   15.10    5.10
  15  -1   9   14.80    5.50
 -15  -2   0    0.50    2.30
 -15  -2   0   -1.20    1.00
  15   2   0    2.00    2.20
 -15  -2   0   -1.20    0.90
 -15   2   0    0.20    2.30
 -15   2   0    1.30    1.40
  15  -2   0    0.00    2.20
 -15  -2   1   30.40    2.80
 -15  -2   1   32.50    5.40
  15  -2  -1   42.40    6.10
 -15  -2   1   26.70    2.90
 -15   2  -1   22.60    3.30
 -15   2  -1   37.40    5.10
  15   2   1   26.00    4.30
  15  -2  -1   32.10    3.50
 -15   2   1   28.40    5.00
  15   2  -1   35.00    4.10
  15  -2   1   29.40    5.20
 -15  -2  -1   27.70    2.50
 -15  -2  -1   38.40    5.10
 -15   2   1   36.20    4.70
  15  -2  -2    6.70    2.50
 -15  -2   2    7.80    1.50
  15  -2  -2    7.20    2.80
 -15  -2   2    4.70    1.80
  15   2   2    6.70    3.50
 -15  -2   2    7.50    3.50
 -15   2  -2    7.00    2.40
 -15   2  -2    5.80    2.50
  15  -2   2    9.80    3.70
 -15  -2  -2    5.90    2.00
  15   2  -2    8.00    1.90
  15  -2   2    7.00    1.80
 -15  -2  -2    6.70    2.20
 -15   2   2    6.10    3.20
 -15   2   2    6.00    1.90
 -15  -2  -2    7.60    1.80
 -15   2  -3    4.70    1.90
  15   2   3    2.00    2.90
 -15  -2   3    2.00    2.90
 -15  -2   3    2.80    1.70
 -15   2  -3    1.50    1.60
  15  -2  -3    0.30    2.10
  15  -2   3   -0.70    2.60
  15   2  -3    0.60    0.70
 -15   2   3    1.10    1.20
 -15  -2  -3    0.60    0.90
 -15  -2  -3   -0.40    1.20
  15  -2   3    1.60    1.20
 -15   2   3    0.10    3.20
 -15   2  -4  464.25   18.60
 -15  -2   4  471.25   17.90
 -15   2  -4  483.65   19.00
  15  -2  -4  481.65   18.00
  15   2   4  467.15   20.70
  15  -2  -4  483.45   18.20
 -15  -2   4  490.75   20.60
 -15   2  -4  482.65   15.70
  15  -2   4  494.25   21.40
  15   2  -4  468.55   15.90
  15  -2   4  459.55   15.10
 -15  -2  -4  501.75   17.10
 -15  -2  -4  497.85   15.20
 -15  -2  -4  452.45   15.20
 -15   2   4  476.35   20.60
  15  -2  -5    2.70    2.00
 -15   2  -5    0.00    2.30
 -15  -2   5    0.00    2.90
 -15  -2   5    2.80    1.60
  15   2   5   -0.40    3.20
  15  -2  -5    0.40    1.80
 -15  -2  -5    3.10    2.00
  15  -2   5   -3.40    2.90
  15   2  -5    1.30    1.50
 -15   2   5   -1.00    3.20
 -15   2  -6  298.27   14.30
 -15  -2   6  297.47   15.40
  15  -2  -6  287.37   13.20
  15  -2  -6  291.57   12.40
 -15   2   6  274.17   15.70
  15  -2   6  272.57   17.40
 -15  -2  -6  298.17   12.90
 -15  -2   7   -0.40    3.00
  15  -2  -7    5.60    2.40
  15   2   7    8.50    4.50
 -15   2  -7   -1.20    2.30
  15  -2  -7   -4.50    2.30
 -15   2   7    2.50    4.00
 -15  -2  -7    2.40    2.30
  15  -2   7    0.80    3.40
  15  -2  -8   44.80    4.70
 -15   2  -8   43.80    6.30
 -15  -2   8   67.19    8.80
  15  -2   8   33.10    6.80
 -15  -2  -8   62.49    6.20
 -15   2   8   41.10    7.80
  15  -3   0    3.60    3.10
 -15  -3   0    3.20    1.40
 -15   3   0    1.00    1.50
  15   3   0   -1.80    1.50
 -15  -3   0    0.80    1.10
 -15  -3   0   -1.40    2.00
 -15   3   0    3.30    2.90
  15  -3  -1  244.48   11.40
 -15   3  -1  254.47   13.40
  15   3   1  272.67   12.10
 -15   3  -1  258.77   11.30
  15  -3  -1  267.97   13.10
 -15  -3   1  264.17   12.60
 -15  -3   1  233.38    9.70
 -15  -3   1  234.98    9.50
 -15   3   1  245.28   11.30
  15   3  -1  255.17    9.90
  15  -3   1  256.67   13.40
 -15  -3  -1  252.97    8.60
 -15   3   1  216.88   12.30
 -15  -3  -1  249.58   11.60
  15  -3  -2    3.40    2.90
 -15  -3   2    1.80    0.90
 -15  -3   2    1.40    1.50
  15  -3  -2    2.60    1.70
 -15  -3   2   -1.40    2.40
 -15   3  -2    0.40    1.40
  15   3   2    0.00    2.20
 -15   3  -2    1.70    2.10
 -15  -3  -2    1.10    1.90
  15  -3   2    1.90    2.80
 -15  -3  -2    2.80    1.30
 -15   3   2    0.20    1.20
 -15   3   2   -0.80    2.70
  15  -3  -3  165.88    9.20
 -15  -3   3  164.18    8.20
  15   3   3  191.08   11.00
  15  -3  -3  175.48    9.70
 -15  -3   3  178.38   11.20
 -15   3  -3  181.88    8.80
 -15   3  -3  164.18    9.20
 -15   3   3  163.38   11.00
 -15  -3  -3  167.08    8.30
  15  -3   3  176.58   11.20
 -15  -3  -3  167.48    8.20
  15  -3   3  170.48    8.10
 -15   3  -4  149.09    9.40
 -15   3  -4  145.99    8.50
  15   3   4  142.39   10.10
  15  -3  -4  140.79    8.60
 -15  -3   4  145.79   10.40
  15  -3  -4  144.19    8.40
 -15  -3   4  138.09    7.70
 -15   3  -4  139.89    7.10
 -15  -3  -4  134.59    6.60
 -15  -3  -4  140.09    6.40
 -15  -3  -4  157.68    7.00
  15  -3   4  155.18   10.90
  15  -3   4  141.39    6.50
 -15   3   4  126.19   10.20
 -15   3  -5  288.87   14.10
  15   3   5  293.87   16.10
 -15   3  -5  321.97   15.00
  15  -3  -5  299.77   13.70
 -15  -3   5  302.17   13.60
  15  -3  -5  320.67   14.10
 -15  -3   5  329.77   16.80
  15   3  -5  330.97   14.30
 -15  -3  -5  327.37   12.50
 -15   3   5  302.17   16.60
  15  -3   5  320.87   17.20
 -15   3  -6    5.10    3.10
 -15  -3   6    9.00    4.20
  15  -3  -6    2.00    2.30
  15   3   6    2.20    3.40
  15  -3  -6   -0.80    2.00
 -15   3   6    0.60    3.70
 -15  -3  -6    4.40    2.30
  15  -3   6    6.00    4.10
  15  -3  -7   25.80    4.70
  15  -3  -7   33.70    5.10
 -15  -3   7   43.00    7.20
 -15   3  -7   22.90    4.80
 -15   3   7   43.10    7.90
 -15  -3  -7   43.70    4.80
  15  -3   7   32.00    7.30
  15  -3  -8   31.80    4.50
 -15   3  -8   29.00    5.20
 -15  -3   8   28.60    6.00
  15  -3   8   31.90    7.00
 -15  -3  -8   37.30    7.90
 -15   3   8   23.90    6.10
 -15  -4   0    2.40    1.10
 -15   4   0    2.40    1.40
 -15  -4   0   -0.60    2.30
  15  -4   0   -1.50    2.60
 -15   4   0    0.20    2.80
 -15  -4   0    0.80    1.00
 -15  -4   1   10.60    1.80
 -15  -4   1    6.50    1.80
  15  -4  -1    6.20    2.90
 -15  -4   1    3.90    3.00
 -15   4  -1    6.70    3.20
  15  -4  -1    4.40    3.20
 -15   4  -1   10.40    2.20
 -15   4   1    5.80    3.80
 -15  -4  -1    8.60    2.90
  15  -4   1    1.40    2.80
 -15  -4  -1    4.80    1.20
 -15  -4   2  174.88   10.60
 -15   4  -2  187.58   10.20
 -15  -4   2  175.38    7.90
 -15   4  -2  171.78    9.20
  15  -4  -2  182.58   10.00
  15  -4  -2  186.08   10.70
  15  -4   2  184.88   11.80
 -15  -4  -2  183.38    6.80
 -15   4   2  165.58   11.20
 -15  -4  -2  172.38    9.00
 -15   4  -3    5.30    2.70
  15  -4  -3    8.80    3.60
  15  -4  -3    1.60    2.20
 -15   4  -3    4.50    3.10
 -15  -4   3    1.20    3.00
 -15  -4  -3    3.70    1.40
 -15   4   3    1.40    3.60
  15  -4   3    0.60    2.80
 -15  -4  -3    3.30    2.10
  15  -4  -4  134.09    8.80
  15  -4  -4  129.09    8.50
 -15  -4   4  133.89   10.10
 -15   4  -4  130.29    7.60
 -15  -4   4  114.99    7.00
 -15   4  -4  137.09    9.20
 -15  -4  -4  118.29    6.60
 -15  -4  -4  130.99    6.00
 -15  -4  -4  119.49    6.20
  15  -4   4  143.69   10.70
 -15   4   4  114.39   10.00
 -15  -4   5   11.70    2.90
 -15  -4   5    5.80    6.40
  15  -4  -5   14.10    3.80
 -15   4  -5   10.10    2.30
 -15   4  -5   10.00    3.70
  15  -4  -5   10.50    3.50
 -15   4   5   10.90    7.20
 -15  -4  -5    9.10    1.90
 -15  -4  -5   10.70    2.40
  15  -4   5    8.80    4.60
 -15  -4   6   84.69    9.10
  15  -4  -6   83.89    7.00
 -15   4  -6   78.19    7.40
  15  -4  -6   87.09    7.20
  15  -4   6  100.49   12.40
 -15  -4  -6   86.89    5.80
 -15   4   6   78.29    8.90
 -15   4  -7   -0.10    2.40
  15  -4  -7   -1.20    2.70
 -15  -4   7   -1.50    3.30
  15  -4   7    1.00    3.50
 -15  -4  -7   -1.10    1.70
 -15   4   7   -0.20    3.10
 -15   4  -8  117.89    9.20
 -15  -4   8  102.29    9.50
  15  -4  -8  107.59    7.60
 -15  -4  -8   96.09    7.30
 -15   4   8  106.69   10.30
  15  -4   8   90.79   12.10
 -15  -5   0    0.00    1.50
 -15  -5   0    0.50    2.50
 -15   5   0    3.90    3.20
 -15  -5   0    0.50    1.00
  15  -5   0   -1.00    3.10
 -15  -5   1   94.29    5.20
 -15  -5   1  100.49    5.10
 -15  -5   1  104.09    8.00
  15  -5  -1   91.39    8.20
 -15  -5   1  106.29    5.40
 -15   5  -1  104.59    8.30
 -15   5   1  105.19    8.70
 -15  -5  -1   94.99    7.00
  15  -5   1   85.39    8.70
  15  -5  -2    3.70    3.10
 -15  -5   2    1.80    1.50
 -15   5  -2    3.20    3.10
 -15  -5   2    1.60    3.00
  15  -5  -2    3.60    2.40
 -15  -5  -2    1.20    2.10
  15  -5   2   -3.90    2.50
 -15   5   2    3.60    3.50
  15  -5  -3   81.49    7.10
 -15   5  -3   83.29    7.20
 -15  -5   3   93.09    8.30
 -15  -5   3   90.19    5.70
  15  -5  -3   96.39    8.00
 -15   5  -3   85.09    7.60
 -15  -5  -3   85.99    6.20
 -15   5   3   90.69    8.80
  15  -5   3   82.59    8.50
  15  -5  -4   85.49    7.40
 -15  -5   4   86.89    5.90
 -15   5  -4   90.49    7.90
 -15   5  -4   74.19    6.40
  15  -5  -4   79.89    7.50
 -15   5   4  106.09   16.00
 -15  -5  -4   74.79    5.60
  15  -5   4   82.59    8.70
 -15  -5  -4   80.39    4.20
  15  -5  -5  233.08   12.30
  15  -5  -5  229.98   12.70
 -15  -5   5  227.68   14.40
 -15   5  -5  216.58   12.60
 -15   5  -5  193.48   10.20
 -15  -5  -5  221.78    9.00
  15  -5   5  235.18   14.70
 -15  -5  -5  214.78    9.40
 -15   5   5  236.58   14.80
  15  -5  -6   -1.80    2.20
 -15   5  -6    7.80    2.90
  15  -5  -6    1.30    2.90
 -15  -5   6    1.80    3.90
  15  -5   6   -0.30    2.90
 -15  -5  -6    1.90    1.80
 -15   5   6    0.30    3.70
  15  -5  -7   19.80    5.20
 -15   5  -7   18.90    4.60
 -15  -5   7   12.80    4.50
  15  -5  -7   19.30    4.30
  15  -5   7   18.20    5.90
 -15   5   7   31.40    6.60
 -15  -5  -7   13.00    3.60
 -15  -6   0   -0.50    1.50
 -15   6   0    2.20    3.60
  15  -6   0    3.90    3.40
 -15  -6   0    0.50    2.50
 -15  -6   0    0.60    1.00
 -15  -6   1   10.40    3.90
 -15   6  -1   11.40    4.30
 -15  -6   1   15.40    2.50
  15  -6  -1    9.80    4.20
 -15  -6   1   15.30    2.70
 -15   6   1    6.70    4.20
 -15  -6  -1   10.90    3.00
  15  -6   1    9.90    4.50
 -15  -6  -1    8.60    3.50
 -15  -6   2    1.20    1.40
 -15   6  -2    4.20    3.30
  15  -6  -2    3.30    2.80
 -15   6  -2    1.30    2.70
  15  -6  -2    0.50    3.00
 -15  -6   2   -0.30    3.10
 -15  -6  -2    1.40    2.30
 -15  -6  -2    2.10    2.40
 -15   6   2    1.30    3.40
  15  -6   2    1.20    3.30
  15  -6  -3    1.00    3.70
 -15  -6   3    3.00    1.80
 -15  -6   3   -0.50    3.10
  15  -6  -3    4.60    3.00
 -15   6  -3    3.60    2.90
 -15   6  -3    2.10    2.50
 -15   6   3    2.70    3.70
  15  -6   3   -1.30    2.30
 -15  -6  -3    1.00    2.10
 -15  -6  -3   -1.50    2.00
 -15   6  -4  189.48   11.40
  15  -6  -4  180.28   11.60
 -15   6  -4  192.48   11.20
  15  -6  -4  166.08   10.80
 -15  -6   4  173.98   12.20
 -15  -6  -4  165.98    9.20
 -15  -6  -4  173.78   11.00
  15  -6   4  178.08   12.80
 -15  -6  -4  171.98    6.70
 -15   6   4  189.38   13.30
 -15  -6   5    0.20    3.50
  15  -6  -5   -2.40    2.30
 -15   6  -5    3.10    2.20
  15  -6  -5   -2.30    2.30
 -15   6  -5    4.00    2.90
 -15  -6  -5   -2.70    1.50
 -15  -6  -5    0.00    2.80
  15  -6   5   -0.60    3.00
 -15   6   5   24.20    6.10
 -15  -6  -5    2.40    1.50
  15  -6  -6  102.49    8.80
  15  -6  -6   96.09    9.00
 -15   6  -6  102.29    8.90
 -15  -6   6   95.19   10.10
 -15   6   6  113.09   10.60
  15  -6   6   99.39   10.10
 -15  -6  -6  103.39    9.10
 -15  -6  -6   99.79    5.70
 -15   6  -7    7.90    6.70
  15  -6  -7    3.50    3.90
  15  -6  -7    2.70    2.50
 -15  -6   7    8.10    4.60
 -15   6   7    0.50    3.30
 -15  -6  -7   -1.70    2.80
 -15  -6  -7    1.60    1.70
  15  -6   7    6.80    5.70
 -15  -7   0    1.70    1.70
  15  -7   0    1.80    3.40
 -15   7   0   -0.50    3.80
 -15  -7   0   -0.60    5.20
 -15  -7   0    0.40    1.10
 -15   7  -1   63.39    9.20
 -15  -7   1   60.39    4.10
  15  -7  -1   57.29    8.10
 -15  -7   1   58.89    7.80
 -15  -7   1   56.99    4.40
 -15   7  -1   69.29    7.10
 -15   7   1   67.79    9.30
  15  -7   1   66.19    9.40
 -15  -7  -1   58.39    5.40
 -15  -7   2    1.50    1.40
 -15  -7   2   -0.90    3.40
  15  -7  -2   -0.30    2.70
  15  -7  -2   -0.10    3.00
 -15   7  -2    3.10    2.40
 -15   7  -2    1.90    3.30
  15  -7   2    4.30    4.40
 -15   7   2    1.60    3.80
 -15  -7  -2    6.30    2.70
  15  -7  -3   39.00    6.70
 -15   7  -3   36.30    6.70
 -15   7  -3   39.60    6.00
  15  -7  -3   38.20    7.30
 -15  -7   3   46.00    4.20
 -15  -7   3   51.29    8.00
 -15   7   3   41.70    8.20
 -15  -7  -3   46.70    6.60
  15  -7   3   43.60    8.60
  15  -7  -4   47.30    7.70
 -15   7  -4   41.60    6.30
 -15  -7   4   26.80    6.10
  15  -7  -4   43.60    7.20
 -15   7  -4   61.39    6.60
 -15   7   4   45.70    8.60
 -15  -7  -4   41.10    5.60
 -15  -7  -4   37.00    6.40
  15  -7   4   39.20    7.90
  15  -7  -5   73.79    7.50
 -15   7  -5   85.59    6.70
 -15   7  -5   97.69    8.70
  15  -7  -5   80.19    8.20
 -15  -7   5   85.19    9.00
 -15  -7  -5   82.59    5.90
 -15   7   5   78.49   10.60
 -15  -7  -5   75.99    4.30
  15  -7   5   70.89   10.00
 -15  -7  -5   76.19    7.90
  15  -7  -6   10.10    5.70
  15  -7  -6   -0.70    3.60
 -15  -7   6   -4.60    2.90
  15  -7   6    1.20    6.80
 -15   7   6    1.50    3.30
 -15  -7  -6    1.00    1.50
 -15  -7  -6    4.90    3.80
 -15  -8   0   -1.20    1.30
  15  -8   0   -1.60    3.20
 -15   8   0    3.90    4.20
 -15  -8   0    2.60    3.10
 -15  -8   1    1.60    3.30
 -15  -8   1    5.10    1.90
  15  -8  -1   -4.10    2.80
 -15   8  -1    2.60    3.90
 -15  -8  -1    1.10    1.70
 -15   8   1    6.50    4.70
  15  -8   1    4.90    3.80
  15  -8  -2   51.19    8.10
 -15   8  -2   62.59    9.30
 -15  -8   2   61.09    8.40
 -15  -8   2   68.29    4.90
 -15  -8  -2   75.59    6.60
  15  -8   2   51.49    8.80
 -15   8   2   65.59   10.00
  15  -8  -3    4.80    3.20
 -15  -8   3    1.30    3.50
  15  -8  -3    4.30    3.70
 -15   8  -3    4.40    3.30
  15  -8   3    3.40    4.00
 -15   8   3    1.40    4.10
 -15  -8  -3    5.70    2.70
  15  -8  -4   14.40    4.50
  15  -8  -4   24.40    5.60
 -15   8  -4   37.30    5.90
 -15  -8   4   35.50    9.90
 -15  -8  -4   23.60    4.40
 -15   8   4   38.70   11.20
  15  -8   4   42.50    8.10
 -15  -8  -4   31.50    5.70
  15  -9   0    6.50    5.10
 -15  -9   0    7.00    2.00
 -15  -9   0   -1.00    2.80
 -15   9   0    1.50    3.90
 -15   9  -1   18.80    6.00
 -15  -9   1   15.20    4.70
  15  -9   1   16.30    7.00
 -15  -9  -1   11.40    3.20
 -15   9   1   10.60    6.30
 -15   9  -2    8.60    4.20
 -15  -9   2    9.40    3.80
  15  -9  -2    2.20    3.20
  15  -9   2    0.10    3.80
 -15   9   2    5.30    4.50
 -15  -9  -2    4.20    1.80
 -16   0   0  460.45   16.00
 -16   0   0  436.06   17.00
  16   0   0  459.95   17.60
 -16   0  -1 1197.48   37.40
  16   0  -1 1173.98   37.50
 -16   0   1 1186.88   38.40
 -16   0   1 1134.69   37.10
 -16   0  -1 1168.58   36.50
  16   0   1 1332.37   43.80
 -16   0   1 1156.28   36.90
 -16   0  -2   32.50    4.00
 -16   0   2   34.50    4.50
 -16   0   2   30.40    4.90
  16   0  -2   36.30    4.50
 -16   0   2   32.70    2.90
  16   0  -2   28.00    2.80
  16   0   2   33.60    5.80
 -16   0  -2   30.50    3.40
 -16   0  -3   55.39    4.20
 -16   0   3   54.19    4.80
 -16   0  -3   56.89    4.80
  16   0  -3   61.79    4.40
 -16   0  -3   57.69    4.10
 -16   0   3   60.89    3.80
  16   0  -3   62.89    4.30
 -16   0   3   51.89    5.90
  16   0   3   45.60    6.50
 -16   0  -4  226.48    7.70
 -16   0  -4  245.78   11.20
 -16   0  -4  224.88    7.50
  16   0  -4  232.78    9.30
  16   0   4  247.38   14.00
 -16   0   4  258.97   12.90
  16   0  -4  234.58   10.10
 -16   0   4  222.78   11.10
 -16   0   5    6.90    1.60
  16   0  -5    5.60    2.10
  16   0   5    3.00    3.70
 -16   0   5    2.50    3.40
 -16   0  -5   -1.10    1.80
  16   0  -5    2.80    1.30
  16   0  -5    3.00    1.40
  16   0   6   14.60    8.20
  16   0  -6   21.40    3.50
 -16   0   6   18.50    5.10
 -16   0  -6   20.30    5.00
 -16   0  -7   10.40    3.50
 -16   0   7   13.40    4.70
  16   0   7   16.60    5.60
  16   0   8    1.80    3.30
 -16   0   8   10.40    4.50
 -16   0  -8    2.30    2.90
  16   1   0    8.60    2.90
  16  -1   0    7.10    2.70
 -16   1   0    9.20    3.00
 -16   1   0   12.10    2.60
 -16  -1   0   10.80    2.20
 -16  -1   0    7.30    2.70
 -16   1  -1   13.90    3.40
 -16  -1   1   13.70    2.60
  16  -1  -1   18.30    4.00
 -16  -1   1   14.30    2.40
 -16   1  -1   15.60    3.00
  16   1   1    9.50    3.40
 -16  -1   1   11.60    3.50
 -16  -1  -1   16.90    2.70
  16  -1   1   10.80    3.20
 -16   1   1   17.40    4.00
 -16  -1  -1   12.00    2.90
 -16   1   1   13.60    2.60
  16   1  -1   17.40    3.40
 -16  -1   2  710.23   22.90
  16   1   2  743.93   26.80
  16  -1  -2  700.53   23.80
 -16   1  -2  706.13   24.00
 -16  -1   2  708.13   25.80
 -16  -1   2  700.53   24.00
 -16   1  -2  728.93   24.50
  16  -1  -2  714.63   25.00
  16  -1   2  717.73   26.60
 -16   1   2  702.03   24.60
 -16  -1  -2  653.43   24.80
  16  -1   2  661.73   23.10
  16   1  -2  748.93   23.40
 -16  -1  -2  734.53   23.60
 -16   1   2  758.22   26.20
 -16  -1  -2  734.43   23.50
 -16   1  -3    0.60    1.60
 -16  -1   3    5.60    3.40
  16  -1  -3    2.20    2.20
  16   1   3    1.50    2.90
 -16  -1   3    1.70    1.70
 -16  -1   3    2.10    0.90
  16  -1  -3    3.40    2.90
 -16   1  -3    1.90    1.70
 -16  -1  -3    0.90    1.40
 -16   1   3    1.10    2.80
  16   1  -3    3.50    1.30
  16   1  -3    2.70    1.40
 -16  -1  -3    7.30    1.80
 -16   1   3    4.90    1.90
  16  -1   3    4.90    3.10
  16  -1  -4   13.10    2.80
 -16  -1   4   16.70    3.40
 -16   1  -4   10.60    1.70
 -16   1  -4    9.70    3.10
  16   1   4   16.10    5.10
  16  -1  -4    9.60    2.80
 -16  -1   4    9.40    3.90
 -16   1   4   10.20    1.90
 -16  -1  -4   11.40    3.00
 -16   1   4   14.20    4.40
  16  -1   4   19.60    5.30
 -16   1   4   15.30    3.70
  16   1  -4   13.80    2.40
  16   1   5   15.00    5.20
 -16  -1   5   24.00    5.50
  16  -1  -5   17.10    3.30
  16  -1  -5   21.70    3.70
 -16   1  -5   14.90    3.60
 -16  -1   5   13.70    2.60
  16  -1   5    9.90    4.10
 -16   1   5   23.00    5.30
 -16  -1  -5   15.00    3.40
 -16   1  -6   10.70    4.00
  16  -1  -6   11.40    2.50
  16   1   6    4.30    3.50
  16  -1  -6    8.40    2.60
  16  -1   6    7.70    4.00
 -16   1   6   21.00    9.50
 -16  -1  -6    5.40    2.80
  16  -1  -7   18.90    3.10
  16   1   7   11.90    4.80
 -16  -1   7   11.80    4.60
 -16   1  -7    5.80    2.90
  16  -1   7   14.00    5.10
 -16  -1  -7   15.20    4.00
 -16   1   7   15.10    5.30
 -16   1  -8   36.90    5.80
  16   1   8   33.30    6.90
 -16  -1   8   39.30    7.00
 -16  -1  -8   36.60    5.60
 -16   1   8   44.80    8.20
  16  -1   8   33.50    6.90
  16   2   0 1152.68   37.00
 -16   2   0 1139.39   37.90
 -16  -2   0 1201.38   34.80
 -16  -2   0 1164.68   38.10
 -16   2   0 1160.58   36.60
  16  -2   0 1191.78   38.90
 -16  -2   0 1060.99   36.20
  16   2   1  583.44   23.10
  16  -2  -1  661.63   24.50
 -16  -2   1  630.64   21.10
 -16  -2   1  664.73   24.50
 -16  -2   1  630.04   21.00
 -16   2  -1  642.04   22.20
 -16   2  -1  614.74   22.90
 -16  -2  -1  646.04   20.30
  16  -2   1  663.23   24.40
 -16  -2  -1  665.63   23.20
 -16   2   1  661.73   24.20
  16   2  -1  626.34   21.60
 -16   2   1  656.63   22.70
  16   2   2   -0.10    2.30
  16  -2  -2    3.10    1.90
 -16  -2   2    0.90    2.80
 -16  -2   2    2.60    1.10
 -16  -2   2    0.70    1.40
 -16   2  -2    3.90    1.80
  16  -2  -2   -0.80    2.10
 -16   2  -2   -0.30    1.90
 -16  -2  -2    0.50    1.30
 -16  -2  -2    0.40    1.30
  16  -2   2   -1.60    2.40
 -16   2   2    2.70    1.90
 -16   2   2   -0.50    2.60
  16   2  -2    2.10    1.50
 -16  -2  -2    0.60    1.70
 -16  -2   3  241.68   13.00
 -16  -2   3  231.28   10.50
  16   2   3  217.68   12.60
 -16   2  -3  237.88   11.50
  16  -2  -3  252.97   11.10
 -16   2  -3  232.78   10.20
  16  -2  -3  250.67   13.30
 -16  -2  -3  217.68   10.90
 -16   2   3  250.07   13.20
  16  -2   3  231.58   13.10
 -16  -2  -3  232.68    9.60
  16  -2   3  255.77   11.30
  16  -2  -4   45.70    5.60
  16   2   4   27.10    5.40
 -16  -2   4   39.20    5.00
 -16   2  -4   29.90    5.00
 -16  -2   4   43.30    6.60
 -16   2  -4   40.60    5.30
  16  -2  -4   37.30    5.10
 -16   2  -4   33.40    2.90
 -16  -2  -4   34.00    2.50
 -16  -2  -4   35.20    3.80
 -16   2   4   45.70    7.00
  16  -2   4   37.80    7.00
 -16  -2  -4   36.10    2.60
  16  -2  -5   -0.40    2.10
 -16   2  -5    0.10    1.20
 -16   2  -5    0.30    2.50
 -16  -2   5    3.50    1.60
  16  -2  -5    1.10    2.00
 -16  -2   5    4.10    3.60
  16   2   5   -1.60    2.60
  16  -2   5    5.20    3.70
 -16   2   5   -2.50    3.10
 -16  -2  -5   -2.60    1.60
  16   2  -5    1.40    1.60
  16   2   6    2.80    3.60
 -16   2  -6    0.40    2.50
  16  -2  -6    1.80    2.30
 -16  -2   6    6.40    3.80
  16  -2  -6   -0.10    1.70
 -16  -2  -6    4.40    2.40
  16  -2   6    4.50    4.00
 -16   2   6    3.90    3.90
  16  -2  -7   41.20    6.10
 -16  -2   7   65.29    8.70
 -16   2  -7   44.30    6.30
  16  -2  -7   49.00    4.50
  16  -2   7   30.10    6.70
 -16  -2  -7   46.10    5.30
 -16   2   7   44.60    7.90
 -16  -2   8    2.30    3.30
 -16   2  -8    0.80    2.50
 -16   2   8   -1.20    3.60
 -16  -2  -8    2.00    2.50
  16  -2   8   -0.50    3.00
  16  -3   0   16.30    4.60
  16   3   0   22.70    3.90
 -16   3   0   11.40    2.40
 -16  -3   0   16.10    2.30
 -16   3   0   12.10    3.90
 -16  -3   0   18.50    3.10
 -16  -3   0   17.20    3.90
 -16   3  -1    7.50    3.30
  16  -3  -1    7.10    3.40
 -16  -3   1    7.70    3.50
 -16  -3   1   10.70    1.90
 -16  -3   1   14.10    2.50
 -16   3  -1    8.30    2.40
 -16   3   1    2.70    3.30
 -16   3   1    8.90    2.70
  16   3  -1    7.10    2.20
 -16  -3  -1    7.70    1.60
  16  -3   1   11.20    4.20
 -16  -3  -1    7.70    2.90
 -16   3  -2  551.54   20.10
 -16   3  -2  487.65   19.40
 -16  -3   2  511.75   18.20
  16  -3  -2  570.94   21.50
  16   3   2  525.75   21.00
  16  -3  -2  530.55   20.00
 -16  -3   2  562.34   22.20
 -16  -3   2  515.85   16.40
 -16   3   2  522.05   21.90
 -16   3   2  493.55   19.90
 -16  -3  -2  521.25   16.90
 -16  -3  -2  546.95   19.70
  16  -3   2  550.24   22.20
  16  -3  -3    0.10    2.50
 -16   3  -3    2.70    2.20
 -16  -3   3   -0.80    3.10
 -16   3  -3    2.10    1.50
 -16  -3   3    3.80    1.80
  16   3   3    3.40    3.30
  16  -3  -3    2.10    1.90
  16  -3   3   -2.00    2.10
 -16   3   3    0.60    3.30
 -16  -3  -3    3.20    2.10
 -16  -3   4    9.30    2.40
  16  -3  -4    4.60    2.80
 -16   3  -4    7.40    2.30
  16  -3  -4    8.00    3.00
 -16   3  -4   10.00    3.50
 -16   3  -4    8.90    2.10
 -16  -3   4    7.20    4.10
  16   3   4    8.60    3.60
 -16  -3  -4    6.30    2.20
  16  -3   4    7.50    1.70
 -16   3   4   10.30    4.90
 -16  -3  -4    5.30    1.90
  16  -3   4    7.60    4.20
 -16  -3   5   15.60    3.10
  16  -3  -5   13.20    3.60
  16   3   5   13.70    4.90
  16  -3  -5    7.00    2.70
 -16  -3   5   13.90    4.90
 -16   3  -5    9.00    3.50
  16  -3   5    3.10    3.30
 -16   3   5    7.40    4.30
 -16  -3   6    4.60    4.10
 -16   3  -6    6.10    3.10
  16   3   6    6.40    3.90
  16  -3  -6    8.60    3.00
  16  -3  -6    7.30    3.10
  16  -3   6    8.80    4.80
 -16  -3  -6    7.30    2.50
 -16   3   6    8.00    4.90
  16  -3  -7    4.10    3.80
 -16  -3   7   11.90    4.80
 -16   3  -7   14.00    4.00
  16  -3  -7   14.70    3.70
 -16   3   7   15.60    5.50
 -16  -3  -7   16.10    3.70
  16  -3   7   16.20    5.60
  16  -3  -8   33.50    4.80
 -16   3  -8   47.80    6.80
 -16  -3   8   33.50    6.30
  16  -3   8   37.30    7.50
 -16  -3  -8   33.00    5.10
 -16   3   8   28.40    6.60
 -16   4   0  223.28   12.40
 -16  -4   0  233.28   11.70
  16  -4   0  230.58   13.40
 -16  -4   0  215.18    8.30
 -16  -4   1  650.83   24.40
 -16   4  -1  609.94   24.00
 -16  -4   1  622.54   20.40
  16  -4  -1  688.93   25.80
 -16   4  -1  650.33   24.40
 -16  -4   1  589.24   20.80
 -16   4   1  603.64   25.00
  16  -4   1  642.14   26.20
 -16  -4  -1  653.23   19.20
 -16  -4  -1  638.54   23.20
 -16  -4   2   20.30    3.10
 -16   4  -2   22.20    4.50
  16  -4  -2   16.10    3.60
 -16  -4   2   24.10    5.10
  16  -4  -2   19.30    4.60
 -16   4  -2   20.40    4.50
  16  -4   2   18.10    5.00
 -16   4   2   13.50    4.50
 -16  -4  -2   20.10    1.80
 -16  -4  -2   19.80    3.90
 -16   4  -3   48.30    5.90
 -16  -4   3   33.80    3.70
  16  -4  -3   41.00    6.00
  16  -4  -3   44.30    6.20
 -16  -4   3   28.80    6.00
 -16   4   3   43.90    7.30
 -16  -4  -3   42.00    3.00
  16  -4   3   31.10    6.00
 -16  -4   4  156.18    8.50
 -16  -4   4  155.08   11.50
 -16   4  -4  166.08   10.50
 -16   4  -4  155.18    8.50
  16  -4  -4  140.49    9.50
  16  -4  -4  167.18    9.70
 -16  -4  -4  145.99    7.80
 -16  -4  -4  163.68    7.00
 -16   4   4  129.09   10.90
  16  -4   4  154.38   11.40
 -16   4  -5    2.90    1.50
 -16  -4   5   -0.60    3.90
  16  -4  -5   -0.20    2.40
 -16   4  -5    5.10    3.20
  16  -4  -5    3.20    2.70
 -16  -4  -5    2.40    1.30
 -16   4   5    1.20    3.50
 -16  -4  -5    3.60    1.90
  16  -4   5    1.60    4.00
  16  -4  -6   13.50    4.00
 -16  -4   6   13.90    4.80
 -16   4  -6   11.90    3.90
  16  -4  -6   12.70    3.80
 -16   4   6   29.20    6.60
 -16  -4  -6   12.20    3.00
  16  -4   6   10.90    5.20
 -16  -4   7    7.30    4.20
  16  -4  -7   -2.40    3.50
  16  -4  -7   16.10    3.20
 -16   4  -7    4.90    3.10
  16  -4   7   13.50    5.70
 -16   4   7    7.30    4.80
 -16  -4  -7   12.40    3.30
 -16  -4   8   -0.70    3.40
 -16   4  -8   16.40    4.70
  16  -4  -8    9.40    3.10
  16  -4   8   -0.80    3.60
 -16   4   8   12.20    4.70
 -16  -4  -8    8.70    2.60
 -16   5   0    6.70    3.70
 -16  -5   0    5.90    1.50
 -16  -5   0    4.10    3.00
 -16  -5   0    2.90    2.00
  16  -5   0   10.00    4.70
  16  -5  -1    8.00    3.90
 -16   5  -1    8.40    3.90
 -16  -5   1    6.10    2.00
 -16  -5   1    5.70    3.30
 -16  -5   1    3.70    1.60
 -16  -5  -1    3.90    2.90
  16  -5   1    3.20    4.10
 -16   5   1    5.30    3.80
  16  -5  -2  324.97   16.10
  16  -5  -2  323.57   15.10
 -16  -5   2  320.97   15.80
 -16   5  -2  315.57   15.50
 -16  -5   2  326.87   12.50
 -16  -5  -2  322.07   14.20
  16  -5   2  330.47   17.50
 -16   5   2  321.17   16.90
 -16  -5   3    1.80    3.30
 -16   5  -3    4.00    3.50
 -16   5  -3    6.50    3.40
  16  -5  -3    9.00    3.70
  16  -5  -3    8.60    3.40
 -16  -5   3    5.30    2.00
 -16   5   3    3.40    3.80
  16  -5   3    6.30    3.80
 -16  -5  -3    7.30    2.60
 -16   5  -4    5.00    3.50
  16  -5  -4    4.20    2.90
 -16  -5   4    5.30    2.00
 -16  -5   4    1.90    3.60
  16  -5  -4    3.00    3.10
 -16   5  -4    4.30    2.60
 -16   5   4    0.40    3.60
  16  -5   4    2.10    3.80
 -16  -5  -4    5.50    1.80
 -16  -5  -4    5.30    2.30
  16  -5  -5    2.60    2.60
 -16   5  -5   11.50    3.10
 -16   5  -5    2.30    2.70
 -16  -5   5    9.10    5.20
  16  -5   5    6.00    4.40
 -16  -5  -5    9.30    2.00
 -16  -5  -5    8.10    2.10
 -16   5   5    9.10    5.10
  16  -5  -6    1.50    2.80
 -16  -5   6    2.90    4.10
 -16   5  -6    1.20    4.60
  16  -5  -6    0.00    2.80
 -16   5   6    1.50    4.50
  16  -5   6   -1.00    2.80
 -16  -5  -6   -0.30    1.60
  16  -5  -7    7.40    3.20
 -16  -5   7   13.90    4.40
 -16   5  -7    5.20    3.10
 -16   5   7   12.90    4.80
 -16  -5  -7    9.60    2.60
  16  -5   7    6.70    4.70
  16  -6   0  419.16   20.30
 -16  -6   0  390.06   15.20
 -16  -6   0  391.16   17.60
 -16   6   0  394.56   19.20
 -16  -6   0  393.46   13.00
 -16  -6   1  192.28    8.10
 -16   6  -1  183.88   12.20
 -16  -6   1  192.78   11.60
  16  -6  -1  190.98   12.70
 -16  -6   1  167.08    7.90
 -16  -6  -1  189.88    9.80
 -16  -6  -1  190.98   10.90
 -16   6   1  198.08   12.90
  16  -6   1  167.08   14.20
  16  -6  -2    1.50    2.60
 -16   6  -2   -2.20    2.70
 -16  -6   2    0.80    4.10
  16  -6  -2    0.70    3.50
 -16   6  -2    3.20    3.30
 -16  -6   2    1.00    1.20
 -16  -6  -2    6.50    3.10
 -16  -6  -2   -1.50    1.90
  16  -6   2   -0.50    3.10
 -16   6   2   -3.50    3.50
 -16   6  -3  112.59    8.90
 -16  -6   3   98.09    6.20
  16  -6  -3   98.89    8.80
  16  -6  -3   96.09    8.20
 -16   6  -3   94.29    8.40
 -16  -6   3  104.39    9.30
 -16  -6  -3   87.69    6.90
 -16  -6  -3   97.99    7.90
 -16   6   3  107.99   10.20
  16  -6   3  128.09   10.70
  16  -6  -4   13.20    4.50
 -16   6  -4   10.70    3.70
 -16  -6   4   17.00    5.40
 -16   6  -4   18.40    4.20
 -16  -6  -4   13.00    3.20
 -16   6   4   14.40    5.50
 -16  -6  -4    6.70    3.50
  16  -6   4    8.70    4.40
 -16  -6   5    5.30    3.90
 -16   6  -5    5.40    2.50
 -16   6  -5    6.20    3.40
  16  -6  -5    2.20    2.90
  16  -6  -5    1.00    2.80
 -16  -6  -5    1.60    1.40
 -16   6   5    3.00    4.00
 -16  -6  -5   -3.40    2.50
  16  -6   5   -1.80    2.90
 -16  -6  -5    6.30    1.80
 -16  -6   6    1.30    3.70
 -16   6  -6    4.80    3.00
  16  -6  -6    6.00    3.20
  16  -6  -6    8.00    4.50
 -16  -6  -6    2.10    1.50
  16  -6   6    4.90    3.50
 -16  -6  -6    2.30    3.20
 -16   6   6    1.80    4.30
  16  -7   0   14.40    5.80
 -16  -7   0   11.90    4.00
 -16  -7   0   14.20    3.10
 -16  -7   0   11.00    1.90
 -16   7   0   17.80    5.40
  16  -7  -1   -2.30    2.90
 -16  -7   1    0.00    1.10
 -16   7  -1    2.70    3.60
 -16  -7   1   -2.40    2.70
 -16  -7   1    2.60    1.50
 -16   7   1    0.60    3.30
  16  -7   1    4.30    4.40
 -16  -7  -1    3.00    1.90
 -16  -7  -1    8.00    3.50
  16  -7  -2  134.69   10.90
 -16   7  -2  125.09    9.60
 -16  -7   2  139.79   10.60
 -16  -7   2  137.79    7.30
 -16   7   2  135.29   11.60
  16  -7   2  129.09   11.70
 -16  -7  -2  129.69    8.80
 -16  -7  -2  158.78   14.10
 -16   7  -3   -0.50    3.00
  16  -7  -3    0.40    2.70
 -16   7  -3    2.20    3.50
 -16  -7   3   -0.40    3.40
  16  -7  -3   -1.20    3.30
 -16   7   3    1.10    3.80
 -16  -7  -3    1.70    2.40
 -16  -7  -3    1.40    2.10
  16  -7   3   -0.30    3.60
  16  -7  -4    0.40    2.70
 -16  -7   4    8.40    4.60
  16  -7  -4    1.00    2.90
 -16   7  -4    2.80    2.70
 -16   7  -4    5.00    3.40
 -16   7   4   -3.10    3.40
  16  -7   4   -1.40    2.80
 -16  -7  -4   -2.20    2.10
 -16  -7  -4    3.40    2.10
 -16  -7   5   -1.40    2.90
  16  -7  -5   -0.30    3.20
  16  -7  -5    6.70    3.20
 -16  -7  -5    1.40    2.60
 -16  -7  -5    1.70    1.90
  16  -7   5    4.20    4.00
 -16  -7  -5    0.30    1.10
 -16   7   5    1.10    3.80
 -16  -8   0   29.50    5.90
 -16   8   0   38.60    7.70
  16  -8   0   27.50    6.70
 -16  -8   0   36.20    3.70
 -16   8  -1  150.28   12.20
 -16  -8   1  121.79   10.10
  16  -8  -1  134.29   11.50
 -16  -8  -1  122.79    8.00
 -16  -8  -1  130.19    9.90
 -16   8   1  124.79   11.80
  16  -8   1  118.49   11.60
 -16  -8   2    5.50    4.10
  16  -8  -2    0.40    3.30
 -16   8  -2    3.20    3.80
 -16  -8  -2    2.00    3.00
  16  -8   2    5.60    4.20
 -16   8   2    9.00    4.90
 -16  -8  -2   19.00    4.00
 -16   8  -3   22.00    5.20
  16  -8  -3   11.30    4.50
  16  -8  -3    6.60    4.10
 -16  -8   3   12.90    4.60
  16  -8   3    8.50    4.40
 -16  -8  -3    9.30    3.10
 -16  -8  -3   13.90    3.70
 -16   8   3   11.90    5.50
 -16   8  -4   47.50    7.10
  16  -8  -4   49.40    9.40
  16  -8  -4   28.80    5.80
 -16  -8   4   43.70    7.80
 -16  -8  -4   43.50    4.70
  16  -8   4   45.70    9.60
 -16   8   4   46.10    8.60
 -16  -8  -4   54.19    7.80
  16  -9   0    5.50    4.20
  16  -9  -1    4.80    4.10
 -16  -9   1    6.90    3.70
 -16   9  -1    9.30    4.80
  16  -9   1   -1.60    3.10
 -16  -9  -1   -0.10    2.90
 -16   9   1    4.80    3.90
 -16  -9  -1    2.40    1.90
 -16   9  -2   69.09   12.00
  16  -9  -2   53.09    8.20
 -16  -9   2   65.79    9.30
 -16  -9  -2   47.30    7.30
 -16   9   2   48.30    9.10
  16  -9   2   64.39    9.50
 -16  -9  -2   71.19    6.00
 -17   0   0    4.00    2.40
  17   0   0    3.00    2.40
 -17   0   0    1.40    1.50
 -17   0  -1  298.67   12.40
  17   0   1  309.97   13.90
 -17   0  -1  281.67   11.50
 -17   0   1  288.17   13.20
 -17   0   1  280.47   11.80
  17   0  -1  287.77   12.50
 -17   0   2   37.90    3.90
 -17   0  -2   34.50    3.80
  17   0   2   43.00    6.60
 -17   0   2   36.80    3.20
 -17   0   2   36.20    5.50
  17   0  -2   39.70    4.10
 -17   0  -2   35.40    3.90
  17   0  -3   63.09    4.60
 -17   0  -3   62.19    5.00
 -17   0   3   64.39    5.40
 -17   0  -3   67.29    4.70
 -17   0  -3   61.49    4.40
  17   0   3   74.89    7.40
 -17   0   3   62.69    6.30
  17   0  -3   60.09    4.50
  17   0  -4   71.79    5.00
 -17   0   4   73.49    5.60
  17   0   4   72.89    7.90
 -17   0  -4   73.99    6.00
  17   0  -4   70.29    4.50
 -17   0   4   72.59    4.00
 -17   0   4   72.19    6.90
 -17   0   5   60.79    7.90
 -17   0   5   68.19    5.60
  17   0   5   62.19    9.00
  17   0  -5   60.19    5.10
 -17   0  -5   63.39    5.90
  17   0  -5   70.19    3.80
  17   0  -5   66.59    3.80
 -17   0   6  171.08   11.60
  17   0   6  180.88   13.10
 -17   0  -6  162.48    9.90
 -17   0  -7   23.10    4.70
 -17   0   7   20.50    5.80
  17   0   7   12.30    5.50
  17   0   8   32.90    8.20
 -17   0   8   21.00    5.70
 -17   0  -8   21.30    4.80
 -17  -1   0    6.20    2.80
  17   1   0   -0.10    2.10
 -17   1   0   -0.50    2.20
 -17   1   0   -0.10    1.10
 -17  -1   0   -0.40    1.20
  17  -1   0   -0.90    1.80
  17   1   1  122.99    8.10
 -17   1  -1  109.59    6.40
 -17   1  -1  129.99    7.60
 -17  -1   1  114.29    6.10
 -17  -1   1  117.89    6.40
 -17  -1   1  122.19    8.00
  17  -1  -1  109.29    7.40
  17   1  -1  116.79    6.90
  17  -1   1  104.39    7.90
 -17  -1  -1  106.59    5.80
 -17   1   1  114.39    6.70
 -17   1   1  109.79    7.70
 -17  -1  -1  105.19    6.70
 -17  -1   2  128.69    6.20
  17  -1  -2  127.09    6.90
  17  -1  -2  113.99    7.70
 -17   1  -2  133.79    7.50
  17   1   2  134.29    9.10
 -17  -1   2  120.09    7.00
 -17   1  -2  133.39    7.50
 -17  -1   2  123.79    8.50
 -17  -1  -2  123.09    7.60
 -17  -1  -2  127.79    6.90
 -17   1   2  133.69    8.80
 -17   1   2  135.49    7.70
 -17  -1  -2  134.09    6.80
  17   1  -2  129.09    6.70
  17  -1   2  132.79    9.20
  17  -1  -3  358.06   14.30
 -17   1  -3  372.46   15.20
 -17  -1   3  338.67   12.20
 -17  -1   3  385.26   16.60
 -17  -1   3  339.57   14.60
 -17   1  -3  365.76   13.70
  17  -1  -3  377.46   15.10
  17   1   3  372.36   17.50
 -17  -1  -3  346.37   14.00
  17   1  -3  359.46   12.80
 -17  -1  -3  365.36   14.10
  17   1  -3  370.06   12.80
  17  -1   3  394.86   17.80
 -17  -1  -3  364.36   13.20
 -17   1   3  353.76   15.20
 -17   1   3  378.46   16.80
  17   1   4   64.99    8.60
 -17   1  -4   70.89    6.20
  17  -1  -4   58.09    5.30
 -17   1  -4   67.19    5.60
 -17  -1   4   58.59    6.60
 -17  -1   4   74.99    5.70
 -17   1  -4   62.59    3.60
 -17   1  -4   64.79    3.40
 -17   1   4   64.79    6.10
 -17  -1  -4   62.09    3.20
 -17  -1  -4   64.39    5.30
 -17   1   4   70.69    7.10
 -17  -1  -4   60.59    3.20
  17  -1   4   77.79    8.00
  17   1  -4   55.69    4.10
 -17   1  -5  265.57   12.80
  17   1   5  234.58   14.70
 -17  -1   5  249.28   13.70
  17  -1  -5  259.97   11.10
  17  -1  -5  236.38   11.20
 -17  -1   5  224.78   11.70
 -17  -1  -5  242.88   11.60
  17  -1   5  263.17   15.40
  17   1  -5  240.88   10.60
 -17   1   5  271.37   14.50
  17  -1  -6   77.29    5.10
 -17  -1   6   70.19    7.80
 -17   1  -6   72.19    6.90
  17   1   6   73.49   10.50
  17  -1  -6   59.09    6.20
  17  -1   6   77.09   10.60
 -17   1   6   70.19    8.80
 -17  -1  -6   70.09    6.30
 -17   1  -7  116.59    8.80
  17   1   7   98.59   10.30
 -17  -1   7  106.49    9.60
  17  -1   7   91.09   10.10
 -17   1   7  110.89   10.20
 -17  -1  -7  126.69    8.50
 -17  -1   8    9.50    4.50
  17   1   8    9.10    4.30
 -17   1  -8   17.90    4.40
 -17  -1  -8   10.50    4.30
 -17   1   8   12.70    5.00
  17  -1   8    5.90    4.10
 -17  -2   0    0.50    1.30
 -17  -2   0    1.40    2.30
 -17   2   0   -2.10    2.20
  17  -2   0    0.00    2.20
  17   2   0    0.50    2.10
 -17   2   0    1.80    1.60
 -17  -2   1    8.50    2.20
  17  -2  -1    9.70    3.60
 -17   2  -1    7.50    3.30
  17   2   1   13.00    3.80
 -17   2  -1    9.80    2.60
 -17  -2   1   14.10    4.00
 -17  -2   1    9.30    1.80
 -17  -2  -1    7.50    3.40
 -17  -2  -1    8.80    2.00
 -17   2   1   11.50    3.90
  17   2  -1   10.50    2.80
 -17   2   1    6.70    2.00
  17  -2   1    3.40    2.60
 -17   2  -2   48.40    4.70
  17  -2  -2   48.90    4.70
 -17  -2   2   52.29    4.40
  17   2   2   41.60    6.00
  17  -2  -2   56.69    6.00
 -17  -2   2   60.89    3.50
 -17  -2   2   51.09    6.80
 -17   2  -2   52.79    5.20
 -17  -2  -2   59.09    4.00
 -17   2   2   56.29    5.00
 -17  -2  -2   49.80    4.50
 -17   2   2   57.59    6.20
  17   2  -2   52.79    3.80
  17  -2   2   58.89    6.50
 -17   2  -3  129.99    7.90
  17   2   3  116.39    9.20
 -17   2  -3  127.29    7.10
  17  -2  -3  135.19    7.80
 -17  -2   3  135.49    7.50
  17  -2  -3  128.89    8.50
 -17  -2   3  132.19    9.50
 -17   2   3  136.79    9.60
 -17  -2  -3  123.79    6.80
  17  -2   3  112.39    6.00
  17  -2   3  126.29    9.60
 -17   2   3  117.79    7.50
 -17  -2  -3  124.29    6.40
 -17   2  -4   53.89    5.90
 -17   2  -4   59.99    5.50
 -17  -2   4   56.29    7.60
 -17  -2   4   60.79    5.20
  17  -2  -4   66.99    6.00
  17   2   4   45.90    7.20
 -17   2  -4   60.69    3.90
 -17  -2  -4   61.39    3.50
  17  -2   4   45.50    6.90
 -17  -2  -4   57.49    4.80
 -17   2   4   76.79    9.10
 -17  -2  -4   65.59    3.60
 -17   2  -5    2.80    2.90
 -17  -2   5    6.80    3.90
 -17  -2   5    7.90    2.70
  17   2   5    0.00    3.00
  17  -2  -5    8.50    3.20
  17  -2  -5    3.70    2.40
 -17   2   5    9.30    4.40
  17  -2   5    4.60    4.10
  17   2   6  121.89   11.00
  17  -2  -6  113.59    7.40
 -17  -2   6  123.99    9.90
  17  -2  -6  118.19    8.00
 -17   2  -6  130.49    9.30
 -17  -2  -6  128.99    8.00
  17  -2   6  130.19   11.40
 -17   2   6  132.09   10.80
 -17  -2   7   36.90    7.00
 -17   2  -7   32.70    5.90
  17  -2  -7   26.50    4.50
  17   2   7   24.60    6.10
  17  -2   7   38.00    8.30
 -17   2   7   35.20    6.90
 -17  -2  -7   30.60    4.90
 -17   2  -8   29.70    5.60
  17   2   8   17.40    7.60
 -17  -2   8   28.90    6.20
 -17   2   8   17.70    5.90
 -17  -2  -8   24.50    4.80
  17  -2   8   19.70    6.10
 -17  -3   0    0.10    2.50
 -17  -3   0    0.00    1.10
  17  -3   0   -3.30    2.50
  17   3   0    1.40    2.10
 -17   3   0    0.40    1.20
 -17   3   0   -2.30    2.40
 -17  -3   1   88.39    7.70
  17   3   1   75.39    6.50
 -17  -3   1   62.29    4.70
 -17   3  -1   83.99    7.10
  17  -3  -1   85.69    7.80
 -17  -3   1   75.69    4.90
 -17   3  -1   66.59    5.40
 -17   3   1   75.99    7.30
 -17   3   1   75.09    7.50
 -17  -3  -1   88.69    7.00
  17   3  -1   78.79    5.10
 -17  -3  -1   85.09    4.20
  17  -3   1   84.19    7.70
 -17  -3   2   70.29    5.00
  17  -3  -2   69.09    7.00
 -17  -3   2   66.69    7.40
 -17   3  -2   70.79    5.50
  17   3   2   67.59    6.80
 -17  -3   2   80.99    3.70
  17  -3  -2   79.29    6.10
 -17   3  -2   79.69    6.40
 -17   3   2   57.89    7.70
 -17  -3  -2   78.09    4.20
 -17  -3  -2   74.79    7.00
 -17   3   2   81.59    5.90
  17  -3   2   79.29    7.60
  17  -3  -3  268.77   13.50
 -17  -3   3  274.77   15.00
  17   3   3  231.38   13.60
 -17   3  -3  272.87   12.60
 -17  -3   3  261.77   11.60
 -17   3  -3  295.37   12.40
  17  -3  -3  265.57   12.60
 -17   3   3  263.37   14.70
 -17  -3  -3  276.97   11.80
  17  -3   3  264.37   14.70
  17  -3  -4   58.89    6.10
 -17  -3   4   65.69    5.20
 -17  -3   4   51.49    7.80
 -17   3  -4   57.49    4.50
  17  -3  -4   64.19    5.90
  17   3   4   53.79    7.90
 -17   3  -4   68.19    6.90
 -17  -3  -4   53.69    3.90
  17  -3   4   66.49    4.90
  17  -3   4   90.59   10.60
 -17  -3  -4   56.89    3.70
 -17   3   4   56.89    8.40
 -17  -3  -4   58.99    4.50
  17  -3  -5  184.98   10.40
 -17  -3   5  182.68   12.30
 -17   3  -5  190.08   11.50
  17   3   5  219.38   17.80
  17  -3  -5  168.38   10.00
  17  -3   5  211.68   13.60
 -17   3   5  183.68   12.90
 -17  -3  -5  198.48    9.20
 -17  -3   6   60.99    8.40
 -17   3  -6   59.69    6.70
  17  -3  -6   59.59    7.20
  17  -3  -6   51.49    5.60
  17   3   6   66.89    9.70
  17  -3   6   81.09   10.80
 -17   3   6   66.59    9.60
 -17  -3  -6   65.29    5.50
 -17   3  -7   93.69    8.40
 -17  -3   7   65.39    8.60
  17  -3  -7   81.99    6.40
  17  -3   7   94.59   10.10
 -17  -3  -7   77.79    6.40
 -17   3   7   86.29    9.40
 -17   3  -8    1.00    2.70
 -17  -3   8   11.60    5.90
 -17   3   8    7.60    5.60
  17  -3   8    2.30    3.50
 -17  -3  -8    9.50    3.30
 -17  -4   0   -0.70    1.20
  17  -4   0   -0.90    2.40
 -17   4   0    2.40    3.20
 -17  -4   0    3.40    2.90
 -17  -4   1  167.18   10.40
 -17   4  -1  169.98   10.50
 -17  -4   1  149.59    7.40
  17  -4  -1  167.98   11.40
 -17  -4   1  164.38    7.40
 -17   4   1  168.08   11.20
  17  -4   1  163.28   11.50
 -17  -4  -1  162.08    9.50
 -17  -4   2   25.50    3.50
  17  -4  -2   27.00    4.40
 -17   4  -2   24.70    4.70
 -17  -4   2   19.60    5.00
  17  -4  -2   16.10    4.50
  17  -4   2   33.40    6.60
 -17  -4  -2   21.70    2.00
 -17   4   2   20.70    5.60
 -17  -4  -2   25.60    4.50
  17  -4  -3   57.19    7.70
  17  -4  -3   41.10    6.10
 -17  -4   3   35.10    3.80
 -17  -4   3   32.50    6.60
 -17   4  -3   38.10    5.50
  17  -4   3   45.70    7.70
 -17   4   3   41.80    7.30
 -17  -4  -3   38.00    3.10
 -17  -4  -3   39.90    5.40
  17  -4  -4   49.90    7.10
  17  -4  -4   50.79    6.60
 -17   4  -4   46.60    4.80
 -17   4  -4   56.89    7.70
 -17  -4   4   47.90    4.50
 -17  -4  -4   52.59    5.50
 -17  -4  -4   55.99    4.60
  17  -4  -5   32.80    5.20
 -17   4  -5   38.70    3.20
 -17  -4   5   44.00    7.90
 -17   4  -5   46.40    6.70
  17  -4  -5   58.89    7.30
 -17  -4  -5   42.80    2.70
 -17  -4  -5   42.50    4.00
  17  -4   5   45.10    7.70
 -17   4   5   35.90    7.20
 -17  -4   6  103.49   10.00
 -17   4  -6  105.79    8.80
  17  -4  -6   87.99    7.90
  17  -4  -6  100.29    7.80
 -17   4   6  102.59   10.30
 -17  -4  -6  105.19    6.50
  17  -4   6   98.49   10.40
 -17   4  -7   12.00    3.50
  17  -4  -7   11.70    3.20
 -17  -4   7    9.10    4.50
  17  -4   7    6.90    4.40
 -17   4   7    9.00    4.70
  17  -5   0   -0.50    3.20
 -17   5   0    1.50    3.30
 -17  -5   0    1.90    3.00
 -17  -5   0    0.90    1.10
 -17   5  -1   41.00    6.60
  17  -5  -1   45.80    7.50
 -17  -5   1   41.60    3.40
 -17  -5   1   48.70    7.00
 -17  -5   1   45.80    3.60
 -17   5   1   37.90    6.80
  17  -5   1   39.50    7.60
 -17  -5  -1   52.69    6.70
 -17   5  -2   62.29    7.60
  17  -5  -2   60.39    7.90
 -17  -5   2   58.79    8.00
  17  -5  -2   53.79    5.90
 -17  -5   2   48.80    4.10
  17  -5   2   54.69    8.30
 -17  -5  -2   61.89    5.80
 -17   5   2   55.19    8.10
 -17   5  -3  149.69    9.80
  17  -5  -3  142.89   10.30
 -17  -5   3  140.89   12.40
 -17   5  -3  163.58   10.90
 -17  -5   3  154.48    8.00
  17  -5  -3  152.28   10.00
 -17  -5  -3  137.29    8.40
  17  -5   3  135.79   11.10
 -17   5   3  133.69   11.50
 -17   5  -4   23.60    4.40
  17  -5  -4   17.40    4.70
 -17   5  -4   23.70    5.40
  17  -5  -4   19.00    4.20
 -17  -5   4   17.00    5.40
  17  -5   4   23.00    5.40
 -17   5   4   26.20    6.60
 -17  -5  -4   27.30    4.00
 -17  -5  -4   22.90    2.40
 -17  -5   5  139.09   11.80
  17  -5  -5  117.29    9.20
  17  -5  -5  108.69    8.80
 -17   5  -5  115.79    9.50
 -17   5   5  104.19   10.60
 -17  -5  -5  135.09    6.60
  17  -5   5  134.69   11.30
 -17  -5  -5  118.99    6.00
  17  -5  -6   24.20    5.40
 -17   5  -6   46.30    7.10
 -17  -5   6   37.10    7.40
  17  -5  -6   39.80    6.10
  17  -5   6   41.90    8.10
 -17   5   6   36.00    7.80
 -17  -5  -6   35.20    3.70
  17  -5  -7   70.39    6.80
 -17  -5   7   49.20    8.30
 -17   5  -7   85.99    8.20
 -17   5   7   49.60    8.30
  17  -5   7   72.89   11.00
 -17  -5  -7   64.49    5.10
 -17  -6   0    0.80    1.20
  17  -6   0    2.80    3.70
 -17  -6   0    1.10    2.60
 -17  -6   0    3.40    2.30
 -17   6   0   -3.70    2.80
 -17  -6   1    4.70    1.70
 -17  -6   1    4.70    1.60
 -17   6  -1    0.70    2.90
  17  -6  -1   -2.10    3.00
 -17  -6  -1   -2.40    2.30
 -17  -6  -1    2.10    1.90
  17  -6   1   -0.70    3.50
 -17   6  -2   26.20    5.80
  17  -6  -2   22.80    5.30
 -17  -6   2   35.30    6.60
 -17   6  -2   18.80    4.90
  17  -6  -2   28.30    5.60
 -17  -6   2   28.40    3.20
 -17  -6  -2   26.20    4.80
 -17  -6  -2   20.00    4.40
  17  -6   2   26.40    6.30
 -17   6   2   24.70    6.50
 -17  -6   3   59.69    4.80
  17  -6  -3   55.69    8.00
 -17   6  -3   61.69    8.00
 -17   6  -3   60.09    8.40
 -17  -6   3   52.19    7.70
  17  -6  -3   68.29    8.60
 -17  -6  -3   50.19    5.20
 -17  -6  -3   47.70    7.30
 -17   6   3   50.49    8.60
  17  -6   3   64.59    9.70
 -17  -6   4   26.30    6.40
 -17   6  -4   34.40    6.00
  17  -6  -4   22.80    5.40
 -17   6  -4   37.60    5.40
  17  -6  -4   17.90    4.70
 -17   6   4   32.80    7.60
  17  -6   4   22.60    6.00
 -17  -6  -4   20.40    3.60
  17  -6  -5   12.70    4.10
 -17  -6   5    5.20    4.50
 -17   6  -5    4.10    3.10
  17  -6  -5   -1.60    3.10
 -17   6  -5   13.10    2.70
 -17   6   5    1.50    4.10
  17  -6   5    8.10    4.20
 -17  -6  -5    5.00    1.50
 -17  -6  -5    7.80    2.80
  17  -6  -6   52.89    7.70
 -17   6  -6   45.80    6.90
 -17  -6   6   45.30    9.60
 -17  -6  -6   39.80    3.40
 -17   6   6   24.00    7.90
 -17  -7   0   -1.80    1.30
  17  -7   0   -3.50    2.90
 -17   7   0    6.30    4.20
 -17  -7   0    2.20    1.10
 -17  -7   0   -0.70    2.50
 -17  -7   1   20.40    2.90
 -17   7  -1   21.80    6.30
  17  -7  -1   11.60    4.80
 -17  -7   1   23.40    5.60
 -17  -7   1   24.40    2.70
  17  -7   1   22.20    6.70
 -17  -7  -1   24.00    4.20
 -17   7   1   17.70    5.50
 -17  -7  -1   20.40    4.70
 -17   7  -2   16.40    4.00
  17  -7  -2   11.50    4.90
 -17  -7   2   11.70    2.40
 -17  -7   2   17.90    5.20
 -17   7  -2   12.20    4.70
 -17  -7  -2   11.30    3.60
 -17  -7  -2   12.70    3.30
  17  -7   2   12.50    5.40
 -17   7   2   10.70    4.90
  17  -7  -3   79.09   10.00
 -17  -7   3   67.89    9.00
  17  -7  -3   59.79    7.90
 -17   7  -3   88.19    8.30
 -17   7  -3   71.09    7.30
 -17  -7  -3   55.19    6.30
  17  -7   3   54.69    9.00
 -17   7   3   79.69   11.30
 -17  -7  -3   76.19    7.50
 -17   7  -4   19.30    5.20
 -17   7  -4   26.80    5.70
 -17  -7   4   23.70    6.00
  17  -7  -4    8.90    4.10
  17  -7  -4   19.20    5.40
 -17  -7  -4   20.10    4.80
 -17   7   4   29.70    7.00
  17  -7   4   19.40    5.50
 -17  -7  -4   18.30    4.20
  17  -7  -5   74.89    9.70
  17  -7  -5   45.30    7.00
 -17  -7   5   79.09   10.80
 -17  -7  -5   57.19    8.00
  17  -7   5   57.39   13.30
 -17   7   5   54.29    9.40
 -17  -8   0   -3.00    2.60
 -17   8   0    2.60    3.90
  17  -8   0    7.60    4.20
 -17  -8   0    2.60    1.70
  17  -8  -1   44.20    8.20
 -17  -8   1   41.50    7.20
 -17   8  -1   35.30    7.90
 -17   8   1   45.50    8.40
 -17  -8  -1   38.50    5.50
 -17  -8  -1   51.89    7.40
  17  -8   1   39.10    8.10
 -17  -8   2    5.60    4.20
 -17   8  -2    6.30    3.80
  17  -8  -2    2.30    3.70
 -17  -8  -2   11.30    2.50
 -17   8   2   16.20    5.70
 -17  -8  -2    5.20    2.80
  17  -8   2   16.30    5.80
 -17  -8   3    7.70    5.90
  17  -8  -3   20.40    9.10
 -17   8  -3   11.00    4.20
 -17  -8  -3    4.20    2.80
 -17  -8  -3    6.80    3.20
 -17   8   3    7.20    5.80
  17  -9   0    2.70    3.90
 -17  -9   0    0.80    3.20
 -18   0   0   49.99    4.20
  18   0   0   50.79    5.30
 -18   0   0   56.49    5.40
 -18   0   1  399.76   15.30
  18   0   1  407.36   17.30
  18   0  -1  402.46   15.90
 -18   0  -1  394.46   14.80
 -18   0   1  403.86   16.70
  18   0  -2  318.57   13.00
 -18   0  -2  314.17   12.80
 -18   0  -2  293.87   12.60
 -18   0   2  303.07   13.20
  18   0   2  327.67   15.50
 -18   0   2  329.57   14.70
  18   0  -3  481.95   17.30
 -18   0   3  442.16   16.70
 -18   0   3  509.15   20.50
  18   0   3  515.85   21.60
 -18   0  -3  516.65   18.70
  18   0  -3  478.45   17.30
 -18   0   3  485.25   19.00
 -18   0  -3  512.25   17.30
 -18   0   4   14.50    3.10
 -18   0   4    8.60    1.40
  18   0  -4   10.40    2.30
 -18   0  -4    8.50    1.40
 -18   0  -4    4.90    2.60
  18   0   4   10.40    4.70
 -18   0  -4   14.60    1.50
  18   0  -4    7.80    2.50
 -18   0  -4    7.00    2.40
 -18   0   4    5.40    3.50
 -18   0   5    3.80    3.80
  18   0   5    0.70    3.80
  18   0  -5    1.00    2.10
 -18   0   6    8.70    4.70
 -18   0  -6   10.20    3.60
  18   0   6   11.20    5.10
 -18   0  -7   29.30    5.50
  18   0   7   30.30    6.90
 -18   0   7   27.80    6.20
 -18   0  -8   12.80    3.60
  18   0   8   14.60    6.80
 -18   0   8   15.60    5.20
 -18  -1   0  313.47   13.80
 -18   1   0  304.37   12.80
  18  -1   0  308.87   14.30
  18   1   0  346.07   14.40
 -18   1   0  328.17   14.20
 -18  -1   0  317.57   12.30
 -18   1  -1   59.29    4.70
 -18  -1   1   61.79    6.00
 -18   1  -1   53.59    5.40
 -18  -1   1   54.69    4.40
  18  -1  -1   54.89    5.50
  18   1   1   60.09    6.10
  18  -1   1   70.69    8.40
 -18   1   1   58.69    4.90
  18   1  -1   57.99    5.10
 -18  -1  -1   53.99    4.90
 -18   1   1   52.79    5.80
 -18  -1  -1   62.49    4.30
 -18  -1   2    0.60    2.70
 -18   1  -2    0.60    1.50
 -18   1  -2    3.90    2.40
  18  -1  -2    3.20    1.60
 -18  -1   2    0.30    1.60
 -18  -1   2    8.60    1.50
  18   1   2    4.30    3.30
 -18  -1  -2    3.50    1.70
 -18   1   2   -0.30    2.60
  18  -1   2   -2.10    2.60
 -18  -1  -2    7.00    2.40
  18   1  -2    1.60    1.70
 -18   1   2    2.90    2.10
 -18   1  -3  134.89    8.00
 -18  -1   3  119.39    5.50
  18  -1  -3  138.09    8.10
 -18  -1   3  136.39    9.30
  18   1   3  152.98   10.40
 -18  -1   3  119.89    7.50
  18  -1  -3  118.19    7.10
 -18   1  -3  115.89    6.80
 -18  -1  -3  144.19    7.50
  18  -1   3  153.48   10.50
 -18   1   3  140.19    9.40
 -18  -1  -3  126.59    7.00
  18   1  -3  136.69    6.20
  18   1  -3  115.19    5.70
 -18   1   3  128.29    7.90
 -18  -1  -3  133.29    6.60
 -18   1  -4   85.19    4.10
 -18   1  -4   76.79    6.80
  18  -1  -4   70.79    5.70
  18   1   4   85.59   10.40
 -18  -1   4   80.49    6.10
 -18   1  -4   87.79    4.40
 -18   1  -4   74.09    6.00
 -18  -1   4   81.29    7.70
  18  -1  -4   83.49    6.00
 -18  -1  -4   79.99    6.00
  18  -1   4   91.49    8.80
 -18   1   4   83.29    6.20
  18   1  -4   81.69    4.90
 -18   1   4   76.89    7.60
 -18  -1  -4   79.89    3.90
 -18  -1  -4   78.09    3.80
  18   1   5    0.90    3.40
  18  -1  -5   -0.20    1.80
 -18   1  -5    8.50    2.90
 -18   1  -5    6.20    3.30
 -18  -1  -5   -1.10    1.80
 -18  -1   6   18.40    5.30
  18  -1  -6   19.10    3.00
  18   1   6    5.80    4.00
 -18   1  -6   22.00    4.70
 -18  -1  -6   13.20    3.80
 -18   1   6    8.90    4.60
  18  -1   6    9.00    4.70
 -18   1  -7    1.30    2.30
  18   1   7    2.30    4.00
 -18  -1   7    2.90    4.10
 -18   1   7   -3.50    3.40
 -18  -1  -7    2.70    2.40
  18  -1   7   -3.20    3.10
  18   1   8   15.50    5.50
 -18   1  -8   10.00    3.80
 -18  -1   8   13.50    4.80
  18  -1   8    8.90    4.20
 -18   1   8   12.50    5.50
 -18  -1  -8   12.80    3.60
  18   2   0  241.18   11.60
 -18  -2   0  261.77   12.60
  18  -2   0  241.68   12.80
 -18   2   0  252.77   12.60
 -18   2   0  229.78   11.00
 -18  -2   0  254.17   10.00
 -18  -2   1  592.34   21.10
  18   2   1  649.74   24.10
 -18   2  -1  609.94   22.40
 -18  -2   1  645.94   21.50
 -18  -2   1  672.33   24.80
 -18   2  -1  636.54   23.60
  18  -2  -1  652.73   24.70
 -18  -2  -1  645.74   20.70
 -18   2   1  618.64   22.80
  18  -2   1  614.04   24.60
 -18  -2  -1  646.14   23.10
 -18   2   1  671.23   24.70
  18   2  -1  662.53   22.20
 -18  -2   2  166.28    7.10
 -18  -2   2  181.78   11.00
  18  -2  -2  169.78   10.40
  18  -2  -2  170.78   10.10
 -18  -2   2  164.08    8.40
  18   2   2  173.18   10.60
 -18   2  -2  163.38    9.40
 -18   2  -2  168.38    8.90
  18  -2   2  180.78   11.10
  18   2  -2  157.68    7.40
 -18  -2  -2  168.78    7.70
 -18   2   2  171.48    9.20
 -18  -2  -2  179.78    8.80
 -18   2   2  166.28   10.60
  18  -2  -3  140.69    8.30
 -18  -2   3  137.09    7.90
 -18   2  -3  143.19    8.50
  18   2   3  139.59   10.10
  18  -2  -3  150.88    9.30
 -18   2  -3  144.79    7.80
 -18  -2   3  147.99   10.10
 -18  -2  -3  143.19    7.20
 -18   2   3  148.89   10.20
  18  -2   3  146.19   10.40
 -18  -2  -3  135.09    7.30
 -18  -2  -3  148.49    7.20
 -18   2   3  141.49    8.40
  18  -2   3  103.39    8.70
 -18   2  -4    5.70    1.70
  18  -2  -4    4.60    2.40
  18   2   4    6.40    3.60
 -18  -2   4    2.10    3.10
 -18   2  -4    4.80    3.10
 -18  -2   4    7.10    2.50
  18  -2  -4    7.10    3.10
 -18   2  -4    9.10    2.70
 -18  -2  -4    8.90    1.80
 -18   2   4   11.20    4.70
 -18  -2  -4    8.70    2.50
  18  -2   4   12.00    4.20
  18  -2  -5    3.90    2.70
 -18  -2   5    8.50    4.30
  18   2   5    8.70    4.70
  18  -2  -5    7.10    2.90
 -18   2  -5    6.40    3.10
  18  -2   5    3.00    4.30
 -18  -2  -5    6.40    2.70
 -18   2   5    6.30    4.10
  18   2   6    0.40    3.50
  18  -2  -6    7.50    2.60
 -18   2  -6    5.40    3.20
 -18  -2   6    2.90    3.50
 -18   2   6    4.20    4.30
  18  -2   6    3.30    4.10
 -18  -2  -6    2.00    2.40
 -18   2  -7    0.40    2.30
  18  -2  -7    9.10    3.20
  18   2   7    3.10    3.60
 -18  -2   7    3.50    3.80
 -18  -2  -7   -0.60    1.90
  18  -2   7   -2.70    3.20
 -18   2   7    2.20    3.90
 -18  -2   8    7.10    4.50
  18   2   8   11.80    4.90
 -18   2  -8   13.90    5.10
 -18   2   8    8.10    4.90
 -18  -2  -8    7.40    3.00
  18  -2   8    8.80    4.80
 -18   3   0  231.28   12.50
 -18  -3   0  231.78   12.60
 -18  -3   0  229.18    9.00
  18  -3   0  215.48   12.80
  18   3   0  209.88   10.60
 -18   3   0  216.98   10.60
 -18  -3   1   48.40    3.30
 -18   3  -1   41.30    4.10
 -18  -3   1   54.69    7.40
 -18   3  -1   45.50    6.40
 -18  -3   1   35.80    3.60
  18   3   1   44.60    6.20
  18  -3  -1   32.30    5.90
 -18   3   1   48.10    4.40
 -18  -3  -1   37.60    3.10
  18  -3   1   42.90    6.20
  18   3  -1   35.80    3.80
 -18   3   1   44.00    6.60
 -18  -3  -1   44.00    5.90
  18  -3  -2    0.40    1.80
 -18  -3   2    8.30    1.50
 -18  -3   2    0.70    3.10
 -18   3  -2    2.40    1.50
 -18  -3   2    2.80    1.80
 -18   3  -2    1.50    2.30
  18  -3  -2   -0.10    2.80
  18   3   2    0.30    2.70
  18  -3   2    2.30    2.90
 -18  -3  -2    3.00    1.50
 -18   3   2    4.10    3.70
 -18  -3  -2    2.80    2.40
 -18   3  -3  111.59    7.20
 -18   3  -3  105.19    7.10
 -18  -3   3  105.59    9.30
  18  -3  -3   91.89    7.00
  18   3   3   89.49    8.40
  18  -3  -3   97.39    8.10
 -18  -3   3   99.49    6.50
  18  -3   3  101.89    9.10
 -18   3   3  103.59    9.30
 -18  -3  -3  108.29    5.60
 -18  -3  -3  110.99    6.60
  18  -3  -4   71.79    6.10
 -18  -3   4   72.09    8.10
 -18   3  -4   61.29    4.70
 -18  -3   4   63.99    5.30
  18  -3  -4   64.19    6.50
 -18   3  -4   50.69    6.70
  18   3   4   58.69    8.70
  18  -3   4   77.79    9.90
 -18   3   4   70.99    9.40
 -18  -3  -4   61.39    4.00
  18  -3  -5    1.40    2.50
 -18  -3   5    1.00    3.60
  18   3   5    4.90    3.50
 -18   3  -5   -2.60    2.50
  18  -3  -5   -4.90    2.00
 -18  -3  -5    1.90    2.00
 -18   3   5    2.40    3.90
  18  -3   5    1.70    3.40
  18   3   6    7.20    4.00
  18  -3  -6   16.60    4.00
  18  -3  -6   14.80    6.20
 -18  -3   6   12.30    4.70
 -18   3  -6   20.80    4.70
 -18  -3  -6   13.40    3.30
  18  -3   6   18.20    5.90
 -18   3   6   15.90    5.40
 -18   3  -7    5.00    3.20
  18  -3  -7   -1.40    2.80
 -18  -3   7    0.70    2.80
 -18  -3  -7   -1.30    2.00
 -18   3   7   -0.40    3.30
  18  -3   7   12.40    5.40
 -18  -4   0   21.00    2.80
  18  -4   0   20.20    5.50
 -18   4   0   22.50    5.20
 -18  -4   0   19.90    4.80
 -18   4  -1  214.98   12.30
 -18  -4   1  210.28    9.10
 -18  -4   1  221.98   12.80
 -18  -4   1  217.18    9.10
  18  -4  -1  236.18   13.90
 -18   4   1  202.48   12.80
  18  -4   1  225.28   13.70
 -18  -4  -1  226.28    8.20
 -18  -4  -1  221.28   11.90
  18  -4  -2  182.68   11.60
 -18  -4   2  160.08   11.30
 -18   4  -2  169.68   10.30
 -18  -4   2  170.48    8.20
  18  -4  -2  154.88    9.60
 -18   4   2  168.58   11.80
  18  -4   2  171.68   11.70
 -18  -4  -2  162.88    6.40
 -18  -4  -2  163.68    9.60
  18  -4  -3  302.97   14.60
 -18   4  -3  280.07   13.80
  18  -4  -3  314.67   15.70
 -18  -4   3  303.77   16.80
 -18  -4   3  315.57   13.00
  18  -4   3  314.57   16.70
 -18  -4  -3  319.07   13.80
 -18  -4  -3  308.37   11.10
 -18   4   3  280.17   16.30
 -18  -4  -3  304.37   10.80
 -18   4  -4    8.40    3.70
  18  -4  -4    7.30    3.40
 -18  -4   4    9.10    2.50
  18  -4  -4    7.90    3.40
 -18  -4   4    6.30    4.30
 -18  -4  -4    8.80    2.50
 -18   4   4    7.10    4.50
  18  -4   4    5.20    3.70
 -18  -4  -4    8.60    2.20
 -18  -4   5    0.90    3.70
 -18   4  -5    4.20    1.30
 -18   4  -5    9.10    3.30
  18  -4  -5    9.50    3.40
  18  -4  -5    2.80    2.80
 -18   4   5   -4.90    3.00
  18  -4   5    3.80    3.60
 -18  -4  -5    2.60    1.90
 -18  -4   6    5.00    3.90
 -18   4  -6    6.90    3.60
  18  -4  -6    4.50    3.00
 -18  -4  -6    3.50    2.20
  18  -4   6    0.90    3.70
 -18   4   6    1.40    4.70
  18  -4  -7   20.20    4.60
 -18   4  -7   21.90    4.60
 -18  -4  -7   14.00    3.20
 -18  -5   0  155.98    6.50
 -18  -5   0  165.18   10.40
 -18  -5   0  149.59    7.90
  18  -5   0  151.78   11.90
 -18   5   0  142.29   10.90
 -18  -5   1   26.50    2.80
 -18  -5   1   38.10    6.20
 -18  -5   1   28.70    3.20
  18  -5  -1   27.60    6.50
 -18   5  -1   40.10    6.60
 -18   5   1   31.20    6.50
  18  -5   1   49.20    8.30
 -18  -5  -1   27.70    2.20
 -18  -5  -1   32.10    5.40
  18  -5  -2   -2.50    2.80
  18  -5  -2    7.10    3.00
 -18   5  -2    3.60    3.00
 -18  -5   2    1.30    5.20
 -18  -5   2    1.20    1.50
 -18   5   2    1.70    5.10
  18  -5   2   -0.20    3.80
 -18  -5  -2   -1.00    1.90
  18  -5  -3   51.99    8.00
 -18  -5   3   47.20    7.90
  18  -5  -3   64.19    7.90
 -18   5  -3   44.00    7.10
 -18   5  -3   49.00    6.80
 -18  -5   3   55.69    4.70
 -18  -5  -3   45.20    5.00
 -18   5   3   47.00    8.30
  18  -5   3   60.89    9.60
  18  -5  -4   32.10    6.20
 -18  -5   4   40.60    8.30
 -18   5  -4   28.70    4.50
 -18   5  -4   40.80    6.60
 -18  -5  -4   30.70    4.40
 -18   5   4   30.50    7.10
 -18  -5  -4   29.90    2.60
  18  -5   4   29.50    6.80
  18  -5  -5    0.30    2.80
 -18   5  -5    1.30    3.30
  18  -5  -5    1.90    2.70
 -18  -5   5   -3.50    3.70
 -18   5   5   -2.70    3.30
 -18  -5  -5    1.30    1.40
  18  -5   5    1.30    3.70
  18  -5  -6    4.50    3.20
 -18  -5   6   13.20    5.00
 -18   5  -6   -1.40    2.80
  18  -5   6   14.10    5.40
 -18  -5  -6    5.80    2.00
 -18   5   6   -4.60    3.70
 -18  -6   0   83.59    4.20
  18  -6   0   78.29   10.30
 -18  -6   0   67.99    5.30
 -18  -6   1  202.48   12.60
 -18   6  -1  227.78   13.90
 -18  -6   1  195.08    8.60
  18  -6  -1  206.28   14.10
 -18  -6   1  234.28    9.20
 -18  -6  -1  224.28   12.40
  18  -6   1  229.78   15.30
 -18  -6  -1  203.38   10.60
 -18   6   1  216.48   14.10
 -18  -6   2   47.80    4.30
 -18   6  -2   46.80    7.40
 -18  -6   2   63.49    8.70
 -18   6  -2   66.09    7.40
  18  -6  -2   51.29    7.80
 -18   6   2   40.70    8.00
  18  -6   2   66.09    9.80
 -18  -6  -2   48.60    5.40
 -18  -6  -2   55.49    6.00
 -18  -6   3   65.19    9.30
  18  -6  -3   54.49    7.60
 -18  -6   3   50.09    4.50
 -18   6  -3   66.59    9.00
  18  -6  -3   67.19    9.10
 -18   6  -3   64.79    6.80
  18  -6   3   62.39    9.70
 -18   6   3   42.00    8.40
 -18  -6  -3   48.60    6.90
 -18  -6  -3   48.80    5.30
  18  -6  -4    0.10    3.10
 -18  -6   4    2.70    3.90
 -18   6  -4    8.80    3.30
 -18   6  -4    8.60    3.00
  18  -6  -4    0.30    3.30
 -18   6   4    2.80    4.30
 -18  -6  -4    9.50    2.40
  18  -6   4   -1.30    2.90
  18  -6  -5    2.10    3.80
  18  -6  -5   -4.00    3.50
 -18  -6   5    7.50    4.60
 -18   6  -5    6.30    3.30
 -18   6   5    6.00    4.50
  18  -6   5    0.80    3.10
 -18  -6  -5    0.00    1.00
 -18  -6   6    3.60    3.80
  18  -6  -6   10.10    3.70
 -18   6  -6   20.20    5.00
 -18  -6  -6    0.40    2.90
  18  -6   6    7.20    3.90
 -18   6   6   10.00    5.10
 -18  -7   0   53.19    3.30
 -18   7   0   67.29    9.90
 -18  -7   0   54.99    4.60
 -18  -7   0   68.49    8.60
 -18  -7   1   14.40    2.30
  18  -7  -1    8.30    4.90
 -18   7  -1    8.80    4.50
 -18  -7   1    7.50    4.00
 -18  -7  -1   15.30    4.50
 -18   7   1   16.80    6.10
  18  -7   1   12.90    5.20
 -18  -7  -1    8.70    3.00
 -18   7  -2   -1.20    3.10
 -18  -7   2    1.80    3.40
 -18   7  -2    3.00    3.70
 -18  -7   2    2.30    1.40
  18  -7  -2    3.10    3.80
  18  -7   2    6.20    4.30
 -18   7   2    4.40    4.20
 -18  -7  -2    0.20    2.70
 -18  -7  -2    0.50    1.50
 -18   7  -3   22.00    5.60
  18  -7  -3   22.90    6.10
 -18  -7   3   30.30    6.70
 -18   7  -3   33.10    6.00
  18  -7  -3   32.20    6.70
 -18  -7  -3   26.60    5.00
 -18  -7  -3   38.60    5.80
 -18   7   3   27.00    7.00
  18  -7   3   22.50    5.70
 -18   7  -4   24.80    6.40
  18  -7  -4   27.30    5.60
  18  -7  -4   10.40    3.70
 -18  -7   4   27.80    9.90
 -18   7  -4   18.30    4.20
 -18  -7  -4    6.30    3.20
 -18   7   4   19.40    7.10
  18  -7   4   16.30    5.70
 -18   8   0    3.20    3.80
  18  -8   0    1.20    3.90
 -18  -8   0    2.40    3.20
 -18  -8   1   50.79    7.80
  18  -8  -1   39.00    7.30
 -18   8  -1   64.89   10.10
 -18  -8  -1   56.49    9.00
 -18   8   1   45.20    8.60
  18  -8   1   38.90    8.30
 -18  -8  -1   41.10    6.70
 -18   8  -2   30.30    6.30
 -18  -8  -2   49.90    5.00
  18  -8   2   23.70   10.00
 -18  -8  -2   31.80    5.40
 -18   8  -3   75.29    7.80
  18  -8  -3   71.29    9.30
 -18  -8   3   75.99    8.60
 -18  -8  -3   62.99    6.30
  18  -8   3   82.49   11.10
 -18   8   3   94.49   12.60
 -18  -8  -3   82.89    6.90
  19   0   0    1.50    2.40
 -19   0   0    0.00    2.30
 -19   0   0    1.90    1.60
 -19   0  -1  227.28   10.20
 -19   0  -1  242.58   11.20
 -19   0   1  227.68   10.60
  19   0  -1  238.18   11.40
 -19   0   1  244.38   12.10
  19   0   1  252.27   12.60
 -19   0  -2    2.70    1.80
  19   0  -2    2.10    2.30
 -19   0   2    5.50    3.20
  19   0   2    1.80    3.20
 -19   0   2    8.60    2.60
 -19   0  -2    4.20    2.40
  19   0   3   -1.00    3.00
 -19   0  -3    7.40    1.90
 -19   0   3   -0.10    2.60
 -19   0  -3   -0.60    1.60
 -19   0   3    5.70    2.60
  19   0  -3    4.30    1.60
 -19   0  -3    5.40    2.20
  19   0  -3    1.40    1.70
 -19   0  -4   71.29    3.60
  19   0  -4   68.09    5.30
 -19   0   4   70.29    5.80
  19   0  -4   72.99    4.60
  19   0   4   73.19    8.20
 -19   0  -4   69.09    6.20
 -19   0  -4   75.19    3.80
 -19   0   4   80.29    7.90
 -19   0  -4   65.79    5.50
 -19   0  -5  154.88    9.50
  19   0   5  167.58   12.50
 -19   0   5  175.68   11.60
 -19   0  -5  167.48    9.90
  19   0  -5  162.18    6.40
 -19   0  -6   82.19    7.20
 -19   0   6   83.69    8.70
  19   0   6   89.99    9.70
 -19   0  -7   48.80    6.60
 -19   0   7   58.19    8.80
  19   0   7   60.59    9.70
 -19   0   8    7.00    4.00
  19   0   8    2.30    3.70
 -19   0  -8    7.70    3.70
 -19  -1   0   -0.60    1.20
  19   1   0    2.30    2.40
 -19   1   0   -1.30    1.20
 -19  -1   0   -0.40    2.20
 -19   1   0    0.00    2.50
  19  -1   0   -0.10    2.20
 -19   1  -1   11.30    3.50
 -19  -1   1    9.00    3.40
 -19  -1   1   14.80    3.00
 -19   1  -1   17.60    3.30
  19   1   1   13.40    4.20
  19  -1  -1   11.00    3.40
 -19  -1  -1   14.20    3.50
 -19   1   1   16.40    4.20
  19  -1   1   15.40    4.20
 -19  -1  -1   16.20    2.90
  19   1  -1   15.50    3.50
 -19   1  -2   74.89    6.80
 -19  -1   2   81.89    5.80
 -19   1  -2   73.29    5.60
 -19  -1   2   84.19    4.70
  19  -1  -2   81.29    6.40
 -19  -1   2   80.19    7.10
  19   1   2   81.19    7.60
 -19  -1  -2   78.09    5.60
 -19   1   2   81.39    7.30
 -19  -1  -2   72.09    5.10
  19  -1   2   83.49    7.60
 -19   1   2   73.69    5.90
  19   1  -2   79.39    5.40
 -19   1  -3  281.47   12.90
 -19  -1   3  273.57   10.20
 -19  -1   3  291.17   14.40
  19  -1  -3  299.27   14.30
 -19  -1   3  271.37   12.70
  19   1   3  296.07   15.50
 -19   1  -3  272.87   11.70
  19  -1  -3  268.77   13.10
  19   1  -3  300.77   10.80
 -19   1   3  289.27   13.20
  19  -1   3  288.17   15.30
 -19  -1  -3  299.77   11.40
 -19  -1  -3  251.87   11.80
 -19   1   3  282.57   14.30
 -19  -1  -3  280.87   12.20
 -19   1  -4   74.79    4.10
  19  -1  -4   80.69    5.90
 -19  -1   4   87.09    6.50
  19   1   4   81.09    8.40
 -19   1  -4   96.89    6.70
 -19   1  -4   68.99    6.50
 -19  -1   4   91.89    8.30
 -19   1  -4   75.99    4.20
  19  -1  -4   63.79    5.70
 -19  -1  -4   75.69    5.70
 -19  -1  -4   71.89    6.00
 -19   1   4   84.69    8.20
  19  -1   4   79.89    8.40
 -19  -1  -4   75.69    3.80
 -19  -1  -4   74.19    3.90
 -19   1  -5  138.89    9.40
  19   1   5  157.48   11.80
  19  -1  -5  140.69    7.60
 -19  -1   5  143.09   10.50
  19  -1   5  132.69   11.20
 -19  -1  -5  141.29    8.70
 -19   1   5  158.18   11.20
  19   1   6   53.39    8.90
 -19  -1   6   55.09    8.30
 -19   1  -6   49.30    6.80
  19  -1  -6   52.49    4.20
 -19  -1  -6   54.59    5.80
 -19   1   6   53.59    8.30
  19  -1   6   53.59    8.40
  19   1   7   57.29    9.60
 -19   1  -7   63.59    6.80
 -19  -1   7   55.69    8.40
 -19  -1  -7   65.19    6.40
  19  -1   7   43.50    7.80
 -19   1   7   51.69    8.40
  19   1   8    3.60    3.60
 -19  -1   8    3.10    3.30
 -19   1  -8    6.70    3.40
 -19   1   8    7.70    4.00
  19  -1   8    6.00    4.30
 -19  -1  -8    9.70    3.30
 -19  -2   0    3.40    2.70
 -19  -2   0    1.90    1.30
 -19   2   0    1.20    1.40
 -19   2   0   -2.80    2.20
  19   2   0   -0.70    1.80
  19  -2   0   -0.30    2.30
 -19  -2   1  198.88    9.00
  19   2   1  186.18   10.80
 -19   2  -1  189.48   10.60
 -19  -2   1  192.18   11.10
  19  -2  -1  214.98   11.60
 -19   2  -1  171.48    9.30
 -19  -2  -1  206.18   10.30
 -19   2   1  180.68    9.60
 -19  -2  -1  193.18    8.20
 -19   2   1  197.08   11.40
  19  -2   1  194.28   11.50
  19   2  -1  185.28    9.30
 -19  -2   2  115.89    7.00
 -19  -2   2  119.39    5.50
  19  -2  -2  119.69    8.60
  19   2   2  117.19    8.80
 -19   2  -2  107.49    7.20
 -19   2  -2  119.39    7.90
 -19  -2   2  108.79    8.70
  19   2  -2  116.39    6.10
 -19  -2  -2  113.59    7.00
 -19   2   2  116.99    7.30
  19  -2   2  116.09    9.20
 -19   2   2  108.09    8.90
 -19  -2  -2  119.39    6.20
 -19  -2   3   -0.80    2.80
  19   2   3   11.10    4.70
 -19   2  -3    0.40    1.80
 -19  -2   3    3.70    1.80
  19  -2  -3    1.40    2.70
 -19   2  -3    7.60    2.60
 -19  -2  -3    2.90    1.80
 -19   2   3    6.00    3.90
 -19  -2  -3    4.80    2.00
  19  -2   3    0.70    3.40
 -19   2   3    6.50    1.80
 -19  -2   4    9.90    2.70
  19   2   4    6.10    4.60
  19  -2  -4   12.60    3.70
 -19   2  -4    9.50    1.90
 -19   2  -4    6.80    3.20
 -19  -2   4    9.30    4.50
  19  -2   4    7.20    4.00
 -19  -2  -4    7.40    1.80
 -19   2   4    9.50    5.00
 -19  -2  -4    7.10    2.60
 -19  -2  -4   10.60    2.40
  19  -2  -5  161.48    9.60
 -19   2  -5  164.88   10.60
  19   2   5  160.78   12.20
 -19  -2   5  167.18   11.50
  19  -2  -5  157.18    9.80
 -19   2   5  158.88   11.60
  19  -2   5  180.68   12.90
 -19  -2  -5  178.88    9.40
  19  -2  -6   36.20    5.00
 -19  -2   6   28.20    6.20
  19   2   6   27.10    6.30
 -19   2  -6   26.70    5.70
 -19  -2  -6   28.60    4.90
 -19   2   6   28.30    6.60
  19  -2   6   25.40    6.40
  19   2   7   41.10    7.60
 -19  -2   7   46.70    7.50
 -19   2  -7   49.00    6.80
 -19  -2  -7   44.60    6.20
  19  -2   7   42.90    8.00
 -19   2   7   50.19    8.50
  19  -3   0   -1.10    2.60
  19   3   0   -2.00    2.20
 -19  -3   0    1.90    2.90
 -19  -3   0    1.10    1.30
 -19   3   0    1.60    3.30
 -19  -3   1    8.70    1.50
 -19   3  -1    2.70    1.30
  19   3   1    7.70    3.60
 -19  -3   1    3.30    1.70
 -19  -3   1   -0.80    2.90
 -19   3  -1    3.30    3.10
  19  -3  -1    9.50    4.00
  19  -3   1    2.40    3.00
 -19   3   1    3.80    1.80
 -19   3   1    2.60    3.50
  19   3  -1    3.80    2.10
 -19  -3  -1    4.80    1.70
 -19  -3  -1    7.10    3.20
 -19   3  -2   47.60    4.60
  19   3   2   51.39    7.30
 -19   3  -2   48.80    5.60
  19  -3  -2   45.40    6.90
  19  -3  -2   57.19    5.30
 -19  -3   2   42.70    4.20
 -19  -3   2   60.99    3.10
 -19  -3   2   63.29    8.60
 -19   3   2   67.39    7.60
  19  -3   2   50.79    7.30
 -19  -3  -2   55.79    5.50
 -19  -3  -2   58.29    3.80
 -19   3  -3  225.18   10.90
  19  -3  -3  264.77   15.60
  19  -3  -3  209.98   12.30
 -19  -3   3  222.98   13.50
  19   3   3  180.58   12.30
 -19  -3   3  191.48   10.10
 -19   3   3  219.58   13.50
 -19  -3  -3  206.68    9.00
 -19  -3  -3  228.18   11.30
  19  -3   3  217.38   13.40
  19  -3  -4   61.19    6.60
  19  -3  -4   57.09    5.80
 -19  -3   4   56.39    6.10
  19   3   4   56.89    8.60
 -19  -3   4   62.29    8.50
 -19   3  -4   57.59    4.50
 -19   3  -4   63.29    8.10
 -19  -3  -4   65.79    5.00
 -19   3   4   64.19    8.90
  19  -3   4   66.89    8.90
 -19  -3  -4   54.89    3.90
  19   3   5   96.99    9.70
 -19   3  -5  135.39    9.80
 -19  -3   5  115.89   10.10
  19  -3  -5   99.49    8.20
  19  -3  -5  120.79    8.60
  19  -3   5  118.49   10.80
 -19  -3  -5  132.29    7.50
 -19   3   5  120.69   10.80
 -19  -3   6   50.29    8.20
  19  -3  -6   41.50    6.00
  19   3   6   52.79    9.20
 -19   3  -6   53.09    7.40
  19  -3   6   33.20    6.90
 -19   3   6   47.60    8.30
 -19  -3  -6   46.40    4.90
 -19   3  -7   52.19    7.40
 -19  -3   7   42.30    7.50
  19  -3  -7   47.20    6.10
 -19   3   7   40.80    7.90
  19  -3   7   50.79   12.10
 -19  -3  -7   44.80    5.80
 -19  -4   0    1.00    3.10
 -19  -4   0    0.10    1.50
 -19   4   0   -3.00    2.50
  19  -4   0   -3.30    2.60
 -19   4  -1  125.39    9.50
  19  -4  -1  132.79   10.80
 -19  -4   1  136.99    7.00
 -19  -4   1  143.39   10.50
  19  -4   1  145.69   11.00
 -19   4   1  146.09   10.80
 -19  -4  -1  146.39    9.70
 -19  -4  -1  137.99    6.00
  19  -4  -2    4.60    3.60
 -19  -4   2    2.60    1.60
 -19  -4   2    0.10    3.30
 -19   4  -2    0.20    2.70
 -19  -4  -2    2.60    2.60
 -19   4   2    3.40    3.70
 -19  -4  -2    1.20    1.20
  19  -4   2    0.00    3.10
  19  -4  -3    3.00    3.20
 -19  -4   3    1.20    3.70
  19  -4  -3   -1.20    2.00
 -19  -4   3    0.60    1.70
 -19   4  -3   -0.80    2.10
  19  -4   3    1.60    3.10
 -19  -4  -3   -1.10    1.20
 -19  -4  -3   -0.40    1.10
 -19  -4  -3   -1.90    2.00
 -19   4   3    0.80    3.50
  19  -4  -4   61.19    7.90
  19  -4  -4   41.10    5.60
 -19  -4   4   49.10    8.20
 -19   4  -4   39.80    6.60
 -19   4  -4   45.70    4.70
 -19   4   4   48.50    8.50
 -19  -4  -4   46.50    3.90
  19  -4   4   57.19    8.80
  19  -4  -5   91.99    9.10
  19  -4  -5   99.19    8.40
 -19  -4   5  106.59   10.20
 -19   4  -5  103.09    8.90
 -19   4   5   95.69   10.20
  19  -4   5  110.79   10.50
 -19  -4  -5  112.59    6.40
 -19  -4   6   53.99    8.30
  19  -4  -6   57.29    6.00
 -19   4  -6   69.09    8.90
 -19   4   6   47.40    8.70
  19  -4   6   72.89   10.50
 -19  -4  -6   47.50    4.70
 -19   4  -7   33.10    5.70
 -19  -4   7   48.20    7.70
  19  -4  -7   32.40    5.10
 -19   4   7   28.10    6.60
 -19  -4  -7   27.80    4.30
  19  -4   7   47.60    8.70
 -19   5   0    0.50    3.20
 -19  -5   0    0.20    1.90
 -19  -5   0    0.60    3.00
 -19  -5   0   -1.10    1.10
 -19   5  -1    3.00    3.30
 -19  -5   1    8.70    2.00
 -19  -5   1    4.40    3.70
 -19  -5  -1    4.80    3.20
 -19   5   1    5.50    4.60
 -19  -5  -1    8.60    1.70
  19  -5   1    0.00    4.20
 -19   5  -2   31.30    6.00
 -19  -5   2   30.80    3.40
 -19  -5   2   26.10    6.20
 -19   5   2   26.20    6.70
 -19  -5  -2   35.40    5.50
  19  -5   2   30.50    6.90
 -19  -5   3  119.79    7.20
 -19   5  -3  124.49    9.00
  19  -5  -3  107.49    8.60
 -19  -5   3  123.09   10.80
 -19   5  -3  133.89   10.20
  19  -5  -3  129.59   10.20
 -19   5   3  110.89   10.80
  19  -5   3  123.89   10.70
 -19  -5  -3  117.49    8.10
 -19  -5   4   33.30    7.40
 -19   5  -4   40.60    6.90
  19  -5  -4   35.40    6.70
  19  -5  -4   35.00    6.60
 -19   5  -4   37.40    5.30
 -19  -5  -4   30.80    2.70
  19  -5   4   35.00    6.80
 -19  -5  -4   31.40    2.60
 -19   5   4   34.70    8.00
 -19  -5  -4   39.80    4.20
 -19  -5   5   69.09    9.70
  19  -5  -5   75.09    7.40
 -19   5  -5   79.29    8.00
 -19   5   5   47.90    8.60
  19  -5   5   67.09   10.20
 -19  -5  -5   61.19    4.20
 -19   5  -6   33.80    6.10
  19  -5  -6   38.20    6.50
 -19  -5   6   24.90    7.20
 -19  -5  -6   29.30    3.60
  19  -5   6   26.20    9.50
  19  -6   0   -7.20    2.40
 -19  -6   0    2.40    1.70
 -19   6   0   -4.20    2.80
 -19  -6   0   -1.60    2.80
 -19  -6   0    2.00    1.00
 -19  -6   1   63.19    3.90
 -19  -6   1   62.29    4.30
 -19  -6   1   69.59    7.60
  19  -6  -1   79.69   10.60
 -19   6  -1   74.99    9.70
  19  -6   1   78.99   10.60
 -19  -6  -1   72.59   12.80
 -19   6   1   63.79    9.50
 -19  -6  -1   63.49    5.50
 -19  -6   2   56.39    4.40
  19  -6  -2   54.49    8.20
 -19   6  -2   44.10    7.40
 -19  -6   2   51.99    8.20
 -19   6   2   50.99    9.00
 -19  -6  -2   64.09    6.40
  19  -6   2   51.69    8.40
 -19  -6  -2   53.99    5.60
 -19   6  -3    2.50    3.10
  19  -6  -3    5.10    3.60
  19  -6  -3   -3.80    2.80
 -19  -6   3    0.00    3.50
 -19   6  -3    9.60    3.30
 -19  -6  -3   -2.00    2.00
 -19  -6  -3   -0.70    1.80
 -19   6   3   -2.40    4.00
  19  -6   3    3.60    3.80
 -19   6  -4    5.30    2.50
  19  -6  -4   -1.00    2.90
 -19  -6   4    4.00    4.10
  19  -6  -4    0.10    4.30
 -19   6   4    0.80    3.90
  19  -6   4    2.60    3.90
 -19  -6  -4    5.10    2.00
 -19  -6   5   42.00    9.60
  19  -6  -5   54.79    7.90
 -19   6  -5   70.09    7.50
 -19   6   5   37.80    9.20
 -19   7   0   -4.40    2.80
 -19  -7   0    2.00    1.50
  19  -7   0   -2.60    3.20
 -19  -7   0    4.70    3.40
 -19   7  -1   -2.50    3.10
 -19  -7   1    4.30    1.10
  19  -7  -1    4.50    4.10
 -19  -7   1    1.30    3.40
 -19  -7  -1    3.60    2.80
  19  -7   1   -0.20    3.70
 -19   7   1   -0.70    3.90
 -19  -7  -1    1.30    1.70
 -19  -7   2   20.30    3.20
  19  -7  -2   20.30    5.90
 -19   7  -2   10.80    5.10
 -19   7  -2    8.40    4.10
 -19  -7   2   14.50    4.70
 -19  -7  -2    8.00    3.20
 -19  -7  -2   11.40    4.00
 -19   7   2   13.70    5.20
  19  -7   2   13.40    5.70
 -19  -7   3   47.90    8.10
 -19   7  -3   52.79    8.20
 -19   7  -3   70.69    7.30
  19  -7  -3   68.99    9.50
 -19  -7  -3   55.89    6.00
 -19  -7  -3   61.29    5.70
 -19   7   3   61.19   10.40
  19  -7   3   49.30    8.20
 -19   7  -4   23.90    4.40
 -19  -7   4   13.50    5.20
 -19  -7  -4    9.40    3.40
 -19   7   4   13.50    5.50
 -19  -7  -4   22.50    3.60
  19  -7   4   14.70    5.60
  19  -8   0   -3.20    3.00
 -19   8   0    7.40    4.60
 -19  -8   0   -5.70    2.40
  19  -8  -1   33.10    7.80
 -19   8  -1   34.50    7.10
 -19  -8  -1   41.00    4.00
 -19  -8  -1   33.50    6.30
  19  -8   1   28.40    7.20
 -19  -8   2    1.70    3.10
  19  -8  -2    4.40    3.70
 -19   8  -2    5.10    3.10
 -19  -8  -2    6.90    2.50
  19  -8   2    1.80    3.80
 -19   8   2    5.40    4.20
 -19  -8  -2    2.60    2.80
 -20   0   0  187.78    9.30
 -20   0   0  214.78   10.80
  20   0   0  205.68   11.00
  20   0   1  221.18   12.10
 -20   0   1  225.88   11.80
 -20   0  -1  228.08   10.10
  20   0  -1  230.78   11.10
 -20   0  -1  209.28   10.70
 -20   0   1  221.18   10.30
 -20   0   2  121.79    7.50
 -20   0  -2  128.99    7.30
  20   0   2  131.99    9.50
  20   0  -2  112.69   10.60
 -20   0   2  116.99    8.70
 -20   0  -2  142.09    7.80
 -20   0   3   74.69    7.40
 -20   0  -3   72.09    5.20
  20   0  -3   72.99    5.20
 -20   0  -3   68.69    5.50
  20   0   3   74.99    7.90
 -20   0   3   68.39    5.70
 -20   0  -4   14.50    3.10
 -20   0  -4    1.80    2.50
 -20   0  -4    8.70    1.50
  20   0  -4    7.90    2.10
  20   0   4    6.40    4.10
  20   0   5   10.80    4.90
 -20   0   5    5.00    4.00
 -20   0  -5   10.40    3.40
 -20   0  -6    5.70    2.90
  20   0   6    5.20    3.70
 -20   0   6    2.00    3.60
 -20   0   7   44.60    7.80
  20   0   7   36.80    7.20
 -20   0  -7   36.80    6.20
 -20  -1   0   18.20    3.40
 -20  -1   0   15.30    4.00
 -20   1   0   22.90    4.50
 -20   1   0   12.20    3.00
  20   1   0   17.60    4.20
  20  -1   0   13.10    3.90
 -20   1  -1  233.48   11.50
 -20   1  -1  218.38   10.40
  20  -1  -1  225.68   11.60
 -20  -1   1  214.48   10.20
 -20  -1   1  228.88   12.00
  20   1   1  223.28   12.00
  20  -1   1  245.08   12.70
 -20  -1  -1  212.28   10.70
 -20   1   1  227.78   12.10
 -20   1   1  217.58   10.70
 -20  -1  -1  229.88    9.80
 -20   1  -2  110.19    7.00
  20   1   2  111.69    8.70
  20  -1  -2  112.39    7.60
 -20  -1   2  102.59    6.80
 -20  -1   2   95.09    8.10
 -20   1  -2  105.79    7.20
  20   1  -2  117.99    6.60
 -20  -1  -2  101.09    6.60
 -20   1   2  113.29    8.60
  20  -1   2  109.79    8.80
 -20   1   2  106.39    7.00
 -20  -1  -2  106.59    6.30
  20  -1  -3   95.69    6.70
 -20   1  -3   87.99    6.10
 -20  -1   3   89.19    4.60
 -20  -1   3   91.59    8.10
  20  -1  -3   78.39    6.00
 -20   1  -3   98.99    6.80
 -20  -1   3   88.89    6.50
  20   1   3  104.99    9.00
 -20   1   3   92.69    6.70
 -20  -1  -3  103.99    6.50
 -20   1   3   90.79    8.10
  20  -1   3   82.79    8.30
 -20  -1  -3   95.79    5.90
  20   1  -3  104.79    5.40
  20   1   4    1.30    3.10
 -20   1  -4    3.90    3.30
 -20   1  -4    1.50    2.50
 -20  -1   4    4.40    3.70
  20  -1  -4    2.70    1.90
 -20   1  -4    6.40    1.50
 -20   1   4    5.70    3.90
 -20  -1  -4    4.00    2.50
 -20  -1  -4    6.80    1.50
 -20  -1  -4    3.00    1.80
 -20   1  -5   55.69    7.10
  20   1   5   53.49    8.60
  20  -1  -5   42.00    4.10
 -20  -1   5   40.10    7.10
  20  -1   5   56.29    9.00
 -20  -1  -5   50.19    5.40
 -20   1   5   41.40    7.10
 -20  -1  -5   47.10    6.80
 -20  -1   6    3.00    3.70
  20   1   6    1.00    3.20
 -20   1  -6   -0.50    2.50
 -20   1   6    0.40    3.70
  20  -1   6    6.80    4.00
 -20  -1  -6    3.10    2.60
  20   1   7   -0.70    3.10
 -20  -1   7    9.20    4.80
 -20   1  -7    6.90    2.80
 -20   1   7    1.80    4.60
  20  -1   7   -4.60    2.70
 -20  -2   0   18.90    4.40
  20  -2   0   13.70    4.20
 -20   2   0   20.70    4.90
  20   2   0   12.30    3.50
 -20   2   0   19.80    3.40
 -20  -2   0   19.70    3.10
  20   2   1  360.26   16.00
 -20  -2   1  346.77   13.60
 -20   2  -1  358.06   15.70
  20  -2  -1  330.37   15.90
 -20  -2   1  332.67   15.90
 -20   2  -1  310.47   14.10
 -20  -2  -1  351.36   15.00
  20   2  -1  368.46   14.30
  20  -2   1  355.86   16.80
 -20   2   1  342.07   14.60
 -20  -2  -1  339.47   12.80
 -20   2   1  362.16   16.60
 -20  -2   2  155.28    8.40
 -20  -2   2  157.78   10.60
  20  -2  -2  161.58   10.20
  20   2   2  148.69   10.20
 -20   2  -2  177.28    9.80
 -20   2  -2  147.29    8.50
 -20  -2  -2  155.88    8.50
 -20   2   2  160.28   10.70
  20   2  -2  165.18    7.60
 -20  -2  -2  160.98    7.60
 -20   2   2  158.18    9.50
  20  -2   2  144.69   10.50
 -20  -2   3    0.80    3.20
 -20   2  -3    4.20    2.00
  20   2   3    0.80    3.30
 -20   2  -3   -1.10    1.80
 -20  -2   3    1.40    1.60
  20  -2  -3    3.70    2.30
  20  -2  -3    2.00    2.70
 -20   2   3   -1.30    3.40
 -20  -2  -3    3.00    1.90
 -20  -2  -3    2.90    1.80
  20  -2   3    0.90    2.80
  20  -2  -4    9.30    3.30
 -20   2  -4   10.90    2.30
 -20   2  -4    7.00    4.30
 -20  -2   4   17.40    5.10
 -20  -2  -4   11.00    2.10
 -20  -2  -4   13.30    2.80
 -20   2   4    5.50    3.80
 -20  -2  -4   18.80    3.60
  20  -2   4   11.20    4.70
  20   2   5    3.70    3.50
 -20   2  -5   12.60    4.10
  20  -2  -5    8.40    3.10
 -20  -2   5    5.80    4.10
 -20  -2  -5   15.80    3.60
  20  -2   5   12.20    4.70
 -20   2   5   11.90    5.20
  20   2   6   28.30    7.30
  20  -2  -6   19.70    4.00
 -20  -2   6   18.10    5.60
 -20   2  -6   23.90    5.00
  20  -2   6   22.50    6.40
 -20   2   6   33.60    6.90
 -20  -2  -6   30.40    5.00
 -20   2  -7   16.30    4.00
  20   2   7   17.80    8.60
  20  -2   7   10.00    7.90
 -20  -2  -7   16.40    3.90
 -20  -3   0   14.00    2.50
  20  -3   0   18.10    5.30
 -20   3   0   11.40    2.20
 -20  -3   0   15.50    4.40
  20   3   0   13.40    3.70
 -20   3   0    5.50    4.00
  20  -3  -1  192.88   12.10
  20   3   1  178.08   10.50
 -20  -3   1  188.98    8.70
 -20   3  -1  160.78   10.50
 -20  -3   1  190.98   11.90
 -20  -3  -1  165.68   10.30
 -20   3   1  173.88   11.50
  20  -3   1  186.58   12.10
 -20  -3  -1  181.38    7.70
 -20   3   1  178.88    9.70
  20   3  -1  183.28    8.80
 -20   3  -2   83.39    7.10
 -20  -3   2   93.99    8.60
 -20  -3   2   71.99    5.60
  20  -3  -2   88.19    8.30
  20   3   2   79.29    7.60
 -20   3   2   73.89    8.10
  20  -3   2  104.39    9.00
 -20  -3  -2   87.29    4.90
 -20  -3  -2   89.39    6.60
  20   3   3   55.09    7.70
 -20   3  -3   53.89    5.50
 -20  -3   3   74.69   11.00
  20  -3  -3   73.59    6.30
  20  -3  -3   72.29    7.40
 -20  -3   3   66.49    5.30
 -20  -3  -3   65.99    5.10
 -20   3   3   68.49   11.00
  20  -3   3   70.49    7.90
 -20  -3  -3   61.79    5.10
  20  -3  -4    4.60    3.30
 -20   3  -4    0.40    3.10
  20   3   4    0.00    2.80
 -20   3  -4   10.20    2.50
  20  -3  -4   -0.20    2.70
 -20  -3   4    3.30    4.20
 -20  -3  -4    1.80    1.90
 -20  -3  -4    4.90    1.50
  20  -3   4    0.80    2.80
 -20  -3  -4    3.90    2.20
 -20   3   4   -0.30    3.60
 -20  -3   5   27.30    6.40
  20   3   5   29.00    6.60
 -20   3  -5   33.10    6.10
  20  -3  -5   42.50    6.20
 -20  -3  -5   36.00    4.70
  20  -3   5   40.40    7.80
 -20   3   5   41.60    7.80
 -20   3  -6    2.90    3.00
  20  -3  -6    4.40    3.00
  20   3   6    3.90    3.30
 -20  -3   6   -4.50    2.60
 -20  -3  -6    2.60    2.40
 -20   3   6   -3.30    3.40
  20  -3   6    9.80    5.10
 -20  -3   7    0.60    3.20
 -20   3  -7    7.50    5.40
 -20   3   7    6.40    4.10
  20  -3   7    5.20    4.10
 -20  -3  -7    4.80    2.40
 -20   4   0  105.99    9.20
 -20  -4   0  115.89    9.40
  20  -4   0  114.99   10.00
 -20  -4   0  104.39    6.40
 -20  -4   1  107.99    6.40
 -20   4  -1  111.49    9.10
 -20  -4   1  122.69   10.00
  20  -4  -1  131.59   10.80
 -20   4   1  122.79   10.20
  20  -4   1  139.09   10.90
 -20  -4  -1  139.39    9.70
 -20  -4  -1  127.99    5.80
 -20  -4   2   64.49    5.10
 -20   4  -2   72.99    7.00
  20  -4  -2   84.69    8.50
 -20  -4   2   69.89   15.30
 -20  -4  -2   67.79    3.90
  20  -4   2   56.29    8.20
 -20  -4  -2   73.99    6.60
  20  -4  -3   49.90    5.60
  20  -4  -3   44.30    7.10
 -20  -4   3   49.10    4.80
 -20   4  -3   56.19    7.10
 -20  -4   3   48.90    8.20
 -20  -4  -3   49.30    5.10
 -20  -4  -3   41.50    3.70
 -20   4   3   59.19    8.80
 -20  -4  -3   48.70    3.40
  20  -4   3   44.30    7.40
  20  -4  -4   -1.70    4.50
 -20   4  -4    4.90    3.30
  20  -4  -4    3.10    3.00
 -20  -4   4   37.50    7.50
 -20   4  -4    5.00    2.20
 -20  -4  -4    6.80    2.00
 -20  -4  -4    6.80    1.80
 -20  -4  -4    3.00    1.80
  20  -4   4    2.80    3.80
 -20   4   4    0.60    3.80
 -20   4  -5    8.20    3.50
  20  -4  -5    2.80    2.50
 -20  -4   5    6.20    4.50
 -20   4   5    1.90    4.10
  20  -4   5    5.40    3.60
 -20  -4  -5    7.50    2.30
 -20   4  -6    0.70    2.70
 -20  -4   6    3.20    4.30
  20  -4  -6    8.40    3.40
  20  -4   6    4.00    4.30
 -20   4   6    0.20    4.40
 -20  -4  -6    4.90    2.60
 -20  -5   0   16.70    2.70
 -20  -5   0   16.40    3.50
  20  -5   0   18.20    5.70
 -20   5   0   18.80    5.90
 -20  -5   0   15.20    4.80
 -20  -5   1   98.09    5.80
 -20  -5   1  105.59    9.40
 -20   5  -1  105.59    9.10
  20  -5  -1  119.29   10.60
 -20  -5   1   94.09    5.20
  20  -5   1  105.19   10.30
 -20   5   1  109.99    9.80
 -20  -5  -1  101.99    4.80
 -20  -5  -1   99.39    8.30
 -20  -5   2   45.30    7.80
 -20  -5   2   45.60    4.10
 -20   5  -2   51.59    7.10
  20  -5  -2   49.30    7.90
 -20   5   2   42.60    7.80
 -20  -5  -2   50.49    6.90
  20  -5   2   47.30    7.80
  20  -5  -3   42.10    7.10
 -20   5  -3   53.19    7.50
  20  -5  -3   32.20    5.80
 -20   5  -3   41.10    6.10
 -20  -5   3   58.19    9.20
 -20   5   3   46.00    8.20
 -20  -5  -3   53.99    5.60
  20  -5   3   63.59   10.00
 -20   5  -4    4.40    2.60
  20  -5  -4   -1.20    2.80
 -20   5  -4    1.40    2.60
 -20  -5   4    6.50    4.30
 -20  -5  -4    4.10    1.90
 -20  -5  -4    2.10    1.20
  20  -5   4   11.90    5.10
 -20   5   4   -0.70    4.00
 -20  -5  -4    3.20    1.10
  20  -5  -5   17.10    4.50
 -20  -5   5   21.40    5.90
 -20   5  -5   17.90    4.50
 -20   5   5   19.00    6.10
 -20  -5  -5   22.10    2.90
  20  -5   5   15.80    5.50
 -20   5  -6   -0.70    2.80
 -20  -5   6    2.50    3.40
  20  -5  -6    6.60    3.10
  20  -5   6    0.50    3.50
 -20   5   6   -5.90    3.20
 -20  -5  -6    5.60    1.70
 -20  -6   0    4.70    2.20
 -20  -6   0    2.70    1.20
 -20  -6   0    1.40    3.20
 -20   6   0    1.20    3.70
  20  -6   0    5.90    4.30
 -20  -6   1  111.79    9.70
  20  -6  -1  123.59   11.20
 -20   6  -1  135.19   10.70
 -20  -6   1  105.59    6.00
  20  -6   1  127.99   11.60
 -20  -6  -1  118.39    7.50
 -20  -6  -1  129.39    9.40
 -20   6   1   99.19   10.20
 -20  -6   2   45.60    7.80
 -20  -6   2   50.69    4.20
  20  -6  -2   48.80    8.20
 -20   6  -2   46.40    7.10
  20  -6   2   43.50    8.40
 -20  -6  -2   59.79    6.00
 -20   6   2   53.29    9.10
 -20  -6   3    0.80    3.70
  20  -6  -3    4.90    3.80
 -20   6  -3    8.20    4.80
  20  -6   3    8.90    4.70
 -20  -6  -3    5.20    2.20
 -20   6   3   -4.50    3.30
 -20  -6  -3    0.40    2.50
  20  -6  -4    2.90    3.40
 -20   6  -4    8.20    3.70
 -20  -6   4    4.00    4.10
  20  -6   4    4.90    3.60
 -20   6   4   21.00    6.20
 -20  -6   5   21.30    5.90
  20  -6  -5    6.90    3.90
 -20   6  -5   13.80    4.20
 -20   6   5    1.60    4.10
  20  -6   5    2.90    4.20
  20  -7   0    7.30    4.30
 -20  -7   0    7.50    3.50
 -20   7   0   11.40    5.00
 -20  -7   1   69.79    4.10
 -20   7  -1   55.79    8.80
 -20  -7   1   69.39    7.80
  20  -7  -1   73.99   11.20
 -20  -7  -1   67.39    7.10
  20  -7   1   55.39   10.10
 -20  -7  -1   58.19    5.20
 -20   7   1   66.49   10.50
  20  -7  -2   28.20    6.40
 -20   7  -2   40.10    7.70
 -20   7  -2   29.60    6.20
 -20  -7   2   23.20    5.90
 -20  -7  -2   26.70    5.10
  20  -7   2   25.50    6.20
 -20   7   2   26.30    6.90
 -20  -7  -2   32.80    5.10
  20  -7  -3   19.70    6.60
 -20   7  -3   28.00    5.80
 -20  -7   3   30.10    7.00
  20  -7   3   17.50    5.60
 -20  -7  -3   15.80    3.80
 -20   7   3   20.90    6.40
 -20  -7  -3   26.10    4.30
 -20   8   0   21.80    5.60
  20  -8   0   26.70    6.30
 -20  -8   0    9.90    3.90
 -21   0   0    2.40    2.70
  21   0   0    1.50    2.70
 -21   0   0    3.30    1.70
 -21   0   1    1.50    2.80
 -21   0  -1    1.90    2.40
  21   0  -1   -0.30    2.20
  21   0   1    1.70    2.70
 -21   0   1    1.00    1.50
 -21   0  -2    2.70    2.40
 -21   0  -2   -0.80    1.50
 -21   0   2   -0.70    2.50
  21   0   2    1.40    2.70
  21   0  -2    0.70    2.10
 -21   0   2   -0.40    1.10
 -21   0  -3  251.67   11.70
  21   0   3  240.38   14.00
 -21   0   3  255.37   13.80
  21   0  -3  235.78   10.60
 -21   0  -3  251.37   10.90
  21   0  -4   95.99    5.30
 -21   0  -4   89.99    7.30
  21   0   4   98.99    9.40
 -21   0  -4   97.19    4.60
 -21   0   4   94.69    8.70
 -21   0  -4   99.89    8.60
 -21   0   5   22.70    5.60
  21   0   5   26.40    6.80
 -21   0  -5   15.40    3.70
  21   0   6    3.80    3.60
 -21   0  -6    9.00    3.70
 -21   0   6   16.30    4.70
 -21   0  -7  132.79    9.50
  21   0   7  126.49   11.70
 -21   0   7  106.99   10.50
  21   1   0    1.30    2.50
 -21   1   0    2.50    1.60
 -21   1   0    0.00    2.50
 -21  -1   0   -0.60    2.50
  21  -1   0    1.60    2.50
 -21   1  -1   50.39    5.70
 -21  -1   1   50.69    4.50
  21  -1  -1   51.89    5.70
 -21  -1   1   46.60    6.60
 -21   1  -1   55.79    4.70
  21   1   1   54.99    6.80
 -21   1   1   58.99    4.90
 -21  -1  -1   48.10    5.10
 -21  -1  -1   45.80    4.00
 -21   1   1   46.80    6.60
  21  -1   1   53.59    7.30
  21   1  -1   47.90    5.00
 -21  -1   2   56.99    5.20
  21   1   2   70.79    8.80
 -21  -1   2   50.79    6.90
 -21   1  -2   60.59    5.70
 -21   1  -2   83.29    5.80
  21  -1  -2   63.49    5.90
  21  -1   2   69.69    7.30
 -21  -1  -2   62.09    5.20
 -21   1   2   60.49    5.30
 -21  -1  -2   55.99    4.60
 -21   1   2   60.39    7.70
  21   1  -2   58.89    4.90
 -21  -1   3   44.70    4.80
  21   1   3   42.10    7.00
 -21   1  -3   48.10    4.70
  21  -1  -3   43.40    5.50
 -21  -1   3   42.60    7.20
 -21   1  -3   44.80    4.50
 -21  -1  -3   42.50    4.40
 -21  -1  -3   44.30    4.20
 -21   1   3   44.30    7.40
  21   1  -3   49.60    3.80
  21  -1   3   66.39    9.00
 -21   1  -4  113.39    5.60
  21  -1  -4  126.69    7.50
 -21  -1   4  131.49   10.00
 -21   1  -4  124.99    8.90
  21   1   4  141.49   10.90
 -21  -1  -4  123.19    8.00
  21  -1   4  118.69   10.30
 -21   1   4  121.99    9.90
 -21  -1  -4  126.29    7.70
 -21  -1  -4  132.89    5.70
 -21   1  -5   62.69    6.60
  21   1   5   85.99   10.80
 -21  -1   5   71.49    8.00
  21  -1  -5   62.99    6.00
  21  -1   5   42.00    7.40
 -21  -1  -5   63.49    6.10
 -21   1   5   64.39    8.70
 -21  -1   6   15.70    4.90
  21   1   6   16.50    6.20
 -21   1  -6   21.20    4.90
 -21   1   6   15.50    5.30
  21  -1   6   22.90    6.60
 -21  -1  -6   13.70    4.00
 -21   1  -7   10.20    3.50
 -21  -1   7    7.70    3.90
  21   1   7    4.90    4.90
 -21   1   7   -2.90    3.10
  21  -1   7    1.80    3.50
 -21  -1  -7   10.30    3.40
 -21  -2   0   -1.70    2.20
  21  -2   0   -0.70    2.20
 -21   2   0    1.10    1.30
 -21   2   0   -3.50    2.10
 -21  -2   0   -0.20    1.20
  21   2   0   -1.60    1.90
  21   2   1   85.39    7.30
 -21   2  -1   94.59    7.60
 -21  -2   1   87.89    5.80
 -21   2  -1   96.29    6.50
  21  -2  -1   76.69    7.40
 -21  -2   1   90.99    7.80
  21   2  -1  101.89    8.20
 -21  -2  -1   88.79    6.90
 -21   2   1   91.89    6.30
  21  -2   1   82.59    8.00
 -21  -2  -1   94.29    5.50
 -21   2   1  101.69    8.30
  21   2   2    1.70    2.90
 -21  -2   2    3.60    2.00
 -21   2  -2    2.30    2.00
 -21  -2   2    4.60    3.50
 -21   2  -2   -2.60    2.10
  21  -2  -2   -0.80    2.50
  21  -2   2   -1.20    2.80
  21   2  -2   -0.40    1.50
 -21   2   2   -1.10    3.00
 -21  -2  -2    1.90    2.10
 -21  -2  -2   -1.70    1.20
 -21  -2   3  130.39   10.30
  21   2   3  154.88   10.90
 -21  -2   3  144.29    8.50
  21  -2  -3  146.89    9.50
 -21   2  -3  154.18    8.60
 -21  -2  -3  146.19    7.60
 -21   2   3  138.99   10.60
  21  -2   3  141.19   12.40
 -21  -2  -3  145.49    7.60
 -21  -2   4   79.39    8.20
 -21   2  -4   77.49    4.70
  21  -2  -4   81.89    6.80
  21   2   4   80.79    8.50
 -21   2  -4   80.79    7.60
 -21  -2  -4   81.29    5.80
  21  -2   4   86.19    9.10
 -21  -2  -4   84.09    4.50
 -21   2   4   84.19    8.70
 -21  -2  -4   80.59    6.10
  21   2   5  102.79   10.10
  21  -2  -5  110.89    7.60
 -21   2  -5  113.89    9.00
 -21  -2   5  112.09    9.80
 -21  -2  -5  109.49    7.60
 -21   2   5  102.69    9.90
  21  -2   5  117.59   10.60
 -21   2  -6   12.00    4.10
 -21  -2   6   17.80    5.70
  21   2   6   10.20    5.00
  21  -2   6    8.50    4.90
 -21   2   6   20.00    5.80
 -21  -2  -6   19.90    4.30
  21   2   7   66.99    9.90
 -21   2  -7   84.79    8.00
 -21  -2   7   88.89    9.20
 -21   2   7   96.49   10.10
  21  -2   7   93.29   10.30
 -21  -2  -7   82.49    7.00
 -21  -3   0   -0.70    2.60
 -21   3   0   -1.10    3.00
 -21  -3   0    1.60    1.50
  21  -3   0    0.50    2.70
  21   3   0   -1.60    1.90
 -21   3  -1   39.60    6.30
  21  -3  -1   46.70    7.60
 -21  -3   1   36.40    4.00
 -21  -3   1   36.50    6.40
  21   3   1   38.90    6.20
 -21  -3  -1   31.40    3.20
  21   3  -1   38.70    4.10
 -21   3   1   40.10    7.00
  21  -3   1   34.40    6.70
 -21  -3  -1   43.70    6.10
 -21  -3   2   45.50    4.50
 -21   3  -2   48.30    6.60
  21  -3  -2   53.99    7.90
  21   3   2   39.40    6.40
 -21  -3   2   25.90    7.50
 -21  -3  -2   50.29    5.10
 -21  -3  -2   44.50    3.70
 -21   3   2   54.89   11.40
  21  -3  -3   36.20    6.20
 -21  -3   3   38.10    6.80
  21   3   3   34.50    6.60
 -21   3  -3   34.60    5.20
 -21  -3   3   33.40    4.90
 -21  -3  -3   32.60    3.40
 -21  -3  -3   28.00    4.00
  21  -3   3   37.90    7.30
 -21   3   3   34.40    6.80
  21   3   4   93.29    9.00
 -21  -3   4   79.69    8.60
 -21   3  -4   85.29    5.60
 -21   3  -4   83.99    8.10
  21  -3  -4   94.39    8.20
 -21  -3  -4   92.99    5.10
 -21   3   4   95.09    9.60
 -21  -3  -4   87.19    6.10
  21  -3   4   99.09    9.60
 -21  -3  -4   98.79    5.90
 -21  -3   5   57.89    8.20
 -21   3  -5   48.60    7.00
  21  -3  -5   57.59    6.30
  21   3   5   42.50    7.20
  21  -3   5   49.50    8.50
 -21   3   5   53.99    8.80
 -21  -3  -5   51.99    4.50
 -21  -3  -5   47.50    4.80
 -21   3  -6   11.50    3.70
  21   3   6   14.50    4.70
  21  -3  -6   29.50    4.90
 -21  -3   6   20.10    5.70
 -21  -3  -6   11.80    3.90
  21  -3   6   10.70    5.00
 -21   3   6   16.90    5.60
 -21  -4   0    3.30    1.60
 -21  -4   0   -1.30    2.90
 -21   4   0    1.10    3.40
 -21   4  -1    0.60    3.40
  21  -4  -1    1.70    3.90
 -21  -4   1    3.60    2.00
  21  -4   1    0.10    2.80
 -21  -4  -1    0.60    2.90
 -21  -4  -1    0.60    1.30
 -21  -4   2    1.70    1.60
  21  -4  -2    3.60    4.10
 -21   4  -2    4.00    2.80
 -21  -4   2    0.90    3.50
 -21  -4  -2    0.10    2.20
 -21  -4  -2    1.80    1.30
 -21   4   2   -2.20    3.10
  21  -4   2   -0.60    3.30
 -21  -4   3  171.38   12.40
 -21   4  -3  151.98    9.70
 -21  -4  -3  155.08    8.80
 -21   4   3  168.28   12.50
  21  -4   3  168.88   12.40
 -21  -4  -3  148.99    6.60
 -21  -4  -3  155.98    7.40
 -21  -4   4   50.19    8.30
  21  -4  -4   65.79    7.30
 -21   4  -4   75.69    9.60
 -21   4  -4   56.19    4.90
 -21  -4  -4   60.49    4.20
 -21  -4  -4   67.89    4.60
 -21   4   4   58.99    9.20
  21  -4   4   80.79   10.90
 -21  -4  -4   57.89    4.60
 -21   4  -5    2.20    3.20
 -21  -4   5    8.60    4.60
  21  -4  -5   14.80    4.40
 -21  -4  -5    9.90    2.70
 -21   4   5    9.10    4.80
 -21  -4  -5   13.20    2.30
  21  -4   5   14.00    4.90
 -21  -4   6    7.20    4.10
 -21   4  -6    5.10    3.00
  21  -4  -6   14.30    3.90
 -21  -4  -6    5.10    2.20
 -21   4   6    5.20    4.60
  21  -4   6    9.80    4.90
 -21   5   0    1.70    3.30
  21  -5   0    5.90    4.20
 -21  -5   0    0.90    1.80
 -21  -5   0    1.00    3.20
 -21  -5   0    1.00    1.50
 -21  -5   1   27.30    2.60
 -21  -5   1   27.40    6.50
  21  -5  -1   24.80    6.00
 -21  -5   1   22.60    3.20
 -21  -5  -1   24.80    2.80
 -21  -5  -1   20.20    5.70
 -21   5   1   20.30    5.70
  21  -5   1   19.00    6.00
 -21  -5   2   16.30    5.30
  21  -5  -2   18.70    5.40
 -21  -5   2   15.50    2.90
 -21   5  -2   18.20    4.80
  21  -5   2   22.20    6.20
 -21   5   2   27.00    6.60
 -21  -5  -2   16.90    4.30
  21  -5  -3   22.80    5.70
 -21   5  -3   14.70    3.90
 -21   5  -3   37.50    6.30
 -21  -5   3   24.00    6.30
 -21  -5  -3   19.00    2.30
  21  -5   3   16.20    5.50
 -21   5   3   17.80    6.30
 -21  -5  -3   19.20    1.90
 -21  -5  -3   21.50    4.10
 -21   5  -4   77.19    7.90
  21  -5  -4   75.49   10.10
 -21  -5   4   56.49    9.00
 -21   5  -4   55.39    5.20
 -21   5   4   41.10    8.00
  21  -5   4   55.59    8.50
 -21  -5  -4   54.19    4.90
 -21  -5  -4   60.49    3.40
 -21  -5  -4   53.79    3.50
  21  -5  -5   33.50    5.90
 -21  -5   5   38.80    7.80
 -21   5  -5   39.40    6.40
  21  -5   5   29.60    7.00
 -21   5   5   36.00    8.00
 -21  -5  -5   31.20    3.50
 -21  -5  -5   42.00    3.00
 -21  -6   0   -2.40    2.60
  21  -6   0    2.20    3.70
 -21  -6   0    4.20    1.80
 -21   6   0   -1.00    2.90
 -21  -6   1   27.80    6.50
 -21   6  -1   33.60    6.90
 -21  -6   1   34.60    3.00
  21  -6  -1   33.50    7.70
  21  -6   1   29.90    7.20
 -21  -6  -1   29.90    4.50
 -21   6   1   35.20    7.70
 -21  -6  -1   36.80    6.30
  21  -6  -2    2.80    3.70
 -21  -6   2    8.20    4.40
 -21   6  -2   -2.30    2.50
 -21   6   2    0.40    3.70
 -21  -6  -2   -1.40    2.00
 -21  -6  -2   -1.50    2.00
  21  -6   2   -2.70    2.70
 -21   6  -3   74.39    6.90
 -21  -6   3   54.49    8.70
  21  -6  -3   71.09   10.20
 -21   6  -3   66.49    9.30
  21  -6   3   45.50    8.70
 -21  -6  -3   46.90    6.40
 -21   6   3   69.49   10.30
 -21  -6  -3   75.99    6.20
  21  -6  -4   22.00    5.80
 -21   6  -4   46.90    7.00
 -21  -6   4   33.20    7.10
 -21   6   4   37.30    7.90
  21  -6   4   34.70    6.90
 -21  -7   0    1.10    3.00
 -21   7   0    5.90    3.80
  21  -7   0    1.10    4.20
 -21   7  -1    4.60    3.90
  21  -7  -1   -1.40    3.40
 -21  -7   1   -0.60    3.20
 -21   7   1    7.60    4.80
 -21  -7  -1    5.20    3.30
 -21   7  -2   14.70    4.30
 -21  -7   2   12.10    5.80
 -21   7   2   13.30    5.50
 -21  -7  -2   14.30    3.60
  21  -7   2   10.60    5.30
 -21  -7  -2   12.70    3.30
 -22   0   0  729.23   26.50
  22   0   0  732.53   26.80
 -22   0   0  717.23   25.10
 -22   0  -1   67.39    5.20
 -22   0   1   82.39    7.20
  22   0  -1   72.89    6.30
 -22   0   1   70.99    5.40
 -22   0  -1   78.39    6.50
  22   0   1   73.89    7.10
 -22   0   2    3.00    3.10
 -22   0  -2    8.60    3.00
 -22   0   2    8.40    3.00
 -22   0  -2    9.50    2.90
  22   0  -2    7.10    2.70
  22   0   2    3.60    3.40
 -22   0  -3   -1.10    1.70
  22   0  -3    5.50    3.60
 -22   0   3    1.80    3.20
  22   0  -4   12.20    2.30
 -22   0  -4   10.30    3.50
 -22   0  -4   13.90    2.00
 -22   0   4    8.60    4.10
  22   0   4   10.30    5.00
 -22   0   5    1.20    3.10
  22   0   5    5.40    3.80
 -22   0  -5    3.70    2.60
  22   0   6    6.30    3.80
 -22   0  -6    6.50    3.00
 -22   0   6    2.40    3.70
  22  -1   0  110.79    8.30
 -22  -1   0  116.09    8.20
 -22   1   0  106.39    8.20
 -22   1   0  102.89    6.80
  22   1   0   97.79    7.50
 -22  -1   1  143.99    8.00
  22   1   1  151.88    9.90
  22  -1  -1  144.59    9.30
 -22   1  -1  144.59    8.20
 -22   1  -1  150.28    9.20
 -22  -1   1  152.58    9.80
 -22   1   1  124.59    8.20
 -22  -1  -1  151.78    8.90
 -22   1   1  144.59    9.80
  22  -1   1  140.19   10.00
 -22  -1  -1  146.39    7.70
  22   1  -1  166.98    8.90
  22  -1  -2   28.40    4.80
 -22   1  -2   30.40    4.90
 -22  -1   2   21.40    5.00
 -22  -1   2   29.00    4.40
  22   1   2   34.80    6.30
 -22   1  -2   28.20    4.80
  22  -1   2   23.70    5.40
 -22  -1  -2   24.60    3.50
 -22   1   2   20.30    4.90
 -22  -1  -2   22.20    4.00
  22   1  -2   30.00    4.90
  22  -1  -3  123.49    7.70
 -22  -1   3  124.19    9.70
  22   1   3  113.39   11.40
 -22   1  -3  115.99    7.20
  22  -1   3  123.79   10.10
  22   1  -3  113.09    6.00
 -22  -1  -3  111.69    6.60
 -22   1   3  117.99    9.60
 -22  -1  -3  109.59    6.90
 -22   1  -4   35.80    6.00
 -22  -1   4   31.40    6.10
  22   1   4   32.50    6.50
  22  -1  -4   35.00    4.70
 -22   1  -4   34.20    2.70
 -22  -1  -4   39.20    2.80
  22  -1   4   28.90    6.30
 -22   1   4   32.10    6.80
 -22  -1  -4   27.10    4.50
 -22  -1   5   33.10    6.60
 -22   1  -5   12.20    4.00
  22   1   5   25.20    6.60
  22  -1   5   17.70    5.50
 -22  -1  -5   21.80    4.20
 -22   1   5   24.20    6.20
 -22  -1   6    2.90    3.40
  22   1   6    0.40    4.10
 -22   1  -6    0.30    1.90
 -22   1   6    6.60    4.30
 -22  -1  -6    5.10    4.20
  22  -1   6    4.40    4.00
  22   2   0  346.17   15.30
 -22   2   0  347.27   16.50
 -22  -2   0  350.06   13.70
  22  -2   0  377.96   17.50
 -22  -2   0  351.46   16.10
  22   2   1   13.60    4.10
 -22   2  -1   16.90    4.20
 -22  -2   1   21.30    3.50
  22  -2  -1   18.40    4.60
 -22  -2   1   12.70    4.30
  22  -2   1   15.60    5.00
 -22  -2  -1   16.40    4.00
 -22  -2  -1   17.50    3.00
  22   2  -1   21.30    3.90
 -22   2   1    6.40    4.00
 -22  -2   2   21.10    3.90
  22   2   2   17.80    4.80
 -22   2  -2   24.40    4.70
  22  -2  -2   20.30    5.00
 -22  -2  -2   17.30    3.60
  22   2  -2   19.00    3.10
 -22  -2  -2   17.60    2.90
 -22  -2   3   23.50    5.60
  22  -2  -3   24.70    4.80
 -22   2  -3   19.70    3.90
  22  -2   3   26.30    6.10
 -22  -2  -3   23.20    3.50
 -22   2   3   21.40    5.50
 -22  -2  -3   26.90    3.90
 -22   2  -4   54.79    3.80
  22  -2  -4   57.89    7.10
 -22  -2   4   51.59    7.80
 -22   2  -4   42.30    6.40
  22   2   4   48.30    7.90
 -22  -2  -4   39.90    3.30
 -22  -2  -4   43.40    4.90
 -22  -2  -4   56.69    4.70
  22  -2   4   44.90    7.90
 -22   2   4   65.29    8.70
  22   2   5    3.30    3.80
 -22   2  -5    2.80    3.00
 -22  -2   5    1.80    3.50
  22  -2  -5    9.20    2.70
 -22  -2  -5    4.70    2.60
  22  -2   5    6.90    4.60
 -22   2   5    2.90    3.90
  22   2   6   19.10    5.90
 -22   2  -6   21.00    4.80
 -22  -2  -6   25.60    4.60
 -22   2   6   22.90    8.80
  22  -2   6   18.80   10.40
  22   3   0   93.49    6.90
 -22   3   0  102.89    8.80
 -22  -3   0   89.79    5.60
  22  -3   0   95.29    8.80
 -22  -3   0   97.29    8.20
 -22   3  -1  127.39    9.30
 -22  -3   1  122.99    9.70
  22  -3  -1  129.89    9.90
  22   3   1  124.39    8.80
 -22  -3   1  136.99    7.40
 -22   3   1  120.69   10.40
  22  -3   1  123.69   13.00
  22   3  -1  122.69    8.70
 -22  -3  -1  128.79    8.80
 -22  -3  -1  127.29    6.50
  22   3   2   20.60    5.20
 -22  -3   2   16.70    3.30
 -22   3  -2   16.20    4.10
 -22  -3   2   14.20    4.70
  22  -3  -2   25.40    5.80
 -22  -3  -2   19.20    4.00
 -22  -3  -2   19.40    2.80
  22  -3   2   18.10    5.20
 -22   3   2   26.80    6.00
  22   3   3   76.09    7.90
 -22   3  -3   77.59    6.40
  22  -3  -3   75.59    7.50
 -22  -3   3   79.09    8.30
 -22  -3  -3   86.19    5.10
 -22   3   3   81.79    8.60
 -22  -3  -3   82.49    5.70
  22  -3   3   71.29   10.00
 -22   3  -4   31.90    5.60
  22  -3  -4   21.90    4.90
 -22  -3   4   27.10    6.30
  22   3   4   29.80    6.60
 -22   3  -4   29.40    5.80
 -22  -3  -4   21.00    3.60
  22  -3   4   23.90    5.70
 -22  -3  -4   29.40    3.30
 -22  -3  -4   25.00    4.40
 -22   3   4   32.90    7.00
  22  -3  -5   21.30    4.80
 -22  -3   5   12.00    5.00
  22   3   5   23.50    6.00
 -22   3  -5   20.70    5.20
 -22  -3  -5   14.50    3.40
  22  -3   5   14.20    5.50
 -22   3   5   24.10    6.50
 -22   3  -6    2.10    3.80
  22   3   6    1.80    2.80
 -22  -3   6    6.20    4.20
 -22  -3  -6   -2.70    1.90
 -22   3   6   -1.10    4.20
  22  -3   6    6.00    4.00
 -22  -4   0  426.66   15.50
  22  -4   0  439.76   21.00
 -22  -4   1   48.70    4.30
 -22  -4   1   47.10    7.80
 -22   4  -1   47.40    7.10
  22  -4  -1   46.50    8.00
 -22  -4  -1   43.20    3.40
 -22  -4  -1   54.09    7.20
  22  -4   1   42.30    7.10
 -22   4   1   45.70    7.70
 -22  -4   2    2.20    3.80
 -22  -4   2    5.40    2.00
  22  -4  -2    2.40    2.90
 -22   4  -2    2.00    2.80
 -22  -4  -2    4.10    1.40
 -22  -4  -2    0.10    2.20
 -22   4   2    1.10    3.70
  22  -4   2   10.70    4.40
 -22  -4   3    3.30    4.10
  22  -4  -3   -2.50    2.40
 -22   4  -3    5.10    2.10
  22  -4   3    5.70    3.80
 -22  -4  -3    4.00    2.10
 -22   4   3    2.20    4.30
 -22  -4  -3    3.10    1.70
 -22  -4  -3    4.90    1.40
 -22  -4   4    3.00    4.00
 -22   4  -4    7.70    4.00
  22  -4  -4    7.10    3.70
 -22   4  -4    6.50    3.20
 -22  -4  -4    7.30    2.30
 -22  -4  -4    8.10    1.80
  22  -4   4    9.50    4.30
 -22   4   4   13.30    5.30
  22  -4  -5    3.40    3.10
 -22   4  -5    4.10    3.10
 -22  -4  -5    0.90    2.00
 -22  -5   0   60.09    4.80
 -22  -5   0   57.19    8.10
 -22   5   0   59.99    8.80
 -22  -5   0   48.80    3.80
  22  -5   0   53.09    8.70
 -22  -5   1   73.99    5.00
 -22   5  -1   79.19    8.10
 -22  -5   1   72.29    9.70
  22  -5  -1   82.29   10.70
 -22   5   1   61.39    8.70
  22  -5   1   80.79   10.50
 -22  -5  -1   87.59    8.00
 -22  -5  -1   70.39    4.10
 -22  -5   2   16.10    4.90
 -22   5  -2   21.00    7.60
  22  -5  -2   15.90    5.60
  22  -5   2   15.10    5.20
 -22   5   2   12.70    5.10
 -22  -5  -2   16.10    2.00
 -22   5  -3   55.49    6.00
 -22   5  -3   64.39    9.10
  22  -5  -3   53.59    8.70
 -22  -5   3   58.39    8.90
 -22  -5  -3   55.39    5.30
  22  -5   3   70.69    9.90
 -22   5   3   54.09    9.00
 -22   5  -4   24.00    5.00
  22  -5  -4   20.70    5.30
 -22  -5   4   13.30    5.60
  22  -5   4   10.80    6.20
 -22   5   4   22.30    7.30
 -22  -5  -4   18.00    1.90
 -22  -5  -4   17.00    2.30
  22  -5  -5   13.70    4.10
  22  -5   5   18.30    5.30
 -22   6   0   89.79    9.40
 -22  -6   0   92.89    9.00
  22  -6   0   92.99   10.00
 -22  -6   1    6.70    4.30
  22  -6  -1    8.80    4.80
 -22   6  -1    2.40    3.60
 -22  -6   1    9.20    2.00
 -22  -6  -1    6.20    3.40
 -22  -6  -1   13.00    2.80
  22  -6   1   17.70    5.50
 -22  -6   2    7.20    4.30
 -22   6  -2    7.50    4.00
 -22   6  -2   10.20    3.40
  22  -6  -2    2.40    3.40
 -22  -6  -2    7.50    2.40
  22  -6   2    3.20    4.50
 -22   6   2    1.00    4.10
 -22  -6  -2    5.60    2.90
 -22   6  -3   20.00    4.00
  22  -6  -3    5.50    3.70
 -22  -6   3    3.50    6.40
 -22   6  -3   18.80    4.80
 -22  -6  -3   11.40    3.70
 -22   6   3    9.80    6.40
  22  -6   3    7.10    4.10
 -22   7   0   28.20    7.20
 -22  -7   0   48.60    7.90
  22  -7   0   49.40    9.30
  22  -7  -1   70.39   10.80
 -22   7  -1   58.19    8.50
 -22  -7   1   43.20    7.50
  22  -7   1   47.90    8.60
 -22   7   1   51.89    8.70
 -22  -7  -1   50.49    7.30
 -23   0   0    0.10    2.70
  23   0   0    2.50    2.30
 -23   0   0    2.40    1.30
 -23   0  -1   12.60    3.70
 -23   0   1   15.60    4.30
  23   0  -1   20.10    4.40
  23   0   1   18.70    4.80
 -23   0  -1   18.30    3.20
  23   0  -2   88.59    6.50
 -23   0  -2   74.09    7.50
 -23   0   2   99.49    8.50
 -23   0  -2   93.29    6.80
  23   0   2   97.99    8.70
 -23   0   3   19.80    5.10
 -23   0  -3   24.80    3.70
  23   0   3   26.20    5.70
  23   0  -3   27.80    3.90
  23   0  -4    2.20    1.90
 -23   0   4    3.80    3.80
  23   0   4    3.20    3.40
 -23   0  -4    1.80    2.30
  23   0   5  121.39   10.80
 -23   0  -5  114.09    8.50
 -23   0   5  115.89   10.20
 -23   0   6   25.10    6.00
 -23   0  -6   37.20    5.60
  23   0   6   33.40    7.60
  23  -1   0   -1.00    2.40
  23   1   0    0.20    2.50
 -23   1   0    2.90    3.10
 -23  -1   0    1.10    2.80
 -23  -1   0   -2.40    1.40
 -23   1  -1    2.30    2.90
  23  -1  -1    3.60    3.00
 -23  -1   1    5.80    2.10
 -23  -1   1    3.40    3.10
  23   1   1    0.10    2.50
 -23   1   1   -1.10    2.80
  23   1  -1    6.40    2.90
 -23  -1  -1    2.00    2.60
  23  -1   1    4.90    3.10
 -23  -1  -1    5.20    1.80
 -23  -1   2   79.69    7.90
  23   1   2   80.19    7.90
  23  -1  -2   95.09    7.00
 -23   1  -2   84.89    6.70
  23  -1   2   96.69   15.40
  23   1  -2   91.29    6.10
 -23  -1  -2   94.79    6.10
 -23  -1  -2   85.59    6.40
 -23   1   2   77.59    8.00
  23  -1  -3   29.00    4.70
 -23   1  -3   31.40    4.30
 -23  -1   3   29.50    6.10
  23   1   3   27.20    5.80
  23   1  -3   28.40    3.00
  23  -1   3   26.40    6.30
 -23  -1  -3   30.40    4.20
 -23   1   3   30.10    6.20
 -23  -1  -3   23.10    4.30
 -23   1  -4   91.39    8.00
 -23  -1   4  106.59    9.50
  23   1   4  119.09   10.00
  23  -1  -4  108.69    6.80
 -23   1   4  104.29    9.70
 -23  -1  -4  115.79    7.80
  23  -1   4  115.29   10.30
 -23  -1   5    2.90    3.90
 -23   1  -5    1.40    2.40
  23   1   5    7.10    4.20
 -23  -1  -5   -1.10    1.90
  23  -1   5   -1.80    3.00
 -23   1   5    4.00    4.20
  23   1   6   55.29    9.20
 -23  -1   6   54.39    8.20
 -23   1  -6   36.20    5.70
  23  -1   6   51.79    8.30
 -23  -1  -6   53.49    5.70
 -23   1   6   56.99    8.50
 -23  -2   0   -1.70    2.50
  23   2   0   -0.70    2.10
 -23   2   0    1.20    2.90
 -23  -2   0    1.00    1.50
  23  -2   0   -0.60    2.50
 -23  -2   1   13.80    5.20
 -23   2  -1    8.90    3.60
  23  -2  -1   11.10    4.00
  23   2   1    4.10    3.10
 -23  -2   1   14.70    3.00
  23  -2   1    7.30    5.40
 -23   2   1    6.60    4.50
  23   2  -1   10.20    2.80
 -23  -2  -1   11.10    2.60
 -23  -2  -1   13.40    3.80
 -23  -2   2    1.30    3.10
 -23   2  -2    2.80    2.70
  23  -2  -2   10.80    3.70
  23   2   2    8.30    3.40
 -23  -2  -2    2.40    2.00
  23   2  -2    3.60    2.10
 -23   2   2   10.20    4.50
  23  -2   2    3.00    3.10
 -23  -2  -2    4.60    2.10
  23  -2  -3   18.30    4.30
 -23  -2   3   22.70    5.80
  23   2   3   13.40    4.30
 -23   2  -3   20.60    3.90
  23  -2   3   18.30    5.10
 -23   2   3   20.70    5.60
 -23  -2  -3   26.30    3.70
 -23  -2  -3   28.20    4.10
 -23  -2   4   14.40    5.20
  23   2   4    9.20    4.00
 -23   2  -4    6.40    3.60
  23  -2  -4   11.00    3.50
 -23  -2  -4    9.40    3.00
  23  -2   4   14.50    5.10
 -23   2   4   12.90    4.90
  23   2   5  108.39   10.20
  23  -2  -5  106.59    7.50
 -23  -2   5  115.19   10.10
 -23   2  -5  100.19    8.50
  23  -2   5  107.39   10.40
 -23   2   5   97.49    9.90
 -23  -2  -5  103.89    7.50
 -23   2  -6   50.69    7.00
  23   2   6   65.69   10.00
 -23  -2   6   58.39    8.60
 -23   2   6   70.69    9.80
 -23  -2  -6   70.99    6.30
  23  -2   6   68.69    9.80
  23   3   0    1.40    2.10
 -23  -3   0   -0.80    3.00
 -23  -3   0    1.20    1.50
  23  -3   0   -0.80    2.90
 -23   3   0   -2.20    2.70
  23   3   1    2.30    2.40
 -23   3  -1    0.80    3.20
 -23  -3   1    6.50    2.10
 -23  -3   1    6.90    3.70
 -23  -3  -1    1.60    2.60
 -23   3   1    0.30    3.60
  23  -3   1    3.80    3.60
  23   3   2   59.79    6.80
 -23   3  -2   63.49    6.30
  23  -3  -2   77.19    7.80
 -23  -3   2   64.49    8.70
  23  -3   2   76.49   10.10
 -23  -3  -2   66.69    5.80
 -23   3   2   59.09    8.60
 -23  -3  -2   64.59    4.40
 -23  -3   3   20.30    5.60
 -23   3  -3   25.20    4.50
  23   3   3   19.00    4.80
  23  -3  -3   25.30    6.00
 -23   3   3   18.20    5.60
 -23  -3  -3   34.90    3.90
 -23  -3  -3   25.40    3.40
  23  -3   3   18.60    5.50
 -23  -3   4   93.89    9.40
  23   3   4   84.79    8.80
 -23   3  -4   91.19    8.40
 -23  -3  -4   83.69    5.90
 -23  -3  -4   83.79    6.20
 -23   3   4   71.29    9.80
  23  -3   4   90.69   11.50
 -23   3  -5   -3.60    2.50
  23  -3  -5    1.70    2.60
  23   3   5    2.70    3.30
  23  -3   5   -4.10    4.70
 -23  -3  -5    0.00    2.00
  23  -4   0    1.00    3.20
 -23  -4   0    4.50    1.70
 -23   4   0   -1.00    3.00
 -23  -4   0    2.30    3.20
 -23   4  -1    6.70    6.50
  23  -4  -1   12.40    4.60
 -23  -4   1   13.40    4.60
  23  -4   1    8.20    4.40
 -23   4   1   10.80    4.90
 -23  -4  -1   16.90    2.60
 -23   4  -2   67.29    6.80
  23  -4  -2   56.69    8.40
 -23  -4   2   75.49    9.60
 -23  -4  -2   55.39    3.80
  23  -4   2   57.49    8.90
 -23   4   2   59.69    8.90
 -23  -4  -2   57.59    5.70
  23  -4  -3   18.80    5.20
 -23  -4   3   16.60    5.60
 -23   4  -3   16.60    3.50
  23  -4   3   13.60    4.90
 -23  -4  -3   16.60    2.80
 -23   4   3   11.70    5.30
 -23  -4  -3   18.60    3.20
 -23  -4  -3   18.90    2.40
  23  -4  -4    7.70    3.30
 -23   4  -4    4.80    3.00
 -23  -4   4    1.50    3.70
 -23  -4  -4    1.60    1.30
  23  -4   4    1.30    3.20
 -23  -4  -4    2.50    1.60
 -23   4   4    2.60    4.30
 -23   4  -5   80.19    8.30
  23  -4  -5   80.99    7.60
 -23  -4   5   78.99    8.80
  23  -4   5   77.59   10.90
 -23   4   5   58.79    9.50
 -23  -4  -5   69.99    5.20
 -23  -5   0    5.80    3.60
 -23  -5   0    2.70    1.30
 -23   5   0    3.20    3.80
  23  -5   0    3.70    3.70
 -23  -5   0    2.30    1.80
 -23   5  -1   -0.20    2.90
  23  -5  -1    3.60    3.70
 -23  -5   1    8.50    1.90
 -23  -5   1    0.90    3.40
 -23  -5  -1    5.00    3.60
  23  -5   1    2.50    3.80
 -23   5   1    1.30    3.90
 -23  -5  -1    2.60    1.50
 -23  -5   2   32.70    7.00
  23  -5  -2   43.80    7.90
 -23   5  -2   41.80    6.30
 -23  -5  -2   39.20    2.70
 -23  -5  -2   39.00    5.80
 -23   5   2   38.00    7.30
  23  -5   2   48.90    8.70
 -23  -5   3   15.20    5.20
 -23   5  -3   23.30    4.80
  23  -5  -3   11.60    4.60
 -23   5  -3   11.40    4.00
 -23   5   3    5.50    4.80
 -23  -5  -3   16.30    1.70
  23  -5   3   16.30    5.30
 -23  -5  -3   17.10    4.00
  23  -5  -4   61.79    8.90
 -23  -5   4   53.79    8.80
 -23   5   4   41.30    8.60
 -23  -5  -4   48.80    3.00
 -23  -5  -4   43.40    3.10
  23  -5   4   69.89   10.40
  23  -6   0   -1.40    3.20
 -23  -6   0    2.90    2.90
 -23  -6   0    1.30    1.00
 -23   6   0   -1.20    3.00
  23  -6  -1    9.00    5.10
 -23   6  -1    9.20    3.80
 -23  -6   1    6.80    4.30
 -23   6   1   -0.90    4.10
 -23  -6  -1    4.60    3.00
  23  -6   1    6.80    4.90
  23  -6  -2    7.50    4.70
 -23   6  -2    4.50    3.50
 -23   6  -2    7.80    3.10
 -23  -6  -2    6.50    2.20
 -23   6   2    0.60    5.00
 -23  -6  -2    7.70    2.50
  23  -6   2    9.30    4.00
  24   0   0   53.29    7.20
 -24   0   0   60.29    6.30
  24   0   1    4.20    3.30
 -24   0  -1    5.30    2.80
 -24   0   1    9.70    4.10
  24   0  -1    9.30    3.10
  24   0   2  348.67   17.40
  24   0  -2  357.66   14.90
 -24   0   2  372.66   17.40
 -24   0  -2  350.46   15.10
  24   0   3    5.40    3.90
 -24   0  -3    4.80    2.30
 -24   0   3    1.30    3.20
  24   0  -3    5.00    2.30
 -24   0   4    2.60    3.50
 -24   0  -4   -1.00    2.10
  24   0   4    6.00    4.00
  24   0   5    8.30    4.50
 -24   0   5    9.10    4.40
 -24  -1   0    8.90    3.50
 -24   1   0    7.50    3.50
  24  -1   0   11.30    4.00
  24   1   0   14.80    4.20
  24  -1  -1   71.09    6.90
 -24   1  -1   80.39    7.00
 -24  -1   1   87.49    7.60
  24   1   1   73.49    7.20
 -24   1   1   75.99    7.30
 -24  -1  -1   77.99    6.60
  24   1  -1   71.19    6.00
 -24  -1  -1   68.19    6.70
  24   1   2   46.90    7.10
 -24   1  -2   43.90    5.80
 -24  -1   2   38.20    6.80
  24  -1  -2   38.40    5.60
 -24  -1  -2   38.10    5.00
  24   1  -2   35.00    4.70
  24  -1   2   38.20    6.40
 -24   1   2   29.20    5.90
  24  -1  -3   44.50    4.80
 -24  -1   3   34.80    6.50
  24   1   3   48.80    7.60
 -24   1  -3   52.29    4.80
 -24   1   3   36.90    6.60
  24  -1   3   40.40    6.90
 -24  -1  -3   44.80    4.30
  24   1  -3   38.40    3.80
 -24   1  -4   -1.80    2.00
 -24  -1   4    2.50    3.80
  24  -1  -4    3.40    2.60
  24   1   4   -2.00    2.20
 -24  -1  -4    4.60    2.50
  24  -1   4   -3.40    3.00
 -24   1   4    0.40    3.50
 -24  -1   5   10.20    4.70
  24   1   5    5.60    3.90
 -24   1  -5   12.00    5.00
 -24  -1  -5    4.10    2.60
 -24   1   5    6.80    4.40
  24  -1   5    4.80    4.10
 -24   2   0  121.39   11.70
 -24  -2   0  124.99    7.20
 -24  -2   0  118.59   10.20
  24   2   0  130.59    8.30
  24  -2   0  139.19   12.80
 -24   2  -1   11.60    3.90
 -24  -2   1    4.20    3.50
  24  -2  -1    2.70    2.80
  24   2   1    3.00    2.90
 -24  -2  -1    3.40    1.50
 -24  -2  -1    4.50    3.20
  24  -2   1   -1.50    3.00
 -24   2   1    0.20    2.90
  24   2  -1    4.40    2.20
 -24   2  -2  283.87   13.60
 -24  -2   2  271.97   15.00
  24   2   2  259.27   14.40
  24  -2  -2  286.87   14.30
 -24  -2  -2  270.27   11.50
  24  -2   2  284.87   15.80
  24   2  -2  270.37   11.00
 -24  -2  -2  266.37   12.50
 -24   2   2  279.47   15.30
 -24  -2   3   21.00    5.70
  24   2   3   21.60    5.10
  24  -2  -3   36.40    5.80
 -24   2  -3   29.70    4.30
 -24  -2  -3   21.10    3.60
  24  -2   3   30.40    6.30
 -24   2   3   22.70    5.80
  24   2   4    1.60    3.50
 -24  -2   4    0.50    3.40
 -24   2  -4    3.10    2.80
  24  -2  -4    8.20    2.90
  24  -2   4    3.10    3.90
 -24  -2  -4    2.30    2.10
 -24   2   4    2.60    3.50
  24   2   5   16.00    5.20
 -24  -2   5   12.20    5.80
 -24  -2  -5   13.70    3.40
  24  -2   5    9.70    6.80
 -24   2   5    9.50    6.80
 -24  -3   0   15.70    3.00
 -24  -3   0   14.60    4.40
  24   3   0   14.80    3.40
  24  -3   0   12.50    4.50
 -24   3   0   11.40    4.30
 -24  -3   1   60.39    8.20
  24   3   1   60.69    6.10
 -24   3  -1   64.79    9.00
  24  -3  -1   67.39    7.40
  24  -3   1   73.69    9.90
 -24  -3  -1   56.49    4.40
 -24  -3  -1   70.29    6.50
 -24   3   1   69.09    8.80
 -24   3  -2   30.30    5.40
  24  -3  -2   29.70    5.40
  24   3   2   30.40    5.40
 -24  -3   2   20.80    5.40
  24  -3   2   32.40    6.60
 -24  -3  -2   25.60    4.30
 -24  -3  -2   26.90    3.00
 -24   3   2   23.10    5.70
 -24  -3   3   25.50    6.10
  24  -3  -3   37.20    5.90
  24   3   3   33.80    6.50
 -24   3  -3   39.70    4.50
 -24  -3  -3   37.10    3.50
  24  -3   3   34.40    7.40
 -24  -3  -3   37.40    3.80
 -24   3   3   38.50    7.10
 -24  -3   4    3.90    3.60
  24  -3  -4    3.90    2.90
 -24   3  -4    6.80    3.20
  24   3   4   -1.00    3.00
  24  -3   4    5.20    3.90
 -24   3   4    1.10    3.90
 -24  -3  -4    0.00    2.20
  24   3   5    6.90    5.10
 -24  -3   5   10.70    4.50
 -24   3  -5    8.30    3.50
  24  -3  -5    8.60    3.80
 -24  -3  -5    1.70    1.90
  24  -3   5   14.10    4.90
 -24   3   5    3.20    3.60
  24  -4   0   33.50    7.20
 -24  -4   0   30.00    3.30
 -24   4   0   24.80    5.50
 -24  -4   0   30.20    5.80
  24  -4  -1    4.10    3.10
 -24   4  -1    4.50    3.50
 -24  -4   1    0.10    3.30
 -24   4   1    5.00    3.90
  24  -4   1    3.10    3.60
 -24  -4  -1    3.60    3.10
 -24  -4  -1    3.20    1.40
 -24  -4   2  206.58   13.70
 -24   4  -2  220.88   14.20
  24  -4  -2  255.37   14.60
  24  -4   2  234.58   15.20
 -24  -4  -2  217.98    9.00
 -24   4   2  230.98   14.70
 -24  -4   3   -0.20    3.20
 -24   4  -3    3.90    2.80
  24  -4  -3    1.20    2.80
 -24   4  -3    3.50    2.20
 -24  -4  -3    4.20    2.10
 -24  -4  -3    2.50    1.10
 -24   4   3   -0.80    3.40
 -24  -4  -3    1.20    1.60
  24  -4   3    2.50    4.40
  24  -4  -4    7.60    3.70
 -24  -4   4   -0.50    3.10
 -24   4  -4    7.80    3.50
  24  -4   4   -1.00    3.10
 -24  -4  -4    1.50    1.90
 -24   4   4    0.60    3.90
 -24   5   0    0.90    3.30
 -24  -5   0   10.00    1.90
  24  -5   0   -0.20    2.90
 -24  -5   0   10.00    4.20
 -24  -5   1   35.90    6.70
  24  -5  -1   40.80    7.50
 -24   5  -1   38.10    6.50
 -24  -5  -1   42.50    3.70
 -24   5   1   51.09    8.00
  24  -5   1   46.00    8.00
 -24  -5  -1   44.70    6.60
 -24   5  -2   22.10    4.50
 -24  -5   2   18.60    5.40
  24  -5  -2   26.40    5.80
  24  -5   2   21.80    6.20
 -24   5   2   30.20    6.50
 -24  -5  -2   22.70    4.40
 -24  -5  -2   29.10    2.40
  24  -5  -3   22.80    5.40
 -24  -5   3   24.00    5.90
 -24   5  -3   21.30    5.40
  24  -5   3   18.10    5.30
 -24   5   3   11.00    4.90
 -24  -5  -3   19.60    2.40
 -24  -5  -3   25.00    4.70
 -24  -6   0   50.09    7.40
 -24   6   0   43.40    7.40
  24  -6   0   38.20    7.70
 -24  -6   0   39.00    2.80
 -24  -6   1    4.70    4.30
 -24   6  -1   10.30    3.80
  24  -6  -1    2.30    3.50
  24  -6   1   10.80    4.90
 -24   6   1    2.10    3.60
 -25   0   0    2.10    3.50
  25   0   0    1.60    2.50
 -25   0   1    5.50    3.80
  25   0  -1    3.70    2.60
 -25   0  -1    3.90    2.70
  25   0   1    2.40    2.40
 -25   0  -2   -0.30    2.00
  25   0   2    1.20    2.80
 -25   0   2    0.10    3.20
  25   0  -2    2.10    2.10
  25   0   3    4.70    3.50
  25   0  -3   10.20    2.70
 -25   0  -3   12.30    2.60
 -25   0   3    5.30    4.10
 -25   0  -4    4.90    3.10
  25   0   4    3.60    4.00
 -25   0   4    5.30    4.30
 -25   0  -5   89.29    7.60
  25   0   5   82.09    8.90
 -25   0   5  104.39    9.80
 -25   1   0   -3.20    2.20
 -25  -1   0   -1.10    2.30
  25   1   0    0.60    2.30
 -25   1  -1   20.70    4.70
  25   1   1   25.00    6.10
  25  -1  -1   22.40    4.70
 -25  -1   1   16.60    4.90
 -25  -1  -1   15.70    3.90
  25  -1   1   21.60    5.10
  25   1  -1   21.90    4.10
 -25   1   1   26.40    5.80
  25  -1  -2   78.09    6.80
 -25  -1   2   79.89    8.10
 -25   1  -2   86.39    6.80
  25   1   2   77.89    7.60
  25   1  -2   79.59    5.70
 -25   1   2   74.29    9.20
 -25  -1  -2   80.89    6.30
  25  -1   2   78.79    8.20
 -25  -1   3    8.10    4.30
  25   1   3    3.70    3.40
 -25   1  -3    5.90    2.00
  25  -1  -3    6.90    2.80
 -25  -1  -3    5.90    2.00
  25  -1   3    3.50    3.60
 -25   1   3    4.10    3.70
 -25   1  -4  122.89    9.10
  25   1   4  123.89   10.30
 -25  -1   4  121.19   10.40
 -25   1   4  116.59   10.40
  25  -1   4  116.29   10.30
 -25  -1  -4  125.19   10.00
  25   1   5    5.00    3.30
 -25   1  -5    8.70    3.10
 -25  -1   5    7.90    4.00
 -25  -1  -5    4.70    2.50
 -25   1   5    4.30    4.20
  25  -1   5   -1.90    3.00
 -25   2   0    2.10    3.10
  25   2   0    0.20    2.00
  25  -2   0    4.60    3.30
 -25  -2   0   -4.10    2.10
 -25   2  -1   62.39   10.90
  25  -2  -1   58.79    7.70
 -25  -2   1   46.90    6.90
  25   2   1   48.90    6.60
 -25   2   1   43.70    6.90
  25   2  -1   47.30    4.70
  25  -2   1   49.50    7.60
 -25  -2  -1   45.00    6.80
 -25  -2   2    2.00    3.60
  25   2   2   -0.20    2.50
 -25   2  -2    2.40    2.40
 -25   2   2    2.30    3.70
  25  -2   2   -0.90    3.20
 -25  -2  -2    1.40    1.80
  25  -2  -3   18.10    4.20
 -25  -2   3   15.20    5.10
 -25   2  -3   18.30    3.30
  25   2   3   21.20    5.10
  25  -2   3    9.10    4.30
 -25   2   3   17.20    5.10
 -25  -2  -3   17.90    3.00
  25   2   4    7.10    3.40
  25  -2  -4    3.90    3.10
 -25  -2   4    2.40    3.90
 -25   2  -4   14.70    4.00
  25  -2   4    8.50    4.50
 -25   2   4    2.10    4.00
 -25  -2  -4   11.30    3.20
  25   2   5    9.60    4.50
 -25  -2   5   26.90    5.90
 -25   2   5   21.00    6.10
  25  -2   5   19.40    4.80
  25  -3   0   -0.30    2.50
 -25  -3   0    4.60    3.20
  25   3   0    1.90    2.30
 -25   3   0   -0.70    3.30
 -25  -3   1   15.50    4.70
  25   3   1   10.90    3.50
  25  -3  -1   17.30    4.70
 -25   3  -1   16.10    4.50
 -25   3   1   18.80    5.20
 -25  -3  -1   16.70    3.90
  25  -3   1   16.00    5.20
 -25   3  -2   59.99    8.10
  25   3   2   54.29    7.10
  25  -3  -2   77.99    7.40
 -25  -3   2   59.39    8.30
  25  -3   2   56.79    9.20
 -25  -3  -2   51.69    5.30
 -25   3   2   67.49    8.90
 -25  -3   3    1.20    2.80
  25  -3  -3    2.40    2.80
 -25   3  -3    5.20    2.50
  25   3   3    2.70    3.20
 -25  -3  -3    1.90    1.60
  25  -3   3   -0.30    3.30
 -25   3   3    5.10    3.70
  25   3   4   94.99    9.00
  25  -3  -4   87.19    7.70
 -25  -3   4   98.39    9.60
 -25  -3  -4  106.99    6.90
  25  -3   4  104.29   10.20
 -25   3   4   92.89    9.60
 -25   4   0    0.30    3.20
 -25  -4   0    8.90    3.70
  25  -4   0    2.00    3.70
  25  -4  -1    3.90    3.70
 -25   4  -1    6.10    2.90
 -25  -4   1    1.80    3.50
 -25   4   1    7.80    4.60
 -25  -4  -1    0.70    1.20
  25  -4   1   -3.40    2.60
 -25  -4  -1    2.80    2.70
 -25  -4   2   -1.50    2.80
 -25   4  -2    2.60    2.70
  25  -4  -2   -2.80    2.40
 -25  -4  -2    2.40    1.30
 -25   4   2    4.00    3.90
  25  -4   2    5.40    3.80
 -25  -4  -2    2.20    2.20
 -25  -4   3    7.40    5.00
 -25   4  -3    2.50    2.70
  25  -4  -3   13.30    4.40
  25  -4   3    0.20    3.80
 -25  -4  -3    8.20    2.30
 -25   4   3   12.50    5.80
  25  -5   0   -1.10    2.80
 -25  -5   0    2.70    2.80
 -25   5   0    1.30    3.20
  25  -5  -1   14.30    4.80
 -25   5  -1    9.80    3.50
 -25  -5   1   12.20    3.90
  25  -5   1    1.40    6.20
 -25  -5  -1    9.10    1.80
 -25  -5  -1   10.20    3.40
 -25   5   1    6.20    4.00
 -25  -5   2   43.30    7.30
 -25   5  -2   39.50    5.50
  25  -5  -2   32.30    6.30
 -25  -5  -2   43.90    6.00
  25  -5   2   35.80    6.90
 -25  -5  -2   40.90    2.80
 -25   5   2   23.50    6.60
  26   0   0  266.57   15.20
 -26   0   0  293.57   14.60
  26   0  -1   -0.30    2.40
 -26   0  -1   -4.10    2.10
  26   0   1   -1.90    2.60
 -26   0   1    0.50    2.90
 -26   0  -2   99.39    7.00
  26   0  -2   89.89    6.60
  26   0   2   83.99    8.10
 -26   0   2   90.09    8.70
  26   0   3   -2.40    2.70
 -26   0   3    2.10    3.40
 -26   0  -4   46.50    6.30
 -26   0   4   49.99   10.90
  26   0   4   57.29    9.30
 -26  -1   0    0.20    2.70
 -26   1   0   -3.40    2.60
  26   1   0   -1.50    2.00
  26  -1   0    0.60    2.60
 -26   1  -1   31.80    5.20
  26  -1  -1   36.80    5.40
 -26  -1   1   36.40    6.20
  26   1   1   37.70    6.20
 -26   1   1   28.60    5.90
  26  -1   1   32.90    6.20
  26   1  -1   39.50    5.40
 -26  -1  -1   31.40    5.00
  26  -1  -2    7.00    2.80
  26   1   2    0.10    2.70
 -26   1  -2    8.50    2.90
 -26  -1   2    2.80    3.20
  26   1  -2    0.40    2.00
  26  -1   2    3.80    2.90
 -26   1   2   -3.70    2.80
 -26  -1  -2    1.70    2.10
  26  -1  -3   41.90    5.70
  26   1   3   26.70    5.60
 -26  -1   3   45.30    7.30
 -26   1   3   32.00    6.70
  26  -1   3   42.30    7.50
  26   1   4   -1.80    2.90
 -26  -1   4   -0.40    3.60
 -26   1  -4    5.60    2.60
 -26  -1  -4    9.20    2.80
 -26   1   4   -3.00    3.20
 -26   2   0  390.66   18.40
  26   2   0  389.36   16.70
 -26  -2   0  415.46   18.40
  26  -2   0  408.46   19.20
  26   2   1   11.50    3.60
  26  -2  -1   12.90    4.20
 -26  -2   1    5.00    3.30
 -26   2  -1    6.70    3.20
 -26  -2  -1    7.40    3.00
  26  -2   1    7.40    3.90
 -26   2   1    8.20    4.20
  26   2  -1    7.90    2.90
 -26  -2   2   57.69    7.70
  26   2   2   58.29    6.60
 -26   2  -2   55.19    7.80
  26  -2  -2   66.49    6.60
 -26   2   2   55.79    8.00
  26  -2   2   60.39    8.40
 -26  -2  -2   50.99    5.30
  26  -2  -3   18.80    4.30
  26   2   3    9.80    3.50
 -26  -2   3   19.00    5.30
  26  -2   3   17.70    5.50
 -26   2   3   14.50    5.20
 -26  -2   4   19.30    5.60
 -26   2  -4   29.10    5.70
 -26   2   4   15.60    5.50
  26  -2   4   20.10    4.90
 -26  -2  -4   23.20    3.90
 -26   3   0    4.10    3.80
 -26  -3   0   -0.50    2.70
  26   3   0    0.20    2.60
  26  -3   0    6.00    3.20
 -26  -3   1   27.20    5.60
  26  -3  -1   29.00    5.80
 -26   3  -1   22.80    4.50
  26   3   1   26.50    4.80
 -26  -3  -1   26.30    4.50
  26  -3   1   24.50    6.30
 -26   3   1   27.10    6.10
 -26  -3   2   -1.70    2.90
 -26   3  -2    9.10    2.80
  26   3   2   -0.80    2.30
  26  -3  -2    2.30    2.90
 -26   3   2    1.00    3.40
  26  -3   2    0.80    3.00
 -26  -3  -2    7.40    2.60
  26  -3  -3   29.70    5.70
 -26  -3   3   28.30    7.50
  26   3   3   36.10    6.00
 -26   3   3   32.00    7.00
  26  -3   3   42.40    8.50
 -26   4   0  154.68   11.10
 -26  -4   0  155.78   10.60
  26  -4   0  147.49   11.60
  26  -4  -1    1.90    2.60
 -26   4  -1   -3.50    2.50
 -26  -4   1    3.80    3.40
  26  -4   1    0.40    2.80
 -26  -4  -1    1.90    2.00
 -26   4   1    1.80    3.60
 -26   4  -2   60.19    6.10
 -26  -4   2   66.99   13.50
  26  -4  -2   60.29    8.60
 -26   4   2   52.69    9.90
 -26  -4  -2   69.59    5.80
  26  -4   2   78.09   10.00
  27   0   0    5.90    2.80
 -27   0   0    5.90    3.10
  27   0  -1   12.10    3.70
  27   0   1    6.80    3.50
 -27   0  -1    7.20    3.00
 -27   0   1   11.10    4.00
 -27   0   2   16.60    4.70
  27   0   2   11.80    4.50
  27   0  -2   13.00    3.20
  27   0   3   45.80    7.30
  27  -1   0    3.20    2.50
 -27  -1   0   -2.10    2.50
  27   1   0    3.50    2.60
 -27   1   0    0.30    2.70
  27   1   1   17.30    4.50
 -27  -1   1   17.90    4.40
 -27   1  -1   12.90    3.70
  27  -1  -1   20.80    4.40
  27  -1   1   23.80    5.30
 -27  -1  -1   11.30    3.50
  27   1  -1   16.30    3.70
 -27   1   1   21.00    5.10
 -27   1  -2   79.79    6.20
  27   1   2   52.69    7.20
 -27  -1   2   78.29    7.90
  27  -1  -2   62.69    6.10
  27  -1   2   72.89    8.00
 -27  -1  -2   70.29    6.70
 -27   1   2   73.49    8.00
 -27  -1   3    9.30    7.10
  27   1   3    4.10    2.90
 -27   1   3    5.20    7.30
 -27   2   0   -0.30    2.70
  27  -2   0    3.10    2.80
 -27  -2   0    2.30    2.60
  27   2   1   11.00    3.20
 -27  -2   1    1.70    3.30
  27  -2  -1    8.80    3.10
 -27   2  -1   10.10    3.40
 -27  -2  -1    4.80    2.60
 -27   2   1   -2.00    3.30
  27  -2   1    8.50    4.00
  27  -2  -2    0.90    2.50
 -27   2  -2    6.00    2.10
 -27  -2   2    3.20    3.50
  27   2   2    1.50    2.90
 -27  -2  -2    5.10    2.60
 -27   2   2    4.30    4.00
  27  -2   2    7.00    3.70
 -27  -2   3   36.60    6.90
  27  -2  -3   34.50    5.70
  27   2   3   31.50    6.10
  27  -2   3   45.90    6.90
 -27   2   3   26.00    6.40
  27  -3   0    3.80    3.40
 -27   3   0    3.00    2.90
 -27  -3   0    3.30    2.70
  27   3   1   17.00    3.70
  27  -3  -1   14.20    4.00
 -27   3  -1   20.00    4.10
 -27  -3   1   22.30    5.20
  27  -3   1   12.40    4.90
 -27   3   1   14.80    4.80
 -27  -3  -1   21.50    4.30
  27   3   2   62.79    6.30
  27  -3  -2   62.99    6.90
 -27   3  -2   67.59    5.90
 -27  -3   2   44.40    8.90
 -27  -3  -2   57.89    5.30
  27  -3   2   51.19    8.10
 -27   3   2   36.90    7.90
 -28   0   0  152.48   10.20
  28   0   0  157.48   10.10
 -28   0  -1    7.70    3.20
 -28   0   1   11.80    4.20
  28   0   1    9.30    3.60
  28   0  -1    9.60    3.30
 -28   0  -2   63.19    5.50
  28   0   2   61.99    8.50
 -28  -1   0    4.80    2.70
 -28   1   0   -5.70    2.20
  28   1   0    1.00    2.40
  28  -1   0    7.00    3.20
  28   1   1   28.60    5.10
  28  -1  -1   47.10    6.70
 -28  -1   1   30.60    6.10
 -28   1  -1   30.50    5.00
 -28  -1  -1   49.90    5.30
 -28   1   1   46.80    7.40
  28  -1   1   47.00    6.90
  28   1  -1   42.40    6.30
 -28  -1   2   31.70   10.10
  28   1   2   17.30    3.90
  28  -1  -2   21.00    4.30
  28  -1   2   19.20    4.80
 -28   1   2   25.20    9.10
 -28  -1  -2   30.60    4.50
 -28  -2   0   86.19    7.60
 -28   2   0  103.79    8.60
  28  -2   0   92.39    8.50
  28   2   0   81.19    7.00
 -28  -2   1    7.40    3.10
  28  -2  -1    5.60    3.30
 -28   2  -1    3.50    2.60
  28   2   1    0.80    2.40
 -28  -2  -1    9.30    3.20
  28  -2   1    6.40    3.80
 -28   2   1    5.00    3.20
   0   0   0    0.00    0.00

_computing_structure_solution     'SHELXT 2018/2 (Sheldrick, 2018)'
;
_shelx_hkl_checksum              58193
_olex2_submission_special_instructions 'No special instructions were received'
loop_
_space_group_symop_operation_xyz
'x, y, z'
'-x+1/2, -y, z+1/2'
'-x, y+1/2, -z'
'x+1/2, -y+1/2, -z+1/2'
'-x, -y, -z'
'x-1/2, y, -z-1/2'
'x, -y-1/2, z'
'-x-1/2, y-1/2, z-1/2'
loop_
_atom_site_label
_atom_site_type_symbol
_atom_site_fract_x
_atom_site_fract_y
_atom_site_fract_z
_atom_site_U_iso_or_equiv
_atom_site_adp_type
_atom_site_occupancy
_atom_site_site_symmetry_order
_atom_site_calc_flag
_atom_site_refinement_flags_posn
_atom_site_refinement_flags_adp
_atom_site_refinement_flags_occupancy
_atom_site_disorder_assembly
_atom_site_disorder_group
Eu1 Eu 0.51920(2) 0.250000 0.20500(5) 0.02405(10) Uani 1 2 d S T P . .
Rb1B Rb 0.29096(13) 0.250000 0.5015(10) 0.0334(6) Uani 0.739(17) 2 d S T P . .
P1 P 0.59651(8) 0.250000 0.7217(2) 0.0167(3) Uani 1 2 d S T P . .
S1 S 0.66161(8) 0.250000 0.4612(2) 0.0246(3) Uani 1 2 d S T P . .
S2 S 0.61878(6) 0.49552(14) 0.89933(17) 0.0244(2) Uani 1 1 d . . . . .
S3 S 0.48073(8) 0.250000 0.6593(3) 0.0308(3) Uani 1 2 d S T P . .
Rb1A Rb 0.2922(4) 0.250000 0.5627(16) 0.0334(6) Uani 0.261(17) 2 d S T P . .
loop_
_atom_site_aniso_label
_atom_site_aniso_U_11
_atom_site_aniso_U_22
_atom_site_aniso_U_33
_atom_site_aniso_U_23
_atom_site_aniso_U_13
_atom_site_aniso_U_12
Eu1 0.02150(15) 0.02803(17) 0.02263(16) 0.000 0.00120(11) 0.000
Rb1B 0.0266(3) 0.0249(3) 0.0487(18) 0.000 0.0132(8) 0.000
P1 0.0173(6) 0.0126(5) 0.0202(6) 0.000 0.0022(5) 0.000
S1 0.0214(6) 0.0251(7) 0.0274(7) 0.000 0.0080(5) 0.000
S2 0.0282(5) 0.0138(4) 0.0311(5) -0.0040(4) -0.0020(4) 0.0006(4)
S3 0.0152(6) 0.0495(10) 0.0278(7) 0.000 0.0028(5) 0.000
Rb1A 0.0266(3) 0.0249(3) 0.0487(18) 0.000 0.0132(8) 0.000
loop_
_atom_type_symbol
_atom_type_description
_atom_type_scat_dispersion_real
_atom_type_scat_dispersion_imag
_atom_type_scat_source
Eu Eu -0.1578 3.6682 'International Tables Vol C Tables 4.2.6.8 and 6.1.1.4'
P P 0.1023 0.0942 'International Tables Vol C Tables 4.2.6.8 and 6.1.1.4'
Rb Rb -0.9393 2.9676 'International Tables Vol C Tables 4.2.6.8 and 6.1.1.4'
S S 0.1246 0.1234 'International Tables Vol C Tables 4.2.6.8 and 6.1.1.4'
loop_
_geom_angle_atom_site_label_1
_geom_angle_atom_site_label_2
_geom_angle_atom_site_label_3
_geom_angle
_geom_angle_site_symmetry_1
_geom_angle_site_symmetry_3
_geom_angle_publ_flag
Eu1 Eu1 Eu1 101.653(13) 5_655 5_665 ?
P1 Eu1 Eu1 59.912(13) 1_554 5_655 ?
P1 Eu1 Eu1 128.744(7) . 5_655 ?
P1 Eu1 Eu1 128.744(7) . 5_665 ?
P1 Eu1 Eu1 59.912(13) 1_554 5_665 ?
P1 Eu1 P1 134.75(4) 1_554 . ?
P1 Eu1 S3 103.42(3) 1_554 5_656 ?
P1 Eu1 S3 103.42(3) 1_554 5_666 ?
S1 Eu1 Eu1 117.949(16) . 5_665 ?
S1 Eu1 Eu1 117.949(16) . 5_655 ?
S1 Eu1 P1 34.31(4) . . ?
S1 Eu1 P1 100.43(4) . 1_554 ?
S1 Eu1 S2 141.69(2) . 3_646 ?
S1 Eu1 S2 83.63(3) . 7_564 ?
S1 Eu1 S2 141.69(2) . 5_666 ?
S1 Eu1 S2 83.63(3) . 1_554 ?
S1 Eu1 S3 81.91(3) . 5_666 ?
S1 Eu1 S3 69.11(4) . . ?
S1 Eu1 S3 81.91(3) . 5_656 ?
S2 Eu1 Eu1 96.19(2) 1_554 5_655 ?
S2 Eu1 Eu1 44.32(2) 7_564 5_655 ?
S2 Eu1 Eu1 45.80(2) 5_666 5_665 ?
S2 Eu1 Eu1 44.32(2) 1_554 5_665 ?
S2 Eu1 Eu1 96.19(2) 7_564 5_665 ?
S2 Eu1 Eu1 100.28(2) 3_646 5_665 ?
S2 Eu1 Eu1 45.80(2) 3_646 5_655 ?
S2 Eu1 Eu1 100.28(2) 5_666 5_655 ?
S2 Eu1 P1 36.28(2) 1_554 1_554 ?
S2 Eu1 P1 120.25(3) 3_646 . ?
S2 Eu1 P1 112.45(3) 7_564 . ?
S2 Eu1 P1 96.29(3) 3_646 1_554 ?
S2 Eu1 P1 112.45(3) 1_554 . ?
S2 Eu1 P1 36.28(2) 7_564 1_554 ?
S2 Eu1 P1 120.25(3) 5_666 . ?
S2 Eu1 P1 96.29(3) 5_666 1_554 ?
S2 Eu1 S2 90.12(3) 3_646 7_564 ?
S2 Eu1 S2 68.77(4) 3_646 5_666 ?
S2 Eu1 S2 127.002(18) 5_666 7_564 ?
S2 Eu1 S2 127.002(18) 3_646 1_554 ?
S2 Eu1 S2 64.15(4) 7_564 1_554 ?
S2 Eu1 S2 90.12(3) 5_666 1_554 ?
S2 Eu1 S3 69.34(3) 1_554 5_666 ?
S2 Eu1 S3 132.43(3) 7_564 5_666 ?
S2 Eu1 S3 60.68(3) 3_646 5_656 ?
S2 Eu1 S3 132.43(3) 1_554 5_656 ?
S2 Eu1 S3 60.68(3) 5_666 5_666 ?
S2 Eu1 S3 127.09(3) 5_666 5_656 ?
S2 Eu1 S3 127.09(3) 3_646 5_666 ?
S2 Eu1 S3 69.34(3) 7_564 5_656 ?
S3 Eu1 Eu1 124.247(12) . 5_655 ?
S3 Eu1 Eu1 154.82(3) 5_656 5_665 ?
S3 Eu1 Eu1 53.48(3) 5_666 5_665 ?
S3 Eu1 Eu1 154.82(3) 5_666 5_655 ?
S3 Eu1 Eu1 124.247(12) . 5_665 ?
S3 Eu1 Eu1 53.48(3) 5_656 5_655 ?
S3 Eu1 P1 34.80(4) . . ?
S3 Eu1 P1 76.42(3) 5_656 . ?
S3 Eu1 P1 169.54(4) . 1_554 ?
S3 Eu1 P1 76.42(3) 5_666 . ?
S3 Eu1 S2 138.18(3) . 1_554 ?
S3 Eu1 S2 138.18(3) . 7_564 ?
S3 Eu1 S2 92.34(3) . 5_666 ?
S3 Eu1 S2 92.34(3) . 3_646 ?
S3 Eu1 S3 75.73(3) . 5_656 ?
S3 Eu1 S3 150.70(6) 5_666 5_656 ?
S3 Eu1 S3 75.73(3) . 5_666 ?
Eu1 Rb1B Rb1A 90.88(9) . 2_564 ?
Eu1 Rb1B Rb1A 90.88(9) . 2_554 ?
P1 Rb1B Eu1 177.89(17) 6_557 . ?
P1 Rb1B Rb1A 90.57(11) 6_557 2_554 ?
P1 Rb1B Rb1A 90.57(11) 6_557 2_564 ?
S1 Rb1B Eu1 79.37(5) 5_666 . ?
S1 Rb1B Eu1 101.23(13) 6_556 . ?
S1 Rb1B Eu1 79.37(5) 5_656 . ?
S1 Rb1B P1 100.27(7) 5_666 6_557 ?
S1 Rb1B P1 100.27(7) 5_656 6_557 ?
S1 Rb1B P1 80.88(6) 6_556 6_557 ?
S1 Rb1B S1 101.48(10) 5_656 6_556 ?
S1 Rb1B S1 101.48(10) 5_666 6_556 ?
S1 Rb1B S1 151.23(11) 5_666 5_656 ?
S1 Rb1B S2 57.91(5) 5_656 3_646 ?
S1 Rb1B S2 114.81(12) 5_666 3_646 ?
S1 Rb1B S2 74.58(4) 5_656 4_456 ?
S1 Rb1B S2 114.81(12) 5_656 5_666 ?
S1 Rb1B S2 130.62(8) 5_656 6_557 ?
S1 Rb1B S2 130.62(8) 5_666 4_456 ?
S1 Rb1B S2 74.58(4) 5_666 6_557 ?
S1 Rb1B S2 57.91(5) 5_666 5_666 ?
S1 Rb1B Rb1A 54.18(12) 5_656 2_554 ?
S1 Rb1B Rb1A 47.30(5) 6_556 2_564 ?
S1 Rb1B Rb1A 145.07(11) 5_656 2_564 ?
S1 Rb1B Rb1A 47.30(5) 6_556 2_554 ?
S1 Rb1B Rb1A 54.18(12) 5_666 2_564 ?
S1 Rb1B Rb1A 145.07(11) 5_666 2_554 ?
S2 Rb1B Eu1 43.07(4) 3_646 . ?
S2 Rb1B Eu1 148.86(9) 6_557 . ?
S2 Rb1B Eu1 148.86(9) 4_456 . ?
S2 Rb1B Eu1 43.07(4) 5_666 . ?
S2 Rb1B P1 138.38(9) 5_666 6_557 ?
S2 Rb1B P1 32.04(3) 6_557 6_557 ?
S2 Rb1B P1 32.04(3) 4_456 6_557 ?
S2 Rb1B P1 138.38(9) 3_646 6_557 ?
S2 Rb1B S1 68.23(7) 4_456 6_556 ?
S2 Rb1B S1 71.14(12) 3_646 6_556 ?
S2 Rb1B S1 68.23(7) 6_557 6_556 ?
S2 Rb1B S1 71.14(12) 5_666 6_556 ?
S2 Rb1B S2 56.50(5) 4_456 6_557 ?
S2 Rb1B S2 139.36(18) 3_646 6_557 ?
S2 Rb1B S2 139.36(18) 5_666 4_456 ?
S2 Rb1B S2 107.10(9) 5_666 6_557 ?
S2 Rb1B S2 58.80(9) 3_646 5_666 ?
S2 Rb1B S2 107.10(9) 3_646 4_456 ?
S2 Rb1B Rb1A 92.32(9) 3_646 2_564 ?
S2 Rb1B Rb1A 47.82(10) 3_646 2_554 ?
S2 Rb1B Rb1A 60.01(13) 6_557 2_564 ?
S2 Rb1B Rb1A 47.82(10) 5_666 2_564 ?
S2 Rb1B Rb1A 100.77(9) 4_456 2_564 ?
S2 Rb1B Rb1A 60.01(13) 4_456 2_554 ?
S2 Rb1B Rb1A 92.32(9) 5_666 2_554 ?
S2 Rb1B Rb1A 100.77(9) 6_557 2_554 ?
S3 Rb1B Eu1 42.91(4) . . ?
S3 Rb1B P1 134.98(19) . 6_557 ?
S3 Rb1B S1 144.14(16) . 6_556 ?
S3 Rb1B S1 75.62(6) . 5_666 ?
S3 Rb1B S1 75.62(6) . 5_656 ?
S3 Rb1B S2 140.23(14) . 4_456 ?
S3 Rb1B S2 77.77(6) . 3_646 ?
S3 Rb1B S2 140.23(14) . 6_557 ?
S3 Rb1B S2 77.77(6) . 5_666 ?
S3 Rb1B Rb1A 118.68(8) . 2_564 ?
S3 Rb1B Rb1A 118.68(8) . 2_554 ?
Rb1A Rb1B Rb1A 92.98(10) 2_554 2_564 ?
Eu1 P1 Eu1 134.75(4) 1_556 . ?
Eu1 P1 Rb1B 139.80(10) . 6_657 ?
Eu1 P1 Rb1B 85.45(9) 1_556 6_657 ?
Eu1 P1 Rb1A 134.20(17) . 6_657 ?
Eu1 P1 Rb1A 91.06(16) 1_556 6_657 ?
S1 P1 Eu1 169.37(8) . 1_556 ?
S1 P1 Eu1 55.88(6) . . ?
S1 P1 Rb1B 83.92(11) . 6_657 ?
S1 P1 S2 111.09(6) . . ?
S1 P1 S2 111.09(6) . 7_565 ?
S1 P1 S3 112.62(9) . . ?
S1 P1 Rb1A 78.31(17) . 6_657 ?
S2 P1 Eu1 63.86(5) 7_565 1_556 ?
S2 P1 Eu1 63.86(5) . 1_556 ?
S2 P1 Eu1 126.27(4) . . ?
S2 P1 Eu1 126.27(4) 7_565 . ?
S2 P1 Rb1B 64.54(6) . 6_657 ?
S2 P1 Rb1B 64.54(6) 7_565 6_657 ?
S2 P1 S2 107.33(9) . 7_565 ?
S2 P1 S3 107.22(6) 7_565 . ?
S2 P1 S3 107.22(6) . . ?
S2 P1 Rb1A 67.17(9) 7_565 6_657 ?
S2 P1 Rb1A 67.17(9) . 6_657 ?
S3 P1 Eu1 78.01(6) . 1_556 ?
S3 P1 Eu1 56.74(6) . . ?
S3 P1 Rb1B 163.46(12) . 6_657 ?
S3 P1 Rb1A 169.07(18) . 6_657 ?
Rb1A P1 Rb1B 5.60(12) 6_657 6_657 ?
Eu1 S1 Rb1B 103.71(8) . 5_666 ?
Eu1 S1 Rb1B 93.24(7) . 6_656 ?
Eu1 S1 Rb1B 103.71(8) . 5_656 ?
Eu1 S1 Rb1A 99.73(15) . 5_666 ?
Eu1 S1 Rb1A 99.73(15) . 5_656 ?
Eu1 S1 Rb1A 160.18(15) . 6_657 ?
Rb1B S1 Rb1B 151.23(11) 5_666 5_656 ?
Rb1B S1 Rb1B 84.97(7) 5_656 6_656 ?
Rb1B S1 Rb1B 84.97(7) 5_666 6_656 ?
Rb1B S1 Rb1A 78.60(9) 5_656 6_657 ?
Rb1B S1 Rb1A 78.60(9) 5_666 6_657 ?
Rb1B S1 Rb1A 106.58(10) 6_656 6_657 ?
P1 S1 Eu1 89.80(6) . . ?
P1 S1 Rb1B 94.32(9) . 5_656 ?
P1 S1 Rb1B 94.32(9) . 5_666 ?
P1 S1 Rb1B 176.96(10) . 6_656 ?
P1 S1 Rb1A 99.62(15) . 5_656 ?
P1 S1 Rb1A 99.62(15) . 5_666 ?
P1 S1 Rb1A 70.38(15) . 6_657 ?
Rb1A S1 Rb1B 6.56(11) 5_666 5_666 ?
Rb1A S1 Rb1B 79.87(14) 5_656 6_656 ?
Rb1A S1 Rb1B 152.69(11) 5_666 5_656 ?
Rb1A S1 Rb1B 152.69(11) 5_656 5_666 ?
Rb1A S1 Rb1B 6.56(11) 5_656 5_656 ?
Rb1A S1 Rb1B 79.87(14) 5_666 6_656 ?
Rb1A S1 Rb1A 84.11(14) 5_656 6_657 ?
Rb1A S1 Rb1A 152.5(2) 5_666 5_656 ?
Rb1A S1 Rb1A 84.11(14) 5_666 6_657 ?
Eu1 S2 Eu1 89.88(3) 5_666 1_556 ?
Eu1 S2 Rb1B 173.14(6) 5_666 6_657 ?
Eu1 S2 Rb1B 96.47(8) 1_556 6_657 ?
Eu1 S2 Rb1B 85.16(5) 5_666 5_666 ?
Eu1 S2 Rb1B 170.98(9) 1_556 5_666 ?
Eu1 S2 Rb1A 168.94(15) 5_666 6_657 ?
Eu1 S2 Rb1A 83.94(11) 5_666 5_666 ?
Eu1 S2 Rb1A 166.92(14) 1_556 5_666 ?
Eu1 S2 Rb1A 100.96(13) 1_556 6_657 ?
Rb1B S2 Rb1B 88.88(6) 5_666 6_657 ?
Rb1B S2 Rb1A 90.34(13) 6_657 5_666 ?
Rb1B S2 Rb1A 4.18(11) 5_666 5_666 ?
P1 S2 Eu1 79.86(5) . 1_556 ?
P1 S2 Eu1 100.31(5) . 5_666 ?
P1 S2 Rb1B 93.61(8) . 5_666 ?
P1 S2 Rb1B 83.42(8) . 6_657 ?
P1 S2 Rb1A 89.89(11) . 5_666 ?
P1 S2 Rb1A 79.70(11) . 6_657 ?
Rb1A S2 Rb1B 6.53(11) 6_657 6_657 ?
Rb1A S2 Rb1B 83.80(14) 6_657 5_666 ?
Rb1A S2 Rb1A 85.00(12) 6_657 5_666 ?
Eu1 S3 Eu1 150.70(6) 5_666 5_656 ?
Eu1 S3 Eu1 104.27(3) . 5_656 ?
Eu1 S3 Eu1 104.27(3) . 5_666 ?
Eu1 S3 Rb1B 85.69(11) . . ?
Eu1 S3 Rb1A 92.07(18) . . ?
Rb1B S3 Eu1 94.30(4) . 5_656 ?
Rb1B S3 Eu1 94.30(4) . 5_666 ?
P1 S3 Eu1 87.14(3) . 5_656 ?
P1 S3 Eu1 87.14(3) . 5_666 ?
P1 S3 Eu1 88.47(6) . . ?
P1 S3 Rb1B 174.15(13) . . ?
P1 S3 Rb1A 179.46(19) . . ?
Rb1A S3 Eu1 92.73(5) . 5_666 ?
Rb1A S3 Eu1 92.73(5) . 5_656 ?
Rb1A S3 Rb1B 6.39(11) . . ?
Eu1 Rb1A Rb1B 125.43(10) . 2_565 ?
Eu1 Rb1A Rb1B 125.43(10) . 2 ?
Rb1B Rb1A Rb1B 92.98(10) 2_565 2 ?
P1 Rb1A Eu1 171.9(3) 6_557 . ?
P1 Rb1A Rb1B 58.55(8) 6_557 2 ?
P1 Rb1A Rb1B 58.55(8) 6_557 2_565 ?
P1 Rb1A S1 31.31(8) 6_557 6_557 ?
P1 Rb1A S2 132.8(2) 6_557 5_666 ?
P1 Rb1A S2 132.8(2) 6_557 3_646 ?
S1 Rb1A Eu1 77.07(13) 5_656 . ?
S1 Rb1A Eu1 77.07(13) 5_666 . ?
S1 Rb1A Eu1 156.8(3) 6_557 . ?
S1 Rb1A Rb1B 52.82(11) 5_656 2 ?
S1 Rb1A Rb1B 143.6(2) 5_666 2 ?
S1 Rb1A Rb1B 47.22(5) 6_557 2_565 ?
S1 Rb1A Rb1B 143.6(2) 5_656 2_565 ?
S1 Rb1A Rb1B 47.22(5) 6_557 2 ?
S1 Rb1A Rb1B 52.82(12) 5_666 2_565 ?
S1 Rb1A P1 103.45(13) 5_656 6_557 ?
S1 Rb1A P1 103.45(13) 5_666 6_557 ?
S1 Rb1A S1 100.04(16) 5_656 6_557 ?
S1 Rb1A S1 100.04(16) 5_666 6_557 ?
S1 Rb1A S1 152.5(2) 5_666 5_656 ?
S1 Rb1A S2 108.0(2) 5_666 3_646 ?
S1 Rb1A S2 108.0(2) 5_656 5_666 ?
S1 Rb1A S2 55.20(9) 5_656 3_646 ?
S1 Rb1A S2 55.20(9) 5_666 5_666 ?
S2 Rb1A Eu1 41.04(8) 5_666 . ?
S2 Rb1A Eu1 142.4(2) 4_456 . ?
S2 Rb1A Eu1 41.04(8) 3_646 . ?
S2 Rb1A Eu1 142.4(2) 6_557 . ?
S2 Rb1A Rb1B 91.66(14) 6_557 2 ?
S2 Rb1A Rb1B 106.60(4) 3_646 2 ?
S2 Rb1A Rb1B 160.41(11) 3_646 2_565 ?
S2 Rb1A Rb1B 106.60(4) 5_666 2_565 ?
S2 Rb1A Rb1B 48.38(10) 4_456 2 ?
S2 Rb1A Rb1B 160.41(11) 5_666 2 ?
S2 Rb1A Rb1B 91.66(14) 4_456 2_565 ?
S2 Rb1A Rb1B 48.38(10) 6_557 2_565 ?
S2 Rb1A P1 33.14(7) 4_456 6_557 ?
S2 Rb1A P1 33.14(7) 6_557 6_557 ?
S2 Rb1A S1 54.73(12) 4_456 6_557 ?
S2 Rb1A S1 132.18(19) 4_456 5_666 ?
S2 Rb1A S1 151.74(9) 5_666 6_557 ?
S2 Rb1A S1 54.73(12) 6_557 6_557 ?
S2 Rb1A S1 151.74(9) 3_646 6_557 ?
S2 Rb1A S1 75.11(7) 6_557 5_666 ?
S2 Rb1A S1 132.18(19) 6_557 5_656 ?
S2 Rb1A S1 75.11(7) 4_456 5_656 ?
S2 Rb1A S2 101.54(17) 6_557 5_666 ?
S2 Rb1A S2 53.81(13) 3_646 5_666 ?
S2 Rb1A S2 129.2(3) 6_557 3_646 ?
S2 Rb1A S2 57.09(12) 4_456 6_557 ?
S2 Rb1A S2 101.54(17) 4_456 3_646 ?
S2 Rb1A S2 129.2(3) 4_456 5_666 ?
S3 Rb1A Eu1 41.10(9) . . ?
S3 Rb1A Rb1B 101.11(16) . 2 ?
S3 Rb1A Rb1B 101.11(16) . 2_565 ?
S3 Rb1A P1 147.0(3) . 6_557 ?
S3 Rb1A S1 77.25(13) . 5_656 ?
S3 Rb1A S1 77.25(13) . 5_666 ?
S3 Rb1A S1 115.7(3) . 6_557 ?
S3 Rb1A S2 75.18(15) . 3_646 ?
S3 Rb1A S2 147.87(17) . 4_456 ?
S3 Rb1A S2 75.18(15) . 5_666 ?
S3 Rb1A S2 147.87(17) . 6_557 ?
loop_
_geom_bond_atom_site_label_1
_geom_bond_atom_site_label_2
_geom_bond_distance
_geom_bond_site_symmetry_2
_geom_bond_publ_flag
Eu1 Eu1 4.3075(4) 5_665 ?
Eu1 Eu1 4.3075(4) 5_655 ?
Eu1 P1 3.3860(14) 1_554 ?
Eu1 P1 3.5848(15) . ?
Eu1 S1 2.9679(16) . ?
Eu1 S2 3.0880(11) 7_564 ?
Eu1 S2 3.0096(11) 5_666 ?
Eu1 S2 3.0880(11) 1_554 ?
Eu1 S2 3.0096(11) 3_646 ?
Eu1 S3 2.9986(17) . ?
Eu1 S3 3.4516(4) 5_656 ?
Eu1 S3 3.4516(4) 5_666 ?
Rb1B P1 3.812(4) 6_557 ?
Rb1B S1 3.727(6) 6_556 ?
Rb1B S1 3.4474(9) 5_666 ?
Rb1B S1 3.4474(9) 5_656 ?
Rb1B S2 3.464(2) 6_557 ?
Rb1B S2 3.464(2) 4_456 ?
Rb1B S2 3.462(5) 3_646 ?
Rb1B S2 3.462(5) 5_666 ?
Rb1B S3 3.442(3) . ?
Rb1B Rb1A 4.604(4) 2_554 ?
Rb1B Rb1A 4.604(4) 2_564 ?
P1 S1 2.021(2) . ?
P1 S2 2.0356(13) 7_565 ?
P1 S2 2.0356(13) . ?
P1 S3 2.046(2) . ?
P1 Rb1A 3.664(8) 6_657 ?
S1 Rb1A 3.4376(18) 5_656 ?
S1 Rb1A 3.4376(18) 5_666 ?
S1 Rb1A 3.809(9) 6_657 ?
S2 Rb1A 3.432(7) 6_657 ?
S2 Rb1A 3.756(8) 5_666 ?
S3 Rb1A 3.327(8) . ?
