#------------------------------------------------------------------------------
#$Date: 2021-11-06 21:57:03 +0200 (Sat, 06 Nov 2021) $
#$Revision: 270443 $
#$URL: file:///home/coder/svn-repositories/cod/cif/7/24/35/7243552.cif $
#------------------------------------------------------------------------------
#
# This file is available in the Crystallography Open Database (COD),
# http://www.crystallography.net/
#
# All data on this site have been placed in the public domain by the
# contributors.
#
data_7243552
loop_
_publ_author_name
'Goreshnik, Evgeny'
_publ_section_title
;
 Influence of the synthetic conditions on a formation of 1-D, 2-D and 3-D
 copper--chloride coordination polymers
;
_journal_issue                   40
_journal_name_full               CrystEngComm
_journal_page_first              7171
_journal_page_last               7178
_journal_paper_doi               10.1039/D1CE01048D
_journal_volume                  23
_journal_year                    2021
_chemical_formula_moiety         'Cl6 Cu2, C6 H14 N2'
_chemical_formula_sum            'C6 H14 Cl6 Cu2 N2'
_chemical_formula_weight         453.97
_space_group_crystal_system      monoclinic
_space_group_IT_number           13
_space_group_name_Hall           '-P 2yac'
_space_group_name_H-M_alt        'P 1 2/n 1'
_atom_sites_solution_hydrogens   mixed
_atom_sites_solution_primary     dual
_audit_creation_date             2018-03-01
_audit_creation_method
;
Olex2 1.2-ac3
(compiled 2017.01.05 svn.r3372 for Rigaku Oxford Diffraction, GUI svn.r5289)
;
_audit_update_record
;
2021-05-25 deposited with the CCDC.	2021-09-22 downloaded from the CCDC.
;
_cell_angle_alpha                90
_cell_angle_beta                 104.482(10)
_cell_angle_gamma                90
_cell_formula_units_Z            2
_cell_length_a                   6.9394(7)
_cell_length_b                   8.4624(8)
_cell_length_c                   12.2504(11)
_cell_measurement_reflns_used    1303
_cell_measurement_temperature    293(2)
_cell_measurement_theta_max      28.2110
_cell_measurement_theta_min      4.5110
_cell_volume                     696.53(12)
_computing_cell_refinement       'CrysAlisPro 1.171.38.46 (Rigaku OD, 2015)'
_computing_data_collection       'CrysAlisPro 1.171.38.46 (Rigaku OD, 2015)'
_computing_data_reduction        'CrysAlisPro 1.171.38.46 (Rigaku OD, 2015)'
_computing_molecular_graphics    'Olex2 (Dolomanov et al., 2009)'
_computing_publication_material  'Olex2 (Dolomanov et al., 2009)'
_computing_structure_refinement  'ShelXL (Sheldrick, 2015)'
_computing_structure_solution    'ShelXT (Sheldrick, 2015)'
_diffrn_ambient_temperature      293(2)
_diffrn_detector                 'CCD plate'
_diffrn_detector_area_resol_mean 10.6426
_diffrn_detector_type            Atlas
_diffrn_measured_fraction_theta_full 0.989
_diffrn_measured_fraction_theta_max 0.822
_diffrn_measurement_details
;
List of Runs (angles in degrees, time in seconds):

  # Type    Start    End  Width  t~exp~   \w     \q     \k     \f   Frames
#--------------------------------------------------------------------------
  1  \w    -54.00  32.00   1.00   39.44    --    8.92 -57.00-150.00   86
  2  \w     14.00  81.00   1.00   39.44    --    8.92   0.00-180.00   67
;
_diffrn_measurement_device       'four-circle diffractometer'
_diffrn_measurement_device_type  'New Gemini, Dual, Cu at zero, Atlas'
_diffrn_measurement_method       '\w scans'
_diffrn_orient_matrix_type
'CrysAlisPro convention (1999,Acta A55,543-557)'
_diffrn_orient_matrix_UB_11      0.0804731000
_diffrn_orient_matrix_UB_12      -0.0530942000
_diffrn_orient_matrix_UB_13      0.0045937000
_diffrn_orient_matrix_UB_21      -0.0426011000
_diffrn_orient_matrix_UB_22      -0.0515634000
_diffrn_orient_matrix_UB_23      0.0333242000
_diffrn_orient_matrix_UB_31      -0.0532660000
_diffrn_orient_matrix_UB_32      -0.0394189000
_diffrn_orient_matrix_UB_33      -0.0494871000
_diffrn_radiation_monochromator  graphite
_diffrn_radiation_probe          x-ray
_diffrn_radiation_type           MoK\a
_diffrn_radiation_wavelength     0.71073
_diffrn_reflns_av_R_equivalents  0.0245
_diffrn_reflns_av_unetI/netI     0.0338
_diffrn_reflns_Laue_measured_fraction_full 0.989
_diffrn_reflns_Laue_measured_fraction_max 0.822
_diffrn_reflns_limit_h_max       8
_diffrn_reflns_limit_h_min       -9
_diffrn_reflns_limit_k_max       11
_diffrn_reflns_limit_k_min       -7
_diffrn_reflns_limit_l_max       11
_diffrn_reflns_limit_l_min       -16
_diffrn_reflns_number            2704
_diffrn_reflns_point_group_measured_fraction_full 0.989
_diffrn_reflns_point_group_measured_fraction_max 0.822
_diffrn_reflns_theta_full        25.242
_diffrn_reflns_theta_max         28.481
_diffrn_reflns_theta_min         3.435
_diffrn_source                   'fine-focus sealed X-ray tube'
_diffrn_source_type              'Enhance (Mo) X-ray Source'
_exptl_absorpt_coefficient_mu    4.176
_exptl_absorpt_correction_T_max  0.855
_exptl_absorpt_correction_T_min  0.487
_exptl_absorpt_correction_type   analytical
_exptl_absorpt_process_details
;
CrysAlisPro 1.171.38.46 (Rigaku Oxford Diffraction, 2015)
Analytical numeric absorption correction using a multifaceted crystal
			model based on expressions derived by R.C. Clark & J.S. Reid.
(Clark, R. C. & Reid, J. S. (1995). Acta Cryst. A51, 887-897)
Empirical absorption correction using spherical harmonics,
 implemented in SCALE3 ABSPACK scaling algorithm.
;
_exptl_crystal_colour            red
_exptl_crystal_colour_primary    red
_exptl_crystal_density_diffrn    2.165
_exptl_crystal_description       plate
_exptl_crystal_F_000             448
_exptl_crystal_size_max          0.429
_exptl_crystal_size_mid          0.116
_exptl_crystal_size_min          0.047
_refine_diff_density_max         0.808
_refine_diff_density_min         -0.640
_refine_diff_density_rms         0.099
_refine_ls_extinction_coef       0.0426(18)
_refine_ls_extinction_expression Fc^*^=kFc[1+0.001xFc^2^\l^3^/sin(2\q)]^-1/4^
_refine_ls_extinction_method     'SHELXL-2014/7 (Sheldrick 2014'
_refine_ls_goodness_of_fit_ref   1.066
_refine_ls_hydrogen_treatment    mixed
_refine_ls_matrix_type           full
_refine_ls_number_parameters     78
_refine_ls_number_reflns         1453
_refine_ls_number_restraints     0
_refine_ls_restrained_S_all      1.066
_refine_ls_R_factor_all          0.0330
_refine_ls_R_factor_gt           0.0284
_refine_ls_shift/su_max          0.001
_refine_ls_shift/su_mean         0.000
_refine_ls_structure_factor_coef Fsqd
_refine_ls_weighting_details
'w=1/[\s^2^(Fo^2^)+(0.0348P)^2^+0.2331P] where P=(Fo^2^+2Fc^2^)/3'
_refine_ls_weighting_scheme      calc
_refine_ls_wR_factor_gt          0.0685
_refine_ls_wR_factor_ref         0.0723
_reflns_Friedel_coverage         0.000
_reflns_number_gt                1310
_reflns_number_total             1453
_reflns_threshold_expression     'I > 2\s(I)'
_cod_data_source_file            d1ce01048d2.cif
_cod_data_source_block           cu_dabco_cl
_cod_depositor_comments
'Adding full bibliography for 7243550--7243553.cif.'
_cod_database_code               7243552
_shelx_shelxl_version_number     2014/7
_chemical_oxdiff_formula         'Cu2 Cl6 N2 C6 H14'
_shelx_space_group_comment
;
The symmetry employed for this shelxl refinement is uniquely defined
by the following loop, which should always be used as a source of
symmetry information in preference to the above space-group names.
They are only intended as comments.
;
_reflns_odcompleteness_completeness 98.81
_reflns_odcompleteness_iscentric 1
_reflns_odcompleteness_theta     25.07
_olex2_refinement_description
;
1. Fixed Uiso
 At 1.2 times of:
  All C(H,H) groups
2.a Secondary CH2 refined with riding coordinates:
 C1(H1A,H1B), C2(H2A,H2B), C3(H3A,H3B)
;
_shelx_res_file
;
    cu_dabco_cl.res created by SHELXL-2014/7

TITL cu_dabco_cl_a.res in P2/n
REM Old TITL Cu_dabco_Cl in P2(1)/n
REM SHELXT solution in P2/n
REM R1 0.111, Rweak 0.006, Alpha 0.036, Orientation as input
REM Formula found by SHELXT: C3 N Cl3 Cu
CELL 0.71073 6.939394 8.462374 12.250375 90 104.482 90
ZERR 2 0.000666 0.000776 0.001142 0 0.0096 0
LATT 1
SYMM 0.5-X,+Y,0.5-Z
SFAC C H Cl Cu N
UNIT 12 28 12 4 4

L.S. 10
PLAN  20
BOND $H
list 4
fmap 2
acta
OMIT 1 1 3
REM <olex2.extras>
REM <HklSrc "%.\\Cu_dabco_Cl.hkl">
REM </olex2.extras>

WGHT    0.034800    0.233100
EXTI    0.042552
FVAR       3.07926
N1    5    0.695200    0.099417    0.338736    11.00000    0.02381    0.02512 =
         0.01220   -0.00215    0.00829   -0.00538
C1    1    0.734212   -0.065923    0.309652    11.00000    0.03168    0.02119 =
         0.03203    0.00721    0.01618    0.00092
AFIX  23
H1A   2    0.622110   -0.132764    0.312679    11.00000   -1.20000
H1B   2    0.851747   -0.106339    0.362834    11.00000   -1.20000
AFIX   0
C2    1    0.534546    0.169705    0.247353    11.00000    0.02958    0.03240 =
         0.02571   -0.00211    0.01182    0.01295
AFIX  23
H2A   2    0.491474    0.269633    0.272018    11.00000   -1.20000
H2B   2    0.420949    0.099091    0.228341    11.00000   -1.20000
AFIX   0
C3    1    0.881468    0.195048    0.354869    11.00000    0.03636    0.04402 =
         0.02355   -0.01013    0.01027   -0.02688
AFIX  23
H3A   2    0.977664    0.161883    0.422913    11.00000   -1.20000
H3B   2    0.852339    0.306098    0.362134    11.00000   -1.20000
AFIX   0
CU1   4    0.662079    0.384225    0.600557    11.00000    0.01823    0.01455 =
         0.01661    0.00163   -0.00253   -0.00135
CL1   3    0.970029    0.419553    0.714962    11.00000    0.01880    0.02173 =
         0.02547    0.00260   -0.00189   -0.00187
CL2   3    0.704613    0.117253    0.591597    11.00000    0.02914    0.01607 =
         0.01492   -0.00088    0.00488    0.00153
CL3   3    0.649987    0.637582    0.525465    11.00000    0.02668    0.02272 =
         0.03455    0.01205   -0.01262   -0.00913
H1    2    0.655553    0.097462    0.400836    11.00000    0.03143
HKLF 4

REM  cu_dabco_cl_a.res in P2/n
REM R1 =  0.0284 for    1310 Fo > 4sig(Fo)  and  0.0330 for all    1453 data
REM     78 parameters refined using      0 restraints

END

WGHT      0.0348      0.2330

REM Highest difference peak  0.808,  deepest hole -0.640,  1-sigma level  0.099
Q1    1   0.6850  0.5863  0.4826  11.00000  0.05    0.81
Q2    1   0.7421  0.2571  0.6171  11.00000  0.05    0.53
Q3    1   1.0083  0.4172  0.6608  11.00000  0.05    0.52
Q4    1   0.5829  0.5081  0.5801  11.00000  0.05    0.45
Q5    1   0.5952  0.2618  0.5844  11.00000  0.05    0.44
Q6    1   0.7192  0.5016  0.6281  11.00000  0.05    0.40
Q7    1   0.7436  0.0122  0.3452  11.00000  0.05    0.35
Q8    1   0.5607  0.6322  0.5208  11.00000  0.05    0.35
Q9    1   0.9141  0.1760  0.3056  11.00000  0.05    0.34
Q10   1   0.6413  0.2701  0.3781  11.00000  0.05    0.33
Q11   1   0.7081  0.3422  0.7232  11.00000  0.05    0.30
Q12   1   0.6033  0.4007  0.6543  11.00000  0.05    0.29
Q13   1   0.8390  0.4299  0.5366  11.00000  0.05    0.29
Q14   1   0.7696  0.1856  0.6823  11.00000  0.05    0.29
Q15   1   0.4511  0.5980  0.5824  11.00000  0.05    0.28
Q16   1   0.8361  0.0124  0.6405  11.00000  0.05    0.28
Q17   1   0.5304 -0.1848  0.4156  11.00000  0.05    0.28
Q18   1   0.8060  0.3608  0.2563  11.00000  0.05    0.27
Q19   1   0.5848  0.5232  0.5180  11.00000  0.05    0.27
Q20   1   0.9277  0.1267  0.5137  11.00000  0.05    0.26
;
_shelx_res_checksum              7414
_shelx_hkl_file
;
   0   0  -2 164.924 35.4762   1
   0   0  -3 5.02833 32.2866   1
   0   0  -4 26526.8 639.479   1
   0   0  -5 29.6381 38.9788   1
   0   0  -6 46993.4 1081.04   1
   0   0  -7 40.3267 48.2233   1
   0   0  -8 5356.70 262.608   2
   0   0   8 5333.59 301.274   1
   0   0  -8 4931.91 323.911   1
   0   0  -9 14.0474 49.2842   1
   0   0  -9 34.8002 40.9570   2
   0   0   9-1.53142 44.6176   1
   0   0 -10 51793.4 1124.47   2
   0   0 -10 48388.1 1332.17   1
   0   0 -11 82.7878 71.9603   1
   0   0 -11-4.25784 37.0546   2
   0   0 -12 2842.32 207.146   2
   0   0 -12 2251.15 259.931   1
   0   0 -13-25.4761 32.4711   2
   0   1  -2 8124.34 270.177   1
   0   1  -3 35609.7 797.768   1
   0  -1  -3 36635.5 615.155   2
   0   1   3 35282.8 608.836   2
   0  -1  -4 7097.00 185.068   2
   0   1  -4 7090.06 305.401   1
   0   1   5-4.75261 26.3535   1
   0  -1  -5 26.5107 22.9381   2
   0  -1  -5 24.8417 40.0084   1
   0   1  -5 26.3930 47.2965   1
   0   1  -6 5909.62 325.627   1
   0  -1  -6 5989.86 291.782   1
   0   1   6 6078.51 271.610   1
   0  -1  -6 6202.13 210.191   2
   0   1   7 54843.2 1174.03   1
   0   1  -7 54013.8 1302.78   1
   0  -1  -7 54947.1 1029.64   2
   0  -1  -7 53502.7 1216.10   1
   0   1   8 5157.67 285.512   1
   0  -1  -8 5489.51 230.948   2
   0  -1  -8 5008.04 309.109   1
   0   1  -8 4745.42 328.861   1
   0  -1   8 5041.03 303.803   1
   0  -1   9 54374.0 1254.01   1
   0  -1  -9 51620.9 1034.77   2
   0   1  -9 49466.4 1313.22   1
   0   1   9 50463.0 1188.84   1
   0  -1 -10 13105.1 409.139   2
   0   1 -10 12866.7 604.886   1
   0  -1 -11 6096.56 259.971   2
   0   1 -11 5688.39 332.229   2
   0   1 -11 6002.82 423.589   1
   0   1 -12 7578.05 393.863   2
   0   1 -12 7094.62 474.245   1
   0  -1 -12 7367.42 280.829   2
   0   1 -13 2923.64 234.475   2
   0   1 -13 2601.23 297.259   1
   0   1 -14 670.971 150.109   1
   0   2  -1 62642.7 1166.04   1
   0   2  -2 5618.88 249.036   1
   0   2   3 2397.83 96.6962   2
   0   2  -3 2203.23 171.964   1
   0   2  -4 57.0806 46.5488   1
   0   2   4 49.9679 15.1201   2
   0   2   4 34.8888 25.4249   1
   0   2   5 7430.57 277.312   1
   0   2  -5 7712.70 376.968   1
   0   2   5 7268.02 187.119   2
   0  -2  -6 633.496 57.9232   2
   0   2   6 694.486 87.1206   1
   0   2  -6 694.969 125.024   1
   0  -2  -7 40693.3 781.034   2
   0   2   7 44931.7 969.570   1
   0   2  -7 42409.5 1127.65   1
   0   2  -8 783.534 137.110   1
   0   2   8 1027.93 123.300   1
   0  -2  -8 819.523 69.6497   2
   0  -2   8 896.032 135.115   1
   0   2   9 4983.84 284.653   1
   0  -2  -9 4734.56 180.991   2
   0   2  -9 4399.90 343.379   1
   0  -2   9 4783.67 312.281   1
   0   2 -10 4852.28 374.920   1
   0  -2 -10 5121.49 186.293   2
   0  -2 -11 731.289 64.6953   2
   0   2 -11 889.422 163.201   1
   0   2 -12 162.322 94.5543   1
   0   2 -13 381.276 122.780   1
   0   2 -13 250.084 77.6665   2
   0   2 -14 11.3709 72.4899   1
   0   2 -14 157.214 61.8615   2
   0   3  -1 96226.9 1758.57   1
   0   3  -2 28584.3 725.570   1
   0  -3   2 28035.2 673.428   1
   0   3  -3 25905.5 728.763   1
   0   3  -4-37.1451 60.9414   1
   0   3   4 98.3205 27.2030   2
   0   3  -5 1974.40 195.640   1
   0   3   5 1873.24 132.699   1
   0   3   5 1757.59 86.6544   2
   0   3   6 218.392 28.9801   2
   0   3  -6 296.621 95.1020   1
   0   3   6 195.726 44.0193   1
   0   3  -7 56373.6 1436.77   1
   0   3   7 59091.4 1202.69   1
   0  -3   7 55962.8 1331.23   1
   0   3  -8 676.473 135.594   1
   0   3   8 579.365 93.6407   1
   0  -3   8 863.240 135.908   1
   0   3  -9 37236.8 1154.43   1
   0   3   9 38972.2 939.694   1
   0   3 -10 4656.45 378.175   1
   0   3 -11 10801.1 604.392   1
   0   3 -12 1684.65 238.224   1
   0   3 -13 1931.47 261.303   1
   0   3 -14 3222.89 276.033   2
   0   4  -1 6497.19 312.256   1
   0   4  -2 22529.5 676.806   1
   0   4  -3-4.79894 44.0131   1
   0  -4   3 24.5422 38.8368   1
   0   4  -4 21262.8 722.353   1
   0   4  -5 2059.81 218.008   1
   0   4   5 2159.26 116.649   2
   0  -4   5 2355.35 204.467   1
   0   4   6 35510.9 802.530   1
   0   4   6 33747.7 649.781   2
   0   4  -6 34749.8 1048.58   1
   0  -4   6 35465.2 957.348   1
   0  -4   7 101.118 67.0031   1
   0   4   7 43.7318 14.8737   2
   0   4   7 65.8201 33.8693   1
   0   4  -7 64.6184 64.2978   1
   0   4   8 3346.80 209.416   1
   0   4  -8 2959.54 287.561   1
   0   4   9 85.9785 33.9352   1
   0   4  -9 105.778 72.2655   1
   0   4 -10 37020.0 1199.44   1
   0   4 -11 4385.04 386.119   1
   0   4 -12 3192.40 343.539   1
   0   4 -13 274.166 95.9740   1
   0   5   0 37924.3 942.726   1
   0   5  -1 564.478 96.6450   1
   0   5  -2-1.96718 44.8901   1
   0   5  -3 26524.9 824.517   1
   0  -5   4 96.9994 49.3270   1
   0   5  -4-66.1491 61.6938   1
   0   5  -5 5602.52 383.413   1
   0  -5   5 5719.49 322.845   1
   0   5   5 5287.98 220.960   2
   0  -5   6 4897.24 315.081   1
   0   5  -6 4617.96 360.871   1
   0   5   6 4484.86 183.629   2
   0   5   7 25676.2 663.945   1
   0   5   7 24459.8 511.733   2
   0   5  -7 24071.0 912.424   1
   0   5   8 6515.93 298.814   1
   0   5   8 6471.17 182.868   2
   0   5  -8 6239.46 449.756   1
   0   5   9 12638.0 444.028   1
   0   5  -9 12831.4 663.917   1
   0   5 -10 6870.30 490.592   1
   0   5 -11 600.820 144.309   1
   0   5 -12 2095.66 282.766   1
   0   6   0 24007.2 747.902   1
   0   6  -1 2551.85 227.278   1
   0   6  -2 7253.78 409.080   1
   0   6  -3 2769.36 259.559   1
   0   6  -4 3737.87 315.329   1
   0   6  -5 5562.62 397.325   1
   0   6  -6 2905.07 293.776   1
   0   6   6 3040.89 162.920   2
   0   6  -7 11035.8 608.320   1
   0   6   7 11480.6 316.080   2
   0   6   7 11390.6 396.822   1
   0   6   8 368.556 66.9473   1
   0   6  -8 503.989 150.429   1
   0   6  -9 4444.25 396.643   1
   0   6 -10 11671.8 662.985   1
   0   6 -11 314.168 102.775   1
   0   7   0 2488.38 237.206   1
   0   7  -1 25235.3 844.566   1
   0   7   1 24460.0 791.248   1
   0   7  -2 14379.3 637.251   1
   0   7  -3 29792.4 988.259   1
   0   7  -4 702.812 151.573   1
   0   7  -5 1357.05 203.642   1
   0   7   6 2672.19 160.481   2
   0   7  -6 2916.80 308.968   1
   0   7  -7 35195.1 1205.89   1
   0   7  -8 448.944 147.788   1
   0   7  -9 10990.1 650.598   1
   0   7 -10-44.4593 81.5099   1
   0   8   0 32131.6 1010.59   1
   0   8  -1 7336.56 446.000   1
   0   8   1 6961.82 405.787   1
   0   8  -2 26803.3 945.245   1
   0   8   2 27253.7 865.540   1
   0   8  -3 875.641 168.657   1
   0   8  -4 15309.0 725.894   1
   0   8  -5 319.428 125.848   1
   0   8  -6 10777.4 626.422   1
   0   8  -7 431.226 142.080   1
   0   8  -8 1750.22 253.123   1
   0   8  -9-119.178 101.840   1
   0   9   0 3858.44 324.869   1
   0   9  -1 794.732 162.693   1
   0   9   1 835.730 160.434   1
   0   9  -2 406.668 129.578   1
   0   9   2 228.279 84.3414   1
   0   9   3 5219.73 354.050   1
   0   9  -3 5848.39 440.444   1
   0   9  -4 1156.57 197.122   1
   0   9  -5 3488.86 355.462   1
   0   9  -6 951.187 188.034   1
   0   9  -7 6467.51 488.548   1
   0   9  -8 1989.59 258.316   1
   0  10   0 5859.31 409.176   1
   0  10  -1 670.869 143.711   1
   0  10   1 546.576 135.627   1
   0  10  -2 164.539 99.7749   1
   0  10   2 433.874 118.164   1
   0  10  -3 2788.93 299.652   1
   0  10  -4 7735.67 509.491   1
   0  10  -5 2898.28 317.212   1
   0  10  -6 3567.13 350.108   1
   1   0 -14-1.08761 41.2775   2
   1   0 -13 11773.5 478.757   2
   1   0 -12-18.0708 46.7211   2
   1   0 -11 70364.4 1505.67   2
   1   0 -10-56.5857 60.7565   2
   1   0  -9 11037.8 437.754   2
  -1   0   9 11266.1 456.773   1
   1   0  -8 104.713 65.0246   1
   1   0  -8-45.5711 49.9849   2
   1   0  -7 33438.6 813.186   2
   1   0  -7 33617.4 882.273   1
   1   0  -6 33.8661 43.2381   2
   1   0  -6-4.52875 36.5651   1
   1   0  -5 395.015 74.2424   1
   1   0  -5 369.691 64.7334   2
   1   0  -4 13.4449 34.1846   2
   1   0  -3 181450. 2926.75   2
   1   0  -2 168.216 39.9340   2
  -1   0  -1 8263.22 234.033   1
  -1   0  -2-33.8828 36.2926   1
  -1   0  -3 71300.4 1352.18   1
   1   0   4-22.2699 31.9760   1
  -1   0  -4 15.0518 44.8013   1
   1   0   5 123375. 2214.46   1
  -1   0  -5 121674. 2251.62   1
   1   0   6 106.113 52.3308   1
  -1   0  -6 101.614 53.2558   1
  -1   0  -7 69293.2 1546.79   1
   1   0   7 71981.6 1505.00   1
   1   0   8-60.0682 58.1387   1
  -1   0  -8 15.4701 45.3976   1
  -1   0  -9 14951.7 624.190   1
   1   0   9 16242.4 591.289   1
  -1   0 -10-37.9428 62.1166   1
  -1   0 -10 0.13380 37.4053   2
  -1   0 -11 661.621 91.5127   2
  -1   0 -11 526.379 131.260   1
  -1   0 -12 74.3871 45.2914   2
  -1   0 -12-95.9939 70.0799   1
  -1   0 -13 36862.3 1196.83   1
  -1   0 -14-13.1551 69.9507   1
   1   1 -14 2335.77 217.583   2
   1   1 -13-85.1602 60.1027   2
   1  -1 -13 0.69104 38.9712   2
   1  -1 -12 1434.08 147.587   2
   1   1 -12 1642.75 190.546   2
   1   1 -12 1701.07 219.816   1
   1   1 -11 14880.0 675.207   1
   1  -1 -11 15963.4 530.488   2
   1   1 -11 15133.8 593.720   2
   1  -1 -10 26593.2 725.639   2
   1   1 -10 26153.3 895.908   1
   1   1 -10 26455.7 812.994   2
   1   1  -9 349.479 91.4363   2
   1   1  -9 301.750 84.8716   1
  -1   1   9 343.866 77.7434   1
   1  -1  -9 382.799 77.2854   2
  -1  -1   9 506.307 96.0679   1
   1  -1  -8 10932.8 388.337   2
   1   1  -8 10080.0 437.774   2
  -1   1   8 10590.5 412.459   1
   1   1  -8 10134.7 469.789   1
   1  -1  -7 9782.16 345.788   2
   1   1  -7 9272.04 417.228   1
   1   1  -6 1624.25 158.690   1
   1  -1  -6 1733.29 126.503   2
   1   1  -5 31329.3 768.126   1
  -1   1   5 30943.4 653.817   2
   1  -1  -5 32134.1 683.585   2
   1  -1  -4 110109. 1907.25   2
   1   1  -4 113850. 1980.49   1
  -1   1   4 114429. 1877.76   2
  -1   1   3 32316.0 638.406   2
   1   1  -3 33030.0 681.390   1
   1  -1  -3 32571.6 663.630   2
   1   1  -2 17882.5 393.440   1
   1  -1  -2 18683.4 433.701   2
   1   1  -1 76381.6 1223.70   1
   1   1   0 61115.8 1041.92   2
   1   1   1 11576.0 244.905   2
   1   1   1 11856.8 244.355   1
  -1   1  -1 11123.7 336.286   1
  -1  -1  -1 11533.2 251.560   2
  -1  -1  -1 12313.1 235.528   1
  -1  -1  -2 6442.41 190.583   1
  -1   1  -2 6074.68 256.366   1
   1   1   2 6065.20 190.073   1
   1   1   3 1293.02 93.6882   1
  -1  -1  -3 1307.57 96.8632   1
  -1   1  -3 1345.83 131.931   1
   1   1   4 37840.9 808.778   1
  -1   1  -4 38049.3 933.524   1
  -1  -1  -4 38918.9 818.958   1
  -1  -1  -5 14049.3 448.038   1
   1   1   5 14032.8 437.833   1
  -1   1  -5 13930.0 522.827   1
   1   1   6 100300. 1870.07   1
  -1  -1  -6 99930.1 1911.22   1
  -1  -1  -6 100258. 1632.38   2
  -1   1  -6 97101.0 2011.75   1
  -1  -1  -7 7382.13 364.090   1
  -1  -1  -7 7834.55 226.610   2
   1  -1   7 7980.06 390.184   1
   1   1   7 7702.05 349.833   1
  -1   1  -7 7271.05 405.390   1
   1   1   8 1819.91 169.888   1
  -1   1  -8 1940.83 207.880   1
   1  -1   8 2032.12 197.160   1
  -1  -1  -8 1933.95 195.688   1
  -1  -1  -8 2026.08 110.191   2
   1   1   9 467.400 86.8658   1
  -1  -1  -9 365.912 53.6555   2
  -1  -1  -9 296.394 88.5241   1
  -1   1  -9 490.412 113.714   1
   1  -1   9 395.426 92.6610   1
  -1  -1 -10 2832.08 136.978   2
  -1  -1 -10 3009.40 269.749   1
  -1   1 -10 2970.81 288.602   1
  -1  -1 -11 566.874 58.8171   2
  -1  -1 -11 425.147 113.001   1
  -1   1 -11 523.735 131.490   1
  -1   1 -12 9732.23 567.051   1
  -1   1 -13 5752.68 435.418   1
  -1   1 -14 250.325 67.0807   1
   1   2 -14 1283.13 180.255   2
   1   2 -14 1113.69 203.682   1
   1   2 -13 1.85535 57.5980   1
   1   2 -13 54.4999 69.1197   2
   1   2 -12 8767.44 482.287   2
   1  -2 -12 9462.42 346.194   2
   1   2 -12 8411.76 529.251   1
   1   2 -11 1033.54 164.715   2
   1  -2 -11 936.737 106.395   2
   1   2 -11 891.351 165.783   1
   1   2 -10 27294.5 930.352   1
   1  -2 -10 25869.6 685.758   2
  -1  -2   9 1556.84 170.178   1
   1   2  -9 1419.35 187.300   1
   1  -2  -9 1251.74 132.077   2
  -1   2   9 1426.21 147.223   1
  -1  -2   8 4027.79 269.269   1
   1   2  -8 3333.13 266.544   1
  -1   2   8 3580.22 224.520   1
   1  -2  -8 3508.19 224.213   2
   1  -2  -7-25.9057 42.5786   2
  -1   2   7 30.2554 28.9994   1
   1   2  -7 93.9180 71.8411   1
  -1   2   7-19.5224 25.2059   2
   1  -2  -6 6910.72 284.695   2
  -1   2   6 5965.73 219.570   2
  -1   2   6 6277.97 274.187   1
   1   2  -6 6029.29 324.062   1
  -1   2   5 7202.56 236.051   2
   1  -2  -5 8450.28 307.609   2
   1   2  -5 7296.48 333.634   1
  -1  -2   4 46540.4 993.411   1
   1   2  -4 46297.1 1005.77   1
  -1   2   4 46664.0 882.089   2
   1  -2  -4 47055.2 965.686   2
  -1  -2   3 925.692 96.8850   1
   1   2  -3 897.521 92.1832   1
  -1   2   3 950.527 81.8978   2
  -1  -2   2 18899.9 458.176   1
   1   2  -2 19024.0 451.735   1
   1   2  -1 1066.70 71.5987   1
  -1  -2   1 1021.38 68.7107   1
  -1   2  -1 158.461 54.9319   1
   1   2   2 12816.7 282.808   1
  -1   2  -2 12519.0 432.753   1
  -1   2  -3 684.046 106.950   1
   1   2   3 759.319 65.4937   1
   1   2   4 1615.27 109.936   1
  -1   2  -4 1848.23 186.043   1
   1   2   5 5579.95 242.472   1
  -1   2  -5 6210.00 353.741   1
  -1   2  -6 86220.8 1884.22   1
   1   2   6 87284.3 1641.85   1
  -1   2  -7 12691.2 576.998   1
   1   2   7 12838.3 455.014   1
   1  -2   7 11916.8 497.215   1
   1  -2   8 75.4404 51.5525   1
  -1   2  -8 102.524 57.0190   1
   1   2   8 125.411 56.4853   1
   1   2   9 461.112 91.8291   1
  -1   2  -9 334.564 101.999   1
  -1   2 -10 613.289 142.332   1
  -1   2 -11 611.542 146.362   1
  -1   2 -12 186.082 100.364   1
  -1   2 -13-219.158 120.112   1
   1   3 -15 1135.20 168.223   2
   1   3 -14 3577.11 313.012   2
   1   3 -13 41.0349 75.7263   1
   1   3 -13 366.013 110.754   2
   1   3 -12 53.8536 74.2046   1
   1   3 -11 2261.75 260.610   1
   1   3 -10 38215.2 1163.39   1
  -1   3   9 9492.58 388.026   1
   1   3  -9 8959.21 499.827   1
  -1   3   8 5509.82 223.737   2
  -1  -3   8 6551.42 358.857   1
  -1   3   8 6444.73 305.435   1
   1   3  -8 5604.79 366.447   1
   1   3  -7 71.8317 59.1239   1
  -1   3   7 100.751 42.4975   1
  -1   3   7 153.123 37.6844   2
  -1  -3   7 76.5676 42.7147   1
  -1   3   6 3703.48 167.296   2
  -1  -3   6 3887.88 257.577   1
   1   3  -6 3517.04 256.901   1
   1   3  -5 10.0639 43.3720   1
  -1   3   5 27.2823 28.0405   2
   1   3  -4 120533. 2181.52   1
  -1   3   4 115631. 2001.63   2
  -1  -3   4 117861. 2140.16   1
   1   3  -3 11681.4 403.453   1
  -1  -3   3 11658.9 387.707   1
   1   3  -2 3.55215 39.6252   1
  -1  -3   2 42.0254 26.8798   1
   1   3  -1 36654.4 748.496   1
   1   3   0 54042.3 971.329   1
  -1   3  -1 3154.75 213.237   1
  -1   3  -2 6417.85 328.629   1
   1   3   3 6280.43 203.098   1
  -1   3  -3 5773.53 327.641   1
  -1   3  -4 7835.31 403.807   1
   1   3   4 7452.26 251.950   1
   1   3   5 1020.11 95.7181   1
  -1   3  -5 1031.84 157.777   1
  -1   3  -6 111536. 2353.61   1
   1   3   6 114782. 2025.42   1
   1  -3   7 80.1651 40.8786   1
   1   3   7 106.609 38.4839   1
  -1   3  -7 11.7709 59.7235   1
   1   3   8 610.499 96.4175   1
  -1   3  -8 712.036 146.616   1
   1   3   9 170.299 57.1879   1
  -1   3  -9 292.310 97.4341   1
  -1   3 -10 3801.19 350.435   1
  -1   3 -11 3619.16 344.913   1
  -1   3 -12 16850.7 798.237   1
  -1   3 -13 2880.15 317.989   1
   1   4 -15 494.832 121.303   2
   1   4 -14 417.477 119.742   2
   1   4 -13 13379.5 705.356   1
   1   4 -12 3582.47 350.085   1
   1   4 -11 34765.3 1156.63   1
   1   4 -10 1904.55 238.584   1
  -1   4   9 2797.42 199.704   1
   1   4  -9 2312.38 254.092   1
  -1   4   9 2897.50 150.997   2
   1   4  -8 4873.35 356.950   1
  -1   4   8 5649.46 285.530   1
  -1  -4   8 5577.25 336.995   1
  -1   4   8 4874.80 205.308   2
  -1  -4   7 23125.1 729.376   1
  -1   4   7 21618.6 521.372   2
   1   4  -7 22839.2 793.678   1
  -1  -4   6 5914.71 330.672   1
  -1   4   6 5270.20 218.420   2
   1   4  -6 5278.88 339.265   1
  -1   4   5 1533.78 115.859   2
   1   4  -5 1561.77 177.206   1
   1   4  -4 5249.33 304.980   1
  -1   4   4 5143.28 231.688   2
  -1  -4   4 5797.08 283.432   1
   1   4  -3 89863.8 1780.53   1
  -1  -4   3 92945.0 1710.74   1
   1   4  -2 1237.52 130.145   1
  -1  -4   2 1323.39 110.822   1
   1   4  -1 97819.5 1771.65   1
   1   4   0 10855.5 342.948   1
  -1   4  -1 361.073 89.0964   1
  -1   4  -2-1.89222 54.6608   1
  -1   4  -3 70514.7 1595.94   1
   1   4   4 8896.31 281.378   1
  -1   4  -4 8615.56 458.562   1
  -1   4  -5 43614.4 1227.14   1
   1  -4   5 47606.8 1140.87   1
   1   4   5 43063.1 897.419   1
   1   4   5 44044.2 749.442   2
   1  -4   6 9344.80 452.062   1
  -1   4  -6 8227.21 482.527   1
   1   4   6 8075.77 312.440   1
   1   4   7 30220.5 741.740   1
  -1   4  -7 31270.1 1053.79   1
  -1   4  -8 5978.20 432.924   1
   1   4   8 5918.28 285.866   1
  -1   4  -9 16424.5 757.905   1
   1   4   9 15726.5 514.348   1
  -1   4 -10 20.4965 84.5331   1
  -1   4 -11 1208.76 211.078   1
  -1   4 -12-7.85597 67.4793   1
   1   5 -12 4327.31 385.708   1
   1   5 -11 14892.6 728.788   1
   1   5 -10 7714.10 495.381   1
  -1   5   9 113.628 34.4198   2
   1   5  -9 87.3756 80.8519   1
  -1   5   8 12195.3 358.020   2
  -1   5   8 13177.7 450.557   1
   1   5  -8 11940.1 597.284   1
  -1  -5   7 472.648 100.759   1
   1   5  -7 493.918 119.271   1
  -1   5   7 491.458 66.6452   2
  -1   5   6 9091.81 321.541   2
   1   5  -6 9203.26 485.728   1
  -1  -5   6 10151.7 451.531   1
  -1  -5   5 20907.4 658.674   1
   1   5  -5 19234.3 699.676   1
  -1   5   5 18808.8 526.017   2
   1   5  -4 13504.0 538.896   1
   1   5  -3 16270.8 578.919   1
   1   5  -2 10769.4 429.208   1
   1   5  -1 19744.8 585.849   1
   1   5   0 7032.65 306.789   1
  -1   5  -1 2180.35 212.105   1
  -1   5  -2 1981.14 209.956   1
  -1   5  -3 92.5689 76.8548   1
  -1   5  -4 29586.7 959.875   1
  -1   5  -5 8343.81 491.037   1
   1   5   5 7829.51 288.565   1
   1  -5   5 8226.14 413.301   1
  -1   5  -6 18855.2 795.330   1
   1   5   6 19236.9 521.193   1
   1   5   6 19365.6 373.596   2
  -1   5  -7 5778.70 434.023   1
   1   5   7 5805.86 266.368   1
  -1   5  -8 14272.0 714.196   1
   1   5   8 13938.5 451.088   1
   1   5   9 301.802 71.0059   1
  -1   5  -9 433.693 135.457   1
  -1   5 -10 6097.11 468.997   1
  -1   5 -11 95.7587 93.1994   1
   1   6 -12 673.875 155.023   1
   1   6 -11 4577.82 397.462   1
   1   6 -10 1156.22 199.244   1
   1   6  -9 4420.63 374.754   1
   1   6  -8 10621.8 577.216   1
  -1   6   8 10884.8 332.201   2
   1   6  -7 1909.90 239.192   1
  -1   6   7 2287.74 147.177   2
  -1  -6   6 103.102 53.2343   1
   1   6  -6 33.7223 55.9690   1
  -1   6   6 96.4617 38.2254   2
  -1   6   5 10501.8 388.096   2
   1   6  -5 11128.9 537.364   1
  -1  -6   5 11340.2 451.763   1
   1   6  -4 10698.5 500.118   1
   1   6  -3 2458.38 228.031   1
   1   6  -2 11455.5 479.326   1
   1   6  -1 1024.96 130.323   1
   1   6   0 182.249 72.0404   1
  -1   6   0 218.009 93.7710   1
  -1   6  -1 706.579 134.116   1
   1   6   1 833.383 109.451   1
  -1   6  -2 1237.04 185.209   1
  -1   6  -3 1761.46 222.146   1
  -1   6  -4 12130.6 604.232   1
  -1   6  -5 12330.6 638.998   1
   1   6   6 18682.4 421.135   2
   1   6   6 17841.6 494.642   1
  -1   6  -6 17534.6 797.630   1
  -1   6  -7 22749.2 903.478   1
   1   6   7 23195.0 541.190   1
   1   6   8 961.389 103.958   1
  -1   6  -8 630.647 161.608   1
  -1   6  -9 517.309 145.722   1
  -1   6 -10 539.219 160.198   1
   1   7 -11 464.467 141.977   1
   1   7 -10 17424.7 797.646   1
   1   7  -9 9726.44 580.405   1
   1   7  -8 3550.56 337.508   1
  -1   7   7 1406.90 117.348   2
   1   7  -7 1918.41 237.488   1
  -1   7   6 5311.49 248.713   2
   1   7  -6 5340.39 391.756   1
   1   7  -5 9024.03 499.532   1
   1   7  -4 58411.3 1478.68   1
   1   7  -3 2401.23 235.268   1
   1   7  -2 608.617 114.372   1
   1   7  -1 3310.31 256.285   1
   1   7   0 38440.8 982.584   1
  -1   7   0 35485.3 1078.75   1
   1   7   1 7677.14 374.824   1
  -1   7  -1 7335.55 454.923   1
  -1   7  -2 10154.3 540.998   1
   1   7   2 10631.3 437.457   1
  -1   7  -3 4125.05 351.767   1
  -1   7  -4 6059.67 443.631   1
  -1   7  -5 166.752 90.7542   1
   1   7   6 38807.3 838.950   1
  -1   7  -6 41238.1 1331.50   1
  -1   7  -7 3338.38 353.945   1
  -1   7  -8 3081.61 347.469   1
  -1   7  -9 84.0673 82.3533   1
   1   8 -10 691.218 154.055   1
   1   8  -9-73.7897 86.3667   1
   1   8  -8 566.428 139.464   1
   1   8  -7 17024.5 776.296   1
   1   8  -6 157.543 96.9029   1
  -1   8   6 200.086 52.5854   2
   1   8  -5 121.817 76.5684   1
   1   8  -4 2752.32 276.564   1
   1   8  -3 21823.1 808.229   1
   1   8  -2 142.749 73.2516   1
  -1   8   1 44765.2 1279.16   1
   1   8  -1 47992.9 1219.08   1
   1   8   0 2763.11 239.455   1
  -1   8   0 2663.78 275.446   1
   1   8   1 32.3183 55.7742   1
  -1   8  -1-18.9138 62.1591   1
   1   8   2 1831.39 188.025   1
  -1   8  -2 1651.16 229.753   1
   1   8   3 39496.1 1006.84   1
  -1   8  -3 37143.1 1228.03   1
  -1   8  -4 6011.95 468.359   1
  -1   8  -5 3293.60 349.120   1
  -1   8  -6 3234.72 352.839   1
  -1   8  -7 2547.92 312.958   1
  -1   8  -8 2835.14 332.050   1
   1   9  -9 2776.66 293.458   1
   1   9  -8 4417.29 373.579   1
   1   9  -7 2249.56 262.716   1
   1   9  -6 5761.21 425.015   1
   1   9  -5 3507.72 326.276   1
   1   9  -4 354.272 110.389   1
   1   9  -3 691.803 147.217   1
   1   9  -2 1869.78 218.432   1
  -1   9   2 1531.41 212.602   1
  -1   9   1 2864.18 291.428   1
   1   9  -1 3025.05 267.526   1
  -1   9   0 157.913 69.6295   1
   1   9   0 200.865 69.2697   1
  -1   9  -1 100.389 82.8294   1
   1   9   1 282.275 79.1440   1
  -1   9  -2 188.491 99.8501   1
   1   9   2 300.610 83.8342   1
  -1   9  -3 3660.07 361.970   1
   1   9   3 3180.85 246.308   1
  -1   9  -4 10326.4 633.842   1
  -1   9  -5-38.2159 108.099   1
  -1   9  -6 1951.69 277.196   1
  -1   9  -7 907.413 195.307   1
   1  10  -7 5740.87 410.239   1
   1  10  -6 1290.70 194.714   1
   1  10  -5 3929.85 329.440   1
   1  10  -4 449.242 108.015   1
   1  10  -3 901.852 159.646   1
  -1  10   3 935.590 162.268   1
  -1  10   2 2922.55 286.366   1
  -1  10   1 1181.31 190.224   1
  -1  10   0 114.618 65.5226   1
  -1  10  -1 692.964 160.828   1
  -1  10  -2 1169.78 204.422   1
  -1  10  -3 3986.85 375.062   1
  -1  10  -4 6249.21 479.325   1
  -1  10  -5 2070.24 273.208   1
  -1  11   1 443.979 123.858   1
  -1  11   0 14982.1 694.880   1
  -1  11  -1 1968.63 251.395   1
  -1  11  -2 10348.9 590.243   1
   2   0 -14 29357.1 880.853   2
   2   0 -13 63.2112 71.9770   2
   2   0 -12 3110.34 254.738   2
   2   0 -11 179.839 85.2500   2
   2   0 -10 5815.95 340.360   2
   2   0  -9 62.8335 44.6467   2
  -2   0   9-9.51814 32.1442   1
   2   0  -8 11116.2 450.210   2
   2   0  -7 67.5705 48.9313   2
   2   0  -6 8605.75 356.774   2
  -2   0   5-0.84299 25.8055   2
   2   0  -5 43.4077 38.2624   2
   2   0  -4 213637. 3539.86   2
   2   0  -3 40.0863 37.7948   2
   2   0  -2 7844.05 276.155   2
   2   0  -1 67.1880 41.5238   2
   2   0   0 38680.3 794.223   2
  -2   0  -1-15.7769 34.8522   1
  -2   0  -1 15.4535 27.4089   2
   2   0   2 191715. 3164.47   1
  -2   0  -2 186361. 3119.11   2
  -2   0  -3 0.32919 39.2895   1
  -2   0  -3 0.78937 23.6138   2
   2   0   3-11.0814 30.9968   1
   2   0   4 1850.79 155.058   1
  -2   0  -4 1919.15 169.849   1
  -2   0  -5-18.1330 44.3621   1
   2   0   5-5.84402 35.6903   1
   2   0   6 25712.1 724.316   1
  -2   0  -6 25849.0 780.929   1
   2   0   7 7.48841 35.8350   1
  -2   0  -7 25.7110 44.0475   1
  -2   0  -8 5841.24 365.543   1
   2   0   8 7071.22 362.835   1
   2   0   9 43.7476 53.4474   1
  -2   0  -9-22.1299 62.4987   1
  -2   0 -10 15210.5 657.509   1
  -2   0 -11 50.7780 65.1359   1
  -2   0 -12 54774.5 1490.07   1
  -2   0 -13-84.5833 70.7682   1
   2   1 -15 4079.35 294.930   2
   2  -1 -14 6846.67 350.213   2
   2   1 -14 6470.93 399.859   2
   2   1 -13 5066.49 357.893   2
   2  -1 -13 5870.08 341.532   2
   2  -1 -12 7524.75 395.670   2
   2   1 -12 7746.90 430.701   2
   2  -1 -11 13336.7 533.255   2
   2   1 -11 12816.8 565.061   2
   2  -1 -10 2847.21 230.460   2
   2   1 -10 2868.79 252.679   2
  -2   1   9 172.501 57.9857   1
   2  -1  -9 76.9796 36.6065   2
   2   1  -9 28.2888 48.6592   2
  -2  -1   9 127.930 53.2107   1
   2   1  -8 7487.66 381.822   2
  -2  -1   8 8079.68 363.119   1
   2  -1  -8 7897.40 357.315   2
   2  -1  -7 49917.5 1097.08   2
  -2  -1   7 50313.1 1091.51   1
   2   1  -7 49779.7 1178.59   2
  -2   1   7 49261.8 1040.93   2
  -2   1   6 1391.46 119.707   2
   2  -1  -6 1509.74 141.108   2
   2   1  -6 1373.30 148.233   2
   2  -1  -5 49780.4 1043.56   2
   2   1  -5 50100.1 1098.78   2
  -2   1   5 47864.4 980.057   2
  -2  -1   5 48274.1 992.974   1
  -2  -1   4 17449.0 447.256   1
   2  -1  -4 18505.0 509.988   2
   2   1  -4 18197.4 533.289   2
  -2   1   4 17978.9 467.491   2
   2   1  -3 1870.72 146.184   2
  -2  -1   3 1693.92 104.345   1
   2  -1  -3 1868.20 142.331   2
   2   1  -2 34.6269 35.1173   2
   2  -1  -2 41.2665 35.7674   2
   2  -1  -1 16292.0 470.068   2
   2   1  -1 15250.2 408.620   2
   2   1   0 21284.3 487.047   2
  -2  -1   0 21543.8 491.130   2
  -2  -1  -1 224.085 41.8699   2
  -2   1  -1 217.463 60.7825   1
  -2  -1  -1 256.204 36.3186   1
   2   1   1 244.245 43.0646   2
   2   1   2 76542.3 1302.49   2
  -2  -1  -2 75504.6 1291.35   2
   2   1   2 72583.7 1324.26   1
  -2   1  -2 77078.7 1481.74   1
  -2  -1  -2 75367.9 1333.34   1
  -2   1  -3 55476.8 1208.55   1
   2  -1   3 54353.6 1155.17   1
   2   1   3 54427.0 1072.57   1
  -2  -1  -3 56525.2 988.227   2
  -2  -1  -3 55845.1 1091.85   1
  -2   1  -4 6597.15 345.489   1
   2   1   4 6491.55 275.194   1
   2  -1   4 7389.41 338.615   1
  -2  -1  -4 6747.71 292.297   1
  -2  -1  -4 7470.73 215.911   2
   2   1   5 58931.2 1215.26   1
  -2  -1  -5 56508.5 996.424   2
   2  -1   5 59742.3 1293.04   1
  -2   1  -5 58796.6 1348.29   1
  -2  -1  -5 58715.0 1224.92   1
   2   1   6 3591.50 233.863   1
  -2   1  -6 3866.95 283.171   1
   2  -1   6 3803.86 261.919   1
  -2  -1  -6 3751.17 132.990   2
  -2  -1  -6 3738.26 242.017   1
  -2  -1  -7 2823.09 226.067   1
   2   1   7 3353.72 236.060   1
   2  -1   7 3379.05 256.555   1
  -2  -1  -7 3465.66 124.700   2
  -2   1  -7 3201.57 268.356   1
   2  -1   8 4851.91 307.384   1
  -2  -1  -8 4193.37 288.412   1
  -2  -1  -8 4541.65 145.226   2
   2   1   8 4504.59 279.915   1
  -2   1  -8 4198.59 327.436   1
   2   1   9 18976.2 627.195   1
  -2  -1  -9 18576.1 371.605   2
  -2   1  -9 16164.7 695.332   1
  -2  -1  -9 16564.7 659.805   1
  -2  -1  -9 18641.9 394.132   2
  -2   1 -10 160.107 100.659   1
  -2  -1 -10 35.1305 13.7745   2
  -2  -1 -10 41.1268 14.0464   2
  -2  -1 -10 65.2419 53.9586   1
  -2  -1 -11 11523.7 575.501   1
  -2   1 -11 12644.2 627.676   1
  -2  -1 -12 10707.5 557.965   1
  -2   1 -12 11085.4 591.172   1
  -2   1 -13 4704.24 382.361   1
   2   2 -15 4398.44 331.239   2
   2   2 -14 777.460 151.060   2
   2   2 -13 244.983 96.6561   2
   2  -2 -13 314.196 69.9644   2
   2  -2 -12 132.923 57.6751   2
   2   2 -12 213.333 99.4751   2
   2  -2 -11 1916.87 189.568   2
   2   2 -11 1698.08 213.167   2
   2   2 -11 1453.59 203.695   1
   2  -2 -10 36.2743 52.1420   2
   2   2 -10 147.327 72.7417   2
   2   2 -10 242.472 90.9367   1
   2  -2  -9 12799.4 521.741   2
   2   2  -9 12348.1 548.747   1
  -2   2   9 12906.1 469.852   1
  -2  -2   9 12823.8 505.143   1
   2   2  -9 12778.4 569.221   2
   2  -2  -8 1963.27 187.462   2
   2   2  -8 1560.18 178.237   1
  -2   2   8 1855.46 162.718   1
  -2   2   8 1925.25 144.541   2
   2   2  -8 1713.06 191.969   2
  -2  -2   8 1605.39 166.269   1
  -2  -2   7 1751.71 164.919   1
   2   2  -7 1999.34 201.775   2
  -2   2   7 1753.22 136.618   2
   2   2  -7 1896.39 179.933   1
   2  -2  -7 2366.29 193.909   2
   2  -2  -6 1833.35 166.875   2
  -2   2   6 1517.76 122.626   2
   2   2  -6 1660.26 154.292   1
   2   2  -6 1780.85 181.734   2
  -2   2   5 112422. 1965.66   2
   2   2  -5 112695. 2034.48   1
   2  -2  -5 107859. 2082.67   2
  -2  -2   5 111770. 2014.35   1
   2  -2  -4 9604.16 378.406   2
   2   2  -4 8496.84 308.186   1
  -2  -2   4 9075.88 314.603   1
  -2   2   4 8871.10 311.321   2
   2   2  -4 8730.27 375.376   2
  -2  -2   3 843.943 78.7210   1
   2   2  -3 928.308 79.6670   1
   2   2  -3 772.978 107.862   2
  -2  -2   2 3155.83 134.733   1
   2   2  -2 2843.34 186.214   2
   2   2  -1 25199.7 612.737   2
  -2  -2   1 24745.0 460.805   1
   2   2   0 419.299 61.1443   2
  -2   2  -1 16293.6 526.635   1
   2   2   1 16061.7 393.830   2
  -2   2  -2 103.891 59.4186   1
  -2  -2  -2 72.4445 20.3379   1
   2   2   2 137.379 32.7310   1
   2   2   2 64.2573 22.2520   2
   2   2   3 53034.7 891.185   2
  -2  -2  -3 51790.8 941.068   1
   2   2   3 49209.9 962.675   1
  -2   2  -3 49541.7 1195.27   1
  -2   2  -4 38.8551 51.5133   1
   2   2   4-15.6467 33.4889   1
  -2  -2  -4 19.8521 25.2815   1
  -2   2  -5 15251.3 609.143   1
  -2  -2  -5 15570.2 463.264   1
   2  -2   5 16163.6 580.021   1
   2   2   5 14247.5 446.903   1
   2   2   6 1390.05 134.206   1
  -2  -2  -6 1566.05 146.045   1
   2  -2   6 1628.12 174.713   1
  -2   2  -6 1269.16 176.085   1
  -2   2  -7-38.0420 62.5803   1
  -2  -2  -7-11.4657 39.9023   1
   2  -2   7 83.5700 67.9665   1
   2   2   7-18.6786 35.3895   1
  -2   2  -8 583.708 126.686   1
   2   2   8 522.952 90.5992   1
  -2  -2  -8 459.874 97.6908   1
  -2  -2  -9 2639.08 234.128   1
  -2   2  -9 2833.29 285.836   1
   2   2   9 2371.18 196.136   1
  -2   2 -10 660.013 136.701   1
  -2   2 -11 7247.05 484.469   1
  -2   2 -12 3558.04 342.833   1
  -2   2 -13 2757.43 297.468   1
   2   3 -15 8497.62 487.112   2
   2   3 -14 2740.48 303.019   1
   2   3 -14 2724.84 285.284   2
   2   3 -13 9078.47 560.106   1
   2   3 -13 8384.72 520.235   2
   2   3 -12 8675.09 530.016   2
   2  -3 -12 9030.53 393.603   2
   2   3 -12 8241.80 516.137   1
   2   3 -11 12751.6 623.734   1
   2  -3 -11 12263.2 484.034   2
   2   3 -11 13230.0 641.221   2
   2  -3 -10 2464.94 213.242   2
   2   3 -10 2581.59 254.398   1
   2   3 -10 3165.18 292.573   2
   2   3  -9 295.541 88.4974   1
  -2   3   9 419.086 68.6024   2
  -2  -3   9 462.640 91.4268   1
   2  -3  -9 368.938 97.0193   2
  -2   3   8 2858.79 202.683   1
   2  -3  -8 2487.57 222.294   2
   2   3  -8 2242.69 222.563   1
  -2   3   8 2344.24 158.549   2
  -2  -3   8 2605.75 215.621   1
  -2   3   7 20678.9 551.263   2
  -2  -3   7 23037.1 679.593   1
   2   3  -7 21002.1 687.387   1
   2   3  -6 852.964 117.864   1
  -2   3   6 936.499 96.5799   2
  -2   3   5 76103.6 1412.98   2
   2   3  -5 74646.6 1478.66   1
  -2  -3   5 72018.9 1477.51   1
   2   3  -4 2887.87 179.492   1
  -2   3   4 3112.59 182.407   2
  -2  -3   4 2919.25 185.981   1
  -2  -3   3 9146.07 315.618   1
   2   3  -3 8857.29 299.165   1
  -2   3   3 9898.33 351.758   2
  -2  -3   2 13207.1 347.673   1
   2   3  -2 13760.8 337.558   1
  -2  -3   1 19078.3 377.215   1
   2   3  -1 18718.2 363.983   1
   2   3   1 26151.5 610.142   2
  -2   3  -1 26520.4 773.907   1
  -2   3  -2 8005.80 400.646   1
   2   3   2 8139.06 254.684   2
   2   3   2 7918.77 194.991   1
   2   3   3 95701.4 1563.78   2
  -2   3  -3 95157.3 1987.98   1
   2   3   3 94515.9 1598.64   1
  -2   3  -4 15753.8 627.637   1
   2   3   4 15935.7 412.888   1
   2   3   4 15559.3 296.815   2
  -2   3  -5 53361.7 1381.05   1
   2  -3   5 56053.0 1297.86   1
   2   3   5 51717.2 1059.79   1
   2  -3   6 328.199 92.4223   1
   2   3   6 215.824 56.1069   1
  -2   3  -6 268.552 96.9547   1
  -2   3  -7 6541.29 436.083   1
   2   3   7 6714.63 306.758   1
   2   3   8 661.631 96.7538   1
  -2   3  -8 731.057 153.176   1
   2   3   9 16216.8 537.341   1
  -2   3  -9 16070.2 746.447   1
  -2   3 -10 2655.09 296.681   1
  -2   3 -11 10183.0 596.285   1
  -2   3 -12 4354.44 383.409   1
   2   4 -15 2201.62 256.909   2
   2   4 -14 15427.6 726.904   2
   2   4 -13-65.8895 96.4760   2
   2   4 -13 102.079 79.3113   1
   2   4 -12 4161.33 363.411   1
   2   4 -12 4470.03 395.146   2
   2   4 -11 590.645 130.611   1
  -2   4  10 4155.46 212.573   2
   2   4 -10 4023.00 334.803   1
   2   4  -9 4206.47 323.545   1
  -2   4   9 4224.94 214.570   2
   2   4  -8 18219.3 689.314   1
  -2   4   8 18503.4 518.562   2
   2   4  -7 244.210 81.3831   1
  -2  -4   7 203.250 67.4731   1
  -2   4   7 281.321 55.1713   2
  -2   4   6 538.068 77.0027   2
   2   4  -6 536.503 101.889   1
  -2  -4   6 576.762 106.128   1
  -2   4   5 4578.59 232.875   2
   2   4  -5 4628.74 261.160   1
  -2  -4   4 101708. 1915.15   1
  -2   4   4 105823. 1932.58   2
   2   4  -4 107797. 1940.14   1
  -2   4   3 17277.8 531.368   2
  -2  -4   3 17844.6 481.876   1
   2   4  -3 18181.3 492.850   1
  -2  -4   2 9791.61 293.260   1
   2   4  -2 10092.5 308.964   1
   2   4  -1 1827.42 101.445   1
   2   4   0 33064.1 597.582   1
  -2   4  -1 8476.60 432.213   1
   2   4   1 8729.01 200.802   1
   2   4   2 111796. 1772.45   1
  -2   4  -2 110340. 2292.50   1
   2   4   3 187.344 30.4188   1
   2   4   3 255.017 46.0536   2
  -2   4  -3 178.739 76.4622   1
  -2   4  -4 4731.38 346.396   1
   2   4   4 5449.12 167.340   2
   2   4   4 5606.13 205.161   1
  -2   4  -5 70.0783 58.4356   1
   2   4   5 154.088 38.5199   1
   2  -4   5 267.923 89.4093   1
  -2   4  -6 20213.6 839.785   1
   2   4   6 23571.5 589.398   1
  -2   4  -7 430.973 120.051   1
   2   4   7 496.247 79.6953   1
  -2   4  -8 6434.32 468.067   1
   2   4   8 6567.70 301.316   1
   2   4   9 1770.16 153.453   1
  -2   4  -9 2201.16 276.775   1
  -2   4 -10 13422.5 715.136   1
  -2   4 -11 3552.40 358.985   1
   2   5 -14 3767.84 357.524   2
   2   5 -13 989.904 201.118   2
   2   5 -13 1265.18 208.744   1
   2   5 -12 4336.31 375.020   1
   2   5 -11 4333.18 371.264   1
   2   5 -10 517.374 124.169   1
  -2   5  10 499.012 69.7222   2
   2   5  -9 250.156 87.2228   1
  -2   5   9 284.052 58.3161   2
  -2  -5   8 4286.96 287.762   1
  -2   5   8 3685.55 202.204   2
   2   5  -8 4028.45 306.024   1
  -2   5   7 28439.4 710.223   2
   2   5  -7 27991.9 872.728   1
   2   5  -6 8852.04 421.536   1
  -2  -5   6 9488.52 422.873   1
  -2   5   6 8697.96 344.848   2
  -2   5   5 7633.40 328.415   2
   2   5  -5 7941.20 379.981   1
  -2  -5   4 9024.13 357.470   1
   2   5  -4 8834.02 373.673   1
  -2   5   4 8307.91 353.483   2
   2   5  -3 5510.95 269.413   1
  -2  -5   3 5327.81 241.293   1
   2   5  -2 1812.35 135.431   1
   2   5  -1 12013.0 352.910   1
   2   5   0 8587.32 264.472   1
   2   5   1 6301.78 206.258   1
  -2   5  -1 5984.11 381.562   1
  -2   5  -2 53630.9 1401.26   1
  -2   5  -3 17247.2 718.620   1
   2   5   3 17301.7 381.689   1
   2   5   4 512.475 59.7742   2
  -2   5  -4 383.189 117.547   1
   2   5   4 510.240 58.9198   1
  -2   5  -5 20361.4 839.702   1
   2   5   5 20237.8 496.329   1
   2   5   5 20513.9 404.257   2
  -2   5  -6 4160.17 376.140   1
   2   5   6 4515.08 212.594   1
   2   5   7 353.667 60.1147   1
  -2   5  -7 338.689 104.364   1
   2   5   8 702.613 90.9407   1
  -2   5  -8 656.321 164.044   1
  -2   5  -9 10667.7 641.503   1
  -2   5 -10 207.926 99.0006   1
  -2   5 -11 2458.44 305.529   1
   2   6 -12 695.132 154.824   1
   2   6 -11 2212.30 261.785   1
   2   6 -10 705.672 149.505   1
   2   6  -9 5115.37 376.287   1
  -2   6   9 5018.86 226.114   2
   2   6  -8 6648.53 416.176   1
  -2   6   8 6534.20 273.451   2
   2   6  -7 4490.67 322.858   1
  -2  -6   7 4301.12 279.627   1
  -2   6   7 3895.45 213.570   2
  -2  -6   6 5352.61 303.218   1
   2   6  -6 5231.42 334.956   1
  -2   6   6 4908.53 255.909   2
  -2   6   5 26287.0 705.020   2
  -2  -6   5 26986.3 726.602   1
   2   6  -5 27186.4 809.811   1
   2   6  -4 14806.1 538.768   1
   2   6  -3 8389.23 365.161   1
   2   6  -2 794.671 104.565   1
   2   6  -1 1412.33 123.986   1
   2   6   0 186.040 44.4904   1
  -2   6   0 36.3935 61.1508   1
   2   6   1 733.255 79.3140   1
  -2   6  -1 586.667 127.222   1
  -2   6  -2 3945.71 343.767   1
   2   6   2 4243.45 193.274   1
  -2   6  -3 3311.37 316.096   1
   2   6   3 4141.96 159.692   1
   2   6   4 836.932 71.9538   1
  -2   6  -4 985.601 176.204   1
   2   6   5 9483.60 297.991   1
   2   6   5 9776.83 285.764   2
  -2   6  -5 9588.57 577.539   1
  -2   6  -6 8509.34 561.465   1
   2   6   6 8309.36 286.177   1
  -2   6  -7 1127.32 211.211   1
  -2   6  -8 2002.71 278.514   1
  -2   6  -9 4595.15 429.548   1
  -2   6 -10 1380.76 236.930   1
   2   7 -11 9410.13 544.062   1
   2   7 -10 1379.60 204.591   1
   2   7  -9 122.751 70.0605   1
  -2   7   8 29.9862 28.9588   2
   2   7  -8 320.336 97.9207   1
  -2   7   7 16921.4 500.092   2
   2   7  -7 17226.6 692.568   1
  -2   7   6 1069.02 116.801   2
   2   7  -6 1095.42 160.884   1
  -2  -7   6 1026.12 126.254   1
  -2   7   5 23581.6 655.880   2
   2   7  -5 25460.3 804.491   1
   2   7  -4 184.625 70.3886   1
   2   7  -3 4100.77 267.649   1
   2   7  -2 15903.6 530.965   1
   2   7  -1 22091.5 624.985   1
   2   7   0 12173.6 412.492   1
  -2   7   0 11717.4 598.560   1
  -2   7  -1 13122.2 648.538   1
   2   7   1 14494.6 435.933   1
   2   7   2 58.8397 25.7579   1
  -2   7  -2 100.572 86.1677   1
  -2   7  -3 40607.9 1331.75   1
   2   7   3 45093.7 940.370   1
  -2   7  -4 6396.85 468.392   1
   2   7   4 7208.21 232.430   1
  -2   7  -5 28253.3 1087.16   1
  -2   7  -6 2426.17 305.062   1
  -2   7  -7 2700.14 334.016   1
  -2   7  -8 80.6226 90.8946   1
   2   8 -10 1992.51 233.502   1
   2   8  -9 2547.63 268.350   1
   2   8  -8 14133.1 637.484   1
   2   8  -7 76.2807 51.2689   1
   2   8  -6 5331.21 365.186   1
   2   8  -5 2754.62 248.363   1
   2   8  -4 18762.6 673.928   1
   2   8  -3 4396.68 289.914   1
   2   8  -2 12614.5 487.754   1
  -2   8   1 952.167 169.366   1
   2   8  -1 1264.84 140.912   1
   2   8   0 24944.0 677.696   1
  -2   8   0 22697.0 898.448   1
   2   8   1 6568.82 294.113   1
  -2   8  -1 5915.30 453.127   1
   2   8   2 20481.2 577.758   1
  -2   8  -2 23800.4 944.280   1
  -2   8  -3 165.833 110.636   1
  -2   8  -4 3693.78 371.760   1
  -2   8  -5 115.704 110.284   1
  -2   8  -6 9515.76 629.223   1
  -2   8  -7 96.5389 69.9093   1
   2   9  -9 85.6751 67.3278   1
   2   9  -8 2862.79 271.342   1
   2   9  -7 5538.77 366.492   1
   2   9  -6 4044.59 306.569   1
   2   9  -5 1182.13 169.106   1
   2   9  -4 468.496 108.755   1
   2   9  -3 4969.12 307.539   1
  -2   9   2 4310.38 371.102   1
   2   9  -2 4843.52 291.466   1
  -2   9   1 2007.99 259.458   1
  -2   9   0-66.4981 90.5796   1
  -2   9  -1 5255.97 432.569   1
  -2   9  -2 4518.21 406.477   1
  -2   9  -3 2921.10 336.368   1
  -2   9  -4 662.090 168.447   1
  -2   9  -5 2863.18 336.514   1
  -2  10   3 8555.42 510.820   1
  -2  10   2 503.108 131.266   1
  -2  10   1 3717.56 347.767   1
  -2  10   0 480.194 128.363   1
  -2  10  -1 1840.98 245.485   1
  -2  10  -2 4101.37 383.370   1
  -2  10  -3 200.723 117.046   1
   3   0 -15 16535.4 649.671   2
   3   0 -14 75.6346 68.8127   2
   3   0 -13 479.580 121.385   2
   3   0 -12-16.8906 47.3611   2
   3   0 -11 6437.37 394.921   2
   3   0 -10-24.1017 54.4437   2
  -3   0   9 37809.0 919.656   1
   3   0  -9 34138.0 982.097   2
  -3   0   8 52.9979 37.7865   1
   3   0  -8 11.5750 55.8141   2
  -3   0   7 58576.5 1197.62   1
   3   0  -7 55978.0 1295.52   2
  -3   0   7 56093.6 1223.20   2
   3   0  -6 22.9099 41.7451   2
  -3   0   6 12.8029 36.3690   2
   3   0  -5 20993.9 626.624   2
   3   0  -4 13.5767 34.5295   2
   3   0  -3 408.694 84.2014   2
   3   0  -2-16.4387 45.6095   2
   3   0  -1 124136. 2214.84   2
   3   0   0 49.7416 49.5210   2
  -3   0   0 59.1856 34.5354   2
  -3   0  -1 166466. 2761.70   1
  -3   0  -1 157591. 2741.22   2
  -3   0  -2 13.5265 35.7281   1
  -3   0  -2 5.45696 28.2612   2
  -3   0  -3 25356.8 695.489   1
  -3   0  -3 25737.9 613.818   2
  -3   0  -4 13.7637 23.7949   2
  -3   0  -4-9.06861 38.5878   1
   3   0   4-11.6775 43.1369   1
  -3   0  -5 11118.3 342.791   2
   3   0   5 10300.8 426.600   1
  -3   0  -5 10586.1 455.431   1
  -3   0  -6 64.4918 44.2033   1
   3   0   6-52.5122 46.9813   1
  -3   0  -6 24.6602 30.8786   2
   3   0   7 2429.74 208.106   1
  -3   0  -7 2480.67 145.780   2
  -3   0  -7 2578.69 229.952   1
   3   0   8-0.49569 43.2014   1
  -3   0  -8 39.6006 59.6216   1
  -3   0  -8 13.8133 19.0249   2
  -3   0  -9 38300.3 1126.20   1
  -3   0  -9 42710.8 820.384   2
  -3   0 -10 60.5883 60.0901   1
  -3   0 -11 19466.6 760.381   1
  -3   0 -12 23.1723 49.6416   1
  -3   0 -13 2238.76 245.623   1
   3   1 -15 4767.13 344.614   2
   3   1 -14 3260.71 299.462   2
   3  -1 -14 2896.05 260.376   2
   3  -1 -13 2785.26 266.443   2
   3   1 -13 3198.43 298.425   2
   3  -1 -12 709.572 133.817   2
   3   1 -12 602.513 127.328   2
   3   1 -11 1455.02 194.375   2
   3  -1 -11 1599.61 197.309   2
   3  -1 -10 1723.76 197.510   2
   3   1 -10 1650.40 201.744   2
  -3   1   9 28211.0 764.033   1
  -3  -1   9 28778.4 773.813   1
   3  -1  -9 27660.8 842.819   2
   3   1  -9 27551.7 871.151   2
  -3   1   8 45901.6 1031.61   1
   3  -1  -8 44033.1 1107.14   2
   3   1  -8 43790.2 1144.64   2
  -3   1   8 43653.0 1020.15   2
  -3  -1   8 44027.9 1024.36   1
  -3  -1   7 314.443 70.7651   1
   3  -1  -7 405.181 89.5894   2
   3   1  -7 373.009 93.5934   2
  -3   1   7 376.956 73.2374   2
   3  -1  -6 10250.1 426.006   2
   3   1  -6 10179.9 442.740   2
  -3   1   6 10109.5 379.926   2
  -3  -1   5 6645.22 264.297   1
   3  -1  -5 6792.71 329.658   2
   3   1  -5 6966.86 341.464   2
  -3   1   5 6343.62 287.659   2
  -3  -1   4 5743.46 226.616   1
   3  -1  -4 6124.79 305.443   2
   3   1  -4 5747.15 294.010   2
   3  -1  -3 2902.50 207.665   2
   3   1  -3 2590.12 190.913   2
   3   1  -2 12801.1 431.605   2
   3  -1  -2 13262.4 474.012   2
   3  -1  -1 8554.47 373.822   2
   3   1  -1 8362.78 321.489   2
  -3  -1   1 9409.16 330.053   2
   3   1   0 46.8019 34.9784   2
  -3  -1   0 53.4178 33.5726   2
  -3  -1  -1 54704.0 1047.00   1
  -3   1  -1 57526.9 1155.54   2
  -3   1  -1 55237.3 1203.96   1
   3   1   1 56148.3 1111.77   2
  -3  -1  -1 57001.0 1102.08   2
  -3  -1  -2 73167.4 1356.98   1
  -3   1  -2 74436.3 1517.34   1
   3   1   2 73136.4 1377.20   2
  -3   1  -2 71697.9 1409.03   2
  -3  -1  -2 73823.3 1363.22   2
   3   1   3 1230.96 113.496   1
  -3   1  -3 1351.91 151.081   1
  -3   1  -3 1237.96 118.734   2
  -3  -1  -3 1398.95 113.061   2
  -3  -1  -3 1230.54 116.711   1
   3   1   4 442.133 74.5098   1
  -3   1  -4 484.301 109.173   1
  -3  -1  -4 587.141 90.8850   1
  -3  -1  -4 512.801 65.6545   2
   3  -1   4 617.459 100.782   1
  -3  -1  -5 2352.70 131.352   2
   3   1   5 2378.27 185.354   1
   3  -1   5 2355.32 204.123   1
  -3  -1  -5 2320.00 187.741   1
  -3   1  -5 2304.60 219.051   1
   3   1   6 12063.6 463.442   1
   3  -1   6 13593.1 530.100   1
  -3  -1  -6 13174.2 335.827   2
  -3  -1  -6 11920.5 474.248   1
  -3   1  -6 12194.6 547.000   1
   3   1   7 8363.77 382.883   1
   3  -1   7 8812.20 426.388   1
  -3  -1  -7 8919.09 249.466   2
  -3   1  -7 8170.66 460.135   1
  -3  -1  -7 8165.26 400.699   1
   3   1   8 46800.9 1106.24   1
  -3  -1  -8 43036.9 1142.59   1
  -3   1  -8 45686.5 1268.35   1
  -3  -1  -8 46950.0 825.819   2
   3   1   9 12606.7 484.120   1
  -3  -1  -9 11233.8 513.475   1
  -3   1  -9 12179.6 589.828   1
  -3   1 -10 368.791 116.462   1
  -3  -1 -10 601.093 124.260   1
  -3   1 -11 939.415 177.265   1
  -3  -1 -11 1112.84 169.744   1
  -3  -1 -12 3063.69 274.616   1
  -3   1 -12 3831.03 332.811   1
  -3  -1 -13 426.178 106.701   1
   3   2 -16 12460.4 584.063   2
   3   2 -15-70.5469 71.0933   2
   3  -2 -14 293.126 80.3186   2
   3   2 -14 531.269 139.621   2
   3  -2 -13 815.492 140.082   2
   3   2 -13 756.111 158.656   2
   3  -2 -12 2890.56 274.010   2
   3   2 -12 2360.81 259.649   2
   3  -2 -11-11.6668 51.8292   2
   3   2 -11-25.6007 65.3759   2
   3  -2 -10 7711.84 434.919   2
   3   2 -10 7114.82 436.774   2
  -3   2  10 6275.65 302.986   2
   3  -2  -9 1934.24 209.509   2
  -3  -2   9 1628.39 162.901   1
   3   2  -9 1675.84 208.392   2
  -3   2   9 1780.22 158.992   2
   3  -2  -8 38588.9 1046.21   2
  -3  -2   8 38748.5 939.000   1
  -3   2   8 37070.4 901.689   2
   3   2  -8 37142.8 1074.08   2
  -3  -2   7 1045.44 123.772   1
   3   2  -7 1189.89 167.283   2
   3  -2  -7 1183.65 154.149   2
  -3   2   7 1208.41 125.064   2
   3  -2  -6 33032.5 901.995   2
  -3   2   6 32144.5 783.514   2
   3   2  -6 31427.4 912.965   2
   3  -2  -5 356.386 88.9924   2
  -3   2   5 410.753 72.9513   2
  -3  -2   5 486.632 69.0805   1
   3   2  -5 327.944 88.3405   2
   3  -2  -4 16617.9 574.934   2
  -3  -2   4 15258.9 418.022   1
   3   2  -4 15247.9 546.491   2
  -3  -2   3 1624.62 104.685   1
   3  -2  -3 1870.38 180.950   2
   3   2  -3 1719.80 160.458   2
  -3  -2   2 24229.8 491.737   1
   3   2  -2 24418.4 666.684   2
   3   2  -1 1684.28 142.991   2
  -3  -2   0 7690.57 192.396   1
   3   2   0 7534.32 293.980   2
  -3  -2   0 8035.98 302.775   2
   3   2   1 15747.3 440.783   2
  -3   2  -1 14951.6 556.737   1
  -3  -2  -1 15953.1 339.278   1
  -3  -2  -1 16514.4 452.467   2
  -3   2  -2 38320.4 1017.52   1
   3   2   2 38643.7 797.310   2
  -3  -2  -2 37822.7 727.891   1
  -3  -2  -2 38514.3 807.241   2
   3   2   3 14134.1 380.653   2
   3   2   3 12995.9 373.454   1
  -3   2  -3 13603.0 554.098   1
  -3  -2  -3 13443.8 372.908   1
  -3  -2  -3 14959.0 397.326   2
  -3  -2  -4 107.901 31.8923   1
  -3  -2  -4 129.044 34.7464   2
  -3   2  -4 144.435 86.2409   1
   3   2   4 75.8407 37.1083   1
  -3   2  -5-64.9850 58.7154   1
  -3  -2  -5-60.1498 43.8346   1
   3  -2   5-3.16483 49.7162   1
  -3  -2  -5 12.9385 13.7157   2
   3   2   5 16.9248 25.2426   1
   3   2   6 416.193 74.7490   1
  -3   2  -6 387.607 99.2623   1
   3  -2   6 504.228 101.715   1
  -3  -2  -6 394.910 75.0136   1
  -3  -2  -7 955.940 126.715   1
  -3   2  -7 895.464 162.336   1
   3   2   7 772.159 109.628   1
   3   2   8 28354.6 767.734   1
  -3  -2  -8 29375.8 839.911   1
  -3   2  -8 28599.8 989.737   1
  -3   2  -9 1226.78 193.828   1
   3   2   9 1046.49 125.555   1
  -3  -2  -9 1166.95 156.084   1
  -3  -2 -10 3503.10 280.641   1
  -3   2 -10 3039.78 311.536   1
  -3   2 -11 10.3464 67.4545   1
  -3   2 -12 78.5261 67.0516   1
   3   3 -15 1806.19 231.686   2
   3   3 -14 3439.23 328.637   2
   3  -3 -13 6013.10 357.719   2
   3   3 -13 6260.77 457.559   2
   3   3 -12 806.122 170.193   2
   3  -3 -12 564.201 116.658   2
   3   3 -11 231.347 114.042   2
  -3   3  11 106.010 41.7049   2
   3  -3 -11 64.7250 68.7720   2
   3   3 -10 890.162 166.693   2
  -3   3  10 856.793 105.557   2
   3  -3 -10 930.093 164.771   2
   3  -3  -9 3079.46 292.159   2
  -3   3   9 2679.24 188.394   2
  -3  -3   9 2998.84 227.837   1
   3   3  -9 2579.45 271.982   2
   3  -3  -8 73148.5 1795.41   2
  -3   3   8 76713.6 1522.04   2
  -3  -3   8 79672.8 1615.85   1
   3   3  -8 79107.5 1830.32   2
   3  -3  -7 2135.07 225.549   2
  -3   3   7 2137.31 166.132   2
  -3  -3   7 2349.20 188.926   1
   3   3  -7 2335.47 242.324   2
  -3   3   6 1226.02 127.157   2
   3   3  -6 1360.21 177.928   2
  -3  -3   5 3672.19 210.439   1
  -3   3   5 3714.65 217.806   2
   3   3  -5 3222.42 262.334   2
  -3   3   4 20277.6 581.565   2
   3   3  -4 17859.4 642.663   2
  -3  -3   4 20113.1 528.513   1
   3   3  -3 214.283 71.3165   2
  -3  -3   3 313.244 52.1592   1
   3   3  -2 17824.1 574.177   2
  -3  -3   2 17631.0 401.697   1
   3   3  -1 5209.80 270.325   2
   3   3   0-12.2419 31.4291   2
   3   3   1 39826.0 850.152   2
  -3   3  -1 39243.3 1072.08   1
  -3   3  -2 75515.6 1692.97   1
   3   3   2 74103.6 1352.00   2
  -3   3  -3 8614.99 451.504   1
   3   3   3 8732.67 263.877   2
   3   3   3 7998.87 236.302   1
   3   3   4 137.852 34.6913   1
  -3   3  -4 48.4612 61.1557   1
  -3   3  -5 160.136 90.2015   1
   3   3   5 73.6207 37.4238   1
  -3   3  -6 3395.53 315.127   1
   3   3   6 3389.53 200.923   1
   3   3   7 143.836 38.0676   1
  -3   3  -7 93.1634 70.2346   1
   3   3   8 51674.0 1116.90   1
  -3   3  -8 53602.8 1503.46   1
   3   3   9 2682.06 191.985   1
  -3   3  -9 3061.22 318.767   1
  -3   3 -10 92.0999 61.5385   1
  -3   3 -11 624.381 154.766   1
   3   4 -14 892.739 177.824   2
   3   4 -13 298.941 131.449   2
   3   4 -12 113.723 111.146   2
   3   4 -12 209.157 103.651   1
   3   4 -11 7954.37 478.779   1
   3   4 -11 8571.38 548.792   2
  -3   4  11 8489.80 336.376   2
   3   4 -10 1609.02 234.395   2
   3   4 -10 2086.09 225.951   1
  -3   4  10 1719.86 142.407   2
   3   4  -9 10331.0 491.879   1
  -3   4   9 10112.9 374.560   2
   3   4  -9 10777.4 578.127   2
  -3   4   8 43.1147 40.8120   2
   3   4  -8 11.6371 78.2509   2
   3   4  -8 25.9061 58.1187   1
  -3  -4   8 87.6309 63.8809   1
   3   4  -7 15954.4 558.115   1
  -3   4   7 16071.9 503.798   2
   3   4  -7 15719.7 680.096   2
  -3  -4   7 15689.6 561.563   1
  -3   4   6 292.395 63.9879   2
   3   4  -6 235.403 95.6641   2
   3   4  -6 594.390 95.2472   1
  -3  -4   5 21152.0 610.126   1
   3   4  -5 20860.4 573.466   1
  -3   4   5 20351.2 604.978   2
   3   4  -5 19330.4 723.719   2
  -3   4   4 104.691 46.2920   2
   3   4  -4 146.910 69.8473   2
  -3  -4   4 180.468 49.1127   1
   3   4  -4 138.624 40.0445   1
  -3   4   3 107.536 46.4317   2
   3   4  -3 17.2964 48.8683   2
  -3  -4   3 83.5053 31.9656   1
   3   4  -2 3840.81 257.452   2
  -3  -4   2 4089.37 149.518   1
  -3   4   2 4010.44 247.537   2
   3   4  -1 87711.0 1749.01   2
   3   4   0 9807.35 387.175   2
  -3   4  -1 96870.1 2071.36   1
   3   4   1 94221.9 1757.06   2
  -3   4  -2 13038.9 604.578   1
   3   4   2 13479.1 403.061   2
  -3   4  -3 6351.35 417.153   1
   3   4   3 7066.37 243.897   2
   3   4   4 1934.14 101.338   2
  -3   4  -4 1698.36 224.081   1
   3   4   4 1835.11 104.535   1
  -3   4  -5 16823.3 747.339   1
   3   4   5 17013.8 440.807   1
  -3   4  -6 3291.81 327.983   1
   3   4   6 3695.59 193.217   1
   3   4   7 102.528 37.8453   1
  -3   4  -7 79.2438 69.6651   1
   3   4   8 1855.35 145.048   1
  -3   4  -8 2154.03 272.970   1
  -3   4  -9 29295.3 1110.25   1
  -3   4 -10 3125.67 345.004   1
   3   5 -13 3315.84 316.029   1
   3   5 -13 3087.08 335.196   2
   3   5 -12 1845.09 271.359   2
   3   5 -12 1938.83 243.416   1
   3   5 -11 419.298 132.837   2
   3   5 -11 528.388 124.343   1
   3   5 -10 10485.3 529.666   1
  -3   5  10 10300.5 371.596   2
   3   5 -10 10703.6 622.927   2
   3   5  -9 32790.9 971.497   1
  -3   5   9 31612.5 762.603   2
   3   5  -9 32936.7 1129.70   2
  -3  -5   8 5445.05 321.534   1
   3   5  -8 5404.11 330.951   1
  -3   5   8 5689.16 268.190   2
  -3   5   7-4.81873 28.7664   2
  -3  -5   7-7.89833 47.3898   1
   3   5  -7-72.6528 56.2267   1
  -3  -5   6 15322.6 527.000   1
   3   5  -6 16022.6 536.835   1
  -3   5   6 16093.3 514.996   2
   3   5  -5 4558.22 246.491   1
  -3   5   5 4725.39 266.368   2
  -3  -5   4 2566.45 170.632   1
   3   5  -4 2660.45 165.230   1
  -3   5   4 2968.85 211.353   2
   3   5  -3 3517.01 165.217   1
  -3  -5   3 3613.08 171.859   1
  -3   5   3 3384.80 229.097   2
   3   5  -2 3434.56 134.259   1
   3   5  -1 5685.39 315.028   2
   3   5   0 6074.94 318.297   2
  -3   5  -1 19383.7 774.056   1
   3   5   1 19688.8 589.420   2
  -3   5  -2 5107.30 391.080   1
   3   5   2 4563.77 232.450   2
  -3   5  -3 342.468 113.490   1
   3   5   3 344.055 60.0426   2
  -3   5  -4 6532.71 464.344   1
   3   5   4 6266.91 177.099   1
   3   5   4 6367.61 219.003   2
   3   5   5 207.590 24.8535   2
   3   5   5 202.149 36.7400   1
  -3   5  -5 167.877 93.4783   1
  -3   5  -6 18222.1 842.880   1
   3   5   6 18649.7 472.425   1
  -3   5  -7 8097.36 547.352   1
  -3   5  -8 13442.1 731.322   1
  -3   5  -9 5789.42 477.077   1
  -3   5 -10 1769.62 254.393   1
   3   6 -12 3954.91 339.007   1
   3   6 -12 4459.26 420.023   2
   3   6 -11 313.746 112.772   2
   3   6 -11 446.956 124.654   1
   3   6 -10 230.282 79.6801   1
   3   6  -9 6333.38 394.823   1
  -3   6   9 6025.17 273.959   2
   3   6  -8 6500.79 377.486   1
  -3   6   8 6715.95 294.433   2
  -3  -6   7 3238.89 230.243   1
   3   6  -7 3456.42 253.181   1
  -3   6   7 3255.36 204.610   2
  -3  -6   6 20924.9 614.961   1
   3   6  -6 20047.2 636.631   1
  -3   6   6 21135.3 605.088   2
  -3   6   5 325.089 73.4498   2
   3   6  -5 179.592 56.8677   1
   3   6  -4 4093.80 219.131   1
  -3   6   4 3870.77 240.993   2
  -3  -6   4 4253.46 211.831   1
   3   6  -3 1538.24 114.350   1
  -3   6   3 1447.23 150.806   2
   3   6  -2 7784.86 238.446   1
   3   6  -1 163.425 25.3337   1
  -3   6   0 3815.92 336.457   1
  -3   6  -1 13370.6 654.619   1
   3   6   1 13674.6 495.039   2
  -3   6  -2 8687.78 542.538   1
   3   6   2 8618.87 360.406   2
  -3   6  -3 20645.2 880.703   1
   3   6   3 22338.6 588.103   2
  -3   6  -4 3995.55 373.672   1
   3   6   4 3901.21 183.571   2
  -3   6  -5 959.911 194.713   1
   3   6   5 726.616 59.4327   2
  -3   6  -6 4478.82 419.077   1
  -3   6  -7 3522.30 378.640   1
  -3   6  -8 6313.73 510.305   1
   3   7 -12 1787.81 212.167   1
   3   7 -11 468.862 115.496   1
   3   7 -10-226.595 98.2779   1
   3   7  -9 91.7970 62.8839   1
   3   7  -8 27298.2 851.075   1
  -3  -7   7 1460.11 145.218   1
   3   7  -7 1295.64 160.215   1
   3   7  -6 1909.48 184.941   1
  -3  -7   6 1589.15 146.614   1
   3   7  -5 1360.37 143.012   1
   3   7  -4 14858.9 474.340   1
   3   7  -3 259.719 56.2890   1
   3   7  -2 22988.3 525.787   1
   3   7  -1 4302.39 150.246   1
  -3   7   0 1344.42 214.194   1
  -3   7  -1 4501.89 385.104   1
  -3   7  -2 26026.4 1009.98   1
   3   7   2 24145.0 707.829   2
  -3   7  -3 13619.8 721.594   1
   3   7   3 13236.1 455.191   2
  -3   7  -4 3666.90 371.690   1
   3   7   4 3837.38 199.498   2
  -3   7  -5 652.928 173.803   1
  -3   7  -6 5311.23 473.593   1
  -3   7  -7 3994.09 412.791   1
   3   8 -11 10591.3 522.646   1
   3   8 -10 2612.34 245.710   1
   3   8  -9 72.4692 44.0533   1
   3   8  -8 260.767 94.3055   1
   3   8  -7 289.249 81.1467   1
   3   8  -6 201.339 68.1211   1
   3   8  -5 15001.4 514.112   1
   3   8  -4 52.9771 39.5246   1
   3   8  -3 314.158 62.0622   1
  -3   8   1 34575.1 1171.49   1
  -3   8   0 4623.45 402.342   1
  -3   8  -1 16317.4 805.412   1
  -3   8  -2 4276.98 400.490   1
   3   8   2 4227.85 269.516   2
   3   8   3 73.2793 55.4668   2
  -3   8  -3 192.211 129.776   1
  -3   8  -4 22.5946 92.4357   1
  -3   8  -5 19444.8 931.014   1
  -3   9   2-38.9396 103.410   1
  -3   9   1 1548.60 237.150   1
  -3   9   0 4091.16 400.098   1
  -3   9  -1 4592.59 418.549   1
  -3   9  -2 79.1717 74.0961   1
  -3   9  -3 816.733 179.035   1
  -3  10   3 1026.13 178.587   1
  -3  10   2 1112.53 191.036   1
  -3  10   1 1198.03 209.279   1
   4   0 -15 11.1432 62.4331   2
   4   0 -14 986.025 176.742   2
   4   0 -13-7.44287 52.6661   2
   4   0 -12 12698.8 615.711   2
   4   0 -11-10.6681 68.7855   2
   4   0 -10 2915.92 264.155   2
   4   0  -9 54.1581 64.2695   2
  -4   0   8 24460.7 672.319   1
   4   0  -8 24422.9 801.022   2
  -4   0   8 24397.1 717.908   2
   4   0  -7 25.0620 59.4646   2
  -4   0   7 75.4513 57.1989   2
  -4   0   7 43.9204 36.1504   1
   4   0  -6 339.434 83.9800   2
  -4   0   6 380.725 79.5721   2
   4   0  -5 34.0496 51.3567   2
   4   0  -4 4021.48 266.859   2
   4   0  -3 6.36082 45.9822   2
   4   0  -2 153720. 2790.37   2
   4   0  -1-49.2992 57.9898   2
   4   0   0 5983.96 315.031   2
  -4   0  -1 16.3101 35.5035   1
  -4   0  -2 3325.63 223.993   1
  -4   0  -3-62.8680 48.7293   1
  -4   0  -4 50394.8 1197.59   1
  -4   0  -5 64.3910 43.6835   1
  -4   0  -6 323.124 83.1317   1
   4   0   6 226.947 64.7507   1
   4   0   7-71.9798 45.2771   1
  -4   0  -7-1.43316 57.0385   1
  -4   0  -8 54613.9 1366.79   1
  -4   0  -9 134.934 76.3029   1
  -4   0 -10 1072.86 157.098   1
  -4   0 -11 99.8823 74.4352   1
  -4   0 -12 9131.13 471.782   1
   4   1 -16 1756.71 216.856   2
   4  -1 -15 476.964 114.748   2
   4   1 -15 489.958 122.266   2
   4  -1 -14 4115.13 338.738   2
   4   1 -14 3929.66 340.722   2
   4  -1 -13 198.068 81.0467   2
   4   1 -13 86.4964 89.9054   2
   4  -1 -12 6057.82 416.318   2
   4   1 -12 5470.45 401.323   2
   4   1 -11 8255.29 480.105   2
   4  -1 -11 8538.22 479.736   2
   4  -1 -10 12473.1 576.336   2
   4   1 -10 13033.5 598.078   2
  -4  -1   9 13894.9 485.537   1
   4  -1  -9 13297.5 580.638   2
  -4   1   9 13805.3 505.183   2
   4   1  -9 13545.8 597.252   2
  -4  -1   8 149.078 51.3464   1
   4  -1  -8 166.923 77.8105   2
   4   1  -8 7.73389 48.1829   2
  -4   1   8 121.088 39.7720   2
  -4   1   8 171.326 48.3950   1
   4  -1  -7 139.928 54.8140   2
   4   1  -7 208.121 82.0393   2
  -4   1   7 113.948 54.4434   2
  -4  -1   7 296.836 63.9480   1
   4  -1  -6 1115.77 151.821   2
   4   1  -6 1079.85 150.940   2
  -4  -1   6 894.562 121.929   2
  -4  -1   6 1043.57 106.921   1
  -4   1   6 1164.88 134.689   2
   4   1  -5 16450.9 599.314   2
   4  -1  -5 16924.3 617.986   2
   4  -1  -4 14314.1 550.583   2
   4   1  -4 12952.5 507.091   2
   4  -1  -3 21771.7 706.371   2
   4   1  -3 21797.5 669.160   2
   4  -1  -2 58961.0 1353.17   2
   4   1  -2 59004.3 1286.03   2
   4  -1  -1 19965.6 675.401   2
   4   1  -1 19278.6 600.922   2
  -4   1   1 22381.4 635.336   2
   4   1   0 17892.1 560.665   2
  -4  -1  -1 9794.58 343.354   1
   4   1   1 9666.46 391.719   2
  -4   1  -1 9517.04 423.036   1
  -4  -1  -1 10855.1 400.492   2
  -4  -1  -2 37.9620 30.7281   2
  -4  -1  -2-0.22515 31.8397   1
  -4   1  -2 103.394 61.2003   1
  -4   1  -3 5559.32 336.336   1
  -4  -1  -3 6120.70 281.189   2
  -4  -1  -3 6379.21 292.697   1
  -4   1  -4 3332.71 266.606   1
  -4   1  -4 3140.86 195.427   2
  -4  -1  -4 2944.78 179.607   2
  -4  -1  -4 3021.59 206.702   1
  -4   1  -5 27668.5 887.540   1
  -4   1  -5 29157.8 708.264   2
  -4  -1  -5 27712.6 652.221   2
  -4  -1  -5 27561.4 770.125   1
  -4   1  -6 4257.76 219.607   2
  -4  -1  -6 4253.09 270.357   1
   4   1   6 3993.51 254.939   1
  -4  -1  -6 4186.65 189.881   2
  -4   1  -6 3759.10 301.093   1
  -4   1  -7 27615.2 666.517   2
  -4  -1  -7 27149.6 809.853   1
   4   1   7 27514.7 761.015   1
  -4  -1  -7 29503.8 603.352   2
  -4   1  -7 25976.7 905.425   1
  -4   1  -8 4761.75 216.637   2
  -4  -1  -8 4475.24 303.007   1
   4   1   8 5013.53 280.149   1
  -4   1  -8 4418.94 344.944   1
  -4  -1  -9 1310.26 168.584   1
  -4   1  -9 1129.17 184.714   1
  -4   1 -10 231.308 85.5691   1
  -4  -1 -10 180.210 77.9763   1
  -4   1 -11 1485.95 200.283   1
  -4  -1 -11 1610.49 187.799   1
  -4   1 -12 52.9658 54.8677   1
  -4  -1 -12 66.7228 66.9064   1
   4   2 -15 21.3284 61.4632   2
   4  -2 -14 119.406 65.9233   2
   4   2 -14 64.3930 67.0203   2
   4  -2 -13 11225.2 595.156   2
   4   2 -13 12360.1 644.702   2
   4  -2 -12 258.670 103.704   2
   4   2 -12 461.363 131.803   2
   4  -2 -11 209.708 108.417   2
   4   2 -11 112.301 88.1590   2
   4  -2 -10 345.432 111.964   2
   4   2 -10 501.843 132.470   2
   4  -2  -9 40990.6 1184.23   2
  -4  -2   9 42904.2 1001.12   1
   4   2  -9 39876.7 1183.06   2
  -4   2   9 41214.9 988.884   2
   4   2  -8 1329.34 182.952   2
   4  -2  -8 1533.74 196.597   2
  -4  -2   8 1325.47 135.118   1
  -4   2   8 1199.47 137.522   2
   4  -2  -7 5263.81 349.693   2
  -4   2   7 5172.39 283.173   2
   4   2  -7 4718.60 335.812   2
  -4  -2   7 4553.04 246.936   1
   4  -2  -6 451.084 116.347   2
  -4   2   6 347.980 75.0350   2
   4   2  -6 546.129 114.110   2
  -4  -2   5 616.980 77.4392   1
  -4   2   5 677.709 101.696   2
   4   2  -5 355.644 101.610   2
   4  -2  -5 353.618 95.8909   2
   4   2  -4 283.583 75.8618   2
  -4  -2   4 353.464 56.5334   1
   4  -2  -4 386.734 105.842   2
  -4  -2   3 60251.3 1105.26   1
   4   2  -3 59403.9 1339.40   2
  -4  -2   3 62854.7 1315.56   2
   4   2  -2 3217.54 228.015   2
  -4  -2   2 3638.24 231.520   2
   4   2  -1 818.559 109.771   2
  -4  -2   0 4316.49 169.293   1
  -4   2   0 4829.28 272.774   2
   4   2   0 4232.07 243.686   2
  -4   2  -1 778.742 105.461   2
   4   2   1 764.492 97.5096   2
  -4  -2  -1 728.881 69.9959   1
  -4   2  -1 778.409 129.952   1
  -4  -2  -1 955.950 114.062   2
   4   2   2 0.58484 27.8189   2
  -4  -2  -2 75.8687 46.7930   2
  -4  -2  -2 31.0541 22.2792   1
  -4   2  -2 51.9102 57.6516   1
  -4   2  -2 41.8099 37.1908   2
  -4   2  -3 4300.02 314.131   1
  -4   2  -3 4190.12 241.781   2
  -4  -2  -3 4559.42 208.755   1
  -4  -2  -3 4461.19 240.007   2
  -4  -2  -4 253.713 56.7245   1
  -4  -2  -4 232.860 57.0610   2
  -4   2  -4 102.522 57.8731   1
  -4   2  -4 241.305 57.3357   2
  -4   2  -5 17789.0 733.111   1
  -4   2  -5 18342.4 547.936   2
  -4  -2  -5 18781.8 549.199   1
  -4  -2  -5 19447.8 492.847   2
  -4  -2  -6 1045.31 123.076   1
  -4   2  -6 892.664 156.639   1
   4   2   6 1002.08 118.094   1
  -4  -2  -6 952.205 80.9088   2
  -4   2  -6 825.422 100.018   2
  -4  -2  -7 40275.3 991.640   1
   4   2   7 41398.4 953.779   1
  -4   2  -7 42350.7 1249.97   1
  -4  -2  -8 3877.05 260.828   1
   4   2   8 3715.79 231.348   1
  -4   2  -8 4030.46 348.255   1
  -4   2  -9-42.6612 70.6907   1
  -4  -2  -9 161.886 58.0559   1
  -4   2 -10 383.512 124.912   1
  -4  -2 -10 136.396 53.7359   1
  -4   2 -11 22.6370 62.6306   1
  -4  -2 -11 97.2914 36.8557   1
   4   3 -14 1657.07 237.179   2
   4  -3 -14 1366.21 180.741   2
   4   3 -13 202.968 96.6104   2
   4  -3 -13 286.862 96.3739   2
   4   3 -12 2403.19 282.503   2
   4  -3 -12 2367.97 271.850   2
   4  -3 -11 9110.15 556.928   2
   4   3 -11 8521.74 531.390   2
   4  -3 -10 6213.28 446.478   2
   4   3 -10 6157.57 438.666   2
  -4  -3   9 9630.75 404.932   1
   4  -3  -9 9538.32 548.292   2
  -4   3   9 9255.62 381.137   2
   4   3  -9 9466.64 527.012   2
   4   3  -8 1290.96 192.290   2
  -4  -3   8 1556.14 151.953   1
  -4   3   8 1644.11 153.994   2
   4  -3  -8 1255.41 193.217   2
  -4   3   7 779.440 103.962   2
   4   3  -7 503.926 121.127   2
  -4  -3   7 489.212 80.6523   1
   4  -3  -7 561.312 128.014   2
  -4   3   6 7255.12 340.780   2
   4   3  -6 7091.84 412.841   2
  -4   3   5 6600.82 326.320   2
  -4  -3   5 6345.49 274.506   1
   4   3  -5 5858.25 364.842   2
  -4   3   4 1376.86 143.202   2
  -4  -3   4 1269.34 108.784   1
   4   3  -4 1268.07 161.357   2
  -4   3   3 59696.0 1273.01   2
  -4  -3   3 56322.3 1059.75   1
   4   3  -3 55779.0 1315.72   2
  -4  -3   2 21416.1 455.839   1
   4   3  -2 20295.3 646.428   2
  -4   3   1 34415.3 860.168   2
  -4  -3   1 31045.1 537.104   1
  -4  -3   1 30012.1 533.538   1
   4   3  -1 32060.4 821.218   2
  -4   3   0 19170.9 607.498   2
   4   3   0 18759.8 568.839   2
  -4   3  -1 13123.2 480.256   2
   4   3   1 13717.5 444.601   2
  -4   3  -1 12317.5 572.469   1
   4   3   2 282.522 60.4781   2
  -4   3  -2 290.346 98.8953   1
  -4   3  -2 215.255 61.6875   2
   4   3   3 586.010 80.7684   2
  -4   3  -3 534.859 118.692   1
  -4  -3  -4 1012.27 86.1163   1
  -4   3  -4 789.110 146.941   1
  -4   3  -5 33788.0 1120.35   1
  -4  -3  -5 36044.7 791.695   1
   4   3   6 1790.30 141.440   1
  -4   3  -6 1612.48 228.640   1
   4   3   7 28641.0 709.617   1
  -4   3  -7 28981.2 1043.15   1
  -4   3  -8 252.897 116.341   1
  -4   3  -9 7646.37 518.991   1
  -4   3 -10 65.2273 81.7771   1
   4   4 -13 4943.43 426.016   2
   4   4 -12 10482.3 627.548   2
   4   4 -11 1023.88 195.593   2
   4   4 -10 2431.70 281.236   2
   4   4  -9 2757.50 293.662   2
  -4   4   8 15697.1 511.317   2
   4   4  -8 14677.5 686.067   2
  -4  -4   8 16011.6 547.632   1
  -4   4   7 2020.74 170.576   2
   4   4  -7 2037.76 237.093   2
  -4  -4   7 2066.40 181.464   1
  -4   4   6 3032.03 213.290   2
   4   4  -6 2185.54 238.276   2
  -4   4   5 375.180 80.3184   2
   4   4  -5 157.750 71.9957   2
  -4  -4   5 200.646 57.7896   1
  -4   4   4 14427.7 509.036   2
   4   4  -4 12566.0 551.481   2
  -4  -4   4 13137.3 409.242   1
  -4  -4   3 8106.94 257.316   1
  -4   4   3 8754.23 390.983   2
   4   4  -3 7818.49 411.205   2
  -4  -4   2 78205.8 1264.54   1
  -4   4   2 83003.5 1649.08   2
   4   4  -2 78965.8 1671.00   2
  -4   4   1 2092.46 184.842   2
   4   4  -1 2432.87 198.657   2
  -4   4   0 8115.85 372.737   2
   4   4   0 8102.72 355.800   2
  -4   4  -1 87.9989 86.8728   1
   4   4   1 84.9326 42.3699   2
  -4   4  -2 7980.69 491.473   1
   4   4   2 7911.49 313.722   2
  -4   4  -3 979.722 169.155   1
   4   4   3 1154.71 103.038   2
  -4   4  -4 26408.9 992.128   1
   4   4   4 27970.9 615.758   2
  -4   4  -5 1758.86 241.821   1
  -4   4  -6 797.977 186.131   1
  -4   4  -7 2132.67 282.822   1
  -4   4  -8 30383.8 1128.87   1
  -4   4  -9 2953.86 337.836   1
   4   5 -12 4653.32 419.104   2
   4   5 -11 5156.12 441.315   2
   4   5 -10 8181.49 546.128   2
   4   5  -9 4777.43 405.808   2
  -4  -5   8 57.7557 43.6746   1
   4   5  -8 89.1097 85.0780   2
  -4  -5   7 1204.03 139.069   1
   4   5  -7 959.242 178.161   2
   4   5  -6 1634.80 220.555   2
  -4  -5   5 9837.91 351.826   1
   4   5  -5 10544.4 535.934   2
  -4  -5   4 16268.7 435.296   1
   4   5  -4 15888.6 656.591   2
   4   5  -3 41.8783 63.7990   2
  -4  -5   3 1.65956 14.0339   1
   4   5  -2 29810.6 876.992   2
   4   5  -1 151.968 68.3017   2
   4   5   0 9572.37 413.015   2
  -4   5  -1 9599.17 551.255   1
   4   5   1 9316.23 382.202   2
   4   5   2 41.4133 33.8884   2
  -4   5  -2-70.5235 72.1394   1
  -4   5  -3 7184.87 488.518   1
   4   5   3 7385.23 289.047   2
  -4   5  -4 7931.98 540.482   1
   4   5   4 8108.26 272.247   2
  -4   5  -5 20248.2 893.020   1
  -4   5  -6 1732.57 268.732   1
  -4   5  -7 6335.83 498.681   1
  -4   5  -8 5069.61 447.770   1
   4   6 -11-23.1511 74.7424   2
   4   6 -10 371.182 145.026   2
   4   6  -9 10928.6 641.041   2
  -4  -6   8 3267.52 233.611   1
   4   6  -8 3385.22 343.525   2
  -4  -6   7 10528.5 409.390   1
   4   6  -7 11526.4 626.273   2
  -4  -6   6 1265.76 124.132   1
   4   6  -6 1239.74 194.477   2
  -4  -6   5 5141.83 230.739   1
   4   6  -5 4913.10 382.068   2
   4   6  -4 2528.89 257.268   2
   4   6  -3 12211.0 567.784   2
   4   6  -2 6268.55 380.571   2
   4   6  -1 2060.04 207.375   2
  -4   6   0 4247.19 376.498   1
   4   6   0 3560.80 254.307   2
  -4   6  -1 1166.80 202.430   1
   4   6   1 1187.26 136.954   2
   4   6   2 797.314 104.610   2
  -4   6  -2 979.758 198.258   1
  -4   6  -3 811.340 179.281   1
   4   6   3 848.635 96.4782   2
  -4   6  -4 2539.83 317.599   1
   4   6   4 3094.90 161.759   2
  -4   6  -5 7820.86 561.806   1
  -4   6  -6 433.320 154.365   1
  -4   6  -7 15635.6 833.702   1
   4   7 -10 951.888 140.110   1
   4   7  -9 4415.93 288.405   1
   4   7  -9 4503.22 418.618   2
   4   7  -8 3453.76 239.692   1
   4   7  -8 3357.83 344.776   2
   4   7  -7 1144.23 200.927   2
   4   7  -7 980.813 120.231   1
   4   7  -6 2759.01 304.533   2
   4   7  -5 8159.16 508.834   2
   4   7  -4 6909.10 446.090   2
   4   7  -3 16175.2 682.727   2
   4   7  -2 634.367 134.312   2
   4   7  -1 8503.20 448.893   2
  -4   7   0 14789.1 745.084   1
   4   7   0 13380.5 545.313   2
  -4   7  -1 14449.0 754.300   1
   4   7   1 14516.5 535.589   2
   4   7   2 277.007 70.2998   2
  -4   7  -2 153.524 92.6877   1
   4   7   3 60.4895 44.2054   2
  -4   7  -3 174.875 96.8690   1
  -4   7  -4 529.075 150.224   1
  -4   7  -5 15989.2 843.825   1
   4   8  -7 55.3211 84.1343   2
   4   8  -6 3442.30 343.775   2
   4   8  -5-63.6556 84.7774   2
   4   8  -4 13057.4 644.037   2
   4   8  -3 4971.32 371.789   2
   4   8  -2 13666.2 615.684   2
   4   8  -1 363.319 102.972   2
  -4   8   1 707.064 171.555   1
  -4   8   0 8894.15 584.263   1
   4   8   0 8376.94 428.422   2
   4   8   1 1047.04 136.623   2
  -4   8  -1 929.067 194.173   1
  -4   8  -2 10921.7 675.300   1
   4   8   2 9899.37 405.593   2
  -4   8  -3 3386.09 379.076   1
   4   9  -5 2788.85 294.571   2
   4   9  -4 1705.51 222.946   2
   4   9  -3 1325.94 188.067   2
  -4   9   2 2990.61 324.845   1
   4   9  -2 3004.16 268.049   2
   4   9  -1 1454.83 182.634   2
  -4   9   1 1775.97 258.826   1
  -4   9   0 3887.79 384.653   1
   4   9   0 3070.76 247.455   2
   4  10  -2 547.166 122.304   2
   4  10  -1 2738.46 244.744   2
   5   0 -15 120.779 79.8435   2
   5   0 -14-72.6502 70.9719   2
   5   0 -13 10914.7 604.288   2
   5   0 -12 83.6473 89.9515   2
   5   0 -11 2440.43 270.506   2
   5   0 -10 8.32660 56.8201   2
   5   0  -9 668.619 139.742   2
   5   0  -8 170.286 94.1043   2
  -5   0   8 37.2032 32.4532   1
   5   0  -7 7045.39 419.252   2
   5   0  -6 10.1553 46.6415   2
  -5   0   6-4.42318 38.4276   2
   5   0  -5 34754.1 1018.01   2
  -5   0   5 38186.9 966.396   2
   5   0  -4-32.3605 62.0052   2
  -5   0   4 15.5608 41.8708   2
   5   0  -3 55998.4 1386.32   2
  -5   0   3 61241.0 1329.69   2
   5   0  -2-39.0118 59.0864   2
  -5   0   2-75.1501 54.2658   2
   5   0  -1 6178.51 361.333   2
  -5   0   1 7105.07 354.679   2
  -5   0   0-7.07098 38.5865   2
  -5   0   0-16.9352 42.0928   1
   5   0   0-17.5947 50.1327   2
  -5   0  -1 31439.5 859.345   1
  -5   0  -1 32033.9 837.751   2
  -5   0  -2 57.8140 49.5429   2
  -5   0  -2 26.6510 44.8978   1
  -5   0  -3 25573.8 774.253   1
  -5   0  -3 26675.2 694.793   2
  -5   0  -4-8.77118 27.2888   2
  -5   0  -4-75.2517 58.0827   1
  -5   0  -5 10769.4 367.343   2
  -5   0  -5 10536.3 479.441   1
  -5   0  -6 23.3492 22.7586   2
  -5   0  -6 24.4747 49.8069   1
  -5   0  -7 1845.02 208.182   1
  -5   0  -8 244.317 83.7902   1
  -5   0  -9 892.590 145.948   1
  -5   0 -10 3.54448 57.5685   1
  -5   0 -11 19030.4 694.861   1
   5  -1 -15 437.137 125.519   2
   5   1 -15 204.650 84.9810   2
   5  -1 -14 119.297 80.9282   2
   5   1 -14-114.922 91.5092   2
   5  -1 -13 14040.8 697.047   2
   5   1 -13 13963.9 690.822   2
   5  -1 -12 7114.27 477.151   2
   5   1 -12 7404.33 488.962   2
   5  -1 -11 1701.53 222.853   2
   5   1 -11 1490.25 218.268   2
   5  -1 -10 1102.48 184.134   2
   5   1 -10 1203.94 193.777   2
   5  -1  -9 112.317 83.9276   2
   5   1  -9 55.7966 66.7218   2
  -5  -1   8 4817.18 257.580   1
   5  -1  -8 4535.58 344.729   2
   5   1  -8 4906.89 351.812   2
  -5  -1   7 14025.6 453.599   1
   5  -1  -7 12942.0 599.249   2
   5   1  -7 13101.3 586.647   2
  -5  -1   6 10358.5 371.353   1
   5  -1  -6 10213.6 516.969   2
   5   1  -6 10386.6 502.543   2
  -5   1   6 10985.2 444.619   2
   5  -1  -5 850.893 149.768   2
   5   1  -5 958.079 154.437   2
  -5   1   5 1012.56 134.059   2
  -5  -1   5 883.354 127.990   2
   5  -1  -4 4113.88 315.840   2
   5   1  -4 3812.44 287.347   2
  -5   1   4 4332.65 270.773   2
  -5  -1   4 4433.22 280.085   2
   5  -1  -3 20130.8 748.006   2
   5   1  -3 20305.3 698.814   2
  -5   1   3 23732.0 701.853   2
  -5  -1   3 23321.1 706.259   2
   5  -1  -2 4227.03 314.012   2
   5   1  -2 4875.32 305.743   2
  -5   1   2 5165.08 299.871   2
  -5  -1   2 4717.13 282.050   2
   5   1  -1 1788.22 184.894   2
  -5   1   1 1860.84 175.378   2
  -5  -1   1 2014.46 187.321   2
   5   1   0 214.135 79.5247   2
  -5   1   0 293.303 79.6512   2
  -5  -1   0 180.751 62.6591   2
  -5  -1   0 167.135 51.1776   1
  -5   1  -1 339.249 78.2160   2
  -5   1  -1 320.270 86.3695   1
  -5  -1  -1 389.981 87.9700   2
  -5  -1  -1 364.834 68.8575   1
   5   1   1 448.682 93.1573   2
  -5  -1  -2 2279.93 174.142   1
  -5   1  -2 1929.99 205.061   1
  -5   1  -2 2291.07 179.034   2
  -5  -1  -2 2233.99 187.263   2
  -5  -1  -3 53651.1 1179.13   1
  -5   1  -3 52963.7 1327.56   1
  -5   1  -3 55174.2 1152.64   2
  -5  -1  -3 50815.2 1136.19   2
  -5   1  -4 52675.3 1352.87   1
  -5   1  -4 53118.4 1124.51   2
  -5  -1  -4 53737.4 1200.16   1
  -5   1  -5 983.644 106.336   2
  -5  -1  -5 1071.94 130.630   1
  -5   1  -5 1033.01 161.399   1
  -5   1  -6 767.815 91.3331   2
  -5  -1  -6 716.449 115.433   1
  -5   1  -6 513.963 119.626   1
  -5   1  -7 130.206 43.1598   2
  -5  -1  -7 131.821 54.7947   1
  -5   1  -7 234.980 87.2220   1
  -5  -1  -8 4075.43 279.834   1
  -5   1  -8 4075.85 333.751   1
  -5  -1  -9-8.91535 42.2777   1
  -5   1  -9-50.3630 54.8705   1
  -5  -1 -10 4707.39 298.189   1
  -5   1 -10 3831.47 313.797   1
  -5   1 -11 2270.39 238.010   1
   5  -2 -15 52.7515 72.3256   2
   5  -2 -14 6931.32 467.065   2
   5   2 -14 7374.86 492.952   2
   5  -2 -13 391.813 108.884   2
   5   2 -13 574.154 148.823   2
   5  -2 -12 4068.55 368.610   2
   5   2 -12 3837.86 357.844   2
   5  -2 -11 886.430 175.495   2
   5   2 -11 816.935 165.849   2
   5  -2 -10 5580.57 413.851   2
   5   2 -10 5695.12 419.927   2
   5  -2  -9-45.2447 70.7338   2
   5   2  -9-28.0343 64.2982   2
  -5  -2   8 16784.6 521.846   1
   5  -2  -8 17669.9 735.695   2
   5   2  -8 16203.2 695.695   2
   5  -2  -7 181.653 91.0468   2
  -5  -2   7 197.620 58.7162   1
   5   2  -7 135.539 75.8617   2
  -5  -2   6 42995.4 940.649   1
   5  -2  -6 45533.9 1264.26   2
   5   2  -6 42709.4 1191.81   2
   5   2  -5 710.804 130.693   2
  -5   2   5 680.083 108.644   2
   5  -2  -5 606.566 136.545   2
   5  -2  -4 40315.8 1183.70   2
  -5  -2   4 39648.0 837.247   1
   5   2  -4 37894.1 1057.24   2
  -5   2   4 41627.4 1022.17   2
  -5  -2   4 42965.7 1045.90   2
  -5   2   3 1358.34 151.379   2
  -5  -2   3 1129.09 148.912   2
   5   2  -3 1339.01 163.649   2
  -5   2   2 933.542 130.321   2
   5   2  -2 1082.15 141.551   2
  -5  -2   2 1231.77 145.145   2
   5   2  -1 814.605 117.550   2
  -5   2   1 995.545 132.019   2
  -5  -2   1 1176.15 151.599   2
  -5  -2   0 1129.95 142.191   2
  -5  -2   0 1160.77 100.839   1
   5   2   0 1219.76 148.203   2
  -5   2   0 1189.83 138.895   2
   5   2   1 92.5872 57.5340   2
  -5   2  -1-0.59970 36.0766   2
  -5  -2  -1 83.3925 33.8439   1
  -5  -2  -1 35.8395 40.6612   2
  -5   2  -1 52.0295 47.5450   1
  -5   2  -2 875.019 111.128   2
  -5  -2  -2 687.685 116.226   2
  -5   2  -2 624.477 132.209   1
  -5  -2  -2 647.660 78.0429   1
   5   2   2 757.885 111.842   2
  -5   2  -3 2648.61 265.017   1
  -5   2  -3 2910.82 200.661   2
  -5  -2  -3 2866.44 172.777   1
  -5   2  -4 35146.4 1102.54   1
  -5   2  -4 37747.0 887.652   2
  -5  -2  -4 38942.1 853.435   1
  -5   2  -5 3708.26 329.868   1
  -5   2  -5 3541.49 209.469   2
  -5  -2  -5 3490.03 210.271   1
  -5  -2  -5 3775.69 195.005   2
  -5  -2  -6 8258.32 349.960   1
  -5   2  -6 7477.67 479.507   1
  -5  -2  -7-42.6393 47.2509   1
  -5   2  -7 106.670 81.2885   1
  -5   2  -8 348.709 121.348   1
  -5  -2  -8 382.465 75.2816   1
  -5   2  -9 246.408 95.2898   1
  -5   2 -10 4298.50 349.247   1
   5  -3 -14 1489.64 216.910   2
   5  -3 -13 4552.27 399.587   2
   5   3 -13 4208.64 380.542   2
   5  -3 -12 10342.5 627.446   2
   5   3 -12 10726.2 618.440   2
   5  -3 -11 4560.75 411.047   2
   5   3 -11 4525.25 393.599   2
   5   3 -10 432.840 126.180   2
   5  -3 -10 178.715 73.0778   2
   5   3  -9 905.655 172.176   2
   5  -3  -9 994.527 179.678   2
   5  -3  -8 3029.59 311.005   2
  -5  -3   8 2727.28 195.720   1
   5   3  -8 2168.44 250.600   2
   5   3  -7 204.174 90.3001   2
  -5  -3   7 62.7826 34.0948   1
  -5  -3   6 15545.5 492.616   1
   5   3  -6 22197.4 775.328   2
   5   3  -5 49.8129 63.3218   2
  -5  -3   4 1300.91 107.280   1
   5   3  -4 1461.44 176.988   2
  -5  -3   3 13626.6 365.386   1
   5   3  -3 12461.4 533.416   2
  -5  -3   2 12384.4 311.846   1
   5   3  -2 11546.9 493.966   2
  -5  -3   1 6775.83 190.485   1
  -5  -3   1 6758.31 180.486   1
   5   3  -1 6569.34 347.282   2
   5   3   0 719.376 109.689   2
   5   3   1 2443.56 192.565   2
  -5   3  -1 2161.43 249.401   1
   5   3   2 359.738 68.6123   2
  -5  -3  -2 337.238 35.2510   1
  -5   3  -2 491.159 132.773   1
  -5   3  -3 14209.8 670.195   1
  -5  -3  -3 13645.5 341.934   1
   5   3   3 15308.4 492.722   2
  -5   3  -4 53453.4 1495.35   1
  -5  -3  -4 54715.6 1038.71   1
  -5   3  -5 1149.20 196.060   1
  -5  -3  -5 1042.23 98.2254   1
  -5  -3  -6 113.987 36.1206   1
  -5   3  -6 119.867 77.8093   1
  -5   3  -7 13.7968 69.8526   1
  -5   3  -8 4318.64 387.487   1
  -5   3  -9 296.305 115.153   1
   5   4 -12 163.999 103.833   2
   5   4 -11 591.285 151.645   2
   5   4 -10 857.300 169.672   2
   5   4  -9 1477.46 219.691   2
   5   4  -8 2639.69 279.472   2
  -5  -4   8 2624.28 199.772   1
   5   4  -7 1797.72 225.466   2
  -5  -4   7 1562.84 156.341   1
   5   4  -6 1280.85 191.436   2
   5   4  -5 20007.7 757.580   2
  -5  -4   5 20726.9 582.467   1
   5   4  -4 1694.36 204.556   2
  -5  -4   4 1784.73 127.074   1
   5   4  -3 30664.4 914.088   2
  -5  -4   3 30758.9 610.319   1
   5   4  -2 4735.79 310.185   2
   5   4  -1 1615.84 173.158   2
   5   4   0 446.664 93.7267   2
  -5   4   0 623.514 147.086   1
  -5   4  -1 25869.3 962.191   1
   5   4   1 25996.9 730.601   2
  -5   4  -2 13078.0 677.839   1
   5   4   2 13815.1 474.618   2
  -5   4  -3 17242.6 786.788   1
   5   4   3 18114.8 536.710   2
  -5   4  -4 6138.78 464.662   1
  -5   4  -5 5945.57 459.627   1
  -5   4  -6 1594.00 247.370   1
  -5   4  -7 4010.75 391.099   1
  -5   4  -8-20.1622 70.7666   1
   5   5 -11 1608.87 243.175   2
   5   5 -10 2821.75 317.792   2
   5   5  -9 123.288 92.2670   2
  -5  -5   8 3509.22 247.223   1
   5   5  -8 3053.69 316.694   2
  -5  -5   7 19099.6 591.759   1
   5   5  -7 19779.6 812.834   2
   5   5  -6 4156.49 344.811   2
   5   5  -5 592.777 131.530   2
  -5  -5   5 501.158 72.4170   1
   5   5  -4 1034.00 161.700   2
  -5  -5   4 1181.60 83.9247   1
   5   5  -3 11662.0 535.859   2
   5   5  -2 70.6819 54.3615   2
   5   5  -1 2135.89 199.543   2
   5   5   0 32.4511 48.0677   2
  -5   5   0-0.34763 88.4573   1
   5   5   1 512.503 90.8515   2
  -5   5  -1 363.557 117.123   1
  -5   5  -2 11805.1 669.378   1
   5   5   2 11663.0 432.137   2
  -5   5  -3 29143.9 1111.17   1
   5   5   3 31313.5 754.381   2
  -5   5  -4 9142.40 599.189   1
  -5   5  -5 74.0244 92.0409   1
  -5   5  -6 5149.53 457.917   1
  -5   5  -7 1323.38 231.068   1
   5   6  -9 267.199 99.7314   2
   5   6  -8 380.936 126.115   2
   5   6  -7 2349.68 274.870   2
   5   6  -6 8902.74 526.309   2
   5   6  -5 27.9244 67.8435   2
   5   6  -4 20054.6 771.211   2
   5   6  -3 2469.11 246.347   2
   5   6  -2 582.288 118.830   2
   5   6  -1 3462.62 268.775   2
  -5   6   0 6968.52 509.812   1
   5   6   0 6099.38 343.712   2
  -5   6  -1-82.6684 101.061   1
   5   6   1 25.4451 44.8389   2
   5   6   2 186.597 56.1124   2
  -5   6  -2 278.492 115.546   1
  -5   6  -3 5427.02 468.110   1
  -5   6  -4 9726.46 643.979   1
  -5   6  -5 6822.35 534.496   1
   5   7  -8 1553.85 229.845   2
   5   7  -7 196.838 71.6694   2
   5   7  -6 15581.5 731.834   2
   5   7  -5 224.044 90.0797   2
   5   7  -4 65.8161 64.3829   2
   5   7  -3 2937.73 271.877   2
   5   7  -2 6119.72 386.203   2
  -5   7   1 4052.09 397.153   1
   5   7  -1 4024.13 297.088   2
  -5   7   0 4058.08 398.223   1
   5   7   0 5048.07 312.433   2
  -5   7  -1 5659.25 483.215   1
   5   7   1 6049.25 318.484   2
  -5   7  -2 1681.07 271.602   1
  -5   7  -3-5.98703 74.2368   1
   5   8  -6 1789.59 238.825   2
   5   8  -5 6010.84 420.989   2
   5   8  -4 950.565 165.036   2
   5   8  -3 6242.01 404.681   2
   5   8  -2 3318.15 277.575   2
  -5   8   1 188.770 108.913   1
   5   8  -1 154.434 56.6758   2
  -5   8   0 532.859 165.432   1
   5   8   0 584.699 106.410   2
   5   9  -3 2054.99 224.306   2
   5   9  -2 200.473 74.8974   2
   5   9  -1 3645.02 269.944   2
   6   0 -13 127.012 88.8121   2
   6   0 -12 1778.82 237.290   2
   6   0 -11-49.1897 99.5124   2
   6   0 -10 690.378 147.614   2
   6   0  -9-71.8093 80.5056   2
   6   0  -8 23.6001 70.8688   2
   6   0  -7 0.28748 82.4067   2
   6   0  -6 27285.5 937.719   2
   6   0  -5-88.3949 80.6275   2
   6   0  -4 457.859 107.697   2
   6   0  -3-80.1221 84.1888   2
   6   0  -2 1079.96 166.600   2
   6   0  -1-127.762 92.7504   2
  -6   0   0 51329.6 1243.82   1
  -6   0   0 54022.0 1216.95   2
  -6   0  -1-32.4579 51.8160   2
  -6   0  -1-42.4371 56.3640   1
  -6   0  -2 10780.7 482.422   1
  -6   0  -2 11504.8 421.751   2
  -6   0  -3-21.5929 35.8410   2
  -6   0  -3 2.07358 51.6147   1
  -6   0  -4 13238.5 551.108   1
  -6   0  -4 12641.6 424.796   2
  -6   0  -5 80.8230 41.9051   2
  -6   0  -5-2.28489 43.7250   1
  -6   0  -6 57.1124 51.6035   1
  -6   0  -7 8.92432 46.2701   1
  -6   0  -8 4480.86 305.336   1
   6  -1 -14 4368.98 385.525   2
   6  -1 -13-13.1037 56.4708   2
   6   1 -13 220.799 108.505   2
   6  -1 -12 1512.63 225.448   2
   6   1 -12 1606.99 242.475   2
   6  -1 -11-64.9318 67.0561   2
   6   1 -11 34.6114 70.7498   2
   6  -1 -10 2845.09 307.047   2
   6   1 -10 2983.79 318.014   2
   6  -1  -9 1453.13 213.105   2
   6   1  -9 1640.48 228.855   2
   6  -1  -8 13477.1 665.115   2
   6   1  -8 13995.9 656.006   2
  -6  -1   7 17283.2 514.919   1
   6  -1  -7 17601.9 759.092   2
   6   1  -7 17448.1 729.386   2
   6  -1  -6 7983.35 487.616   2
   6   1  -6 7352.50 447.600   2
   6  -1  -5 757.808 159.282   2
   6   1  -5 571.572 126.070   2
   6  -1  -4 4519.52 353.984   2
   6   1  -4 4425.54 328.645   2
   6  -1  -3 2304.43 253.514   2
   6   1  -3 2399.79 238.165   2
   6   1  -2 1746.43 201.307   2
   6   1  -1-2.79641 45.1170   2
  -6  -1   1 55.9341 57.5683   2
  -6  -1   0 26166.7 722.098   1
   6   1   0 26981.7 856.445   2
  -6   1   0 25839.9 842.881   1
  -6  -1   0 26575.2 787.775   2
  -6  -1  -1 12491.8 456.221   1
  -6   1  -1 11601.5 543.954   1
  -6  -1  -1 11295.7 456.589   2
  -6  -1  -2 10709.7 424.104   1
  -6   1  -2 10727.5 515.468   1
  -6  -1  -2 9630.90 398.672   2
  -6   1  -3 7167.57 421.814   1
  -6  -1  -3 8088.56 337.501   2
  -6  -1  -3 8204.11 374.336   1
  -6   1  -4 7.62118 56.6858   1
  -6  -1  -4-18.9663 37.8856   2
  -6  -1  -4 15.0323 44.7154   1
  -6  -1  -5 2299.21 193.602   1
  -6   1  -5 1697.54 212.553   1
  -6  -1  -6 73.2247 50.0309   1
  -6   1  -6 44.9919 74.2027   1
  -6  -1  -7 4558.71 279.442   1
  -6   1  -7 4836.68 354.554   1
  -6   1  -8 1704.26 208.209   1
  -6   1  -9 7253.50 418.887   1
   6  -2 -14-129.204 82.3886   2
   6  -2 -13 7551.06 524.517   2
   6  -2 -12 1.35439 70.1819   2
   6   2 -12-72.9892 67.0731   2
   6  -2 -11 6099.77 469.465   2
   6   2 -11 4644.32 403.075   2
   6  -2 -10-22.7147 83.8034   2
   6   2 -10 20.6502 68.8768   2
   6   2  -9 719.547 163.381   2
   6  -2  -9 646.305 153.342   2
   6   2  -8 1409.62 204.020   2
  -6  -2   8 1973.09 156.592   1
   6  -2  -8 1795.50 238.062   2
  -6  -2   7 32426.0 763.997   1
   6  -2  -7 31384.1 1092.07   2
   6   2  -7 32091.6 1049.37   2
  -6  -2   6 2429.60 165.923   1
   6  -2  -6 2428.63 274.785   2
   6   2  -6 2329.24 252.298   2
  -6  -2   5 5915.93 255.106   1
   6  -2  -5 6350.40 446.920   2
   6   2  -5 6081.01 399.663   2
   6   2  -4 875.411 156.602   2
   6   2  -3 393.959 95.5964   2
   6   2  -2 201.327 66.6836   2
  -6  -2   1 26722.9 657.305   1
   6   2  -1 27518.9 857.295   2
  -6  -2   1 29263.3 872.886   2
   6   2   0 391.632 98.3148   2
  -6  -2   0 353.983 92.9892   2
  -6   2   0 370.779 102.739   1
  -6  -2   0 408.328 63.9739   1
  -6  -2  -1 2828.74 169.528   1
   6   2   1 2637.89 231.452   2
  -6   2  -1 2778.88 275.325   1
  -6  -2  -1 2541.22 218.763   2
  -6  -2  -2 60.5773 53.9223   2
  -6  -2  -2 28.9067 30.3687   1
  -6   2  -3 22578.1 871.637   1
  -6  -2  -3 21538.6 636.621   2
  -6   2  -4 1675.05 227.097   1
  -6  -2  -4 1991.21 145.962   1
  -6  -2  -4 1962.55 152.573   2
  -6   2  -5 398.270 136.723   1
  -6  -2  -5 311.089 65.8276   1
  -6   2  -6 188.464 104.062   1
  -6   2  -7 3120.66 307.616   1
  -6   2  -8 734.530 156.659   1
  -6   2  -9 16917.3 717.656   1
   6  -3 -14 2349.93 291.152   2
   6  -3 -13 1.08240 105.158   2
   6  -3 -12 1237.93 212.625   2
   6   3 -11-103.036 98.8138   2
   6  -3 -11 8.32785 109.268   2
   6   3 -10 1923.99 255.933   2
   6  -3 -10 1883.00 272.654   2
   6   3  -9 399.824 127.816   2
   6  -3  -9 382.697 142.886   2
  -6  -3   8 3057.59 203.220   1
   6   3  -8 2998.59 300.321   2
  -6  -3   7 20644.5 576.267   1
   6   3  -7 20770.8 819.666   2
  -6  -3   6 2017.13 148.685   1
   6   3  -6 1840.59 225.789   2
   6   3  -5 5247.78 369.982   2
  -6  -3   4 8013.06 287.733   1
   6   3  -4 7768.05 443.398   2
   6   3  -3 1291.95 175.780   2
  -6  -3   3 1420.59 103.365   1
   6   3  -2 378.765 103.296   2
  -6  -3   2 381.326 48.0979   1
  -6  -3   1 2812.48 125.988   1
  -6  -3   1 2836.86 118.635   1
   6   3  -1 2882.15 243.095   2
  -6  -3   0 10520.0 237.872   1
   6   3   0 10856.1 485.036   2
  -6   3   0 10591.6 576.903   1
  -6  -3   0 10723.9 249.923   1
  -6   3  -1 9846.31 553.943   1
   6   3   1 9840.23 442.620   2
  -6  -3  -1 8894.99 208.350   1
  -6   3  -2 10919.1 598.257   1
  -6  -3  -2 9630.25 232.861   1
   6   3   2 10911.3 457.589   2
  -6   3  -3 12659.2 659.899   1
  -6   3  -4 945.897 186.350   1
  -6   3  -5 3253.07 337.953   1
  -6   3  -6 125.137 98.0280   1
  -6   3  -7 4541.73 388.066   1
  -6   3  -8 603.367 149.696   1
   6   4 -10 1177.61 196.777   2
   6   4  -9 604.517 156.533   2
   6   4  -8-47.1099 69.0213   2
  -6  -4   8-59.0327 43.6277   1
  -6  -4   7 1751.53 158.232   1
   6   4  -7 2036.81 243.550   2
   6   4  -6 12744.9 618.105   2
   6   4  -5 758.588 148.807   2
  -6  -4   5 973.014 101.309   1
   6   4  -4 379.123 114.723   2
  -6  -4   4 293.303 50.5935   1
   6   4  -3 33.4096 55.6292   2
  -6  -4   3 33.7350 13.9724   1
   6   4  -2 4854.87 328.197   2
   6   4  -1 8858.68 445.642   2
   6   4   0 36155.8 977.800   2
  -6   4   0 35285.2 1200.81   1
  -6   4  -1 153.181 91.6837   1
   6   4   1 171.802 73.9275   2
  -6   4  -2 3933.49 378.739   1
   6   4   2 3655.14 248.771   2
  -6   4  -3 1034.24 205.133   1
   6   4   3 623.251 97.2071   2
  -6   4  -4 4759.30 418.801   1
  -6   4  -5 573.961 154.630   1
  -6   4  -6 271.615 122.292   1
   6   5  -9 5857.41 452.214   2
   6   5  -8 12497.4 656.388   2
   6   5  -7 440.449 129.872   2
   6   5  -6 3805.83 334.971   2
   6   5  -5 3605.69 313.443   2
   6   5  -4 2889.15 276.931   2
   6   5  -3 2237.91 234.736   2
   6   5  -2 1757.04 200.384   2
   6   5  -1 958.906 143.644   2
  -6   5   0 16348.4 811.175   1
   6   5   0 16715.7 612.760   2
  -6   5  -1 5779.73 470.665   1
   6   5   1 5317.32 307.566   2
  -6   5  -2 9873.06 636.244   1
   6   5   2 10206.3 415.052   2
  -6   5  -3 2372.59 314.449   1
  -6   5  -4 253.271 114.903   1
  -6   5  -5 153.325 94.2442   1
   6   6  -8 2649.93 297.182   2
   6   6  -7 16871.1 760.967   2
   6   6  -6 2424.35 274.808   2
   6   6  -5 6669.71 440.583   2
   6   6  -4 932.695 161.238   2
   6   6  -3 1563.06 194.676   2
   6   6  -2 1082.99 159.092   2
   6   6  -1 5644.10 344.466   2
  -6   6   1 4786.96 437.404   1
  -6   6   0 2435.50 316.850   1
   6   6   0 2487.42 214.963   2
   6   6   1 678.732 110.739   2
  -6   6  -1 558.792 158.603   1
  -6   6  -2 42.9164 67.3416   1
  -6   6  -3 9108.48 630.992   1
   6   7  -6 194.359 75.2813   2
   6   7  -5 1870.45 222.743   2
   6   7  -4 4355.60 338.861   2
   6   7  -3 4147.68 317.368   2
   6   7  -2 1428.76 177.932   2
   6   7  -1 1420.85 165.897   2
  -6   7   1 1530.87 249.570   1
   6   7   0 1655.04 171.860   2
   6   8  -4 2443.96 247.610   2
   6   8  -3 32.6440 51.4330   2
   6   8  -2 5678.67 348.899   2
   7   0 -11 6244.75 476.827   2
   7   0 -10-89.0625 85.0766   2
   7   0  -9 1747.62 236.355   2
   7   0  -8 91.5419 97.4551   2
   7   0  -7 1321.61 216.189   2
   7   0  -6-32.6043 76.7218   2
   7   0  -5-134.568 69.5026   2
   7   0  -4-8.90278 84.0196   2
   7   0  -3 14756.8 682.625   2
   7   0  -2 9.15842 59.6155   2
  -7   0   1 28928.1 880.532   1
  -7   0   0-29.0487 60.1646   1
  -7   0  -1 2830.18 241.854   1
  -7   0  -2 82.2381 61.8044   1
  -7   0  -3 238.198 81.6921   1
  -7   0  -4-10.3945 42.8783   1
  -7   0  -5 1564.23 176.238   1
   7  -1 -11 9337.52 582.482   2
   7  -1 -10 3514.97 356.380   2
   7   1 -10 3885.26 361.396   2
   7  -1  -9 467.540 141.521   2
   7   1  -9 274.613 97.4382   2
   7  -1  -8 357.642 127.956   2
   7   1  -8 244.539 110.088   2
   7  -1  -7 3109.91 330.631   2
   7   1  -7 2522.45 284.346   2
   7   1  -6 395.600 116.930   2
   7  -1  -6 410.133 121.760   2
   7   1  -5 1770.68 227.814   2
   7  -1  -5 2124.56 270.069   2
   7   1  -4 330.138 111.951   2
   7  -1  -4 128.483 71.2801   2
   7   1  -3-66.3434 73.6605   2
   7   1  -2 1588.95 212.765   2
   7   1  -1 35269.8 1090.18   2
  -7  -1   1 34231.7 892.749   1
  -7   1   1 34809.1 1059.22   1
  -7  -1   0 10127.9 417.465   1
  -7   1   0 8939.02 488.132   1
  -7   1  -1 527.045 120.659   1
  -7  -1  -1 329.603 76.0843   1
  -7  -1  -2 246.474 67.0959   1
  -7   1  -2 146.612 70.8525   1
  -7   1  -3 29.5787 56.1063   1
  -7  -1  -3-7.06766 40.1732   1
  -7   1  -4 2031.11 224.151   1
  -7   1  -5 6323.96 395.434   1
  -7   1  -6 13753.1 592.451   1
   7  -2 -11 294.794 125.684   2
   7  -2 -10 10026.2 620.477   2
   7   2 -10 10308.9 607.617   2
   7   2  -9-40.3009 84.2096   2
   7  -2  -9 149.001 90.6311   2
   7  -2  -8 16614.2 812.712   2
   7   2  -8 17718.6 797.215   2
   7   2  -7-28.4872 74.8102   2
   7  -2  -7 126.836 70.2326   2
  -7  -2   7 136.402 44.7420   1
   7   2  -6 1029.15 186.293   2
  -7  -2   6 631.489 85.7638   1
   7   2  -5 66.9636 68.2038   2
  -7  -2   5-48.1837 34.1943   1
  -7  -2   4 11347.5 349.014   1
   7   2  -4 11014.0 574.299   2
   7   2  -3 689.370 146.625   2
   7   2  -2 11537.8 572.816   2
  -7  -2   2 12202.9 422.183   1
   7   2  -1 1063.46 169.692   2
  -7  -2   1 1067.75 110.930   1
  -7   2   1 862.929 161.974   1
  -7  -2   0 5648.80 251.465   1
   7   2   0 5496.50 372.427   2
  -7   2   0 5232.32 396.552   1
  -7   2  -1 1968.49 249.452   1
  -7   2  -2 2789.82 295.276   1
  -7   2  -3 175.018 63.5399   1
  -7   2  -4-0.76903 66.1346   1
  -7   2  -5 1323.62 201.182   1
  -7   2  -6 20923.7 802.513   1
  -7   2  -7 159.316 67.7331   1
   7   3  -9 605.226 146.473   2
   7   3  -8 10.2793 89.1226   2
   7   3  -7 1683.78 228.477   2
   7   3  -6 121.554 89.0585   2
   7   3  -5 930.970 171.393   2
   7   3  -4 3197.14 296.049   2
   7   3  -3 1456.19 198.448   2
   7   3  -2 2754.55 266.141   2
   7   3  -1 14568.4 626.125   2
  -7   3   1 14589.3 721.878   1
   7   3   0 18654.4 704.038   2
  -7   3   0 18007.2 802.408   1
  -7   3  -1 4259.43 386.856   1
   7   3   1 4469.07 316.277   2
  -7   3  -2 963.469 185.393   1
  -7   3  -3 73.2314 77.6315   1
  -7   3  -4 1038.66 188.190   1
  -7   3  -5 1634.42 230.803   1
  -7   3  -6 12382.9 639.317   1
   7   4  -8 281.595 99.3677   2
   7   4  -7 1747.14 240.254   2
   7   4  -6 1666.39 232.265   2
   7   4  -5 179.030 93.3697   2
   7   4  -4 29.0987 60.0102   2
   7   4  -3 10638.4 538.586   2
   7   4  -2 4068.99 313.723   2
   7   4  -1 14392.0 605.620   2
  -7   4   1 14702.0 754.298   1
  -7   4   0 1736.44 258.518   1
   7   4   0 2057.79 210.412   2
   7   4   1-36.9430 56.8785   2
  -7   4  -1-49.7501 111.578   1
  -7   4  -2 85.0723 64.4665   1
  -7   4  -3 1931.50 273.472   1
  -7   4  -4 3885.07 366.918   1
   7   5  -7 1420.54 220.812   2
   7   5  -6 563.244 140.641   2
   7   5  -5 6629.72 433.879   2
   7   5  -4 304.491 90.1549   2
   7   5  -3 142.850 80.6882   2
   7   5  -2 845.739 140.997   2
   7   5  -1 22746.7 764.259   2
  -7   5   1 24492.8 1021.64   1
   7   5   0 74.0372 62.1251   2
  -7   5   0 51.4101 85.9665   1
  -7   5  -1 81.2990 74.6497   1
  -7   5  -2 417.127 116.846   1
   7   6  -5-131.814 85.8224   2
   7   6  -4 7499.89 440.423   2
   7   6  -3 410.617 94.0981   2
   7   6  -2 4404.07 312.477   2
   7   6  -1 1789.69 188.633   2
   7   7  -3 4353.52 314.362   2
   7   7  -2 268.820 87.1747   2
   8   0  -7-113.401 94.9057   2
   8   0  -6 36.8918 70.5911   2
   8   0  -5 44.7790 67.7317   2
   8   0  -4 12357.2 664.907   2
  -8   0   2 1443.94 175.953   1
  -8   0   1-35.0220 54.6076   1
  -8   0   0 1224.94 157.780   1
   8   1  -7 226.806 107.134   2
   8  -1  -7 148.050 104.432   2
   8  -1  -6 5031.25 437.821   2
   8   1  -6 5040.64 413.252   2
   8   1  -5 3486.95 339.199   2
   8   1  -4 11468.3 618.324   2
   8   1  -3 320.358 110.731   2
   8   1  -2 4277.62 362.699   2
  -8   1   2 4203.26 332.776   1
  -8   1   1 205.949 82.2085   1
  -8   1   0 54.5677 77.5014   1
  -8   1  -1 253.711 92.2818   1
  -8   1  -2 3114.11 262.031   1
   8   2  -6 928.784 184.605   2
   8   2  -5 28463.8 1022.42   2
   8   2  -4 601.275 135.871   2
   8   2  -3 927.480 171.568   2
  -8   2   2-65.0100 86.1283   1
   8   2  -2 69.8618 73.7900   2
   8   2  -1 2986.31 283.810   2
  -8   2   1 3038.23 297.654   1
  -8   2   0 232.718 86.3228   1
  -8   2  -1 783.533 157.968   1
  -8   2  -2 115.307 88.2130   1
  -8   2  -3 2046.76 233.216   1
  -8   2  -4 254.306 95.8270   1
   8   3  -6 105.079 80.5457   2
   8   3  -5 3519.27 321.658   2
   8   3  -4 3991.77 344.570   2
   8   3  -3 993.934 169.390   2
   8   3  -2 5823.69 393.857   2
  -8   3   2 6073.39 448.475   1
  -8   3   1 39.7885 77.8639   1
   8   3  -1 102.549 72.7034   2
  -8   3   0 26.3160 57.6371   1
   8   3   0 129.809 48.1538   2
  -8   3  -1-81.6885 54.0339   1
  -8   3  -2 3589.17 342.564   1
  -8   3  -3 1549.20 215.706   1
   8   4  -5 4896.94 369.440   2
   8   4  -4 9336.86 509.560   2
   8   4  -3 208.787 94.6291   2
   8   4  -2 1490.32 192.223   2
  -8   4   2 1330.81 215.098   1
   8   4  -1 685.333 127.044   2
  -8   4   1 657.785 158.077   1
  -8   4   0 1798.55 250.566   1
   8   5  -3 308.948 99.0657   2
   8   5  -2 2723.72 249.865   2
  -9   2   3 518.592 122.422   1
  -9   2   2 1869.13 226.377   1
  -9   2   1 616.135 142.282   1
   0   0   0    0.00    0.00   0

TITL Cu_dabco_Cl in P2/n
REM P2/n (#13 in standard setting)
CELL 0.71073   6.939394   8.462374  12.250375  90.0000 104.4820  90.0000
ZERR    2.00   0.000666   0.000776   0.001142   0.0000   0.0096   0.0000
LATT  1
SYMM -x+1/2, y,-z+1/2
SFAC C H N Cl Cu
UNIT 12.00 28.00 4.00 12.00 4.00
TREF
HKLF 4
END
;
_shelx_hkl_checksum              79271
_olex2_date_sample_data_collection 2018-03-01
_olex2_submission_special_instructions 'No special instructions were received'
_oxdiff_exptl_absorpt_empirical_details
;
Empirical correction (ABSPACK) includes:
- Absorption correction using spherical harmonics
- Frame scaling
;
_oxdiff_exptl_absorpt_empirical_full_max 1.311
_oxdiff_exptl_absorpt_empirical_full_min 0.765
loop_
_space_group_symop_operation_xyz
'x, y, z'
'-x+1/2, y, -z+1/2'
'-x, -y, -z'
'x-1/2, -y, z-1/2'
loop_
_atom_site_label
_atom_site_type_symbol
_atom_site_fract_x
_atom_site_fract_y
_atom_site_fract_z
_atom_site_U_iso_or_equiv
_atom_site_adp_type
_atom_site_occupancy
_atom_site_site_symmetry_order
_atom_site_calc_flag
_atom_site_refinement_flags_posn
_atom_site_refinement_flags_adp
_atom_site_refinement_flags_occupancy
_atom_site_disorder_assembly
_atom_site_disorder_group
N1 N 0.6952(3) 0.0994(3) 0.33874(18) 0.0197(5) Uani 1 1 d . . . . .
C1 C 0.7342(4) -0.0659(4) 0.3097(2) 0.0268(6) Uani 1 1 d . . . . .
H1A H 0.6221 -0.1328 0.3127 0.032 Uiso 1 1 calc R . . . .
H1B H 0.8517 -0.1063 0.3628 0.032 Uiso 1 1 calc R . . . .
C2 C 0.5345(4) 0.1697(4) 0.2474(2) 0.0284(7) Uani 1 1 d . . . . .
H2A H 0.4915 0.2696 0.2720 0.034 Uiso 1 1 calc R . . . .
H2B H 0.4209 0.0991 0.2283 0.034 Uiso 1 1 calc R . . . .
C3 C 0.8815(5) 0.1950(4) 0.3549(2) 0.0342(8) Uani 1 1 d . . . . .
H3A H 0.9777 0.1619 0.4229 0.041 Uiso 1 1 calc R . . . .
H3B H 0.8523 0.3061 0.3621 0.041 Uiso 1 1 calc R . . . .
Cu1 Cu 0.66208(4) 0.38422(4) 0.60056(2) 0.01769(15) Uani 1 1 d . . . . .
Cl1 Cl 0.97003(9) 0.41955(9) 0.71496(5) 0.02332(19) Uani 1 1 d . . . . .
Cl2 Cl 0.70461(10) 0.11725(7) 0.59160(5) 0.02015(19) Uani 1 1 d . . . . .
Cl3 Cl 0.64999(11) 0.63758(9) 0.52546(6) 0.0316(2) Uani 1 1 d . . . . .
H1 H 0.656(5) 0.097(4) 0.401(3) 0.031(9) Uiso 1 1 d . . . . .
loop_
_atom_site_aniso_label
_atom_site_aniso_U_11
_atom_site_aniso_U_22
_atom_site_aniso_U_33
_atom_site_aniso_U_23
_atom_site_aniso_U_13
_atom_site_aniso_U_12
N1 0.0238(12) 0.0251(13) 0.0122(11) -0.0021(9) 0.0083(9) -0.0054(10)
C1 0.0317(16) 0.0212(15) 0.0320(15) 0.0072(13) 0.0162(13) 0.0009(12)
C2 0.0296(15) 0.0324(18) 0.0257(15) -0.0021(14) 0.0118(12) 0.0129(14)
C3 0.0364(17) 0.044(2) 0.0236(15) -0.0101(15) 0.0103(13) -0.0269(16)
Cu1 0.0182(2) 0.0145(2) 0.0166(2) 0.00163(12) -0.00253(14) -0.00135(12)
Cl1 0.0188(3) 0.0217(4) 0.0255(4) 0.0026(3) -0.0019(3) -0.0019(3)
Cl2 0.0291(4) 0.0161(4) 0.0149(3) -0.0009(2) 0.0049(3) 0.0015(3)
Cl3 0.0267(4) 0.0227(4) 0.0345(4) 0.0120(3) -0.0126(3) -0.0091(3)
loop_
_atom_type_symbol
_atom_type_description
_atom_type_scat_dispersion_real
_atom_type_scat_dispersion_imag
_atom_type_scat_source
C C 0.0033 0.0016 'International Tables Vol C Tables 4.2.6.8 and 6.1.1.4'
H H 0.0000 0.0000 'International Tables Vol C Tables 4.2.6.8 and 6.1.1.4'
Cl Cl 0.1484 0.1585 'International Tables Vol C Tables 4.2.6.8 and 6.1.1.4'
Cu Cu 0.3201 1.2651 'International Tables Vol C Tables 4.2.6.8 and 6.1.1.4'
N N 0.0061 0.0033 'International Tables Vol C Tables 4.2.6.8 and 6.1.1.4'
loop_
_exptl_crystal_face_index_h
_exptl_crystal_face_index_k
_exptl_crystal_face_index_l
_exptl_crystal_face_perp_dist
5 -1 13 0.0170
8 -2 -12 0.0406
-10 -1 6 0.0581
3 6 13 0.0828
-9 2 12 0.0734
-3 -11 5 0.1685
0 -1 17 0.0220
0 0 -16 0.0454
5 1 12 0.0080
-7 0 -9 0.0270
loop_
_geom_angle_atom_site_label_1
_geom_angle_atom_site_label_2
_geom_angle_atom_site_label_3
_geom_angle
_geom_angle_site_symmetry_1
_geom_angle_site_symmetry_3
_geom_angle_publ_flag
C1 N1 C2 110.0(2) . . ?
C1 N1 C3 109.8(2) . . ?
C1 N1 H1 108(2) . . ?
C2 N1 C3 110.0(2) . . ?
C2 N1 H1 109(2) . . ?
C3 N1 H1 110(2) . . ?
N1 C1 C1 107.89(14) . 2_655 ?
N1 C1 H1A 110.1 . . ?
N1 C1 H1B 110.1 . . ?
C1 C1 H1A 110.1 2_655 . ?
C1 C1 H1B 110.1 2_655 . ?
H1A C1 H1B 108.4 . . ?
N1 C2 H2A 110.2 . . ?
N1 C2 H2B 110.2 . . ?
N1 C2 C3 107.8(2) . 2_655 ?
H2A C2 H2B 108.5 . . ?
C3 C2 H2A 110.2 2_655 . ?
C3 C2 H2B 110.2 2_655 . ?
N1 C3 C2 108.1(2) . 2_655 ?
N1 C3 H3A 110.1 . . ?
N1 C3 H3B 110.1 . . ?
C2 C3 H3A 110.1 2_655 . ?
C2 C3 H3B 110.1 2_655 . ?
H3A C3 H3B 108.4 . . ?
Cl1 Cu1 Cl1 86.08(3) . 2_656 ?
Cl1 Cu1 Cl2 92.70(3) . . ?
Cl1 Cu1 Cl3 175.86(3) . 3_666 ?
Cl1 Cu1 Cl3 93.34(3) . . ?
Cl2 Cu1 Cl1 103.19(3) . 2_656 ?
Cl2 Cu1 Cl3 152.22(3) . . ?
Cl2 Cu1 Cl3 89.98(3) . 3_666 ?
Cl3 Cu1 Cl1 96.38(3) 3_666 2_656 ?
Cl3 Cu1 Cl1 104.27(3) . 2_656 ?
Cl3 Cu1 Cl3 82.84(3) . 3_666 ?
Cu1 Cl1 Cu1 92.21(3) . 2_656 ?
Cu1 Cl3 Cu1 97.16(3) . 3_666 ?
loop_
_geom_bond_atom_site_label_1
_geom_bond_atom_site_label_2
_geom_bond_distance
_geom_bond_site_symmetry_2
_geom_bond_publ_flag
N1 C1 1.485(4) . ?
N1 C2 1.492(4) . ?
N1 C3 1.496(4) . ?
N1 H1 0.87(3) . ?
C1 C1 1.531(6) 2_655 ?
C1 H1A 0.9700 . ?
C1 H1B 0.9700 . ?
C2 H2A 0.9700 . ?
C2 H2B 0.9700 . ?
C2 C3 1.523(4) 2_655 ?
C3 C2 1.523(4) 2_655 ?
C3 H3A 0.9700 . ?
C3 H3B 0.9700 . ?
Cu1 Cl1 2.6596(8) 2_656 ?
Cu1 Cl1 2.2633(7) . ?
Cu1 Cl2 2.2846(7) . ?
Cu1 Cl3 2.3313(8) 3_666 ?
Cu1 Cl3 2.3262(8) . ?
Cl1 Cu1 2.6596(8) 2_656 ?
Cl3 Cu1 2.3313(8) 3_666 ?
loop_
_exptl_oxdiff_crystal_face_indexfrac_h
_exptl_oxdiff_crystal_face_indexfrac_k
_exptl_oxdiff_crystal_face_indexfrac_l
_exptl_oxdiff_crystal_face_x
_exptl_oxdiff_crystal_face_y
_exptl_oxdiff_crystal_face_z
5.0161 -0.9846 13.0098 0.5157 0.2706 -0.8722
8.0223 -1.9752 -12.0107 0.6953 -0.6402 0.2449
-10.0121 -1.0369 5.9927 -0.7231 0.6797 0.2776
2.9781 6.0206 13.0360 -0.0201 -0.0029 -1.0411
-9.0241 1.9717 12.0099 -0.7757 0.6830 -0.1914
-2.9506 -11.0299 4.9577 0.3710 0.8597 0.3466
0.0077 -1.0022 17.0089 0.1320 0.6182 -0.8026
-0.0026 0.0004 -16.0121 -0.0738 -0.5335 0.7925
5.0061 1.0189 12.0170 0.4040 0.1347 -0.9015
-7.0141 -0.0242 -9.0123 -0.6046 -0.0003 0.8206
