#------------------------------------------------------------------------------
#$Date: 2021-10-06 18:00:11 +0300 (Wed, 06 Oct 2021) $
#$Revision: 269695 $
#$URL: file:///home/coder/svn-repositories/cod/cif/7/24/33/7243314.cif $
#------------------------------------------------------------------------------
#
# This file is available in the Crystallography Open Database (COD),
# http://www.crystallography.net/
#
# All data on this site have been placed in the public domain by the
# contributors.
#
data_7243314
loop_
_publ_author_name
'Peloquin, Andrew J.'
'McMillen, Colin D.'
'Pennington, William T.'
_publ_section_title
;
 One dimensional halogen bond design: Br&#x22EF;N versus I&#x22EF;N with
 fluoroarenes
;
_journal_issue                   35
_journal_name_full               CrystEngComm
_journal_page_first              6098
_journal_page_last               6106
_journal_paper_doi               10.1039/D1CE00864A
_journal_volume                  23
_journal_year                    2021
_chemical_formula_moiety         'Br2 C6 F4, C6 H8 N2'
_chemical_formula_sum            'C12 H8 Br2 F4 N2'
_chemical_formula_weight         416.011
_space_group_crystal_system      triclinic
_space_group_IT_number           2
_space_group_name_Hall           '-P 1'
_space_group_name_H-M_alt        'P -1'
_symmetry_Int_Tables_number      2
_audit_creation_date             2021-05-25
_audit_creation_method
;
Olex2 1.3
(compiled 2020.11.12 svn.r5f609507 for OlexSys, GUI svn.r6272)
;
_audit_update_record
;
2021-06-27 deposited with the CCDC.	2021-08-02 downloaded from the CCDC.
;
_cell_angle_alpha                83.796(3)
_cell_angle_beta                 84.121(3)
_cell_angle_gamma                79.072(3)
_cell_formula_units_Z            1
_cell_length_a                   4.8003(2)
_cell_length_b                   6.6036(2)
_cell_length_c                   10.9521(4)
_cell_measurement_reflns_used    16909
_cell_measurement_temperature    106(8)
_cell_measurement_theta_max      28.9760
_cell_measurement_theta_min      1.8630
_cell_volume                     337.69(2)
_computing_cell_refinement       'CrysAlisPro 1.171.40.81a (Rigaku OD, 2020)'
_computing_data_collection       'CrysAlisPro 1.171.40.81a (Rigaku OD, 2020)'
_computing_data_reduction        'CrysAlisPro 1.171.40.81a (Rigaku OD, 2020)'
_computing_molecular_graphics    'Olex2 1.3 (Dolomanov et al., 2009)'
_computing_publication_material  'Olex2 1.3 (Dolomanov et al., 2009)'
_computing_structure_refinement  'olex2.refine 1.3 (Bourhis et al., 2015)'
_computing_structure_solution    'ShelXT (Sheldrick, 2015)'
_diffrn_ambient_environment      N~2~
_diffrn_ambient_temperature      106(8)
_diffrn_detector                 'Hybrid Pixel Array Detector'
_diffrn_detector_area_resol_mean 10.0000
_diffrn_detector_type            HyPix3000
_diffrn_measured_fraction_theta_full 1.0000
_diffrn_measured_fraction_theta_max 0.9699
_diffrn_measurement_details
;
List of Runs (angles in degrees, time in seconds):

  # Type    Start    End  Width  t~exp~   \w     \q     \k     \f   Frames
#--------------------------------------------------------------------------
  1  \w    -13.00  83.00   0.50    0.31    --   14.30  77.00 -90.00  192
  2  \w    -13.00  83.00   0.50    0.31    --   14.30  77.00 -60.00  192
  3  \w    -13.00  84.00   0.50    0.31    --   14.30  78.00 134.00  194
  4  \w     -8.00  82.00   0.50    0.31    --   14.30  61.00 150.00  180
  5  \w     -3.00  82.00   0.50    0.31    --   14.30  45.00 120.00  170
  6  \w     -3.00  82.00   0.50    0.31    --   14.30  45.00  90.00  170
  7  \w    -16.00  89.00   0.50    0.31    --   14.30  15.00 150.00  210
  8  \w    -16.00  89.00   0.50    0.31    --   14.30  15.00  60.00  210
  9  \w    -62.00   6.00   0.50    0.31    --   14.30   0.00 -30.00  136
 10  \w    -16.00  89.00   0.50    0.31    --   14.30  15.00 -60.00  210
 11  \w    -62.00  90.00   0.50    0.31    --   14.30   0.00 -90.00  304
 12  \w    -62.00  90.00   0.50    0.31    --   14.30   0.00 -60.00  304
 13  \w    -62.00  90.00   0.50    0.31    --   14.30   0.00-120.00  304
 14  \w    -62.00  90.00   0.50    0.31    --   14.30   0.00-180.00  304
 15  \w    -62.00  90.00   0.50    0.31    --   14.30   0.00-150.00  304
 16  \w    -66.00  -9.00   0.50    0.31    --  -15.63 125.00 -60.00  114
 17  \w    -66.00  -9.00   0.50    0.31    --  -15.63 125.00 -90.00  114
 18  \w    -66.00  -9.00   0.50    0.31    --  -15.63 125.00-150.00  114
 19  \w    -66.00  -9.00   0.50    0.31    --  -15.63 125.00 -30.00  114
 20  \w    -66.00  -9.00   0.50    0.31    --  -15.63 125.00  60.00  114
 21  \w    -66.00  -9.00   0.50    0.31    --  -15.63 125.00 150.00  114
 22  \w    -43.00  54.00   0.50    0.31    --  -15.63  78.00 134.00  194
 23  \w    -42.00  53.00   0.50    0.31    --  -15.63  77.00  60.00  190
 24  \w    -28.00  53.00   0.50    0.31    --  -15.63  30.00 -60.00  162
 25  \w    -28.00  53.00   0.50    0.31    --  -15.63  30.00 -90.00  162
 26  \w    -60.00   3.00   0.50    0.31    --   14.30 -15.00   0.00  126
 27  \w    -54.00  14.00   0.50    0.31    --   14.30 -30.00 -60.00  136
 28  \w    -53.00  37.00   0.50    0.31    --   14.30 -61.00 -30.00  180
 29  \w    -55.00  42.00   0.50    0.31    --   14.30 -78.00   8.00  194
 30  \w    -54.00  14.00   0.50    0.31    --   14.30 -30.00  60.00  136
 31  \w    -60.00   3.00   0.50    0.31    --   14.30 -15.00 150.00  126
 32  \w    -84.00  -3.00   0.50    0.31    --  -15.63 -30.00 150.00  162
 33  \w    -82.00   2.00   0.50    0.31    --  -15.63 -45.00 150.00  168
 34  \w    -84.00  12.00   0.50    0.31    --  -15.63 -78.00   8.00  192
 35  \w    -82.00   2.00   0.50    0.31    --  -15.63 -45.00 -90.00  168
 36  \w      9.00  65.00   0.50    0.31    --   14.30-125.00 -30.00  112
 37  \w      9.00  65.00   0.50    0.31    --   14.30-125.00-150.00  112
 38  \w      9.00  65.00   0.50    0.31    --   14.30-125.00 -90.00  112
 39  \w      9.00  65.00   0.50    0.31    --   14.30-125.00 -60.00  112
 40  \w      9.00  65.00   0.50    0.31    --   14.30-125.00 120.00  112
 41  \w    -38.00  47.00   0.50    0.31    --   14.30 -94.00 150.00  170
 42  \w    -38.00  17.00   0.50    0.31    --  -15.63 -94.00 -30.00  110
 43  \w    -38.00  17.00   0.50    0.31    --  -15.63 -94.00   0.00  110
 44  \w    -38.00  17.00   0.50    0.31    --  -15.63 -94.00 120.00  110
 45  \w    -38.00  17.00   0.50    0.31    --  -15.63 -94.00 -60.00  110
 46  \w    -38.00  17.00   0.50    0.31    --  -15.63 -94.00-180.00  110
;
_diffrn_measurement_device       'four-circle diffractometer'
_diffrn_measurement_device_type
'XtaLAB Synergy, Single source at offset/far, HyPix3000'
_diffrn_measurement_method       '\w scans'
_diffrn_orient_matrix_type
'CrysAlisPro convention (1999,Acta A55,543-557)'
_diffrn_orient_matrix_UB_11      0.0781268000
_diffrn_orient_matrix_UB_12      -0.0996436000
_diffrn_orient_matrix_UB_13      0.0171648000
_diffrn_orient_matrix_UB_21      -0.0977868000
_diffrn_orient_matrix_UB_22      -0.0099683000
_diffrn_orient_matrix_UB_23      0.0524630000
_diffrn_orient_matrix_UB_31      -0.0845109000
_diffrn_orient_matrix_UB_32      -0.0451484000
_diffrn_orient_matrix_UB_33      -0.0350296000
_diffrn_radiation_monochromator  mirror
_diffrn_radiation_probe          x-ray
_diffrn_radiation_type           'Mo K\a'
_diffrn_radiation_wavelength     0.71073
_diffrn_reflns_av_R_equivalents  0.0872
_diffrn_reflns_av_unetI/netI     0.0395
_diffrn_reflns_Laue_measured_fraction_full 1.0000
_diffrn_reflns_Laue_measured_fraction_max 0.9699
_diffrn_reflns_limit_h_max       6
_diffrn_reflns_limit_h_min       -6
_diffrn_reflns_limit_k_max       8
_diffrn_reflns_limit_k_min       -8
_diffrn_reflns_limit_l_max       14
_diffrn_reflns_limit_l_min       -14
_diffrn_reflns_number            23811
_diffrn_reflns_point_group_measured_fraction_full 1.0000
_diffrn_reflns_point_group_measured_fraction_max 0.9699
_diffrn_reflns_theta_full        25.2417
_diffrn_reflns_theta_max         29.17
_diffrn_reflns_theta_min         1.88
_diffrn_source                   'micro-focus sealed X-ray tube'
_diffrn_source_type              'PhotonJet (Mo) X-ray Source'
_exptl_absorpt_coefficient_mu    6.037
_exptl_absorpt_correction_T_max  0.483
_exptl_absorpt_correction_T_min  0.040
_exptl_absorpt_correction_type   gaussian
_exptl_absorpt_process_details
;
CrysAlisPro 1.171.40.81a (Rigaku Oxford Diffraction, 2020)
Numerical absorption correction based on gaussian integration over
a multifaceted crystal model
Empirical absorption correction using spherical harmonics,
implemented in SCALE3 ABSPACK scaling algorithm.
;
_exptl_crystal_density_diffrn    2.046
_exptl_crystal_description       block
_exptl_crystal_F_000             199.711
_exptl_crystal_size_max          0.688
_exptl_crystal_size_mid          0.475
_exptl_crystal_size_min          0.349
_refine_diff_density_max         0.5187
_refine_diff_density_min         -0.7372
_refine_diff_density_rms         0.1336
_refine_ls_d_res_high            0.7292
_refine_ls_d_res_low             10.8495
_refine_ls_goodness_of_fit_ref   1.0432
_refine_ls_hydrogen_treatment    constr
_refine_ls_matrix_type           full
_refine_ls_number_constraints    6
_refine_ls_number_parameters     92
_refine_ls_number_reflns         1770
_refine_ls_number_restraints     0
_refine_ls_restrained_S_all      1.0432
_refine_ls_R_factor_all          0.0329
_refine_ls_R_factor_gt           0.0280
_refine_ls_shift/su_max          0.0001
_refine_ls_shift/su_mean         0.0000
_refine_ls_structure_factor_coef Fsqd
_refine_ls_weighting_details
'w=1/[\s^2^(Fo^2^)+(0.0297P)^2^+0.0849P] where P=(Fo^2^+2Fc^2^)/3'
_refine_ls_weighting_scheme      calc
_refine_ls_wR_factor_gt          0.0614
_refine_ls_wR_factor_ref         0.0626
_reflns_Friedel_coverage         0.0
_reflns_limit_h_max              6
_reflns_limit_h_min              -6
_reflns_limit_k_max              8
_reflns_limit_k_min              -8
_reflns_limit_l_max              14
_reflns_limit_l_min              0
_reflns_number_gt                1586
_reflns_number_total             1770
_reflns_threshold_expression     I>=2u(I)
_iucr_refine_instructions_details
;
TITL 4may21_ajp1_abs_a.res in P-1
REM Old TITL 4May21_AJP1_abs in P1
REM SHELXT solution in P-1: R1 0.068, Rweak 0.011, Alpha 0.049
REM <I/s> 0.000 for 0 systematic absences, Orientation as input
REM Formula found by SHELXT: C6 N F2 Br
CELL 0.71073 4.8003 6.6036 10.9521 83.796 84.121 79.072
ZERR 1 0.0002 0.0002 0.0004 0.003 0.003 0.003
LATT 1
SFAC C H Br F N
UNIT 12 8 2 4 2

L.S. 4
PLAN  20
CONF
BOND 
list 4
fmap 2
MORE -1
BOND $H
ACTA 
WGHT 0.029746 0.084946
FVAR 0.850668
REM <olex2.extras>
REM <HklSrc "%.\\4May21_AJP1_abs.hkl">
REM </olex2.extras>

Br1   3     0.74002  0.18180  0.72831  11.00000  0.02398  0.02109  0.01973 =
 -0.00708 -0.00415 -0.00640 
F1    4     0.28053  0.39108  0.55795  11.00000  0.02890  0.01481  0.02805 =
 -0.00837 -0.00455 -0.00005 
F2    4     0.08183  0.24076  0.37285  11.00000  0.03083  0.02255  0.02761 =
 -0.00521 -0.01345  0.00235 
C1    1     0.60349  0.07916  0.59717  11.00000  0.02342  0.01980  0.01895 =
 -0.00553 -0.00087 -0.00795 
C2    1     0.39139  0.19726  0.52998  11.00000  0.02304  0.01558  0.01859 =
 -0.00568  0.00145 -0.00377 
C3    1     0.28960  0.12056  0.43532  11.00000  0.01973  0.01936  0.01797 =
 -0.00260 -0.00409 -0.00189 

N1    5     0.93749  0.35971  0.92573  11.00000  0.02489  0.01656  0.02221 =
 -0.00561 -0.00657 -0.00380 
C4    1     0.84027  0.35691  1.04430  11.00000  0.02024  0.01698  0.02321 =
 -0.00177 -0.00668 -0.00338 
C5    1     1.09519  0.50143  0.88245  11.00000  0.02423  0.02245  0.01746 =
 -0.00381 -0.00393 -0.00162 
AFIX 43
H5    2     1.16501  0.50597  0.79998  11.00000 -1.20000 
AFIX 0
C6    1     0.66181  0.19867  1.09493  11.00000  0.02866  0.02231  0.03470 =
 0.00018 -0.00478 -0.00905 
AFIX 137
H6a   2     0.51222  0.20300  1.04234  11.00000 -1.50000 
H6b   2     0.77864  0.06334  1.09862  11.00000 -1.50000 
H6c   2     0.58034  0.22840  1.17623  11.00000 -1.50000 
AFIX 0
HKLF 4

END
Q1 1 0.666667 0.083333 0.65 11 0.05 0.52
Q2 1 0.722222 -0.208333 1.225 11 0.05 0.43
Q3 1 0.444444 -0.125 1.125 11 0.05 0.42
Q4 1 0.5 0.041667 0.8 11 0.05 0.41
Q5 1 1 0.166667 0.7 11 0.05 0.4

  REM The information below was added by Olex2.
  REM
  REM R1 = 0.0280 for 1586 Fo > 4sig(Fo) and 0.0329 for all 1770 data
  REM 92 parameters refined using 0 restraints
  REM Highest difference peak 0.5187, deepest hole -0.7372
  REM Mean Shift 0.0000, Max Shift 0.0001.

  REM +++ Tabular Listing of Refinement Information +++
  REM R1_all = 0.0329
  REM R1_gt = 0.0280
  REM wR_ref = 0.0626
  REM GOOF = 1.0432
  REM Shift_max = 0.0001
  REM Shift_mean = 0.0000
  REM Reflections_all = 1770
  REM Reflections_gt = 1586
  REM Parameters = 92
  REM Hole = -0.7372
  REM Peak = 0.5187
  REM Flack = n/a
;
_cod_data_source_file            d1ce00864a2.cif
_cod_data_source_block           Br2F4bz_25Me2pyrz
_cod_depositor_comments
'Adding full bibliography for 7243307--7243335.cif.'
_cod_database_code               7243314
_chemical_oxdiff_formula         (Br2F4C6)(N2C6H8)
_chemical_oxdiff_usercomment     (I2F8bph)(Me3pyrz)
_reflns_odcompleteness_completeness 100.00
_reflns_odcompleteness_iscentric 1
_reflns_odcompleteness_theta     28.22
_olex2_refinement_description
;
1.a Aromatic/amide H refined with riding coordinates:
 C5(H5)
1.b Idealised Me refined as rotating group:
 C6(H6a,H6b,H6c)
;
_iucr_refine_fcf_details
;
data_4May21_AJP1_abs
_computing_structure_refinement   'olex2.refine 1.3 (Bourhis et al., 2015)'
_shelx_refln_list_code            4
loop_
  _space_group_symop_id
  _space_group_symop_operation_xyz
  1  x,y,z
  2  -x,-y,-z

_space_group_crystal_system       triclinic
_space_group_IT_number            2
_space_group_name_H-M_alt         'P -1'
_space_group_name_Hall            '-P 1'
_symmetry_space_group_name_H-M    'P -1'
_symmetry_space_group_name_Hall   '-P 1'
_symmetry_Int_Tables_number       2
_cell_length_a                    4.8003(2)
_cell_length_b                    6.6036(2)
_cell_length_c                    10.9521(4)
_cell_angle_alpha                 83.796(3)
_cell_angle_beta                  84.121(3)
_cell_angle_gamma                 79.072(3)
_cell_volume                      337.69(2)
loop_
  _refln_index_h
  _refln_index_k
  _refln_index_l
  _refln_F_squared_calc
  _refln_F_squared_meas
  _refln_F_squared_sigma
  _refln_F_squared_weight
  _refln_observed_status
-6 -4 1 222.354 198.848 23.737 11.465 o
-6 -4 2 11.950 11.137 11.684 51.840 o
-6 -3 1 2.911 19.703 9.738 74.620 o
-6 -3 2 168.523 171.281 18.091 19.437 o
-6 -3 3 52.983 54.951 11.575 50.572 o
-6 -2 1 104.612 113.728 10.873 51.845 o
-6 -2 2 108.314 105.671 12.738 39.293 o
-6 -2 3 49.255 58.428 8.947 82.091 o
-6 -2 4 45.894 73.877 22.594 13.777 o
-6 -1 1 137.344 140.731 24.753 11.123 o
-6 -1 2 88.174 101.887 10.902 53.115 o
-6 -1 3 161.896 166.355 13.171 33.821 o
-6 -1 4 14.707 19.634 11.676 51.720 o
-6 0 1 4.115 13.910 8.441 99.214 o
-6 0 2 169.947 165.439 32.967 6.336 o
-6 0 3 4.772 2.386 7.093 140.851 o
-6 0 4 60.127 55.732 16.852 24.434 o
-6 1 1 145.950 172.344 25.610 10.338 o
-6 1 2 0.452 2.890 9.985 71.488 o
-6 1 3 16.765 26.864 23.244 13.156 o
-5 -6 1 142.110 111.725 13.006 36.445 o
-5 -6 2 37.650 33.710 8.657 90.094 o
-5 -6 3 58.291 45.866 22.304 14.139 o
-5 -5 1 161.722 178.548 13.812 31.057 o
-5 -5 2 197.325 193.264 13.080 32.182 o
-5 -5 3 252.677 278.077 19.751 15.097 o
-5 -5 4 0.608 6.665 9.332 81.718 o
-5 -5 5 113.332 151.203 16.049 25.275 o
-5 -4 1 63.943 53.031 8.257 93.243 o
-5 -4 2 347.891 323.089 18.618 14.941 o
-5 -4 3 8.837 2.290 6.881 148.788 o
-5 -4 4 228.939 231.098 13.804 27.793 o
-5 -4 5 0.766 0.780 7.347 132.022 o
-5 -4 6 48.910 38.128 9.047 81.539 o
-5 -3 1 213.145 245.928 13.751 28.253 o
-5 -3 2 25.403 34.673 6.973 137.851 o
-5 -3 3 366.689 377.122 20.603 12.363 o
-5 -3 4 80.460 85.374 8.595 82.197 o
-5 -3 5 139.942 174.765 11.619 42.419 o
-5 -3 6 99.145 116.769 10.517 55.191 o
-5 -3 7 88.174 110.207 8.583 79.404 o
-5 -2 1 359.708 366.752 38.688 4.342 o
-5 -2 2 156.973 138.443 9.191 60.776 o
-5 -2 3 53.742 57.683 6.794 133.324 o
-5 -2 4 171.512 169.894 9.966 51.070 o
-5 -2 5 206.712 204.465 10.792 41.606 o
-5 -2 6 7.568 6.220 6.278 178.107 o
-5 -2 7 160.749 162.363 12.393 37.492 o
-5 -2 8 2.951 1.763 9.451 79.692 o
-5 -1 1 82.300 62.376 7.603 102.955 o
-5 -1 2 251.002 227.085 12.786 30.184 o
-5 -1 3 128.368 128.988 9.907 57.681 o
-5 -1 4 238.632 215.214 11.092 37.595 o
-5 -1 5 0.824 8.502 5.777 211.930 o
-5 -1 6 297.306 274.906 22.390 11.887 o
-5 -1 7 10.722 11.793 6.286 175.883 o
-5 -1 8 159.858 131.464 11.458 43.486 o
-5 0 1 493.040 498.250 41.525 3.598 o
-5 0 2 7.167 2.016 5.307 249.049 o
-5 0 3 181.181 167.260 12.688 35.051 o
-5 0 4 140.316 117.759 7.727 82.406 o
-5 0 5 308.645 283.483 21.757 12.331 o
-5 0 6 5.666 7.029 6.290 177.854 o
-5 0 7 142.016 145.290 10.371 51.767 o
-5 0 8 69.269 99.864 18.360 20.421 o
-5 1 1 29.901 26.308 5.794 194.216 o
-5 1 2 194.035 204.549 11.650 38.151 o
-5 1 3 39.639 40.140 6.021 173.866 o
-5 1 4 432.788 376.405 23.345 9.750 o
-5 1 5 112.370 95.841 8.744 74.610 o
-5 1 6 11.709 13.453 6.205 179.800 o
-5 1 7 115.521 115.720 10.551 53.665 o
-5 2 1 137.356 137.973 10.276 53.240 o
-5 2 2 38.896 46.883 7.364 120.358 o
-5 2 3 244.762 206.582 11.119 37.359 o
-5 2 4 450.728 415.716 22.395 10.058 o
-5 2 5 1.865 2.139 6.272 180.591 o
-5 2 6 72.407 58.255 7.978 97.144 o
-5 2 7 0.036 -4.339 20.466 17.035 o
-5 3 1 174.405 184.140 12.505 35.783 o
-5 3 2 3.178 3.618 6.860 150.681 o
-5 3 3 154.736 151.467 10.494 49.529 o
-5 3 4 3.970 6.189 5.974 197.574 o
-5 3 5 116.841 111.606 10.058 58.166 o
-5 4 1 7.108 10.539 8.052 108.783 o
-5 4 2 198.505 195.823 13.191 31.662 o
-5 4 3 0.351 -4.519 22.953 13.542 o
-4 -7 1 361.901 348.009 25.375 9.064 o
-4 -7 2 26.608 38.060 11.211 55.277 o
-4 -7 3 153.505 163.648 16.224 23.918 o
-4 -7 4 128.747 199.672 43.323 3.735 o
-4 -6 1 123.643 113.626 12.402 40.349 o
-4 -6 2 255.573 210.752 15.540 22.784 o
-4 -6 3 103.276 98.147 11.765 45.688 o
-4 -6 4 48.733 55.242 11.108 54.886 o
-4 -6 5 88.914 108.262 13.313 36.896 o
-4 -6 6 49.612 45.343 12.087 46.869 o
-4 -5 1 194.296 206.999 14.559 27.057 o
-4 -5 2 264.216 243.294 19.863 15.023 o
-4 -5 3 63.122 67.318 7.678 104.753 o
-4 -5 4 404.418 414.783 27.721 7.508 o
-4 -5 5 18.342 19.476 7.477 123.437 o
-4 -5 6 156.670 173.070 13.490 32.580 o
-4 -5 7 31.873 26.494 7.344 124.533 o
-4 -5 8 154.117 162.380 15.032 27.332 o
-4 -4 1 821.737 863.845 37.134 3.450 o
-4 -4 2 70.174 60.335 7.042 120.451 o
-4 -4 3 353.503 338.793 16.400 17.571 o
-4 -4 4 1.224 1.863 5.183 264.383 o
-4 -4 5 240.506 233.888 11.587 34.848 o
-4 -4 6 10.849 8.186 5.465 231.686 o
-4 -4 7 326.980 333.087 15.121 20.248 o
-4 -4 8 94.535 98.207 8.804 76.106 o
-4 -4 9 12.658 19.862 9.125 84.194 o
-4 -3 1 91.898 82.029 6.255 133.126 o
-4 -3 2 776.896 782.238 41.518 3.067 o
-4 -3 3 42.003 36.055 4.732 262.206 o
-4 -3 4 201.186 213.135 8.964 52.841 o
-4 -3 5 49.640 49.052 6.274 156.062 o
-4 -3 6 347.700 384.284 17.476 15.836 o
-4 -3 7 555.545 591.485 22.311 8.586 o
-4 -3 8 1.779 8.446 5.433 238.832 o
-4 -3 9 92.874 114.261 8.261 83.366 o
-4 -2 1 720.835 710.069 43.373 2.976 o
-4 -2 2 408.860 403.283 18.979 13.181 o
-4 -2 3 313.156 303.719 14.211 22.771 o
-4 -2 4 378.587 377.687 13.409 21.075 o
-4 -2 5 19.197 17.518 4.806 285.552 o
-4 -2 6 399.113 386.297 15.670 17.110 o
-4 -2 7 16.808 10.887 5.082 261.492 o
-4 -2 8 234.797 244.476 11.420 35.541 o
-4 -2 9 0.493 6.033 5.707 217.728 o
-4 -2 10 114.136 132.697 11.194 48.099 o
-4 -1 1 153.211 148.155 6.765 90.366 o
-4 -1 2 309.845 315.105 16.081 19.233 o
-4 -1 3 473.389 477.978 18.954 11.909 o
-4 -1 4 16.034 13.072 3.900 427.651 o
-4 -1 5 894.546 877.598 38.367 3.176 o
-4 -1 6 14.503 7.925 4.809 293.608 o
-4 -1 7 275.948 271.883 12.441 29.143 o
-4 -1 8 54.926 54.170 6.286 152.452 o
-4 -1 9 97.030 115.521 8.392 80.524 o
-4 -1 10 119.709 129.680 9.273 64.963 o
-4 0 1 5.389 5.181 3.954 442.844 o
-4 0 2 908.036 938.064 28.649 4.339 o
-4 0 3 24.583 24.715 4.555 305.253 o
-4 0 4 862.329 877.384 34.229 3.734 o
-4 0 5 32.099 37.822 5.181 231.970 o
-4 0 6 149.778 142.265 8.304 70.884 o
-4 0 7 339.674 326.912 14.950 20.297 o
-4 0 8 53.158 42.643 6.007 167.974 o
-4 0 9 73.572 78.362 6.536 131.883 o
-4 0 10 123.554 125.959 8.432 74.830 o
-4 1 1 668.892 656.483 17.885 9.298 o
-4 1 2 170.225 171.964 8.703 61.472 o
-4 1 3 212.360 214.659 10.134 44.322 o
-4 1 4 123.270 107.611 7.998 82.657 o
-4 1 5 294.483 294.509 14.968 21.901 o
-4 1 6 324.253 293.039 18.266 15.946 o
-4 1 7 37.536 37.936 5.822 186.038 o
-4 1 8 244.781 223.939 10.823 38.074 o
-4 1 9 14.946 10.806 5.512 225.074 o
-4 1 10 161.448 150.323 9.669 55.354 o
-4 2 1 52.015 60.380 5.816 173.427 o
-4 2 2 526.169 507.636 22.640 8.964 o
-4 2 3 757.537 751.696 22.637 6.596 o
-4 2 4 18.737 17.412 5.228 244.467 o
-4 2 5 222.033 215.203 13.737 28.529 o
-4 2 6 4.225 3.395 5.427 239.457 o
-4 2 7 437.536 423.687 19.825 11.979 o
-4 2 8 0.183 -6.463 5.711 218.670 o
-4 2 9 101.574 93.221 8.243 83.967 o
-4 2 10 28.310 -8.692 19.637 18.412 o
-4 3 1 139.873 137.294 7.839 78.969 o
-4 3 2 1055.550 1104.110 30.937 3.456 o
-4 3 3 7.365 7.472 5.393 239.724 o
-4 3 4 151.617 143.985 8.635 66.757 o
-4 3 5 7.394 7.832 5.616 221.359 o
-4 3 6 158.921 151.804 10.096 52.118 o
-4 3 7 1.058 2.804 5.542 231.282 o
-4 3 8 237.942 220.895 10.742 39.023 o
-4 3 9 179.615 150.945 20.524 15.469 o
-4 4 1 227.787 218.487 10.546 40.779 o
-4 4 2 8.853 3.856 5.326 245.849 o
-4 4 3 205.597 192.613 10.316 44.772 o
-4 4 4 62.766 53.247 6.898 127.891 o
-4 4 5 201.258 191.005 12.099 36.067 o
-4 4 6 105.093 95.965 9.414 66.989 o
-4 4 7 102.574 90.782 8.813 75.381 o
-4 5 1 37.393 36.770 6.614 148.258 o
-4 5 2 166.647 153.700 9.652 54.775 o
-4 5 3 91.299 91.815 8.809 76.918 o
-4 5 4 31.373 25.432 7.067 134.110 o
-4 5 5 175.486 148.688 12.614 36.073 o
-4 6 1 31.034 46.487 25.759 10.685 o
-3 -8 1 95.481 99.434 12.491 41.356 o
-3 -8 2 3.284 -4.206 9.607 77.153 o
-3 -8 3 177.923 185.010 39.951 4.350 o
-3 -7 1 29.530 33.970 8.659 90.938 o
-3 -7 2 301.681 269.504 16.466 19.246 o
-3 -7 3 7.948 7.603 7.557 123.375 o
-3 -7 4 164.650 187.398 15.196 26.253 o
-3 -7 5 76.113 107.320 13.677 35.495 o
-3 -7 6 71.319 54.103 12.059 46.093 o
-3 -6 1 429.431 454.435 26.774 7.725 o
-3 -6 2 356.957 360.059 17.561 15.780 o
-3 -6 3 42.372 57.339 7.651 110.551 o
-3 -6 4 112.185 114.127 10.740 52.388 o
-3 -6 5 185.256 177.065 12.826 34.059 o
-3 -6 6 170.249 173.048 11.016 44.092 o
-3 -6 7 0.284 1.007 6.504 168.515 o
-3 -6 8 201.935 238.580 13.836 28.516 o
-3 -5 1 315.968 322.206 15.796 19.494 o
-3 -5 2 78.268 88.206 6.951 116.721 o
-3 -5 3 517.804 513.616 17.971 11.837 o
-3 -5 4 74.924 68.803 6.267 142.234 o
-3 -5 5 428.444 445.597 17.615 13.883 o
-3 -5 6 2.063 0.536 6.038 195.001 o
-3 -5 7 313.760 324.915 14.926 21.051 o
-3 -5 8 11.246 17.581 6.716 153.785 o
-3 -5 9 87.262 106.733 9.918 62.535 o
-3 -4 1 23.713 23.862 4.492 314.374 o
-3 -4 2 1413.440 1393.700 38.061 2.149 o
-3 -4 3 3.536 2.502 3.588 542.382 o
-3 -4 4 456.007 470.102 15.000 15.788 o
-3 -4 5 132.006 136.235 8.054 77.597 o
-3 -4 6 214.101 211.797 10.163 44.130 o
-3 -4 7 101.563 102.014 7.856 89.736 o
-3 -4 8 235.763 247.304 11.826 33.814 o
-3 -4 9 154.389 176.361 13.242 33.619 o
-3 -4 10 39.581 42.914 7.013 131.865 o
-3 -3 1 452.183 452.310 16.404 14.607 o
-3 -3 2 40.221 33.474 3.476 430.302 o
-3 -3 3 494.285 504.801 13.685 15.897 o
-3 -3 4 66.256 61.885 4.908 214.193 o
-3 -3 5 727.665 765.207 20.486 7.376 o
-3 -3 6 834.826 880.180 25.168 5.306 o
-3 -3 7 56.528 59.858 5.892 167.695 o
-3 -3 8 188.691 203.851 10.258 46.067 o
-3 -3 9 24.573 25.633 5.888 191.130 o
-3 -3 10 206.980 244.095 15.750 23.071 o
-3 -3 11 1.898 11.389 6.091 190.005 o
-3 -2 1 345.390 332.729 8.458 35.061 o
-3 -2 2 404.630 424.951 11.652 22.265 o
-3 -2 3 249.831 237.573 8.486 48.765 o
-3 -2 4 345.772 341.247 10.370 29.526 o
-3 -2 5 2268.120 2194.310 44.816 1.073 o
-3 -2 6 14.640 20.503 3.926 417.994 o
-3 -2 7 148.946 177.929 8.808 62.973 o
-3 -2 8 5.832 8.141 4.602 327.613 o
-3 -2 9 179.985 182.851 9.461 53.305 o
-3 -2 10 8.419 8.599 5.655 217.781 o
-3 -2 11 380.036 408.085 23.971 9.618 o
-3 -2 12 62.068 64.808 17.682 22.194 o
-3 -1 1 97.871 104.501 3.110 263.888 o
-3 -1 2 1940.070 1976.570 50.837 1.165 o
-3 -1 3 0.758 2.127 2.518 1107.370 o
-3 -1 4 798.072 808.217 22.951 6.134 o
-3 -1 5 89.431 89.070 5.075 176.613 o
-3 -1 6 387.016 362.603 12.317 22.950 o
-3 -1 7 198.956 206.197 10.331 44.676 o
-3 -1 8 585.768 616.259 23.438 7.805 o
-3 -1 9 112.999 120.016 7.791 86.727 o
-3 -1 10 235.306 249.881 14.502 25.326 o
-3 -1 11 110.955 119.869 8.946 70.511 o
-3 -1 12 14.609 9.673 8.644 93.930 o
-3 0 1 1617.880 1716.750 34.815 1.896 o
-3 0 2 5.783 7.396 1.882 1734.300 o
-3 0 3 1319.700 1275.080 31.388 2.742 o
-3 0 4 185.007 179.864 8.452 61.123 o
-3 0 5 755.514 722.078 18.637 7.921 o
-3 0 6 351.538 361.394 12.896 23.179 o
-3 0 7 264.080 255.456 10.562 36.758 o
-3 0 8 304.783 268.203 11.840 29.632 o
-3 0 9 97.053 84.029 6.665 119.116 o
-3 0 10 200.079 217.929 10.401 43.708 o
-3 0 11 22.304 22.905 5.994 186.347 o
-3 0 12 154.532 169.475 14.053 30.549 o
-3 1 1 208.805 217.437 6.576 70.738 o
-3 1 2 922.700 926.898 22.560 5.313 o
-3 1 3 535.455 544.366 15.017 13.520 o
-3 1 4 495.670 480.912 14.426 15.414 o
-3 1 5 638.918 656.660 17.349 9.860 o
-3 1 6 12.338 7.061 4.309 364.658 o
-3 1 7 274.693 292.461 16.672 19.207 o
-3 1 8 270.125 253.370 12.589 29.378 o
-3 1 9 358.359 349.840 13.949 21.197 o
-3 1 10 5.288 8.165 6.148 185.973 o
-3 1 11 385.468 376.537 21.732 11.250 o
-3 1 12 113.126 118.158 11.462 46.697 o
-3 2 1 164.566 171.112 6.776 84.261 o
-3 2 2 492.768 516.314 16.553 13.255 o
-3 2 3 595.669 594.502 19.436 9.618 o
-3 2 4 631.170 623.223 18.564 9.544 o
-3 2 5 23.096 24.868 4.324 336.529 o
-3 2 6 731.798 735.511 22.126 6.946 o
-3 2 7 5.602 3.016 4.931 288.414 o
-3 2 8 309.771 301.079 13.784 23.833 o
-3 2 9 40.068 34.613 6.029 174.493 o
-3 2 10 437.571 407.159 20.773 11.335 o
-3 2 11 132.093 143.530 11.736 43.081 o
-3 2 12 19.535 22.334 14.931 31.704 o
-3 3 1 1732.590 1694.050 40.294 1.627 o
-3 3 2 1.323 -1.094 3.835 482.570 o
-3 3 3 269.652 261.966 10.784 35.304 o
-3 3 4 20.530 16.877 4.094 380.866 o
-3 3 5 684.990 683.510 21.697 7.563 o
-3 3 6 56.090 58.716 6.585 139.724 o
-3 3 7 355.525 336.880 13.430 22.439 o
-3 3 8 101.274 98.103 7.742 92.255 o
-3 3 9 138.348 148.708 9.650 58.025 o
-3 3 10 103.948 102.120 9.186 69.540 o
-3 3 11 67.278 57.312 9.481 72.110 o
-3 4 1 93.540 89.259 6.218 132.138 o
-3 4 2 274.439 265.960 10.474 36.026 o
-3 4 3 53.357 53.675 5.575 187.018 o
-3 4 4 186.479 189.357 8.825 57.135 o
-3 4 5 49.697 50.750 5.921 171.809 o
-3 4 6 602.124 569.254 21.527 8.671 o
-3 4 7 331.996 330.962 13.940 22.309 o
-3 4 8 25.156 33.483 6.721 147.910 o
-3 4 9 189.152 189.608 10.822 43.270 o
-3 4 10 4.045 3.430 6.353 175.340 o
-3 5 1 241.060 243.339 11.678 34.193 o
-3 5 2 192.471 201.838 10.823 42.573 o
-3 5 3 227.755 217.894 11.356 37.046 o
-3 5 4 438.597 432.197 17.683 13.766 o
-3 5 5 160.360 154.845 9.617 55.664 o
-3 5 6 90.090 93.293 9.117 72.644 o
-3 5 7 4.111 4.566 6.871 149.925 o
-3 5 8 270.050 252.840 14.172 25.026 o
-3 5 9 0.164 -9.310 9.904 72.729 o
-3 6 1 307.554 287.930 13.402 25.004 o
-3 6 2 51.093 40.378 7.035 128.500 o
-3 6 3 141.231 136.036 9.710 57.841 o
-3 6 4 21.100 22.760 6.665 152.867 o
-3 6 5 115.043 109.617 8.649 74.498 o
-3 6 6 13.799 9.431 6.966 143.545 o
-3 7 2 51.316 27.666 23.078 13.264 o
-2 -8 1 50.088 32.779 10.867 57.727 o
-2 -8 2 484.076 518.285 24.573 8.267 o
-2 -8 3 11.793 9.516 8.543 96.388 o
-2 -8 4 60.611 53.613 9.743 69.353 o
-2 -7 1 315.567 317.412 18.669 15.382 o
-2 -7 2 28.413 29.874 6.774 145.395 o
-2 -7 3 292.711 265.386 13.566 25.546 o
-2 -7 4 112.918 90.524 9.997 60.095 o
-2 -7 5 128.559 132.432 9.152 65.041 o
-2 -7 6 23.365 27.546 6.430 162.190 o
-2 -7 7 90.057 88.820 9.422 68.938 o
-2 -6 1 165.768 166.439 10.958 45.000 o
-2 -6 2 280.647 291.103 10.008 36.453 o
-2 -6 3 380.431 377.708 11.627 24.197 o
-2 -6 4 194.542 176.446 8.350 60.893 o
-2 -6 5 313.795 327.543 13.492 23.882 o
-2 -6 6 5.736 6.363 5.840 205.964 o
-2 -6 7 198.512 175.437 10.337 45.948 o
-2 -6 8 8.213 8.575 6.889 147.956 o
-2 -6 9 93.314 68.233 10.016 62.633 o
-2 -5 1 18.690 15.459 3.004 660.814 o
-2 -5 2 374.950 372.365 10.467 26.908 o
-2 -5 3 398.026 379.897 12.259 22.329 o
-2 -5 4 453.412 482.814 14.072 16.701 o
-2 -5 5 2.829 2.669 4.496 348.840 o
-2 -5 6 528.324 533.598 17.619 11.812 o
-2 -5 7 37.390 37.214 5.689 194.025 o
-2 -5 8 308.821 303.594 13.025 25.558 o
-2 -5 9 64.803 66.675 7.632 105.560 o
-2 -5 10 81.638 83.311 9.136 73.998 o
-2 -4 1 1252.430 1223.870 22.087 3.640 o
-2 -4 2 5.749 7.855 2.197 1318.750 o
-2 -4 3 1041.720 1008.650 21.781 4.751 o
-2 -4 4 121.425 125.919 6.533 107.312 o
-2 -4 5 683.730 719.222 20.808 7.755 o
-2 -4 6 225.956 224.570 8.961 49.398 o
-2 -4 7 374.429 381.929 12.502 22.722 o
-2 -4 8 232.416 243.927 12.357 32.118 o
-2 -4 9 17.457 23.248 5.696 207.244 o
-2 -4 10 72.192 94.158 7.965 94.147 o
-2 -4 11 59.079 68.454 8.056 96.944 o
-2 -3 1 63.190 54.906 1.960 584.509 o
-2 -3 2 959.598 969.756 14.382 6.433 o
-2 -3 3 487.842 507.802 9.508 20.458 o
-2 -3 4 213.544 224.135 6.776 67.284 o
-2 -3 5 600.501 641.750 16.887 10.630 o
-2 -3 6 815.401 876.402 24.450 5.545 o
-2 -3 7 292.060 320.311 11.881 28.864 o
-2 -3 8 8.313 10.523 4.689 312.527 o
-2 -3 9 445.891 468.783 21.818 10.243 o
-2 -3 10 1.514 2.798 5.409 242.492 o
-2 -3 11 285.916 311.173 22.797 11.483 o
-2 -3 12 0.805 0.372 7.151 139.375 o
-2 -2 1 198.627 178.276 3.545 116.156 o
-2 -2 2 672.791 725.830 13.551 10.744 o
-2 -2 3 2666.050 2819.060 51.376 0.759 o
-2 -2 4 3082.570 3332.550 71.547 0.500 o
-2 -2 5 13.288 16.352 2.963 701.220 o
-2 -2 6 252.867 266.573 9.731 40.726 o
-2 -2 7 53.536 52.125 4.937 227.400 o
-2 -2 8 1016.650 1020.730 27.440 4.062 o
-2 -2 9 3.929 6.982 4.944 286.745 o
-2 -2 10 336.465 366.731 17.323 16.373 o
-2 -2 11 35.414 35.023 6.546 151.980 o
-2 -2 12 70.754 72.361 8.427 87.481 o
-2 -2 13 96.873 104.961 12.257 42.610 o
-2 -1 1 1468.540 1415.950 21.427 2.918 o
-2 -1 2 764.299 807.793 13.982 8.938 o
-2 -1 3 3124.800 3110.140 61.522 0.563 o
-2 -1 4 300.004 329.344 8.291 39.647 o
-2 -1 5 787.409 732.090 17.067 8.110 o
-2 -1 6 63.864 67.267 4.534 239.337 o
-2 -1 7 512.719 496.084 19.736 10.808 o
-2 -1 8 12.908 10.589 4.032 409.587 o
-2 -1 9 733.231 771.308 28.706 5.172 o
-2 -1 10 420.191 449.622 21.648 10.669 o
-2 -1 11 55.953 50.868 6.295 152.312 o
-2 -1 12 186.028 166.596 12.261 36.761 o
-2 -1 13 12.827 11.032 6.930 145.050 o
-2 0 1 243.566 246.515 4.452 76.306 o
-2 0 2 1003.290 992.491 14.451 6.057 o
-2 0 3 3.783 3.609 1.228 3883.980 o
-2 0 4 1825.660 1931.880 44.559 1.370 o
-2 0 5 335.739 326.231 10.878 29.190 o
-2 0 6 856.694 818.099 25.855 5.207 o
-2 0 7 891.421 813.430 23.693 5.499 o
-2 0 8 312.183 276.879 10.450 33.251 o
-2 0 9 308.000 322.057 16.478 18.553 o
-2 0 10 4.005 7.123 5.291 250.859 o
-2 0 11 403.993 428.448 33.684 5.406 o
-2 0 12 1.654 2.733 6.051 193.961 o
-2 0 13 271.123 290.233 25.702 9.485 o
-2 1 1 2849.260 2832.900 34.327 0.832 o
-2 1 2 1449.050 1499.770 24.136 2.735 o
-2 1 3 1402.860 1464.870 22.670 2.939 o
-2 1 4 778.168 772.989 15.783 8.409 o
-2 1 5 99.333 88.875 4.116 214.851 o
-2 1 6 814.494 851.696 23.086 5.906 o
-2 1 7 106.002 100.037 6.269 123.635 o
-2 1 8 598.879 577.119 23.902 7.662 o
-2 1 9 0.454 6.044 4.593 335.010 o
-2 1 10 666.535 661.514 39.740 3.520 o
-2 1 11 1.063 2.783 5.987 198.261 o
-2 1 12 245.162 236.687 16.034 21.645 o
-2 1 13 64.865 65.209 9.819 67.530 o
-2 2 1 733.323 717.312 13.189 10.125 o
-2 2 2 662.450 664.060 12.500 11.863 o
-2 2 3 1026.260 1046.210 18.354 5.213 o
-2 2 4 56.652 69.646 3.592 333.790 o
-2 2 5 704.755 711.702 17.781 8.716 o
-2 2 6 274.460 285.916 11.754 30.980 o
-2 2 7 1262.620 1268.240 39.002 2.345 o
-2 2 8 31.387 21.595 4.725 280.736 o
-2 2 9 745.487 755.926 38.535 3.489 o
-2 2 10 384.372 382.114 20.108 12.582 o
-2 2 11 30.747 34.844 6.355 162.077 o
-2 2 12 39.499 44.706 8.538 91.591 o
-2 2 13 160.869 149.332 18.229 19.419 o
-2 3 1 223.390 223.182 6.749 65.672 o
-2 3 2 1303.220 1238.650 25.664 3.212 o
-2 3 3 1.926 6.590 3.012 760.822 o
-2 3 4 1527.670 1423.440 31.198 2.322 o
-2 3 5 237.669 243.861 8.630 48.974 o
-2 3 6 562.688 572.305 16.273 11.967 o
-2 3 7 63.898 63.924 6.917 125.435 o
-2 3 8 415.315 438.220 23.164 9.764 o
-2 3 9 455.837 449.284 28.438 6.932 o
-2 3 10 35.159 31.003 6.398 159.214 o
-2 3 11 134.723 152.361 13.988 31.699 o
-2 3 12 106.056 95.814 14.521 31.174 o
-2 4 1 246.968 251.793 8.274 49.463 o
-2 4 2 149.465 154.221 6.807 89.921 o
-2 4 3 688.620 697.985 18.122 8.803 o
-2 4 4 203.031 215.626 8.781 53.766 o
-2 4 5 803.277 807.352 21.221 6.537 o
-2 4 6 152.055 150.730 7.266 82.952 o
-2 4 7 19.197 15.212 4.991 267.120 o
-2 4 8 502.608 488.812 15.891 13.874 o
-2 4 9 148.075 153.614 8.876 64.048 o
-2 4 10 487.845 526.159 51.827 2.418 o
-2 4 11 0.789 4.095 8.213 105.535 o
-2 4 12 112.330 138.111 75.811 1.236 o
-2 5 1 286.359 288.221 10.209 35.416 o
-2 5 2 396.823 399.769 12.533 21.564 o
-2 5 3 53.431 63.684 5.612 182.080 o
-2 5 4 477.275 476.661 16.456 13.916 o
-2 5 5 663.197 684.910 20.055 8.327 o
-2 5 6 5.377 5.893 4.892 292.055 o
-2 5 7 701.283 740.834 27.639 5.591 o
-2 5 8 13.134 16.139 6.165 181.170 o
-2 5 9 162.585 187.584 14.599 28.146 o
-2 5 10 13.781 27.119 9.738 73.803 o
-2 5 11 116.297 166.492 36.759 5.177 o
-2 6 1 188.046 177.586 8.739 58.395 o
-2 6 2 484.481 488.532 15.957 14.136 o
-2 6 3 2.176 3.080 4.914 292.809 o
-2 6 4 296.873 280.313 10.887 32.671 o
-2 6 5 0.005 1.007 4.997 285.425 o
-2 6 6 318.020 325.653 13.552 23.640 o
-2 6 7 5.741 -4.357 9.000 87.716 o
-2 6 8 240.497 251.870 24.182 10.839 o
-2 6 9 66.328 46.487 16.864 24.384 o
-2 7 1 127.498 130.570 8.604 71.669 o
-2 7 2 2.275 4.073 5.702 217.785 o
-2 7 3 283.717 285.690 12.323 28.820 o
-2 7 4 9.228 3.304 5.602 222.651 o
-2 7 5 228.081 230.435 13.644 28.320 o
-2 7 6 64.006 66.799 10.780 56.875 o
-1 -8 1 270.371 262.434 17.762 17.765 o
-1 -8 2 1.298 8.604 7.861 114.843 o
-1 -8 3 219.437 212.371 16.788 20.865 o
-1 -8 4 11.598 10.714 6.667 156.738 o
-1 -8 5 155.130 146.729 11.091 45.599 o
-1 -7 1 189.678 172.538 10.955 43.093 o
-1 -7 2 138.189 137.148 8.119 75.557 o
-1 -7 3 58.192 59.180 6.364 147.129 o
-1 -7 4 184.799 184.792 10.717 44.382 o
-1 -7 5 17.983 27.191 6.253 172.839 o
-1 -7 6 229.047 216.531 11.386 36.875 o
-1 -7 7 327.503 282.925 15.042 21.029 o
-1 -6 1 892.198 899.282 22.571 5.516 o
-1 -6 2 440.869 461.487 14.133 17.187 o
-1 -6 3 259.791 253.875 9.889 39.972 o
-1 -6 4 121.591 128.862 7.149 94.816 o
-1 -6 5 65.509 62.276 6.310 145.728 o
-1 -6 6 669.823 663.217 20.839 8.059 o
-1 -6 7 13.183 12.890 5.605 218.365 o
-1 -6 8 138.141 126.079 10.196 54.354 o
-1 -6 9 0.315 10.908 7.197 136.873 o
-1 -5 1 490.346 498.479 11.916 17.883 o
-1 -5 2 125.424 131.141 5.455 129.918 o
-1 -5 3 945.468 977.144 22.723 5.074 o
-1 -5 4 23.096 20.896 3.668 451.654 o
-1 -5 5 450.255 465.262 13.247 17.948 o
-1 -5 6 0.594 -0.774 4.014 441.930 o
-1 -5 7 462.077 468.129 16.305 14.390 o
-1 -5 8 34.696 37.214 6.715 144.946 o
-1 -5 9 164.939 167.121 10.799 46.039 o
-1 -5 10 123.827 108.652 9.322 65.181 o
-1 -5 11 57.810 37.973 10.120 65.406 o
-1 -4 1 435.773 449.545 7.531 26.854 o
-1 -4 2 1153.290 1150.930 17.883 4.479 o
-1 -4 3 20.530 20.523 2.280 975.300 o
-1 -4 4 1288.730 1269.130 24.948 3.264 o
-1 -4 5 489.800 495.625 12.527 17.291 o
-1 -4 6 800.962 823.323 20.123 6.783 o
-1 -4 7 150.096 148.682 7.565 79.497 o
-1 -4 8 24.537 24.812 4.973 260.828 o
-1 -4 9 296.324 281.099 17.207 18.024 o
-1 -4 10 56.015 55.454 7.129 122.338 o
-1 -4 11 210.200 199.175 11.429 38.382 o
-1 -4 12 24.330 19.837 7.798 112.884 o
-1 -3 1 1175.500 1076.730 13.983 4.929 o
-1 -3 2 1683.010 1694.650 20.840 2.305 o
-1 -3 3 1557.250 1533.000 20.042 2.686 o
-1 -3 4 504.204 489.467 7.958 21.866 o
-1 -3 5 630.475 642.617 14.449 11.528 o
-1 -3 6 540.745 561.154 16.438 12.260 o
-1 -3 7 32.440 35.816 4.556 290.031 o
-1 -3 8 593.079 619.890 19.273 9.600 o
-1 -3 9 254.076 257.134 11.780 32.729 o
-1 -3 10 447.045 486.571 19.299 11.913 o
-1 -3 11 0.786 1.677 6.057 193.997 o
-1 -3 12 231.249 235.343 13.267 29.286 o
-1 -3 13 171.893 169.031 15.231 26.197 o
-1 -2 1 1266.810 1197.480 15.775 4.141 o
-1 -2 2 787.101 789.705 10.710 9.760 o
-1 -2 3 687.086 661.214 9.885 12.682 o
-1 -2 4 375.031 370.603 7.651 33.383 o
-1 -2 5 1823.130 1834.920 32.031 1.726 o
-1 -2 6 34.287 25.921 3.029 560.703 o
-1 -2 7 1491.170 1446.000 38.578 2.015 o
-1 -2 8 45.678 59.051 5.204 212.587 o
-1 -2 9 352.203 341.024 14.257 20.966 o
-1 -2 10 64.210 53.286 7.917 100.392 o
-1 -2 11 324.204 323.837 17.290 17.013 o
-1 -2 12 222.639 219.159 14.465 26.286 o
-1 -2 13 31.364 48.750 9.231 79.640 o
-1 -1 1 4404.210 4261.960 49.945 0.363 o
-1 -1 2 11593.500 10706.500 168.946 0.050 o
-1 -1 3 632.696 659.431 13.950 11.633 o
-1 -1 4 892.835 896.963 16.891 6.676 o
-1 -1 5 48.734 45.479 1.980 715.169 o
-1 -1 6 1000.030 1020.740 26.651 4.215 o
-1 -1 7 186.433 177.823 7.912 66.062 o
-1 -1 8 949.392 916.221 23.523 5.053 o
-1 -1 9 235.144 259.868 16.369 20.923 o
-1 -1 10 100.113 98.195 7.100 105.523 o
-1 -1 11 368.514 360.790 27.460 7.896 o
-1 -1 12 131.034 124.824 14.733 29.396 o
-1 -1 13 318.711 338.346 21.667 12.079 o
-1 -1 14 10.007 25.413 23.686 12.684 o
-1 0 1 6190.780 5622.150 70.276 0.191 o
-1 0 2 1384.710 1392.230 19.814 3.224 o
-1 0 3 2072.350 2012.510 27.807 1.526 o
-1 0 4 107.199 97.634 3.252 246.160 o
-1 0 5 483.635 450.788 8.315 23.243 o
-1 0 6 263.160 282.933 7.092 51.854 o
-1 0 7 1573.990 1632.640 47.305 1.544 o
-1 0 8 1416.060 1413.250 43.601 1.881 o
-1 0 9 27.545 26.697 4.259 337.903 o
-1 0 10 794.334 790.083 39.149 3.309 o
-1 0 11 20.856 21.522 5.715 204.739 o
-1 0 12 213.527 209.018 12.801 32.192 o
-1 0 13 10.691 12.017 8.751 91.908 o
-1 0 14 122.061 116.407 14.183 31.833 o
-1 1 1 158.597 172.280 3.292 147.866 o
-1 1 2 2804.370 2778.930 39.437 0.819 o
-1 1 3 869.355 880.181 13.740 7.613 o
-1 1 4 663.157 648.323 10.730 12.870 o
-1 1 5 3780.200 3881.360 66.537 0.405 o
-1 1 6 195.124 216.985 5.191 88.757 o
-1 1 7 714.668 740.704 21.794 7.139 o
-1 1 8 9.414 11.521 3.365 581.509 o
-1 1 9 683.265 664.201 30.300 5.167 o
-1 1 10 7.735 10.191 5.016 274.949 o
-1 1 11 501.253 494.483 29.792 6.203 o
-1 1 12 107.816 103.753 10.044 59.483 o
-1 1 13 190.365 202.088 14.875 26.314 o
-1 1 14 41.404 50.205 10.902 57.380 o
-1 2 1 261.397 264.605 4.597 68.358 o
-1 2 2 2690.610 2644.110 33.909 0.926 o
-1 2 3 5.015 5.416 1.099 4278.510 o
-1 2 4 1060.600 1062.180 14.428 5.511 o
-1 2 5 137.889 158.982 3.464 166.352 o
-1 2 6 1512.560 1541.060 27.925 2.411 o
-1 2 7 2.675 4.136 2.809 873.603 o
-1 2 8 905.321 928.118 30.753 4.052 o
-1 2 9 212.183 224.279 11.018 39.396 o
-1 2 10 539.446 560.081 23.238 8.389 o
-1 2 11 303.152 322.311 27.470 8.243 o
-1 2 12 154.909 182.953 15.989 24.314 o
-1 2 13 167.865 153.975 13.258 33.466 o
-1 2 14 27.914 41.943 12.140 47.222 o
-1 3 1 1499.040 1501.930 19.506 2.855 o
-1 3 2 224.842 261.592 5.447 71.676 o
-1 3 3 1157.730 1121.910 15.709 4.739 o
-1 3 4 82.382 86.121 2.713 345.451 o
-1 3 5 2413.440 2514.600 40.022 1.004 o
-1 3 6 91.101 97.737 4.487 199.501 o
-1 3 7 603.132 645.158 20.569 8.782 o
-1 3 8 1786.630 1828.970 66.795 0.953 o
-1 3 9 66.572 56.843 5.674 173.490 o
-1 3 10 56.878 47.282 9.159 78.412 o
-1 3 11 287.971 302.663 29.092 7.534 o
-1 3 12 309.961 315.985 22.586 11.457 o
-1 3 13 0.178 -7.967 9.082 86.490 o
-1 4 1 112.128 108.390 3.905 200.742 o
-1 4 2 2560.610 2463.310 44.135 0.913 o
-1 4 3 390.286 397.015 9.865 26.723 o
-1 4 4 226.199 227.663 7.549 58.627 o
-1 4 5 274.358 261.661 8.560 44.376 o
-1 4 6 297.453 281.160 9.394 37.851 o
-1 4 7 1178.860 1255.840 30.527 3.078 o
-1 4 8 240.615 253.355 13.856 26.841 o
-1 4 9 185.264 200.782 16.766 21.663 o
-1 4 10 11.602 7.984 7.101 138.825 o
-1 4 11 444.996 426.536 49.082 2.727 o
-1 4 12 13.921 9.015 9.655 75.581 o
-1 4 13 428.463 289.883 45.465 3.201 o
-1 5 1 386.301 399.607 11.735 23.318 o
-1 5 2 170.373 170.505 7.376 75.437 o
-1 5 3 536.795 518.532 13.811 14.710 o
-1 5 4 884.722 867.370 22.143 5.715 o
-1 5 5 58.133 64.355 5.847 167.864 o
-1 5 6 565.055 562.795 17.545 11.192 o
-1 5 7 69.094 68.313 7.776 101.196 o
-1 5 8 694.510 715.873 38.166 3.656 o
-1 5 9 70.420 73.975 9.295 73.541 o
-1 5 10 270.432 256.294 27.647 8.400 o
-1 5 11 67.789 64.219 15.708 27.837 o
-1 5 12 180.172 200.890 100.707 0.700 o
-1 6 1 243.877 243.605 10.006 41.145 o
-1 6 2 245.019 214.255 9.050 47.373 o
-1 6 3 986.692 958.047 24.448 4.677 o
-1 6 4 2.942 0.334 4.294 383.272 o
-1 6 5 567.456 574.711 17.648 11.025 o
-1 6 6 50.013 50.189 7.591 111.323 o
-1 6 7 262.769 276.925 17.995 17.409 o
-1 6 8 34.323 50.982 9.496 75.127 o
-1 6 9 151.116 177.498 27.382 9.078 o
-1 6 10 126.842 107.707 15.686 26.513 o
-1 7 1 0.367 -2.131 4.927 293.708 o
-1 7 2 261.219 247.518 11.292 34.369 o
-1 7 3 0.504 -1.048 5.654 222.962 o
-1 7 4 187.333 188.798 13.166 32.359 o
-1 7 5 87.424 79.128 9.152 73.337 o
-1 7 6 376.735 384.703 22.492 10.722 o
-1 7 7 163.820 161.609 15.070 26.977 o
-1 7 8 55.002 63.445 11.586 50.213 o
-1 7 9 127.869 121.857 36.579 5.236 o
-1 8 1 128.484 121.625 9.183 65.375 o
-1 8 2 79.271 65.963 11.742 47.828 o
-1 8 3 183.727 220.016 15.702 24.014 o
-1 8 4 214.775 223.210 16.136 22.246 o
-1 8 5 123.190 123.405 15.386 27.374 o
0 -8 1 10.147 10.701 6.827 149.957 o
0 -8 2 291.655 292.304 14.240 23.552 o
0 -8 3 3.768 7.659 6.402 172.205 o
0 -8 4 208.108 203.251 15.597 23.902 o
0 -7 1 558.269 571.999 18.676 10.540 o
0 -7 2 30.416 28.712 5.204 234.683 o
0 -7 3 249.113 251.897 11.632 33.678 o
0 -7 4 50.356 47.970 6.142 161.774 o
0 -7 5 36.933 42.175 7.012 132.668 o
0 -7 6 166.267 171.032 11.646 40.812 o
0 -7 7 67.789 62.285 8.017 96.777 o
0 -6 1 39.471 43.567 4.510 282.216 o
0 -6 2 108.704 105.092 6.453 116.969 o
0 -6 3 140.008 141.375 7.442 84.166 o
0 -6 4 400.669 419.568 13.718 19.321 o
0 -6 5 1051.610 1045.390 29.503 3.689 o
0 -6 6 10.539 12.451 5.220 252.090 o
0 -6 7 130.877 128.152 8.520 72.384 o
0 -6 8 0.047 1.885 5.806 211.313 o
0 -6 9 103.285 101.594 8.342 81.404 o
0 -5 1 193.119 188.827 6.607 77.180 o
0 -5 2 577.048 571.986 13.900 13.337 o
0 -5 3 13.300 9.768 3.028 690.848 o
0 -5 4 1023.560 1096.950 25.363 4.187 o
0 -5 5 92.403 89.841 6.927 112.954 o
0 -5 6 432.592 446.376 14.754 16.831 o
0 -5 7 2.421 0.621 4.804 307.117 o
0 -5 8 77.327 65.982 6.942 120.487 o
0 -5 9 81.625 80.349 7.386 106.040 o
0 -5 10 279.834 264.126 13.778 25.494 o
0 -5 11 183.514 167.975 12.206 37.111 o
0 -4 1 1359.050 1377.200 18.221 3.403 o
0 -4 2 435.985 439.252 7.966 26.465 o
0 -4 3 1193.090 1226.140 21.329 3.878 o
0 -4 4 4.175 4.853 2.259 1298.710 o
0 -4 5 850.721 854.267 19.716 6.467 o
0 -4 6 191.007 196.497 8.661 57.408 o
0 -4 7 177.304 171.961 8.270 64.531 o
0 -4 8 889.745 883.270 24.714 5.158 o
0 -4 9 174.210 178.904 10.152 49.094 o
0 -4 10 119.406 117.698 8.828 70.978 o
0 -4 11 2.965 -0.675 6.689 158.865 o
0 -4 12 104.868 102.250 10.252 57.774 o
0 -3 1 108.976 117.051 2.521 265.508 o
0 -3 2 2885.650 2829.350 35.248 0.815 o
0 -3 3 1166.110 1113.610 15.255 4.764 o
0 -3 4 325.085 319.514 5.903 46.110 o
0 -3 5 1288.770 1298.910 24.480 3.263 o
0 -3 6 53.701 55.412 3.692 342.224 o
0 -3 7 507.956 481.363 13.859 15.686 o
0 -3 8 131.729 131.643 7.751 82.381 o
0 -3 9 384.426 381.497 14.310 19.418 o
0 -3 10 3.828 11.904 5.328 246.209 o
0 -3 11 397.431 374.673 17.745 14.789 o
0 -3 12 43.395 43.463 7.658 111.485 o
0 -3 13 156.090 143.557 13.221 34.283 o
0 -2 1 422.329 418.240 5.877 31.418 o
0 -2 2 1474.190 1423.090 18.236 3.056 o
0 -2 3 869.485 848.190 11.045 8.362 o
0 -2 4 2116.550 2032.260 26.436 1.507 o
0 -2 5 2.722 6.526 1.220 3877.210 o
0 -2 6 610.188 574.282 11.536 14.255 o
0 -2 7 46.645 44.288 4.076 319.009 o
0 -2 8 1454.040 1413.940 42.706 1.886 o
0 -2 9 59.340 51.826 5.653 179.981 o
0 -2 10 514.087 512.863 18.129 11.779 o
0 -2 11 592.228 584.408 33.316 4.862 o
0 -2 12 32.271 18.610 6.448 159.958 o
0 -2 13 18.990 22.949 8.334 99.740 o
0 -2 14 129.408 161.244 29.517 7.923 o
0 -1 1 5209.500 4706.600 56.803 0.273 o
0 -1 2 193.092 193.287 3.054 121.456 o
0 -1 3 4056.540 3753.420 46.371 0.437 o
0 -1 4 31.779 34.158 1.229 1367.840 o
0 -1 5 2485.320 2288.280 30.421 1.131 o
0 -1 6 1003.820 1032.030 16.101 5.691 o
0 -1 7 655.426 669.091 18.119 9.269 o
0 -1 8 194.125 180.353 7.321 70.313 o
0 -1 9 428.158 403.633 19.782 12.237 o
0 -1 10 642.596 621.356 23.768 7.309 o
0 -1 11 141.549 130.298 7.865 78.960 o
0 -1 12 116.914 125.511 15.212 28.062 o
0 -1 13 21.865 32.118 9.137 82.769 o
0 -1 14 265.874 251.387 17.877 17.746 o
0 0 1 542.507 557.044 13.744 14.257 o
0 0 2 107.986 112.743 1.961 300.110 o
0 0 3 326.788 333.227 5.229 47.245 o
0 0 4 485.515 466.275 7.330 23.982 o
0 0 5 853.286 891.422 13.980 7.651 o
0 0 6 2634.500 2810.360 49.896 0.781 o
0 0 7 893.022 931.571 18.960 6.138 o
0 0 8 124.487 127.534 4.961 144.986 o
0 0 9 694.757 695.711 23.780 6.782 o
0 0 10 75.292 68.365 5.732 163.036 o
0 0 11 803.409 822.777 54.765 1.956 o
0 0 12 34.394 29.175 7.107 131.588 o
0 0 13 308.955 295.689 27.108 8.466 o
0 0 14 16.509 25.777 11.090 57.083 o
0 1 0 204.982 206.484 2.921 112.634 o
0 1 1 379.604 398.387 5.261 37.124 o
0 1 2 2256.270 2156.580 23.755 1.392 o
0 1 3 1533.450 1493.180 16.879 2.902 o
0 1 4 880.871 875.161 10.637 8.188 o
0 1 5 2019.100 2096.420 24.947 1.587 o
0 1 6 3048.640 3076.180 49.519 0.650 o
0 1 7 1.410 4.970 1.628 2480.950 o
0 1 8 1286.700 1232.960 39.662 2.298 o
0 1 9 99.299 93.626 6.420 123.276 o
0 1 10 570.877 584.237 35.778 4.400 o
0 1 11 35.827 31.411 6.498 154.485 o
0 1 12 337.040 379.395 38.554 4.390 o
0 1 13 48.610 61.190 10.612 59.676 o
0 1 14 213.579 224.755 26.007 9.687 o
0 2 0 2757.710 2618.590 31.687 0.922 o
0 2 1 1894.720 1844.540 22.396 1.887 o
0 2 2 282.125 284.468 4.191 63.472 o
0 2 3 6326.010 5878.540 67.747 0.184 o
0 2 4 0.959 3.604 0.841 8225.730 o
0 2 5 1151.450 1221.090 14.918 4.623 o
0 2 6 12.816 15.713 1.374 2211.900 o
0 2 7 631.216 676.811 14.340 11.321 o
0 2 8 316.560 330.532 9.914 32.899 o
0 2 9 1615.980 1634.650 91.346 0.660 o
0 2 10 235.852 227.861 20.743 14.322 o
0 2 11 213.419 246.059 24.955 10.397 o
0 2 12 155.747 175.684 13.238 33.597 o
0 2 13 107.287 99.031 20.152 16.803 o
0 2 14 480.214 410.265 37.278 4.423 o
0 3 0 2573.320 2509.460 30.767 1.030 o
0 3 1 219.376 251.981 4.054 86.067 o
0 3 2 1386.550 1358.100 17.251 3.410 o
0 3 3 539.319 606.965 8.058 18.202 o
0 3 4 1618.890 1625.520 19.520 2.509 o
0 3 5 323.854 339.708 5.480 46.380 o
0 3 6 1333.350 1320.030 20.625 3.396 o
0 3 7 1112.750 1160.910 23.993 3.966 o
0 3 8 981.550 1015.450 35.500 3.219 o
0 3 9 256.214 261.266 15.249 22.774 o
0 3 10 26.757 26.560 6.164 174.492 o
0 3 11 620.034 657.831 49.307 2.513 o
0 3 12 5.625 9.919 8.785 91.692 o
0 3 13 374.654 330.518 45.776 3.184 o
0 3 14 19.175 12.901 10.439 64.468 o
0 4 0 173.069 189.219 3.972 120.702 o
0 4 1 1044.320 1018.230 14.024 5.784 o
0 4 2 24.939 20.067 1.541 1475.550 o
0 4 3 1591.260 1562.580 20.499 2.578 o
0 4 4 792.457 819.634 12.339 9.046 o
0 4 5 1099.850 1115.930 18.978 4.649 o
0 4 6 2037.450 1994.660 34.090 1.440 o
0 4 7 8.822 9.410 3.536 534.903 o
0 4 8 88.496 104.456 6.342 127.463 o
0 4 9 178.124 181.571 11.079 42.875 o
0 4 10 920.019 873.991 63.307 1.484 o
0 4 11 0.080 2.225 7.076 142.313 o
0 4 12 579.870 547.097 91.636 0.817 o
0 4 13 67.090 46.002 15.245 29.642 o
0 5 0 1285.230 1282.660 26.746 3.124 o
0 5 1 899.649 892.525 19.721 6.059 o
0 5 2 162.698 161.590 6.054 96.745 o
0 5 3 485.489 485.836 11.758 18.383 o
0 5 4 272.449 270.065 7.788 47.880 o
0 5 5 871.648 898.397 22.737 5.584 o
0 5 6 53.652 54.380 5.075 216.825 o
0 5 7 774.885 793.155 26.444 5.466 o
0 5 8 1.097 7.983 6.144 187.541 o
0 5 9 555.939 626.534 27.694 6.409 o
0 5 10 98.107 85.408 11.425 48.774 o
0 5 11 578.365 626.749 39.882 3.652 o
0 5 12 146.714 107.610 14.152 31.371 o
0 6 0 416.327 429.736 12.945 19.820 o
0 6 1 645.858 656.049 17.150 9.879 o
0 6 2 961.516 970.362 22.775 5.012 o
0 6 3 4.217 4.305 3.375 606.407 o
0 6 4 473.103 499.437 15.858 14.331 o
0 6 5 17.507 19.665 5.036 262.337 o
0 6 6 976.869 965.410 27.199 4.298 o
0 6 7 120.675 112.944 10.160 56.810 o
0 6 8 254.457 278.453 15.396 22.278 o
0 6 9 173.176 204.381 17.756 19.782 o
0 6 10 195.230 191.215 18.483 18.233 o
0 6 11 92.921 64.878 16.725 24.352 o
0 7 0 231.751 224.422 10.582 40.087 o
0 7 1 334.673 316.210 12.586 25.319 o
0 7 2 133.811 115.920 11.019 48.621 o
0 7 3 534.059 602.975 22.782 8.486 o
0 7 4 172.281 167.096 10.750 45.800 o
0 7 5 324.289 293.829 16.005 19.276 o
0 7 6 37.120 41.944 9.279 78.660 o
0 7 7 99.637 78.297 12.765 40.001 o
0 7 8 201.157 193.063 14.924 25.999 o
0 7 9 202.199 190.174 22.385 12.910 o
0 7 10 389.919 254.948 47.593 2.973 o
0 8 0 102.011 86.828 9.934 61.922 o
0 8 1 66.656 57.584 10.242 62.647 o
0 8 2 253.072 254.192 16.595 20.170 o
0 8 3 64.421 76.393 10.829 56.081 o
0 8 4 230.266 225.955 18.570 17.377 o
0 8 5 275.247 282.732 17.970 17.203 o
0 8 6 19.856 25.892 9.123 83.436 o
0 8 7 161.905 136.124 27.806 8.842 o
1 -8 0 47.802 38.090 6.625 144.337 o
1 -8 1 209.153 179.027 11.114 40.651 o
1 -8 2 45.244 37.031 7.664 111.588 o
1 -8 3 157.625 165.867 12.232 38.359 o
1 -7 0 714.588 676.873 20.771 7.696 o
1 -7 1 3.673 3.889 4.940 288.516 o
1 -7 2 138.857 142.074 8.547 69.776 o
1 -7 3 207.964 203.458 10.786 41.582 o
1 -7 4 74.444 86.622 7.794 97.911 o
1 -7 5 109.215 115.954 9.636 62.965 o
1 -7 6 102.458 107.528 8.987 71.920 o
1 -7 7 111.381 127.080 30.692 7.402 o
1 -6 0 168.702 161.460 8.188 67.543 o
1 -6 1 252.660 254.239 10.254 38.911 o
1 -6 2 194.282 208.887 8.848 54.764 o
1 -6 3 103.447 111.689 7.074 103.349 o
1 -6 4 358.767 365.720 13.574 21.603 o
1 -6 5 32.208 32.103 6.291 165.089 o
1 -6 6 325.671 323.204 13.500 23.531 o
1 -6 7 9.527 9.559 5.865 202.175 o
1 -6 8 141.378 143.270 12.100 40.468 o
1 -6 9 74.292 79.141 8.591 83.605 o
1 -5 0 182.527 192.731 8.109 63.628 o
1 -5 1 218.361 225.230 8.856 50.871 o
1 -5 2 304.812 309.148 10.748 31.777 o
1 -5 3 2487.140 2444.180 50.030 0.878 o
1 -5 4 73.094 75.193 5.269 183.655 o
1 -5 5 144.997 144.999 7.325 84.371 o
1 -5 6 26.529 34.535 5.438 217.504 o
1 -5 7 115.081 121.859 7.843 85.287 o
1 -5 8 130.552 134.653 8.414 73.252 o
1 -5 9 428.588 418.612 15.224 16.674 o
1 -5 10 45.298 44.874 6.835 136.270 o
1 -5 11 8.359 7.043 8.410 99.854 o
1 -4 0 1171.730 1174.980 23.072 3.859 o
1 -4 1 31.721 36.901 2.939 572.218 o
1 -4 2 1060.740 1036.130 20.893 4.737 o
1 -4 3 99.452 98.935 4.690 182.269 o
1 -4 4 386.410 379.383 11.080 24.956 o
1 -4 5 279.978 287.862 9.834 37.281 o
1 -4 6 397.768 407.960 13.619 19.713 o
1 -4 7 177.443 172.326 8.535 61.990 o
1 -4 8 389.051 397.620 14.501 18.803 o
1 -4 9 368.689 361.933 14.104 20.453 o
1 -4 10 3.582 -4.649 5.700 218.248 o
1 -4 11 253.137 250.519 17.156 19.177 o
1 -4 12 0.111 -1.866 13.001 42.209 o
1 -3 0 571.697 583.577 8.419 17.277 o
1 -3 1 1002.690 958.978 13.421 6.326 o
1 -3 2 243.072 228.733 4.407 79.358 o
1 -3 3 1331.390 1322.370 17.952 3.574 o
1 -3 4 863.134 905.396 16.653 6.909 o
1 -3 5 440.991 432.780 10.108 23.065 o
1 -3 6 1226.250 1251.290 27.991 3.190 o
1 -3 7 1.436 2.783 3.389 612.596 o
1 -3 8 467.933 465.838 16.721 13.924 o
1 -3 9 3.784 4.749 4.745 311.927 o
1 -3 10 259.887 234.585 12.215 31.501 o
1 -3 11 20.146 18.488 6.247 173.892 o
1 -3 12 315.570 307.555 19.397 14.578 o
1 -3 13 44.114 15.754 20.010 17.643 o
1 -2 0 1549.840 1529.180 20.105 2.701 o
1 -2 1 4641.560 4508.360 56.276 0.321 o
1 -2 2 486.421 505.079 7.117 23.223 o
1 -2 3 2074.520 2037.800 24.160 1.578 o
1 -2 4 3.250 6.273 0.990 5258.550 o
1 -2 5 411.435 366.124 6.314 33.573 o
1 -2 6 46.535 38.276 3.038 487.232 o
1 -2 7 1420.860 1385.390 30.374 2.549 o
1 -2 8 21.912 19.733 3.349 532.060 o
1 -2 9 672.625 681.164 24.315 6.781 o
1 -2 10 306.731 299.311 11.121 30.831 o
1 -2 11 287.265 284.487 25.530 9.531 o
1 -2 12 92.519 93.674 11.228 50.393 o
1 -2 13 20.859 18.120 8.908 87.653 o
1 -2 14 160.050 162.443 39.578 4.451 o
1 -1 0 5152.110 5017.140 60.754 0.262 o
1 -1 1 3980.420 3945.610 49.921 0.426 o
1 -1 2 1385.900 1295.810 16.522 3.541 o
1 -1 3 311.288 343.108 4.740 50.426 o
1 -1 4 1104.560 1045.310 13.952 5.373 o
1 -1 5 112.598 110.602 2.495 266.035 o
1 -1 6 2921.590 2877.530 37.384 0.782 o
1 -1 7 230.856 209.410 5.254 78.502 o
1 -1 8 704.410 691.447 16.418 9.355 o
1 -1 9 1255.590 1238.100 38.044 2.431 o
1 -1 10 4.408 5.709 4.673 320.382 o
1 -1 11 79.070 80.531 7.462 104.874 o
1 -1 12 147.644 137.773 9.988 54.696 o
1 -1 13 419.519 401.233 26.187 8.182 o
1 -1 14 8.738 11.240 8.766 91.778 o
1 0 0 42.257 45.010 1.018 1122.980 o
1 0 1 1022.720 1022.290 11.768 6.201 o
1 0 2 1365.880 1326.980 14.577 3.665 o
1 0 3 5571.240 5073.350 56.405 0.242 o
1 0 4 1968.590 1864.720 20.781 1.827 o
1 0 5 570.562 557.139 7.213 18.597 o
1 0 6 364.816 368.785 5.805 38.900 o
1 0 7 327.058 315.953 6.675 43.364 o
1 0 8 1037.250 1019.540 37.260 2.952 o
1 0 9 92.753 95.041 7.608 96.996 o
1 0 10 793.123 813.230 38.139 3.416 o
1 0 11 13.437 10.480 5.817 203.679 o
1 0 12 514.619 527.569 24.173 8.233 o
1 0 13 22.863 25.319 8.093 104.921 o
1 0 14 245.536 268.192 17.121 19.216 o
1 1 0 355.059 340.143 4.506 45.020 o
1 1 1 639.261 624.244 7.334 15.390 o
1 1 2 297.560 287.105 4.014 60.667 o
1 1 3 853.121 847.684 10.204 8.726 o
1 1 4 3473.150 3391.670 37.765 0.584 o
1 1 5 2827.360 2828.700 30.197 0.867 o
1 1 6 56.863 57.563 1.571 699.411 o
1 1 7 1027.510 1003.410 22.689 4.691 o
1 1 8 29.475 26.906 3.149 545.886 o
1 1 9 2004.580 2131.650 72.479 0.781 o
1 1 10 46.316 40.708 5.592 193.938 o
1 1 11 300.607 306.718 43.582 3.557 o
1 1 12 119.635 126.532 11.556 45.428 o
1 1 13 135.203 123.415 13.377 34.750 o
1 1 14 163.160 150.890 16.209 23.892 o
1 2 0 1891.580 1789.600 20.502 1.965 o
1 2 1 914.590 871.652 10.375 7.917 o
1 2 2 2735.870 2626.410 29.508 0.945 o
1 2 3 1688.200 1719.500 19.529 2.318 o
1 2 4 2433.680 2426.770 26.440 1.163 o
1 2 5 395.367 417.429 5.595 34.137 o
1 2 6 1979.670 1886.550 23.833 1.743 o
1 2 7 527.776 506.124 12.721 16.004 o
1 2 8 1062.390 1079.000 31.000 3.462 o
1 2 9 7.012 5.568 3.911 449.023 o
1 2 10 158.075 174.386 10.509 48.212 o
1 2 11 425.885 460.941 33.595 5.344 o
1 2 12 415.384 333.120 43.926 3.405 o
1 2 13 612.832 606.809 61.183 1.730 o
1 2 14 38.944 45.387 12.252 46.003 o
1 3 0 14.647 12.675 0.848 3428.850 o
1 3 1 3729.170 3499.010 39.025 0.523 o
1 3 2 239.095 241.692 3.767 83.427 o
1 3 3 914.796 922.383 10.933 7.574 o
1 3 4 149.609 165.541 2.864 167.489 o
1 3 5 1455.240 1462.210 18.874 3.024 o
1 3 6 196.999 190.649 4.900 96.206 o
1 3 7 1412.830 1375.370 33.885 2.377 o
1 3 8 878.102 886.406 24.320 5.274 o
1 3 9 82.195 100.802 7.051 111.245 o
1 3 10 686.220 764.428 46.360 2.684 o
1 3 11 163.356 163.264 16.623 22.739 o
1 3 12 641.404 664.232 54.636 2.091 o
1 3 13 2.391 -2.549 9.271 82.889 o
1 3 14 232.459 200.343 42.411 3.834 o
1 4 0 687.814 651.081 9.766 12.819 o
1 4 1 65.254 68.444 2.140 505.923 o
1 4 2 2160.110 2145.460 28.011 1.405 o
1 4 3 667.074 677.243 10.118 12.808 o
1 4 4 1314.050 1297.110 20.312 3.500 o
1 4 5 1477.490 1485.060 26.601 2.574 o
1 4 6 160.592 176.703 7.911 70.606 o
1 4 7 732.861 740.382 20.284 7.492 o
1 4 8 74.007 71.573 5.859 157.561 o
1 4 9 840.202 876.516 36.443 3.492 o
1 4 10 10.156 16.791 6.264 176.484 o
1 4 11 550.428 576.173 40.766 3.593 o
1 4 12 2.013 7.580 8.759 92.582 o
1 4 13 308.212 289.428 28.840 7.606 o
1 5 0 599.321 611.393 12.006 13.788 o
1 5 1 1210.200 1214.580 23.988 3.608 o
1 5 2 520.574 538.399 12.513 15.977 o
1 5 3 485.365 523.398 14.978 14.678 o
1 5 4 1816.610 1804.120 40.342 1.522 o
1 5 5 163.983 157.047 7.466 77.053 o
1 5 6 316.843 322.542 12.114 27.055 o
1 5 7 214.664 215.405 9.673 46.729 o
1 5 8 973.626 1027.340 42.940 2.550 o
1 5 9 45.702 33.883 5.962 175.567 o
1 5 10 820.090 938.707 33.673 3.835 o
1 5 11 241.145 276.308 23.806 11.066 o
1 5 12 61.001 56.614 11.617 49.843 o
1 6 0 299.095 326.325 10.166 33.411 o
1 6 1 135.916 114.491 7.337 89.817 o
1 6 2 4.075 4.786 4.247 387.296 o
1 6 3 1042.290 1059.180 32.904 3.329 o
1 6 4 12.505 19.710 5.189 251.384 o
1 6 5 1151.320 1219.150 40.295 2.425 o
1 6 6 26.016 28.112 5.604 207.982 o
1 6 7 322.035 357.820 20.976 12.583 o
1 6 8 287.667 295.654 13.768 24.706 o
1 6 9 429.036 420.957 22.322 10.261 o
1 6 10 323.421 345.987 21.428 12.214 o
1 6 11 47.522 55.528 11.780 49.116 o
1 6 12 188.141 99.691 33.967 5.998 o
1 7 0 666.580 674.217 22.979 7.273 o
1 7 1 94.785 99.445 9.047 72.629 o
1 7 2 663.550 679.628 24.658 6.727 o
1 7 3 19.130 18.830 6.869 145.280 o
1 7 4 436.678 483.661 20.397 11.227 o
1 7 5 215.449 235.249 12.466 32.745 o
1 7 6 170.011 191.097 12.564 35.563 o
1 7 7 265.363 268.425 15.834 21.227 o
1 7 8 119.105 139.351 15.901 25.707 o
1 7 9 244.908 268.567 19.104 16.107 o
1 7 10 70.280 80.982 20.974 15.821 o
1 8 0 82.800 86.639 10.702 55.774 o
1 8 1 250.028 221.731 15.778 22.255 o
1 8 2 175.466 189.953 14.647 27.589 o
1 8 3 179.922 188.259 14.914 26.675 o
1 8 4 90.785 87.919 10.327 58.770 o
1 8 5 50.977 49.972 9.614 72.070 o
1 8 6 194.705 207.257 13.926 29.025 o
1 8 7 68.326 82.474 11.742 47.950 o
1 8 8 675.770 694.862 55.975 1.980 o
2 -7 0 0.634 5.110 5.526 232.263 o
2 -7 1 237.695 232.128 10.927 37.822 o
2 -7 2 49.364 40.109 6.452 150.369 o
2 -7 3 169.399 181.992 9.750 52.284 o
2 -7 4 147.556 151.127 9.125 61.786 o
2 -7 5 42.803 37.328 13.404 38.646 o
2 -6 0 264.247 274.183 10.449 36.542 o
2 -6 1 270.695 293.983 11.285 32.490 o
2 -6 2 15.146 16.884 5.009 267.746 o
2 -6 3 239.899 252.609 10.574 38.510 o
2 -6 4 154.450 149.986 8.370 68.773 o
2 -6 5 182.368 194.419 10.923 43.015 o
2 -6 6 6.351 11.630 5.857 203.583 o
2 -6 7 92.763 95.880 8.176 86.389 o
2 -6 8 9.755 5.868 8.179 105.427 o
2 -5 0 223.632 230.465 8.918 49.590 o
2 -5 1 125.657 133.331 6.795 99.635 o
2 -5 2 710.549 714.290 19.429 8.051 o
2 -5 3 1.183 0.957 4.282 387.178 o
2 -5 4 325.671 342.183 11.930 26.674 o
2 -5 5 45.686 46.156 5.463 200.445 o
2 -5 6 498.173 502.832 17.379 12.618 o
2 -5 7 100.981 103.458 7.924 88.524 o
2 -5 8 95.348 101.569 8.251 84.194 o
2 -5 9 28.921 37.926 7.135 130.882 o
2 -5 10 21.018 24.179 9.569 76.014 o
2 -4 0 120.107 121.958 5.791 125.866 o
2 -4 1 2613.300 2512.190 52.936 0.801 o
2 -4 2 577.060 598.327 17.902 10.617 o
2 -4 3 248.930 255.678 9.684 41.739 o
2 -4 4 112.010 107.912 6.226 120.939 o
2 -4 5 200.387 202.295 8.804 54.745 o
2 -4 6 70.819 74.991 6.148 146.969 o
2 -4 7 318.243 308.165 11.926 27.795 o
2 -4 8 439.380 412.576 15.181 16.556 o
2 -4 9 24.582 27.679 6.343 165.972 o
2 -4 10 164.025 162.115 10.606 47.574 o
2 -4 11 1.376 -3.217 9.761 74.825 o
2 -3 0 464.770 450.696 12.960 18.094 o
2 -3 1 410.385 407.579 10.409 24.479 o
2 -3 2 971.823 979.737 27.919 4.191 o
2 -3 3 350.162 336.238 9.339 32.112 o
2 -3 4 379.590 388.879 11.545 24.157 o
2 -3 5 498.850 509.099 12.839 16.566 o
2 -3 6 156.269 142.501 6.720 91.007 o
2 -3 7 1013.940 1012.200 27.157 4.119 o
2 -3 8 1.793 -1.188 4.139 414.075 o
2 -3 9 332.098 310.477 12.924 24.772 o
2 -3 10 42.550 37.413 9.495 75.027 o
2 -3 11 202.762 202.473 16.002 23.045 o
2 -3 12 5.874 1.604 9.242 83.147 o
2 -2 0 1521.330 1575.670 22.651 2.603 o
2 -2 1 2189.710 2291.830 30.632 1.297 o
2 -2 2 498.786 533.288 8.803 20.314 o
2 -2 3 9.089 8.376 1.434 2480.600 o
2 -2 4 2105.070 2088.830 43.453 1.196 o
2 -2 5 124.028 124.853 4.597 157.298 o
2 -2 6 862.670 848.321 20.492 6.237 o
2 -2 7 8.099 15.777 3.063 686.839 o
2 -2 8 340.272 319.177 10.336 30.570 o
2 -2 9 86.701 73.675 7.829 96.045 o
2 -2 10 465.419 461.517 21.180 10.514 o
2 -2 11 252.320 217.894 18.184 17.730 o
2 -2 12 58.191 85.171 11.863 47.430 o
2 -2 13 137.188 143.578 18.938 18.406 o
2 -1 0 162.718 183.252 3.428 138.285 o
2 -1 1 1165.690 1133.700 14.701 4.774 o
2 -1 2 946.084 1047.860 13.512 6.396 o
2 -1 3 1155.940 1114.840 13.525 4.974 o
2 -1 4 217.386 247.002 4.037 87.761 o
2 -1 5 2105.010 2069.930 31.517 1.413 o
2 -1 6 176.670 179.070 6.151 88.331 o
2 -1 7 748.834 735.913 19.629 7.598 o
2 -1 8 998.784 1001.160 40.841 2.706 o
2 -1 9 153.509 167.172 10.120 51.722 o
2 -1 10 355.749 323.107 13.864 21.837 o
2 -1 11 74.643 72.420 8.961 78.051 o
2 -1 12 278.289 274.751 18.107 17.015 o
2 -1 13 1.470 7.714 8.056 109.419 o
2 -1 14 147.884 104.920 28.405 8.556 o
2 0 0 2921.640 2935.140 35.219 0.787 o
2 0 1 330.540 353.345 5.025 45.989 o
2 0 2 1799.660 1760.460 20.306 2.106 o
2 0 3 475.901 472.528 6.234 25.607 o
2 0 4 1952.320 1961.090 22.929 1.751 o
2 0 5 781.707 774.784 10.148 10.097 o
2 0 6 715.107 671.725 10.989 11.608 o
2 0 7 1824.840 1757.110 56.483 1.148 o
2 0 8 104.231 110.154 6.262 122.554 o
2 0 9 321.326 327.351 14.311 21.969 o
2 0 10 339.626 329.419 14.693 20.714 o
2 0 11 524.147 539.807 19.692 10.482 o
2 0 12 15.801 17.650 6.720 152.478 o
2 0 13 413.266 426.984 29.079 6.890 o
2 0 14 166.891 132.849 15.290 26.584 o
2 1 0 572.615 564.259 7.949 17.887 o
2 1 1 2294.430 2224.560 25.663 1.318 o
2 1 2 2582.110 2520.730 28.124 1.047 o
2 1 3 601.881 603.647 7.271 16.780 o
2 1 4 343.537 346.549 4.746 45.496 o
2 1 5 22.120 19.599 1.191 1966.760 o
2 1 6 1659.330 1582.270 24.871 2.288 o
2 1 7 67.753 63.002 4.397 247.489 o
2 1 8 1894.770 1897.340 56.891 1.085 o
2 1 9 2.623 6.718 3.677 514.291 o
2 1 10 294.356 293.279 12.285 28.273 o
2 1 11 405.669 365.018 18.776 13.672 o
2 1 12 491.273 470.069 22.889 9.237 o
2 1 13 214.485 196.372 20.095 15.512 o
2 1 14 87.399 79.594 11.320 50.349 o
2 2 0 19.111 15.576 1.064 2426.170 o
2 2 1 644.839 645.324 8.053 14.629 o
2 2 2 1684.640 1659.690 18.834 2.392 o
2 2 3 3825.240 3671.130 45.112 0.477 o
2 2 4 99.525 111.536 2.470 292.661 o
2 2 5 2145.690 2015.370 27.399 1.474 o
2 2 6 35.348 32.648 2.920 570.618 o
2 2 7 1176.680 1180.160 29.767 3.223 o
2 2 8 351.339 351.073 13.245 22.692 o
2 2 9 307.306 373.263 16.040 18.718 o
2 2 10 481.493 546.287 23.913 8.509 o
2 2 11 343.765 383.421 28.922 7.284 o
2 2 12 194.833 220.693 30.032 7.465 o
2 2 13 103.860 110.829 12.220 42.386 o
2 2 14 324.693 336.496 23.085 10.870 o
2 3 0 2778.730 2641.960 30.338 0.919 o
2 3 1 100.200 106.191 2.343 304.735 o
2 3 2 2081.170 2009.770 24.723 1.575 o
2 3 3 330.100 334.289 5.924 44.459 o
2 3 4 1432.750 1344.640 20.824 3.108 o
2 3 5 588.647 554.028 11.690 14.854 o
2 3 6 529.059 518.575 13.204 15.397 o
2 3 7 329.512 319.310 13.463 23.544 o
2 3 8 383.547 424.488 14.613 18.443 o
2 3 9 491.933 536.055 18.856 11.403 o
2 3 10 310.547 271.053 16.539 18.924 o
2 3 11 1121.300 1111.970 58.613 1.539 o
2 3 12 0.193 15.794 7.705 119.223 o
2 3 13 255.414 262.476 23.377 11.377 o
2 3 14 56.511 73.126 17.381 22.959 o
2 4 0 446.372 457.490 8.748 24.269 o
2 4 1 1213.660 1200.770 19.135 4.047 o
2 4 2 68.558 68.138 3.234 349.538 o
2 4 3 670.969 698.918 17.658 9.158 o
2 4 4 453.179 453.667 13.325 17.931 o
2 4 5 771.497 762.288 27.647 5.277 o
2 4 6 1776.620 1693.670 45.051 1.461 o
2 4 7 74.052 62.386 5.547 173.684 o
2 4 8 643.869 665.370 21.825 7.870 o
2 4 9 7.953 7.523 5.833 205.369 o
2 4 10 802.964 802.341 36.698 3.594 o
2 4 11 21.250 29.918 8.034 106.330 o
2 4 12 294.386 295.134 16.700 18.741 o
2 4 13 183.772 214.136 17.519 20.007 o
2 5 0 1650.940 1602.560 34.715 1.924 o
2 5 1 251.992 259.309 8.925 45.004 o
2 5 2 135.043 130.483 7.633 83.575 o
2 5 3 2490.990 2486.130 63.423 0.734 o
2 5 4 19.017 17.134 4.271 354.922 o
2 5 5 579.810 589.200 18.682 10.204 o
2 5 6 99.570 97.144 7.002 108.025 o
2 5 7 648.749 704.155 28.136 5.744 o
2 5 8 153.539 132.186 9.737 56.534 o
2 5 9 664.833 675.508 24.472 6.789 o
2 5 10 42.208 49.513 10.159 65.605 o
2 5 11 394.782 417.361 19.976 12.379 o
2 5 12 256.468 278.628 27.833 8.309 o
2 6 0 416.853 430.730 14.484 17.715 o
2 6 1 54.772 56.693 6.523 142.773 o
2 6 2 1743.920 1777.340 58.340 1.137 o
2 6 3 23.036 22.303 5.075 253.487 o
2 6 4 142.286 163.371 9.204 60.916 o
2 6 5 10.962 7.309 5.084 266.618 o
2 6 6 832.820 861.053 29.765 4.501 o
2 6 7 172.570 178.481 11.357 41.785 o
2 6 8 744.937 788.683 32.569 4.362 o
2 6 9 511.892 587.325 32.829 5.176 o
2 6 10 41.596 37.735 11.755 49.882 o
2 6 11 174.086 159.576 16.904 21.923 o
2 7 0 2.176 -2.386 7.398 130.081 o
2 7 1 487.790 493.247 24.904 8.165 o
2 7 2 4.451 4.189 6.421 171.441 o
2 7 3 712.195 726.564 26.032 5.979 o
2 7 4 152.676 139.284 11.871 41.256 o
2 7 5 191.290 185.511 11.207 41.145 o
2 7 6 313.004 307.514 16.887 17.961 o
2 7 7 163.292 162.027 13.582 32.174 o
2 7 8 455.606 496.399 24.008 8.798 o
2 7 9 86.502 93.954 12.184 43.769 o
2 7 10 146.513 154.395 31.369 7.021 o
2 8 0 217.382 229.369 16.936 20.445 o
2 8 1 86.636 83.913 10.890 53.896 o
2 8 2 187.751 187.195 13.830 29.937 o
2 8 3 151.994 164.415 12.931 35.313 o
2 8 4 40.761 37.886 8.539 91.838 o
2 8 5 348.514 361.106 16.924 16.730 o
2 8 6 100.228 108.376 11.178 49.871 o
2 8 7 255.946 261.730 19.184 15.900 o
3 -7 0 186.706 190.814 37.574 4.890 o
3 -7 1 29.528 8.844 20.425 17.007 o
3 -6 0 71.796 84.831 8.157 91.311 o
3 -6 1 99.370 107.711 8.284 82.448 o
3 -6 2 248.463 256.007 12.741 29.806 o
3 -6 3 25.501 18.821 6.243 172.220 o
3 -6 4 156.209 159.244 9.260 58.979 o
3 -6 5 20.866 18.067 6.862 145.206 o
3 -6 6 87.418 71.058 27.790 9.087 o
3 -5 0 4.047 2.689 4.901 293.227 o
3 -5 1 261.088 265.884 12.657 29.295 o
3 -5 2 52.844 47.870 6.241 156.436 o
3 -5 3 402.546 435.475 21.048 11.335 o
3 -5 4 10.655 19.683 5.813 203.196 o
3 -5 5 198.916 203.131 10.823 42.057 o
3 -5 6 19.610 16.269 6.230 175.349 o
3 -5 7 145.944 158.830 10.333 51.145 o
3 -5 8 82.602 79.957 9.344 71.237 o
3 -4 0 934.498 891.706 23.491 5.173 o
3 -4 1 111.301 111.282 6.616 111.164 o
3 -4 2 477.078 482.828 16.739 13.619 o
3 -4 3 41.619 42.660 5.267 217.083 o
3 -4 4 342.316 324.874 18.308 15.378 o
3 -4 5 253.044 247.092 11.387 34.509 o
3 -4 6 58.369 61.082 6.495 141.769 o
3 -4 7 170.872 171.860 9.291 56.268 o
3 -4 8 61.222 63.645 11.341 51.967 o
3 -4 9 131.359 153.689 15.202 27.449 o
3 -4 10 7.149 11.839 15.726 28.757 o
3 -3 0 997.439 1020.860 27.735 4.080 o
3 -3 1 406.486 417.847 14.982 17.477 o
3 -3 2 30.150 25.616 3.770 410.822 o
3 -3 3 10.638 11.358 3.890 441.449 o
3 -3 4 284.858 282.875 13.090 26.729 o
3 -3 5 398.317 387.912 16.062 16.614 o
3 -3 6 946.754 920.980 23.369 5.080 o
3 -3 7 18.495 22.759 4.949 268.942 o
3 -3 8 203.395 230.184 13.567 29.484 o
3 -3 9 23.512 27.130 8.516 94.929 o
3 -3 10 275.220 246.437 22.074 12.468 o
3 -3 11 44.164 39.681 11.624 50.836 o
3 -2 0 571.398 575.828 16.938 11.399 o
3 -2 1 410.085 410.932 10.834 23.686 o
3 -2 2 36.894 33.293 3.218 491.668 o
3 -2 3 1734.940 1725.870 40.009 1.621 o
3 -2 4 150.603 140.028 5.822 108.888 o
3 -2 5 796.687 777.033 26.397 5.420 o
3 -2 6 51.311 46.477 4.158 301.155 o
3 -2 7 339.342 356.802 14.919 19.970 o
3 -2 8 184.469 194.010 11.857 38.019 o
3 -2 9 273.913 283.587 13.822 25.253 o
3 -2 10 66.486 57.423 8.974 79.733 o
3 -2 11 114.478 116.735 17.384 22.041 o
3 -2 12 69.771 60.261 11.209 52.769 o
3 -1 0 1364.640 1466.020 24.157 2.933 o
3 -1 1 0.253 3.616 1.816 2087.780 o
3 -1 2 1609.320 1633.400 25.750 2.291 o
3 -1 3 122.701 119.204 3.969 182.278 o
3 -1 4 591.117 595.312 13.610 13.063 o
3 -1 5 51.328 44.477 3.675 360.316 o
3 -1 6 517.264 526.687 15.886 13.307 o
3 -1 7 192.816 208.297 11.092 40.883 o
3 -1 8 448.029 466.143 22.439 9.848 o
3 -1 9 719.352 736.322 26.861 5.716 o
3 -1 10 90.778 97.195 10.302 58.643 o
3 -1 11 147.814 132.095 11.687 42.805 o
3 -1 12 1.646 4.730 9.954 71.847 o
3 -1 13 251.496 201.676 36.938 4.978 o
3 0 0 291.456 325.770 6.106 49.482 o
3 0 1 383.233 379.529 6.539 34.920 o
3 0 2 6.396 9.221 1.336 2905.210 o
3 0 3 2200.300 2241.740 32.948 1.272 o
3 0 4 390.489 397.358 8.671 29.116 o
3 0 5 408.065 412.439 10.301 24.664 o
3 0 6 1994.540 2004.450 49.754 1.155 o
3 0 7 28.163 25.561 5.017 253.531 o
3 0 8 450.713 437.659 15.834 15.347 o
3 0 9 128.090 121.810 8.312 76.035 o
3 0 10 238.839 242.655 15.095 23.843 o
3 0 11 94.936 86.282 10.184 59.943 o
3 0 12 484.550 509.701 26.068 7.620 o
3 0 13 3.766 0.277 9.298 82.315 o
3 1 0 655.848 653.601 9.556 13.547 o
3 1 1 1195.320 1235.250 17.380 4.204 o
3 1 2 654.786 685.135 12.362 11.883 o
3 1 3 956.705 996.898 15.366 6.198 o
3 1 4 267.909 267.978 6.758 54.077 o
3 1 5 2332.820 2365.680 49.409 0.951 o
3 1 6 23.091 15.697 3.669 457.674 o
3 1 7 166.220 168.323 10.985 44.732 o
3 1 8 49.968 50.267 6.482 147.173 o
3 1 9 861.415 928.718 38.977 3.122 o
3 1 10 148.983 140.347 10.742 48.639 o
3 1 11 809.164 867.751 52.283 2.091 o
3 1 12 217.895 234.678 14.522 26.035 o
3 1 13 22.135 27.948 9.519 76.578 o
3 2 0 1927.220 1961.790 41.751 1.363 o
3 2 1 321.534 334.567 7.587 39.813 o
3 2 2 793.496 821.576 16.276 7.898 o
3 2 3 10.471 11.859 2.180 1233.180 o
3 2 4 1129.400 1154.010 35.138 2.881 o
3 2 5 3.625 6.584 3.728 498.539 o
3 2 6 1633.700 1678.790 46.153 1.526 o
3 2 7 306.308 298.051 12.760 26.413 o
3 2 8 551.656 574.742 23.192 8.275 o
3 2 9 377.077 372.524 24.161 9.636 o
3 2 10 247.099 249.294 24.818 10.321 o
3 2 11 354.770 395.389 27.980 7.638 o
3 2 12 70.077 32.779 9.026 79.894 o
3 2 13 169.839 162.681 15.561 25.375 o
3 3 0 317.474 326.675 12.475 26.064 o
3 3 1 2937.870 3027.670 61.935 0.601 o
3 3 2 87.684 94.352 4.165 222.051 o
3 3 3 940.205 907.044 29.366 4.184 o
3 3 4 384.164 388.736 13.639 20.363 o
3 3 5 630.619 631.757 27.322 6.192 o
3 3 6 594.598 533.470 32.752 5.049 o
3 3 7 394.923 405.557 14.441 18.636 o
3 3 8 394.449 420.726 19.733 12.573 o
3 3 9 139.415 141.697 9.740 57.469 o
3 3 10 508.556 517.193 26.046 7.485 o
3 3 11 59.676 75.931 9.268 74.971 o
3 3 12 468.801 438.202 30.673 6.120 o
3 3 13 39.981 49.475 13.432 38.417 o
3 4 0 1062.410 1102.890 28.807 3.668 o
3 4 1 78.473 93.471 7.314 106.885 o
3 4 2 200.290 207.297 10.136 45.660 o
3 4 3 1236.220 1259.090 37.852 2.454 o
3 4 4 686.353 705.940 21.915 7.402 o
3 4 5 451.579 414.557 15.229 16.218 o
3 4 6 231.887 234.007 13.500 28.554 o
3 4 7 386.848 373.480 22.591 10.614 o
3 4 8 41.326 45.361 9.183 79.660 o
3 4 9 1547.070 1433.040 71.155 0.990 o
3 4 10 45.499 42.275 9.111 80.600 o
3 4 11 301.465 281.797 28.735 7.691 o
3 4 12 105.074 113.536 13.301 36.331 o
3 4 13 129.588 54.973 17.567 21.807 o
3 5 0 282.473 274.436 19.430 15.163 o
3 5 1 251.024 247.806 11.359 34.715 o
3 5 2 878.801 901.589 41.042 2.906 o
3 5 3 582.558 563.358 21.965 8.647 o
3 5 4 781.992 827.396 29.679 4.723 o
3 5 5 22.057 20.727 5.912 191.807 o
3 5 6 696.755 685.848 27.694 5.704 o
3 5 7 24.464 18.376 7.154 133.285 o
3 5 8 700.533 645.972 32.383 4.699 o
3 5 9 45.995 40.765 10.173 65.467 o
3 5 10 336.442 347.146 22.579 11.132 o
3 5 11 238.933 212.713 20.467 14.702 o
3 5 12 84.758 74.949 14.912 30.341 o
3 6 0 113.875 124.446 10.145 57.040 o
3 6 1 1179.500 1220.510 81.791 0.886 o
3 6 2 39.012 37.412 6.348 158.995 o
3 6 3 241.528 238.966 16.713 20.327 o
3 6 4 10.985 12.450 5.819 204.134 o
3 6 5 619.659 664.235 24.299 7.131 o
3 6 6 176.613 191.057 12.166 37.058 o
3 6 7 440.677 429.768 23.736 9.272 o
3 6 8 210.482 222.697 16.612 21.305 o
3 6 9 330.443 330.188 28.511 7.611 o
3 6 10 201.276 172.037 19.704 16.329 o
3 6 11 19.556 19.872 23.907 12.440 o
3 7 0 562.447 572.843 28.972 6.094 o
3 7 1 80.355 79.349 9.317 71.876 o
3 7 2 151.906 146.486 15.147 27.221 o
3 7 3 7.565 6.113 7.094 139.984 o
3 7 4 369.236 355.091 21.315 11.835 o
3 7 5 306.890 320.742 30.102 7.006 o
3 7 6 502.675 481.820 21.075 10.140 o
3 7 7 447.281 436.616 24.508 8.781 o
3 7 8 3.621 8.962 9.847 73.219 o
3 7 9 126.593 85.151 23.470 12.481 o
3 8 0 79.299 78.046 11.889 46.467 o
3 8 1 373.928 360.349 21.691 11.460 o
3 8 2 148.151 149.858 12.734 36.711 o
3 8 3 65.402 65.065 10.283 62.013 o
3 8 4 245.373 220.349 21.281 13.650 o
3 8 5 65.077 61.343 10.583 58.954 o
3 8 6 224.403 197.719 20.869 14.416 o
4 -5 0 238.606 233.702 12.233 32.513 o
4 -5 1 3.653 1.793 6.626 161.556 o
4 -5 2 239.652 247.897 12.625 30.760 o
4 -5 3 13.671 20.044 6.820 148.402 o
4 -5 4 39.740 42.185 7.174 126.595 o
4 -5 5 0.982 8.526 7.320 132.414 o
4 -4 0 1.990 3.654 5.366 245.898 o
4 -4 1 502.328 522.125 26.323 7.391 o
4 -4 2 2.178 5.605 5.494 234.104 o
4 -4 3 77.915 69.986 7.145 114.227 o
4 -4 4 226.006 206.093 11.099 38.694 o
4 -4 5 166.474 164.943 11.300 42.942 o
4 -4 6 129.375 153.748 14.890 28.526 o
4 -4 7 96.221 106.072 13.066 37.968 o
4 -4 8 136.063 171.592 35.709 5.459 o
4 -3 0 151.010 144.002 8.209 71.657 o
4 -3 1 93.829 86.885 6.966 111.995 o
4 -3 2 93.416 96.289 7.685 95.187 o
4 -3 3 584.451 597.683 23.137 7.998 o
4 -3 4 195.660 173.180 9.229 53.858 o
4 -3 5 114.226 105.502 9.811 61.149 o
4 -3 6 4.883 7.848 7.290 132.941 o
4 -3 7 179.476 223.167 17.777 19.505 o
4 -3 8 0.316 -1.111 9.871 73.209 o
4 -3 9 323.019 321.353 30.502 6.797 o
4 -2 0 285.551 300.832 11.606 30.475 o
4 -2 1 54.976 71.998 5.785 170.408 o
4 -2 2 241.579 244.892 12.249 32.030 o
4 -2 3 266.734 256.888 9.804 39.661 o
4 -2 4 844.151 903.953 37.842 3.294 o
4 -2 5 37.654 34.040 6.054 174.376 o
4 -2 6 356.271 350.942 15.272 19.050 o
4 -2 7 67.134 83.224 10.415 59.813 o
4 -2 8 211.768 236.130 18.086 18.363 o
4 -2 9 116.991 126.640 14.140 32.004 o
4 -2 10 106.412 72.275 16.603 24.458 o
4 -1 0 63.093 64.175 4.991 210.725 o
4 -1 1 943.815 974.136 25.946 4.576 o
4 -1 2 18.165 20.890 3.663 464.484 o
4 -1 3 670.421 745.545 21.106 7.652 o
4 -1 4 78.690 76.668 6.879 120.264 o
4 -1 5 217.890 247.006 11.379 36.657 o
4 -1 6 337.056 343.858 14.506 20.917 o
4 -1 7 317.175 352.789 18.178 15.710 o
4 -1 8 155.498 190.659 14.345 29.158 o
4 -1 9 118.526 112.503 13.365 35.582 o
4 -1 10 77.579 84.150 11.528 49.104 o
4 -1 11 6.350 4.656 10.163 68.738 o
4 0 0 422.484 418.568 16.328 15.534 o
4 0 1 260.661 275.315 14.410 24.385 o
4 0 2 565.970 574.721 23.499 8.045 o
4 0 3 159.821 175.004 8.636 63.348 o
4 0 4 385.636 425.079 24.864 9.000 o
4 0 5 457.151 494.846 18.686 12.211 o
4 0 6 422.891 432.701 16.093 15.651 o
4 0 7 563.455 630.944 25.441 7.129 o
4 0 8 2.304 9.011 7.268 134.048 o
4 0 9 348.784 361.260 23.943 10.001 o
4 0 10 7.299 15.650 9.046 86.197 o
4 0 11 385.334 381.885 22.059 10.980 o
4 0 12 0.802 24.460 24.004 12.366 o
4 1 0 145.964 152.411 6.712 92.611 o
4 1 1 1326.690 1379.560 46.710 1.832 o
4 1 2 512.574 573.396 25.888 7.381 o
4 1 3 239.128 255.775 11.204 35.805 o
4 1 4 1538.750 1600.190 41.393 1.785 o
4 1 5 40.855 36.807 5.693 192.081 o
4 1 6 271.122 274.060 13.117 27.371 o
4 1 7 12.888 16.490 6.483 164.402 o
4 1 8 608.794 638.171 31.493 5.159 o
4 1 9 45.885 46.210 10.837 57.905 o
4 1 10 346.888 342.788 30.533 6.686 o
4 1 11 85.031 86.851 11.937 45.666 o
4 1 12 163.954 167.216 15.554 25.478 o
4 2 0 104.393 105.252 6.275 123.086 o
4 2 1 692.831 710.968 27.431 5.736 o
4 2 2 104.799 112.437 8.658 75.685 o
4 2 3 1081.150 1148.320 53.572 1.766 o
4 2 4 135.889 147.672 9.025 64.496 o
4 2 5 321.039 347.651 18.949 14.760 o
4 2 6 3.609 3.561 5.524 231.467 o
4 2 7 891.300 954.687 35.078 3.490 o
4 2 8 161.045 136.100 12.307 38.554 o
4 2 9 409.718 439.699 23.744 9.447 o
4 2 10 561.159 607.400 30.536 5.594 o
4 2 11 14.602 1.806 7.949 111.208 o
4 2 12 121.883 100.969 12.074 42.665 o
4 3 0 743.625 796.136 35.972 3.813 o
4 3 1 0.144 7.812 4.175 403.925 o
4 3 2 320.995 318.090 19.445 14.387 o
4 3 3 253.976 273.427 11.995 31.566 o
4 3 4 1605.120 1636.070 71.911 0.937 o
4 3 5 282.134 284.121 25.135 9.820 o
4 3 6 256.000 267.964 14.139 25.319 o
4 3 7 335.977 312.126 17.420 16.729 o
4 3 8 32.350 32.511 8.690 90.091 o
4 3 9 558.200 523.563 27.133 6.814 o
4 3 10 78.882 73.441 12.077 45.256 o
4 3 11 270.381 245.153 24.696 10.298 o
4 3 12 0.116 6.318 11.112 57.698 o
4 4 0 308.955 304.897 20.095 13.891 o
4 4 1 455.722 455.309 19.835 11.587 o
4 4 2 543.117 567.990 27.380 6.696 o
4 4 3 509.662 574.407 22.092 9.114 o
4 4 4 156.476 166.563 15.593 25.545 o
4 4 5 30.348 41.690 7.897 107.623 o
4 4 6 592.494 560.536 51.084 2.412 o
4 4 7 72.615 63.835 8.541 85.803 o
4 4 8 690.960 676.792 32.325 4.695 o
4 4 9 8.656 8.019 13.611 38.353 o
4 4 10 411.132 376.665 36.702 4.687 o
4 4 11 95.249 93.091 22.142 14.095 o
4 5 0 195.069 176.786 10.932 42.682 o
4 5 1 412.221 419.020 19.364 12.692 o
4 5 2 173.312 181.562 14.167 29.351 o
4 5 3 462.930 464.864 35.649 4.756 o
4 5 4 13.057 13.987 6.170 181.272 o
4 5 5 434.357 454.260 28.109 7.138 o
4 5 6 7.301 6.696 7.798 116.099 o
4 5 7 963.899 818.329 34.894 3.503 o
4 5 8 168.484 151.054 20.030 16.274 o
4 5 9 265.225 243.748 21.150 13.509 o
4 5 10 104.507 79.259 20.221 16.780 o
4 6 0 367.016 355.184 18.553 14.511 o
4 6 1 25.996 25.588 7.583 118.348 o
4 6 2 489.787 483.223 32.970 5.330 o
4 6 3 24.582 13.503 8.231 102.053 o
4 6 4 365.245 347.202 24.011 9.893 o
4 6 5 108.416 100.605 10.797 52.672 o
4 6 6 463.065 421.583 24.420 8.775 o
4 6 7 45.180 27.502 13.380 38.837 o
4 6 8 190.834 129.843 20.465 15.544 o
4 6 9 272.577 240.268 38.336 4.596 o
4 7 0 173.867 162.096 13.425 32.398 o
4 7 1 156.873 134.959 11.910 40.926 o
4 7 2 5.806 -2.389 8.931 89.081 o
4 7 3 316.678 285.060 30.478 6.875 o
4 7 4 166.595 150.090 14.688 28.273 o
4 7 5 236.667 235.088 16.995 19.917 o
4 7 6 204.953 187.564 18.450 18.182 o
4 7 7 43.818 41.683 20.552 16.683 o
4 8 1 12.103 7.379 18.725 20.293 o
4 8 2 89.765 104.072 29.172 8.230 o
5 -4 0 122.991 107.360 10.588 53.093 o
5 -4 1 46.373 47.970 11.512 51.530 o
5 -4 2 21.735 19.226 7.991 108.071 o
5 -4 3 30.835 38.832 24.556 11.758 o
5 -3 0 90.331 95.204 8.309 84.605 o
5 -3 1 156.206 166.794 9.993 52.461 o
5 -3 2 169.177 176.008 13.282 32.885 o
5 -3 3 55.988 40.605 9.968 67.333 o
5 -3 4 97.666 95.967 12.039 44.172 o
5 -3 5 10.885 15.875 9.369 80.192 o
5 -3 6 229.364 274.871 49.058 2.877 o
5 -2 0 79.977 77.956 7.053 115.003 o
5 -2 1 210.642 258.953 17.542 19.156 o
5 -2 2 29.921 19.597 8.624 92.381 o
5 -2 3 259.594 268.419 19.073 15.960 o
5 -2 4 0.017 -5.550 8.452 99.890 o
5 -2 5 151.242 162.700 14.307 29.837 o
5 -2 6 17.401 19.128 12.013 48.828 o
5 -2 7 348.714 344.266 25.308 9.187 o
5 -2 8 46.767 45.475 17.046 24.073 o
5 -1 0 121.199 135.642 10.435 53.393 o
5 -1 1 12.232 16.136 6.303 173.860 o
5 -1 2 776.067 779.441 44.210 2.793 o
5 -1 3 74.785 69.957 9.088 76.276 o
5 -1 4 234.222 284.609 24.482 10.548 o
5 -1 5 144.312 149.419 13.896 31.801 o
5 -1 6 167.475 171.141 12.752 35.300 o
5 -1 7 71.086 84.502 12.842 40.452 o
5 -1 8 20.172 32.661 10.707 60.864 o
5 -1 9 133.319 140.003 26.490 9.781 o
5 0 0 134.644 131.089 9.282 63.001 o
5 0 1 454.393 458.468 22.147 10.008 o
5 0 2 55.525 44.399 9.241 77.403 o
5 0 3 114.771 125.099 16.941 23.062 o
5 0 4 247.230 282.340 18.179 17.328 o
5 0 5 146.478 174.876 11.988 39.981 o
5 0 6 261.664 296.579 17.786 17.590 o
5 0 7 19.388 17.418 9.793 72.961 o
5 0 8 228.714 265.960 20.270 14.779 o
5 0 9 21.945 32.433 12.667 43.727 o
5 1 0 256.364 263.612 16.699 19.815 o
5 1 1 214.539 225.602 17.724 19.036 o
5 1 2 184.523 187.050 12.566 34.967 o
5 1 3 389.923 416.982 22.852 10.238 o
5 1 4 46.211 47.184 7.148 125.258 o
5 1 5 577.685 572.848 21.663 8.789 o
5 1 6 10.146 8.683 7.282 132.291 o
5 1 7 339.786 380.472 23.371 10.391 o
5 1 8 12.221 13.028 9.960 71.065 o
5 1 9 177.285 193.732 20.027 15.992 o
5 1 10 51.163 30.277 17.960 21.750 o
5 2 0 382.948 385.428 21.133 11.706 o
5 2 1 80.760 90.864 9.406 70.040 o
5 2 2 690.047 711.656 46.876 2.656 o
5 2 3 295.464 306.604 18.059 16.565 o
5 2 4 355.652 393.678 15.951 17.584 o
5 2 5 47.553 46.422 7.390 117.770 o
5 2 6 357.991 364.767 21.232 11.967 o
5 2 7 95.735 104.053 11.886 45.094 o
5 2 8 189.780 220.788 16.523 21.924 o
5 2 9 307.144 259.642 17.871 17.021 o
5 2 10 145.394 150.872 25.576 10.404 o
5 3 0 3.411 6.159 6.260 180.324 o
5 3 1 629.370 646.217 58.767 1.846 o
5 3 2 128.784 125.409 11.211 47.267 o
5 3 3 389.427 386.400 36.229 4.824 o
5 3 4 3.128 -0.606 7.164 138.521 o
5 3 5 176.090 170.622 16.826 21.969 o
5 3 6 438.812 452.861 23.436 9.377 o
5 3 7 261.350 277.312 20.603 13.989 o
5 3 8 530.433 569.801 33.260 5.047 o
5 3 9 4.161 11.056 10.571 63.514 o
5 3 10 96.693 70.923 23.140 12.977 o
5 4 0 261.592 244.928 29.582 7.473 o
5 4 1 92.928 79.148 10.052 61.802 o
5 4 2 384.021 404.106 60.158 1.884 o
5 4 3 310.458 275.539 24.442 10.167 o
5 4 4 55.760 47.508 9.207 77.761 o
5 4 5 376.566 382.525 27.898 7.613 o
5 4 6 22.751 22.863 10.232 66.635 o
5 4 7 313.175 327.545 33.956 5.621 o
5 4 8 8.565 3.994 18.421 20.988 o
5 4 9 323.582 337.435 34.000 5.578 o
5 5 0 193.123 183.860 12.957 33.035 o
5 5 1 60.642 51.045 8.460 89.902 o
5 5 2 220.152 237.945 17.352 19.521 o
5 5 3 13.767 19.114 9.038 85.735 o
5 5 4 305.586 266.680 18.404 16.241 o
5 5 5 5.585 5.100 10.089 69.760 o
5 5 6 583.978 540.380 30.358 5.677 o
5 5 7 4.986 12.855 25.855 10.662 o
5 5 8 203.341 196.574 23.462 11.827 o
5 6 0 4.521 9.231 8.569 96.452 o
5 6 1 417.269 399.171 19.728 12.436 o
5 6 2 1.401 0.572 9.158 84.985 o
5 6 3 173.340 174.000 14.774 27.479 o
5 6 4 5.991 2.634 9.045 86.746 o
5 6 5 447.700 325.276 28.635 7.128 o
5 6 6 143.487 119.125 18.275 19.727 o
6 -1 0 4.416 10.339 10.687 62.154 o
6 -1 1 278.562 254.505 38.218 4.608 o
6 -1 2 0.736 7.220 10.423 65.528 o
6 -1 3 67.496 70.525 12.776 41.197 o
6 -1 4 39.326 36.145 13.714 37.042 o
6 -1 5 177.549 105.688 32.959 6.370 o
6 0 0 279.757 262.587 18.728 16.200 o
6 0 1 98.378 103.701 16.499 24.639 o
6 0 2 94.876 100.632 11.357 49.039 o
6 0 3 124.714 118.335 12.892 37.571 o
6 0 4 44.220 28.246 9.534 74.680 o
6 0 5 118.929 90.659 13.270 36.405 o
6 0 6 18.639 11.579 14.697 32.789 o
6 1 0 65.364 59.299 9.854 67.296 o
6 1 1 52.950 46.105 10.204 64.451 o
6 1 2 127.220 114.645 12.346 40.481 o
6 1 3 13.831 15.453 8.543 95.924 o
6 1 4 408.926 420.339 27.036 7.783 o
6 1 5 23.691 28.768 9.365 78.909 o
6 1 6 87.710 92.596 12.316 42.895 o
6 2 0 14.024 12.011 8.904 88.549 o
6 2 1 369.658 329.909 32.695 5.889 o
6 2 2 0.267 -0.001 8.751 93.163 o
6 2 3 315.392 285.791 33.720 5.728 o
6 2 4 0.307 1.286 8.547 97.608 o
6 2 5 69.800 87.187 12.337 43.592 o
6 2 6 139.923 129.522 13.933 32.112 o
6 2 7 197.181 194.406 37.837 4.813 o
6 3 0 407.649 364.525 22.724 10.391 o
6 3 1 103.959 117.208 14.589 30.698 o
6 3 2 52.783 55.006 9.705 70.456 o
6 3 3 1.724 2.992 8.830 91.294 o
6 3 4 201.893 203.032 22.584 12.665 o
6 3 5 160.038 165.262 15.357 26.162 o
6 3 6 160.923 131.011 16.790 22.661 o
6 4 0 54.801 56.302 10.947 56.079 o
6 4 1 88.069 100.723 16.074 26.064 o
6 4 2 65.865 45.094 10.508 60.212 o
6 4 3 97.449 88.306 21.553 14.851 o
6 4 4 222.259 214.713 18.667 17.409 o
6 4 5 49.897 52.757 16.577 25.355 o
6 4 6 348.786 211.612 40.297 4.122 o
6 5 4 0.050 -4.173 20.079 17.698 o
;
_olex2_submission_special_instructions 'No special instructions were received'
_oxdiff_exptl_absorpt_empirical_details
;
Empirical correction (ABSPACK) includes:
- Absorption correction using spherical harmonics
- Frame scaling
;
_oxdiff_exptl_absorpt_empirical_full_max 1.333
_oxdiff_exptl_absorpt_empirical_full_min 0.771
loop_
_space_group_symop_id
_space_group_symop_operation_xyz
1 x,y,z
2 -x,-y,-z
loop_
_atom_site_label
_atom_site_type_symbol
_atom_site_fract_x
_atom_site_fract_y
_atom_site_fract_z
_atom_site_U_iso_or_equiv
_atom_site_adp_type
_atom_site_occupancy
_atom_site_refinement_flags_posn
Br1 Br 0.74002(5) 0.18180(3) 0.72831(2) 0.02074(9) Uani 1.000000 .
F1 F 0.2805(3) 0.39108(19) 0.55795(13) 0.0238(3) Uani 1.000000 .
F2 F 0.0818(3) 0.2408(2) 0.37285(13) 0.0269(3) Uani 1.000000 .
C1 C 0.6035(5) 0.0792(4) 0.5972(2) 0.0200(5) Uani 1.000000 .
C2 C 0.3914(5) 0.1973(3) 0.5300(2) 0.0190(5) Uani 1.000000 .
C3 C 0.2896(5) 0.1206(3) 0.4353(2) 0.0190(5) Uani 1.000000 .
N1 N 0.9375(4) 0.3597(3) 0.92573(19) 0.0206(4) Uani 1.000000 .
C4 C 0.8403(5) 0.3569(3) 1.0443(2) 0.0198(5) Uani 1.000000 .
C5 C 1.0952(5) 0.5014(4) 0.8824(2) 0.0214(5) Uani 1.000000 .
H5 H 1.1650(5) 0.5060(4) 0.8000(2) 0.0257(6) Uiso 1.000000 R
C6 C 0.6618(6) 0.1987(4) 1.0949(3) 0.0280(6) Uani 1.000000 .
H6a H 0.512(3) 0.203(2) 1.0423(10) 0.0420(9) Uiso 1.000000 GR
H6b H 0.7786(10) 0.0633(5) 1.0986(17) 0.0420(9) Uiso 1.000000 GR
H6c H 0.580(3) 0.2284(18) 1.1762(7) 0.0420(9) Uiso 1.000000 GR
loop_
_atom_site_aniso_label
_atom_site_aniso_U_11
_atom_site_aniso_U_22
_atom_site_aniso_U_33
_atom_site_aniso_U_12
_atom_site_aniso_U_13
_atom_site_aniso_U_23
Br1 0.02398(14) 0.02109(13) 0.01973(14) -0.00640(9) -0.00415(9) -0.00708(9)
F1 0.0289(8) 0.0148(6) 0.0281(8) -0.0000(6) -0.0045(6) -0.0084(6)
F2 0.0308(8) 0.0225(7) 0.0276(8) 0.0023(6) -0.0134(6) -0.0052(6)
C1 0.0234(12) 0.0198(11) 0.0190(12) -0.0079(9) -0.0009(9) -0.0055(9)
C2 0.0230(12) 0.0156(10) 0.0186(12) -0.0038(9) 0.0014(9) -0.0057(9)
C3 0.0197(12) 0.0194(11) 0.0180(12) -0.0019(9) -0.0041(9) -0.0026(9)
N1 0.0249(11) 0.0166(9) 0.0222(11) -0.0038(8) -0.0066(8) -0.0056(8)
C4 0.0202(12) 0.0170(10) 0.0232(13) -0.0034(9) -0.0067(9) -0.0018(9)
C5 0.0242(12) 0.0224(11) 0.0175(12) -0.0016(9) -0.0039(9) -0.0038(9)
C6 0.0287(14) 0.0223(12) 0.0347(15) -0.0090(10) -0.0048(11) 0.0002(11)
loop_
_atom_type_symbol
_atom_type_scat_dispersion_real
_atom_type_scat_dispersion_imag
_atom_type_scat_Cromer_Mann_a1
_atom_type_scat_Cromer_Mann_a2
_atom_type_scat_Cromer_Mann_a3
_atom_type_scat_Cromer_Mann_a4
_atom_type_scat_Cromer_Mann_b1
_atom_type_scat_Cromer_Mann_b2
_atom_type_scat_Cromer_Mann_b3
_atom_type_scat_Cromer_Mann_b4
_atom_type_scat_Cromer_Mann_c
_atom_type_scat_source
_atom_type_scat_dispersion_source
H 0.00000 0.00000 0.49300 0.32291 0.14019 0.04081 10.51090 26.12570 3.14236
57.79970 0.0030380000826
'International Tables Volume C Table 6.1.1.4 (pp. 500-502)'
'Henke, Gullikson and Davis, At. Data and Nucl. Data Tables, 1993, 54, 2'
C 0.00347 0.00161 2.31000 1.02000 1.58860 0.86500 20.84390 10.20750 0.56870
51.65120 0.215599998832
'International Tables Volume C Table 6.1.1.4 (pp. 500-502)'
'Henke, Gullikson and Davis, At. Data and Nucl. Data Tables, 1993, 54, 2'
F 0.01794 0.01033 3.53920 2.64120 1.51700 1.02430 10.28250 4.29440 0.26150
26.14760 0.277599990368
'International Tables Volume C Table 6.1.1.4 (pp. 500-502)'
'Henke, Gullikson and Davis, At. Data and Nucl. Data Tables, 1993, 54, 2'
Br -0.28346 2.55990 17.17890 5.23580 5.63770 3.98510 2.17230 16.57960 0.26090
41.43280 2.95569992065
'International Tables Volume C Table 6.1.1.4 (pp. 500-502)'
'Henke, Gullikson and Davis, At. Data and Nucl. Data Tables, 1993, 54, 2'
N 0.00653 0.00323 12.21260 3.13220 2.01250 1.16630 0.00570 9.89330 28.99750
0.58260 -11.5290002823
'International Tables Volume C Table 6.1.1.4 (pp. 500-502)'
'Henke, Gullikson and Davis, At. Data and Nucl. Data Tables, 1993, 54, 2'
loop_
_diffrn_refln_index_h
_diffrn_refln_index_k
_diffrn_refln_index_l
_diffrn_refln_intensity_net
_diffrn_refln_intensity_u
-6 -4 -5 35.66 19.74
-6 -4 -5 27.83 23.81
-6 -4 -4 159.91 32.23
-6 -4 -4 196.91 37.73
-6 -4 -4 175.86 34.58
-6 -4 -3 62.63 23.28
-6 -4 -3 96.19 29.66
-6 -4 -3 145.31 30.82
-6 -4 -2 74.35 24
-6 -4 -2 44.51 25.04
-6 -4 -2 23.93 21.87
-6 -4 -1 110.89 27.55
-6 -4 -1 57.94 23.05
-6 -4 -1 118.55 31.38
-6 -4 0 46.95 21.78
-6 -4 0 37.95 24.39
-6 -4 0 48.53 20.48
-6 -4 1 226.68 36
-6 -4 1 176.46 35.42
-6 -4 1 157.18 29.67
-6 -4 2 10.17 19.18
-6 -3 -6 87.4 29.41
-6 -3 -6 104.25 29.2
-6 -3 -6 80.22 27.61
-6 -3 -6 108.16 27.46
-6 -3 -5 141.05 32.48
-6 -3 -5 95.39 27.42
-6 -3 -5 143.94 30.64
-6 -3 -5 146.09 30.31
-6 -3 -4 161.77 34.3
-6 -3 -4 132.71 29.37
-6 -3 -4 204.28 33.89
-6 -3 -4 223.02 36.95
-6 -3 -3 23.42 18.11
-6 -3 -3 -12.42 19.11
-6 -3 -3 10.04 17.27
-6 -3 -3 12.33 19.74
-6 -3 -2 60.77 22.82
-6 -3 -2 20.14 17.92
-6 -3 -2 45.61 23.01
-6 -3 -2 65.93 22.37
-6 -3 -1 94.33 26.89
-6 -3 -1 107.67 26.42
-6 -3 -1 103.45 24.01
-6 -3 -1 135.33 31.46
-6 -3 0 315.67 46.78
-6 -3 0 284.14 38.38
-6 -3 1 23.62 16.23
-6 -3 1 -3.78 18.88
-6 -3 2 129.5 28.78
-6 -3 2 158.87 25.92
-6 -3 2 173.5 32.12
-6 -3 3 58.55 19.41
-6 -3 3 32.96 16.92
-6 -2 -7 167.58 29.21
-6 -2 -6 116.92 29.06
-6 -2 -6 83 27.48
-6 -2 -6 42.34 23.11
-6 -2 -6 101.72 25.48
-6 -2 -5 30.58 21.8
-6 -2 -5 92.9 27.03
-6 -2 -5 60.92 22.56
-6 -2 -5 77.6 24.17
-6 -2 -4 -3.47 17.57
-6 -2 -4 4.05 16.63
-6 -2 -4 3.23 17.23
-6 -2 -4 -7.32 17.58
-6 -2 -3 253.83 41.16
-6 -2 -3 274.2 40.21
-6 -2 -3 221.41 35.89
-6 -2 -2 23.84 20.84
-6 -2 -2 2.91 15.49
-6 -2 -2 -15.27 20.33
-6 -2 -1 300.56 42.22
-6 -2 -1 228.44 35.27
-6 -2 -1 306.17 43.57
-6 -2 0 7.49 18.05
-6 -2 0 33.54 21.67
-6 -2 0 18.26 15.59
-6 -2 1 113.78 27.48
-6 -2 1 81.49 25.28
-6 -2 1 113.92 22.38
-6 -2 2 93.22 23.26
-6 -2 2 128.44 26.52
-6 -2 2 86.93 24.18
-6 -2 2 56.45 18.54
-6 -2 3 69.01 21.98
-6 -2 3 29.8 17.97
-6 -2 3 56.36 20.29
-6 -2 3 40.15 16.09
-6 -1 -6 59.5 22.36
-6 -1 -6 86.06 24.94
-6 -1 -6 56.51 25.14
-6 -1 -5 19.25 18.91
-6 -1 -5 15.22 19.34
-6 -1 -5 15.74 21.32
-6 -1 -4 293.7 41.22
-6 -1 -4 335.97 43.19
-6 -1 -4 352.95 46.01
-6 -1 -4 252.48 41.61
-6 -1 -3 15.62 19.14
-6 -1 -3 25.41 17.47
-6 -1 -3 -5.81 16.22
-6 -1 -3 17.15 19.4
-6 -1 -2 58.55 20.97
-6 -1 -2 80.08 22.08
-6 -1 -2 105.58 25.49
-6 -1 -1 53.71 22.05
-6 -1 -1 20.95 16.27
-6 -1 -1 10.62 18.95
-6 -1 0 37.18 19.82
-6 -1 0 55.61 22
-6 -1 0 49.65 17.07
-6 -1 1 124.33 28.71
-6 -1 1 131.76 23.56
-6 -1 1 169.6 30.69
-6 -1 2 81.28 23.31
-6 -1 2 110.57 25.08
-6 -1 2 83.06 19.03
-6 -1 3 153.31 28.23
-6 -1 3 111.17 21.85
-6 -1 3 154.36 27.17
-6 -1 4 17.95 15.49
-6 0 -6 -15.64 17.71
-6 0 -5 29.91 20.53
-6 0 -5 98.94 26.07
-6 0 -5 88.15 23.43
-6 0 -4 30.54 18.38
-6 0 -4 20.91 19.46
-6 0 -4 5.85 15.39
-6 0 -3 114.44 28.63
-6 0 -3 89.76 23.88
-6 0 -3 50.25 19.44
-6 0 -2 58.05 21.42
-6 0 -2 88.15 24.47
-6 0 -2 50.56 18.93
-6 0 -2 87.76 23.86
-6 0 -1 113.29 27.45
-6 0 -1 93.83 22.54
-6 0 -1 101.51 26
-6 0 0 188.08 35.96
-6 0 0 214.97 31.25
-6 0 1 21.27 18.89
-6 0 1 3.1 15.17
-6 0 1 2.31 12.86
-6 0 2 160.83 30.77
-6 0 2 163.82 28.47
-6 0 2 175.62 26.22
-6 0 3 6.42 15.71
-6 0 3 2.09 11.64
-6 0 3 8.17 14.51
-6 1 -4 33.4 19.31
-6 1 -4 34.37 20.88
-6 1 -3 60.54 22.31
-6 1 -3 52.32 22.98
-6 1 -3 65.9 19.87
-6 1 -2 -11.27 18.72
-6 1 -2 11.68 15.8
-6 1 -2 10.53 14.67
-6 1 -1 275.06 38.51
-6 1 -1 176.33 29.5
-6 1 0 14.47 16.02
-6 1 0 16.85 14.03
-6 1 1 126.11 28.29
-6 1 1 121.81 23.46
-6 1 1 200.05 29.83
-6 1 2 2.72 13.54
-5 -6 -6 97.09 26.38
-5 -6 -5 318.62 44.59
-5 -6 -5 252.47 40.81
-5 -6 -4 -15.63 18.76
-5 -6 -4 12.52 15.32
-5 -6 -4 3.99 18.79
-5 -6 -3 167.61 32.76
-5 -6 -3 140.25 30.64
-5 -6 -3 122.67 29.57
-5 -6 -2 -8.16 23.38
-5 -6 -2 4.03 19.36
-5 -6 -2 15.26 18.32
-5 -6 -1 292.44 44.95
-5 -6 -1 358.69 48.03
-5 -6 -1 358.73 49.22
-5 -6 0 4.08 18.83
-5 -6 0 16.98 20.4
-5 -6 1 120.22 28.76
-5 -6 1 105.92 30.88
-5 -6 2 15.52 17.99
-5 -6 2 35.32 22.07
-5 -5 -6 445.21 53.25
-5 -5 -6 440.21 54.36
-5 -5 -5 -7.2 15.91
-5 -5 -5 38.16 20.65
-5 -5 -4 229.73 36.52
-5 -5 -4 201.63 36.43
-5 -5 -3 3.71 15.65
-5 -5 -3 23.57 18.15
-5 -5 -2 158.68 31.97
-5 -5 -2 187.04 32.52
-5 -5 -2 208.18 35.6
-5 -5 -1 34.45 18.91
-5 -5 -1 28.69 18.06
-5 -5 -1 44.96 22.27
-5 -5 0 152.17 29.65
-5 -5 0 141.74 31.53
-5 -5 0 148.18 31.99
-5 -5 1 156.99 30.07
-5 -5 1 97.35 30.95
-5 -5 1 170.93 32.62
-5 -5 2 197.44 32.88
-5 -5 2 124.68 31.32
-5 -5 2 143.33 32.35
-5 -5 3 301.36 39.5
-5 -5 3 174.76 35.26
-5 -5 4 3.45 16.57
-5 -5 4 22.2 20.04
-5 -5 5 115.22 26.33
-5 -4 -7 256.42 38.69
-5 -4 -6 21.67 17.7
-5 -4 -6 3.95 19.01
-5 -4 -6 10.56 16.61
-5 -4 -5 304.3 40.07
-5 -4 -5 242.2 39.05
-5 -4 -5 323.35 43.7
-5 -4 -5 333.95 44.92
-5 -4 -4 42.17 19.49
-5 -4 -4 23.38 18
-5 -4 -4 74.4 24.61
-5 -4 -4 22.08 19.18
-5 -4 -3 220.59 35.03
-5 -4 -3 242.65 38.51
-5 -4 -3 231.08 37.48
-5 -4 -2 317.51 44.69
-5 -4 -2 378.96 47.46
-5 -4 -2 423.69 51.19
-5 -4 -1 80.85 23.25
-5 -4 -1 71.45 23.82
-5 -4 -1 88.76 23.52
-5 -4 0 301.85 38.76
-5 -4 0 228.82 34.97
-5 -4 0 229.49 38.42
-5 -4 0 200.88 33.74
-5 -4 1 51.8 20.82
-5 -4 1 23.94 20.49
-5 -4 1 37.95 19.49
-5 -4 1 57.88 19.72
-5 -4 2 192.46 34.22
-5 -4 2 262.02 41
-5 -4 2 299.69 41.17
-5 -4 3 -6.69 15.43
-5 -4 3 -3.08 15.33
-5 -4 3 17.78 18.65
-5 -4 3 17.31 17.25
-5 -4 4 178.48 30.87
-5 -4 4 193.85 31.37
-5 -4 4 128.57 28.52
-5 -4 4 233.78 33.77
-5 -4 5 9.49 15.48
-5 -4 5 -3.15 15.99
-5 -4 5 3.12 15.84
-5 -4 6 46.4 17.79
-5 -4 6 3.16 16.13
-5 -4 6 17.61 15.72
-5 -3 -9 4.85 25.02
-5 -3 -9 -3.49 17.09
-5 -3 -8 405.6 56.98
-5 -3 -8 424.84 50.58
-5 -3 -7 262.81 42.7
-5 -3 -7 166.7 32.86
-5 -3 -7 219.56 33.48
-5 -3 -6 294.84 47.5
-5 -3 -6 354.53 44.43
-5 -3 -6 351.3 46.49
-5 -3 -6 288.95 41.19
-5 -3 -5 132.97 31.61
-5 -3 -5 90.74 23.1
-5 -3 -5 131.15 27.44
-5 -3 -5 166.2 29.82
-5 -3 -5 168.11 31.24
-5 -3 -4 -6.09 12.49
-5 -3 -4 11.4 17.17
-5 -3 -4 14.14 14.52
-5 -3 -4 -11.13 18.48
-5 -3 -4 -10.33 16.54
-5 -3 -3 297.42 38.55
-5 -3 -3 211.3 37.81
-5 -3 -3 368.41 44.65
-5 -3 -3 373.1 45
-5 -3 -3 303.61 42.07
-5 -3 -2 96.13 23.11
-5 -3 -2 119.42 26.08
-5 -3 -2 110.84 26.4
-5 -3 -2 80.98 23.94
-5 -3 -1 562.17 61.52
-5 -3 -1 584.56 63.9
-5 -3 -1 620.02 66.49
-5 -3 -1 622.76 63.21
-5 -3 0 6.4 13.14
-5 -3 0 3.43 14.46
-5 -3 0 -7.64 15.26
-5 -3 0 14.9 15.11
-5 -3 1 237.39 32.99
-5 -3 1 174.85 29.51
-5 -3 1 159.55 29.24
-5 -3 1 224.65 35.58
-5 -3 2 6.25 15.14
-5 -3 2 24.38 17.09
-5 -3 2 23.81 16.45
-5 -3 2 42.56 18.87
-5 -3 2 50.13 21.15
-5 -3 3 323.85 40.5
-5 -3 3 255.08 38.9
-5 -3 3 372.96 43.48
-5 -3 3 295.5 37.85
-5 -3 3 334.13 41.18
-5 -3 4 60.12 19.55
-5 -3 4 94.69 21.92
-5 -3 4 54.84 18.84
-5 -3 4 92.22 22.15
-5 -3 5 153.13 26.28
-5 -3 5 92.58 24.25
-5 -3 5 129.81 24.3
-5 -3 5 139.75 25.13
-5 -3 6 96.14 21.88
-5 -3 6 89.53 23.41
-5 -3 6 106.37 20.98
-5 -3 6 84.46 19.86
-5 -3 7 97.01 20.48
-5 -3 7 67.06 21.75
-5 -3 7 60.34 16.82
-5 -2 -10 156.26 35.65
-5 -2 -10 93.36 23.72
-5 -2 -10 116.42 27.01
-5 -2 -9 221.14 41.55
-5 -2 -9 157.23 27.83
-5 -2 -9 212.67 33.83
-5 -2 -8 189.54 36.86
-5 -2 -8 193.22 33.43
-5 -2 -8 143.36 29.2
-5 -2 -8 171.62 28.83
-5 -2 -7 116.34 30.91
-5 -2 -7 60.12 21.32
-5 -2 -7 78.47 21.1
-5 -2 -7 74.69 20.7
-5 -2 -6 236.14 42.11
-5 -2 -6 294.54 40.73
-5 -2 -6 355.18 39.96
-5 -2 -6 269.65 35.98
-5 -2 -6 295.39 43.01
-5 -2 -5 27.87 18.29
-5 -2 -5 33.33 22.45
-5 -2 -5 58.44 16.72
-5 -2 -5 64.37 21.3
-5 -2 -5 39.8 17.15
-5 -2 -4 288.24 42.62
-5 -2 -4 326.31 38.26
-5 -2 -4 281.41 40.51
-5 -2 -4 338.74 40.55
-5 -2 -4 265.01 40.38
-5 -2 -4 300.04 35.78
-5 -2 -3 266.11 37.08
-5 -2 -3 227.59 37.02
-5 -2 -3 265.59 34.91
-5 -2 -3 228.2 35.26
-5 -2 -3 259.13 36.87
-5 -2 -2 488.64 58.28
-5 -2 -2 618.8 58.76
-5 -2 -2 493.16 59.36
-5 -2 -2 621.49 60.77
-5 -2 -2 594.67 61.64
-5 -2 -1 72.06 21.85
-5 -2 -1 44.54 17.61
-5 -2 -1 97.09 20.99
-5 -2 -1 87.6 23.94
-5 -2 0 309.82 41.51
-5 -2 0 326.76 39.9
-5 -2 0 302.06 39.95
-5 -2 0 316.76 39.02
-5 -2 0 312.63 42.74
-5 -2 1 347.91 42.19
-5 -2 1 353.88 40.33
-5 -2 1 243.99 38
-5 -2 1 391.24 45.6
-5 -2 1 283.88 37.75
-5 -2 2 92.01 22.48
-5 -2 2 129.84 23.61
-5 -2 2 121.55 24.19
-5 -2 2 112.04 22.25
-5 -2 2 139.78 26.56
-5 -2 3 92.73 22.03
-5 -2 3 45.12 17.7
-5 -2 3 56.81 19.68
-5 -2 3 52.05 16.31
-5 -2 3 37.32 17.79
-5 -2 4 148.65 25.62
-5 -2 4 128.23 24.69
-5 -2 4 134.14 27.34
-5 -2 4 128.94 22.78
-5 -2 4 146.75 25.47
-5 -2 4 139 23.75
-5 -2 5 147.82 29.32
-5 -2 5 217.82 29.85
-5 -2 5 156.79 24.74
-5 -2 6 -3.21 14.53
-5 -2 6 15.08 12.18
-5 -2 7 173.25 30.06
-5 -2 7 139.32 22.94
-5 -1 -10 30.7 24.19
-5 -1 -9 125.42 33.53
-5 -1 -9 109.5 26.26
-5 -1 -8 -4.5 20.34
-5 -1 -8 31.25 19.66
-5 -1 -8 21.32 15.5
-5 -1 -7 265.02 38.9
-5 -1 -7 249.89 42.94
-5 -1 -7 309.23 37.9
-5 -1 -6 34.26 18.54
-5 -1 -6 8.72 17.91
-5 -1 -6 -5.42 13.5
-5 -1 -6 -6.83 18.48
-5 -1 -6 -2.54 13.1
-5 -1 -5 381.33 52.17
-5 -1 -5 401.75 49.29
-5 -1 -5 399.52 44.14
-5 -1 -5 487.04 48.97
-5 -1 -5 412.27 50.13
-5 -1 -4 50.65 19.52
-5 -1 -4 3.83 17.49
-5 -1 -4 52.71 14.55
-5 -1 -4 37.93 17.3
-5 -1 -4 40.28 16.47
-5 -1 -3 261.18 41.39
-5 -1 -3 322.02 41.42
-5 -1 -3 364.44 42.44
-5 -1 -3 361.92 42.53
-5 -1 -2 154.92 28.06
-5 -1 -2 87.51 23.87
-5 -1 -2 154.79 26.54
-5 -1 -2 134.3 27.08
-5 -1 -1 226.17 32.82
-5 -1 -1 150.22 27.64
-5 -1 -1 161.9 29.59
-5 -1 -1 209.16 29.1
-5 -1 0 185.39 31.76
-5 -1 0 242.28 31.19
-5 -1 0 194.78 32.48
-5 -1 1 52.89 18.79
-5 -1 1 61.7 19.94
-5 -1 1 80.39 19.38
-5 -1 2 166.5 28.87
-5 -1 2 157.96 29.93
-5 -1 2 224.4 31.85
-5 -1 2 175.4 26.27
-5 -1 3 101.87 23.44
-5 -1 3 106.45 24.2
-5 -1 3 119.24 24.08
-5 -1 3 91.73 19.45
-5 -1 4 205.03 29.41
-5 -1 4 227.41 32.99
-5 -1 4 143.96 23.96
-5 -1 5 5.7 12.89
-5 -1 5 3.26 14.38
-5 -1 6 265.02 34.83
-5 -1 6 255.43 37.04
-5 -1 6 246.91 29.85
-5 -1 7 5.32 13.98
-5 -1 7 12.84 17.13
-5 -1 7 14.89 10.7
-5 -1 8 120.7 19.75
-5 0 -9 42.22 23.68
-5 0 -9 32.98 20.79
-5 0 -8 164.28 37.27
-5 0 -8 225.2 34.89
-5 0 -8 229.69 33.47
-5 0 -7 30.09 22.92
-5 0 -7 10.07 15.19
-5 0 -7 8.27 15.81
-5 0 -6 125.86 32.73
-5 0 -6 253.84 35.23
-5 0 -6 199.67 29.4
-5 0 -6 208.95 33.6
-5 0 -5 109.16 25.23
-5 0 -5 93.24 26.75
-5 0 -5 146.72 22.63
-5 0 -5 99.6 24.63
-5 0 -4 145.28 30.82
-5 0 -4 201.56 31.85
-5 0 -4 180.91 29.7
-5 0 -3 49.51 21.41
-5 0 -3 66.45 21.84
-5 0 -3 133.51 23.03
-5 0 -3 109.69 22.5
-5 0 -2 46.1 18.65
-5 0 -2 44.42 19.19
-5 0 -2 47.8 16.92
-5 0 -2 40.13 16.31
-5 0 -1 320.08 41.97
-5 0 -1 379.99 45.71
-5 0 -1 381.8 44.76
-5 0 -1 371.19 42.23
-5 0 0 70.16 20.82
-5 0 0 118.47 22.04
-5 0 0 119.98 24.73
-5 0 0 104.59 20.45
-5 0 1 431.14 52.01
-5 0 1 389.77 46.21
-5 0 2 6.48 14.32
-5 0 2 2.15 10.9
-5 0 2 2.96 13.66
-5 0 3 136.46 27.49
-5 0 3 183.77 25.22
-5 0 4 106.7 22.58
-5 0 4 117.7 25.36
-5 0 4 102.7 19.18
-5 0 5 304.63 40.62
-5 0 5 298.46 38.98
-5 0 6 8.69 14.46
-5 0 6 16.32 16.86
-5 0 7 118.22 24.16
-5 0 7 106.31 24.78
-5 0 8 60.54 18.15
-5 1 -9 103.95 29.66
-5 1 -9 99.33 25.12
-5 1 -8 52.98 23.72
-5 1 -8 9.75 16.56
-5 1 -8 21.33 18.22
-5 1 -7 74.9 22.72
-5 1 -7 32.94 23
-5 1 -7 58.27 19.13
-5 1 -6 200.29 35.4
-5 1 -6 126.07 26.63
-5 1 -6 117.9 22.72
-5 1 -6 122.89 25.98
-5 1 -5 70.83 20.7
-5 1 -5 87.17 27.52
-5 1 -5 77.69 21.83
-5 1 -4 238.41 33.27
-5 1 -4 149.96 32.2
-5 1 -4 200.93 30.62
-5 1 -3 24.55 17.2
-5 1 -3 80.73 21.36
-5 1 -3 46.47 17.61
-5 1 -2 564.63 63.29
-5 1 -2 660.55 65.81
-5 1 -2 644.54 62.45
-5 1 -1 14.48 13.69
-5 1 -1 19.78 15.88
-5 1 -1 33.38 16.61
-5 1 -1 7.4 11.92
-5 1 0 119.42 24.06
-5 1 0 96.34 21.41
-5 1 0 96.38 20.24
-5 1 0 113.69 23.27
-5 1 1 3.3 15.88
-5 1 1 11.38 15.2
-5 1 1 33.59 14.04
-5 1 2 217.35 32.01
-5 1 2 168.57 25.74
-5 1 3 63.93 19.83
-5 1 3 38.72 14.28
-5 1 4 382.68 46.52
-5 1 4 411.24 42
-5 1 5 109.84 23.02
-5 1 6 2.98 13.18
-5 1 7 99.27 23.37
-5 1 7 159.89 28.15
-5 2 -8 46.62 19.51
-5 2 -7 213.46 39.72
-5 2 -7 255.52 35.19
-5 2 -6 11.86 19.35
-5 2 -6 6.24 13.48
-5 2 -5 104.51 27.73
-5 2 -5 140.71 26.5
-5 2 -5 109.36 24.28
-5 2 -4 -22.32 18.21
-5 2 -4 3.14 13.89
-5 2 -4 2.85 14.72
-5 2 -3 198.99 31.27
-5 2 -3 174.64 32.1
-5 2 -3 202.87 30.35
-5 2 -2 28.9 17.4
-5 2 -2 -6.45 16.67
-5 2 -2 31.47 15.26
-5 2 -1 209.22 32.92
-5 2 -1 183.26 30.08
-5 2 -1 217.85 29.78
-5 2 0 75.82 19.79
-5 2 0 36.27 18.67
-5 2 0 73.43 18.42
-5 2 0 59.71 17.73
-5 2 1 123.14 20.95
-5 2 1 104.99 24.1
-5 2 2 32.63 15.49
-5 2 2 25.98 16.33
-5 2 3 168.26 25.58
-5 2 3 214.13 31.73
-5 2 4 400.55 41.55
-5 2 4 364.19 45.42
-5 2 5 3.1 14.58
-5 2 5 -6.1 14.94
-5 2 6 75.91 20.91
-5 2 6 86.45 22.21
-5 2 7 -3.14 14.81
-5 3 -6 242.03 40.94
-5 3 -5 11.37 19.56
-5 3 -5 11.86 16.78
-5 3 -4 66.18 26.16
-5 3 -4 66.56 20.27
-5 3 -3 38.17 20.03
-5 3 -3 28 16.85
-5 3 -2 138.55 27.69
-5 3 -2 88.05 23.78
-5 3 -2 150.99 25.72
-5 3 -2 152.13 26.48
-5 3 -1 132.96 26.08
-5 3 -1 111.13 22.6
-5 3 -1 127.92 24.22
-5 3 0 83.63 21.23
-5 3 0 49.51 15.86
-5 3 0 106.99 23.11
-5 3 1 176.83 29.74
-5 3 1 205.76 27.92
-5 3 1 138.63 28.18
-5 3 2 15.98 15.65
-5 3 2 2.26 13.31
-5 3 3 95.06 24.84
-5 3 3 155.39 23.1
-5 3 4 6.21 14.34
-5 3 4 14.38 12.71
-5 3 4 9.49 14.91
-5 3 5 68.11 20.44
-5 3 5 92.69 22
-5 4 -3 28.1 17.77
-5 4 -2 25.26 16.4
-5 4 -1 67.15 20.6
-5 4 0 94.27 23.77
-5 4 1 -3.33 15.66
-5 4 2 114.96 25.33
-4 -7 -7 29.97 20.39
-4 -7 -6 112.62 28.29
-4 -7 -6 173.72 31.73
-4 -7 -5 193.22 34.31
-4 -7 -5 173.85 31.22
-4 -7 -5 202.24 34.64
-4 -7 -5 177.1 32.04
-4 -7 -4 88.54 26.03
-4 -7 -4 83.25 25.36
-4 -7 -4 132.93 27.99
-4 -7 -4 122.24 26.75
-4 -7 -3 295.22 39.36
-4 -7 -3 246.22 37.37
-4 -7 -3 202.13 34.79
-4 -7 -3 166.51 34.23
-4 -7 -2 3.48 15.73
-4 -7 -2 3.88 17.52
-4 -7 -2 6.74 17.94
-4 -7 -2 -3.85 17.39
-4 -7 -1 80.28 23.79
-4 -7 -1 135.98 29.95
-4 -7 -1 103.98 25.31
-4 -7 -1 108.35 29.8
-4 -7 0 123.58 32.37
-4 -7 0 124.75 26.35
-4 -7 0 158.3 33.62
-4 -7 1 339.63 47.23
-4 -7 1 271.41 45.05
-4 -7 2 16.62 20.03
-4 -7 2 30.77 23.12
-4 -7 3 158.67 33
-4 -7 3 133.9 33.04
-4 -7 4 144.49 31.35
-4 -6 -7 -3.46 17.25
-4 -6 -6 354.31 43.92
-4 -6 -6 295.76 42.83
-4 -6 -6 393.96 47.56
-4 -6 -5 67.15 22.23
-4 -6 -5 114.53 24.39
-4 -6 -5 77.81 22.83
-4 -6 -5 64.3 19.15
-4 -6 -4 253.02 38.3
-4 -6 -4 233.12 34.57
-4 -6 -4 321.89 40.01
-4 -6 -4 355.79 41.68
-4 -6 -4 221.21 34.97
-4 -6 -3 14 16.82
-4 -6 -3 9.71 16.42
-4 -6 -3 9.89 15.85
-4 -6 -3 3.26 13.76
-4 -6 -2 391.76 48.82
-4 -6 -2 455.48 48.54
-4 -6 -2 328.44 46.49
-4 -6 -2 380.39 46.91
-4 -6 -1 25.93 17.91
-4 -6 -1 32.79 16.27
-4 -6 -1 38.34 17.68
-4 -6 -1 14.56 19.21
-4 -6 0 257.16 39.9
-4 -6 0 310.31 42.84
-4 -6 1 139.86 28.01
-4 -6 1 76.97 25.38
-4 -6 2 147.86 30.93
-4 -6 2 206.85 36.95
-4 -6 3 72.8 24.14
-4 -6 3 55.58 23.62
-4 -6 4 63.33 22.23
-4 -6 4 33.68 24.08
-4 -6 5 43.08 21.03
-4 -6 5 84.34 26.3
-4 -6 6 27.49 16.96
-4 -6 6 41.39 19.92
-4 -5 -6 18.68 14.67
-4 -5 -6 -6.21 13.41
-4 -5 -5 381.1 45.53
-4 -5 -5 400.2 45.48
-4 -5 -5 359.9 45.06
-4 -5 -5 364.17 42.52
-4 -5 -4 25.41 14.98
-4 -5 -4 -2.94 12.42
-4 -5 -4 16.32 13.82
-4 -5 -4 9.55 14.4
-4 -5 -3 390.19 47.57
-4 -5 -3 393.41 45.54
-4 -5 -3 428.63 46.93
-4 -5 -3 426.08 48.86
-4 -5 -2 150.74 27.06
-4 -5 -2 123.58 24.05
-4 -5 -2 162.16 27.54
-4 -5 -2 117.64 24.74
-4 -5 -1 359.68 44.66
-4 -5 -1 348.92 40.34
-4 -5 -1 325.66 42.62
-4 -5 -1 360.33 43.99
-4 -5 0 107.83 26.18
-4 -5 0 162.99 28.64
-4 -5 0 147.52 27.61
-4 -5 1 156.26 31.04
-4 -5 1 240.88 34.41
-4 -5 1 170.74 30.61
-4 -5 2 235.69 35.82
-4 -5 2 245.05 39.45
-4 -5 3 46.09 18.62
-4 -5 3 43.43 17.81
-4 -5 3 51.65 21.45
-4 -5 4 407.61 47.86
-4 -5 4 358.91 43.72
-4 -5 4 328.47 47.11
-4 -5 5 17.04 16.07
-4 -5 5 6.05 14.82
-4 -5 5 3.72 16.07
-4 -5 6 209.21 31.62
-4 -5 6 123.1 25.95
-4 -5 6 126.22 27.61
-4 -5 7 31.04 16.83
-4 -5 7 3.29 17.03
-4 -5 8 77.59 21.03
-4 -4 -6 541.68 57.37
-4 -4 -5 20.13 14.8
-4 -4 -5 46.3 17.21
-4 -4 -5 38.76 15.84
-4 -4 -4 161.7 24.78
-4 -4 -4 124.43 24.81
-4 -4 -4 154.48 26.2
-4 -4 -4 144.06 25.63
-4 -4 -4 132.39 22.09
-4 -4 -3 460.83 47.47
-4 -4 -3 429.15 48.3
-4 -4 -3 429.51 49.65
-4 -4 -3 487.49 50.99
-4 -4 -3 431.14 46.68
-4 -4 -2 380.2 47.57
-4 -4 -2 409.2 45.25
-4 -4 -2 520.74 52.7
-4 -4 -2 471.52 47.7
-4 -4 -2 450.25 49.54
-4 -4 -1 341.93 42.5
-4 -4 -1 348.31 39.12
-4 -4 -1 353.55 43.63
-4 -4 -1 423.97 45.57
-4 -4 -1 346.87 41.92
-4 -4 0 237.63 35.06
-4 -4 0 287 36.31
-4 -4 0 234.78 35.63
-4 -4 0 285.78 36.2
-4 -4 1 678.76 69.61
-4 -4 1 681.57 66.88
-4 -4 1 775.34 72.26
-4 -4 1 662.9 69.84
-4 -4 2 25.89 15.56
-4 -4 2 47.14 16.61
-4 -4 2 60.11 19.64
-4 -4 2 42.15 18.09
-4 -4 3 265.92 37.45
-4 -4 3 325.02 37.92
-4 -4 3 260.51 38.37
-4 -4 3 260.98 37.94
-4 -4 4 3.25 14.02
-4 -4 4 -2.95 13.36
-4 -4 4 14.07 14.82
-4 -4 4 15.62 14.72
-4 -4 5 179.92 28.63
-4 -4 5 151.26 28.94
-4 -4 5 182.52 32.18
-4 -4 6 13.2 13.9
-4 -4 6 27.58 15.05
-4 -4 6 9.46 14.9
-4 -4 7 295.12 36.25
-4 -4 7 210.89 33.77
-4 -4 7 249.32 36.17
-4 -4 8 75.81 20.88
-4 -4 8 46.81 19.39
-4 -4 8 107.69 22.35
-4 -4 9 22.95 16.74
-4 -3 -12 -4.28 21.72
-4 -3 -12 7.49 19.32
-4 -3 -12 6.48 15.25
-4 -3 -11 231.93 39.55
-4 -3 -11 218.89 33.56
-4 -3 -11 198.29 33.57
-4 -3 -10 57.44 24.05
-4 -3 -10 93.37 23.78
-4 -3 -9 402.42 49.01
-4 -3 -9 370.9 45.14
-4 -3 -8 32.8 19.4
-4 -3 -8 21.13 20.79
-4 -3 -7 256.66 36.62
-4 -3 -7 289.33 35.29
-4 -3 -7 234.45 39.46
-4 -3 -6 249.01 33.76
-4 -3 -6 209.74 32.41
-4 -3 -6 208.8 30.63
-4 -3 -6 204.82 30.97
-4 -3 -6 189.42 33.9
-4 -3 -5 232.91 33.1
-4 -3 -5 290.26 34.14
-4 -3 -5 301.07 37.22
-4 -3 -5 196.8 35.57
-4 -3 -5 234.98 32.35
-4 -3 -4 1360.16 115.19
-4 -3 -4 1378.82 115.27
-4 -3 -4 1394.1 117.85
-4 -3 -4 1269.84 117.69
-4 -3 -4 1202.8 112.56
-4 -3 -3 209.63 29.82
-4 -3 -3 190.06 28.3
-4 -3 -3 185.66 30.82
-4 -3 -3 266.28 35.29
-4 -3 -3 194.54 29.66
-4 -3 -3 212.26 26.6
-4 -3 -2 283.93 31.65
-4 -3 -2 259.75 33.02
-4 -3 -2 233.73 33.23
-4 -3 -2 245.36 33.2
-4 -3 -2 250.15 30.75
-4 -3 -2 270.92 37.04
-4 -3 -2 287.83 35.98
-4 -3 -1 2.72 10.89
-4 -3 -1 -2.47 10.94
-4 -3 -1 8.14 11.72
-4 -3 -1 8.88 10.46
-4 -3 -1 9.31 9.81
-4 -3 -1 6.08 14.04
-4 -3 -1 11.8 12.74
-4 -3 0 534.05 60.22
-4 -3 0 543.75 60.32
-4 -3 0 611.78 60.04
-4 -3 0 639.27 61.4
-4 -3 0 693.65 65.75
-4 -3 0 788.59 66.02
-4 -3 1 46.64 15.99
-4 -3 1 57.23 17.47
-4 -3 1 52.22 15.67
-4 -3 1 68.81 17.92
-4 -3 1 79.13 20.43
-4 -3 1 88.6 19.49
-4 -3 2 613.08 63.71
-4 -3 2 615.3 64.39
-4 -3 2 620.21 64.01
-4 -3 2 684.15 68.18
-4 -3 2 772.02 68.44
-4 -3 2 678.3 64.34
-4 -3 3 16.02 13.07
-4 -3 3 11.75 11.9
-4 -3 3 40.17 15.17
-4 -3 3 31.58 14.78
-4 -3 3 35.13 18.64
-4 -3 3 40.6 17.51
-4 -3 4 151.09 25.66
-4 -3 4 171.64 26.83
-4 -3 4 159.2 27.46
-4 -3 4 129.07 24.02
-4 -3 4 187.13 28.93
-4 -3 4 233.25 31.65
-4 -3 5 50.96 17.41
-4 -3 5 52.56 17.43
-4 -3 5 47 16.75
-4 -3 5 66.7 18.05
-4 -3 6 314.4 40.64
-4 -3 6 368.02 40.74
-4 -3 6 319 38.85
-4 -3 6 306.02 39.08
-4 -3 7 460.84 48.7
-4 -3 7 529.05 54.35
-4 -3 7 462.72 50.8
-4 -3 7 444.65 50.88
-4 -3 8 -4.68 11.04
-4 -3 8 9.35 13.78
-4 -3 8 11.11 13.35
-4 -3 8 25.65 14.71
-4 -3 9 87.24 18.92
-4 -3 9 69.84 19.48
-4 -3 9 71.06 19.44
-4 -3 9 84.17 21.16
-4 -2 -12 72.69 26.82
-4 -2 -12 64.84 22.1
-4 -2 -12 51.13 23.04
-4 -2 -12 64.96 20.52
-4 -2 -11 -4.06 19.1
-4 -2 -11 6.09 15.18
-4 -2 -11 -15.99 20.27
-4 -2 -11 -3.37 15.22
-4 -2 -11 2.9 14.96
-4 -2 -10 505.43 58.01
-4 -2 -10 458.95 52.02
-4 -2 -10 519.87 52.28
-4 -2 -10 459.66 53.49
-4 -2 -10 448.33 58.17
-4 -2 -9 351.6 41.85
-4 -2 -9 360.63 40.54
-4 -2 -9 312.31 47.17
-4 -2 -9 333.02 44.38
-4 -2 -8 115.37 21.42
-4 -2 -8 104.29 28.44
-4 -2 -8 107.52 24.5
-4 -2 -7 622.91 64.71
-4 -2 -7 699.46 75.84
-4 -2 -7 797.12 68.59
-4 -2 -7 674.81 68.24
-4 -2 -7 743.24 70.28
-4 -2 -6 4.3 9.72
-4 -2 -6 23.96 18.81
-4 -2 -6 10.44 12.54
-4 -2 -6 -3.14 13.9
-4 -2 -6 -2.48 11.43
-4 -2 -6 17.42 13.12
-4 -2 -5 201.18 36.3
-4 -2 -5 293.77 34.51
-4 -2 -5 312 38.47
-4 -2 -5 316.3 34.68
-4 -2 -5 234.37 34.06
-4 -2 -4 96.16 23.93
-4 -2 -4 75.24 17.23
-4 -2 -4 109.82 21.62
-4 -2 -4 144.41 25.54
-4 -2 -4 108.76 19.42
-4 -2 -4 158.72 22.73
-4 -2 -3 806.34 80.3
-4 -2 -3 879.01 86.12
-4 -2 -3 1016.15 81.25
-4 -2 -3 920.26 85.84
-4 -2 -3 929.66 83.44
-4 -2 -3 921.12 83.88
-4 -2 -2 95.23 19.79
-4 -2 -2 79.65 17.83
-4 -2 -2 76.31 19.65
-4 -2 -2 121.98 22.5
-4 -2 -2 114.69 21.45
-4 -2 -1 648.94 60.15
-4 -2 -1 609.53 53.63
-4 -2 -1 610.29 58.19
-4 -2 -1 514.25 54.4
-4 -2 -1 484.89 54.96
-4 -2 -1 570.85 54.7
-4 -2 -1 503.58 55.49
-4 -2 0 83.54 17.47
-4 -2 0 63.31 16.94
-4 -2 0 79.97 18.17
-4 -2 0 98.71 19.94
-4 -2 0 91.75 21.48
-4 -2 0 83.85 16.61
-4 -2 0 87.71 17.96
-4 -2 1 649.09 64.64
-4 -2 1 654.32 61.37
-4 -2 1 645.32 61.16
-4 -2 1 606.61 60.75
-4 -2 1 575.41 60.27
-4 -2 1 634.87 62.42
-4 -2 2 363.32 40.71
-4 -2 2 434 44.63
-4 -2 2 357.47 38.79
-4 -2 2 322.45 38.49
-4 -2 2 386.14 41.03
-4 -2 3 276.72 35.1
-4 -2 3 269.04 33.84
-4 -2 3 297.49 36.83
-4 -2 3 255.73 32.15
-4 -2 3 250.21 31.94
-4 -2 3 256.71 31.78
-4 -2 3 260.89 33.1
-4 -2 3 252.9 33.45
-4 -2 4 346.75 39.8
-4 -2 4 347.9 39.11
-4 -2 4 245.21 33.74
-4 -2 4 293.82 36.74
-4 -2 4 298.7 36.25
-4 -2 4 350.16 38.5
-4 -2 4 294.18 36.43
-4 -2 5 17.99 14.71
-4 -2 5 2.62 11.88
-4 -2 5 22.51 12.73
-4 -2 5 26.63 14.27
-4 -2 5 2.57 12.15
-4 -2 6 340.96 35.5
-4 -2 6 316.53 39.07
-4 -2 6 235.82 34.23
-4 -2 6 265.08 35.87
-4 -2 7 30.36 12.96
-4 -2 7 9.25 13.66
-4 -2 7 13.93 12.35
-4 -2 7 2.83 11.97
-4 -2 8 161.74 24.2
-4 -2 8 238.48 32.71
-4 -2 8 180.63 30
-4 -2 8 174.58 29.22
-4 -2 9 2 9.99
-4 -2 9 5.91 14.2
-4 -2 9 2.93 14.36
-4 -2 9 -6.19 13.99
-4 -2 10 104.84 23.98
-4 -2 10 117.12 24.09
-4 -2 10 68.53 21.24
-4 -1 -12 111.64 31.08
-4 -1 -12 126.8 27.29
-4 -1 -12 114.47 27.01
-4 -1 -12 134.51 30.83
-4 -1 -11 44.47 24.3
-4 -1 -11 81.43 21.27
-4 -1 -11 62.59 19.76
-4 -1 -11 75.98 24.51
-4 -1 -10 228.72 40.24
-4 -1 -10 309.44 37.52
-4 -1 -10 321.5 38.72
-4 -1 -10 243.3 40.28
-4 -1 -9 35.26 15.7
-4 -1 -9 20.05 20.46
-4 -1 -9 30.84 18.68
-4 -1 -8 440.03 47.07
-4 -1 -8 420.53 55.07
-4 -1 -8 478.61 51.42
-4 -1 -7 13.16 11.34
-4 -1 -7 -8.07 19.4
-4 -1 -7 14.61 14.05
-4 -1 -7 11.12 10.29
-4 -1 -7 11.19 13.96
-4 -1 -6 195.54 36.01
-4 -1 -6 207.76 25.56
-4 -1 -6 212.77 30.26
-4 -1 -6 196.12 28.44
-4 -1 -6 158.13 29.13
-4 -1 -6 187.31 25.83
-4 -1 -5 38.52 15.89
-4 -1 -5 23.27 18.38
-4 -1 -5 33.95 11.21
-4 -1 -5 15.49 15.57
-4 -1 -5 29.31 12.72
-4 -1 -5 17.92 11.92
-4 -1 -4 1185.74 100.38
-4 -1 -4 1158.85 108.61
-4 -1 -4 1105.68 97.24
-4 -1 -4 1398.04 106.25
-4 -1 -4 1106.03 99.48
-4 -1 -4 1169.25 105.67
-4 -1 -4 1235.44 102.34
-4 -1 -3 164.9 30.06
-4 -1 -3 185.35 27.97
-4 -1 -3 190.79 25.3
-4 -1 -3 210.7 25.3
-4 -1 -3 205.55 27.38
-4 -1 -3 204.27 29.73
-4 -1 -2 354.47 48.28
-4 -1 -2 496.9 46.17
-4 -1 -2 430.81 47.67
-4 -1 -2 471.37 48.15
-4 -1 -2 534.2 50.71
-4 -1 -2 433.08 42.91
-4 -1 -1 896.5 93.36
-4 -1 -1 1015.99 90.62
-4 -1 -1 962.93 93.26
-4 -1 -1 1173.29 96.79
-4 -1 -1 1144.66 88.62
-4 -1 -1 1163.88 95.5
-4 -1 0 138.72 22.58
-4 -1 0 99.23 20.16
-4 -1 0 120.81 21.8
-4 -1 0 110.68 18.46
-4 -1 0 114.58 23.39
-4 -1 0 112.98 21.38
-4 -1 1 122.83 21.63
-4 -1 1 119.82 20.24
-4 -1 1 146.5 21.04
-4 -1 1 86.81 20.35
-4 -1 1 127.9 24.46
-4 -1 1 122.51 20.1
-4 -1 1 117.53 20.82
-4 -1 2 252.22 34.88
-4 -1 2 251.59 34.45
-4 -1 2 299.5 33.99
-4 -1 2 291.56 33.29
-4 -1 2 352.61 36.26
-4 -1 3 304.4 41.28
-4 -1 3 467.13 42
-4 -1 3 424.29 42.52
-4 -1 3 369.42 41.29
-4 -1 3 361.02 43.34
-4 -1 4 10.69 9.9
-4 -1 4 11.32 9.93
-4 -1 4 5.85 12.36
-4 -1 4 16.29 12.81
-4 -1 4 14.27 11.45
-4 -1 5 713.1 70.04
-4 -1 5 812.92 68.17
-4 -1 5 694.4 71.03
-4 -1 5 710.7 69.99
-4 -1 6 33.73 15.9
-4 -1 6 3.97 9.55
-4 -1 6 12.14 13.42
-4 -1 6 2.66 12.05
-4 -1 7 199.69 30.2
-4 -1 7 200.38 25.52
-4 -1 7 162.27 29.22
-4 -1 7 217.57 29.52
-4 -1 8 50.49 18.29
-4 -1 8 41.52 12.86
-4 -1 8 61.44 18.9
-4 -1 8 54.18 16.72
-4 -1 9 72.68 20.52
-4 -1 9 76.22 18.59
-4 -1 9 70.56 21.37
-4 -1 9 89.3 16.16
-4 -1 9 55.96 18.46
-4 -1 10 110.77 17.99
-4 -1 10 76.62 22.45
-4 -1 10 73.12 21.19
-4 0 -12 17.7 17.37
-4 0 -11 301.29 44.91
-4 0 -11 309.35 43.68
-4 0 -11 310.41 41.15
-4 0 -10 22.42 19.28
-4 0 -10 11.1 19.42
-4 0 -10 2.98 14.6
-4 0 -9 308.64 40.35
-4 0 -9 239.03 34.41
-4 0 -9 309.74 42.62
-4 0 -8 6.22 12.76
-4 0 -8 2.92 11.67
-4 0 -8 7.84 17.32
-4 0 -8 -2.4 11.29
-4 0 -7 432.17 49.04
-4 0 -7 492.31 50.98
-4 0 -7 484.06 56.84
-4 0 -7 448.88 46.47
-4 0 -6 308.67 37.52
-4 0 -6 352.64 41.13
-4 0 -6 293.47 38.17
-4 0 -6 370.98 45.98
-4 0 -6 303.23 34.08
-4 0 -5 365.05 39.83
-4 0 -5 398.08 41.32
-4 0 -5 424.15 46.36
-4 0 -5 399.08 44.42
-4 0 -5 361.75 49.9
-4 0 -4 362.79 36.02
-4 0 -4 348.49 36.43
-4 0 -4 397.25 41.6
-4 0 -4 256.19 36.29
-4 0 -4 246.72 40.39
-4 0 -3 137.93 24.01
-4 0 -3 119.7 18.39
-4 0 -3 154.26 22.08
-4 0 -3 111.04 21.05
-4 0 -3 115.87 25.88
-4 0 -2 465.83 46.72
-4 0 -2 455.38 42.42
-4 0 -2 415.01 46.92
-4 0 -2 321.22 48.01
-4 0 -1 245.98 30.14
-4 0 -1 238.71 28.99
-4 0 -1 227.15 30.26
-4 0 0 428.17 42.66
-4 0 0 366.05 37.94
-4 0 0 311.39 38.51
-4 0 0 278.04 37.65
-4 0 1 6.25 9.2
-4 0 1 2.82 10.61
-4 0 1 4.5 9.24
-4 0 2 609.84 64.34
-4 0 2 745.28 70.77
-4 0 2 749.16 70.37
-4 0 2 866.87 67.84
-4 0 3 11.57 12.56
-4 0 3 11.49 12.77
-4 0 3 31.85 11.38
-4 0 3 16.87 10.68
-4 0 4 791.13 66.36
-4 0 4 705.31 65.76
-4 0 4 866.34 67.51
-4 0 4 659.48 69.84
-4 0 4 643.05 69.95
-4 0 5 25.92 11.38
-4 0 5 34.26 14.9
-4 0 5 47.74 16.54
-4 0 5 23.56 10.62
-4 0 6 149.85 20.67
-4 0 6 90.52 20.65
-4 0 6 84.31 21.43
-4 0 6 87.86 16.64
-4 0 7 240.77 28.56
-4 0 7 270.21 30.99
-4 0 7 292.96 37.27
-4 0 7 226.71 33.96
-4 0 8 34.48 13.18
-4 0 8 47.1 16.67
-4 0 8 30.16 16.73
-4 0 8 24.95 10.75
-4 0 9 48.11 17.48
-4 0 9 40.65 12.35
-4 0 9 81.27 21.22
-4 0 9 74.35 16.67
-4 0 9 73.51 18.59
-4 0 9 38.17 16.14
-4 0 10 113.43 25.09
-4 0 10 94.47 20.83
-4 0 10 97.99 23.41
-4 0 10 78.17 15.76
-4 0 10 58.75 19.36
-4 1 -11 3.97 19.79
-4 1 -11 -3.27 17.16
-4 1 -10 45.08 22.85
-4 1 -10 52.46 22.33
-4 1 -10 87.01 22.37
-4 1 -9 100.84 25.36
-4 1 -9 83.09 23.49
-4 1 -9 81.27 20.97
-4 1 -8 138.41 24.82
-4 1 -8 114.12 25.53
-4 1 -8 152.56 29.96
-4 1 -7 275.93 34.92
-4 1 -7 214.55 33.4
-4 1 -7 316.8 42.79
-4 1 -6 292.8 35.1
-4 1 -6 219.98 31.64
-4 1 -6 254.18 35.13
-4 1 -6 281.79 41.43
-4 1 -5 179 25.52
-4 1 -5 219.83 30.52
-4 1 -5 160.94 25.8
-4 1 -5 160.67 31.96
-4 1 -4 37.55 15.17
-4 1 -4 49.84 14.26
-4 1 -4 59.97 22.34
-4 1 -4 52.27 15.4
-4 1 -3 569.6 53.55
-4 1 -3 610.44 57.82
-4 1 -3 520.98 51.71
-4 1 -3 627.68 57.96
-4 1 -3 558.43 53.34
-4 1 -3 520.42 60.4
-4 1 -2 21.65 10.03
-4 1 -2 12.04 11.39
-4 1 -2 6.4 9.68
-4 1 -2 10.49 10.23
-4 1 -2 23.23 15.66
-4 1 -1 868.97 70.84
-4 1 -1 872.89 71.62
-4 1 -1 752.57 71.16
-4 1 -1 652.06 71.07
-4 1 -1 644.94 66.1
-4 1 0 49.81 15.36
-4 1 0 43.08 13.59
-4 1 1 439.7 46.24
-4 1 1 463.45 50.52
-4 1 1 503.06 47.27
-4 1 2 93.24 22.04
-4 1 2 116.83 21.17
-4 1 3 181.27 23.05
-4 1 3 120.42 24.29
-4 1 4 49.83 17.1
-4 1 4 76.01 15.89
-4 1 5 270.77 28.8
-4 1 5 254.21 34.44
-4 1 5 230.04 27.41
-4 1 5 221.5 33.1
-4 1 5 249.69 28.76
-4 1 6 284.88 36.81
-4 1 6 257.95 30.32
-4 1 6 212.48 33.6
-4 1 7 27.35 16.61
-4 1 7 43.68 11.99
-4 1 7 49.87 17.19
-4 1 7 15.69 11.03
-4 1 8 180.08 29.52
-4 1 8 140.54 21.87
-4 1 8 168.91 28.41
-4 1 8 188.38 25.08
-4 1 9 -11.86 15.04
-4 1 9 2.87 12.98
-4 1 9 22.9 13.31
-4 1 9 10.46 9.45
-4 1 10 123.93 24.43
-4 1 10 116.29 24.29
-4 1 10 137.39 22.28
-4 1 10 100.48 18.43
-4 2 -10 56.51 23.65
-4 2 -9 106.23 26.53
-4 2 -9 61.62 23.37
-4 2 -8 153.83 30.16
-4 2 -8 186.13 32.68
-4 2 -7 80.02 19.13
-4 2 -7 75.07 21.57
-4 2 -7 44.16 21.11
-4 2 -6 261.81 35.2
-4 2 -6 293.77 41.84
-4 2 -6 321.55 37.85
-4 2 -6 271.86 37.52
-4 2 -5 25.88 13.23
-4 2 -5 11.37 16.83
-4 2 -5 30.54 15.56
-4 2 -5 40.89 15.62
-4 2 -5 11.65 11.31
-4 2 -4 641.61 63.48
-4 2 -4 741.99 67.93
-4 2 -4 721.64 67.15
-4 2 -4 615.49 71.27
-4 2 -4 732.84 65.69
-4 2 -3 208.53 29.15
-4 2 -3 209.56 25.87
-4 2 -3 221.66 29.38
-4 2 -3 174.65 26.11
-4 2 -3 179.95 32.02
-4 2 -2 190.56 26.34
-4 2 -2 218.53 28.69
-4 2 -2 186.92 28.37
-4 2 -1 39.39 13.35
-4 2 -1 61.48 16.85
-4 2 -1 39.69 14.97
-4 2 0 219.66 28.65
-4 2 0 235.98 32.16
-4 2 0 261.92 30.61
-4 2 1 71.57 18.73
-4 2 1 42.28 14.51
-4 2 1 56.3 15.39
-4 2 2 357.61 43.32
-4 2 2 486.94 43.94
-4 2 2 412.64 47.35
-4 2 3 516.84 54.87
-4 2 3 553.29 57.99
-4 2 3 556.74 51.76
-4 2 4 16.79 12.43
-4 2 4 20.99 15.52
-4 2 4 14.62 9.81
-4 2 5 115.48 25.36
-4 2 5 162.89 26.88
-4 2 5 225.77 24.74
-4 2 5 188.83 29.63
-4 2 6 -9.14 14.05
-4 2 6 3.05 13.48
-4 2 6 9.47 10.71
-4 2 6 5.43 11.72
-4 2 7 420.6 41.11
-4 2 7 309.83 44.07
-4 2 7 404.15 45.54
-4 2 8 -2.97 14.55
-4 2 8 -3.02 14.8
-4 2 8 -6.2 12.15
-4 2 9 41.74 16.75
-4 2 9 114.88 20.04
-4 3 -9 192.15 35.11
-4 3 -8 10.11 17.67
-4 3 -8 -3.41 18.15
-4 3 -7 145.16 30.92
-4 3 -7 189.05 31.49
-4 3 -6 25.7 19.56
-4 3 -6 -8.66 17.82
-4 3 -6 -2.65 12.74
-4 3 -5 74.71 24.54
-4 3 -5 82.56 20.87
-4 3 -5 85.9 21.16
-4 3 -5 65.19 19.72
-4 3 -4 90 25.81
-4 3 -4 144.43 25.31
-4 3 -4 121.42 22.09
-4 3 -3 432.94 47.03
-4 3 -3 468.42 48.97
-4 3 -3 447.4 47.64
-4 3 -2 78.2 17.93
-4 3 -2 59.56 18.04
-4 3 -2 74.35 18.2
-4 3 -1 72.84 17.83
-4 3 -1 83.95 18.66
-4 3 -1 46.5 15.77
-4 3 0 127.32 21.82
-4 3 0 109.35 21.94
-4 3 0 79.07 19.77
-4 3 1 85.62 18.46
-4 3 1 84.16 19.93
-4 3 1 109.37 20.99
-4 3 1 144.72 24.2
-4 3 2 877.21 80.74
-4 3 2 797.32 81.3
-4 3 2 949.7 79.37
-4 3 3 4.12 10.08
-4 3 3 2.81 12.11
-4 3 3 3 14.4
-4 3 4 146.55 21.34
-4 3 4 115.66 23.76
-4 3 4 126.46 24.39
-4 3 5 12.29 12.95
-4 3 5 -3.11 14.05
-4 3 5 1.87 10.25
-4 3 5 -3.03 14.29
-4 3 6 126.36 25.39
-4 3 6 101.76 21.92
-4 3 6 104.95 24.49
-4 3 7 26.23 17.19
-4 3 7 -2.94 14.12
-4 3 7 2.04 10.86
-4 3 7 -3.09 13.32
-4 3 8 152.86 28.89
-4 3 8 168.94 29.45
-4 3 8 129.68 25.73
-4 3 8 180.11 25.08
-4 3 9 117.73 21.86
-4 4 -7 105.94 26.39
-4 4 -7 86.93 20.79
-4 4 -7 80.17 23.66
-4 4 -6 82.88 24.51
-4 4 -6 123.79 24.4
-4 4 -6 121.99 27.88
-4 4 -5 131.14 26.37
-4 4 -5 114.01 24.09
-4 4 -5 190.96 32.39
-4 4 -4 173.18 27.79
-4 4 -4 131.96 26.76
-4 4 -3 28.4 16.56
-4 4 -3 59.86 19.79
-4 4 -2 17 14.65
-4 4 -2 8.25 13.24
-4 4 -1 375.18 45.2
-4 4 -1 391.97 44.72
-4 4 -1 484.41 47.51
-4 4 0 -5.74 14.05
-4 4 0 5.26 12.87
-4 4 0 -5.04 14.05
-4 4 1 137.96 25.62
-4 4 1 150.06 25.65
-4 4 1 181.29 25.89
-4 4 2 -2.84 13.4
-4 4 2 11.6 12.93
-4 4 2 -8.56 13.97
-4 4 2 -3.01 13
-4 4 3 137.41 26
-4 4 3 197.17 26.6
-4 4 3 150.62 27.23
-4 4 4 59.55 18.77
-4 4 4 46.51 15.32
-4 4 4 38.54 16.89
-4 4 5 165.13 27.91
-4 4 5 85.04 23.96
-4 4 5 176.66 23.81
-4 4 5 139.57 27.17
-4 4 6 94.32 24.22
-4 4 6 67.55 20.4
-4 4 6 44.97 18.28
-4 4 7 79.39 23.35
-4 4 7 75.44 19.84
-4 4 7 27.58 16.83
-4 5 -5 -6.67 17.22
-4 5 -5 -6.08 14.61
-4 5 -4 30.44 16.89
-4 5 -4 33.85 19.37
-4 5 -3 15.24 15.25
-4 5 -3 21.17 17.14
-4 5 -2 174.02 29.4
-4 5 -2 211.59 32.22
-4 5 -1 3.06 14.13
-4 5 -1 2.81 14.98
-4 5 -1 8.5 15.34
-4 5 0 169.6 29.41
-4 5 0 181.16 29.04
-4 5 0 204.36 30.35
-4 5 1 40.55 18.13
-4 5 1 35.53 16.78
-4 5 1 47.05 17.67
-4 5 2 117.62 24.88
-4 5 2 159.62 27.08
-4 5 2 112.54 22.74
-4 5 3 35.69 17.93
-4 5 3 66.8 18.74
-4 5 4 -3.31 14.97
-4 5 4 9.09 13.39
-4 5 4 19.66 16.05
-4 5 5 101.73 25.48
-3 -8 -6 153.54 31.6
-3 -8 -6 123.7 26.6
-3 -8 -6 174.91 33.85
-3 -8 -5 69.01 21.04
-3 -8 -5 38.46 20.86
-3 -8 -5 46.15 23.52
-3 -8 -5 54.38 23.3
-3 -8 -4 119.31 29.96
-3 -8 -4 197.41 36.54
-3 -8 -4 186.17 33.35
-3 -8 -3 50.41 24.07
-3 -8 -3 29.23 22.25
-3 -8 -3 84.92 24.42
-3 -8 -2 62.37 24.89
-3 -8 -2 140.24 29.42
-3 -8 -2 142.12 29.32
-3 -8 -1 295.38 41.21
-3 -8 -1 329.66 45.01
-3 -8 -1 281.86 42.49
-3 -8 0 79.22 21.66
-3 -8 0 70.09 25.87
-3 -8 0 46.49 22.43
-3 -8 1 105.81 24.39
-3 -8 1 67.41 23.36
-3 -8 1 66.49 24.88
-3 -8 2 8.63 15.81
-3 -8 2 -24.86 19.8
-3 -8 2 3.91 19.49
-3 -8 3 133.88 28.91
-3 -7 -9 60.73 23.02
-3 -7 -8 16.51 15.56
-3 -7 -8 -3.6 18.56
-3 -7 -8 4.16 19.96
-3 -7 -7 406.96 48.27
-3 -7 -7 306.48 45.06
-3 -7 -7 309.54 41.27
-3 -7 -6 348.24 43.45
-3 -7 -6 376.59 48.37
-3 -7 -6 316.18 41.77
-3 -7 -6 381.68 48.86
-3 -7 -6 394.8 49.25
-3 -7 -5 270.26 35.88
-3 -7 -5 249.67 38.65
-3 -7 -5 289 41.34
-3 -7 -5 297.14 41.26
-3 -7 -4 311.86 42.15
-3 -7 -4 309 41.51
-3 -7 -4 304.71 42.77
-3 -7 -4 274.09 39.29
-3 -7 -3 3.34 15.76
-3 -7 -3 14.97 17.64
-3 -7 -3 18.36 16.57
-3 -7 -3 3.35 15.8
-3 -7 -2 122.67 26.05
-3 -7 -2 125.58 28.62
-3 -7 -2 171.85 30.55
-3 -7 -1 34.13 18.39
-3 -7 -1 90.22 23.28
-3 -7 -1 84.94 24.04
-3 -7 0 501.63 52.95
-3 -7 0 456.08 53.83
-3 -7 0 432.04 54.59
-3 -7 0 490.28 55.17
-3 -7 1 5.73 14.4
-3 -7 1 43.81 18.6
-3 -7 1 29.34 17.37
-3 -7 1 33.42 19.56
-3 -7 2 223.9 32.22
-3 -7 2 205.78 33.58
-3 -7 2 227.85 36.74
-3 -7 2 214.61 35.65
-3 -7 3 -2.64 13.62
-3 -7 3 30.57 18.66
-3 -7 3 11.84 18.22
-3 -7 3 -7.57 17.47
-3 -7 4 182.63 32.44
-3 -7 4 121.02 24.86
-3 -7 4 145.11 32.34
-3 -7 5 52.57 22.99
-3 -7 5 113.16 26.64
-3 -7 5 95.76 21.67
-3 -7 6 58.03 21.87
-3 -7 6 37.29 16.99
-3 -6 -10 143.41 33.06
-3 -6 -10 151.43 31.32
-3 -6 -9 250.84 41.79
-3 -6 -9 316.94 41.42
-3 -6 -8 199.82 31.22
-3 -6 -8 149.82 28.38
-3 -6 -8 172.73 33.27
-3 -6 -7 388.98 46.13
-3 -6 -7 353.18 47.14
-3 -6 -7 339.97 42.73
-3 -6 -6 171.43 25.79
-3 -6 -6 113.37 26.65
-3 -6 -6 139.26 28.61
-3 -6 -6 122.77 23.88
-3 -6 -6 155.44 28.58
-3 -6 -5 416.23 52.43
-3 -6 -5 434.12 53.03
-3 -6 -5 520.93 50.63
-3 -6 -5 564.05 56.95
-3 -6 -5 463.37 51.4
-3 -6 -5 545.59 53.71
-3 -6 -4 15.92 15.01
-3 -6 -4 23.17 15.6
-3 -6 -4 10.95 11.13
-3 -6 -4 -3.02 13.67
-3 -6 -4 8.48 12.78
-3 -6 -4 2.91 13.18
-3 -6 -3 252.19 32.83
-3 -6 -3 222.69 33.04
-3 -6 -3 172.62 28.44
-3 -6 -3 178.84 28.97
-3 -6 -3 148.16 27.1
-3 -6 -2 32.65 14.69
-3 -6 -2 29.03 16.22
-3 -6 -2 20.24 13.44
-3 -6 -2 23.76 15.73
-3 -6 -2 37.21 14.19
-3 -6 -2 33.67 15.41
-3 -6 -1 1120.49 96.24
-3 -6 -1 984.11 95.9
-3 -6 -1 1035.44 96.73
-3 -6 -1 1091.18 97.57
-3 -6 0 66.4 19.1
-3 -6 0 91.91 21.68
-3 -6 0 101.05 23.14
-3 -6 0 117.15 24.49
-3 -6 1 327.98 42.84
-3 -6 1 423.57 48.14
-3 -6 1 435.29 48.66
-3 -6 1 352.58 42.38
-3 -6 2 272.98 35.44
-3 -6 2 289.28 40.56
-3 -6 2 268.11 34.57
-3 -6 2 282.6 40.72
-3 -6 2 359.61 39.52
-3 -6 3 54.81 20.01
-3 -6 3 28.09 16.07
-3 -6 3 44.61 15.61
-3 -6 3 40.74 19.04
-3 -6 3 43.08 17.1
-3 -6 4 95.87 22.1
-3 -6 4 82.85 19.79
-3 -6 4 71.02 22.81
-3 -6 4 74.32 22.41
-3 -6 5 162.19 25.9
-3 -6 5 97.09 22.63
-3 -6 5 106.14 26.55
-3 -6 5 106.14 25.18
-3 -6 6 114.61 27.27
-3 -6 6 137.6 25.21
-3 -6 6 123.68 23.84
-3 -6 6 145.09 25.9
-3 -6 7 13.67 18.49
-3 -6 7 19.21 15.29
-3 -6 7 -2.73 14.3
-3 -6 7 -3.01 14.72
-3 -6 8 175.27 30.66
-3 -6 8 126.56 26.14
-3 -6 8 148.17 27.44
-3 -6 8 186.88 29.35
-3 -5 -12 39.7 18.82
-3 -5 -12 90.39 24.24
-3 -5 -11 153.22 28.19
-3 -5 -11 137.82 30.67
-3 -5 -11 139.68 28.93
-3 -5 -10 299.41 40.71
-3 -5 -10 284.93 37.81
-3 -5 -10 239.85 36.59
-3 -5 -9 18.04 17.39
-3 -5 -9 23.02 16.46
-3 -5 -8 565.46 56.69
-3 -5 -8 444.99 57.42
-3 -5 -7 8.87 13.07
-3 -5 -7 30.22 18.18
-3 -5 -7 -2.8 12.09
-3 -5 -6 527.39 56.39
-3 -5 -6 494.87 56.43
-3 -5 -6 467.25 52.3
-3 -5 -6 627.36 58.14
-3 -5 -5 5.97 14.93
-3 -5 -5 29.72 15.38
-3 -5 -5 11.57 12.84
-3 -5 -5 13.9 12.41
-3 -5 -5 10.47 11.09
-3 -5 -5 36.8 13.73
-3 -5 -4 656.36 64.41
-3 -5 -4 617.75 63.5
-3 -5 -4 623.76 59.73
-3 -5 -4 759.39 65.19
-3 -5 -4 618.68 62.14
-3 -5 -4 586.49 60.78
-3 -5 -3 525.62 50.46
-3 -5 -3 396.62 46.25
-3 -5 -3 435.31 47.84
-3 -5 -3 425.41 46.85
-3 -5 -3 444.88 46.62
-3 -5 -3 459.48 49.19
-3 -5 -2 805.51 70.86
-3 -5 -2 620.53 65.53
-3 -5 -2 701.86 69
-3 -5 -2 779.63 69.86
-3 -5 -2 719.74 67.58
-3 -5 -2 734.79 70.05
-3 -5 -1 208.59 29.13
-3 -5 -1 182.75 28.18
-3 -5 -1 198.85 25.37
-3 -5 -1 209.82 30.2
-3 -5 -1 194.54 28.7
-3 -5 -1 192.11 26.95
-3 -5 0 283.41 32.83
-3 -5 0 192.71 29.48
-3 -5 0 280.96 33.98
-3 -5 0 189.5 28.05
-3 -5 0 235.04 32.4
-3 -5 1 299.21 34.02
-3 -5 1 229.2 34.77
-3 -5 1 274.19 32.12
-3 -5 1 223.34 32.09
-3 -5 1 283.36 37.38
-3 -5 1 276.75 32.98
-3 -5 2 71.76 20.2
-3 -5 2 60.64 15.73
-3 -5 2 81.86 17.99
-3 -5 2 83.6 18.53
-3 -5 2 76.36 17.56
-3 -5 2 72.26 21.69
-3 -5 3 357.33 43.76
-3 -5 3 480.47 45.42
-3 -5 3 386.84 48.1
-3 -5 3 435.87 50.09
-3 -5 4 69.56 16.78
-3 -5 4 46.64 15.68
-3 -5 4 57.86 17.57
-3 -5 4 46.38 15.35
-3 -5 4 89.98 22.3
-3 -5 4 60 21.73
-3 -5 5 322.51 38.11
-3 -5 5 320.83 38.07
-3 -5 5 287.69 38.73
-3 -5 5 374.61 44.64
-3 -5 6 -5.2 14.06
-3 -5 6 10.46 14.99
-3 -5 6 20.47 15.58
-3 -5 6 -3.43 14.8
-3 -5 7 218.34 31.64
-3 -5 7 176.54 30.79
-3 -5 7 236.63 34.12
-3 -5 7 295.31 37.07
-3 -5 8 -2.82 13.55
-3 -5 8 21.25 15.93
-3 -5 8 9.19 15.81
-3 -5 9 54.87 19.73
-3 -5 9 86.91 22.6
-3 -5 9 100.99 22.72
-3 -4 -12 114.4 27.26
-3 -4 -12 107.62 25.53
-3 -4 -12 73.14 24.09
-3 -4 -12 99.45 25.85
-3 -4 -11 256.11 35.7
-3 -4 -11 175.52 32.19
-3 -4 -11 277.64 36.28
-3 -4 -10 24.23 16.25
-3 -4 -10 18.2 13.84
-3 -4 -10 38.63 16.67
-3 -4 -9 1343.38 106.72
-3 -4 -9 1086.84 103.49
-3 -4 -9 1130.53 103.98
-3 -4 -8 49.15 16.03
-3 -4 -6 185.68 27.35
-3 -4 -6 173.94 28.42
-3 -4 -5 326.47 37.85
-3 -4 -5 306.61 35.38
-3 -4 -5 339.99 38.04
-3 -4 -5 374.07 39.68
-3 -4 -5 345.1 40.51
-3 -4 -4 549.88 53.24
-3 -4 -4 532.44 51.53
-3 -4 -4 593.52 54.82
-3 -4 -4 452.2 52.07
-3 -4 -4 506.89 52.81
-3 -4 -4 593.16 55.93
-3 -4 -3 943.79 84.98
-3 -4 -3 1011.62 86.73
-3 -4 -3 934.66 83.75
-3 -4 -3 945.82 85.82
-3 -4 -3 1036.63 87.63
-3 -4 -3 929.24 86.16
-3 -4 -3 1058.13 89.09
-3 -4 -2 178.89 22.92
-3 -4 -2 203.28 24.96
-3 -4 -2 114.39 19.63
-3 -4 -2 138.12 22.72
-3 -4 -2 159.35 24.53
-3 -4 -2 165.54 23.45
-3 -4 -2 144.54 23.07
-3 -4 -1 54.88 14.08
-3 -4 -1 69.11 15.78
-3 -4 -1 44.63 14.06
-3 -4 -1 93.19 17.82
-3 -4 -1 82.52 16.88
-3 -4 0 906.08 73.19
-3 -4 0 785.89 77.06
-3 -4 0 912.84 77.68
-3 -4 0 796.56 74.88
-3 -4 0 887.19 78.3
-3 -4 0 820.83 76.23
-3 -4 0 815.52 75.33
-3 -4 1 18.48 10.35
-3 -4 1 34.32 13.2
-3 -4 1 16.14 12.19
-3 -4 1 13.88 11.5
-3 -4 1 35.45 13.92
-3 -4 1 16.5 10.53
-3 -4 2 1038.35 93.14
-3 -4 2 1063.89 93.35
-3 -4 2 982.52 95.04
-3 -4 2 1050.96 98.31
-3 -4 2 1153.8 94.27
-3 -4 2 1155.8 100.21
-3 -4 2 1321.97 98.97
-3 -4 3 6.3 9.28
-3 -4 3 -4.18 9.85
-3 -4 3 2.58 10.87
-3 -4 3 -9.26 12.33
-3 -4 3 -4.99 11.03
-3 -4 3 3.18 12.7
-3 -4 4 394.25 42.16
-3 -4 4 407.56 47.12
-3 -4 4 313.05 38.87
-3 -4 4 361.24 39.59
-3 -4 5 111.89 23.66
-3 -4 5 136.39 23.56
-3 -4 5 100.85 18.7
-3 -4 5 82.49 18.78
-3 -4 6 148.3 27.5
-3 -4 6 203.46 28.97
-3 -4 6 167.92 25.44
-3 -4 6 139.05 24.97
-3 -4 7 62.57 19.06
-3 -4 7 108.83 23.22
-3 -4 7 81.22 18.93
-3 -4 7 64.81 18.7
-3 -4 8 204.49 29.07
-3 -4 8 135.22 26.51
-3 -4 8 170.63 27.29
-3 -4 8 170.34 27.94
-3 -4 9 152.97 24.94
-3 -4 9 115.41 24.26
-3 -4 9 116.42 23.01
-3 -4 9 83.29 21.63
-3 -4 10 12.5 12.79
-3 -4 10 49.82 17.97
-3 -4 10 34.28 16.89
-3 -4 10 9.2 14.82
-3 -3 -13 61.6 21.47
-3 -3 -13 34.9 19.64
-3 -3 -13 72.98 23.7
-3 -3 -13 71.07 26.46
-3 -3 -12 303.69 46.97
-3 -3 -12 354.43 44.7
-3 -3 -12 304.5 46.05
-3 -3 -12 423.94 46.57
-3 -3 -12 348.62 44.33
-3 -3 -11 33.93 21.47
-3 -3 -11 68.76 20.24
-3 -3 -11 78.14 20.03
-3 -3 -11 42.9 17.41
-3 -3 -11 82.56 23.11
-3 -3 -10 487.06 52.79
-3 -3 -10 386.54 46.23
-3 -3 -10 447.26 47.46
-3 -3 -10 415.19 47.16
-3 -3 -10 369.84 47.77
-3 -3 -9 106.02 23.79
-3 -3 -9 90.3 20.33
-3 -3 -9 129.99 22.36
-3 -3 -9 129.95 22.22
-3 -3 -9 104.18 22.74
-3 -3 -8 383.03 42.64
-3 -3 -8 362.69 38.99
-3 -3 -8 370.89 39.38
-3 -3 -8 286.64 36.92
-3 -3 -8 267.64 37.75
-3 -3 -7 359.49 41.77
-3 -3 -7 352.83 39.42
-3 -3 -7 321.56 37.88
-3 -3 -7 361.11 39.68
-3 -3 -6 549.78 55.97
-3 -3 -5 486.2 47.11
-3 -3 -5 485.94 49.35
-3 -3 -5 642.54 53.81
-3 -3 -5 449 49.22
-3 -3 -5 463.29 53.01
-3 -3 -5 539.41 51.18
-3 -3 -4 299.34 31.95
-3 -3 -4 357.14 35.88
-3 -3 -4 356.23 36.73
-3 -3 -4 280.2 37.42
-3 -3 -4 258.41 33.25
-3 -3 -4 290.34 33.76
-3 -3 -4 304.26 34.6
-3 -3 -3 700 64.04
-3 -3 -3 756.58 67.06
-3 -3 -3 885.95 70.7
-3 -3 -3 712.43 66.22
-3 -3 -3 717.69 68.68
-3 -3 -3 669.56 66.24
-3 -3 -3 713.68 65.91
-3 -3 -2 77.59 17.37
-3 -3 -2 69.32 14.49
-3 -3 -2 81.89 16.29
-3 -3 -2 92.18 13.23
-3 -3 -2 56 14.12
-3 -3 -2 57.24 14.87
-3 -3 -2 80.11 14.65
-3 -3 -2 76.64 15.67
-3 -3 -1 2589.28 186.69
-3 -3 -1 2430.91 188.42
-3 -3 -1 2520.65 190.4
-3 -3 -1 2528.64 191.94
-3 -3 -1 2221.41 186.12
-3 -3 -1 2247.69 186.78
-3 -3 -1 2214.42 188.89
-3 -3 -1 2386.81 188.99
-3 -3 -1 2186.23 186.76
-3 -3 0 269.32 30.41
-3 -3 0 240.16 28.85
-3 -3 0 258.17 31.01
-3 -3 0 325.69 34.02
-3 -3 0 320.72 34.19
-3 -3 0 248.53 28.11
-3 -3 0 270.51 30.88
-3 -3 0 225.71 30.85
-3 -3 0 275.11 30.2
-3 -3 0 309.17 30.29
-3 -3 1 368.43 40.11
-3 -3 1 365.76 37.64
-3 -3 1 364.31 41.02
-3 -3 1 419.78 42.63
-3 -3 1 349.38 36.84
-3 -3 1 425.12 41.92
-3 -3 1 374.89 41.64
-3 -3 1 408.53 39.71
-3 -3 2 33.29 12.84
-3 -3 2 15.34 11.73
-3 -3 2 32.6 13.93
-3 -3 2 32.55 12.77
-3 -3 2 31.85 10.79
-3 -3 2 29.25 10.33
-3 -3 2 44.27 13.81
-3 -3 2 14.08 10.06
-3 -3 2 28.7 9.45
-3 -3 3 364.62 44.69
-3 -3 3 433.27 45.65
-3 -3 3 431.47 42.97
-3 -3 3 378.2 42.87
-3 -3 3 391.35 40.77
-3 -3 3 399.57 41.45
-3 -3 4 27.42 14.71
-3 -3 4 45.32 16.01
-3 -3 4 57.96 16.22
-3 -3 4 44.4 13.46
-3 -3 4 44.69 14.33
-3 -3 5 554.27 57.54
-3 -3 5 546.51 56.25
-3 -3 5 576.34 54.58
-3 -3 5 518.44 53.86
-3 -3 6 661.84 63.36
-3 -3 6 620.69 63.07
-3 -3 6 583.6 59.8
-3 -3 6 632.18 61.21
-3 -3 7 62.53 17.24
-3 -3 7 37.53 15.42
-3 -3 7 28.39 14.87
-3 -3 7 34.56 14.46
-3 -3 8 141.85 23.6
-3 -3 8 138.62 24.81
-3 -3 8 127.22 24.5
-3 -3 8 144.33 25.42
-3 -3 9 18.68 12.48
-3 -3 9 24.02 15.53
-3 -3 9 8.45 13.04
-3 -3 9 8.6 13.55
-3 -3 10 127.06 21.98
-3 -3 10 193.91 30.47
-3 -3 10 154.3 27.05
-3 -3 10 164.7 27.7
-3 -3 11 -4.18 10.43
-3 -3 11 23.92 15.43
-3 -3 11 2.97 16.08
-3 -3 11 3.04 14.9
-3 -2 -13 127.34 33.17
-3 -2 -13 146.13 29.39
-3 -2 -13 129.28 31
-3 -2 -13 124.06 28.27
-3 -2 -12 8.03 19.38
-3 -2 -12 26.43 18.51
-3 -2 -12 59.02 19.14
-3 -2 -12 11.62 17.97
-3 -2 -11 272.33 43.65
-3 -2 -11 337.98 41.75
-3 -2 -11 326.56 44.69
-3 -2 -11 342.8 41.32
-3 -2 -11 348.95 40.56
-3 -2 -10 213.78 35.16
-3 -2 -10 223.4 31.24
-3 -2 -10 224.11 33.33
-3 -2 -10 233.3 31.7
-3 -2 -10 183.93 29.41
-3 -2 -9 301.32 40.52
-3 -2 -9 299.71 36.33
-3 -2 -9 287.47 37.91
-3 -2 -9 325.14 37.26
-3 -2 -9 327.48 36.97
-3 -2 -9 297.96 41.28
-3 -2 -8 420.1 49.52
-3 -2 -8 450.26 46.92
-3 -2 -8 467.66 48.45
-3 -2 -8 468.67 46.86
-3 -2 -8 443.91 51.38
-3 -2 -8 465.81 47.42
-3 -2 -7 263.18 33.06
-3 -2 -7 202.25 28.56
-3 -2 -7 216.94 28.11
-3 -2 -7 230.87 33.61
-3 -2 -7 260.07 29.86
-3 -2 -6 1353.46 108.54
-3 -2 -6 1411.2 107.97
-3 -2 -6 1320.36 106.12
-3 -2 -6 1304.43 112.63
-3 -2 -6 1188.03 104.47
-3 -2 -6 1072.11 104.16
-3 -2 -6 1182.51 106.68
-3 -2 -6 1262.47 105.45
-3 -2 -5 2.17 9.16
-3 -2 -5 6.94 9.76
-3 -2 -5 3.93 7.64
-3 -2 -5 17.67 10.82
-3 -2 -5 3.73 7.04
-3 -2 -5 11.99 14.12
-3 -2 -4 822.59 74.88
-3 -2 -4 1051.94 83.25
-3 -2 -4 959.85 79.6
-3 -2 -4 885.56 78.93
-3 -2 -4 952.53 80.38
-3 -2 -4 846.91 83.06
-3 -2 -4 910.45 79.47
-3 -2 -3 9.72 8.62
-3 -2 -3 6.49 5.91
-3 -2 -3 24.97 10.78
-3 -2 -3 9.38 9.9
-3 -2 -3 12.76 11.04
-3 -2 -3 11.99 9.05
-3 -2 -3 5.68 7.81
-3 -2 -2 797.75 59.68
-3 -2 -2 625.5 56.07
-3 -2 -2 668.47 60.08
-3 -2 -2 795.78 63.86
-3 -2 -2 579.19 55.8
-3 -2 -2 609.08 57.06
-3 -2 -2 598.86 58.31
-3 -2 -2 634.54 61.04
-3 -2 -2 616.41 58.89
-3 -2 -1 275.84 28.61
-3 -2 -1 326.61 30.21
-3 -2 -1 296.91 31.18
-3 -2 -1 268.43 29.2
-3 -2 -1 320.65 33.15
-3 -2 -1 333.04 34.33
-3 -2 -1 238.16 28.69
-3 -2 -1 238.45 27.83
-3 -2 -1 295.19 32.27
-3 -2 -1 270.2 30.49
-3 -2 -1 268.96 30.67
-3 -2 -1 260.36 29.07
-3 -2 0 1265.14 120.92
-3 -2 0 1509.45 124.19
-3 -2 0 1401.23 120.01
-3 -2 0 1386.97 122.89
-3 -2 0 1280.65 119.61
-3 -2 0 1652.43 124.34
-3 -2 0 1717.83 127.9
-3 -2 0 1769.8 127.47
-3 -2 0 1825.74 123.52
-3 -2 0 1872.42 126.57
-3 -2 0 1613.43 123.73
-3 -2 0 1337.05 121.96
-3 -2 0 1464.86 123.89
-3 -2 1 274.63 28.33
-3 -2 1 228.34 29.33
-3 -2 1 324.45 28.95
-3 -2 1 249.86 30.24
-3 -2 1 211.79 27.51
-3 -2 1 318.57 34.17
-3 -2 1 233.41 29.96
-3 -2 1 286.59 31.65
-3 -2 1 226.06 27.22
-3 -2 1 267.65 28.31
-3 -2 1 256.74 26.19
-3 -2 1 259.37 28
-3 -2 1 304.77 31.63
-3 -2 1 261.58 28.79
-3 -2 1 256.21 30.26
-3 -2 2 357.74 34.75
-3 -2 2 303.58 36.17
-3 -2 2 317.17 34.51
-3 -2 2 374.8 39.5
-3 -2 2 311.93 38
-3 -2 2 325.31 35.41
-3 -2 2 275.35 32.9
-3 -2 2 314.66 33.3
-3 -2 2 370.27 35.16
-3 -2 2 348.31 36.89
-3 -2 2 307.67 35.38
-3 -2 3 180.36 24.54
-3 -2 3 219.15 29.55
-3 -2 3 199.33 24.51
-3 -2 3 186.88 26.29
-3 -2 3 160.03 24.03
-3 -2 3 197.33 24.85
-3 -2 4 286.96 34.55
-3 -2 4 322.55 31.42
-3 -2 4 225.03 32.28
-3 -2 4 246.84 30.9
-3 -2 4 244.99 30.62
-3 -2 4 249.6 31.51
-3 -2 5 1639.8 137.58
-3 -2 5 1865 140.47
-3 -2 5 1704.09 134.25
-3 -2 5 1650.31 138.98
-3 -2 5 1540.29 136.48
-3 -2 5 1560.38 134.99
-3 -2 5 1634.26 136.39
-3 -2 6 21.43 11.09
-3 -2 6 35.97 15.44
-3 -2 6 23.04 13.46
-3 -2 6 10.05 11.38
-3 -2 6 -2.23 9.91
-3 -2 6 16.86 11.38
-3 -2 7 98.04 19.88
-3 -2 7 124.49 23.15
-3 -2 7 133.3 23.51
-3 -2 7 139.44 23.93
-3 -2 8 2.18 10.07
-3 -2 8 11.08 13.31
-3 -2 8 11.61 13.4
-3 -2 8 -2.79 12.32
-3 -2 9 132.34 20.53
-3 -2 9 80.51 21.58
-3 -2 9 152.67 25.65
-3 -2 9 112.34 23.56
-3 -2 10 10.01 10.16
-3 -2 10 2.96 13.67
-3 -2 10 -2.96 13.39
-3 -2 10 2.96 13.08
-3 -2 11 239.38 29.72
-3 -2 11 243.9 35.71
-3 -2 11 333.17 39.39
-3 -2 11 226.12 35.17
-3 -2 12 50.33 19.68
-3 -1 -13 20.75 18.48
-3 -1 -13 45.9 23.62
-3 -1 -13 -3.43 16.83
-3 -1 -13 67.16 28.82
-3 -1 -12 137.84 27.7
-3 -1 -12 182.19 32.94
-3 -1 -12 193.67 31
-3 -1 -12 192.97 36.08
-3 -1 -11 524.16 63.91
-3 -1 -11 639.79 70.14
-3 -1 -11 768.89 70.76
-3 -1 -11 877.87 70.78
-3 -1 -11 627.92 71.59
-3 -1 -10 86.09 20.27
-3 -1 -10 120.88 24.92
-3 -1 -10 120.73 22.46
-3 -1 -10 133.38 26.86
-3 -1 -10 88.25 25.06
-3 -1 -9 704.14 68.43
-3 -1 -9 726.42 70.91
-3 -1 -9 721.86 73.82
-3 -1 -9 806.42 69.67
-3 -1 -9 760.4 68.48
-3 -1 -9 693.54 73.11
-3 -1 -8 26.79 11.99
-3 -1 -8 38.34 12.31
-3 -1 -8 27.56 13.59
-3 -1 -8 39.26 16.79
-3 -1 -8 48.46 16.83
-3 -1 -7 113.96 19.35
-3 -1 -7 164.47 24.83
-3 -1 -7 154.36 26.68
-3 -1 -7 115.26 18.53
-3 -1 -7 112.3 20.26
-3 -1 -6 13.07 8.3
-3 -1 -6 2.29 9.92
-3 -1 -6 25.04 15.35
-3 -1 -6 11.6 8.59
-3 -1 -6 26.1 10.28
-3 -1 -6 16.01 11.84
-3 -1 -6 14.28 10.79
-3 -1 -6 8.91 8.11
-3 -1 -5 1817.84 149.54
-3 -1 -5 1726.35 146.51
-3 -1 -5 1783.22 146.09
-3 -1 -5 1795.09 154.53
-3 -1 -5 1916.92 149.85
-3 -1 -5 1978.82 147.93
-3 -1 -5 1807.71 150.82
-3 -1 -4 198.91 25.15
-3 -1 -4 201.8 24.87
-3 -1 -4 221.48 28.51
-3 -1 -4 215.41 23.41
-3 -1 -4 150.09 24.29
-3 -1 -4 219.52 30.61
-3 -1 -4 219.76 23.88
-3 -1 -4 257.13 27.04
-3 -1 -3 761.1 63.32
-3 -1 -3 963.68 68.77
-3 -1 -3 738.35 61.42
-3 -1 -3 750.37 65.99
-3 -1 -3 747.5 65.37
-3 -1 -3 802.27 70
-3 -1 -3 705 60.73
-3 -1 -3 781.85 67.48
-3 -1 -3 701.59 65.15
-3 -1 -3 649.71 69.72
-3 -1 -3 678.18 63.12
-3 -1 -3 843.44 69.48
-3 -1 -2 488.48 45.1
-3 -1 -2 432.59 43.23
-3 -1 -2 590.24 49.58
-3 -1 -2 528.75 45.07
-3 -1 -2 609.44 50.01
-3 -1 -2 473.67 44.18
-3 -1 -2 563.54 49.81
-3 -1 -2 502.44 46.81
-3 -1 -2 576.71 52.2
-3 -1 -2 538.7 49.94
-3 -1 -2 516.87 49.64
-3 -1 -2 619.47 52.07
-3 -1 -2 523.63 48.05
-3 -1 -2 526.34 52.93
-3 -1 -1 905.2 79.71
-3 -1 -1 794.51 82.13
-3 -1 -1 879.36 76.86
-3 -1 -1 828.8 79.19
-3 -1 -1 1066.54 78.41
-3 -1 -1 1073.75 81.97
-3 -1 -1 1011.4 80.48
-3 -1 -1 1017.35 83.84
-3 -1 -1 940.28 82.42
-3 -1 -1 983.19 78.73
-3 -1 -1 992.15 78.3
-3 -1 -1 903.46 81.21
-3 -1 -1 895.41 81.58
-3 -1 -1 874.34 79
-3 -1 -1 952.69 76.78
-3 -1 -1 1057.98 83.4
-3 -1 -1 968.56 76.67
-3 -1 -1 920.05 76.83
-3 -1 0 474.4 45.56
-3 -1 0 420.33 46.74
-3 -1 0 452.17 42.65
-3 -1 0 439.16 42.25
-3 -1 0 450.29 46.09
-3 -1 0 492.98 46.71
-3 -1 0 539.81 44.57
-3 -1 0 573.47 48.06
-3 -1 0 511.89 45.87
-3 -1 0 511.68 49.21
-3 -1 0 490.11 47.89
-3 -1 0 433.09 46.67
-3 -1 0 441.66 44.56
-3 -1 0 459.58 46.29
-3 -1 0 534.57 43.66
-3 -1 0 570.77 48.59
-3 -1 0 522.9 43.61
-3 -1 0 507.72 43.74
-3 -1 1 95.18 15.45
-3 -1 1 76.49 14.58
-3 -1 1 81 14.01
-3 -1 1 61.66 14.07
-3 -1 1 88.35 14.55
-3 -1 1 53.66 13.13
-3 -1 1 76.33 12.38
-3 -1 1 62.3 11.41
-3 -1 1 78.18 15.15
-3 -1 1 91.95 13.88
-3 -1 1 100.04 16.16
-3 -1 1 89.07 15.33
-3 -1 1 93.53 15.86
-3 -1 1 96.2 16.08
-3 -1 1 83.55 14.51
-3 -1 1 83.77 13.33
-3 -1 1 53.9 11.63
-3 -1 2 1375.65 123.68
-3 -1 2 1291.85 121.3
-3 -1 2 1299.35 119.4
-3 -1 2 1334.48 118.71
-3 -1 2 1278.33 122.51
-3 -1 2 1746.51 124.33
-3 -1 2 1644.87 122.98
-3 -1 2 1410.56 121.75
-3 -1 2 1628.49 121.54
-3 -1 2 1585.59 120.51
-3 -1 2 1734.64 126.43
-3 -1 2 1574.23 123.02
-3 -1 2 1662.5 121.14
-3 -1 3 2.39 8.72
-3 -1 3 8.36 8.58
-3 -1 3 -8.56 8.38
-3 -1 3 4.58 10.11
-3 -1 3 -2.32 7.58
-3 -1 3 -1.46 7.02
-3 -1 3 2.07 8.27
-3 -1 4 740.94 60.14
-3 -1 4 658.46 55.47
-3 -1 4 558.37 58.07
-3 -1 4 513.08 56.46
-3 -1 4 548.96 57.29
-3 -1 4 631.78 59.89
-3 -1 5 52.71 15.75
-3 -1 5 85.67 17.53
-3 -1 5 77.62 16.23
-3 -1 5 45.27 12.06
-3 -1 5 61.89 15.01
-3 -1 5 78.35 17.07
-3 -1 5 43.71 14.44
-3 -1 6 258.02 33.9
-3 -1 6 250.61 31.38
-3 -1 6 290.77 34.77
-3 -1 6 299.33 32.03
-3 -1 6 260.2 33.68
-3 -1 6 230.7 32.03
-3 -1 7 171.04 22.77
-3 -1 7 136.5 23.16
-3 -1 7 172.11 26.33
-3 -1 7 167.34 25.99
-3 -1 7 122.54 24.04
-3 -1 8 407.77 41.48
-3 -1 8 402.3 46.29
-3 -1 8 364.42 43.05
-3 -1 8 467.4 47.67
-3 -1 8 419.88 46.74
-3 -1 9 57.33 14.49
-3 -1 9 72.97 19.59
-3 -1 9 85.15 18.74
-3 -1 9 86.72 20.16
-3 -1 9 68 20.59
-3 -1 10 135.73 20.83
-3 -1 10 134.37 26.14
-3 -1 10 177.19 26.53
-3 -1 10 172.68 28.8
-3 -1 10 159.9 26.59
-3 -1 11 75.25 20.21
-3 -1 11 80.14 21.79
-3 -1 11 84.41 15.58
-3 -1 11 81.62 20.83
-3 -1 12 9.35 15.53
-3 -1 12 -12.16 15.43
-3 0 -13 -4.23 23.9
-3 0 -13 4.13 18.64
-3 0 -12 337.75 48.28
-3 0 -12 364.96 51.34
-3 0 -12 421.38 46.94
-3 0 -11 64.16 22.32
-3 0 -11 75.5 19.81
-3 0 -11 56.25 23.86
-3 0 -11 67.5 19.21
-3 0 -10 148.14 28.85
-3 0 -10 218.81 29.13
-3 0 -10 227.59 32.46
-3 0 -10 184.33 32.23
-3 0 -10 174.01 27.17
-3 0 -9 69.31 23.7
-3 0 -9 71.82 21.53
-3 0 -9 74.52 19.92
-3 0 -9 101.08 18.91
-3 0 -9 105.37 17.96
-3 0 -9 74.17 16.67
-3 0 -8 289.99 40.93
-3 0 -8 337.17 37.15
-3 0 -8 318.43 38.42
-3 0 -8 370.97 43.72
-3 0 -8 353.24 37.24
-3 0 -8 368.59 36.86
-3 0 -7 22.2 14.59
-3 0 -7 28.44 16.6
-3 0 -7 30.76 12.29
-3 0 -7 19.48 9.63
-3 0 -7 18.85 11.15
-3 0 -7 -1.89 9.14
-3 0 -6 1447.36 129.96
-3 0 -6 1538.7 126.14
-3 0 -6 1594.3 131.37
-3 0 -6 1664.07 127.84
-3 0 -6 1514.28 129.69
-3 0 -6 1557.98 126.18
-3 0 -6 1758.36 137.28
-3 0 -6 1489.24 127.51
-3 0 -5 367.44 36.86
-3 0 -5 306.75 32.25
-3 0 -5 327.19 37.52
-3 0 -5 362.51 34.85
-3 0 -5 335.66 35.82
-3 0 -5 286.22 32.06
-3 0 -5 283.23 31.08
-3 0 -5 308.56 39.81
-3 0 -5 338.46 32.05
-3 0 -4 283.96 30.19
-3 0 -4 329.71 32.32
-3 0 -4 350.84 34.76
-3 0 -4 276.47 35.7
-3 0 -4 373.73 34.17
-3 0 -4 312.23 34.54
-3 0 -4 336.6 32.55
-3 0 -4 322.81 31.32
-3 0 -4 286.74 30.91
-3 0 -4 308.63 39.37
-3 0 -3 1599.44 133.49
-3 0 -3 2072.34 138.02
-3 0 -3 1723.52 136.1
-3 0 -3 1760.01 136.33
-3 0 -3 1855.53 141.31
-3 0 -3 1626.46 137.81
-3 0 -3 1565.12 133.14
-3 0 -3 1582.99 143.36
-3 0 -3 1590.35 133.58
-3 0 -3 1731.09 135.06
-3 0 -2 12.16 7.99
-3 0 -2 21.61 10.8
-3 0 -2 8.39 5.44
-3 0 -2 9.91 4.98
-3 0 -2 -1 4.34
-3 0 -2 1.95 7.36
-3 0 -2 2.91 9.89
-3 0 -2 10.45 6.65
-3 0 -2 5.3 6.14
-3 0 -2 8.57 6.13
-3 0 -2 8.21 6.65
-3 0 -2 10.3 5.68
-3 0 -2 8.47 8.94
-3 0 -2 8.46 7.67
-3 0 -2 10.77 6.37
-3 0 -2 10.06 5.61
-3 0 -2 11.04 5.58
-3 0 -2 6.83 5.23
-3 0 -2 2.85 7.12
-3 0 -1 280.19 31.78
-3 0 -1 242.75 30.2
-3 0 -1 300.35 27.43
-3 0 -1 236.07 26.43
-3 0 -1 231.93 33.37
-3 0 -1 280.82 28.61
-3 0 -1 250.41 27.58
-3 0 -1 253.38 28.15
-3 0 -1 260.88 26.94
-3 0 -1 322.57 30.47
-3 0 -1 295.1 29.96
-3 0 -1 349.77 30.78
-3 0 -1 298.66 27.62
-3 0 -1 285.16 26.94
-3 0 -1 297.12 31.81
-3 0 -1 308.99 28.17
-3 0 -1 315.65 33
-3 0 -1 297.76 27.44
-3 0 -1 290.79 27.38
-3 0 -1 325 32.16
-3 0 0 241.62 25.68
-3 0 0 295.72 26.07
-3 0 0 221.31 24.76
-3 0 0 240.46 28.58
-3 0 0 191.21 27.09
-3 0 0 239.42 26.09
-3 0 0 280.93 25.5
-3 0 0 280.32 28.3
-3 0 0 242.56 26.47
-3 0 0 232.71 24.73
-3 0 0 251.74 26.69
-3 0 0 232.42 23.59
-3 0 0 303.55 27.49
-3 0 0 251.34 28.06
-3 0 0 229.2 25.19
-3 0 0 221.58 30.3
-3 0 0 218.78 23.99
-3 0 0 225.15 24.39
-3 0 1 1136.53 103.58
-3 0 1 1573.53 105.98
-3 0 1 1146.24 103.56
-3 0 1 1157.91 103.65
-3 0 1 1216.51 106.92
-3 0 1 1425.61 106.35
-3 0 1 1200.04 103.16
-3 0 1 1429.53 106.25
-3 0 1 1384.64 107.1
-3 0 1 1411.92 107.18
-3 0 1 1301.4 101.1
-3 0 1 1586.17 107.47
-3 0 1 1288.47 103.34
-3 0 1 1170.1 106.29
-3 0 1 1151.23 104.15
-3 0 1 1126.58 107.45
-3 0 1 1293.76 103.32
-3 0 1 1307.34 103.72
-3 0 2 2.32 9.29
-3 0 2 4.64 7.43
-3 0 2 10.53 6.94
-3 0 2 4.48 6.74
-3 0 2 -1.48 7.23
-3 0 2 -2.13 8.29
-3 0 2 2.74 7.29
-3 0 2 3.78 7.76
-3 0 2 11.6 8.11
-3 0 2 1.62 6.49
-3 0 2 5.14 8.39
-3 0 2 12.25 7.64
-3 0 2 5.32 6.27
-3 0 2 3.94 6.19
-3 0 3 967.16 86.35
-3 0 3 1146.19 86.29
-3 0 3 1177.82 84.62
-3 0 3 882.31 83.37
-3 0 3 841.4 82.07
-3 0 3 908.97 86.59
-3 0 3 881.36 82.48
-3 0 3 1227.8 85.51
-3 0 3 921.06 82.78
-3 0 4 125.01 21.23
-3 0 4 101.65 20.06
-3 0 4 90.86 18.01
-3 0 4 162.53 19.39
-3 0 4 146.24 20.31
-3 0 4 141.71 22.13
-3 0 4 183.74 21.51
-3 0 5 537.84 54.49
-3 0 5 576.56 51.68
-3 0 5 594.96 49.71
-3 0 5 515.82 53.87
-3 0 5 655.19 53.45
-3 0 5 455.73 52.72
-3 0 5 497.8 50.32
-3 0 5 470.91 52.47
-3 0 6 309.02 35.17
-3 0 6 259.39 33.1
-3 0 6 251.33 29.81
-3 0 6 250.67 33.1
-3 0 6 232.96 32.15
-3 0 6 301.27 32.27
-3 0 7 192.25 24.06
-3 0 7 185.26 26.2
-3 0 7 171.74 26.87
-3 0 7 161.34 26.97
-3 0 7 191.98 28.63
-3 0 8 217.29 30.87
-3 0 8 141.05 23.15
-3 0 8 182.06 28.19
-3 0 8 211.34 30.03
-3 0 8 208.37 30.94
-3 0 9 56.8 18.94
-3 0 9 55.34 13.9
-3 0 9 73.1 19.56
-3 0 9 35.13 16.05
-3 0 9 57.43 19.35
-3 0 9 71.34 17.45
-3 0 10 125.06 20.37
-3 0 10 144.08 27.06
-3 0 10 154.84 26.33
-3 0 10 208.81 27.04
-3 0 10 136.21 26.81
-3 0 11 16.32 14.31
-3 0 11 11.43 12.6
-3 0 11 15.75 15.46
-3 0 11 17.83 11.69
-3 0 12 85.29 23.77
-3 0 12 73.06 19.78
-3 1 -12 19.21 19.49
-3 1 -12 -4.14 20.28
-3 1 -11 104.49 26.39
-3 1 -11 137.19 30.91
-3 1 -11 112.58 23.25
-3 1 -10 76.01 21.05
-3 1 -10 99.61 27.25
-3 1 -10 51.06 17.74
-3 1 -9 518.09 57.63
-3 1 -9 621.85 60.02
-3 1 -9 457.93 60.29
-3 1 -9 635.75 57.55
-3 1 -8 332.04 41.21
-3 1 -8 370.74 44.08
-3 1 -8 345.53 43.84
-3 1 -8 408.21 41.3
-3 1 -7 178.32 28.17
-3 1 -7 203.14 30.15
-3 1 -7 137.84 23.59
-3 1 -7 158.03 22.52
-3 1 -7 164.27 24.44
-3 1 -6 482.52 46.58
-3 1 -6 360.56 42.97
-3 1 -6 383.04 40.95
-3 1 -6 418.39 48.08
-3 1 -6 436.62 41.36
-3 1 -6 394.85 42.36
-3 1 -5 19.17 12.03
-3 1 -5 38.58 12.75
-3 1 -5 60.19 14.09
-3 1 -5 28.39 10.19
-3 1 -5 23.12 15.79
-3 1 -5 52.43 11.91
-3 1 -4 520.95 43.5
-3 1 -4 488.87 46.35
-3 1 -4 527.53 49.25
-3 1 -4 420.39 45.07
-3 1 -4 443.89 43.8
-3 1 -4 408.75 42.14
-3 1 -4 513.07 54.03
-3 1 -3 101.32 16.87
-3 1 -3 84.1 12.43
-3 1 -3 81.33 22.28
-3 1 -3 93.91 13.04
-3 1 -3 101.75 13.18
-3 1 -3 81.73 14.34
-3 1 -3 93.6 13.29
-3 1 -3 97.23 13.4
-3 1 -3 115.91 18.74
-3 1 -3 107.29 15.09
-3 1 -3 83.84 15.25
-3 1 -3 74.5 11.89
-3 1 -3 80.04 12.74
-3 1 -2 1253.84 104.6
-3 1 -2 1348.52 100.46
-3 1 -2 1111.4 100.02
-3 1 -2 1283.31 99.88
-3 1 -2 1150.09 101.74
-3 1 -2 1354.55 100.61
-3 1 -2 1358.93 103.23
-3 1 -2 1211.66 101.3
-3 1 -2 1234.67 105.23
-3 1 -2 1219.35 101.59
-3 1 -2 1343 100.39
-3 1 -2 1294.43 100.28
-3 1 -2 1131.85 98.11
-3 1 -2 1194.84 110.61
-3 1 -2 1220.82 100.66
-3 1 -1 -1.99 7.72
-3 1 -1 -2.93 5.2
-3 1 -1 2.29 5.9
-3 1 -1 6.84 6.36
-3 1 -1 1.37 6.47
-3 1 -1 -1.13 5.2
-3 1 -1 3.88 6.68
-3 1 -1 -3.88 8.17
-3 1 -1 10.56 6.73
-3 1 -1 -1.81 7.44
-3 1 -1 -2.32 5.57
-3 1 -1 3.95 5.82
-3 1 -1 2.33 5.59
-3 1 0 1095.02 88.75
-3 1 0 1112.04 88.48
-3 1 0 1012.65 90.71
-3 1 0 1144.9 90.55
-3 1 0 1007.87 94.11
-3 1 0 1049.08 90.58
-3 1 0 1160.08 90.32
-3 1 0 1052.55 88.42
-3 1 0 1204.01 94.45
-3 1 0 911.81 90
-3 1 0 1203.09 90.83
-3 1 0 1167.17 90.29
-3 1 0 1207 90.67
-3 1 0 1220.62 91.59
-3 1 1 175.14 20.01
-3 1 1 183.16 20.85
-3 1 1 194.15 22.24
-3 1 1 142.21 22.98
-3 1 1 124.14 19.28
-3 1 1 158.75 18.23
-3 1 1 172.98 20.26
-3 1 2 756.78 63.38
-3 1 2 786.21 63.69
-3 1 2 640.45 65.67
-3 1 2 718.2 62.46
-3 1 2 706.03 65.27
-3 1 2 675.27 60.62
-3 1 3 397.15 42.33
-3 1 3 356.12 42.51
-3 1 3 456.72 39.94
-3 1 3 412.85 42.58
-3 1 3 391.83 38.51
-3 1 4 369.48 39.22
-3 1 4 256.96 38.04
-3 1 4 376.71 35.33
-3 1 4 359.69 39.76
-3 1 4 397.21 36.54
-3 1 5 477.82 48.25
-3 1 5 387.49 48.06
-3 1 5 423.6 49.82
-3 1 5 543.68 47.09
-3 1 5 504.31 44.25
-3 1 5 502.67 50.05
-3 1 6 -5.18 10.07
-3 1 6 7.66 9.03
-3 1 6 11.74 10.38
-3 1 6 8.18 11.49
-3 1 7 213.65 29.64
-3 1 7 183.26 26.87
-3 1 7 187.35 29.39
-3 1 7 244.54 27.82
-3 1 8 168.06 27.88
-3 1 8 170.27 27.97
-3 1 8 239.23 28.33
-3 1 8 187.02 30.1
-3 1 9 235.57 33.37
-3 1 9 248.05 35.51
-3 1 9 276.33 32.14
-3 1 9 234.43 33.63
-3 1 10 6.31 15.48
-3 1 10 20.36 13.35
-3 1 10 14.32 13.79
-3 1 11 233.25 36.31
-3 1 11 315.41 35.22
-3 1 11 254.23 35.47
-3 1 12 92.97 23.61
-3 1 12 74.06 21.17
-3 2 -12 34.26 20.14
-3 2 -12 28.42 23.72
-3 2 -12 40.15 18.02
-3 2 -11 28.85 21.35
-3 2 -11 103.72 28.13
-3 2 -11 102.36 23.18
-3 2 -10 43.85 19.08
-3 2 -10 80.85 25.85
-3 2 -10 30.21 16.18
-3 2 -9 198.2 32.24
-3 2 -9 280.67 34.8
-3 2 -9 207.62 35.41
-3 2 -9 197.58 30.14
-3 2 -8 183.46 25.36
-3 2 -8 136.36 28.52
-3 2 -8 151.74 27.26
-3 2 -8 120.08 24.92
-3 2 -7 263.05 37.42
-3 2 -7 316.86 34.44
-3 2 -7 275.31 33.58
-3 2 -7 260.07 34
-3 2 -7 292.88 38.43
-3 2 -6 10.58 9.35
-3 2 -6 39.84 14.6
-3 2 -6 14.18 13.5
-3 2 -6 55.16 14.41
-3 2 -6 30.11 12.15
-3 2 -6 42.05 18.14
-3 2 -5 657.86 62.61
-3 2 -5 685.31 62.66
-3 2 -5 629.57 59.67
-3 2 -5 725.53 60.79
-3 2 -5 541.99 57.11
-3 2 -5 659.35 66.79
-3 2 -4 117.93 20.02
-3 2 -4 92.37 19.37
-3 2 -4 92.93 15.83
-3 2 -4 146.28 26.02
-3 2 -4 141.47 20.01
-3 2 -4 120.29 18.46
-3 2 -3 1470.58 115.58
-3 2 -3 1488.72 117.93
-3 2 -3 1292.82 112.34
-3 2 -3 1402.66 115.18
-3 2 -3 1331.62 114.62
-3 2 -2 29.6 10.62
-3 2 -2 17.29 8.3
-3 2 -2 10.81 10.5
-3 2 -2 34.95 10.47
-3 2 -2 20.54 8.57
-3 2 -2 18.69 9.29
-3 2 -1 336.6 34.65
-3 2 -1 309.57 30.06
-3 2 -1 264.93 32.26
-3 2 -1 299.29 31.33
-3 2 -1 266.27 31.49
-3 2 0 450.88 43.11
-3 2 0 497.89 45.02
-3 2 0 390.75 44
-3 2 1 113.24 18.73
-3 2 1 145.59 21.86
-3 2 1 135.19 16.39
-3 2 1 127.34 19.05
-3 2 2 342.73 39.42
-3 2 2 375.85 42.56
-3 2 2 432.52 37.74
-3 2 2 427.82 40.4
-3 2 3 493.37 43.12
-3 2 3 341.84 44.87
-3 2 3 464.53 45.3
-3 2 3 418.17 46.11
-3 2 3 443.02 41.03
-3 2 4 471.99 42.79
-3 2 4 408.79 47.34
-3 2 4 388.79 44.99
-3 2 4 438.9 47.09
-3 2 4 475.17 42.94
-3 2 5 19.74 9.24
-3 2 5 23 13.32
-3 2 5 8.81 7.88
-3 2 5 13.25 11.5
-3 2 5 26.87 11.57
-3 2 6 564.3 50.57
-3 2 6 504.99 53.54
-3 2 6 453.33 52.66
-3 2 6 597.11 54.32
-3 2 6 456.45 53.55
-3 2 7 -8.12 10.64
-3 2 7 16.22 12.73
-3 2 7 2.91 11.61
-3 2 7 18.3 12.8
-3 2 8 162.1 28.06
-3 2 8 206.94 30.59
-3 2 8 246.29 29.48
-3 2 9 21.66 12.1
-3 2 9 38.79 16.49
-3 2 9 17.93 13.47
-3 2 10 295.06 40.96
-3 2 10 405.12 41.03
-3 2 11 97.85 22.61
-3 2 11 120.38 22.29
-3 3 -11 27.82 21.26
-3 3 -11 41.25 18.97
-3 3 -11 7.29 18.57
-3 3 -10 192.04 37.67
-3 3 -10 182.65 34.06
-3 3 -9 11.3 20.44
-3 3 -9 12.9 14.66
-3 3 -9 37.21 14.9
-3 3 -8 175.45 32.79
-3 3 -8 183.36 28.03
-3 3 -8 220.98 31.96
-3 3 -8 159.6 29.37
-3 3 -7 4.47 11.2
-3 3 -7 10.07 15.52
-3 3 -7 37.5 14.37
-3 3 -7 24.2 16.15
-3 3 -7 10.69 12.88
-3 3 -6 685.9 65.85
-3 3 -6 711 67.52
-3 3 -6 692.53 70.92
-3 3 -6 806.53 73.62
-3 3 -5 345.59 38.48
-3 3 -5 310.86 38.33
-3 3 -5 340.1 41.02
-3 3 -5 335.62 43.66
-3 3 -4 277.65 32.61
-3 3 -4 235.1 28
-3 3 -4 217.65 28.99
-3 3 -3 -2.47 11.65
-3 3 -3 17.22 10.52
-3 3 -3 -2.22 9.83
-3 3 -3 17.09 9.81
-3 3 -2 14.28 10.55
-3 3 -2 11.45 9.55
-3 3 -2 7.72 8.37
-3 3 -2 15.26 9.67
-3 3 -1 362.6 37.66
-3 3 -1 351.87 35.68
-3 3 -1 282.83 34.07
-3 3 -1 295.07 34.88
-3 3 0 905.2 72.69
-3 3 0 788.5 71.11
-3 3 0 752.52 69.98
-3 3 0 711.31 69.95
-3 3 1 1174.48 107.2
-3 3 1 1341.65 108.6
-3 3 1 1340.24 109.89
-3 3 2 1.44 6.8
-3 3 2 4.99 11.27
-3 3 2 -1.98 9.15
-3 3 2 -2.24 8.94
-3 3 3 169.83 27.69
-3 3 3 222 23.64
-3 3 3 158.57 26.91
-3 3 3 215.12 25.38
-3 3 3 188.46 26.19
-3 3 4 23.73 13.71
-3 3 4 12.54 8.65
-3 3 4 6.83 8.09
-3 3 4 22.65 14.39
-3 3 4 7.7 11.11
-3 3 5 508.78 47.47
-3 3 5 471.2 51.87
-3 3 5 435.38 52.01
-3 3 5 494.44 53.66
-3 3 5 571.52 49.25
-3 3 6 57.2 14.05
-3 3 6 42.36 16.21
-3 3 6 41.75 16.71
-3 3 6 32.33 15.77
-3 3 7 224.43 32.72
-3 3 7 212.17 32.2
-3 3 7 233.18 34.37
-3 3 7 286.61 31.18
-3 3 8 65.74 18.86
-3 3 8 45.43 18.23
-3 3 8 54.77 19.08
-3 3 8 90.43 18.04
-3 3 9 127.29 24.29
-3 3 9 85.61 22.18
-3 3 9 121.9 20.97
-3 3 10 90.59 20.42
-3 3 10 67.3 20.29
-3 3 10 89.92 20.51
-3 3 11 49 18.55
-3 3 11 45.68 17.57
-3 4 -10 19.87 15.43
-3 4 -9 118.69 23.96
-3 4 -9 117.36 30.28
-3 4 -8 28.05 16.34
-3 4 -8 67.21 24.79
-3 4 -7 126.29 23.85
-3 4 -7 155.4 31.21
-3 4 -7 143.36 27.06
-3 4 -7 132.56 24.74
-3 4 -6 37.01 15.2
-3 4 -6 32.25 15.09
-3 4 -6 67.64 20.1
-3 4 -5 192.6 29.87
-3 4 -5 200.54 29.02
-3 4 -4 273.73 34.56
-3 4 -4 181.48 29.24
-3 4 -4 265.2 31.03
-3 4 -3 41.47 16
-3 4 -3 32.69 13.38
-3 4 -3 22.48 11.82
-3 4 -2 376.03 43.46
-3 4 -2 378.32 42.41
-3 4 -2 405.81 41.95
-3 4 -1 111.3 21.03
-3 4 -1 63.93 17.53
-3 4 -1 119.12 19.27
-3 4 0 613.47 63.43
-3 4 0 632.39 64.12
-3 4 1 83.15 17.84
-3 4 1 62.77 15.96
-3 4 1 74.44 17.45
-3 4 1 44.53 15.14
-3 4 2 197.1 28.74
-3 4 2 234.72 26.02
-3 4 2 205.29 29.27
-3 4 2 244.56 29.57
-3 4 3 54.2 18.05
-3 4 3 49.48 12.53
-3 4 3 45.2 14.55
-3 4 3 23.53 12.48
-3 4 3 53 16.49
-3 4 4 135.27 25.83
-3 4 4 138.44 19.8
-3 4 4 100.4 19.4
-3 4 4 157.39 24.85
-3 4 4 148.8 24.79
-3 4 5 39.12 16.68
-3 4 5 59.88 14.15
-3 4 5 38.05 15.01
-3 4 5 2.95 13.53
-3 4 5 27.8 11.6
-3 4 6 372.05 47.41
-3 4 6 370.5 47.34
-3 4 6 383.42 48.25
-3 4 7 288.34 35.87
-3 4 7 158.14 30.46
-3 4 7 179.55 31.24
-3 4 7 244.57 29.04
-3 4 8 3.39 15.39
-3 4 8 28.96 17.46
-3 4 8 23.02 13.26
-3 4 9 152.42 29.42
-3 4 9 111.66 24.81
-3 4 9 129.38 27.22
-3 4 9 171.38 25.55
-3 4 10 -9.4 15.33
-3 4 10 3.08 15.9
-3 4 10 14.06 17.83
-3 5 -8 32.86 16.44
-3 5 -8 62.28 20.22
-3 5 -7 128.41 25.15
-3 5 -7 143.65 26.27
-3 5 -6 -5.43 14.46
-3 5 -6 -5.77 14.38
-3 5 -5 176.33 28.88
-3 5 -5 176.35 29.65
-3 5 -4 22.81 14.54
-3 5 -4 14 12.67
-3 5 -4 -6.2 14.63
-3 5 -3 287.68 37.14
-3 5 -3 305.77 38.81
-3 5 -3 372.53 42.93
-3 5 -2 38.64 14.4
-3 5 -2 21.86 13.88
-3 5 -2 59.93 19.54
-3 5 -1 210.97 29.54
-3 5 -1 190.46 29.95
-3 5 -1 234.54 33.09
-3 5 0 7.89 11.09
-3 5 0 -5.42 12.5
-3 5 0 16.71 15.07
-3 5 1 206.6 29.28
-3 5 1 159.82 27.31
-3 5 1 256.47 32.18
-3 5 2 165.35 25.89
-3 5 2 137.37 25.17
-3 5 2 170.91 26.64
-3 5 3 147.88 25.38
-3 5 3 112.2 23.37
-3 5 3 189.61 25.7
-3 5 4 281.73 39.46
-3 5 4 372.99 38.2
-3 5 4 300.11 42.64
-3 5 4 400.92 40.06
-3 5 5 130.3 24.98
-3 5 5 131.51 21.47
-3 5 5 96.47 25.21
-3 5 5 109.59 21.57
-3 5 6 103.44 19.8
-3 5 6 51.71 20.05
-3 5 6 74.31 21.21
-3 5 7 7 13.02
-3 5 7 3.42 14.78
-3 5 7 16.83 15.55
-3 5 8 205.88 33.19
-3 5 8 159.12 32.28
-3 5 9 -3.1 14.62
-3 6 -5 23.12 16.66
-3 6 -5 27.1 16.4
-3 6 -4 99.13 22.8
-3 6 -4 151.54 27.62
-3 6 -4 142.78 26.93
-3 6 -3 30.73 16.91
-3 6 -3 12.41 16.07
-3 6 -3 17.72 16.28
-3 6 -2 181.28 28.68
-3 6 -2 156.49 29.44
-3 6 -2 170.33 28.35
-3 6 -1 77.54 21.33
-3 6 -1 108.85 24.2
-3 6 -1 88.08 20.86
-3 6 0 78.38 21.05
-3 6 0 57.09 19.62
-3 6 0 64.33 18.72
-3 6 1 194.26 30.76
-3 6 1 271.94 34.07
-3 6 1 195.55 31.31
-3 6 2 50.94 17.15
-3 6 2 44.39 18.3
-3 6 2 20.46 14.56
-3 6 3 91.94 21.06
-3 6 3 82.19 19.98
-3 6 3 91.96 21.39
-3 6 4 9.48 14.93
-3 6 4 10.11 13.73
-3 6 4 30.2 15.63
-3 6 5 52.67 21.66
-3 6 5 71.77 22.45
-3 6 5 76.95 19.11
-3 6 5 98.3 20.51
-3 6 5 74.12 22.11
-3 6 6 20.21 15.89
-3 6 6 9.61 12.42
-3 6 6 7.08 15.3
-2 -8 -7 181.72 32.35
-2 -8 -7 220.99 36.65
-2 -8 -7 202.45 32.78
-2 -8 -6 48.17 25.73
-2 -8 -6 93.6 26.08
-2 -8 -6 86.31 22.45
-2 -8 -6 73.84 25.47
-2 -8 -5 280.58 43.44
-2 -8 -5 298.57 44.11
-2 -8 -5 354.6 44.6
-2 -8 -5 263.51 38.5
-2 -8 -4 43.55 20.69
-2 -8 -4 29.08 20.97
-2 -8 -4 36.36 19.96
-2 -8 -4 67.83 19.55
-2 -8 -3 137.48 28.84
-2 -8 -3 135.56 30.67
-2 -8 -3 129.86 25.6
-2 -8 -3 125.52 28.25
-2 -8 -2 150.92 32.14
-2 -8 -2 103.68 27.96
-2 -8 -2 146.81 28.8
-2 -8 -2 123.41 26.55
-2 -8 -2 127.78 25.48
-2 -8 -1 69.35 26.01
-2 -8 -1 65.67 21.6
-2 -8 -1 73.46 21.68
-2 -8 -1 67.38 19.8
-2 -8 0 172.02 34.96
-2 -8 0 184.32 31.34
-2 -8 0 183.17 29.72
-2 -8 0 138.85 27.11
-2 -8 1 4.2 18.61
-2 -8 1 43.16 19.59
-2 -8 1 20.46 14.65
-2 -8 2 396.58 50.51
-2 -8 2 443.59 54.33
-2 -8 2 433.51 47.91
-2 -8 3 -2.67 13.3
-2 -8 3 14.95 17.25
-2 -8 4 37.83 18.65
-2 -8 4 5.43 14.31
-2 -7 -10 91.55 24.43
-2 -7 -10 150.07 27.25
-2 -7 -9 41.21 18.46
-2 -7 -9 56.35 22.27
-2 -7 -9 59.7 25.16
-2 -7 -9 95.04 23.54
-2 -7 -8 349.7 43.96
-2 -7 -8 424.5 48.13
-2 -7 -8 333.71 46.4
-2 -7 -8 440.11 53.85
-2 -7 -7 128.12 27.25
-2 -7 -7 152.91 32.04
-2 -7 -7 101.71 23.71
-2 -7 -7 131.83 24.75
-2 -7 -6 239.29 34.46
-2 -7 -6 274.89 41.4
-2 -7 -6 308.95 40.73
-2 -7 -6 260.35 38.25
-2 -7 -6 237.92 34.43
-2 -7 -5 163.87 25.45
-2 -7 -5 114.14 29.16
-2 -7 -5 211.18 33.13
-2 -7 -5 137.96 26.61
-2 -7 -5 153.64 28.16
-2 -7 -4 125.78 26.87
-2 -7 -4 72.55 21.81
-2 -7 -4 129.99 23.42
-2 -7 -3 551.24 59.83
-2 -7 -3 646.18 61.14
-2 -7 -3 520.67 56.36
-2 -7 -3 500.88 57.17
-2 -7 -3 595.25 63.94
-2 -7 -2 3.13 14.13
-2 -7 -2 -11.39 18.24
-2 -7 -2 6.08 13.44
-2 -7 -2 18.84 12.67
-2 -7 -2 -2.98 13.77
-2 -7 -1 322.11 42.76
-2 -7 -1 432.37 46.02
-2 -7 -1 372.79 43.41
-2 -7 -1 348.53 44.28
-2 -7 -1 496.46 52.87
-2 -7 0 -19.03 18.97
-2 -7 0 14.02 14.71
-2 -7 0 5.29 11.68
-2 -7 0 -12.22 13.5
-2 -7 1 220.45 36.63
-2 -7 1 231.96 32.39
-2 -7 1 276.82 36.94
-2 -7 2 16.86 12.32
-2 -7 2 10.93 15.81
-2 -7 2 44.14 16.12
-2 -7 2 18.89 16.59
-2 -7 3 196.6 28.87
-2 -7 3 199.78 34.09
-2 -7 3 194.42 28.35
-2 -7 3 215.29 32.57
-2 -7 4 69.07 22.16
-2 -7 4 73.01 21.65
-2 -7 4 78.44 19.55
-2 -7 5 90.32 19.96
-2 -7 5 111.31 22.13
-2 -7 5 79.69 23.48
-2 -7 5 83.85 21.34
-2 -7 6 35.99 15.89
-2 -7 6 7.9 13.16
-2 -7 6 23.54 15.21
-2 -7 6 -2.76 14.94
-2 -7 7 56.56 19.35
-2 -7 7 62.34 19.44
-2 -7 7 59.1 19.11
-2 -7 7 58.44 19.93
-2 -6 -11 114.07 25.49
-2 -6 -11 113.01 30.4
-2 -6 -11 152.08 31.77
-2 -6 -10 42.98 18.61
-2 -6 -10 41.92 22.28
-2 -6 -10 19.28 20.39
-2 -6 -9 440.45 51.61
-2 -6 -9 549.77 58.64
-2 -6 -9 459.42 55.11
-2 -6 -9 457.25 51.31
-2 -6 -8 493.73 57.06
-2 -6 -8 528.45 60.22
-2 -6 -8 650.32 61.41
-2 -6 -8 666.11 66.94
-2 -6 -7 134.54 24.39
-2 -6 -7 111.01 24.53
-2 -6 -7 151.47 29.7
-2 -6 -7 155.49 28.09
-2 -6 -7 148.38 24.5
-2 -6 -6 666.48 68.96
-2 -6 -6 822.4 69.68
-2 -6 -6 526.56 61.81
-2 -6 -6 683.33 66.78
-2 -6 -6 654.41 63.64
-2 -6 -5 3.09 13.37
-2 -6 -5 14.64 11.27
-2 -6 -5 3.38 14.61
-2 -6 -5 4.92 10.88
-2 -6 -5 9.11 14.31
-2 -6 -4 129.19 21.62
-2 -6 -4 106.65 21.72
-2 -6 -4 131.92 25.91
-2 -6 -4 152.41 26.49
-2 -6 -4 124.33 21.07
-2 -6 -4 162.35 23.49
-2 -6 -4 111.34 23.46
-2 -6 -3 24.82 11.47
-2 -6 -3 5.23 10.77
-2 -6 -3 11.88 14.55
-2 -6 -3 -1.93 8.76
-2 -6 -3 41.66 17.09
-2 -6 -3 2.4 10.63
-2 -6 -3 25.41 14.1
-2 -6 -2 1423.4 117.37
-2 -6 -2 1318.09 118.43
-2 -6 -2 1567.45 124.24
-2 -6 -2 1277.33 118.21
-2 -6 -2 1317.63 117.13
-2 -6 -2 1463.35 120.08
-2 -6 -1 38.67 13.62
-2 -6 -1 34.86 15.66
-2 -6 -1 39.23 17.41
-2 -6 -1 45.41 15.15
-2 -6 -1 52.33 15.3
-2 -6 -1 35.46 13.34
-2 -6 0 329.4 35.52
-2 -6 0 353.97 39.65
-2 -6 0 342.97 39.68
-2 -6 0 284.09 40.1
-2 -6 0 350.21 37.88
-2 -6 0 313.63 37.21
-2 -6 0 347.75 39.37
-2 -6 1 124.89 20.27
-2 -6 1 84.03 21.88
-2 -6 1 172.06 25.74
-2 -6 1 145.06 26.36
-2 -6 1 150.98 23.3
-2 -6 2 221.65 28.82
-2 -6 2 210.83 27.45
-2 -6 2 278.73 33.8
-2 -6 2 259.39 33.13
-2 -6 2 143.93 23.84
-2 -6 2 212.7 31.95
-2 -6 2 211.23 26.37
-2 -6 2 191.19 26.05
-2 -6 3 275.05 34.43
-2 -6 3 282.1 33.41
-2 -6 3 240.31 32.59
-2 -6 3 290.67 37.16
-2 -6 3 286.78 38.37
-2 -6 3 292.18 32.89
-2 -6 3 244.08 36.64
-2 -6 3 296.52 33.66
-2 -6 3 307.49 33.83
-2 -6 4 128.28 25.49
-2 -6 4 138.85 22.76
-2 -6 4 132.79 27.74
-2 -6 4 84.94 20.55
-2 -6 4 140.54 22.02
-2 -6 4 147.48 23.02
-2 -6 4 116.66 21.63
-2 -6 5 280.96 34.01
-2 -6 5 264.13 33.24
-2 -6 5 178.16 29.62
-2 -6 5 224.97 31
-2 -6 5 317.04 37.69
-2 -6 6 13.5 12.22
-2 -6 6 -2.75 14
-2 -6 6 28.03 14.42
-2 -6 6 15.43 13.73
-2 -6 6 12.17 15.72
-2 -6 7 128.22 25.05
-2 -6 7 112.44 23.66
-2 -6 7 131.04 24.2
-2 -6 7 121.13 23.93
-2 -6 7 183.46 28.62
-2 -6 8 8.58 12.93
-2 -6 8 16.55 14.94
-2 -6 8 -2.78 13.64
-2 -6 8 11.38 14.19
-2 -6 9 33.86 17.46
-2 -6 9 48.29 17.98
-2 -6 9 79.32 20
-2 -6 9 54.79 18.44
-2 -5 -12 211.89 36.13
-2 -5 -12 271.97 38.18
-2 -5 -12 236 38.68
-2 -5 -12 199.97 34.08
-2 -5 -11 343.47 43.09
-2 -5 -11 303.51 41.97
-2 -5 -11 334.27 43.83
-2 -5 -11 334.95 45.07
-2 -5 -11 268.21 39.24
-2 -5 -10 53.9 19.87
-2 -5 -10 57.08 18.24
-2 -5 -10 28.42 18.03
-2 -5 -10 29.68 16.65
-2 -5 -10 76.01 23.26
-2 -5 -9 466.68 54.13
-2 -5 -9 525.72 55.32
-2 -5 -9 568.96 59.82
-2 -5 -9 493.54 56.79
-2 -5 -9 576.17 55.42
-2 -5 -8 101.97 20.32
-2 -5 -8 114.88 24.95
-2 -5 -8 130.55 21.91
-2 -5 -8 76.35 20.14
-2 -5 -8 82.4 21.64
-2 -5 -7 527.82 54.85
-2 -5 -7 563.41 54.82
-2 -5 -7 588.64 57.05
-2 -5 -7 657.06 62.02
-2 -5 -7 481.56 55.22
-2 -5 -6 73.35 16.15
-2 -5 -6 73.15 18.22
-2 -5 -6 98.33 17.9
-2 -5 -6 62.67 18.83
-2 -5 -6 85.36 18.13
-2 -5 -6 63.51 18.01
-2 -5 -5 427.13 45.38
-2 -5 -5 454.4 48.84
-2 -5 -5 452.82 46.72
-2 -5 -5 520.53 51.92
-2 -5 -5 490.15 49.67
-2 -5 -5 460.32 46.02
-2 -5 -4 8.32 9.64
-2 -5 -4 13.39 10.55
-2 -5 -4 13.25 11.47
-2 -5 -4 5.55 10.5
-2 -5 -4 10.03 8.7
-2 -5 -4 17.96 11.87
-2 -5 -4 18.7 10.57
-2 -5 -3 1865.57 152.61
-2 -5 -3 2166.53 158.63
-2 -5 -3 1685.38 152.28
-2 -5 -3 1824.5 150.62
-2 -5 -3 1819.65 154.79
-2 -5 -3 2051.9 156.41
-2 -5 -3 1866.22 152.56
-2 -5 -2 117.09 18.94
-2 -5 -2 88.09 19.18
-2 -5 -2 112.04 15.72
-2 -5 -2 106.13 19.39
-2 -5 -2 99.32 20.13
-2 -5 -2 104.78 17.74
-2 -5 -2 93.12 19.07
-2 -5 -1 190.1 23.26
-2 -5 -1 211.32 26.61
-2 -5 -1 211.24 27.44
-2 -5 -1 177.28 23.19
-2 -5 -1 213.9 29.17
-2 -5 -1 208.06 26.49
-2 -5 -1 210.55 22.67
-2 -5 -1 191.27 26.64
-2 -5 -1 185.4 25.33
-2 -5 0 1125.48 100.78
-2 -5 0 1258.59 105.71
-2 -5 0 1223.49 106.98
-2 -5 0 1207.76 100.63
-2 -5 0 1259.89 105.25
-2 -5 0 1141.54 101.9
-2 -5 0 1259.53 104.86
-2 -5 0 1369.21 104.8
-2 -5 1 -2.16 8.91
-2 -5 1 18.26 10.33
-2 -5 1 3.74 8.11
-2 -5 1 12.46 10.53
-2 -5 1 2.53 9.86
-2 -5 1 22.5 8.87
-2 -5 1 8.09 10.81
-2 -5 1 22.6 10.13
-2 -5 1 22.32 9.3
-2 -5 1 17.67 9.25
-2 -5 2 246.26 32.15
-2 -5 2 303.47 33.13
-2 -5 2 308.92 35.66
-2 -5 2 303.35 35.94
-2 -5 2 291.22 32.6
-2 -5 2 292.22 36.04
-2 -5 2 289.98 31.39
-2 -5 2 288.41 31.49
-2 -5 2 266.72 30.87
-2 -5 3 310.84 34.03
-2 -5 3 240.51 30.61
-2 -5 3 314.87 32.84
-2 -5 3 319.2 33.12
-2 -5 3 254.93 32.5
-2 -5 3 249.91 34.15
-2 -5 4 369.63 38.23
-2 -5 4 362.86 40.36
-2 -5 4 360.13 39.7
-2 -5 4 330.76 37.3
-2 -5 4 364.46 39.23
-2 -5 4 361.3 39.1
-2 -5 4 421.73 44.55
-2 -5 5 -2.58 11.13
-2 -5 5 -2.46 10.11
-2 -5 5 2.11 9.34
-2 -5 5 -2.31 11.08
-2 -5 5 -2.33 11.18
-2 -5 5 -5.83 12.58
-2 -5 6 412.04 43.99
-2 -5 6 386.63 42.61
-2 -5 6 325.83 39.69
-2 -5 6 396.84 41.94
-2 -5 6 371.95 41.5
-2 -5 6 358.7 43.51
-2 -5 7 41.8 17.33
-2 -5 7 10.85 12.16
-2 -5 7 34.44 14.62
-2 -5 7 18.57 13.38
-2 -5 7 34.16 14.37
-2 -5 7 43.51 16.29
-2 -5 8 180.75 28.98
-2 -5 8 184.79 29.54
-2 -5 8 187.81 28.33
-2 -5 8 216.37 30.47
-2 -5 8 217.64 30.08
-2 -5 8 166.98 28.69
-2 -5 9 32.1 15.52
-2 -5 9 49.22 17.68
-2 -5 9 66.16 19.9
-2 -5 9 71.37 19.57
-2 -5 9 46.07 18.38
-2 -5 10 55.56 18.62
-2 -5 10 88.16 21.38
-2 -5 10 59.13 18.74
-2 -5 10 47.15 18.13
-2 -4 -13 162.73 33.27
-2 -4 -13 162.64 32.07
-2 -4 -13 180.86 33.27
-2 -4 -13 208 35.68
-2 -4 -13 98.74 27.83
-2 -4 -12 212.74 36.07
-2 -4 -12 240.75 37.36
-2 -4 -12 222.18 36.37
-2 -4 -12 254.64 37.09
-2 -4 -12 184.7 35.05
-2 -4 -11 34.16 18.23
-2 -4 -11 20.04 16.07
-2 -4 -11 3.31 13.62
-2 -4 -11 41.32 17.74
-2 -4 -11 -3.47 17.63
-2 -4 -10 587.14 63.46
-2 -4 -10 715.64 66
-2 -4 -10 590.37 65.19
-2 -4 -10 756.4 67.59
-2 -4 -10 561.43 62.35
-2 -4 -9 11.04 12.76
-2 -4 -9 5.56 12.85
-2 -4 -9 10.54 10.85
-2 -4 -9 -3.05 15.74
-2 -4 -9 30.54 15.51
-2 -4 -8 508.36 52.94
-2 -4 -8 523.65 53.35
-2 -4 -8 513.64 52.57
-2 -4 -8 581.12 58.12
-2 -4 -8 520.05 54.56
-2 -4 -7 64.56 14.46
-2 -4 -7 49.18 14
-2 -4 -7 36.91 14.47
-2 -4 -7 40.52 15.29
-2 -4 -7 30.65 14.61
-2 -4 -7 43.78 13.61
-2 -4 -6 1254.12 112.68
-2 -4 -6 1281.18 113.93
-2 -4 -6 1406.39 111.6
-2 -4 -6 1449.89 113.66
-2 -4 -6 1303.34 113.88
-2 -4 -6 1338.72 113.94
-2 -4 -6 1405.23 117.31
-2 -4 -5 575.37 55.95
-2 -4 -5 638.08 58.3
-2 -4 -5 496.24 54.7
-2 -4 -5 615.47 59.57
-2 -4 -5 695.56 59.57
-2 -4 -5 643.6 55.54
-2 -4 -4 367.87 36.94
-2 -4 -4 369.08 36.83
-2 -4 -4 331.78 37.78
-2 -4 -4 303.96 37.74
-2 -4 -4 325.56 35.57
-2 -4 -4 346.26 38.27
-2 -4 -4 378.34 36.31
-2 -4 -3 495.97 50.1
-2 -4 -3 530.63 50.67
-2 -4 -3 688.57 55.37
-2 -4 -3 488.8 49.19
-2 -4 -3 583.98 50.2
-2 -4 -3 533.5 52.45
-2 -4 -3 556.89 52.56
-2 -4 -3 497.76 49.75
-2 -4 -2 57.68 10.39
-2 -4 -2 65.38 13.48
-2 -4 -2 52.23 11.62
-2 -4 -2 38.99 11.3
-2 -4 -2 48 10.65
-2 -4 -2 60.63 14.05
-2 -4 -2 61.48 14
-2 -4 -2 39.72 12.57
-2 -4 -2 43.66 11.32
-2 -4 -1 892.75 80.67
-2 -4 -1 939.19 79.05
-2 -4 -1 864.01 76.83
-2 -4 -1 929.66 76.77
-2 -4 -1 965.97 81.4
-2 -4 -1 896.8 77.61
-2 -4 -1 892 79.32
-2 -4 -1 942.89 79.93
-2 -4 -1 839.69 74.25
-2 -4 -1 941.92 76.3
-2 -4 -1 978.1 79.51
-2 -4 -1 955.5 74.95
-2 -4 -1 916.4 74.69
-2 -4 0 350.11 35.49
-2 -4 0 409.25 38.06
-2 -4 0 327.73 34.27
-2 -4 0 386.77 38.19
-2 -4 0 342.09 34.46
-2 -4 0 384.06 38.47
-2 -4 0 386.13 37.83
-2 -4 0 312.12 32.42
-2 -4 0 311.17 32.75
-2 -4 0 322.46 32.39
-2 -4 0 317.39 32.32
-2 -4 0 368.8 32.29
-2 -4 0 364.85 34.98
-2 -4 1 990.28 78.51
-2 -4 1 957.62 81.6
-2 -4 1 848.45 80.21
-2 -4 1 851.18 78.99
-2 -4 1 1078.49 84.3
-2 -4 1 1043.24 83.65
-2 -4 1 995.72 79.54
-2 -4 1 1007.19 83.9
-2 -4 1 970.44 79.05
-2 -4 1 909.45 77.01
-2 -4 1 904.16 78.46
-2 -4 1 932.89 78.77
-2 -4 1 824.91 77.13
-2 -4 2 3.05 7.05
-2 -4 2 11.08 8.53
-2 -4 2 2.05 7.47
-2 -4 2 -1.85 6.99
-2 -4 2 9.15 7.61
-2 -4 2 6.98 9.81
-2 -4 2 8.59 9.71
-2 -4 2 15.77 7.88
-2 -4 2 2.56 9.94
-2 -4 2 4.88 7.82
-2 -4 2 1.64 6.75
-2 -4 3 804.63 71.36
-2 -4 3 842.45 66.6
-2 -4 3 857.2 68.47
-2 -4 3 696.18 68.36
-2 -4 3 719.06 65.84
-2 -4 3 658.22 66.78
-2 -4 3 793.16 67.93
-2 -4 3 704.09 66.77
-2 -4 4 117.32 21.63
-2 -4 4 72.19 16.95
-2 -4 4 97.27 16.86
-2 -4 4 95.04 16.35
-2 -4 4 128.65 19.72
-2 -4 4 82.81 16.28
-2 -4 4 99.8 18
-2 -4 5 617.09 56.15
-2 -4 5 485.95 51.74
-2 -4 5 548.66 50.55
-2 -4 5 494.43 50.73
-2 -4 5 456.45 49.74
-2 -4 5 521.91 51.81
-2 -4 6 153.95 24.48
-2 -4 6 156.84 26.22
-2 -4 6 155.58 24.75
-2 -4 6 159.58 23.77
-2 -4 6 133.99 22.33
-2 -4 6 158.12 23.37
-2 -4 6 130.23 22.71
-2 -4 7 232.54 32.54
-2 -4 7 300.05 35.24
-2 -4 7 255.75 32.72
-2 -4 7 265.86 33.54
-2 -4 7 236.15 33.07
-2 -4 7 335.28 35.59
-2 -4 7 205.8 31.06
-2 -4 8 123.79 23.87
-2 -4 8 173.13 26.04
-2 -4 8 130.62 24.22
-2 -4 8 121.35 25.49
-2 -4 8 170.41 26.64
-2 -4 8 170.47 25.75
-2 -4 9 23.38 13.89
-2 -4 9 -2.84 13.42
-2 -4 9 31.05 16.64
-2 -4 9 11.62 13.17
-2 -4 9 17.59 15.9
-2 -4 9 22.01 14.93
-2 -4 10 40.24 15.64
-2 -4 10 64.04 18.53
-2 -4 10 76.18 20.58
-2 -4 10 43.23 17.54
-2 -4 10 65.78 19.38
-2 -4 10 94.45 21.82
-2 -4 11 41.64 17.49
-2 -4 11 68.16 20.51
-2 -4 11 51.26 20.43
-2 -4 11 8.76 15.32
-2 -3 -14 74.78 27.21
-2 -3 -14 50.67 23.08
-2 -3 -13 182.31 36.5
-2 -3 -13 276.72 39.07
-2 -3 -13 215.83 35.47
-2 -3 -13 218.14 35.91
-2 -3 -12 13.59 14.34
-2 -3 -12 46.43 20.76
-2 -3 -12 -3.73 16.49
-2 -3 -12 3.3 17.62
-2 -3 -12 17.24 18.1
-2 -3 -11 883.32 85.71
-2 -3 -11 937.11 85.81
-2 -3 -11 888.74 86.83
-2 -3 -11 923.34 86.33
-2 -3 -11 888.43 85.3
-2 -3 -11 892.22 85.43
-2 -3 -10 216.46 32.74
-2 -3 -10 233.73 31.75
-2 -3 -10 189.96 29.79
-2 -3 -10 211.97 30.63
-2 -3 -10 243.15 32.66
-2 -3 -10 183.96 31.39
-2 -3 -9 413.24 45.64
-2 -3 -9 384.56 44.52
-2 -3 -9 424.3 46.8
-2 -3 -9 440.16 45.92
-2 -3 -9 418.14 46.74
-2 -3 -9 443.8 47.97
-2 -3 -8 268.5 34.56
-2 -3 -8 313.04 35.49
-2 -3 -8 349.84 37.98
-2 -3 -8 311.01 35.05
-2 -3 -8 278.87 35.69
-2 -3 -8 341.84 38.14
-2 -3 -7 202.06 28.42
-2 -3 -7 243.58 29.29
-2 -3 -7 280.57 31.86
-2 -3 -7 246.43 29.56
-2 -3 -7 291.95 33.68
-2 -3 -7 236.87 30.4
-2 -3 -7 281.52 32.63
-2 -3 -6 403.32 39.97
-2 -3 -6 437.12 44.09
-2 -3 -6 368.85 39.78
-2 -3 -6 390.64 41.1
-2 -3 -6 450.19 38.28
-2 -3 -6 378.19 39.87
-2 -3 -6 346.64 39.29
-2 -3 -6 383.99 39.99
-2 -3 -6 388.37 40.92
-2 -3 -5 435.88 42.66
-2 -3 -5 466.02 46.35
-2 -3 -5 395.84 42.59
-2 -3 -5 446.74 44
-2 -3 -5 441.13 43.04
-2 -3 -5 446.23 43.25
-2 -3 -5 475.74 41.57
-2 -3 -5 435.26 43.81
-2 -3 -4 1034.27 89.85
-2 -3 -4 990.09 91.56
-2 -3 -4 1100.32 91.21
-2 -3 -4 1044.03 90.08
-2 -3 -4 1231.11 93.11
-2 -3 -4 1170.98 89.36
-2 -3 -4 1029.8 88.97
-2 -3 -4 1017.59 89.38
-2 -3 -3 214.12 28.03
-2 -3 -3 287.25 28.21
-2 -3 -3 260.06 29.06
-2 -3 -3 251.59 27.35
-2 -3 -3 266.59 27.84
-2 -3 -3 245.19 27.7
-2 -3 -3 244.54 22.92
-2 -3 -3 255.32 27.09
-2 -3 -3 347.65 31.78
-2 -3 -2 1665.24 123.96
-2 -3 -2 1553.06 124.28
-2 -3 -2 1528.14 126.06
-2 -3 -2 1616.31 120.21
-2 -3 -2 1782.7 128.84
-2 -3 -2 1519.33 121.85
-2 -3 -2 1438.07 121.98
-2 -3 -2 1495.76 125.08
-2 -3 -2 1675.69 125.72
-2 -3 -2 1724.43 127.35
-2 -3 -2 1469.73 119.91
-2 -3 -2 1465.73 119.97
-2 -3 -2 1613.89 126.25
-2 -3 -1 96.32 14.3
-2 -3 -1 90.34 10.36
-2 -3 -1 58.83 11.19
-2 -3 -1 103.2 15.36
-2 -3 -1 96.44 12.92
-2 -3 -1 72 12.95
-2 -3 -1 110.33 14.18
-2 -3 -1 68.7 9.35
-2 -3 -1 74.74 10.58
-2 -3 -1 78.16 13.05
-2 -3 -1 77.98 13.62
-2 -3 -1 68.3 10.21
-2 -3 -1 93.92 11.29
-2 -3 -1 87.03 12.15
-2 -3 -1 84.02 11.57
-2 -3 0 2054.91 158.37
-2 -3 0 1929.67 157.14
-2 -3 0 2061.57 156.47
-2 -3 0 2026.85 157.54
-2 -3 0 2042.61 156.53
-2 -3 0 1838.56 155.2
-2 -3 0 2011.59 160.31
-2 -3 0 2064.33 152.66
-2 -3 0 2254.43 161.49
-2 -3 0 1717.45 158.1
-2 -3 0 2043.27 154.56
-2 -3 0 1989.14 158.42
-2 -3 0 2205.58 159.77
-2 -3 0 2222.06 160.93
-2 -3 0 2053.67 159.91
-2 -3 0 1904.48 156.7
-2 -3 0 1792.07 156.31
-2 -3 0 2052.67 156.18
-2 -3 1 51.63 10.32
-2 -3 1 19.49 8.26
-2 -3 1 55.66 9.07
-2 -3 1 45.71 9.4
-2 -3 1 30.55 8.57
-2 -3 1 42.14 8.36
-2 -3 1 54.53 12.02
-2 -3 1 40.2 9.49
-2 -3 1 65.51 11.83
-2 -3 1 37.05 11.09
-2 -3 1 43.13 8.5
-2 -3 1 29.88 9.19
-2 -3 1 44.23 11.68
-2 -3 1 48.58 10.87
-2 -3 1 34.91 8.86
-2 -3 1 53.26 10.05
-2 -3 1 45.26 10.43
-2 -3 2 736.76 63.95
-2 -3 2 751.55 62.81
-2 -3 2 675.45 64.41
-2 -3 2 775.73 61.93
-2 -3 2 725.04 63.35
-2 -3 2 728.37 64.02
-2 -3 2 783.38 66.69
-2 -3 2 681.24 62.71
-2 -3 2 823.63 64.45
-2 -3 2 688.99 61.65
-2 -3 2 781.86 63.13
-2 -3 2 658.12 58.51
-2 -3 2 702.89 62.83
-2 -3 2 684.99 60.32
-2 -3 2 697.4 62.6
-2 -3 2 685.09 62.58
-2 -3 3 441.19 38.35
-2 -3 3 312.18 37.56
-2 -3 3 410.22 37.34
-2 -3 3 413.34 37.03
-2 -3 3 400.13 41
-2 -3 3 431.25 39.09
-2 -3 3 370.86 37.92
-2 -3 3 429.86 38.31
-2 -3 3 310.82 35.66
-2 -3 3 323.34 36.7
-2 -3 3 333.66 34.68
-2 -3 3 364.77 37.24
-2 -3 3 314.23 36
-2 -3 4 135.13 21.51
-2 -3 4 182.63 21.86
-2 -3 4 116.34 21.17
-2 -3 4 154.42 19.56
-2 -3 4 181.43 22.94
-2 -3 4 166.99 24.28
-2 -3 4 153.84 21.07
-2 -3 4 153.77 21.54
-2 -3 4 154.31 21.71
-2 -3 5 435.27 46.81
-2 -3 5 539.57 51.43
-2 -3 5 457.9 46.98
-2 -3 5 475.24 47.3
-2 -3 5 473.76 46.63
-2 -3 5 448.64 48.07
-2 -3 6 634.19 59.89
-2 -3 6 608.37 57.83
-2 -3 6 586.23 57.42
-2 -3 6 548.45 55.99
-2 -3 6 593.39 58.03
-2 -3 7 220.71 30.53
-2 -3 7 269.53 31.91
-2 -3 7 205.33 29.42
-2 -3 7 229.22 30.07
-2 -3 7 225.97 30.98
-2 -3 8 2.54 10.43
-2 -3 8 10.6 11.98
-2 -3 8 13.34 12.58
-2 -3 8 5.19 13.41
-2 -3 8 10.96 12.66
-2 -3 9 388.44 38.93
-2 -3 9 242.51 35.72
-2 -3 9 304.34 38.18
-2 -3 9 293.56 37.44
-2 -3 10 -2.32 11.12
-2 -3 10 5.79 13.07
-2 -3 10 -2.87 12.68
-2 -3 10 2.9 12.5
-2 -3 11 176.37 25.2
-2 -3 11 194.37 30.22
-2 -3 11 157.42 28.84
-2 -3 11 201 31.19
-2 -3 12 -2.95 15.23
-2 -3 12 6.06 15.11
-2 -3 12 2.99 14.62
-2 -2 -14 234.01 41.9
-2 -2 -14 303.37 44.39
-2 -2 -14 260.18 41.2
-2 -2 -13 95.75 23.59
-2 -2 -13 62.3 27.15
-2 -2 -13 87.7 25.83
-2 -2 -13 130.07 28.64
-2 -2 -12 231.79 32.16
-2 -2 -12 116.36 29.27
-2 -2 -12 199.87 32.55
-2 -2 -12 177.92 31.23
-2 -2 -11 216.25 37.72
-2 -2 -11 316.55 39.52
-2 -2 -11 288.53 37.69
-2 -2 -11 318.55 39.76
-2 -2 -11 357.14 42.04
-2 -2 -10 421.32 49.36
-2 -2 -10 390.62 46.54
-2 -2 -10 480.8 47.94
-2 -2 -10 424.37 47
-2 -2 -10 460.36 48.2
-2 -2 -10 408.25 48.51
-2 -2 -9 317.54 36.69
-2 -2 -9 276.7 33.61
-2 -2 -9 293.25 33.33
-2 -2 -9 245.03 33.81
-2 -2 -9 249.66 32.32
-2 -2 -9 244.42 34.18
-2 -2 -8 292.09 33.69
-2 -2 -8 252.51 31.83
-2 -2 -8 278.57 31.58
-2 -2 -8 264.59 32.34
-2 -2 -8 245.73 30.8
-2 -2 -8 307.32 34.83
-2 -2 -7 960.95 81.69
-2 -2 -7 871.77 79.53
-2 -2 -7 981.57 80.45
-2 -2 -7 882.85 79.37
-2 -2 -7 921.17 81.15
-2 -2 -7 883.37 81.33
-2 -2 -6 22.69 6.52
-2 -2 -6 21.04 10.01
-2 -2 -6 28.32 9.43
-2 -2 -6 8.69 7.15
-2 -2 -6 26.26 12.83
-2 -2 -6 33.26 9.33
-2 -2 -6 21.56 10.42
-2 -2 -6 39.21 12.71
-2 -2 -5 1491.23 123.67
-2 -2 -5 1820.69 129.45
-2 -2 -5 1741.06 131.62
-2 -2 -5 1579.59 129.17
-2 -2 -5 1567 130.04
-2 -2 -5 1622.33 133.33
-2 -2 -5 1743.4 130.04
-2 -2 -5 1478.56 128.75
-2 -2 -5 1575.43 129.62
-2 -2 -4 111.04 15.58
-2 -2 -4 84.81 13.81
-2 -2 -4 81.49 12.04
-2 -2 -4 81.29 13.24
-2 -2 -4 63.14 12.26
-2 -2 -4 92.6 13.6
-2 -2 -4 82.71 13.29
-2 -2 -4 65.61 12.96
-2 -2 -4 82.96 13.54
-2 -2 -4 94.21 14.14
-2 -2 -4 91.41 13.35
-2 -2 -4 90.06 13.64
-2 -2 -4 66.01 14.94
-2 -2 -3 2826.15 222.11
-2 -2 -3 2864.49 223.54
-2 -2 -3 3031.57 224.86
-2 -2 -3 3236.12 225.8
-2 -2 -3 2749.96 225.07
-2 -2 -3 2804.54 223.6
-2 -2 -3 2859.06 223.44
-2 -2 -3 2727.16 224.05
-2 -2 -3 2888.22 226.68
-2 -2 -2 1420.66 101.39
-2 -2 -2 1186.3 103.56
-2 -2 -2 1424.59 103.31
-2 -2 -2 1352.59 106.99
-2 -2 -2 1432.43 109.11
-2 -2 -2 1257.73 105.18
-2 -2 -2 1318.24 100.79
-2 -2 -2 1279.44 107.2
-2 -2 -2 1236.02 106.31
-2 -2 -2 1298.09 106.22
-2 -2 -2 1276.05 106.98
-2 -2 -2 1211.94 108.22
-2 -2 -1 461.22 42.85
-2 -2 -1 470.86 43.61
-2 -2 -1 555.04 41.64
-2 -2 -1 446.84 43.37
-2 -2 -1 521.59 40.86
-2 -2 -1 471.45 44.5
-2 -2 -1 449.26 44.6
-2 -2 -1 486.73 39.24
-2 -2 -1 471.92 38.35
-2 -2 -1 434.61 42.44
-2 -2 -1 485.09 41.27
-2 -2 -1 472.61 43.83
-2 -2 -1 512.04 44.01
-2 -2 -1 591.81 45.9
-2 -2 -1 531.22 46.26
-2 -2 -1 496.12 42.82
-2 -2 -1 566.49 43.19
-2 -2 -1 537.47 41.48
-2 -2 0 21.71 6.34
-2 -2 0 20.89 6.71
-2 -2 0 9.98 5.14
-2 -2 0 23 5.4
-2 -2 0 16.21 5.88
-2 -2 0 12.74 5.74
-2 -2 0 17.25 6.42
-2 -2 0 14.53 5.77
-2 -2 0 12.73 3.25
-2 -2 0 2.73 5.05
-2 -2 0 12.41 5.83
-2 -2 0 15.49 6.91
-2 -2 0 8.53 6.35
-2 -2 0 14.74 6.25
-2 -2 0 6.13 5.37
-2 -2 0 6.78 5.7
-2 -2 0 -1.33 5.96
-2 -2 0 17.27 6.06
-2 -2 0 9.4 5.46
-2 -2 1 101.02 14.99
-2 -2 1 127.12 16.25
-2 -2 1 126.17 14.06
-2 -2 1 136.03 16.23
-2 -2 1 107.11 14.94
-2 -2 1 151.6 16.97
-2 -2 1 111.03 16.81
-2 -2 1 128.83 15.12
-2 -2 1 111.85 13.16
-2 -2 1 119.26 17.09
-2 -2 1 111.38 15.63
-2 -2 1 153.72 18.55
-2 -2 1 138.14 15.76
-2 -2 1 197.05 20.26
-2 -2 1 144.04 18.21
-2 -2 1 133.88 18.1
-2 -2 1 123.89 16.35
-2 -2 1 163.87 18.59
-2 -2 1 127.53 15.91
-2 -2 2 445.39 43.28
-2 -2 2 601.12 48.3
-2 -2 2 440.61 48.4
-2 -2 2 474.87 47.65
-2 -2 2 647.06 52.66
-2 -2 2 505.14 45.48
-2 -2 2 566.62 48.44
-2 -2 2 434.44 46.23
-2 -2 2 580.42 48.31
-2 -2 2 692.06 49.99
-2 -2 2 490.8 42.74
-2 -2 2 522.39 47.97
-2 -2 2 524.49 47.72
-2 -2 2 630.18 50.39
-2 -2 2 652.18 50.68
-2 -2 2 570.41 48.69
-2 -2 3 1753.43 156.72
-2 -2 3 1821.59 156.45
-2 -2 3 2262.32 158.64
-2 -2 3 1724.18 156.07
-2 -2 3 2225.69 158.41
-2 -2 3 2330.68 158.85
-2 -2 3 2197.03 158.68
-2 -2 3 2240.57 159.46
-2 -2 3 2369.77 158.63
-2 -2 3 1806.55 158.32
-2 -2 3 1856.65 154.79
-2 -2 3 1798.75 153.61
-2 -2 3 2076.51 162.03
-2 -2 3 2159.55 156.69
-2 -2 3 1833.65 157.42
-2 -2 3 1700.17 156.55
-2 -2 3 1821.84 155.23
-2 -2 3 1978.67 150.92
-2 -2 4 2086.03 181.33
-2 -2 4 1953.52 181.51
-2 -2 4 2734.18 183.69
-2 -2 4 2804.7 184.13
-2 -2 4 2128.99 183.6
-2 -2 4 2108.31 179.66
-2 -2 4 2804.55 189.64
-2 -2 4 2417.02 180.49
-2 -2 4 1949.56 179.97
-2 -2 4 2454.69 182.73
-2 -2 4 2095.06 181.93
-2 -2 4 2732.2 184.48
-2 -2 4 2145.72 182.73
-2 -2 5 27.49 10.84
-2 -2 5 10.06 10.65
-2 -2 5 20.27 8.75
-2 -2 5 17.89 9.44
-2 -2 5 8.28 8.78
-2 -2 5 4.28 8.84
-2 -2 6 192.38 26.13
-2 -2 6 207.67 24.99
-2 -2 6 240.87 28.42
-2 -2 6 142.57 24.41
-2 -2 6 174.24 25.16
-2 -2 7 19.86 12.59
-2 -2 7 37.06 12.18
-2 -2 7 35.1 12.68
-2 -2 7 60.77 15.63
-2 -2 7 14.65 11.95
-2 -2 8 677.58 67.5
-2 -2 8 682.62 65.47
-2 -2 8 848.19 70.33
-2 -2 8 663.92 65.53
-2 -2 8 730.24 68.42
-2 -2 9 -4.38 11.3
-2 -2 9 -2.74 12.11
-2 -2 9 -2.75 11.27
-2 -2 9 19.1 13.1
-2 -2 10 217.36 28.27
-2 -2 10 261.48 34.21
-2 -2 10 238.73 32.99
-2 -2 10 226.03 31.96
-2 -2 11 26.64 11.59
-2 -2 11 29.26 15.78
-2 -2 11 41.67 18.11
-2 -2 11 39.74 15.78
-2 -2 12 49.01 13.47
-2 -2 12 35.67 17.59
-2 -2 12 54.83 18.69
-2 -2 12 42.82 17.76
-2 -2 13 98.63 23.82
-2 -2 13 73.86 15.74
-2 -1 -14 75.08 27.71
-2 -1 -14 63.89 24.28
-2 -1 -14 59.08 23.96
-2 -1 -13 197.44 36.09
-2 -1 -13 186.84 32.54
-2 -1 -13 117.32 28.45
-2 -1 -12 405.86 52.55
-2 -1 -12 361.77 48.88
-2 -1 -12 319.4 45.98
-2 -1 -11 236.63 38.56
-2 -1 -11 257.68 37.54
-2 -1 -11 322.22 37.7
-2 -1 -11 321.01 41.35
-2 -1 -11 316.56 38.99
-2 -1 -10 199.47 32.81
-2 -1 -10 226.31 35.07
-2 -1 -10 271.64 33.28
-2 -1 -10 228.36 29.8
-2 -1 -10 238.36 29.61
-2 -1 -10 217.85 30.89
-2 -1 -9 -2.97 12.83
-2 -1 -9 19.61 10.86
-2 -1 -9 5.88 13.57
-2 -1 -9 4.88 10.03
-2 -1 -9 12.62 12.36
-2 -1 -9 -3.98 8.58
-2 -1 -9 -1.81 7.8
-2 -1 -9 7.23 9.9
-2 -1 -8 1489.96 127.33
-2 -1 -8 1527.59 127.41
-2 -1 -8 1548.61 126.84
-2 -1 -8 1466.23 124.17
-2 -1 -8 1594.28 123.99
-2 -1 -8 1498.71 120.98
-2 -1 -8 1408.08 121.57
-2 -1 -8 1444.62 123.72
-2 -1 -7 28.48 12.4
-2 -1 -7 52.76 13.61
-2 -1 -7 52 12.06
-2 -1 -7 43.27 11.2
-2 -1 -7 52.85 15.13
-2 -1 -7 64.24 11.11
-2 -1 -7 54.01 12.34
-2 -1 -6 1359.67 109.45
-2 -1 -6 1369.32 105.29
-2 -1 -6 1287.92 105.8
-2 -1 -6 1292.36 107.27
-2 -1 -6 1395.35 110.79
-2 -1 -6 1317.22 105.66
-2 -1 -6 1212.81 105.34
-2 -1 -6 1177.96 102.42
-2 -1 -5 8.72 4.85
-2 -1 -5 9.15 6.24
-2 -1 -5 10.06 7.61
-2 -1 -5 7.18 7.25
-2 -1 -5 17.29 9.82
-2 -1 -5 15.85 8.38
-2 -1 -5 27.79 7.59
-2 -1 -5 23.96 8.03
-2 -1 -5 17.4 6.91
-2 -1 -5 14.68 7.75
-2 -1 -5 13.9 4.35
-2 -1 -4 273.92 22.82
-2 -1 -4 275.22 22.55
-2 -1 -4 273.23 22.59
-2 -1 -4 291.59 24.6
-2 -1 -4 251.91 22.48
-2 -1 -4 280.2 28.87
-2 -1 -4 306.64 27.89
-2 -1 -4 300.11 29.35
-2 -1 -4 232.61 27.07
-2 -1 -4 286.67 31.25
-2 -1 -4 232.66 26.59
-2 -1 -4 276.23 27.63
-2 -1 -4 270.98 22.55
-2 -1 -4 295.34 22.69
-2 -1 -4 261.23 28.11
-2 -1 -3 461.98 43.42
-2 -1 -3 481.48 38.15
-2 -1 -3 444.76 42.19
-2 -1 -3 476.07 43.14
-2 -1 -3 494.88 42.8
-2 -1 -3 493.27 46.6
-2 -1 -3 479.07 40.12
-2 -1 -3 479.14 39.04
-2 -1 -3 483.81 38.24
-2 -1 -3 438.06 40.15
-2 -1 -3 503.22 43.9
-2 -1 -3 489.03 42.98
-2 -1 -3 527.87 45.21
-2 -1 -3 514.58 39.08
-2 -1 -3 533.05 41.09
-2 -1 -3 455.72 38.05
-2 -1 -3 478.41 38.18
-2 -1 -2 1896.55 146.67
-2 -1 -2 1889.34 149.65
-2 -1 -2 1742.89 145.24
-2 -1 -2 1855.19 143.03
-2 -1 -2 1895.8 144.24
-2 -1 -2 1768.73 142.33
-2 -1 -2 2200.17 146.57
-2 -1 -2 2025.32 143.81
-2 -1 -2 2074.3 143.91
-2 -1 -2 1932.55 144.26
-2 -1 -2 2047.71 147.37
-2 -1 -2 1907.56 146.54
-2 -1 -2 2138.9 149.79
-2 -1 -2 1636.87 141
-2 -1 -2 1857.01 142.36
-2 -1 -2 1891.6 147.34
-2 -1 -2 1855.7 142.37
-2 -1 -2 1886.18 142.55
-2 -1 -1 1627.71 132.96
-2 -1 -1 1640.64 135.14
-2 -1 -1 1654.65 130.27
-2 -1 -1 1619.58 129.57
-2 -1 -1 1540.81 131.92
-2 -1 -1 1882.68 132.75
-2 -1 -1 1952.36 134.43
-2 -1 -1 1803.8 131.53
-2 -1 -1 1659.24 131.39
-2 -1 -1 1893.91 134.58
-2 -1 -1 1526.34 131.71
-2 -1 -1 1984.24 136.36
-2 -1 -1 1580.53 133.21
-2 -1 -1 1668.16 133.29
-2 -1 -1 1577.59 132.36
-2 -1 -1 1729.26 130.28
-2 -1 -1 1507.3 131.37
-2 -1 -1 1908.79 135.73
-2 -1 -1 1661.46 130.17
-2 -1 -1 1757.7 130.47
-2 -1 0 509.22 40.36
-2 -1 0 387.03 37.25
-2 -1 0 431.38 37.92
-2 -1 0 397 38.22
-2 -1 0 373.97 35.55
-2 -1 0 461.82 36.78
-2 -1 0 416.1 38.04
-2 -1 0 404.67 38.51
-2 -1 0 375.92 35.11
-2 -1 0 353.41 34.85
-2 -1 0 427.42 38.25
-2 -1 0 349.44 35.88
-2 -1 0 447.97 38.21
-2 -1 0 504.62 40.88
-2 -1 0 436.01 39.4
-2 -1 0 446.28 37.35
-2 -1 0 444.62 38.84
-2 -1 0 461.89 39.32
-2 -1 0 492.79 37.21
-2 -1 0 471.62 36.73
-2 -1 1 996.91 87.36
-2 -1 1 1011.84 85.89
-2 -1 1 988.45 86.33
-2 -1 1 959.13 83.12
-2 -1 1 1136.63 86.2
-2 -1 1 1009.51 85.97
-2 -1 1 1080.58 87.23
-2 -1 1 1028.48 85.86
-2 -1 1 970.93 84.26
-2 -1 1 1030.14 87.73
-2 -1 1 996.73 86.3
-2 -1 1 1127.1 89.27
-2 -1 1 1188.37 88.3
-2 -1 1 1317.05 89.33
-2 -1 1 1229.09 89.06
-2 -1 1 1147.1 86.89
-2 -1 1 1136.92 86.17
-2 -1 2 574.35 53.72
-2 -1 2 527.3 52.27
-2 -1 2 560.82 50.84
-2 -1 2 685.5 53.25
-2 -1 2 521.63 52.18
-2 -1 2 562.68 49.93
-2 -1 2 619.53 52.4
-2 -1 2 525.34 53.32
-2 -1 2 551.22 52.73
-2 -1 2 626.02 56.56
-2 -1 2 599.04 52.39
-2 -1 2 576.27 48.19
-2 -1 2 762.52 51.68
-2 -1 2 651.7 54.09
-2 -1 2 631.39 52.87
-2 -1 2 679.15 54.81
-2 -1 3 2019.97 172.07
-2 -1 3 2184.55 175.98
-2 -1 3 2022.53 176.35
-2 -1 3 2014.38 175.47
-2 -1 3 2492.79 176.13
-2 -1 3 2073.43 176.06
-2 -1 3 2022.37 170.36
-2 -1 3 2572.11 176.32
-2 -1 3 2030.18 176.92
-2 -1 3 2664.42 181.92
-2 -1 3 2487.85 174.55
-2 -1 3 2093.91 169.49
-2 -1 3 2084.68 176.08
-2 -1 3 2541.58 176.43
-2 -1 3 2571.48 177.91
-2 -1 3 2577.49 176.39
-2 -1 4 167.17 24.66
-2 -1 4 272.14 27.63
-2 -1 4 259.23 26.82
-2 -1 4 247.13 26.38
-2 -1 4 263.03 26.62
-2 -1 4 191.12 26.61
-2 -1 4 319.85 31.47
-2 -1 4 226.63 23.61
-2 -1 4 244.86 26.49
-2 -1 4 217.76 26.93
-2 -1 4 188.12 22.81
-2 -1 4 221.45 26.49
-2 -1 4 217.79 26.56
-2 -1 5 635.77 50.79
-2 -1 5 495.96 51.51
-2 -1 5 538.5 47.01
-2 -1 5 648.21 54.49
-2 -1 5 496.62 51.23
-2 -1 5 484.79 50.37
-2 -1 5 542.21 48.12
-2 -1 5 454.78 50.38
-2 -1 6 60.1 13.81
-2 -1 6 44.1 14.22
-2 -1 6 23.07 10.93
-2 -1 6 48.48 10.81
-2 -1 6 47.72 13.8
-2 -1 6 53.88 14.34
-2 -1 7 362.98 38.89
-2 -1 7 383.3 37.44
-2 -1 7 349.63 38.61
-2 -1 7 266.77 35.32
-2 -1 7 311.35 37.44
-2 -1 8 2.07 8.51
-2 -1 8 31.8 12.98
-2 -1 8 13.07 11.56
-2 -1 8 -2.37 9.23
-2 -1 8 15.3 11.53
-2 -1 9 544.89 52.44
-2 -1 9 507.13 53.56
-2 -1 9 441.78 46.94
-2 -1 9 501.52 50.81
-2 -1 9 504.32 52.79
-2 -1 10 256.07 34.92
-2 -1 10 320.87 32.37
-2 -1 10 314.26 38.13
-2 -1 10 221.07 32.83
-2 -1 10 304.22 37.62
-2 -1 11 32.17 15.73
-2 -1 11 24.05 15.91
-2 -1 11 41.52 12.32
-2 -1 11 24.59 14.25
-2 -1 11 17.27 12.9
-2 -1 12 86.34 22.17
-2 -1 12 110.61 21.36
-2 -1 12 123.13 18.55
-2 -1 12 89.32 22.22
-2 -1 13 -3.12 14.41
-2 -1 13 29.93 16.92
-2 -1 13 5.13 9.95
-2 0 -14 134.8 32.6
-2 0 -14 112.38 29.09
-2 0 -14 102.32 27.82
-2 0 -13 316.36 48.91
-2 0 -13 381.68 47.64
-2 0 -13 376.42 47.36
-2 0 -12 14.79 18.46
-2 0 -12 4.09 18.5
-2 0 -12 20.12 16.13
-2 0 -12 9.8 14.79
-2 0 -11 436.1 48.66
-2 0 -11 426.47 52.78
-2 0 -11 454.4 47.74
-2 0 -11 448.94 53.69
-2 0 -11 395 48.07
-2 0 -10 225.74 32.31
-2 0 -10 271.75 38.37
-2 0 -10 250.31 31.85
-2 0 -10 279.02 38.26
-2 0 -10 285.21 34.72
-2 0 -9 266.76 32.01
-2 0 -9 237.28 35.69
-2 0 -9 273.84 31.35
-2 0 -9 248.2 35.9
-2 0 -9 309 34.09
-2 0 -9 234.27 31.49
-2 0 -8 87.95 16.05
-2 0 -8 85.73 20.17
-2 0 -8 116.36 17.73
-2 0 -8 85.22 18.19
-2 0 -8 75.94 19.03
-2 0 -8 97.23 17.01
-2 0 -8 70.68 14.07
-2 0 -7 1365.77 116.61
-2 0 -7 1480.23 120.57
-2 0 -7 1579.92 116.54
-2 0 -7 1490.7 120.91
-2 0 -7 1390.51 116.99
-2 0 -7 1306.24 115.53
-2 0 -7 1391.92 121.51
-2 0 -6 559.65 47.34
-2 0 -6 535.13 49.05
-2 0 -6 526.91 48.83
-2 0 -6 505.79 53.02
-2 0 -6 545.91 49.6
-2 0 -6 493.7 49.03
-2 0 -6 542.78 51.93
-2 0 -6 586.6 49.11
-2 0 -6 560.58 49.77
-2 0 -6 619.48 54.83
-2 0 -5 558.49 53.1
-2 0 -5 607.4 54.27
-2 0 -5 609.32 52.84
-2 0 -5 593.74 49.48
-2 0 -5 625.27 50.13
-2 0 -5 627.34 54.64
-2 0 -5 603.69 52.03
-2 0 -5 502.21 51.3
-2 0 -5 677.18 59.2
-2 0 -5 612.78 49.61
-2 0 -5 589.2 50.2
-2 0 -5 589.2 49.52
-2 0 -5 627.54 52.29
-2 0 -5 616.04 52.57
-2 0 -5 614.88 56.63
-2 0 -5 614.19 54.12
-2 0 -5 553.16 51.1
-2 0 -5 618.41 49.82
-2 0 -5 578.98 49.47
-2 0 -5 709.65 53.41
-2 0 -4 1742.21 122.25
-2 0 -4 1487.36 118.46
-2 0 -4 1548.7 123.27
-2 0 -4 1436.26 122.44
-2 0 -4 1508.96 121.04
-2 0 -4 1549.33 118.32
-2 0 -4 1575.37 118.02
-2 0 -4 1515.3 117.69
-2 0 -4 1423.8 121.58
-2 0 -4 1471.17 120.33
-2 0 -4 1478.01 126.71
-2 0 -4 1552.52 120.73
-2 0 -4 1505.57 120.17
-2 0 -4 1591.09 121.15
-2 0 -4 1560.65 124.19
-2 0 -4 1554.05 120.57
-2 0 -4 1449.69 123.36
-2 0 -4 1484.14 118.31
-2 0 -4 1515.75 118.34
-2 0 -4 1554.18 118.33
-2 0 -4 1514.07 118.27
-2 0 -3 352.19 35.16
-2 0 -3 361.42 35.31
-2 0 -3 348.56 34.38
-2 0 -3 343.63 30.5
-2 0 -3 438.99 34.01
-2 0 -3 338.15 30.12
-2 0 -3 356.81 29.93
-2 0 -3 331.67 32.45
-2 0 -3 326.35 31.67
-2 0 -3 348.64 38.07
-2 0 -3 361.81 32.27
-2 0 -3 390.89 33.63
-2 0 -3 331.37 31.46
-2 0 -3 359.09 30.64
-2 0 -3 376.52 30.88
-2 0 -3 374.1 34.69
-2 0 -3 339.3 32.48
-2 0 -3 389.84 36.16
-2 0 -3 358.58 28.95
-2 0 -3 419.34 34.38
-2 0 -3 366.33 31.94
-2 0 -3 348.16 30.54
-2 0 -3 343.58 30.47
-2 0 -2 1444.23 108.06
-2 0 -2 1292.14 106.08
-2 0 -2 1319.05 107.13
-2 0 -2 1361.38 102.78
-2 0 -2 1247.84 101.92
-2 0 -2 1320.75 102.63
-2 0 -2 1192.36 103.2
-2 0 -2 1229.67 103.95
-2 0 -2 1328.5 110.82
-2 0 -2 1303.53 104.5
-2 0 -2 1182.86 103.35
-2 0 -2 1269.91 103.52
-2 0 -2 1379.39 102.88
-2 0 -2 1279 101.12
-2 0 -2 1393.99 105.36
-2 0 -2 1424.49 105.89
-2 0 -2 1342.71 108.01
-2 0 -2 1391.41 102.86
-2 0 -2 1351.19 102.79
-2 0 -2 1609.85 106.92
-2 0 -2 1424.79 104.9
-2 0 -2 1249.74 102.99
-2 0 -1 305.76 28.42
-2 0 -1 269.97 26.82
-2 0 -1 273.14 23.99
-2 0 -1 256.64 23.69
-2 0 -1 235.32 23.28
-2 0 -1 245.81 24.56
-2 0 -1 213.93 28.97
-2 0 -1 264.31 25
-2 0 -1 283.62 23.44
-2 0 -1 237.4 24.28
-2 0 -1 257.21 24.09
-2 0 -1 278.25 26.42
-2 0 -1 252.29 25.23
-2 0 -1 294.84 26.32
-2 0 -1 266.83 24.16
-2 0 -1 273.49 23.54
-2 0 -1 284.06 26.94
-2 0 -1 278.05 25.3
-2 0 -1 305.38 28.68
-2 0 -1 308.6 28.6
-2 0 -1 272.35 24.05
-2 0 -1 252.34 23.8
-2 0 0 2248.82 170.99
-2 0 0 1968.02 169.89
-2 0 0 1988.78 168.09
-2 0 0 2181.35 167.36
-2 0 0 2493.56 171.45
-2 0 0 2046 167.38
-2 0 0 1897.03 167.15
-2 0 0 2408.52 168.18
-2 0 0 1937.53 167.47
-2 0 0 2009.01 168.96
-2 0 0 2142.64 167.48
-2 0 0 2323.03 169.56
-2 0 0 2136.33 166.58
-2 0 0 2409.58 171.33
-2 0 0 2372.52 169.77
-2 0 0 2128.48 167.52
-2 0 0 2310.76 169.71
-2 0 0 2345.37 170.03
-2 0 0 2300.49 167.61
-2 0 0 2204.23 167.66
-2 0 1 198.84 20.93
-2 0 1 151.48 18.91
-2 0 1 191.82 21.22
-2 0 1 163.73 20.92
-2 0 1 159.22 18.43
-2 0 1 200.34 19.4
-2 0 1 152.44 18.53
-2 0 1 204.72 19.94
-2 0 1 163 18.55
-2 0 1 173.56 20.12
-2 0 1 228.9 23.29
-2 0 1 173.22 16.57
-2 0 1 208.7 21.04
-2 0 1 179.76 18.81
-2 0 1 188.37 19.15
-2 0 1 192.96 20.44
-2 0 1 177.67 18.9
-2 0 1 204.58 20.76
-2 0 1 189.95 19.7
-2 0 2 687.48 61.8
-2 0 2 606.07 63.08
-2 0 2 630.35 61.39
-2 0 2 713.67 60.81
-2 0 2 744.71 61.24
-2 0 2 751.97 61.03
-2 0 2 632.31 60.67
-2 0 2 819.82 62.62
-2 0 2 689.93 62.84
-2 0 2 734.79 64.86
-2 0 2 686.7 60.48
-2 0 2 867.55 63.38
-2 0 2 793.92 61.54
-2 0 2 760.79 62.27
-2 0 2 735.04 61.5
-2 0 2 735.89 62.65
-2 0 2 867.71 62.81
-2 0 2 669.61 61.66
-2 0 3 1.54 5.44
-2 0 3 1.69 5.96
-2 0 3 -2.52 5.56
-2 0 3 3.73 5.86
-2 0 3 -1.46 5.32
-2 0 3 -1.37 5.15
-2 0 3 -1.73 6.11
-2 0 3 6.6 6.02
-2 0 3 5.2 5.74
-2 0 3 5.69 4.55
-2 0 3 -1.29 5.45
-2 0 3 -4.15 5.82
-2 0 3 8.68 5.84
-2 0 3 1.09 5.05
-2 0 3 1.47 4.59
-2 0 3 6.43 5.53
-2 0 3 -1.84 6.23
-2 0 4 1014.23 110.85
-2 0 4 1574.97 113.17
-2 0 4 1609.13 113.72
-2 0 4 1508.35 112.39
-2 0 4 1370.03 112.97
-2 0 4 1230.38 113.45
-2 0 4 1239.58 113.28
-2 0 4 1532.39 110.16
-2 0 4 1266.67 113.79
-2 0 4 1433.66 109.88
-2 0 4 1165.1 111.29
-2 0 4 1225.28 113.73
-2 0 4 1304.93 111.11
-2 0 4 1628.12 113.35
-2 0 4 1607.14 112.53
-2 0 5 283.72 28.93
-2 0 5 224.98 28.05
-2 0 5 227.78 28.83
-2 0 5 239.59 23.45
-2 0 5 178.44 26.92
-2 0 5 254.76 26.18
-2 0 5 201.16 26.37
-2 0 5 285.21 28.34
-2 0 5 215.37 27.95
-2 0 6 556.32 55.92
-2 0 6 633.61 57.38
-2 0 6 629.66 55.38
-2 0 6 539.32 55.02
-2 0 6 536.21 53.17
-2 0 6 578 56.28
-2 0 7 569.29 57.69
-2 0 7 545.01 57.69
-2 0 7 750.15 58.97
-2 0 7 574.16 57.18
-2 0 7 546.28 54.82
-2 0 7 589.22 58.02
-2 0 8 169.99 27.02
-2 0 8 184.87 27.85
-2 0 8 209.97 26.69
-2 0 8 194.77 27.02
-2 0 8 173.77 24.09
-2 0 8 164.19 26
-2 0 9 172.51 28.3
-2 0 9 222.62 31.82
-2 0 9 234.11 28.1
-2 0 9 203.93 27.82
-2 0 9 144.95 25.19
-2 0 10 -8.66 13.32
-2 0 10 -2.96 12.79
-2 0 10 4.75 11.62
-2 0 10 7.81 12.97
-2 0 10 5.4 12.2
-2 0 11 261.46 35.46
-2 0 11 204.33 32.79
-2 0 11 233.57 32.35
-2 0 11 313.33 34.78
-2 0 12 1.84 9.15
-2 0 12 2.62 11.3
-2 0 12 -12.06 15.03
-2 0 12 -3.11 15.5
-2 0 13 159.89 22.4
-2 0 13 210.36 32.36
-2 0 13 151.3 28.06
-2 0 13 126.47 25.69
-2 1 -13 11.16 19.82
-2 1 -13 3.38 15.91
-2 1 -13 -4.17 23.57
-2 1 -13 7.05 17.57
-2 1 -12 261.1 35.77
-2 1 -12 242.46 38.19
-2 1 -12 232.53 34.59
-2 1 -12 206.42 36.72
-2 1 -12 196.41 33.66
-2 1 -11 45.75 17.76
-2 1 -11 79.33 24.5
-2 1 -11 35.48 15.33
-2 1 -11 81.02 23.65
-2 1 -11 74.89 19.6
-2 1 -10 250.78 33.38
-2 1 -10 320.11 41.92
-2 1 -10 256.53 33.66
-2 1 -10 251.39 37.34
-2 1 -10 244.38 33.15
-2 1 -9 164.16 22.89
-2 1 -9 132.9 27.61
-2 1 -9 124.39 22.28
-2 1 -9 154.88 23.41
-2 1 -9 137.95 26.36
-2 1 -9 129.91 22.52
-2 1 -8 783.59 71.39
-2 1 -8 693.09 75.04
-2 1 -8 843.3 74.21
-2 1 -8 874.35 73.24
-2 1 -8 808.45 73.1
-2 1 -8 859.2 79.58
-2 1 -7 611.85 53.62
-2 1 -7 611.7 55.94
-2 1 -7 522.54 59.56
-2 1 -7 599.88 55.11
-2 1 -7 588.08 58.78
-2 1 -7 624.04 54.9
-2 1 -7 637.06 58.92
-2 1 -7 557.52 53.51
-2 1 -6 157.96 18.77
-2 1 -6 167.32 20.28
-2 1 -6 148.53 19.72
-2 1 -6 138.83 19.63
-2 1 -6 112.33 21.32
-2 1 -6 141.41 17.8
-2 1 -6 139.82 18.07
-2 1 -6 164.4 23.47
-2 1 -6 125.27 21.1
-2 1 -6 141.39 18.29
-2 1 -5 1878.9 130.24
-2 1 -5 1574.02 131.26
-2 1 -5 1637.74 130.86
-2 1 -5 1644.96 131.11
-2 1 -5 1602.46 127.51
-2 1 -5 1710.25 128.93
-2 1 -5 1695.73 128.38
-2 1 -5 1527.49 131.58
-2 1 -5 1556.9 128.08
-2 1 -5 1764.23 136.56
-2 1 -5 1673.72 129.99
-2 1 -5 1554.11 129.7
-2 1 -5 1631.6 130.6
-2 1 -5 1649.62 135.12
-2 1 -5 1700.65 132.7
-2 1 -5 1493.04 126.4
-2 1 -5 1618.72 127.67
-2 1 -5 1654.53 127.76
-2 1 -5 1428.3 127.95
-2 1 -5 1679.75 127.92
-2 1 -5 1577.64 127.44
-2 1 -4 199.96 18.73
-2 1 -4 193.4 21.2
-2 1 -4 173.34 22.82
-2 1 -4 196.39 22.37
-2 1 -4 177.01 22.34
-2 1 -4 175.63 19.57
-2 1 -4 191.82 19.82
-2 1 -4 181.72 19.74
-2 1 -4 170.98 21.82
-2 1 -4 177.91 19.44
-2 1 -4 228.27 28.65
-2 1 -4 196 21.85
-2 1 -4 177.31 21.26
-2 1 -4 170.79 20.75
-2 1 -4 214.85 22.37
-2 1 -4 166.51 23.77
-2 1 -4 202.5 19.28
-2 1 -4 186.83 23.29
-2 1 -4 196.44 19.98
-2 1 -4 211.04 20.26
-2 1 -4 190.74 19.73
-2 1 -4 194.8 19.93
-2 1 -3 888.87 71.12
-2 1 -3 884.66 68.83
-2 1 -3 1015.69 74.77
-2 1 -3 853.13 73.09
-2 1 -3 828.72 71.54
-2 1 -3 869.61 69.03
-2 1 -3 849.56 69.52
-2 1 -3 887.35 69.17
-2 1 -3 762.09 68.86
-2 1 -3 778.8 70.15
-2 1 -3 788.52 68.04
-2 1 -3 879.4 79.04
-2 1 -3 855.47 71.2
-2 1 -3 907.25 71.14
-2 1 -3 846.98 70.98
-2 1 -3 819.74 67.66
-2 1 -3 944.82 74.27
-2 1 -3 852.56 68.88
-2 1 -3 867.33 74.03
-2 1 -3 873.53 69.68
-2 1 -3 833.39 69.47
-2 1 -3 908.82 69.87
-2 1 -3 805.63 69.25
-2 1 -2 945.03 68.97
-2 1 -2 711.15 65.67
-2 1 -2 762.5 67.79
-2 1 -2 774.18 64.21
-2 1 -2 811.72 64.09
-2 1 -2 756.22 64.09
-2 1 -2 696.49 63.42
-2 1 -2 807.45 62.36
-2 1 -2 731.98 65.19
-2 1 -2 752.44 61.03
-2 1 -2 783.63 65.4
-2 1 -2 730.53 65.2
-2 1 -2 854.4 64.9
-2 1 -2 833 64.77
-2 1 -2 735.15 64.06
-2 1 -2 874.89 67.46
-2 1 -2 809.72 68.48
-2 1 -2 827.08 64.24
-2 1 -2 848.11 66.21
-2 1 -2 795.44 64.35
-2 1 -2 805.73 64.43
-2 1 -1 911.42 68.4
-2 1 -1 904.46 69.45
-2 1 -1 959.88 71.73
-2 1 -1 779.24 69.51
-2 1 -1 862.27 71.97
-2 1 -1 868.51 67.99
-2 1 -1 788.43 67.26
-2 1 -1 759.12 67.58
-2 1 -1 783.52 65.78
-2 1 -1 812.02 65.99
-2 1 -1 817.93 68.9
-2 1 -1 826.26 68.62
-2 1 -1 838.81 65.37
-2 1 -1 732.51 68.41
-2 1 -1 894.67 66.52
-2 1 -1 881.68 68.97
-2 1 -1 943.02 72
-2 1 -1 835.07 67.87
-2 1 -1 822 67.81
-2 1 -1 779.86 67.53
-2 1 0 124.3 17.33
-2 1 0 129.27 14.71
-2 1 0 137.65 17.34
-2 1 0 143.95 15.63
-2 1 0 123.22 15.01
-2 1 0 104.25 14.09
-2 1 0 124.11 11.85
-2 1 0 126.94 12.92
-2 1 0 129.14 15.63
-2 1 0 133.13 13.45
-2 1 0 100.2 14.56
-2 1 0 139.27 15.33
-2 1 0 110.48 14.94
-2 1 0 126.34 15.07
-2 1 0 149.89 14.77
-2 1 0 139.62 17.1
-2 1 0 172.26 18.31
-2 1 0 163.72 16.05
-2 1 0 131.72 15.33
-2 1 1 1956.91 164.61
-2 1 1 1966.92 164.6
-2 1 1 1936.58 160.92
-2 1 1 2266.29 162.18
-2 1 1 1878.25 162
-2 1 1 2009.37 159.17
-2 1 1 2113.29 161.53
-2 1 1 2117.73 161.59
-2 1 1 2099.31 161.81
-2 1 1 2350.54 162.53
-2 1 1 2162.93 162.03
-2 1 1 2121 158.9
-2 1 1 2233.36 163.83
-2 1 1 1725.63 161.28
-2 1 1 1940.98 160.21
-2 1 1 2017.8 162.38
-2 1 1 2429.94 164.13
-2 1 1 1994.75 164.67
-2 1 1 2196.14 162.24
-2 1 1 2193.58 161.8
-2 1 2 1225.04 88.94
-2 1 2 1144.71 88.23
-2 1 2 993.3 89
-2 1 2 1002.46 87.09
-2 1 2 1025.33 87.13
-2 1 2 1212.13 88.75
-2 1 2 1053.48 87.57
-2 1 2 1160.7 83.48
-2 1 2 1246.76 89.58
-2 1 2 966.25 86.87
-2 1 2 890.72 87.49
-2 1 2 991.02 88.37
-2 1 2 1267.06 88.98
-2 1 2 947.27 91.36
-2 1 2 1001.38 87.8
-2 1 2 1003.82 90.48
-2 1 2 1255.51 89.44
-2 1 3 1122.16 87.18
-2 1 3 1149.49 86.96
-2 1 3 1013.83 88.11
-2 1 3 1044.81 86.2
-2 1 3 1000.48 85.06
-2 1 3 1214.42 87.17
-2 1 3 1112.03 86.48
-2 1 3 1088.31 86.28
-2 1 3 992.25 87.59
-2 1 3 1011.98 86.1
-2 1 3 1175.64 87.26
-2 1 3 830.22 85.89
-2 1 3 884.08 89.03
-2 1 3 1165.57 86.43
-2 1 3 1040.72 89.66
-2 1 4 619.89 49.92
-2 1 4 566.64 49.07
-2 1 4 447.24 49.09
-2 1 4 513.39 48.92
-2 1 4 564.35 51.27
-2 1 4 611.71 49.06
-2 1 4 512.05 48.23
-2 1 4 590.46 47.63
-2 1 4 566.34 48.99
-2 1 4 597.73 48.15
-2 1 4 628.65 50.03
-2 1 4 416.9 48.43
-2 1 4 397.57 49.62
-2 1 4 614.96 47.95
-2 1 4 552.59 53.18
-2 1 5 55.98 13.77
-2 1 5 62.72 10.63
-2 1 5 55.01 13.91
-2 1 5 76.29 10.74
-2 1 5 70.08 14.58
-2 1 5 58.57 13.43
-2 1 5 48.66 12.6
-2 1 5 55.94 11.98
-2 1 6 748.36 57.83
-2 1 6 549.44 58.52
-2 1 6 516.63 56.48
-2 1 6 619.89 57.49
-2 1 6 618.28 59.46
-2 1 7 89.57 16.29
-2 1 7 58.55 15.93
-2 1 7 68.87 16.51
-2 1 7 76.18 16.44
-2 1 7 72.73 17.47
-2 1 8 434.91 41.63
-2 1 8 365.81 40.6
-2 1 8 306.42 40.68
-2 1 8 348.34 40.07
-2 1 8 445.52 45.03
-2 1 9 9.03 11.05
-2 1 9 -2.8 12.1
-2 1 9 4.91 10.85
-2 1 9 -2.43 10.51
-2 1 9 2.9 12.23
-2 1 10 417.24 48.11
-2 1 10 383.27 45.7
-2 1 10 359.88 44.05
-2 1 11 -4.8 11.97
-2 1 11 9.32 13.72
-2 1 11 -2.9 12.23
-2 1 12 145.1 27.4
-2 1 12 106 24.68
-2 1 13 65.4 17.73
-2 1 13 34.92 18.53
-2 1 13 40.53 16.86
-2 2 -13 89.83 28.23
-2 2 -13 97.13 29.78
-2 2 -13 114.97 26.86
-2 2 -12 76.13 24.83
-2 2 -12 34.15 22.16
-2 2 -12 65.29 21.16
-2 2 -11 136.05 30.95
-2 2 -11 185.79 33.53
-2 2 -11 223.03 32.57
-2 2 -10 312.02 44.77
-2 2 -10 339.25 46.83
-2 2 -10 407.71 44.29
-2 2 -9 65.42 19.35
-2 2 -9 43.93 15.84
-2 2 -9 61.52 20.85
-2 2 -8 223.49 36.5
-2 2 -8 202.28 28.71
-2 2 -8 298.61 30.48
-2 2 -8 213.32 34.23
-2 2 -8 264.04 31.29
-2 2 -8 263.46 31.98
-2 2 -7 9.1 10.29
-2 2 -7 29.08 14.92
-2 2 -7 8.36 9.46
-2 2 -7 5.46 8.42
-2 2 -7 8.63 7.99
-2 2 -7 8.67 11.57
-2 2 -7 7.07 11.56
-2 2 -6 684.77 62.52
-2 2 -6 709.89 62.53
-2 2 -6 687.81 61.95
-2 2 -6 656.73 60.27
-2 2 -6 714.16 60.31
-2 2 -6 541.74 62.76
-2 2 -6 734.11 65.83
-2 2 -5 76.08 14.51
-2 2 -5 106.37 20.37
-2 2 -5 97.86 15.49
-2 2 -5 108.54 17.18
-2 2 -5 103.12 16.76
-2 2 -5 77.32 16.62
-2 2 -5 117.58 16.67
-2 2 -5 122.47 18.08
-2 2 -5 111.35 15.41
-2 2 -4 1997.98 137.39
-2 2 -4 1620.88 132.16
-2 2 -4 1608.02 132.13
-2 2 -4 1425.92 133.27
-2 2 -4 1673.19 132.56
-2 2 -4 1674 132.57
-2 2 -4 1716.44 136.79
-2 2 -4 1611.58 132.74
-2 2 -4 1743.33 130.24
-2 2 -4 1617.7 132.18
-2 2 -4 1837.05 134.41
-2 2 -4 1636.86 133.26
-2 2 -4 1626.46 134.24
-2 2 -3 7.87 6.2
-2 2 -3 0.99 4.96
-2 2 -3 7.02 6.36
-2 2 -3 1.72 7.1
-2 2 -3 1.59 7.05
-2 2 -3 22.98 7.22
-2 2 -3 10.73 6.82
-2 2 -3 16.98 6.78
-2 2 -3 9.39 5.82
-2 2 -3 11.19 6.99
-2 2 -3 4.07 6.29
-2 2 -3 4.73 5.78
-2 2 -3 1.87 5.09
-2 2 -3 0.72 3.68
-2 2 -3 9.43 9.08
-2 2 -3 17.03 6.8
-2 2 -3 9.7 5.85
-2 2 -3 25.35 7.81
-2 2 -2 510.27 42.19
-2 2 -2 392.51 38.13
-2 2 -2 419.4 40.39
-2 2 -2 451.32 38.36
-2 2 -2 388.66 38.22
-2 2 -2 391.99 37.12
-2 2 -2 395.95 37.73
-2 2 -2 446.71 38.42
-2 2 -2 390.66 38.45
-2 2 -2 427.28 38.89
-2 2 -2 387.89 38.95
-2 2 -2 396.65 36.44
-2 2 -2 379.38 35.76
-2 2 -2 449.41 41.72
-2 2 -2 415.12 38
-2 2 -2 420.45 38.04
-2 2 -2 407.42 36.86
-2 2 -2 454 39.38
-2 2 -1 2074.28 140.97
-2 2 -1 1576.53 136.98
-2 2 -1 1557 138.74
-2 2 -1 1836.31 136.83
-2 2 -1 1594.09 136.99
-2 2 -1 1757.22 136.27
-2 2 -1 1890.2 137.08
-2 2 -1 1773.1 136.8
-2 2 -1 1701.66 134.28
-2 2 -1 1566 136.68
-2 2 -1 1570.53 136.82
-2 2 -1 1583.23 137.7
-2 2 -1 1700.11 135.47
-2 2 -1 1825.48 140.3
-2 2 -1 1792.27 136.8
-2 2 -1 1780.92 136.87
-2 2 -1 1851.17 137.78
-2 2 -1 1871.11 136.34
-2 2 0 1150.11 93.81
-2 2 0 1208.43 93.93
-2 2 0 1083.14 91.77
-2 2 0 1047.33 93.78
-2 2 0 1115.78 94.19
-2 2 0 1272.31 93.93
-2 2 0 1243.39 94.68
-2 2 0 1160.93 93.74
-2 2 0 1140.71 96.63
-2 2 0 1041.98 94.17
-2 2 0 1141.63 93.16
-2 2 0 1248.4 94.23
-2 2 0 1502.83 98.21
-2 2 0 1102.43 95.3
-2 2 0 1076.17 96.67
-2 2 1 497.46 47.62
-2 2 1 482.15 48.06
-2 2 1 461.16 42.8
-2 2 1 579.82 45.95
-2 2 1 423.54 45.18
-2 2 1 561.56 45.21
-2 2 1 463.1 39.72
-2 2 1 493.6 39.82
-2 2 1 479.97 45.3
-2 2 1 409.83 44.55
-2 2 1 536.8 44.17
-2 2 1 601.14 45.77
-2 2 1 606.07 45.95
-2 2 1 569.6 45.85
-2 2 1 565.32 47.78
-2 2 1 536.03 45.5
-2 2 1 589.7 46.04
-2 2 1 495.59 48.55
-2 2 1 650.56 48.63
-2 2 2 529.67 44.01
-2 2 2 535.75 43.91
-2 2 2 534.39 43.33
-2 2 2 382.44 42.49
-2 2 2 373.32 42.74
-2 2 2 517.33 43.14
-2 2 2 520.35 43.49
-2 2 2 509.46 43.7
-2 2 2 538.73 45.32
-2 2 2 484.21 42.86
-2 2 2 412.35 43.88
-2 2 2 554.41 44.22
-2 2 2 395.95 45.62
-2 2 2 417.23 41.47
-2 2 2 601.95 45.63
-2 2 2 484.25 47.66
-2 2 3 852.1 65.53
-2 2 3 865.67 65.96
-2 2 3 654.53 64.95
-2 2 3 704.14 65.69
-2 2 3 670.68 63.91
-2 2 3 850.86 65.5
-2 2 3 718.17 68.96
-2 2 3 639.52 67.49
-2 2 3 854.55 65.9
-2 2 3 827.02 65.84
-2 2 3 666.81 66.15
-2 2 3 876.33 65.95
-2 2 3 652.44 63.63
-2 2 3 755.75 63.58
-2 2 3 797.3 64.69
-2 2 3 849.35 65.05
-2 2 4 38.12 13.06
-2 2 4 48.87 14.21
-2 2 4 55.99 10.18
-2 2 4 56.95 10.65
-2 2 4 34.96 9.96
-2 2 4 48.92 11.86
-2 2 4 71.88 11.57
-2 2 4 51.37 10.31
-2 2 5 524.05 43.22
-2 2 5 503.55 45.3
-2 2 5 482.01 45.74
-2 2 5 397.61 47.66
-2 2 5 418.28 47.56
-2 2 6 219.15 23.87
-2 2 6 208.32 24.69
-2 2 6 148.96 24.52
-2 2 6 122.67 24.1
-2 2 7 966.79 75.35
-2 2 7 798.77 77
-2 2 7 904.91 75.49
-2 2 8 14.87 10.47
-2 2 8 8.42 13
-2 2 8 25.8 14.59
-2 2 8 19.18 11.02
-2 2 9 490.79 53.22
-2 2 9 452.7 51.19
-2 2 9 410.67 51.19
-2 2 10 309.3 33.71
-2 2 10 241.68 33.92
-2 2 10 187.16 30.93
-2 2 10 233.48 34.1
-2 2 11 41.41 15.16
-2 2 11 3.13 15.16
-2 2 11 22.48 15.09
-2 2 11 36.34 16.49
-2 2 12 34.8 16.15
-2 2 12 22.32 16.55
-2 2 12 16.76 13.28
-2 2 12 26.73 16.17
-2 2 13 95.85 23.29
-2 2 13 99.35 22.6
-2 3 -12 -3.75 18.67
-2 3 -12 -3.63 16.75
-2 3 -12 -10.84 18.33
-2 3 -11 140.41 30.82
-2 3 -11 159.72 29.89
-2 3 -11 186.46 32.9
-2 3 -10 18.77 18.49
-2 3 -10 42.49 18.33
-2 3 -10 22.62 21.41
-2 3 -9 217.96 36.07
-2 3 -9 201.57 29.6
-2 3 -9 269.82 38.93
-2 3 -9 252.45 34
-2 3 -8 -2.82 11.87
-2 3 -8 -2.22 11.06
-2 3 -8 -2.47 11.41
-2 3 -7 854.15 76.34
-2 3 -7 916.63 77.36
-2 3 -7 885.21 77.85
-2 3 -7 776.31 74.02
-2 3 -7 771.49 73.37
-2 3 -6 143.77 21.12
-2 3 -6 92.71 19.57
-2 3 -6 139.17 23.3
-2 3 -6 115.34 19.27
-2 3 -6 109.05 18.7
-2 3 -5 430.08 42.88
-2 3 -5 430.04 44.09
-2 3 -5 380.35 40.5
-2 3 -5 422.57 42.26
-2 3 -5 378.07 40.02
-2 3 -4 324.62 33.73
-2 3 -4 285.63 30.54
-2 3 -4 345.42 35.02
-2 3 -4 309.46 35.85
-2 3 -3 247.55 26.22
-2 3 -3 296.76 32.67
-2 3 -3 283.44 27.24
-2 3 -3 252.65 28.4
-2 3 -3 190.3 27.13
-2 3 -3 306.43 33.61
-2 3 -2 830.04 68.15
-2 3 -2 857.22 73.79
-2 3 -2 784.96 68.1
-2 3 -2 744.35 69.72
-2 3 -2 1005.28 76.6
-2 3 -2 726.06 69.89
-2 3 -1 315.75 33.57
-2 3 -1 350.19 31.96
-2 3 -1 314.5 35.02
-2 3 -1 309.8 30.59
-2 3 -1 308.92 33.1
-2 3 -1 304.49 31.38
-2 3 -1 374.15 37.61
-2 3 0 394.81 37.41
-2 3 0 329.75 33.59
-2 3 0 306.09 34.26
-2 3 0 316.4 34.41
-2 3 0 338.75 32.35
-2 3 0 408.32 39.25
-2 3 1 207.17 23.61
-2 3 1 146.14 21.12
-2 3 1 173.36 23.04
-2 3 1 183.7 20.22
-2 3 1 201.89 24.64
-2 3 1 165.25 24.2
-2 3 2 858.46 81.64
-2 3 2 1059.35 82.63
-2 3 2 944.1 78.89
-2 3 2 1056.15 83.88
-2 3 2 907.93 84.19
-2 3 2 882.54 81.03
-2 3 3 13.83 9.07
-2 3 3 7.59 8.93
-2 3 3 1.49 6.26
-2 3 3 2.34 9.07
-2 3 3 -2.55 10.19
-2 3 3 3.92 6.9
-2 3 4 1096.59 86.84
-2 3 4 1006.97 91.58
-2 3 4 917.59 89.26
-2 3 4 996.34 88.77
-2 3 4 1066.71 86.45
-2 3 5 207.38 22.04
-2 3 5 111.34 22.31
-2 3 5 161 25.71
-2 3 5 170.37 24.22
-2 3 5 189 22.56
-2 3 6 466.97 39.11
-2 3 6 412.14 40.48
-2 3 6 393.09 43.07
-2 3 6 308.27 41.68
-2 3 6 368.41 44.37
-2 3 7 39.21 15.02
-2 3 7 14.46 12.49
-2 3 8 238.24 33.98
-2 3 8 193.39 31.42
-2 3 9 273.56 37.16
-2 3 9 230.68 35.5
-2 3 10 27.72 15.15
-2 3 10 18.51 14.32
-2 3 10 16.92 12.77
-2 3 11 110.74 23.55
-2 3 11 93.22 22.08
-2 3 11 129.04 23.31
-2 3 12 73.23 19.77
-2 3 12 31.16 17.42
-2 3 12 78.55 19.15
-2 4 -11 -6.84 16.74
-2 4 -11 10.84 19.26
-2 4 -11 3.43 18.83
-2 4 -10 114.35 27.06
-2 4 -10 135.03 28.57
-2 4 -10 116.97 27.21
-2 4 -9 32.85 17.29
-2 4 -9 35.76 16.86
-2 4 -9 5.01 13
-2 4 -8 371.33 43.07
-2 4 -8 315.25 40.56
-2 4 -8 346.76 39.95
-2 4 -7 228.21 31.08
-2 4 -7 263.7 33.29
-2 4 -7 178.09 28.07
-2 4 -7 235.79 30.09
-2 4 -6 74.75 18.33
-2 4 -6 53.85 15.5
-2 4 -6 41.75 14.32
-2 4 -6 56.57 16.16
-2 4 -5 184.31 28.76
-2 4 -5 140.49 24.11
-2 4 -5 146.74 23.84
-2 4 -5 187.02 25.88
-2 4 -4 95.4 17.91
-2 4 -4 69.79 18.88
-2 4 -4 89.44 17.93
-2 4 -4 88.83 19.39
-2 4 -3 176 24.67
-2 4 -3 221.65 29.88
-2 4 -3 218.2 26.87
-2 4 -3 169.46 27.05
-2 4 -2 472.75 48.27
-2 4 -2 550.93 52.68
-2 4 -2 583 54.32
-2 4 -2 432.77 48.32
-2 4 -1 1877.69 156.69
-2 4 -1 1842.1 153.55
-2 4 -1 1727.59 155.86
-2 4 -1 2103.11 160.58
-2 4 0 73.88 15.22
-2 4 0 95.23 18.75
-2 4 0 97.53 15.3
-2 4 0 98.89 19.52
-2 4 0 88.26 16.52
-2 4 1 187.64 23.46
-2 4 1 203.1 27.13
-2 4 1 210.93 25.82
-2 4 1 199.81 27.1
-2 4 1 186.52 23.07
-2 4 1 194.65 24.9
-2 4 2 106.25 20.3
-2 4 2 137.39 20.54
-2 4 2 107.39 18.53
-2 4 2 122.48 19.47
-2 4 2 112.92 17.12
-2 4 2 143.54 21.94
-2 4 3 550.55 54.92
-2 4 3 561.99 51.23
-2 4 3 469.05 50.13
-2 4 3 461.77 50.71
-2 4 3 584.63 52.73
-2 4 3 521.52 49.07
-2 4 4 184.27 22.89
-2 4 4 187.57 23.98
-2 4 4 160.1 21.09
-2 4 4 129.19 21.13
-2 4 4 127.16 24.43
-2 4 4 109.22 22.26
-2 4 5 444.37 54.2
-2 4 5 724.13 57.48
-2 4 5 630.33 55.08
-2 4 5 644.05 54.9
-2 4 5 514.38 56.24
-2 4 5 526.54 58.72
-2 4 6 88.09 18.82
-2 4 6 133.72 19.68
-2 4 6 136.7 19.63
-2 4 6 92.19 16.65
-2 4 6 95.58 21.92
-2 4 6 66.42 19.23
-2 4 7 31.48 15.5
-2 4 7 11.67 14.81
-2 4 7 6.54 13.44
-2 4 7 4.36 10.3
-2 4 8 296.92 39.79
-2 4 8 234.86 38
-2 4 8 359.41 40.86
-2 4 8 384.19 38.48
-2 4 9 87.85 22.25
-2 4 9 90.21 21.9
-2 4 9 80.4 21.07
-2 4 9 135.13 21.85
-2 4 10 292.25 42.32
-2 4 10 245.19 38.58
-2 4 10 347.14 43.59
-2 4 11 -14.15 14.9
-2 4 11 9.95 14.97
-2 4 11 6.32 15.47
-2 4 11 7.72 12.36
-2 4 12 39.67 20.6
-2 5 -10 13.24 16.19
-2 5 -9 13.39 15.3
-2 5 -9 48.94 16.86
-2 5 -9 31.03 18.22
-2 5 -8 75.06 20.01
-2 5 -8 99.43 23.6
-2 5 -8 57 19.41
-2 5 -7 69.5 17.4
-2 5 -7 85.06 20.58
-2 5 -7 87.02 20.14
-2 5 -6 387.19 43.16
-2 5 -6 382.31 44.83
-2 5 -6 401.25 44.07
-2 5 -5 27.67 17.29
-2 5 -5 31.7 14.95
-2 5 -5 31.93 13.93
-2 5 -5 56.27 18.27
-2 5 -5 33.11 14.82
-2 5 -4 270.61 34.21
-2 5 -4 291.19 35.1
-2 5 -4 254.39 36.93
-2 5 -4 317.49 38.32
-2 5 -3 12 12.17
-2 5 -3 4.96 11.69
-2 5 -3 -16.25 15.31
-2 5 -3 18.04 15.77
-2 5 -2 533.24 54.67
-2 5 -2 590.49 56.09
-2 5 -2 618.66 60.9
-2 5 -2 498.19 56.64
-2 5 -1 112.06 19.27
-2 5 -1 66.5 16.7
-2 5 -1 134.96 25.28
-2 5 -1 107.02 17.61
-2 5 -1 97.43 21.66
-2 5 0 178.64 25.34
-2 5 0 167.95 24.07
-2 5 0 208.63 30.31
-2 5 0 145.97 22.62
-2 5 0 181.89 28
-2 5 1 214.58 29.23
-2 5 1 238.76 29.63
-2 5 1 233 32.39
-2 5 1 219.5 26.88
-2 5 1 220.19 30.92
-2 5 2 297.63 36.69
-2 5 2 311.97 36.09
-2 5 2 270.56 35.22
-2 5 2 389.08 40.85
-2 5 2 331.04 34.65
-2 5 2 291.36 37.63
-2 5 3 39.05 14.52
-2 5 3 42.38 14.38
-2 5 3 56.43 16.7
-2 5 3 34.54 12.51
-2 5 3 57.14 19.05
-2 5 3 37.77 13.78
-2 5 4 435.59 42.33
-2 5 4 429.65 40.78
-2 5 4 386.56 42.19
-2 5 4 277.47 41.48
-2 5 4 346.8 41.41
-2 5 5 502.27 51.92
-2 5 5 566.99 52.79
-2 5 5 599.77 55.12
-2 5 5 495.33 56.75
-2 5 5 500.96 54.19
-2 5 6 -6.29 11.85
-2 5 6 31.47 14.51
-2 5 6 -6.78 14.63
-2 5 6 2.27 10.24
-2 5 6 -4.61 10.63
-2 5 7 480.56 53.6
-2 5 7 379.5 52.84
-2 5 8 3.18 13.47
-2 5 8 13.95 15.81
-2 5 8 39.23 14.49
-2 5 9 134 25.99
-2 5 9 134.01 28.76
-2 5 9 114.19 22.72
-2 5 10 24.54 17.83
-2 5 10 21.1 18.19
-2 5 10 12.48 16.16
-2 5 10 15.67 13.54
-2 5 11 120.48 26.6
-2 6 -8 -5.66 15.31
-2 6 -7 48.06 17.83
-2 6 -7 76.18 20.6
-2 6 -7 62.27 19.02
-2 6 -6 8.06 12.41
-2 6 -6 11.57 14.17
-2 6 -6 2.81 14.51
-2 6 -5 179.14 27.69
-2 6 -5 130.59 25.03
-2 6 -5 136 25.29
-2 6 -4 97.76 22.75
-2 6 -4 127.88 24.44
-2 6 -4 99.45 21.45
-2 6 -4 103.56 21.71
-2 6 -4 105.46 23.44
-2 6 -3 190.68 28.52
-2 6 -3 168.25 27.83
-2 6 -3 212.71 32.61
-2 6 -3 156.43 28.54
-2 6 -2 21.45 14.53
-2 6 -2 8.02 12.61
-2 6 -2 16.74 17
-2 6 -2 3.07 15.61
-2 6 -1 233.22 31.54
-2 6 -1 257.11 31.85
-2 6 -1 266.27 36.44
-2 6 -1 179.1 32.05
-2 6 0 220.58 33.61
-2 6 0 158.1 27
-2 6 0 172.4 27.85
-2 6 0 278.35 35.91
-2 6 0 218.09 28.09
-2 6 1 156.99 25.18
-2 6 1 112.14 21.09
-2 6 1 161.06 27.61
-2 6 1 133.34 22.95
-2 6 1 125.8 25.81
-2 6 2 320.49 40.78
-2 6 2 392.04 40.52
-2 6 2 367.21 44.48
-2 6 2 331.66 40.6
-2 6 2 397.24 43.43
-2 6 3 2.76 13.51
-2 6 3 -6.18 13.95
-2 6 3 5.59 13.16
-2 6 3 -2.57 13.47
-2 6 3 -6.99 12.21
-2 6 3 -6.08 15.15
-2 6 4 203.39 30.84
-2 6 4 156.05 30.13
-2 6 4 203.27 30.46
-2 6 4 213.09 29.37
-2 6 4 224.57 31.72
-2 6 4 277.74 30.93
-2 6 5 7.53 12.51
-2 6 5 -6.75 14.9
-2 6 5 -7.96 11.73
-2 6 5 -2.95 12.71
-2 6 5 2.43 11.66
-2 6 5 -2.76 12.74
-2 6 6 222.92 35.08
-2 6 6 300.83 36.14
-2 6 6 304.93 34.83
-2 6 6 232.87 36.73
-2 6 7 -6.37 16.16
-2 6 7 -2.55 11.77
-2 6 7 -10.62 17.01
-2 6 8 129.69 26.89
-2 6 8 216.48 28.95
-2 6 8 140.05 30.18
-2 6 9 20.74 18.48
-2 7 -5 25.66 15.55
-2 7 -4 88.67 22.53
-2 7 -4 113.54 24.78
-2 7 -4 115.17 24.23
-2 7 -4 96.25 22.92
-2 7 -4 134.53 25.99
-2 7 -3 132.06 26.65
-2 7 -3 141.4 26.56
-2 7 -3 158.78 27.53
-2 7 -3 152.25 28.91
-2 7 -3 155.94 26.99
-2 7 -2 46.51 16.9
-2 7 -2 48.7 18.8
-2 7 -2 16.55 18.93
-2 7 -2 39.79 15.87
-2 7 -1 183.94 29.52
-2 7 -1 160.98 29.4
-2 7 -1 185.84 31.88
-2 7 -1 179.93 28.53
-2 7 0 5.88 13.85
-2 7 0 -6.2 15.98
-2 7 0 3.38 17.75
-2 7 0 5.57 13.63
-2 7 1 112.68 23.95
-2 7 1 98.67 23.77
-2 7 1 97.95 25.61
-2 7 1 103.75 20.69
-2 7 1 99.61 22.37
-2 7 2 14.98 16.21
-2 7 2 -3.04 15.17
-2 7 2 -2.55 12.72
-2 7 2 10 17.76
-2 7 2 8.26 13.23
-2 7 3 203.41 32.46
-2 7 3 232.57 33.72
-2 7 3 235.21 31.97
-2 7 3 271.94 36.74
-2 7 3 214.45 32.11
-2 7 4 -3.24 15.88
-2 7 4 12.29 15.32
-2 7 4 -8.7 17.06
-2 7 4 -5.23 13.26
-2 7 4 6.4 15.36
-2 7 4 2.76 12.19
-2 7 5 147.94 27.28
-2 7 5 165.77 28.14
-2 7 5 128.31 27.97
-2 7 5 188.14 30.24
-2 7 5 209.35 28.45
-2 7 6 42.19 17.89
-2 7 6 41.71 20.21
-2 7 6 53.72 17.68
-1 -8 -8 464.56 54.35
-1 -8 -7 64.94 20.8
-1 -8 -7 46.56 27.36
-1 -8 -7 54.46 20.95
-1 -8 -6 142.28 28.23
-1 -8 -6 156.13 32.34
-1 -8 -6 197.1 33.21
-1 -8 -6 143.37 33.93
-1 -8 -6 129.4 27.42
-1 -8 -5 60.91 22.53
-1 -8 -5 6.43 14.73
-1 -8 -5 54.75 22.15
-1 -8 -5 58.94 25.74
-1 -8 -4 56.16 20.63
-1 -8 -4 113.49 25.83
-1 -8 -4 77.17 24.32
-1 -8 -4 96.85 28.47
-1 -8 -3 121.77 24.85
-1 -8 -3 154.22 28.23
-1 -8 -3 130.02 31.28
-1 -8 -3 131.35 30.72
-1 -8 -2 121.41 24.48
-1 -8 -2 110.44 26.59
-1 -8 -2 191.37 34.99
-1 -8 -2 149.05 32.2
-1 -8 -1 159.69 27.07
-1 -8 -1 201.22 31.31
-1 -8 -1 154.61 35.32
-1 -8 -1 155.01 31.12
-1 -8 0 48.67 19.26
-1 -8 0 68.11 18.03
-1 -8 0 49.82 25.23
-1 -8 0 55.49 21.59
-1 -8 1 180.18 29.74
-1 -8 1 180.26 29.16
-1 -8 1 212.64 38.76
-1 -8 2 7.81 13.44
-1 -8 2 16.6 15.42
-1 -8 2 5.43 13.05
-1 -8 2 4.32 21.15
-1 -8 3 147.69 26.75
-1 -8 3 176.48 27.15
-1 -8 4 7.91 13.16
-1 -8 4 7.88 13.56
-1 -8 4 10.49 15.04
-1 -8 4 2.63 13.81
-1 -8 4 13.77 15.36
-1 -8 5 73.31 20.36
-1 -8 5 135.28 25.03
-1 -8 5 83.62 21.18
-1 -8 5 122.18 23.35
-1 -7 -10 96.47 29.72
-1 -7 -9 213.05 36.67
-1 -7 -9 227.41 39.29
-1 -7 -8 114.09 24.41
-1 -7 -8 167.47 33.12
-1 -7 -8 82.33 24.33
-1 -7 -7 204.83 31.71
-1 -7 -7 169.18 29.97
-1 -7 -7 272.71 40.2
-1 -7 -7 193.28 33.37
-1 -7 -6 153.93 26.39
-1 -7 -6 121.6 27.97
-1 -7 -6 167.54 28.04
-1 -7 -6 148.21 26.83
-1 -7 -6 174.51 32.37
-1 -7 -5 249.74 30.96
-1 -7 -5 145.36 27.88
-1 -7 -5 173.97 32.25
-1 -7 -5 153.74 26.2
-1 -7 -5 166.06 29.73
-1 -7 -4 361.86 46.26
-1 -7 -4 395.84 44.82
-1 -7 -4 436.35 49.45
-1 -7 -4 377.08 43.19
-1 -7 -4 400.83 49.88
-1 -7 -3 -3.13 13.86
-1 -7 -3 19 13.05
-1 -7 -3 3.59 17.23
-1 -7 -3 34.06 20.79
-1 -7 -2 551.67 56.33
-1 -7 -2 474.78 52.53
-1 -7 -2 524.76 59.56
-1 -7 -2 538.55 59.19
-1 -7 -1 88.29 18.83
-1 -7 -1 71.81 19.38
-1 -7 -1 68.22 17.74
-1 -7 -1 65.13 21.9
-1 -7 -1 86.32 26.21
-1 -7 0 468.54 51.25
-1 -7 0 549.59 62.15
-1 -7 0 512.66 50.84
-1 -7 0 506.05 53.08
-1 -7 0 503.71 52.22
-1 -7 0 509.49 55.85
-1 -7 1 124.41 22.63
-1 -7 1 107.41 23.6
-1 -7 1 95.43 27.76
-1 -7 1 146.28 22.16
-1 -7 1 131.58 24.35
-1 -7 1 115.93 22.74
-1 -7 2 103.52 20.29
-1 -7 2 116.39 21.28
-1 -7 2 112.55 21.63
-1 -7 2 98.94 20.13
-1 -7 2 99.37 19.98
-1 -7 2 97.54 19.25
-1 -7 2 74.24 18.39
-1 -7 2 105.33 20.65
-1 -7 3 57.42 15.95
-1 -7 3 70.24 17.39
-1 -7 3 51.16 15.23
-1 -7 3 40.19 15.14
-1 -7 3 45.26 15.41
-1 -7 3 21.27 13.4
-1 -7 3 40.38 14.53
-1 -7 4 102.32 20.92
-1 -7 4 124.39 22.64
-1 -7 4 161.34 24.89
-1 -7 4 116.37 22.05
-1 -7 4 142.03 23.5
-1 -7 5 20.76 15.15
-1 -7 5 26.88 14.85
-1 -7 5 33.63 16.05
-1 -7 5 18.16 13.7
-1 -7 5 10.31 13.39
-1 -7 6 152.35 25.72
-1 -7 6 121.26 24.76
-1 -7 6 171.34 26.38
-1 -7 6 137.68 25.82
-1 -7 7 228.88 32.71
-1 -7 7 180.58 29.62
-1 -7 7 201.45 30.59
-1 -7 7 189.13 29.99
-1 -6 -11 40.76 19.38
-1 -6 -11 55.83 22.04
-1 -6 -11 33.44 21.44
-1 -6 -10 237.44 35.86
-1 -6 -10 288.24 40.57
-1 -6 -10 251.15 40.28
-1 -6 -9 345.86 42.16
-1 -6 -9 414.5 47.51
-1 -6 -9 254.78 42.2
-1 -6 -8 242.29 32.03
-1 -6 -8 239.5 37.66
-1 -6 -8 253.87 37.78
-1 -6 -8 212.6 31.77
-1 -6 -8 259.78 33.49
-1 -6 -7 315.75 41.96
-1 -6 -7 298.24 35.41
-1 -6 -7 236.11 32.47
-1 -6 -7 322.75 35.99
-1 -6 -6 5.38 12.23
-1 -6 -6 34.96 15.34
-1 -6 -6 28.81 18.32
-1 -6 -6 15.45 11.96
-1 -6 -6 23.97 14.73
-1 -6 -6 16.15 10.95
-1 -6 -5 867.99 81.33
-1 -6 -5 789.69 82.59
-1 -6 -5 965.53 90.4
-1 -6 -5 1137.62 88.51
-1 -6 -5 966.54 86.84
-1 -6 -5 1029.67 85.42
-1 -6 -5 885.52 81.42
-1 -6 -4 12.71 10.43
-1 -6 -4 28.19 14.83
-1 -6 -4 16.86 11.62
-1 -6 -4 17.02 17
-1 -6 -4 2.9 12.58
-1 -6 -4 21.1 11.74
-1 -6 -3 843.9 75.92
-1 -6 -3 718.37 71.92
-1 -6 -3 937.16 79.55
-1 -6 -3 800.12 78.38
-1 -6 -3 767.04 71.32
-1 -6 -2 -4.59 9.67
-1 -6 -2 7.84 11.28
-1 -6 -2 -2.24 9.42
-1 -6 -2 -6.27 13.52
-1 -6 -2 10.89 8.37
-1 -6 -2 3.2 12.78
-1 -6 -1 84.3 16.89
-1 -6 -1 77.48 20.18
-1 -6 -1 93.91 22.67
-1 -6 -1 90.85 15.83
-1 -6 -1 101.7 18.55
-1 -6 -1 90.32 19.5
-1 -6 0 207.4 28.6
-1 -6 0 252.8 31.03
-1 -6 0 254.19 28.79
-1 -6 0 282.88 31.23
-1 -6 0 225.39 32.79
-1 -6 0 181.86 33.59
-1 -6 0 243.69 27.57
-1 -6 0 225.41 27.16
-1 -6 0 261.65 28.27
-1 -6 0 229.03 27.41
-1 -6 1 638.08 61.63
-1 -6 1 670.69 61.95
-1 -6 1 697.3 61.28
-1 -6 1 622.2 61.52
-1 -6 1 597.72 63.18
-1 -6 1 689.31 60.53
-1 -6 1 630.15 59.57
-1 -6 1 712.3 60.83
-1 -6 1 637.55 59.61
-1 -6 2 335.39 37.07
-1 -6 2 362.58 37.13
-1 -6 2 372.79 37.76
-1 -6 2 266.11 35.98
-1 -6 2 282.64 36.63
-1 -6 2 369.18 37.03
-1 -6 2 362.2 36.86
-1 -6 2 309.69 35.58
-1 -6 2 333.99 36.22
-1 -6 3 190.47 26.08
-1 -6 3 220.29 26.79
-1 -6 3 163.9 25.31
-1 -6 3 177.97 26.16
-1 -6 3 197.91 26.2
-1 -6 3 207.3 26.39
-1 -6 3 169.54 25.12
-1 -6 3 185.74 25.51
-1 -6 4 100.65 17.74
-1 -6 4 75.88 18.25
-1 -6 4 93.53 17.38
-1 -6 4 82.39 17.84
-1 -6 4 125.07 20.7
-1 -6 4 68.34 17.64
-1 -6 4 109.71 19.44
-1 -6 4 106.83 19.47
-1 -6 5 13.15 12.17
-1 -6 5 60.5 16.97
-1 -6 5 64.81 16.32
-1 -6 5 36.19 13.9
-1 -6 5 38.47 14.4
-1 -6 5 29.04 13.37
-1 -6 6 512.79 51.12
-1 -6 6 454.66 49.62
-1 -6 6 483.34 50.08
-1 -6 6 483.15 49.26
-1 -6 6 445.01 49.26
-1 -6 7 8.09 11.37
-1 -6 7 13.38 13.81
-1 -6 7 2.65 12.99
-1 -6 7 5.34 12.08
-1 -6 7 12.42 12.61
-1 -6 8 85.64 21.5
-1 -6 8 84.97 20.56
-1 -6 8 105.07 21.52
-1 -6 8 101.59 21.84
-1 -6 9 8.41 13.98
-1 -6 9 2.82 14.53
-1 -6 9 19.84 15.8
-1 -6 9 -2.7 12.96
-1 -5 -12 31.54 19.51
-1 -5 -12 40.86 22.04
-1 -5 -12 47.76 23.29
-1 -5 -11 249.34 36.79
-1 -5 -11 183.64 33.59
-1 -5 -11 207.86 32.6
-1 -5 -11 300.21 36.93
-1 -5 -11 191.33 35
-1 -5 -10 713.76 70.01
-1 -5 -10 643.35 69.49
-1 -5 -10 706.26 72.82
-1 -5 -10 862.3 73.23
-1 -5 -10 611.54 66.97
-1 -5 -9 17.76 12.93
-1 -5 -9 36.35 15.26
-1 -5 -9 24.67 14.16
-1 -5 -9 16.03 15.53
-1 -5 -9 46.79 14.83
-1 -5 -9 23.93 16.22
-1 -5 -8 848.59 77.18
-1 -5 -8 836.59 77.82
-1 -5 -8 826.2 75.64
-1 -5 -8 872.58 81.24
-1 -5 -8 837.35 75.69
-1 -5 -8 786.66 79.21
-1 -5 -7 117.61 21.94
-1 -5 -7 176.54 24.4
-1 -5 -7 147.82 23.41
-1 -5 -7 154.51 27.86
-1 -5 -7 163.91 24.41
-1 -5 -7 177.29 23.94
-1 -5 -7 198.16 28.08
-1 -5 -6 198.17 29.25
-1 -5 -6 221.98 28.63
-1 -5 -6 266.32 30.28
-1 -5 -6 229.65 30.93
-1 -5 -6 280.08 35.03
-1 -5 -6 219.31 27.67
-1 -5 -6 296.22 32.25
-1 -5 -5 86.33 16.35
-1 -5 -5 151.97 22.4
-1 -5 -5 110.35 22.48
-1 -5 -5 163.2 22.38
-1 -5 -5 115.32 20.72
-1 -5 -5 110.65 18.81
-1 -5 -5 98.95 17.47
-1 -5 -4 1278.61 112.04
-1 -5 -4 1456.94 119.73
-1 -5 -4 1201.45 113.26
-1 -5 -4 1555.62 117.98
-1 -5 -4 1365.6 113.95
-1 -5 -4 1537.92 117.72
-1 -5 -4 1328.98 112.39
-1 -5 -3 354.16 38.4
-1 -5 -3 429.45 43.91
-1 -5 -3 362.76 38.85
-1 -5 -3 423.96 44.64
-1 -5 -3 367.71 37.29
-1 -5 -3 421.89 39.11
-1 -5 -3 408.62 40.42
-1 -5 -3 406.38 42.38
-1 -5 -2 406.9 36.87
-1 -5 -2 436.97 42.56
-1 -5 -2 406.75 40.9
-1 -5 -2 386.15 37.32
-1 -5 -2 391.51 40.04
-1 -5 -2 452.41 45.32
-1 -5 -2 394.29 36.81
-1 -5 -2 394.99 38.82
-1 -5 -2 430.36 44.61
-1 -5 -2 386.23 36.72
-1 -5 -2 385.19 36.6
-1 -5 -2 359.84 36.17
-1 -5 -2 399.62 38.24
-1 -5 -1 804.43 74.18
-1 -5 -1 895.9 78.07
-1 -5 -1 954.5 80.17
-1 -5 -1 834.92 74.98
-1 -5 -1 847.79 77.31
-1 -5 -1 976.43 83.72
-1 -5 -1 824.58 79.97
-1 -5 -1 898.04 74.96
-1 -5 -1 921.79 75.12
-1 -5 -1 979.55 75.62
-1 -5 -1 881.89 74.7
-1 -5 -1 969.38 76.58
-1 -5 0 449.9 41.92
-1 -5 0 457.41 44.73
-1 -5 0 458.73 44.14
-1 -5 0 468.58 42.99
-1 -5 0 504.42 50.21
-1 -5 0 439.46 44.3
-1 -5 0 399.35 45.23
-1 -5 0 421.06 40.11
-1 -5 0 444.32 41.97
-1 -5 0 490.71 42.44
-1 -5 0 414.87 41.32
-1 -5 0 459.14 42.98
-1 -5 1 366.65 35.79
-1 -5 1 355.26 36.83
-1 -5 1 363.61 36.87
-1 -5 1 361.27 36.12
-1 -5 1 292.38 35.49
-1 -5 1 296.81 36.8
-1 -5 1 344.28 33.71
-1 -5 1 310.61 34.22
-1 -5 1 431.28 38.32
-1 -5 1 362.15 35.4
-1 -5 1 379.16 35.87
-1 -5 2 77.63 15.5
-1 -5 2 106.77 17.18
-1 -5 2 72.21 15.02
-1 -5 2 113.84 17.65
-1 -5 2 90.19 15.69
-1 -5 2 83.95 15.1
-1 -5 2 87.59 14.84
-1 -5 2 116.99 19.24
-1 -5 2 79.77 14.82
-1 -5 2 104.61 15.93
-1 -5 3 686.53 63.31
-1 -5 3 708.38 64.16
-1 -5 3 763.1 63.6
-1 -5 3 688.41 62.66
-1 -5 3 704.63 61.76
-1 -5 3 700.71 63.1
-1 -5 3 689.8 62.92
-1 -5 3 636.36 62.1
-1 -5 3 683.43 62.57
-1 -5 4 14.02 10.38
-1 -5 4 12.78 10.86
-1 -5 4 17.53 10.97
-1 -5 4 10.59 8.38
-1 -5 4 10.31 10.15
-1 -5 4 9.31 8.48
-1 -5 4 24.61 11.48
-1 -5 4 18.55 10.86
-1 -5 4 18.42 10.08
-1 -5 5 302.07 36.3
-1 -5 5 339.61 37.37
-1 -5 5 356.54 38.18
-1 -5 5 364.11 38.15
-1 -5 5 348.19 36.61
-1 -5 5 259.59 35.14
-1 -5 5 393.26 39.13
-1 -5 5 323.03 36.6
-1 -5 6 2.41 10.64
-1 -5 6 -2.38 10.52
-1 -5 6 -2.23 11.49
-1 -5 6 2.34 10.35
-1 -5 6 -7.41 11.16
-1 -5 6 2.36 9.45
-1 -5 6 -2.38 11.45
-1 -5 7 313.8 37.24
-1 -5 7 346.4 38.88
-1 -5 7 354.19 40.43
-1 -5 7 293.36 37.25
-1 -5 7 330.88 38.75
-1 -5 8 30.56 14.74
-1 -5 8 23.67 15.01
-1 -5 8 43.08 16.81
-1 -5 8 26.41 14.22
-1 -5 8 21.32 13.44
-1 -5 9 125.89 23.89
-1 -5 9 137.89 24.74
-1 -5 9 139.61 26.69
-1 -5 9 163.22 26.4
-1 -5 9 109.61 23.65
-1 -5 10 89.17 20.42
-1 -5 10 55.07 18.82
-1 -5 10 88.72 22.24
-1 -5 10 56.94 18.46
-1 -5 10 96.16 20.71
-1 -5 11 44.2 16.8
-1 -5 11 22.91 17.01
-1 -5 11 19.88 15.04
-1 -4 -13 260.71 40.35
-1 -4 -13 207.14 38.06
-1 -4 -13 333.48 41.99
-1 -4 -13 187.64 36.41
-1 -4 -12 -3.81 16.05
-1 -4 -12 11.4 16.8
-1 -4 -12 7.29 17.85
-1 -4 -12 7.2 18.88
-1 -4 -11 511.36 55.51
-1 -4 -11 476.17 54.86
-1 -4 -11 396.58 51.74
-1 -4 -11 577.47 57.72
-1 -4 -10 34.59 15.72
-1 -4 -10 15.36 14.52
-1 -4 -10 -2.76 13.55
-1 -4 -10 17.48 12.02
-1 -4 -10 22.91 16.07
-1 -4 -9 636.68 65.85
-1 -4 -9 737.96 68.22
-1 -4 -9 739.11 69.54
-1 -4 -9 587.26 64.22
-1 -4 -9 790.98 69.21
-1 -4 -8 55.25 14.37
-1 -4 -8 63.43 16.1
-1 -4 -8 60.2 17.75
-1 -4 -8 43.16 14.75
-1 -4 -8 47.48 13.53
-1 -4 -8 62.28 17.95
-1 -4 -7 490.34 53.12
-1 -4 -7 575.75 54.98
-1 -4 -7 613.02 53.46
-1 -4 -7 656.8 59
-1 -4 -7 548.03 53.39
-1 -4 -7 577.95 53.8
-1 -4 -7 523.88 55.82
-1 -4 -6 149.24 20.32
-1 -4 -6 172.32 20.21
-1 -4 -6 156.66 20.57
-1 -4 -6 113.69 17.96
-1 -4 -6 81.94 18.63
-1 -4 -6 139.83 23.04
-1 -4 -6 120.81 18.87
-1 -4 -6 88.1 17.77
-1 -4 -6 120.51 16.21
-1 -4 -5 1235.03 93.84
-1 -4 -5 1091.13 91.08
-1 -4 -5 1140.57 94.77
-1 -4 -5 1122.58 94.81
-1 -4 -5 1141.25 93.41
-1 -4 -5 1114.03 92.56
-1 -4 -5 1076.84 95.02
-1 -4 -5 1283.67 99.36
-1 -4 -5 1034.05 93.24
-1 -4 -5 1063.91 93.12
-1 -4 -5 1010.49 93.33
-1 -4 -4 1039.44 83.62
-1 -4 -4 1022.51 83.56
-1 -4 -4 1019.33 85.23
-1 -4 -4 925.89 81.11
-1 -4 -4 1102.21 85.96
-1 -4 -4 989.93 87.59
-1 -4 -4 992.49 82.06
-1 -4 -4 891.14 83.27
-1 -4 -4 959.17 83.18
-1 -4 -4 947.95 82.61
-1 -4 -3 484.58 46.14
-1 -4 -3 518.45 45.95
-1 -4 -3 505.45 46.13
-1 -4 -3 577.06 47.91
-1 -4 -3 538.05 47.52
-1 -4 -3 539.62 49.02
-1 -4 -3 468.87 43.16
-1 -4 -3 497.67 45.79
-1 -4 -3 593.11 50.7
-1 -4 -3 526.39 47.55
-1 -4 -3 455.91 42.61
-1 -4 -3 474.64 46.63
-1 -4 -3 528.81 50.79
-1 -4 -3 559.74 45.16
-1 -4 -3 505.57 43.1
-1 -4 -3 529.2 43.35
-1 -4 -3 488.2 42.84
-1 -4 -3 500.02 43.01
-1 -4 -2 1493.47 127.53
-1 -4 -2 1583.18 128.14
-1 -4 -2 1738.18 130.11
-1 -4 -2 1663.66 131.23
-1 -4 -2 1599.65 129.79
-1 -4 -2 1588.18 126.47
-1 -4 -2 1549.55 129.61
-1 -4 -2 1838.75 133.88
-1 -4 -2 1544.44 132.49
-1 -4 -2 1610.71 126.1
-1 -4 -2 1536.57 128.19
-1 -4 -2 1616.26 127.42
-1 -4 -2 1590.01 126
-1 -4 -2 1648.83 126.12
-1 -4 -2 1668.1 126.18
-1 -4 -2 1591.31 126.02
-1 -4 -1 67.61 10.73
-1 -4 -1 48.35 10.68
-1 -4 -1 55.1 8.42
-1 -4 -1 49.27 10.88
-1 -4 -1 51.87 11.72
-1 -4 -1 53.91 9.61
-1 -4 -1 65.03 12.22
-1 -4 -1 31.57 11.07
-1 -4 -1 70.17 14.42
-1 -4 -1 47.12 9.32
-1 -4 -1 58.17 9.69
-1 -4 -1 61.64 10.27
-1 -4 -1 46.07 7.94
-1 -4 -1 58.88 9.59
-1 -4 -1 63.67 9.79
-1 -4 -1 34.84 8.44
-1 -4 0 496.58 44.76
-1 -4 0 467.92 41.83
-1 -4 0 522.81 44.93
-1 -4 0 444.77 45.03
-1 -4 0 496.77 45.3
-1 -4 0 477.91 42.15
-1 -4 0 476.69 43.78
-1 -4 0 564.27 50.48
-1 -4 0 485.04 45.46
-1 -4 0 485.26 41.92
-1 -4 0 459.83 46.4
-1 -4 0 498.46 43.36
-1 -4 0 489.64 43.75
-1 -4 0 484.01 41.94
-1 -4 0 528.2 43.77
-1 -4 0 471.94 43.01
-1 -4 0 469.48 43.12
-1 -4 1 323.19 33.93
-1 -4 1 330.76 31.03
-1 -4 1 333.79 32.54
-1 -4 1 292.23 32.87
-1 -4 1 356.16 34.04
-1 -4 1 320.23 31.14
-1 -4 1 347.56 33.2
-1 -4 1 311.6 33.61
-1 -4 1 327.26 29.84
-1 -4 1 331.63 29.28
-1 -4 1 329.85 34.59
-1 -4 1 331.04 32.52
-1 -4 1 342.1 32.59
-1 -4 1 321.8 31.16
-1 -4 1 342.9 32.51
-1 -4 1 367.68 32.9
-1 -4 1 353.64 32.62
-1 -4 2 854.13 68.55
-1 -4 2 860.61 70.3
-1 -4 2 834.02 70.12
-1 -4 2 812.86 71.54
-1 -4 2 816.17 72.4
-1 -4 2 781.47 71.04
-1 -4 2 925.07 72.78
-1 -4 2 864.46 70.33
-1 -4 2 787.4 69.78
-1 -4 2 874.38 71.61
-1 -4 2 805.69 71.2
-1 -4 2 787.74 70.74
-1 -4 2 826.21 71.41
-1 -4 2 878.34 71.57
-1 -4 3 13.37 6.58
-1 -4 3 18.16 8.15
-1 -4 3 22.51 7.82
-1 -4 3 20.32 6.66
-1 -4 3 19.06 9.02
-1 -4 3 22.18 9.45
-1 -4 3 13.03 7.92
-1 -4 3 12.08 7.62
-1 -4 3 31.4 9.29
-1 -4 3 10.43 6.98
-1 -4 3 8.23 7.37
-1 -4 3 8.21 7.98
-1 -4 3 19.81 8.74
-1 -4 4 891.7 76.43
-1 -4 4 995.41 79.35
-1 -4 4 801.73 77.8
-1 -4 4 922.62 75.59
-1 -4 4 912.77 79.38
-1 -4 4 971.98 77.13
-1 -4 4 797.92 76.82
-1 -4 4 960.11 79.17
-1 -4 4 895.54 78.84
-1 -4 4 932.38 79.01
-1 -4 4 927.52 78.86
-1 -4 5 403.53 35.4
-1 -4 5 346.29 38.08
-1 -4 5 361.65 37.88
-1 -4 5 359.2 36.91
-1 -4 5 315.98 36.32
-1 -4 5 309.99 36.5
-1 -4 5 397.87 38.11
-1 -4 5 316.11 36.42
-1 -4 6 679.98 56.83
-1 -4 6 531.36 53.97
-1 -4 6 556.5 54.19
-1 -4 6 564.31 54.6
-1 -4 6 628.74 56.48
-1 -4 6 564.81 54.84
-1 -4 6 470.1 52.86
-1 -4 7 107.07 19.61
-1 -4 7 106.25 20.46
-1 -4 7 94.5 19.44
-1 -4 7 110.08 21.14
-1 -4 7 97.52 19.07
-1 -4 7 95.92 19.07
-1 -4 8 25.18 11.46
-1 -4 8 17.41 12.88
-1 -4 8 13.88 12.04
-1 -4 8 2.54 11.52
-1 -4 8 12.81 12.59
-1 -4 8 19.92 12.9
-1 -4 9 156.63 26.34
-1 -4 9 196.37 29.6
-1 -4 9 168.29 27.27
-1 -4 9 210.3 28.4
-1 -4 9 138.03 24.86
-1 -4 10 34.98 14.73
-1 -4 10 31.41 16.63
-1 -4 10 42.05 16.01
-1 -4 10 33.88 15.21
-1 -4 10 13.96 14.1
-1 -4 11 146.9 25.21
-1 -4 11 95.62 21.91
-1 -4 11 140.91 27.43
-1 -4 11 116.05 24.32
-1 -4 11 143.72 25.45
-1 -4 11 83.92 21.68
-1 -4 12 2.93 15.67
-1 -4 12 32.04 17.4
-1 -4 12 26.57 18.07
-1 -4 12 11.32 12.86
-1 -4 12 27.02 18.32
-1 -3 -14 198.41 36.75
-1 -3 -14 255.46 42.96
-1 -3 -14 203.2 39.2
-1 -3 -13 -3.96 18.27
-1 -3 -13 -4.18 19.31
-1 -3 -13 4.01 19.62
-1 -3 -12 586.91 63.29
-1 -3 -12 534.47 61.48
-1 -3 -12 591.44 61.07
-1 -3 -12 451.65 59.56
-1 -3 -12 649.4 62.15
-1 -3 -11 179.49 28.3
-1 -3 -11 126.9 26.36
-1 -3 -11 120.74 27.09
-1 -3 -11 147.32 27.35
-1 -3 -11 135.86 26.84
-1 -3 -10 696.53 64.87
-1 -3 -10 606.49 62.82
-1 -3 -10 577.66 61.11
-1 -3 -10 697.41 61.46
-1 -3 -10 698.13 64.38
-1 -3 -10 491.3 59.7
-1 -3 -9 80.06 17.59
-1 -3 -9 56.25 16.57
-1 -3 -9 91.31 19.93
-1 -3 -9 38.3 15.5
-1 -3 -9 89.37 17.77
-1 -3 -9 73.49 18.13
-1 -3 -8 711.23 65.89
-1 -3 -8 662.69 65.41
-1 -3 -8 686.01 64.87
-1 -3 -8 694.98 64.79
-1 -3 -8 776.92 66.6
-1 -3 -8 660.11 65.44
-1 -3 -7 998.9 91.19
-1 -3 -7 1037.95 91.68
-1 -3 -7 1081.81 91.72
-1 -3 -7 1064.52 88.18
-1 -3 -7 1278.39 95.04
-1 -3 -7 1032.95 92.66
-1 -3 -7 1027.66 90.78
-1 -3 -6 175.81 22.87
-1 -3 -6 124.01 18.83
-1 -3 -6 140.05 19.25
-1 -3 -6 121.77 19.55
-1 -3 -6 123.78 18.28
-1 -3 -6 170.1 18.83
-1 -3 -6 152.96 20.21
-1 -3 -6 133.81 19.32
-1 -3 -6 138.52 19.84
-1 -3 -6 157.65 18.7
-1 -3 -6 146.05 17.64
-1 -3 -6 148.24 16.55
-1 -3 -5 1090.49 84.99
-1 -3 -5 1068.42 84.94
-1 -3 -5 1105.02 90.71
-1 -3 -5 1109.83 89.16
-1 -3 -5 1076.68 87.53
-1 -3 -5 1079.66 87.14
-1 -3 -5 1155.01 91.16
-1 -3 -5 1223.91 94.41
-1 -3 -5 1130.78 90.3
-1 -3 -5 1078.82 91.66
-1 -3 -5 1113.62 85.03
-1 -3 -5 1026.38 90.56
-1 -3 -5 1098.19 90.83
-1 -3 -5 1096.88 84.99
-1 -3 -5 1066.64 84.92
-1 -3 -5 986.46 87.69
-1 -3 -4 93.32 15.46
-1 -3 -4 122.24 16.33
-1 -3 -4 117.59 16.14
-1 -3 -4 106.59 15.83
-1 -3 -4 126.12 16.95
-1 -3 -4 114.77 15.33
-1 -3 -4 141.14 15.16
-1 -3 -4 110.62 13.37
-1 -3 -4 118.05 12.06
-1 -3 -4 131.36 10.96
-1 -3 -4 174.16 20.75
-1 -3 -4 120.43 12.33
-1 -3 -4 119.89 16.56
-1 -3 -4 145.24 17.85
-1 -3 -4 137.33 16.34
-1 -3 -4 137.49 13.31
-1 -3 -4 129.81 12.58
-1 -3 -4 125.73 12.49
-1 -3 -4 124.09 12.38
-1 -3 -3 678.79 58
-1 -3 -3 666.95 57.58
-1 -3 -3 694.52 58.18
-1 -3 -3 764.66 58.89
-1 -3 -3 695.96 59.32
-1 -3 -3 688.61 57.92
-1 -3 -3 636.02 52.31
-1 -3 -3 665.52 54.11
-1 -3 -3 707.58 56.79
-1 -3 -3 642.75 54.07
-1 -3 -3 822.91 61.21
-1 -3 -3 648.11 57.92
-1 -3 -3 686.32 58.48
-1 -3 -3 692.46 53.98
-1 -3 -3 701.69 57.69
-1 -3 -3 653.16 60.62
-1 -3 -3 647.83 53.83
-1 -3 -3 691.72 55.53
-1 -3 -3 685.23 53.62
-1 -3 -3 675.27 53.93
-1 -3 -3 699.26 54
-1 -3 -3 688.25 53.96
-1 -3 -2 169.81 18.63
-1 -3 -2 172.05 19.21
-1 -3 -2 180.27 19.49
-1 -3 -2 190.82 20.28
-1 -3 -2 162.41 20.19
-1 -3 -2 181.57 19.99
-1 -3 -2 183.96 17.46
-1 -3 -2 166.93 19.79
-1 -3 -2 214.71 22.14
-1 -3 -2 204.18 22.43
-1 -3 -2 162.53 16.62
-1 -3 -2 160.33 18.82
-1 -3 -2 179.49 17.79
-1 -3 -2 184.62 16.96
-1 -3 -2 180.53 16.88
-1 -3 -2 182.73 16.93
-1 -3 -2 183.03 16.96
-1 -3 -1 2323.73 199.69
-1 -3 -1 2499.87 203.92
-1 -3 -1 2683.1 201.05
-1 -3 -1 2647.77 199.82
-1 -3 -1 2687.25 198.62
-1 -3 -1 2608.23 200.45
-1 -3 -1 2633.31 202.14
-1 -3 -1 2886.41 203.2
-1 -3 -1 2672.21 198.35
-1 -3 -1 2555.21 198.85
-1 -3 -1 2837.94 203.27
-1 -3 -1 2532.31 203.63
-1 -3 -1 2430.48 197.22
-1 -3 -1 2553.04 200.44
-1 -3 -1 2704.28 197.33
-1 -3 -1 2630.06 202.86
-1 -3 -1 2813.16 205.4
-1 -3 -1 2387.63 200.38
-1 -3 -1 2723.78 199.94
-1 -3 -1 2672.55 199.88
-1 -3 -1 2716.34 199.98
-1 -3 0 6.74 3.36
-1 -3 0 11.6 4.11
-1 -3 0 21.41 7.78
-1 -3 0 10.77 5.56
-1 -3 0 5.14 3.3
-1 -3 0 10.3 5.25
-1 -3 0 8.72 4.39
-1 -3 0 11.02 3.94
-1 -3 0 4.73 5.02
-1 -3 0 6.61 2.63
-1 -3 0 7.89 5.13
-1 -3 0 4.83 3.99
-1 -3 0 7.04 3.8
-1 -3 0 6.53 5.54
-1 -3 0 8.66 3.41
-1 -3 0 4.95 4.12
-1 -3 0 9.15 3.53
-1 -3 0 7.63 3.03
-1 -3 0 8.56 4.65
-1 -3 0 9.05 4.08
-1 -3 0 10.42 4.45
-1 -3 0 20.74 5.56
-1 -3 0 12.11 4.86
-1 -3 1 700.15 58.77
-1 -3 1 818.36 63.14
-1 -3 1 879.2 61.23
-1 -3 1 730.99 64.48
-1 -3 1 807.84 63
-1 -3 1 822.68 64.42
-1 -3 1 724.34 63.33
-1 -3 1 862.68 64.36
-1 -3 1 805 64.33
-1 -3 1 815.49 62.47
-1 -3 1 814.87 60.91
-1 -3 1 821.51 65.39
-1 -3 1 798.64 64.98
-1 -3 1 764.04 62.71
-1 -3 1 732.32 61.01
-1 -3 1 720.83 61.5
-1 -3 1 775.86 64.38
-1 -3 1 862.97 66.07
-1 -3 1 783.66 62.11
-1 -3 1 804.98 63.92
-1 -3 1 822.33 63.95
-1 -3 1 643.98 59.81
-1 -3 2 1244.8 96.1
-1 -3 2 1108.95 95.88
-1 -3 2 1332.43 95.51
-1 -3 2 1268.42 101.27
-1 -3 2 1301.67 95.81
-1 -3 2 1190.27 100.08
-1 -3 2 1275.38 101.17
-1 -3 2 1279.32 99.8
-1 -3 2 1238.87 100.23
-1 -3 2 1303.38 98.44
-1 -3 2 1130.89 100.13
-1 -3 2 1342.37 101.76
-1 -3 2 1235.34 99.76
-1 -3 2 1249.93 98.3
-1 -3 2 1198.45 101
-1 -3 2 1183.07 98.55
-1 -3 2 1370.92 102.88
-1 -3 2 1256.93 98.14
-1 -3 2 1233.43 100.05
-1 -3 2 1281.24 101.03
-1 -3 2 1149.42 100.32
-1 -3 2 1338.63 101.46
-1 -3 2 1220.66 100.77
-1 -3 2 1256.65 100.94
-1 -3 3 1009.45 88.1
-1 -3 3 1165.63 91.89
-1 -3 3 1169.46 92.51
-1 -3 3 1170.08 91.95
-1 -3 3 1113.85 90.19
-1 -3 3 1106.68 90.76
-1 -3 3 1153.57 91.54
-1 -3 3 1038.3 89.49
-1 -3 3 1107.42 92.36
-1 -3 3 1125.69 89.39
-1 -3 3 1040.1 92.98
-1 -3 3 1266.32 89.33
-1 -3 3 1209.45 88.17
-1 -3 3 874.6 91.14
-1 -3 3 1192.99 92.62
-1 -3 3 1178.04 92.48
-1 -3 3 1084.55 91.78
-1 -3 3 1150.02 92.25
-1 -3 3 1053.12 90.99
-1 -3 3 1131.85 92.15
-1 -3 4 344.26 34.75
-1 -3 4 363.81 35.85
-1 -3 4 306.94 34.7
-1 -3 4 289.76 31.63
-1 -3 4 380.71 35.65
-1 -3 4 346.5 35.48
-1 -3 4 321.16 32.41
-1 -3 4 326.83 32.93
-1 -3 4 363.43 35.88
-1 -3 4 427.3 38.25
-1 -3 4 422.52 33.1
-1 -3 4 410.27 36.19
-1 -3 4 328.72 32.62
-1 -3 4 395.51 35.78
-1 -3 4 353.69 35.38
-1 -3 4 332.78 35.22
-1 -3 5 466.91 41.61
-1 -3 5 538.17 47.92
-1 -3 5 463.33 45.58
-1 -3 5 532.3 43.53
-1 -3 5 420.19 44.25
-1 -3 5 436.09 45.5
-1 -3 5 462.26 45.47
-1 -3 5 440.2 45.22
-1 -3 6 347.31 39.42
-1 -3 6 389.3 40.52
-1 -3 6 453.57 42.87
-1 -3 6 382.45 40.87
-1 -3 6 394.39 40.69
-1 -3 7 31.2 12.81
-1 -3 7 26.46 11.98
-1 -3 7 31.24 11.56
-1 -3 7 27.07 11.68
-1 -3 7 40.98 12.54
-1 -3 8 421.92 44.53
-1 -3 8 464.83 45.57
-1 -3 8 384.66 42.76
-1 -3 8 401.93 44.28
-1 -3 8 425.66 45.35
-1 -3 9 146.82 25.15
-1 -3 9 184.02 26.33
-1 -3 9 175.28 26.41
-1 -3 9 126.47 24.38
-1 -3 9 178.83 24.97
-1 -3 10 300.86 37.38
-1 -3 10 309.6 38.32
-1 -3 10 265.6 37.32
-1 -3 10 307.9 38.59
-1 -3 10 380.06 43.14
-1 -3 10 333.05 38.61
-1 -3 11 -11.69 13.77
-1 -3 11 -2.87 12.7
-1 -3 11 -2.86 13.45
-1 -3 11 9.82 15.42
-1 -3 11 2.76 12.18
-1 -3 12 131.52 26.58
-1 -3 12 136.74 26.57
-1 -3 12 140.4 26.55
-1 -3 12 196.78 32.04
-1 -3 12 167.81 27.18
-1 -3 13 137.29 25.23
-1 -3 13 85.03 22.7
-1 -2 -14 31.66 20.91
-1 -2 -14 8.95 22.44
-1 -2 -14 77.53 27.93
-1 -2 -13 545.81 61.56
-1 -2 -13 568.66 64.01
-1 -2 -13 561.43 61.29
-1 -2 -13 456.23 59.66
-1 -2 -12 294.21 41.85
-1 -2 -12 294.44 40.89
-1 -2 -12 313.65 43.36
-1 -2 -12 353.99 44.95
-1 -2 -11 429.15 46
-1 -2 -11 303.38 42.65
-1 -2 -11 384.28 46.34
-1 -2 -11 291.76 42.38
-1 -2 -11 439.35 44.76
-1 -2 -10 148.87 25.44
-1 -2 -10 138.91 24.38
-1 -2 -10 157.93 26.01
-1 -2 -10 133.66 24.89
-1 -2 -10 113.19 21.43
-1 -2 -10 111.69 20.99
-1 -2 -9 5.19 11.48
-1 -2 -9 10.06 8.87
-1 -2 -9 2.65 10.59
-1 -2 -9 2.2 9.94
-1 -2 -9 -2.55 10.45
-1 -2 -9 2.4 9.58
-1 -2 -9 -2.15 9.04
-1 -2 -8 851.6 75.96
-1 -2 -8 926.93 77.12
-1 -2 -8 868.08 76.55
-1 -2 -8 940.23 75.75
-1 -2 -8 885.11 75.03
-1 -2 -8 805.1 74.98
-1 -2 -8 830.79 75.21
-1 -2 -8 745.63 70.67
-1 -2 -8 801.67 73.17
-1 -2 -7 362.05 36.13
-1 -2 -7 418.45 38.8
-1 -2 -7 434.3 40.53
-1 -2 -7 437.55 41.23
-1 -2 -7 404.84 40.5
-1 -2 -7 448.95 41.87
-1 -2 -7 493.73 42.34
-1 -2 -7 357.19 39.23
-1 -2 -7 352.95 39.45
-1 -2 -7 360.94 36.47
-1 -2 -6 1567.95 121.13
-1 -2 -6 1485.04 120.5
-1 -2 -6 1428.88 116.59
-1 -2 -6 1505.85 120.45
-1 -2 -6 1440.36 116.96
-1 -2 -6 1509.18 116.28
-1 -2 -6 1389.13 115.75
-1 -2 -6 1409.21 114.68
-1 -2 -6 1424.87 117.87
-1 -2 -6 1596.8 120.84
-1 -2 -6 1503.96 114.8
-1 -2 -6 1549.66 115.06
-1 -2 -6 1435.29 116.14
-1 -2 -6 1652.95 122.23
-1 -2 -6 1414.61 119.47
-1 -2 -6 1449.81 120.61
-1 -2 -6 1456.92 114.69
-1 -2 -6 1509.72 114.93
-1 -2 -5 316.57 31.73
-1 -2 -5 298.83 31.52
-1 -2 -5 311.46 31.7
-1 -2 -5 297.19 30.05
-1 -2 -5 332.22 29.2
-1 -2 -5 281.87 29.16
-1 -2 -5 330.9 27.74
-1 -2 -5 321.77 27.89
-1 -2 -5 388.61 33.56
-1 -2 -5 347.04 27.22
-1 -2 -5 313.9 26.89
-1 -2 -5 309.23 28.14
-1 -2 -5 301.5 30.9
-1 -2 -5 370.64 34.09
-1 -2 -5 299.11 30.85
-1 -2 -5 309.58 31.96
-1 -2 -5 315.08 26.91
-1 -2 -5 305.28 26.8
-1 -2 -5 329.13 27.65
-1 -2 -5 337.17 27.79
-1 -2 -4 1806.18 144.25
-1 -2 -4 1728.42 143.82
-1 -2 -4 1825.72 144.36
-1 -2 -4 1822.13 143.58
-1 -2 -4 1871.77 142.17
-1 -2 -4 1747.25 140.84
-1 -2 -4 1778.28 140.23
-1 -2 -4 1826.49 139.41
-1 -2 -4 2082.37 145.59
-1 -2 -4 1808.34 139.86
-1 -2 -4 1853.75 138.88
-1 -2 -4 1789.29 145.92
-1 -2 -4 1831.63 143.72
-1 -2 -4 1868.1 144.14
-1 -2 -4 1734.6 144.2
-1 -2 -4 1734.21 138.8
-1 -2 -4 1848.4 138.86
-1 -2 -4 1876.05 138.92
-1 -2 -4 1866.32 139.49
-1 -2 -4 1834.1 138.84
-1 -2 -4 1895.29 139.51
-1 -2 -3 1235.17 100.87
-1 -2 -3 1210.86 101.27
-1 -2 -3 1303.3 101.35
-1 -2 -3 1268.7 101.66
-1 -2 -3 1370.19 100.44
-1 -2 -3 1358.31 98.62
-1 -2 -3 1273.87 96.35
-1 -2 -3 1267.86 97.48
-1 -2 -3 1266.33 96.11
-1 -2 -3 1280.38 96.33
-1 -2 -3 1237.76 96.7
-1 -2 -3 1217.2 96.3
-1 -2 -3 1411.72 101.56
-1 -2 -3 1277.28 103.06
-1 -2 -3 1271.84 101.53
-1 -2 -3 1270.71 96.33
-1 -2 -3 1359.39 101.93
-1 -2 -3 1233.66 96.47
-1 -2 -3 1267.88 96.32
-1 -2 -3 1274.11 96.32
-1 -2 -2 2014.34 155.17
-1 -2 -2 2035.09 155.22
-1 -2 -2 2051.25 151.2
-1 -2 -2 2069.83 154.82
-1 -2 -2 1922.15 151.37
-1 -2 -2 2077.16 156.14
-1 -2 -2 1988.06 151.89
-1 -2 -2 1880.68 154.62
-1 -2 -2 2073.5 156.19
-1 -2 -2 1818.29 154.19
-1 -2 -2 2008.95 152.33
-1 -2 -2 1937.17 151.14
-1 -2 -2 2012 151.17
-1 -2 -2 2038.63 151.18
-1 -2 -2 2086.76 156.86
-1 -2 -2 2143.83 155.3
-1 -2 -2 1988.8 154.92
-1 -2 -1 711.9 54.48
-1 -2 -1 678.73 51.55
-1 -2 -1 617.48 50.43
-1 -2 -1 685.9 55.38
-1 -2 -1 613.46 52.61
-1 -2 -1 634.38 53.94
-1 -2 -1 636.42 52.26
-1 -2 -1 698.52 55.41
-1 -2 -1 647.72 53.96
-1 -2 -1 626.33 53.17
-1 -2 -1 674.25 50.53
-1 -2 -1 639.08 51.45
-1 -2 -1 644.25 51.9
-1 -2 -1 675.31 53.35
-1 -2 -1 663.06 54.88
-1 -2 -1 648 51.45
-1 -2 -1 671.41 51.5
-1 -2 -1 661.44 52.26
-1 -2 0 1293.06 103.23
-1 -2 0 1351.7 101.3
-1 -2 0 1273.37 102.44
-1 -2 0 1222.46 103.38
-1 -2 0 1392.92 102.18
-1 -2 0 1301.8 102.34
-1 -2 0 1250.87 101.43
-1 -2 0 1317.25 102.48
-1 -2 0 1327.5 104.23
-1 -2 0 1378.27 100.56
-1 -2 0 1328.82 101.4
-1 -2 0 1346.8 104.76
-1 -2 0 1243.27 103.57
-1 -2 0 1351.48 104.27
-1 -2 0 1177.96 102.86
-1 -2 0 1275.36 100.48
-1 -2 0 1400.18 104.41
-1 -2 0 1440.28 105.58
-1 -2 0 1401.45 103.11
-1 -2 0 1325.89 102.48
-1 -2 0 1307.09 102.48
-1 -2 0 1359.45 102.21
-1 -2 0 1291.03 102.58
-1 -2 1 880.56 70.71
-1 -2 1 936.4 70.2
-1 -2 1 858.72 71.14
-1 -2 1 825.49 69.2
-1 -2 1 857.01 70.59
-1 -2 1 807.06 68.1
-1 -2 1 897.64 71.46
-1 -2 1 1005.7 70.14
-1 -2 1 840.53 69.37
-1 -2 1 847.01 69.93
-1 -2 1 851.58 69.98
-1 -2 1 759.7 68.94
-1 -2 1 866.84 70.22
-1 -2 1 884.38 70.24
-1 -2 1 961.85 68.07
-1 -2 1 849.9 70.22
-1 -2 2 516.31 49.24
-1 -2 2 581.21 46.74
-1 -2 2 484.18 45.64
-1 -2 2 644.2 49.52
-1 -2 2 589.53 48.25
-1 -2 2 561.03 48.55
-1 -2 2 570.9 47.89
-1 -2 2 538.71 47.96
-1 -2 2 539.8 48.77
-1 -2 2 503.11 46.42
-1 -2 2 641.43 48.19
-1 -2 2 643.48 50.65
-1 -2 2 609.02 48.77
-1 -2 2 613.75 49.31
-1 -2 2 526.29 46.35
-1 -2 2 594.93 48.92
-1 -2 2 581.56 48.75
-1 -2 3 492.9 42.26
-1 -2 3 490.63 41.77
-1 -2 3 532.98 42.63
-1 -2 3 463.22 39.85
-1 -2 3 498.73 41.92
-1 -2 3 436.52 39.69
-1 -2 3 424.87 41.61
-1 -2 3 553.8 45.07
-1 -2 3 521.09 42.84
-1 -2 3 464.29 41.91
-1 -2 3 459.15 41.78
-1 -2 3 451.29 40.15
-1 -2 3 386.84 36.67
-1 -2 4 255.49 20.95
-1 -2 4 273.03 26.93
-1 -2 4 239.4 23.62
-1 -2 4 248.37 26.29
-1 -2 4 233.07 24.63
-1 -2 4 238.29 26.47
-1 -2 4 310.93 30.42
-1 -2 4 290.12 27.47
-1 -2 4 320.76 28.52
-1 -2 4 280.77 27.3
-1 -2 4 241.01 24.95
-1 -2 4 191.04 21.73
-1 -2 4 239.88 26.36
-1 -2 4 215.46 25.87
-1 -2 5 1472.43 102.82
-1 -2 5 1406.36 102.58
-1 -2 5 1244.23 97.23
-1 -2 5 1111.52 98.82
-1 -2 5 1322.75 102.61
-1 -2 5 1422.49 105.64
-1 -2 5 1393.17 102.97
-1 -2 5 1027.51 96.11
-1 -2 5 1125.47 99.28
-1 -2 5 1068.32 101.2
-1 -2 5 1116.03 101.53
-1 -2 5 1393.57 102.99
-1 -2 5 1278.85 102.27
-1 -2 6 9.61 8.74
-1 -2 6 23.56 10.71
-1 -2 6 20.81 8.31
-1 -2 6 8.78 5.74
-1 -2 6 7.87 8.54
-1 -2 6 6.02 7.61
-1 -2 6 9.93 9.4
-1 -2 6 32.11 10.63
-1 -2 7 926.09 83.8
-1 -2 7 1080.27 86.02
-1 -2 7 875.19 81.55
-1 -2 7 989.28 85.01
-1 -2 7 956.9 84.88
-1 -2 7 998.06 85.11
-1 -2 8 48.67 14.28
-1 -2 8 35.11 13.24
-1 -2 8 32.58 11.79
-1 -2 8 43.33 14.1
-1 -2 8 15.79 10.6
-1 -2 8 76.97 16.75
-1 -2 8 64.5 16.02
-1 -2 9 235.51 30
-1 -2 9 251.97 28.71
-1 -2 9 246.03 28.09
-1 -2 9 190.32 29.25
-1 -2 9 198.56 29.24
-1 -2 9 181.87 28.49
-1 -2 10 50.61 13.87
-1 -2 10 25.76 13
-1 -2 10 14.85 11.31
-1 -2 10 33.21 15.34
-1 -2 10 48.84 16.3
-1 -2 10 10.79 12.36
-1 -2 11 184.43 29.12
-1 -2 11 232.39 31.79
-1 -2 11 194.47 30.84
-1 -2 11 216.82 26.33
-1 -2 12 144.91 26.62
-1 -2 12 146.7 26.75
-1 -2 12 161.13 26.88
-1 -2 13 24.44 16.16
-1 -2 13 32.11 16.63
-1 -1 -14 115.3 30.83
-1 -1 -14 134.26 32.6
-1 -1 -14 114.19 29.3
-1 -1 -13 85.9 24.58
-1 -1 -13 106.76 27.98
-1 -1 -13 127.85 27.2
-1 -1 -13 103.11 28.57
-1 -1 -13 106.62 26.68
-1 -1 -12 107.55 24.5
-1 -1 -12 68.35 24.18
-1 -1 -12 80.2 20.98
-1 -1 -12 125.67 26.77
-1 -1 -12 91.03 24.02
-1 -1 -11 274.43 36.59
-1 -1 -11 239.94 36.38
-1 -1 -11 288.25 36.66
-1 -1 -11 308.85 40.52
-1 -1 -11 272.38 38.16
-1 -1 -10 11.36 10.91
-1 -1 -10 40.9 14.2
-1 -1 -10 29.18 14.17
-1 -1 -10 55.53 14.35
-1 -1 -10 16.2 16
-1 -1 -10 39.6 14.65
-1 -1 -10 15.31 12.75
-1 -1 -10 32.95 14.28
-1 -1 -9 1641.19 137.32
-1 -1 -9 1587.83 135.36
-1 -1 -9 1730.11 137
-1 -1 -9 1600.18 138.57
-1 -1 -9 1766.32 138.79
-1 -1 -9 1738.84 141.7
-1 -1 -9 1775.53 140.78
-1 -1 -9 1497.11 136.38
-1 -1 -8 29.39 10.57
-1 -1 -8 30.56 9.47
-1 -1 -8 52.92 13.91
-1 -1 -8 2.5 9.84
-1 -1 -8 26.38 10.6
-1 -1 -8 13.76 10.71
-1 -1 -8 21.99 11.27
-1 -1 -8 13.43 9.87
-1 -1 -7 893.68 67.84
-1 -1 -7 881.02 68.85
-1 -1 -7 695.96 69.05
-1 -1 -7 790.51 69.68
-1 -1 -7 773.25 67.14
-1 -1 -7 858.47 67.77
-1 -1 -7 797.94 69.45
-1 -1 -7 736.74 67.36
-1 -1 -7 739.39 69.85
-1 -1 -7 808.84 69.86
-1 -1 -7 907.38 73.38
-1 -1 -7 809.25 71.02
-1 -1 -7 752.65 67.2
-1 -1 -7 765.36 66.92
-1 -1 -6 46.19 6.63
-1 -1 -6 47.85 9.33
-1 -1 -6 44.97 9.75
-1 -1 -6 32.02 9.38
-1 -1 -6 37.22 8.14
-1 -1 -6 47.46 7.79
-1 -1 -6 54.66 12.03
-1 -1 -6 42.47 9.95
-1 -1 -6 70.63 11.83
-1 -1 -6 38.15 8.05
-1 -1 -6 43.13 6.13
-1 -1 -6 37.33 6.46
-1 -1 -6 36.29 9.04
-1 -1 -6 56.04 9.35
-1 -1 -6 40.52 10.59
-1 -1 -6 36.66 8.31
-1 -1 -6 43.26 7.7
-1 -1 -6 39.69 7.46
-1 -1 -6 46.71 8.48
-1 -1 -6 35.38 7.83
-1 -1 -6 28.36 6.81
-1 -1 -5 2301.37 166.02
-1 -1 -5 2233.29 169.84
-1 -1 -5 2302.53 171.73
-1 -1 -5 2138.8 171.47
-1 -1 -5 2257.03 168.43
-1 -1 -5 2107.49 168.35
-1 -1 -5 2128.68 167.34
-1 -1 -5 2178.51 168.32
-1 -1 -5 2235.67 166.67
-1 -1 -5 2029.22 169.69
-1 -1 -5 2207.77 166.26
-1 -1 -5 2103.93 165.55
-1 -1 -5 2068.44 168.76
-1 -1 -5 2284.11 172.32
-1 -1 -5 2399.39 173.29
-1 -1 -5 2230.63 172.66
-1 -1 -5 2170.29 171.58
-1 -1 -5 2265.71 171.47
-1 -1 -5 2117.46 167.24
-1 -1 -5 2145.36 167.37
-1 -1 -5 2205.18 167.4
-1 -1 -5 2233.35 168.34
-1 -1 -4 2460.5 200.31
-1 -1 -4 2558.39 200.93
-1 -1 -4 2766.95 197.5
-1 -1 -4 2564.55 197.61
-1 -1 -4 2587.82 196.61
-1 -1 -4 2453.15 197.61
-1 -1 -4 2707.81 197.24
-1 -1 -4 2506.88 195.78
-1 -1 -4 2464.9 198.74
-1 -1 -4 2423.73 197.93
-1 -1 -4 2647.44 201.4
-1 -1 -4 2600.07 198.37
-1 -1 -4 2664.48 196.63
-1 -1 -4 2683.18 197.39
-1 -1 -4 2684.72 196.67
-1 -1 -4 2630.36 196.63
-1 -1 -4 2632.98 201.32
-1 -1 -4 2573.05 202.12
-1 -1 -4 2600.18 200.74
-1 -1 -4 2677.27 200.75
-1 -1 -3 603.25 52.83
-1 -1 -3 611.7 54.16
-1 -1 -3 611.15 52.56
-1 -1 -3 625.91 52.58
-1 -1 -3 658.54 48.71
-1 -1 -3 668.25 49.15
-1 -1 -3 661.95 50.77
-1 -1 -3 616.3 50.2
-1 -1 -3 652.4 50.77
-1 -1 -3 595.1 48.71
-1 -1 -3 620.17 53.26
-1 -1 -3 657.21 52.05
-1 -1 -3 618.72 49.64
-1 -1 -3 635.25 48.7
-1 -1 -3 626.55 52.72
-1 -1 -3 625.51 54.01
-1 -1 -3 633.57 53.09
-1 -1 -3 658.14 49.13
-1 -1 -3 645.14 48.72
-1 -1 -3 636.43 48.7
-1 -1 -2 217.65 19.32
-1 -1 -2 237.76 21.11
-1 -1 -2 206.67 17.8
-1 -1 -2 204.78 19.12
-1 -1 -2 237.31 20.82
-1 -1 -2 213.49 19.88
-1 -1 -2 215.63 20.25
-1 -1 -2 191.02 19.81
-1 -1 -2 197.99 20.75
-1 -1 -2 201.32 20.14
-1 -1 -2 220 20.4
-1 -1 -2 210.96 19.97
-1 -1 -2 219.17 20.49
-1 -1 -2 212.65 20.17
-1 -1 -2 267.77 21.03
-1 -1 -2 252.17 22.15
-1 -1 -2 200.08 20.05
-1 -1 -1 481.33 38.63
-1 -1 -1 413.58 38.93
-1 -1 -1 519.98 36.79
-1 -1 -1 445.79 38.68
-1 -1 -1 481.59 36.3
-1 -1 -1 445.37 38.95
-1 -1 -1 475.94 39.84
-1 -1 -1 461.98 36.63
-1 -1 -1 423.25 37.47
-1 -1 -1 497.71 40.27
-1 -1 -1 444.17 36.5
-1 -1 -1 419.14 37.96
-1 -1 -1 468.29 38.74
-1 -1 -1 481.61 39.17
-1 -1 -1 489.01 39.75
-1 -1 -1 466.34 37.6
-1 -1 -1 499.39 37.51
-1 -1 -1 502.95 36.69
-1 -1 0 254.21 21.74
-1 -1 0 235.11 20.87
-1 -1 0 236.37 21.85
-1 -1 0 286.55 21.94
-1 -1 0 231.81 21.42
-1 -1 0 236.52 21.1
-1 -1 0 249.61 21.3
-1 -1 0 246.07 22.38
-1 -1 0 233.44 21.85
-1 -1 0 233.89 19.89
-1 -1 0 265.76 22.75
-1 -1 0 251.62 23.26
-1 -1 0 217.6 21.37
-1 -1 0 241.23 21.63
-1 -1 0 294.78 22.89
-1 -1 0 243.6 21.75
-1 -1 0 251.44 22.16
-1 -1 0 271.17 23.19
-1 -1 0 237.31 22.01
-1 -1 0 260.22 22.2
-1 -1 0 286.79 23.07
-1 -1 0 266.47 21.63
-1 -1 1 3168.74 230.92
-1 -1 1 3170.51 233.23
-1 -1 1 3199.46 234.76
-1 -1 1 3284.22 231.57
-1 -1 1 3351.68 234.02
-1 -1 1 2774.55 231.56
-1 -1 1 3514.11 234.54
-1 -1 1 2938.92 235.03
-1 -1 1 3050.96 234.36
-1 -1 1 2727.22 232.74
-1 -1 1 3465.98 235.91
-1 -1 1 3144.39 232.97
-1 -1 1 3198.09 234.03
-1 -1 1 2715.72 231.2
-1 -1 1 3640.63 234.89
-1 -1 1 2803.77 233.59
-1 -1 1 3106.41 233.8
-1 -1 1 2670.11 233.63
-1 -1 1 2651.45 233.59
-1 -1 1 3250.03 234.96
-1 -1 1 3220.84 234.39
-1 -1 1 3324.71 234.96
-1 -1 2 8075.31 566.78
-1 -1 2 8201.93 566.76
-1 -1 2 8636.82 566.41
-1 -1 2 8500.14 566.36
-1 -1 2 7008.62 566.66
-1 -1 2 6952.31 564.53
-1 -1 2 6907.17 565.95
-1 -1 2 7837.4 568.97
-1 -1 2 7992.56 564.79
-1 -1 2 9051.91 566.97
-1 -1 2 8035.25 566.18
-1 -1 2 7068.57 565.66
-1 -1 2 7139.59 566.08
-1 -1 2 7139.11 566.11
-1 -1 2 6264.18 562.53
-1 -1 2 7037.15 565.42
-1 -1 3 479.97 40.39
-1 -1 3 501.16 41.64
-1 -1 3 521.88 42.03
-1 -1 3 525.86 41.85
-1 -1 3 412.51 41.07
-1 -1 3 388.29 39.29
-1 -1 3 678.92 47.57
-1 -1 3 468.97 38.33
-1 -1 3 471.33 41.46
-1 -1 3 389.19 40.22
-1 -1 3 542.35 42.01
-1 -1 3 445.85 41.19
-1 -1 3 427.84 41.13
-1 -1 3 435.43 40.91
-1 -1 3 359.66 37.56
-1 -1 4 709.65 53.26
-1 -1 4 683.27 54.51
-1 -1 4 656.53 53.95
-1 -1 4 776.92 55.38
-1 -1 4 555.05 53.73
-1 -1 4 590.93 52.55
-1 -1 4 775.65 58.69
-1 -1 4 562.8 49.45
-1 -1 4 714.45 54.88
-1 -1 4 507.61 52.97
-1 -1 4 672.6 54.35
-1 -1 4 485.03 49.78
-1 -1 4 508.05 52.77
-1 -1 4 597.45 54.19
-1 -1 4 584.17 54.13
-1 -1 5 47.19 10.27
-1 -1 5 31.73 8.91
-1 -1 5 37.58 8.84
-1 -1 5 23.14 7.93
-1 -1 5 25.66 8.98
-1 -1 5 24.08 8.64
-1 -1 5 26.83 8.32
-1 -1 5 29.76 10.08
-1 -1 5 13.72 5.83
-1 -1 5 32.19 9.67
-1 -1 5 36.54 9.71
-1 -1 5 22.94 8.85
-1 -1 5 24.79 9.19
-1 -1 5 17.59 8.82
-1 -1 6 795.17 61.41
-1 -1 6 782.85 60.99
-1 -1 6 743.24 59.34
-1 -1 6 784.18 61.99
-1 -1 6 620.02 60.82
-1 -1 6 604.39 58.84
-1 -1 6 760.63 63.63
-1 -1 6 790.37 62.57
-1 -1 6 592.5 60.76
-1 -1 6 729.36 61.12
-1 -1 6 509.04 56.49
-1 -1 6 607.17 59.86
-1 -1 6 653.84 61.7
-1 -1 6 673.26 61.76
-1 -1 7 146.31 20.77
-1 -1 7 106.18 18.57
-1 -1 7 120.09 19.27
-1 -1 7 86.89 17.6
-1 -1 7 96.22 15.18
-1 -1 7 113.61 17.76
-1 -1 7 118.9 18.82
-1 -1 8 622.98 58.56
-1 -1 8 648.36 60.06
-1 -1 8 655.98 58.19
-1 -1 8 631.6 55.83
-1 -1 8 589.96 57.46
-1 -1 8 530.51 57.77
-1 -1 9 194.36 24.88
-1 -1 9 153.23 21.44
-1 -1 9 173.68 24.95
-1 -1 9 140.61 21.94
-1 -1 9 111.83 22.11
-1 -1 10 64.21 14.21
-1 -1 10 60.65 17.6
-1 -1 10 63.87 17.39
-1 -1 10 58.14 15.2
-1 -1 10 51.63 15.31
-1 -1 11 161.97 27.44
-1 -1 11 244.49 26.68
-1 -1 11 231.03 31.7
-1 -1 11 180 29.58
-1 -1 11 209.57 28.27
-1 -1 12 96.08 16.06
-1 -1 12 56.62 18.88
-1 -1 12 62.77 18.14
-1 -1 12 47.99 17.21
-1 -1 13 191.81 30.26
-1 -1 13 141.93 28.28
-1 -1 13 186.93 27.26
-1 -1 14 18.39 17.14
-1 0 -14 216.85 36.09
-1 0 -14 240.99 39.33
-1 0 -14 201.52 37.77
-1 0 -14 204.73 37.9
-1 0 -13 29.71 18.44
-1 0 -13 3.44 15.6
-1 0 -13 19.36 20.34
-1 0 -13 32.54 23.02
-1 0 -13 12.05 19.33
-1 0 -12 459.68 50.63
-1 0 -12 420.29 48.61
-1 0 -12 413.41 51.17
-1 0 -12 416.21 53.38
-1 0 -12 403.91 52.41
-1 0 -11 -2.81 11.83
-1 0 -11 2.99 12.28
-1 0 -11 3.81 15.63
-1 0 -11 13.89 14.63
-1 0 -11 29.42 17.15
-1 0 -10 656.21 63.3
-1 0 -10 648.81 64.46
-1 0 -10 720.27 63.67
-1 0 -10 603.65 67.61
-1 0 -10 663.7 66.39
-1 0 -10 596.83 64.34
-1 0 -10 688.55 66
-1 0 -9 105.25 18.21
-1 0 -9 70.36 15.93
-1 0 -9 94.97 18.57
-1 0 -9 58.11 18.53
-1 0 -9 76.32 15.51
-1 0 -9 68.87 17.66
-1 0 -9 40.32 16.32
-1 0 -8 848.26 71.98
-1 0 -8 740.23 76.16
-1 0 -8 856.13 71.04
-1 0 -8 800.49 74.5
-1 0 -8 779.42 71.76
-1 0 -8 811.52 73.29
-1 0 -8 771.67 74.93
-1 0 -8 791.21 73.28
-1 0 -8 857.89 71.34
-1 0 -8 849.51 71.06
-1 0 -7 288.25 28.27
-1 0 -7 278.17 32.41
-1 0 -7 284.15 28.52
-1 0 -7 256.77 29.97
-1 0 -7 244.3 27
-1 0 -7 277.39 26.37
-1 0 -7 255.09 25.97
-1 0 -7 243.12 25.59
-1 0 -7 224 27.25
-1 0 -7 255.02 28.93
-1 0 -7 219.29 30.33
-1 0 -7 243.89 26.61
-1 0 -7 251.07 26.02
-1 0 -7 271.82 27.59
-1 0 -7 233.25 28.27
-1 0 -7 256.83 25.45
-1 0 -7 278.47 27.25
-1 0 -6 331.38 28.45
-1 0 -6 263.93 27.76
-1 0 -6 273.56 29.24
-1 0 -6 278.06 28.05
-1 0 -6 273.53 26.95
-1 0 -6 307.88 28.95
-1 0 -6 289.28 32.57
-1 0 -6 279.59 29.35
-1 0 -6 278.32 30.25
-1 0 -6 279.71 27.82
-1 0 -6 278.98 27.01
-1 0 -6 294.39 27.26
-1 0 -6 284.48 29.51
-1 0 -6 286.49 28.84
-1 0 -6 303.92 32.6
-1 0 -6 269.17 24.59
-1 0 -6 292.81 26.74
-1 0 -6 287.11 28.34
-1 0 -6 286.38 27.08
-1 0 -5 408.72 36.2
-1 0 -5 448.39 37.62
-1 0 -5 419.02 39.1
-1 0 -5 432.74 38.07
-1 0 -5 402.19 37.54
-1 0 -5 409.43 36.81
-1 0 -5 406.68 38.16
-1 0 -5 449.68 42.58
-1 0 -5 444.26 40.17
-1 0 -5 457.61 40.14
-1 0 -5 424.3 37.61
-1 0 -5 444.26 37.17
-1 0 -5 429.89 37.02
-1 0 -5 490.33 39.44
-1 0 -5 424.36 39.21
-1 0 -5 404.34 41.56
-1 0 -5 425.9 36.15
-1 0 -5 437.04 36.34
-1 0 -5 473.01 36.39
-1 0 -5 402.79 36.64
-1 0 -5 439.45 37.81
-1 0 -4 1627.5 112.02
-1 0 -4 1425.41 112.1
-1 0 -4 1460.54 111.83
-1 0 -4 1474.62 113.62
-1 0 -4 1397.5 111.36
-1 0 -4 1419.12 111.51
-1 0 -4 1356.36 112.26
-1 0 -4 1386.36 112.18
-1 0 -4 1522.5 116.21
-1 0 -4 1525.45 115.62
-1 0 -4 1374.25 113.54
-1 0 -4 1357.6 112.47
-1 0 -4 1564.04 112.1
-1 0 -4 1535.54 113.5
-1 0 -4 1427.96 113.03
-1 0 -4 1358.85 113.26
-1 0 -4 1475.2 116.36
-1 0 -4 1357.85 111.86
-1 0 -4 1446.69 111.53
-1 0 -4 1434.49 111.42
-1 0 -4 1403.87 111.9
-1 0 -4 1446.93 111.46
-1 0 -3 4480.27 291.42
-1 0 -3 3886.97 291.8
-1 0 -3 3813.82 292.18
-1 0 -3 3853.48 290.03
-1 0 -3 4207.34 292.04
-1 0 -3 3683.12 290.04
-1 0 -3 3882.29 290.15
-1 0 -3 4009.06 293.48
-1 0 -3 3801.54 291.74
-1 0 -3 3935.06 294.24
-1 0 -3 3731.51 290.98
-1 0 -3 4126.28 289.76
-1 0 -3 3880.84 291.12
-1 0 -3 3804.36 288.16
-1 0 -3 3736.79 291.23
-1 0 -3 4079.94 294.38
-1 0 -3 3630.86 291.48
-1 0 -3 3686.73 290.51
-1 0 -3 3549.95 289.88
-1 0 -3 3690.41 289.96
-1 0 -3 3775.94 289.95
-1 0 -3 3763.6 290.1
-1 0 -2 1083.5 78.69
-1 0 -2 1100.28 77.11
-1 0 -2 973.97 79.26
-1 0 -2 966.68 78.92
-1 0 -2 967.2 79.61
-1 0 -2 1058.35 78.49
-1 0 -2 1013.79 77.16
-1 0 -2 955.57 76.72
-1 0 -2 978 76.66
-1 0 -2 1021.43 79.03
-1 0 -2 1049.07 78.22
-1 0 -2 1009.48 78.21
-1 0 -2 1037.86 81.46
-1 0 -2 978.28 78.52
-1 0 -2 978.39 78.01
-1 0 -2 1001.32 77.68
-1 0 -2 1034.58 78.3
-1 0 -2 1079.08 80.1
-1 0 -2 905.89 77.58
-1 0 -2 1014.62 79.51
-1 0 -2 973.43 77.05
-1 0 -2 964.86 77.06
-1 0 -2 988.73 77.09
-1 0 -2 991.31 77.12
-1 0 -1 890.07 61.23
-1 0 -1 712.78 59.59
-1 0 -1 746.65 60.37
-1 0 -1 745.67 58.24
-1 0 -1 707.45 58.52
-1 0 -1 730.42 58.84
-1 0 -1 732.91 58.46
-1 0 -1 736.4 61.96
-1 0 -1 754.25 59.01
-1 0 -1 720.57 58.57
-1 0 -1 699.52 58.39
-1 0 -1 764.32 58.32
-1 0 -1 707.97 57.25
-1 0 -1 761.1 59.18
-1 0 -1 811.24 59.69
-1 0 -1 748.67 60.44
-1 0 -1 751.24 57.84
-1 0 -1 715.24 58.1
-1 0 -1 778.96 58.95
-1 0 -1 794.52 58.31
-1 0 -1 805.88 59.95
-1 0 -1 782.71 58.36
-1 0 -1 776.83 58.33
-1 0 0 29.54 5.62
-1 0 0 41.02 6.09
-1 0 0 36.82 4.98
-1 0 0 30.33 4.52
-1 0 0 35.45 5.44
-1 0 0 32.42 4.45
-1 0 0 28.72 3.75
-1 0 0 35.21 4.46
-1 0 0 35 4.7
-1 0 0 26.03 4.33
-1 0 0 34.2 5.22
-1 0 0 28.75 4.41
-1 0 0 31.5 5.53
-1 0 0 37.4 5.66
-1 0 0 32.23 4.3
-1 0 0 25.64 4.37
-1 0 0 25.1 4.26
-1 0 0 27.41 4.45
-1 0 0 39.42 5.47
-1 0 0 38.08 5.68
-1 0 0 41.32 5.42
-1 0 1 3967.63 303.68
-1 0 1 4025.03 302.63
-1 0 1 4038.54 301.88
-1 0 1 4022.26 301.71
-1 0 1 4027.05 301.95
-1 0 1 4063.12 302.12
-1 0 1 4178.68 302.75
-1 0 1 3944.03 302.14
-1 0 1 3762.54 299.45
-1 0 1 4052.4 302.13
-1 0 1 4235.44 302.49
-1 0 1 3992.12 303
-1 0 1 4128.96 302.45
-1 0 1 3867.38 302.19
-1 0 1 4012.51 301.79
-1 0 1 4153.17 302.69
-1 0 1 3980.67 301.8
-1 0 1 3749 301.53
-1 0 1 4090.36 302.41
-1 0 2 1045.75 78.4
-1 0 2 1028.61 78.02
-1 0 2 978.13 78.29
-1 0 2 1022.16 78.93
-1 0 2 1001.42 78.68
-1 0 2 899.45 76.34
-1 0 2 881.91 78.04
-1 0 2 963.78 76.65
-1 0 2 864.98 79.01
-1 0 2 903.32 78.36
-1 0 2 999.79 77.99
-1 0 2 1080.04 78.65
-1 0 2 966.2 77.72
-1 0 2 990.32 76.86
-1 0 2 1018.94 77.72
-1 0 3 1558.25 113.73
-1 0 3 1581.2 114.19
-1 0 3 1435.87 113.95
-1 0 3 1279.2 113.78
-1 0 3 1430.89 114.44
-1 0 3 1588.07 110.96
-1 0 3 1433.11 110.81
-1 0 3 1185.41 114.28
-1 0 3 1176 112.72
-1 0 3 1293.05 114.15
-1 0 3 1589.95 113.96
-1 0 3 1419.33 113.33
-1 0 3 1410.84 112.49
-1 0 3 1567.64 113.46
-1 0 4 92.95 12.67
-1 0 4 60.33 11.42
-1 0 4 51.65 10.56
-1 0 4 57.65 11.41
-1 0 4 61.64 8.17
-1 0 4 82.75 11.89
-1 0 4 79.76 11.91
-1 0 4 60.61 11.79
-1 0 4 43.03 10.23
-1 0 4 81.5 8.45
-1 0 4 56.45 11.23
-1 0 4 80.84 11.68
-1 0 4 59.07 9.86
-1 0 4 66.9 11.12
-1 0 5 384.33 33.58
-1 0 5 247.82 31.81
-1 0 5 345.23 27.46
-1 0 5 267.5 31.13
-1 0 5 243.39 31.7
-1 0 5 350.56 32.71
-1 0 5 346.15 33.35
-1 0 5 290.55 32.49
-1 0 5 271.76 31.26
-1 0 5 348.19 27.24
-1 0 5 337.71 33.65
-1 0 5 357.23 32.51
-1 0 5 293.08 30.77
-1 0 5 337.55 31.01
-1 0 6 235.91 24.11
-1 0 6 185.91 23.66
-1 0 6 157.27 22.87
-1 0 6 196.22 23.73
-1 0 6 139.05 21.18
-1 0 6 181.48 23.96
-1 0 6 177.42 21.1
-1 0 6 242.84 24.18
-1 0 6 244.29 23.59
-1 0 6 166.62 23.95
-1 0 6 211.05 24.98
-1 0 6 214.8 23.79
-1 0 7 951.8 90.16
-1 0 7 958.77 89.13
-1 0 7 912.7 90.25
-1 0 7 952.26 90.89
-1 0 7 1255.17 90.07
-1 0 7 1263.25 90.96
-1 0 7 1192.38 92.49
-1 0 7 1039.15 92.43
-1 0 8 921.56 82.67
-1 0 8 1052.39 83.06
-1 0 8 881.38 79.98
-1 0 8 821.52 80.84
-1 0 8 909.48 80.95
-1 0 8 974.06 83.72
-1 0 9 5.08 10.74
-1 0 9 27.2 11.14
-1 0 9 12.74 9.23
-1 0 9 24.28 11.48
-1 0 9 15.53 9.64
-1 0 9 5.25 10.54
-1 0 10 415.49 50.7
-1 0 10 627.79 54.21
-1 0 10 548.18 50.92
-1 0 10 475.53 50.95
-1 0 10 493.42 50.68
-1 0 10 487.75 52.72
-1 0 11 14.52 13.15
-1 0 11 15.43 12.38
-1 0 11 9.21 9.98
-1 0 11 21.85 13.94
-1 0 11 2.79 13.45
-1 0 12 135.25 25.22
-1 0 12 135.42 25.23
-1 0 12 129 23.65
-1 0 13 18.38 15.55
-1 0 13 2.57 12.59
-1 0 14 67.78 21.38
-1 0 14 53.19 16.93
-1 1 -14 15.29 18
-1 1 -14 7.88 20.33
-1 1 -14 -3.95 20.39
-1 1 -14 3.72 17.5
-1 1 -14 -7.36 17.34
-1 1 -13 351.56 46.08
-1 1 -13 298.58 45.18
-1 1 -13 225.94 41.82
-1 1 -13 346.38 45.11
-1 1 -13 397.65 46.69
-1 1 -12 117.36 25.59
-1 1 -12 139.31 27.38
-1 1 -12 89.57 23.7
-1 1 -12 110.85 28.96
-1 1 -12 126.46 27.59
-1 1 -11 76.58 20.85
-1 1 -11 75.82 22.3
-1 1 -11 95.38 21.62
-1 1 -11 67.52 19.47
-1 1 -11 50.48 21.36
-1 1 -11 62.5 20.85
-1 1 -10 -8.66 11.54
-1 1 -10 3.17 13.99
-1 1 -10 25.12 13.41
-1 1 -10 2.92 12.89
-1 1 -10 7.45 14.88
-1 1 -10 6.32 12.63
-1 1 -9 1048.08 89.27
-1 1 -9 1062.16 88.41
-1 1 -9 963.41 84.47
-1 1 -9 1011.8 85.15
-1 1 -9 886.46 86.46
-1 1 -9 1063.12 91.94
-1 1 -9 790.51 89.79
-1 1 -9 974.73 89.36
-1 1 -8 553.64 52.36
-1 1 -8 564.21 53.45
-1 1 -8 545.63 56.82
-1 1 -8 507.15 49.89
-1 1 -8 549.65 50.65
-1 1 -8 526.96 52.01
-1 1 -8 543.9 49.31
-1 1 -8 422.6 54.38
-1 1 -8 582.62 55.13
-1 1 -7 187.84 20.15
-1 1 -7 122.83 25.19
-1 1 -7 155.61 19.94
-1 1 -7 157.85 22.81
-1 1 -7 153.96 20.73
-1 1 -7 159.8 20.07
-1 1 -7 158.05 20.2
-1 1 -7 170.91 20.16
-1 1 -7 152.29 21.49
-1 1 -7 190.09 23.56
-1 1 -7 187.03 27.51
-1 1 -7 162.97 19.83
-1 1 -7 182.01 20.03
-1 1 -7 150.85 20.48
-1 1 -7 166.56 20.21
-1 1 -7 149.03 21.08
-1 1 -6 2510.44 171.86
-1 1 -6 2275.92 171.93
-1 1 -6 2112.76 173.24
-1 1 -6 2266.9 172.92
-1 1 -6 2006.49 172.21
-1 1 -6 2299.04 172.02
-1 1 -6 2223.07 171.07
-1 1 -6 2461.52 174.21
-1 1 -6 2316.46 175.71
-1 1 -6 2007.45 172.12
-1 1 -6 2259.07 172.04
-1 1 -6 2239.64 171.83
-1 1 -6 2213.78 174.97
-1 1 -6 2166.83 173.95
-1 1 -6 2101.57 170.06
-1 1 -6 1969.57 169.68
-1 1 -6 2016.77 171.93
-1 1 -6 2267.74 171.89
-1 1 -5 84.78 10.62
-1 1 -5 105.21 12.41
-1 1 -5 88.95 12.88
-1 1 -5 88.09 11.22
-1 1 -5 71.55 11.67
-1 1 -5 83.03 12.06
-1 1 -5 88.07 12.51
-1 1 -5 86.69 12.11
-1 1 -5 85.56 14.27
-1 1 -5 75.3 12.7
-1 1 -5 74.99 10.55
-1 1 -5 62.08 11.65
-1 1 -5 95.73 13.67
-1 1 -5 85.22 10.37
-1 1 -5 100.26 13.5
-1 1 -5 75.54 12.92
-1 1 -5 74.93 11.73
-1 1 -5 92.52 12.34
-1 1 -5 94.16 12.41
-1 1 -5 92 12.37
-1 1 -5 78.11 12.13
-1 1 -4 833.6 63.93
-1 1 -4 913.52 66.51
-1 1 -4 846.25 67.6
-1 1 -4 850.95 64.27
-1 1 -4 669.96 65.09
-1 1 -4 785.51 65.74
-1 1 -4 750.52 65.65
-1 1 -4 812.12 66.39
-1 1 -4 835.14 67.11
-1 1 -4 949.72 70.64
-1 1 -4 794.93 64.29
-1 1 -4 801.58 66.16
-1 1 -4 817.13 67.33
-1 1 -4 798.94 64.23
-1 1 -4 792.5 67.24
-1 1 -4 826.94 67.38
-1 1 -4 787.55 65.82
-1 1 -4 802.93 65.85
-1 1 -4 769.88 65.63
-1 1 -4 831.78 66.63
-1 1 -3 319.08 24.97
-1 1 -3 244.97 21.37
-1 1 -3 296.16 26.13
-1 1 -3 263 25.05
-1 1 -3 267.67 21.33
-1 1 -3 233.82 23.52
-1 1 -3 247.8 22.89
-1 1 -3 252.73 23.53
-1 1 -3 257.34 23.73
-1 1 -3 268.45 23.83
-1 1 -3 257.67 21.84
-1 1 -3 250.82 23.51
-1 1 -3 282.84 28.35
-1 1 -3 249.35 24.3
-1 1 -3 244.18 24.44
-1 1 -3 263.62 24.61
-1 1 -3 268.52 24.75
-1 1 -3 251.56 22.25
-1 1 -3 293 26
-1 1 -3 216.92 21.23
-1 1 -3 246.29 23.45
-1 1 -3 270.98 23.82
-1 1 -3 241.8 23.36
-1 1 -2 1151.08 78.14
-1 1 -2 1155.83 79.95
-1 1 -2 1021.9 78.58
-1 1 -2 898.78 76.57
-1 1 -2 1031.53 75.49
-1 1 -2 958.96 76.62
-1 1 -2 940.99 76.55
-1 1 -2 881.89 75.18
-1 1 -2 892.25 77.29
-1 1 -2 970.39 77.33
-1 1 -2 894.39 77.12
-1 1 -2 985.99 75.75
-1 1 -2 1004.82 77.68
-1 1 -2 986.32 74.81
-1 1 -2 991.4 78.87
-1 1 -2 947.69 76.58
-1 1 -2 965 76.64
-1 1 -2 963.38 76.67
-1 1 -2 938.12 76.57
-1 1 -1 2940.36 221.27
-1 1 -1 3419.58 223.48
-1 1 -1 2701.68 220.23
-1 1 -1 2816.09 222.15
-1 1 -1 2779.35 220.27
-1 1 -1 2679.56 220.24
-1 1 -1 2649.84 217.71
-1 1 -1 2833.61 220.75
-1 1 -1 3630.31 224.44
-1 1 -1 2902.16 220.83
-1 1 -1 2866.65 220.99
-1 1 -1 3008.08 219.8
-1 1 -1 2962.48 222.39
-1 1 -1 3020.01 220.57
-1 1 -1 2998 220.57
-1 1 -1 3123.22 220.72
-1 1 -1 3003.52 220.62
-1 1 0 4360.08 275.7
-1 1 0 3292.09 274.01
-1 1 0 3792.82 275.15
-1 1 0 3355.68 273.2
-1 1 0 3426.72 271.45
-1 1 0 3801.55 273.08
-1 1 0 3429.56 272.94
-1 1 0 3486.54 272.54
-1 1 0 3491.04 270.01
-1 1 0 3353.02 272.8
-1 1 0 4219.72 276.29
-1 1 0 3506.09 271.73
-1 1 0 3055.02 272.54
-1 1 0 3864.64 273.19
-1 1 0 3769.75 272.66
-1 1 0 3806.62 274.95
-1 1 0 3692.33 273.01
-1 1 0 3821.84 273.16
-1 1 0 3627.14 272.73
-1 1 0 3918.38 273.59
-1 1 1 120.2 12.99
-1 1 1 121.66 13.05
-1 1 1 116.83 12.92
-1 1 1 104.67 12.93
-1 1 1 123.12 12.36
-1 1 1 143.95 14.69
-1 1 1 128.52 12.99
-1 1 1 140.64 13.35
-1 1 1 126.79 13.14
-1 1 1 129.63 13.86
-1 1 1 106.06 12.75
-1 1 1 109.5 12.53
-1 1 1 130.83 13.38
-1 1 1 115.05 12.16
-1 1 1 125.41 14.61
-1 1 1 117.89 13.5
-1 1 2 1720.99 155.71
-1 1 2 2108.84 155.73
-1 1 2 2208.6 155.85
-1 1 2 1839.46 155.93
-1 1 2 2510.38 157.47
-1 1 2 1840.98 154.92
-1 1 2 1731.85 155
-1 1 2 2079.94 155.72
-1 1 2 2204.98 156.02
-1 1 2 2430.86 156.56
-1 1 2 1763.47 157.52
-1 1 2 1919.85 158.01
-1 1 2 1954.68 154.51
-1 1 2 1926.12 155.09
-1 1 2 2131.22 155.38
-1 1 2 2039.71 155.46
-1 1 3 598.28 52.17
-1 1 3 580.63 51.93
-1 1 3 644.12 51.7
-1 1 3 652.14 50.47
-1 1 3 664.95 51.91
-1 1 3 682.11 51.56
-1 1 3 486.43 54.01
-1 1 3 499.9 54.48
-1 1 3 727.83 51.82
-1 1 3 576.17 53.08
-1 1 3 674.33 52.76
-1 1 3 584.17 51.74
-1 1 3 604.78 52.05
-1 1 4 452.41 40.35
-1 1 4 418.2 39.95
-1 1 4 463.91 39.13
-1 1 4 381.99 38.77
-1 1 4 446.5 37.2
-1 1 4 444.2 39.19
-1 1 4 497.74 38.18
-1 1 4 425.88 36.1
-1 1 4 392.27 42.81
-1 1 4 543.27 38.52
-1 1 4 387.05 42.04
-1 1 4 392.14 40.72
-1 1 4 443.3 39.97
-1 1 4 482.46 40.3
-1 1 4 485.84 40.42
-1 1 5 2996.08 206.59
-1 1 5 2970.55 205.73
-1 1 5 2402.3 204.87
-1 1 5 2540.28 205.28
-1 1 5 2461 206.24
-1 1 5 2468.68 200.4
-1 1 5 2798.8 201.15
-1 1 5 2020.8 206.53
-1 1 5 2946.88 201.5
-1 1 5 2205.26 206.66
-1 1 5 2331.51 206.33
-1 1 5 2674.37 204.17
-1 1 5 2773.4 203.46
-1 1 5 2554.2 200.82
-1 1 5 2769.69 204.3
-1 1 5 2942.35 205.84
-1 1 6 178.99 20.31
-1 1 6 134.51 18.76
-1 1 6 122.54 18.65
-1 1 6 136.3 19.89
-1 1 6 161.1 14.86
-1 1 6 135.23 20.32
-1 1 6 138.32 18.07
-1 1 6 157.79 18.54
-1 1 6 163.1 17.7
-1 1 6 113.6 19.72
-1 1 6 124.45 21.08
-1 1 6 169 20.19
-1 1 7 469.64 47.08
-1 1 7 581.62 45.63
-1 1 7 521.39 43.3
-1 1 7 394 46.47
-1 1 7 394.85 45.75
-1 1 7 515.66 46.54
-1 1 7 434.18 47.28
-1 1 7 458.52 45.59
-1 1 8 14.23 9.97
-1 1 8 -1.96 7.86
-1 1 8 4.66 9.07
-1 1 8 9.88 10.67
-1 1 8 15.1 10.88
-1 1 8 14.07 9.39
-1 1 9 418.52 44.58
-1 1 9 317.99 41.55
-1 1 9 442.26 45.71
-1 1 9 376.34 43.75
-1 1 9 506.68 44.89
-1 1 10 2.7 10.82
-1 1 10 15.18 12.17
-1 1 10 2.82 11.6
-1 1 10 5.4 11.66
-1 1 10 16.13 11.7
-1 1 11 290.41 37.37
-1 1 11 287.07 36.47
-1 1 11 230.24 36.84
-1 1 11 328.89 39.37
-1 1 12 67.54 18.41
-1 1 12 49.01 15.41
-1 1 12 65.96 18.45
-1 1 12 54.77 18.42
-1 1 13 130.94 23
-1 1 13 116.7 23.67
-1 1 13 155.18 29.27
-1 1 14 40.97 16
-1 1 14 37.24 16.5
-1 2 -14 117.55 28.64
-1 2 -13 29.53 20.3
-1 2 -13 3.7 18.13
-1 2 -13 15.42 18.19
-1 2 -13 14.28 17.83
-1 2 -12 80.99 23.64
-1 2 -12 95.89 25.21
-1 2 -12 66.28 23.88
-1 2 -12 59.59 22.36
-1 2 -11 208.28 34.24
-1 2 -11 288.1 39.75
-1 2 -11 277.45 37.67
-1 2 -11 245.55 37.39
-1 2 -11 268.28 40.14
-1 2 -11 263.88 37.55
-1 2 -10 213.29 32.42
-1 2 -10 312.03 36.82
-1 2 -10 185.38 28.63
-1 2 -10 234.96 30.26
-1 2 -10 259.74 33.18
-1 2 -10 232.85 34.99
-1 2 -10 228.83 37.4
-1 2 -10 235.93 34.56
-1 2 -9 564.24 56.91
-1 2 -9 566.46 57.44
-1 2 -9 604.94 61.42
-1 2 -9 566.7 54.12
-1 2 -9 569.77 55.79
-1 2 -9 485.98 52.79
-1 2 -9 568.72 58.56
-1 2 -8 10.28 10.87
-1 2 -8 14.91 11.27
-1 2 -8 25.28 10.57
-1 2 -8 17.86 10.29
-1 2 -8 11.97 9.45
-1 2 -8 9.93 8.46
-1 2 -8 7.84 11.59
-1 2 -8 15.18 10.47
-1 2 -7 1053.28 94.1
-1 2 -7 1062.83 94.16
-1 2 -7 1142.15 96.6
-1 2 -7 1281.43 94.35
-1 2 -7 1066.59 94.45
-1 2 -6 43.4 10.56
-1 2 -6 30.3 9.7
-1 2 -6 19.32 8.17
-1 2 -6 37.53 10.27
-1 2 -6 12.06 7.63
-1 2 -6 32.66 10.5
-1 2 -5 267.52 27.81
-1 2 -5 285.48 26.32
-1 2 -5 320.55 29.96
-1 2 -5 261.3 27.03
-1 2 -5 303.86 28.62
-1 2 -5 259.28 27.58
-1 2 -5 276.03 28.61
-1 2 -5 288.61 30.34
-1 2 -5 287.19 29.72
-1 2 -5 284.79 29.52
-1 2 -5 264.35 29.2
-1 2 -5 281.43 26.79
-1 2 -5 272.89 29.09
-1 2 -5 276.33 28.09
-1 2 -5 261.37 27.76
-1 2 -5 286.56 29.05
-1 2 -5 217.3 26.75
-1 2 -4 11.31 7.11
-1 2 -4 -0.79 3.68
-1 2 -4 -1.46 6.88
-1 2 -4 1.85 3.9
-1 2 -4 6.69 5.57
-1 2 -4 3.77 3.9
-1 2 -4 1.18 5.11
-1 2 -4 3.53 4.09
-1 2 -4 7.18 5.05
-1 2 -4 3.84 5.26
-1 2 -4 1.99 2.11
-1 2 -4 7.39 5.81
-1 2 -4 6.34 6.16
-1 2 -4 5.64 6.1
-1 2 -4 8.76 5.51
-1 2 -4 8.99 4.43
-1 2 -4 8.47 4.95
-1 2 -4 8.83 6.51
-1 2 -4 5.9 5.34
-1 2 -4 7.12 5.37
-1 2 -4 7.11 5.59
-1 2 -4 5.19 5.61
-1 2 -3 1786.03 120.14
-1 2 -3 1468.29 115.04
-1 2 -3 1572.24 117.04
-1 2 -3 935.79 112.19
-1 2 -3 1476.32 113.63
-1 2 -3 1479.01 116.41
-1 2 -3 1600.62 117
-1 2 -3 1470.59 116.9
-1 2 -3 1542.27 116.68
-1 2 -3 1740.7 120.76
-1 2 -3 1569.62 117.25
-1 2 -3 1577.66 117.34
-1 2 -3 1609.89 115.1
-1 2 -3 1571.29 117.97
-1 2 -3 1393.06 115.02
-1 2 -3 1524.59 117.64
-1 2 -3 1507.02 113.95
-1 2 -3 1508.42 118.89
-1 2 -3 1556.49 116.77
-1 2 -3 1568.62 116.8
-1 2 -3 1567.4 117.51
-1 2 -3 1557.1 114.66
-1 2 -2 387.04 35.52
-1 2 -2 383.25 34.2
-1 2 -2 381.34 31.97
-1 2 -2 341.47 29.53
-1 2 -2 383.21 33.45
-1 2 -2 346.67 33.44
-1 2 -2 378.02 33.4
-1 2 -2 379.26 33.33
-1 2 -2 430.29 36.98
-1 2 -2 354.28 33.36
-1 2 -2 342.8 33.23
-1 2 -2 352.69 33.88
-1 2 -2 362.69 32.33
-1 2 -2 383.21 32.76
-1 2 -2 353.56 33.52
-1 2 -2 364.35 29.75
-1 2 -2 365.11 29.28
-1 2 -2 364.79 33.34
-1 2 -2 382.55 33.55
-1 2 -2 410.25 34.5
-1 2 -1 3539.91 255.61
-1 2 -1 3198.93 251.43
-1 2 -1 3022.89 253.69
-1 2 -1 3261.88 248.62
-1 2 -1 3478.63 253.2
-1 2 -1 3457.76 253.9
-1 2 -1 3426.37 253.15
-1 2 -1 3447.82 253.14
-1 2 -1 3107.76 252.62
-1 2 -1 3778.11 256.93
-1 2 -1 3074.46 252.65
-1 2 -1 3195.51 253.63
-1 2 -1 3462.86 253.02
-1 2 -1 3184.45 252.32
-1 2 -1 3315.02 249.71
-1 2 -1 3298.28 252.96
-1 2 -1 3327.55 252.97
-1 2 -1 3355.11 253.7
-1 2 0 1098.43 90.48
-1 2 0 1046.5 90.56
-1 2 0 1102.7 88.33
-1 2 0 1105.52 86
-1 2 0 1186.98 89.04
-1 2 0 1134.22 88.87
-1 2 0 1091 89.56
-1 2 0 1164.75 88.92
-1 2 0 1177.95 89.05
-1 2 0 1094.9 91.08
-1 2 0 1052.43 88.54
-1 2 0 1074.45 88.46
-1 2 0 1156.98 89.7
-1 2 0 1169.88 89.35
-1 2 0 1161.19 88.7
-1 2 0 1016.05 86.21
-1 2 0 1169.77 89.57
-1 2 0 1050.29 88.45
-1 2 0 1176.31 89.04
-1 2 1 188.26 19.29
-1 2 1 220.93 20.16
-1 2 1 211.17 21.75
-1 2 1 150.59 18.3
-1 2 1 175.25 19.21
-1 2 1 178.87 19.1
-1 2 1 199.1 19.83
-1 2 1 199.38 19.52
-1 2 1 161.6 19.5
-1 2 1 228.86 20.07
-1 2 1 210.02 21.45
-1 2 1 174.96 21.12
-1 2 1 199.2 19.69
-1 2 1 202.2 19.78
-1 2 1 171.69 16.48
-1 2 1 197.4 20.97
-1 2 1 216.03 18.72
-1 2 2 2169.67 148.51
-1 2 2 2021.55 147.95
-1 2 2 1876.39 147.64
-1 2 2 1815.5 149.04
-1 2 2 1637.68 147.06
-1 2 2 1818.61 147.87
-1 2 2 2130.59 148.35
-1 2 2 2032 148.06
-1 2 2 1811.81 148.56
-1 2 2 1971.25 147.41
-1 2 2 1690.91 145.82
-1 2 2 1959.35 148.1
-1 2 2 2045.59 148.02
-1 2 2 1997.96 147.51
-1 2 2 1830.77 147.19
-1 2 2 1924.36 148.81
-1 2 2 1880.13 151.54
-1 2 2 1620.98 149.11
-1 2 3 1.73 5.89
-1 2 3 1.09 4.81
-1 2 3 1.91 6.75
-1 2 3 1.67 3.62
-1 2 3 16.66 6.16
-1 2 3 1.3 4.42
-1 2 3 1.03 4.67
-1 2 3 5.57 2.61
-1 2 3 1.21 4.44
-1 2 3 2.25 4.38
-1 2 3 10.92 5.12
-1 2 3 2.26 4.77
-1 2 3 8.31 5.09
-1 2 3 6.83 4.51
-1 2 3 9.47 5.36
-1 2 3 5.09 5.17
-1 2 3 1.01 4.58
-1 2 4 744.17 63.8
-1 2 4 804.66 61.86
-1 2 4 645.47 57.35
-1 2 4 657.61 61.37
-1 2 4 820.64 62.27
-1 2 4 699.32 60.8
-1 2 4 842.16 59.99
-1 2 4 786.36 61.08
-1 2 4 719.19 60.6
-1 2 4 706.2 60.51
-1 2 4 703.1 57.24
-1 2 4 606.72 64.4
-1 2 4 777.84 61.25
-1 2 4 651.32 65.67
-1 2 4 761.7 61.41
-1 2 4 865.72 62.69
-1 2 5 115.7 15.09
-1 2 5 119.03 15.38
-1 2 5 96.19 15.02
-1 2 5 123.64 14.3
-1 2 5 100.68 14.09
-1 2 5 128.56 12.9
-1 2 5 116.3 14.14
-1 2 5 104.11 13.85
-1 2 5 132.29 14.29
-1 2 5 80.42 14.8
-1 2 5 128.25 15.4
-1 2 5 85.73 17.51
-1 2 5 104.17 13.53
-1 2 5 101.79 18.64
-1 2 5 84.44 15.66
-1 2 6 1155.2 88.37
-1 2 6 1212.19 89.16
-1 2 6 1130.69 89.67
-1 2 6 1270.26 86.82
-1 2 6 967.77 86.9
-1 2 6 1165.73 87.32
-1 2 6 1032.5 86.08
-1 2 6 1061.6 84.92
-1 2 6 1228.9 89.13
-1 2 6 937.24 89.36
-1 2 6 823.45 90.7
-1 2 6 877.69 91.75
-1 2 6 806.49 89.26
-1 2 7 9.29 7.16
-1 2 7 -2.58 9.12
-1 2 7 -2.6 9.16
-1 2 7 2.18 8.46
-1 2 7 -4.88 9.2
-1 2 7 5.48 7.71
-1 2 8 592.21 55.85
-1 2 8 630.66 54.31
-1 2 8 472.41 54.84
-1 2 8 532.61 56.29
-1 2 9 134.14 23.11
-1 2 9 143.16 21.68
-1 2 9 102.01 22.46
-1 2 9 153.51 23.98
-1 2 10 338.05 40.08
-1 2 10 314.38 36.63
-1 2 10 303.76 39.48
-1 2 10 324.56 39.49
-1 2 11 165.74 28.45
-1 2 11 245.35 29.15
-1 2 11 171.55 28.59
-1 2 11 157.42 27.07
-1 2 12 119.76 25.25
-1 2 12 92.13 21.39
-1 2 12 90.48 20.89
-1 2 12 120.66 22.51
-1 2 13 59.59 20.22
-1 2 13 94.47 21.66
-1 2 13 121.28 22.39
-1 2 14 21.46 15.11
-1 2 14 39.12 15.94
-1 3 -12 192.01 34.55
-1 3 -12 276.91 39.39
-1 3 -12 248.42 37.73
-1 3 -11 22.82 16.84
-1 3 -11 10.55 16.24
-1 3 -11 2.47 11.88
-1 3 -11 28.99 14.41
-1 3 -11 -3.63 16.41
-1 3 -10 214.11 32.28
-1 3 -10 142.83 25.36
-1 3 -10 213.46 28.71
-1 3 -9 11.29 10.42
-1 3 -9 -3.04 12.79
-1 3 -9 4.56 11.56
-1 3 -9 -2.33 10.74
-1 3 -8 364.59 41.06
-1 3 -8 426.58 44.73
-1 3 -8 402.4 40.28
-1 3 -8 369.2 40.99
-1 3 -7 -2.03 8.35
-1 3 -7 8.19 10.56
-1 3 -7 -2.21 8.07
-1 3 -7 14.99 11.53
-1 3 -6 1012.98 88.24
-1 3 -6 1013.6 86.67
-1 3 -6 951.21 85.94
-1 3 -6 1098.31 86.96
-1 3 -6 968.47 87.04
-1 3 -5 357.31 36.16
-1 3 -5 385.11 35.62
-1 3 -5 315.51 34.23
-1 3 -5 324.56 31.58
-1 3 -5 285.4 33.93
-1 3 -5 294.03 32.86
-1 3 -5 305.16 30.37
-1 3 -5 312.75 33.44
-1 3 -5 308.22 33.31
-1 3 -4 622.12 59.83
-1 3 -4 653.36 62.47
-1 3 -4 729.32 59.93
-1 3 -4 687.8 61.06
-1 3 -4 697.89 58.74
-1 3 -4 712.86 61.2
-1 3 -4 583.07 59.23
-1 3 -4 761.23 59.09
-1 3 -4 701.03 62.29
-1 3 -4 652.34 57.39
-1 3 -4 710.99 60.91
-1 3 -3 1021.84 85.22
-1 3 -3 980.83 79.04
-1 3 -3 1037.59 82.06
-1 3 -3 1025.69 82.74
-1 3 -3 994.15 82.6
-1 3 -3 957.49 83.04
-1 3 -3 973.52 82.25
-1 3 -3 942.51 81.97
-1 3 -3 981.87 85.95
-1 3 -3 935.18 81.92
-1 3 -3 1067.91 82.53
-1 3 -3 953.57 80.65
-1 3 -3 1103.04 84.57
-1 3 -3 987.2 81.45
-1 3 -3 935.75 82.79
-1 3 -3 966.25 82.16
-1 3 -3 1030.38 82.53
-1 3 -3 960.24 80.65
-1 3 -3 1066.24 83.92
-1 3 -2 141.19 20.91
-1 3 -2 172.87 17.2
-1 3 -2 163.32 20.04
-1 3 -2 173.76 20.01
-1 3 -2 169.29 20.42
-1 3 -2 163.45 19.75
-1 3 -2 184.86 20.33
-1 3 -2 160.45 19.09
-1 3 -2 182.61 20.17
-1 3 -2 172.73 23.37
-1 3 -2 159.49 18.86
-1 3 -2 188.3 21.13
-1 3 -2 172.81 19.3
-1 3 -2 188.88 20.6
-1 3 -2 167.11 16.32
-1 3 -2 179.91 20.09
-1 3 -2 194.3 20.7
-1 3 -2 172.23 20.62
-1 3 -1 701.22 61.19
-1 3 -1 680 54.34
-1 3 -1 388.99 56.09
-1 3 -1 690.82 55.93
-1 3 -1 725.46 59.69
-1 3 -1 676.74 58.4
-1 3 -1 692.39 59.79
-1 3 -1 754.61 59.12
-1 3 -1 761.23 59.19
-1 3 -1 698.96 58.16
-1 3 -1 734.52 58.7
-1 3 -1 789.79 63.59
-1 3 -1 700.61 58.43
-1 3 -1 668.27 59.34
-1 3 -1 738 58.69
-1 3 -1 672.9 55.26
-1 3 -1 792.97 59.46
-1 3 -1 741.43 59.11
-1 3 -1 670.85 59.3
-1 3 0 430.93 38.78
-1 3 0 404.51 39.79
-1 3 0 406.05 39.55
-1 3 0 326.59 38.02
-1 3 0 428.86 36.3
-1 3 0 409.11 34.9
-1 3 0 440.97 38.2
-1 3 0 405.52 38.87
-1 3 0 413.22 32.61
-1 3 0 354.51 36.81
-1 3 0 454.24 41.74
-1 3 0 374.76 36.81
-1 3 0 441.93 39.07
-1 3 0 424.26 38.37
-1 3 0 433.91 38.07
-1 3 0 350.53 34.96
-1 3 0 504.99 39.07
-1 3 0 482.42 38.76
-1 3 0 427.21 38
-1 3 0 500.74 39.03
-1 3 1 1080.09 87.31
-1 3 1 1096.98 89.14
-1 3 1 1053.08 89.71
-1 3 1 998.95 86.79
-1 3 1 897.82 88.37
-1 3 1 1151.68 85.56
-1 3 1 1183.47 87.49
-1 3 1 1045.47 88.28
-1 3 1 1096.84 86.9
-1 3 1 1013.43 81.58
-1 3 1 1050.01 87.16
-1 3 1 1010.12 86.31
-1 3 1 925.45 85.64
-1 3 1 1106.58 90.76
-1 3 1 1086.52 87.75
-1 3 1 1076.52 87.89
-1 3 1 1131.01 87.3
-1 3 1 974.82 84.87
-1 3 1 1216.14 87.79
-1 3 1 1172.24 87.55
-1 3 1 1210.05 87.73
-1 3 1 1194.53 87.64
-1 3 2 174.52 20.52
-1 3 2 166.79 21.13
-1 3 2 115.89 20.63
-1 3 2 142 21.57
-1 3 2 226.39 20.68
-1 3 2 195.72 20.28
-1 3 2 156.8 20.66
-1 3 2 203 20.18
-1 3 2 203.06 20.67
-1 3 2 239.7 21.45
-1 3 2 155.63 19.24
-1 3 2 156.4 21.44
-1 3 2 178.77 20.44
-1 3 2 161.39 19.46
-1 3 2 196.22 21.25
-1 3 2 200.29 20.74
-1 3 2 178.34 19.54
-1 3 2 201.63 20.59
-1 3 2 219.69 20.94
-1 3 3 877.31 66.81
-1 3 3 850.62 66.43
-1 3 3 785.6 67.11
-1 3 3 735.66 68.11
-1 3 3 689.45 65.6
-1 3 3 721.49 66
-1 3 3 842.9 66.55
-1 3 3 871.31 67.1
-1 3 3 736.73 68.75
-1 3 3 796.88 67.43
-1 3 3 742.1 70.89
-1 3 3 760.08 67.78
-1 3 3 989.45 67.16
-1 3 3 895.31 66.89
-1 3 3 818.41 65.9
-1 3 3 529.37 67.33
-1 3 3 748.9 66.35
-1 3 4 69.76 12.34
-1 3 4 29.46 10.9
-1 3 4 51.85 11.41
-1 3 4 55.84 11.22
-1 3 4 68.9 11.83
-1 3 4 36.16 9.98
-1 3 4 66.9 14.97
-1 3 4 55.43 11.06
-1 3 4 31.94 12.98
-1 3 4 74.32 11.59
-1 3 4 66.22 12.31
-1 3 4 39.26 9.16
-1 3 4 84.19 11.45
-1 3 4 82.56 11.85
-1 3 4 64.35 11.27
-1 3 4 58.65 10.92
-1 3 4 72.34 11.65
-1 3 5 1803.58 140.57
-1 3 5 1713.62 140.92
-1 3 5 1992.27 139.36
-1 3 5 2002.59 140.33
-1 3 5 1868.85 139.55
-1 3 5 1462.05 140.59
-1 3 5 1989.43 140.09
-1 3 5 1718.64 138.97
-1 3 5 1437.51 143.35
-1 3 5 1455.25 144.85
-1 3 5 1610.65 141.89
-1 3 6 57.95 10.73
-1 3 6 58.01 14.08
-1 3 6 42.95 13.05
-1 3 6 90.17 18.3
-1 3 6 30.98 13.55
-1 3 6 71.53 12.71
-1 3 6 60.33 12.78
-1 3 7 363.51 40.79
-1 3 7 355.78 42.46
-1 3 7 302.43 40.4
-1 3 7 455.03 40.1
-1 3 8 872.48 90.63
-1 3 8 1051.85 95.3
-1 3 8 924.35 92.77
-1 3 9 5.82 11.81
-1 3 9 60.05 15.38
-1 3 9 32.91 14.24
-1 3 9 46.97 17.32
-1 3 10 6.38 12.56
-1 3 10 27.78 14.08
-1 3 11 176.97 26.47
-1 3 11 194.14 30.91
-1 3 11 163.07 28.82
-1 3 12 249.28 30.02
-1 3 12 184.34 28.79
-1 3 13 -7.68 13.65
-1 3 13 -2.95 13.89
-1 3 13 -15.07 15.56
-1 4 -12 14.31 16.21
-1 4 -11 245.31 37.05
-1 4 -11 168.82 28.67
-1 4 -11 203.65 30.54
-1 4 -10 -13.96 17.09
-1 4 -10 -7.7 11.61
-1 4 -10 -12.55 12.96
-1 4 -10 4.79 13.35
-1 4 -9 276.55 32.12
-1 4 -9 257.33 33.24
-1 4 -9 309.33 38.83
-1 4 -9 210.58 31.38
-1 4 -8 319.84 36.45
-1 4 -8 352.54 40.27
-1 4 -8 264.81 35.3
-1 4 -7 146.13 22.47
-1 4 -7 97.23 20.05
-1 4 -7 141.18 23.77
-1 4 -7 131.83 22.3
-1 4 -6 274.14 34.96
-1 4 -6 311.61 35.48
-1 4 -6 355.23 37.82
-1 4 -6 307.07 35.36
-1 4 -5 232.36 28.6
-1 4 -5 230.06 28.91
-1 4 -5 218.44 28.36
-1 4 -5 245 29.43
-1 4 -5 248.6 30.96
-1 4 -4 280.58 34.61
-1 4 -4 275.79 32.09
-1 4 -4 277.45 32.14
-1 4 -4 303.46 33.17
-1 4 -4 323.53 33.37
-1 4 -4 285.39 29.83
-1 4 -3 67.02 14.59
-1 4 -3 97.18 15.9
-1 4 -3 65.25 13.48
-1 4 -3 53.67 16.02
-1 4 -3 85.7 13.15
-1 4 -2 835.7 69.87
-1 4 -2 736.35 66.52
-1 4 -2 807.52 67.74
-1 4 -2 827.19 69.8
-1 4 -2 779.87 66.71
-1 4 -2 723.63 71.78
-1 4 -1 35.46 10.04
-1 4 -1 33.3 10.13
-1 4 -1 11.63 8.51
-1 4 -1 27.26 10.18
-1 4 -1 43.56 12.64
-1 4 -1 22.91 7.65
-1 4 -1 27.97 10.34
-1 4 0 928.49 75.29
-1 4 0 813.54 73.96
-1 4 0 914.61 72.51
-1 4 0 796.83 70.87
-1 4 0 899.16 77.67
-1 4 0 810.02 73.24
-1 4 1 61.95 11.98
-1 4 1 72.85 13.46
-1 4 1 64.97 13.84
-1 4 1 65.95 11.27
-1 4 1 86.81 15.92
-1 4 1 92.62 12.03
-1 4 1 110.31 15.73
-1 4 1 101.09 17.62
-1 4 1 67.44 11.81
-1 4 1 75.53 12.05
-1 4 2 1759.29 141.04
-1 4 2 1862.1 141.71
-1 4 2 1901.99 145.51
-1 4 2 1951.99 139.73
-1 4 2 1754.73 142.21
-1 4 2 1609.96 137.98
-1 4 2 1806.09 139.4
-1 4 2 1636.4 138.39
-1 4 2 1675.37 143.63
-1 4 2 1679.44 143.32
-1 4 3 318.75 29.88
-1 4 3 283.54 33.45
-1 4 3 296.46 31.25
-1 4 3 275.83 28.29
-1 4 3 267.53 29.64
-1 4 3 245.66 32.48
-1 4 3 277.16 28.48
-1 4 3 263.84 31.67
-1 4 3 286.83 30.32
-1 4 4 121.07 23.13
-1 4 4 198.03 22.67
-1 4 4 191 22.29
-1 4 4 172.2 23.04
-1 4 4 162.76 25.02
-1 4 4 147.29 22.09
-1 4 4 160.07 22.33
-1 4 5 199.87 23.68
-1 4 5 226.7 23.97
-1 4 5 158.67 22
-1 4 5 158.02 23.69
-1 4 5 187.18 27.5
-1 4 5 167.86 22.21
-1 4 6 191.26 25.57
-1 4 6 204.66 25.24
-1 4 6 209.86 24.51
-1 4 6 148.69 27.24
-1 4 6 166.53 25.99
-1 4 6 172.62 24.57
-1 4 7 895.67 75.69
-1 4 7 974.44 74.64
-1 4 7 739.4 76.71
-1 4 7 628.23 73.52
-1 4 7 794.45 73.77
-1 4 8 169.08 26.44
-1 4 8 184.76 24.09
-1 4 8 146.89 27.29
-1 4 8 113.25 24.1
-1 4 8 155.64 25.02
-1 4 9 50.44 17.55
-1 4 9 180.53 23.26
-1 4 9 85.54 22.23
-1 4 9 99.02 21.78
-1 4 9 145.72 23.62
-1 4 10 -12.69 15.82
-1 4 10 9.81 11.55
-1 4 10 3.18 13.72
-1 4 10 -3.47 13.07
-1 4 10 18.56 15.95
-1 4 11 178.15 30.75
-1 4 11 256.62 33.8
-1 4 11 369.85 34.41
-1 4 12 12.69 14.96
-1 4 12 6.99 16.14
-1 4 12 7.81 12.52
-1 4 13 209.77 32.9
-1 5 -11 13.03 13.9
-1 5 -11 2.66 14.18
-1 5 -10 50.01 20.34
-1 5 -10 48.26 19.39
-1 5 -10 18.39 15.25
-1 5 -10 29.75 14.79
-1 5 -9 291.83 37.86
-1 5 -9 384.56 41.99
-1 5 -9 324.94 39.7
-1 5 -9 368.25 45.09
-1 5 -8 97.98 20.86
-1 5 -8 103.18 22.6
-1 5 -8 112.01 22.21
-1 5 -8 128.33 26.2
-1 5 -7 64.26 17.57
-1 5 -7 84.16 20.9
-1 5 -7 114.69 21.81
-1 5 -7 77.8 20.28
-1 5 -6 14.58 11.58
-1 5 -6 13.91 12.69
-1 5 -6 53.27 16.13
-1 5 -6 27.3 13.94
-1 5 -5 59.4 17.36
-1 5 -5 94.63 19.85
-1 5 -5 74.01 20.31
-1 5 -5 117.24 21.03
-1 5 -5 123.83 20.43
-1 5 -4 60.34 15.3
-1 5 -4 46.34 15.12
-1 5 -4 61.21 15.66
-1 5 -4 73.38 19.84
-1 5 -4 59.9 13.37
-1 5 -4 55.35 16.26
-1 5 -3 1880 154.93
-1 5 -3 1938.16 155.59
-1 5 -3 1952.81 155.37
-1 5 -3 1837.77 152.16
-1 5 -3 1890.05 159.14
-1 5 -2 222.93 31.74
-1 5 -2 255.77 29.8
-1 5 -2 234.06 29.05
-1 5 -1 125.26 24.35
-1 5 -1 165.46 23.11
-1 5 -1 156.02 21.69
-1 5 0 144.62 24.13
-1 5 0 103.67 18.65
-1 5 0 164.02 21.57
-1 5 1 331.59 35.16
-1 5 1 294.18 37.02
-1 5 1 305.53 36.06
-1 5 1 306.36 34.19
-1 5 1 303.28 33.51
-1 5 2 119.49 19.46
-1 5 2 132.34 20.52
-1 5 2 138.55 22.95
-1 5 2 148.92 22.64
-1 5 2 114.86 20.22
-1 5 2 106.06 17.88
-1 5 3 307.95 37.04
-1 5 3 282.55 38.15
-1 5 3 405.62 38.67
-1 5 3 367.78 41.28
-1 5 3 355.32 39.73
-1 5 3 397.57 37.89
-1 5 4 696.78 59.03
-1 5 4 568.05 62.17
-1 5 4 705.16 60.23
-1 5 4 635.87 61.11
-1 5 4 573.19 59.01
-1 5 4 595.03 61.98
-1 5 5 88.45 15.94
-1 5 5 61.97 17.43
-1 5 5 36.64 13.68
-1 5 5 37.94 13.56
-1 5 5 61.55 15.42
-1 5 5 30.3 15.03
-1 5 6 477.83 43.44
-1 5 6 280.79 41.34
-1 5 6 431.21 41.8
-1 5 6 354.77 39.81
-1 5 6 345.91 40.44
-1 5 6 361.6 44.58
-1 5 7 38.92 15.28
-1 5 7 67.19 16.13
-1 5 7 47.38 15.89
-1 5 7 34.32 18.63
-1 5 8 517.42 49.9
-1 5 8 491.18 47.18
-1 5 8 372.07 45.79
-1 5 8 350.7 48.27
-1 5 9 39.7 16.19
-1 5 9 62.55 16.41
-1 5 9 53.84 18.42
-1 5 9 43.61 18.49
-1 5 10 143.35 28.43
-1 5 10 173.27 31.17
-1 5 10 160.18 26.5
-1 5 11 17.11 15.67
-1 5 11 68.87 18.01
-1 5 11 22.2 19.58
-1 6 -9 54.2 18.19
-1 6 -9 61.62 22.27
-1 6 -9 33.72 16.92
-1 6 -9 90.65 21.43
-1 6 -8 144.05 27.33
-1 6 -8 135.29 25.24
-1 6 -8 65.92 20.8
-1 6 -7 7.95 15.01
-1 6 -7 12.52 15.35
-1 6 -7 27.39 16.14
-1 6 -7 8.34 13.9
-1 6 -6 241.49 33.93
-1 6 -6 280.44 36
-1 6 -6 216.28 33.12
-1 6 -6 293.9 35.46
-1 6 -5 15.82 13.01
-1 6 -5 23.84 15.06
-1 6 -5 29.09 14.62
-1 6 -4 281.49 34.07
-1 6 -4 252 36.68
-1 6 -4 271.72 34.33
-1 6 -4 240.65 33.18
-1 6 -3 89.97 19.77
-1 6 -3 95.55 20.23
-1 6 -3 94.14 19.83
-1 6 -3 74.03 21.71
-1 6 -3 70.5 16.6
-1 6 -2 167.41 24.94
-1 6 -2 149.41 24.48
-1 6 -2 148.94 28.47
-1 6 -2 184.61 24.44
-1 6 -1 184.33 30.7
-1 6 -1 190.26 27.49
-1 6 -1 197.61 26.62
-1 6 0 98.52 24.52
-1 6 0 114.64 20.68
-1 6 0 129.39 21.21
-1 6 1 174.36 25.81
-1 6 1 173.13 30
-1 6 1 207.01 27.51
-1 6 1 180.63 25.18
-1 6 2 174.69 24.93
-1 6 2 138.32 22.27
-1 6 2 162.98 24.42
-1 6 2 211.73 29.96
-1 6 2 134.92 24.16
-1 6 3 679.78 66.75
-1 6 3 750.84 65.77
-1 6 3 591.49 67.71
-1 6 3 808.62 68.1
-1 6 3 746.75 70.8
-1 6 3 669.02 67
-1 6 4 2.57 11.11
-1 6 4 2.2 10.37
-1 6 4 16.89 12.45
-1 6 4 -11.73 13.81
-1 6 4 -8.55 12.3
-1 6 4 -16.34 14.44
-1 6 5 401.84 43.36
-1 6 5 451.33 45.67
-1 6 5 463.03 43.93
-1 6 5 373.32 44.21
-1 6 6 30.14 14.96
-1 6 6 37.5 15.02
-1 6 6 37.7 15.55
-1 6 6 52.9 19.55
-1 6 6 -7.21 16.75
-1 6 7 145.66 25.07
-1 6 7 177.83 30.93
-1 6 7 189.26 27.18
-1 6 8 29.85 15.88
-1 6 8 47.12 20.37
-1 6 8 34 14.81
-1 6 9 87.71 21.9
-1 6 9 70.79 23.62
-1 6 9 133.77 23.14
-1 6 10 39.86 19.48
-1 6 10 98.22 21.52
-1 6 10 79.73 23.75
-1 7 -6 68.41 20.82
-1 7 -6 56.58 18.5
-1 7 -6 100.65 21.6
-1 7 -5 90.7 21.57
-1 7 -5 114.7 22.74
-1 7 -5 67.87 20.86
-1 7 -4 46.49 17.35
-1 7 -4 44.69 17.5
-1 7 -4 73.93 22.51
-1 7 -4 56.27 18.78
-1 7 -3 186.64 27.76
-1 7 -3 134.37 28.16
-1 7 -3 151.28 25.62
-1 7 -3 134.42 25.46
-1 7 -2 96.6 20.56
-1 7 -2 108.37 22.01
-1 7 -2 68.89 23
-1 7 -2 96.85 19.64
-1 7 -2 59.85 17.08
-1 7 -1 5.55 12.26
-1 7 -1 -7.37 17.7
-1 7 -1 -4.87 12.14
-1 7 -1 2.54 12.18
-1 7 0 509.6 50.88
-1 7 0 452.58 50.71
-1 7 0 480.77 56.67
-1 7 1 -7.37 12.48
-1 7 1 -14.33 17.86
-1 7 1 -5.43 13.53
-1 7 1 -5.56 12.29
-1 7 2 173.15 27.8
-1 7 2 188.96 31.22
-1 7 2 139.32 25.8
-1 7 3 10.24 20.08
-1 7 3 -8.11 14.62
-1 7 3 8.43 12.69
-1 7 4 125.15 23.32
-1 7 4 111.45 24.93
-1 7 4 165.01 26.6
-1 7 5 80.82 20.09
-1 7 5 66.62 20.73
-1 7 5 63.24 18.1
-1 7 5 67.54 20.09
-1 7 5 26 17.34
-1 7 6 234.55 34.02
-1 7 6 211.72 35.35
-1 7 6 304.77 36.19
-1 7 6 314.13 38.7
-1 7 7 104.54 23.63
-1 7 7 68.82 22.69
-1 7 8 33.89 15.48
-1 7 8 32.31 19.29
-1 8 -3 140.24 29.32
-1 8 -3 95 23.89
-1 8 -3 146.68 26.15
-1 8 -2 20.67 16.03
-1 8 -2 20.01 15.52
-1 8 -2 11.01 18.01
-1 8 -1 168.73 27.38
-1 8 -1 154.5 25.92
-1 8 -1 118.23 24.44
-1 8 -1 127.68 30.42
-1 8 0 26.44 20.54
-1 8 0 33.31 19.03
-1 8 0 35.24 17.25
-1 8 0 17.86 15.74
-1 8 1 111.36 24.73
-1 8 1 97.81 26.73
-1 8 1 77.66 21.64
-1 8 2 29.59 21.86
-1 8 2 59.84 19.54
-1 8 2 71.97 21.15
-1 8 3 141.34 29.92
-1 8 3 184.71 29.3
-1 8 3 130.02 26.34
-1 8 4 139.88 27.1
-1 8 4 158.79 30.46
-1 8 4 146.68 28.01
-1 8 5 61.44 22.29
-1 8 5 89.9 22.75
0 -8 -7 103.7 27.34
0 -8 -7 91.55 29.72
0 -8 -6 15.99 16.33
0 -8 -6 57.84 26.17
0 -8 -6 31.98 19.89
0 -8 -6 18.61 21.55
0 -8 -6 19.26 21.24
0 -8 -5 230.05 33.68
0 -8 -5 228.67 39.02
0 -8 -5 200.18 33.88
0 -8 -5 251.06 44.41
0 -8 -4 174.32 29.2
0 -8 -4 153.37 28.46
0 -8 -4 169.66 33
0 -8 -4 128.8 33.89
0 -8 -3 44.04 17.21
0 -8 -3 47.81 22.52
0 -8 -3 78.99 24.93
0 -8 -3 47.45 26.35
0 -8 -2 236.56 32.38
0 -8 -2 129.5 28.81
0 -8 -2 169.03 33.12
0 -8 -2 170.49 36.54
0 -8 -1 50.04 18.56
0 -8 -1 26.61 16.77
0 -8 -1 16.37 19.05
0 -8 -1 51.9 24.91
0 -8 0 39.27 16.84
0 -8 0 89.66 26.67
0 -8 0 51.93 21.98
0 -8 0 66.32 20.99
0 -8 0 45.56 17.22
0 -8 1 7.88 12.87
0 -8 1 -2.68 14.07
0 -8 1 8.27 14.46
0 -8 1 6 14.15
0 -8 1 25.78 21.42
0 -8 2 248.18 32.44
0 -8 2 220.01 30.06
0 -8 2 171.13 28.18
0 -8 2 216.8 30.16
0 -8 2 177.54 28.54
0 -8 3 -2.71 13.75
0 -8 3 11.07 13.8
0 -8 3 8.22 13.9
0 -8 3 5.48 15.5
0 -8 3 -2.75 13.48
0 -8 3 8.44 15.69
0 -8 4 138.55 25.56
0 -8 4 162.94 27.83
0 -8 4 137.33 26.31
0 -8 4 106.47 24.24
0 -8 4 112.75 23.78
0 -7 -9 208.54 36.21
0 -7 -9 143.46 36.25
0 -7 -8 162.61 29.5
0 -7 -8 168.27 33.95
0 -7 -8 119.19 33.04
0 -7 -7 47.36 19.45
0 -7 -7 65.7 25.02
0 -7 -7 35.96 20.92
0 -7 -6 31.96 16.81
0 -7 -6 35.52 17.36
0 -7 -6 47.88 20.95
0 -7 -6 42.13 22.92
0 -7 -6 11.08 16.85
0 -7 -5 252.07 33.04
0 -7 -5 172.19 33.15
0 -7 -5 230.84 33.51
0 -7 -5 279.13 41.89
0 -7 -5 183.24 33.06
0 -7 -4 136.96 24.24
0 -7 -4 114.61 25.6
0 -7 -4 114.93 23.13
0 -7 -4 117.48 24.73
0 -7 -4 186.69 35.48
0 -7 -4 117.46 25.12
0 -7 -3 539.12 53.93
0 -7 -3 463.01 52.59
0 -7 -3 422.71 48.44
0 -7 -3 442.86 48.88
0 -7 -3 371.25 54.06
0 -7 -2 89.76 19.37
0 -7 -2 76.31 21.07
0 -7 -2 126.18 26.76
0 -7 -2 73.56 25.26
0 -7 -2 74.3 18.51
0 -7 -1 213.54 28.73
0 -7 -1 269.14 38.42
0 -7 -1 178.07 36.26
0 -7 -1 227.35 29.65
0 -7 -1 251.28 34.48
0 -7 -1 261.36 31.65
0 -7 -1 191.4 28.59
0 -7 -1 218.59 29.7
0 -7 -1 213.31 28.75
0 -7 -1 232.19 29.55
0 -7 0 168.18 25.14
0 -7 0 191.98 26.73
0 -7 0 164.38 26.46
0 -7 0 158.99 24.4
0 -7 0 124.71 23.17
0 -7 0 151.33 23.92
0 -7 0 159.53 24.38
0 -7 1 385.86 42.61
0 -7 1 362.67 44.01
0 -7 1 431.4 43.78
0 -7 1 449.19 43.97
0 -7 1 296 40.32
0 -7 1 452 44.42
0 -7 1 394.83 42.89
0 -7 2 7.56 11.94
0 -7 2 12.09 10.52
0 -7 2 28.71 14.81
0 -7 2 19.89 12.67
0 -7 2 27.06 14.16
0 -7 2 24.76 13.86
0 -7 2 12.32 12.13
0 -7 3 205.82 27.93
0 -7 3 144.31 24.8
0 -7 3 129.01 24.31
0 -7 3 158.38 26.64
0 -7 3 217.28 29.05
0 -7 3 169.72 26.89
0 -7 4 26.92 14.32
0 -7 4 35.55 15
0 -7 4 15.87 13.64
0 -7 4 34.73 16.1
0 -7 4 46.09 15.35
0 -7 4 50.29 16.71
0 -7 4 26.58 15.42
0 -7 5 30.34 15.98
0 -7 5 15.19 13.49
0 -7 5 57.94 17.59
0 -7 5 35.55 15.42
0 -7 5 41.22 17.9
0 -7 5 24.61 14.3
0 -7 6 102.03 22.81
0 -7 6 118.65 22.98
0 -7 6 118.44 23.33
0 -7 6 84.42 22.36
0 -7 6 166.68 26.89
0 -7 6 106.86 22.66
0 -7 7 55.05 19.89
0 -7 7 51.64 16.85
0 -7 7 60.21 19.13
0 -7 7 40.49 18.1
0 -7 7 8.63 14.38
0 -7 7 40.33 16.76
0 -6 -11 55.79 22.83
0 -6 -11 96.24 29.61
0 -6 -10 184.34 31.95
0 -6 -10 167.04 36.03
0 -6 -9 178.13 30.35
0 -6 -9 217.75 33.5
0 -6 -9 127.65 31.77
0 -6 -8 261.37 35.81
0 -6 -8 224.93 31.9
0 -6 -8 192.57 33.91
0 -6 -8 219.88 36.69
0 -6 -7 76.48 18.84
0 -6 -7 83.95 20.95
0 -6 -7 114.51 26.86
0 -6 -7 77.34 23.1
0 -6 -6 774.47 71.85
0 -6 -6 679.72 73.39
0 -6 -6 744.79 72.37
0 -6 -6 908.34 80.56
0 -6 -6 716.72 75.06
0 -6 -5 14.87 11.25
0 -6 -5 27.16 13.33
0 -6 -5 12.45 14.4
0 -6 -5 29.05 14.28
0 -6 -5 -3.73 17.23
0 -6 -5 -3.17 13.72
0 -6 -4 425.42 43.64
0 -6 -4 367.29 40.71
0 -6 -4 362.45 43.26
0 -6 -4 305.2 39.96
0 -6 -4 431.4 49.69
0 -6 -4 356.27 42.91
0 -6 -3 12.38 11.66
0 -6 -3 2.91 12.54
0 -6 -3 7.17 12.13
0 -6 -3 5.6 9.46
0 -6 -3 -2.78 12.58
0 -6 -3 -3.81 13.91
0 -6 -3 15.7 13.28
0 -6 -3 1.89 9.93
0 -6 -3 3.82 8.63
0 -6 -3 1.89 9.09
0 -6 -3 -1.89 8.89
0 -6 -3 3.81 8.42
0 -6 -2 721.12 68.4
0 -6 -2 687.4 65.52
0 -6 -2 727.52 63.93
0 -6 -2 655.77 65.09
0 -6 -2 765.27 70.88
0 -6 -2 647.83 65.13
0 -6 -2 736.2 64.17
0 -6 -2 789.93 76.12
0 -6 -2 611.03 62.28
0 -6 -2 670.64 63.18
0 -6 -2 709.7 63.59
0 -6 -2 759.73 64.17
0 -6 -1 497.53 50.67
0 -6 -1 408.44 46.3
0 -6 -1 505.37 46.78
0 -6 -1 514.3 49.01
0 -6 -1 454.76 52.81
0 -6 -1 471.09 45.92
0 -6 -1 461.21 45.89
0 -6 -1 458.57 45.81
0 -6 -1 441.99 45.76
0 -6 -1 450.53 45.84
0 -6 0 330.37 37.21
0 -6 0 321.68 34.81
0 -6 0 317.81 34.38
0 -6 0 299.49 32.74
0 -6 0 313.61 34.25
0 -6 0 254.12 31.36
0 -6 0 299.9 33.58
0 -6 0 323.05 34.3
0 -6 0 298.65 33.67
0 -6 0 300.65 33.92
0 -6 1 40.82 13.02
0 -6 1 34.17 11.23
0 -6 1 21.11 11.15
0 -6 1 29.72 12.71
0 -6 1 37.99 12.8
0 -6 1 47.6 13.26
0 -6 1 36.37 13.53
0 -6 1 21.34 11.79
0 -6 1 26.44 10.94
0 -6 2 89.12 17.04
0 -6 2 61.93 14.65
0 -6 2 78.35 16.85
0 -6 2 79.25 17.48
0 -6 2 74.03 16.51
0 -6 2 67.11 16.37
0 -6 2 74.99 16.49
0 -6 2 71.08 16.33
0 -6 3 83.76 18.55
0 -6 3 97.18 18.34
0 -6 3 107.25 19.84
0 -6 3 121.99 20.9
0 -6 3 74.08 17.55
0 -6 3 101.4 20
0 -6 3 94.87 17.98
0 -6 3 97.43 18.05
0 -6 4 292.4 34.03
0 -6 4 322.17 35.7
0 -6 4 255.52 34.55
0 -6 4 338.88 37.3
0 -6 4 317.23 37.03
0 -6 4 293.95 35.31
0 -6 4 312.45 36.15
0 -6 4 298.99 35.83
0 -6 5 757.95 69.01
0 -6 5 700.59 69.29
0 -6 5 669.67 68.81
0 -6 5 759.37 70.77
0 -6 5 734.73 69.72
0 -6 5 762.46 70.04
0 -6 5 781.46 70.38
0 -6 6 -2.64 11.41
0 -6 6 10 11.8
0 -6 6 18.29 12.82
0 -6 6 13.08 12.35
0 -6 6 13.88 13.86
0 -6 6 13.13 12.4
0 -6 6 23.53 14.17
0 -6 7 73.16 18.72
0 -6 7 70.85 18.75
0 -6 7 77.98 19.38
0 -6 7 70.49 19.01
0 -6 7 70.48 20.63
0 -6 7 116.28 21.68
0 -6 7 87.07 19.59
0 -6 8 11.2 15.15
0 -6 8 -10.87 13.05
0 -6 8 5.5 12.16
0 -6 8 6.19 15.97
0 -6 8 -2.78 14.11
0 -6 8 16.81 15.16
0 -6 9 94.54 22.23
0 -6 9 64.44 19.95
0 -6 9 72.51 19.86
0 -6 9 88.04 21.73
0 -6 9 77.39 21.07
0 -6 9 89.86 23.97
0 -5 -12 104.39 28.9
0 -5 -12 108.05 29.54
0 -5 -11 417.75 55.8
0 -5 -11 560.78 60.45
0 -5 -10 86.18 22.97
0 -5 -10 73.29 24.29
0 -5 -9 443.06 51.71
0 -5 -9 445.18 51.08
0 -5 -9 559.17 58.31
0 -5 -8 19.18 12.67
0 -5 -8 2.84 10.71
0 -5 -8 20.81 16.59
0 -5 -8 7.02 15.88
0 -5 -7 564.29 58.67
0 -5 -7 654.72 61.77
0 -5 -7 656.56 61.19
0 -5 -7 684.22 65.1
0 -5 -7 581.47 63.74
0 -5 -6 39.56 12.72
0 -5 -6 48.48 12.59
0 -5 -6 42.85 17.16
0 -5 -6 40.11 16.28
0 -5 -6 53.99 14.47
0 -5 -6 60.52 15.85
0 -5 -6 38.99 12.71
0 -5 -5 613.3 62.36
0 -5 -5 756.46 63.66
0 -5 -5 750.79 69.63
0 -5 -5 598.85 66.08
0 -5 -5 641.8 61.63
0 -5 -5 739.56 66.65
0 -5 -5 734.86 65.01
0 -5 -4 189.96 23.52
0 -5 -4 217.83 27.99
0 -5 -4 210.83 26.3
0 -5 -4 159.14 24.04
0 -5 -4 229.88 26.71
0 -5 -4 214.5 31.25
0 -5 -4 195.83 23.38
0 -5 -4 143.81 25.99
0 -5 -4 195.86 23.43
0 -5 -4 193.92 23.51
0 -5 -4 208.2 23.71
0 -5 -4 181.92 22.85
0 -5 -3 374.3 39.83
0 -5 -3 319.45 36.62
0 -5 -3 364.53 37.48
0 -5 -3 429.62 40.5
0 -5 -3 338.91 38.67
0 -5 -3 318.4 34.34
0 -5 -3 445.2 44.97
0 -5 -3 334.2 34.61
0 -5 -3 312.69 34.21
0 -5 -3 352.54 35.09
0 -5 -3 324.25 34.51
0 -5 -2 120.84 18.75
0 -5 -2 137.1 21.68
0 -5 -2 137.42 17.92
0 -5 -2 103.88 18.87
0 -5 -2 134.14 17.76
0 -5 -2 119.73 19.23
0 -5 -2 141 20.87
0 -5 -2 119.72 17.47
0 -5 -2 84.67 15.57
0 -5 -2 87.18 15.7
0 -5 -1 699 57.8
0 -5 -1 673.27 60.95
0 -5 -1 655.43 58.96
0 -5 -1 588.08 56.8
0 -5 -1 678.22 59.67
0 -5 -1 617.86 58.62
0 -5 -1 597.35 56.74
0 -5 -1 629.37 57.19
0 -5 -1 635.67 57.31
0 -5 -1 648.88 57.4
0 -5 -1 610.4 56.99
0 -5 0 881.12 77.24
0 -5 0 1077.39 82.03
0 -5 0 877.78 77.92
0 -5 0 900.81 79.03
0 -5 0 879.28 77.4
0 -5 0 824.73 75.82
0 -5 0 872 76.92
0 -5 0 923 78.01
0 -5 0 865.35 77.22
0 -5 0 950.58 78.06
0 -5 0 930.64 77.83
0 -5 0 920.73 77.99
0 -5 1 152.86 20.06
0 -5 1 135.77 19.41
0 -5 1 135.91 21.17
0 -5 1 127.58 18.89
0 -5 1 139.73 18.62
0 -5 1 145.24 20.05
0 -5 1 123.76 18.95
0 -5 1 154.94 19.93
0 -5 1 143.65 19.67
0 -5 1 119.43 19.11
0 -5 1 171.11 20.99
0 -5 2 396.98 41.01
0 -5 2 404.95 41.49
0 -5 2 368.03 38.96
0 -5 2 415.57 42.09
0 -5 2 431 41.2
0 -5 2 444.9 41.5
0 -5 2 421.56 41.7
0 -5 2 470.72 42.88
0 -5 2 417.25 41.67
0 -5 2 404.98 41.47
0 -5 3 2.03 8.55
0 -5 3 9.35 7.91
0 -5 3 28.02 10.67
0 -5 3 -2 8.86
0 -5 3 20.16 10.05
0 -5 3 8.68 7.68
0 -5 3 -1.88 8.33
0 -5 3 1.97 7.89
0 -5 3 -2.02 8.74
0 -5 3 16.76 9.77
0 -5 4 767.96 68.43
0 -5 4 783.4 68.09
0 -5 4 715.1 69.6
0 -5 4 908.06 72.32
0 -5 4 791.18 69.98
0 -5 4 798.91 70.89
0 -5 4 772.04 70.48
0 -5 4 702.02 69.35
0 -5 4 797.47 70.86
0 -5 5 40.46 13.44
0 -5 5 80.26 17.21
0 -5 5 52.14 14.36
0 -5 5 32.27 12.92
0 -5 5 80.92 16.17
0 -5 5 94.87 17.58
0 -5 5 67.42 16.71
0 -5 6 308.57 36.24
0 -5 6 365.51 39.24
0 -5 6 251.66 34.33
0 -5 6 337.75 37.43
0 -5 6 358.95 37.59
0 -5 6 286.55 35.55
0 -5 6 302.09 36.1
0 -5 7 4.91 11.57
0 -5 7 2.77 11.07
0 -5 7 -2.52 10.87
0 -5 7 -4.9 10.83
0 -5 7 5 11.05
0 -5 7 5.03 11.84
0 -5 7 -2.51 10.81
0 -5 8 52.67 16.23
0 -5 8 49.23 16.35
0 -5 8 53.56 16.47
0 -5 8 60.18 17.22
0 -5 8 57.96 18.2
0 -5 8 62.32 18.16
0 -5 9 51.64 17.21
0 -5 9 73.79 18.77
0 -5 9 36.71 15.69
0 -5 9 62.99 18.27
0 -5 9 37.96 15.99
0 -5 9 53.19 18.79
0 -5 10 193.78 29.42
0 -5 10 185.95 28.95
0 -5 10 155.19 27.8
0 -5 10 190.24 29.68
0 -5 10 196.17 32.4
0 -5 11 120.51 24.35
0 -5 11 112.35 24.06
0 -5 11 126.95 24.73
0 -5 11 130.62 25.25
0 -5 11 151.47 30.22
0 -4 -13 59.66 25.62
0 -4 -13 63.49 25.94
0 -4 -12 551.07 64.44
0 -4 -12 477.8 61.15
0 -4 -12 632.02 63.6
0 -4 -11 -7.81 15.61
0 -4 -11 6.87 15.51
0 -4 -11 -6.97 16.42
0 -4 -11 -3.5 16.49
0 -4 -10 630.5 73.33
0 -4 -10 885.3 75.69
0 -4 -10 695.38 72.12
0 -4 -10 803.68 76.11
0 -4 -9 156.92 27.12
0 -4 -9 154.61 25.07
0 -4 -9 146.92 24.6
0 -4 -9 148.1 24.27
0 -4 -9 136.79 27.98
0 -4 -8 89.44 18.54
0 -4 -8 48.09 14.59
0 -4 -8 74.04 19.86
0 -4 -8 78.62 16.51
0 -4 -8 60.79 17
0 -4 -8 81.15 17.82
0 -4 -8 116.86 19
0 -4 -7 12.77 8.37
0 -4 -7 4.99 11.52
0 -4 -7 1.94 8.75
0 -4 -7 -2.9 13.36
0 -4 -7 2.02 9.13
0 -4 -7 6.6 9.49
0 -4 -7 -2.4 9.05
0 -4 -7 -2 8.65
0 -4 -6 1607.07 124.29
0 -4 -6 1509.22 123.45
0 -4 -6 1383.61 121.46
0 -4 -6 1673.38 123.9
0 -4 -6 1510.09 123.47
0 -4 -6 1478.21 121.39
0 -4 -6 1709.71 127.51
0 -4 -6 1487.17 127
0 -4 -6 1413.37 120.35
0 -4 -6 1646.65 121.48
0 -4 -6 1304.51 119.06
0 -4 -6 1489.47 120.14
0 -4 -6 1475.29 120
0 -4 -6 1432.19 119.69
0 -4 -6 1397.38 119.54
0 -4 -5 827.25 72.21
0 -4 -5 818.08 73.96
0 -4 -5 865.78 73.76
0 -4 -5 925.2 73.33
0 -4 -5 802.09 72.06
0 -4 -5 909.11 72.43
0 -4 -5 801.43 72.17
0 -4 -5 828.88 71.18
0 -4 -5 1033.69 79.2
0 -4 -5 911.94 70.77
0 -4 -5 799.61 75.83
0 -4 -5 784.92 69.97
0 -4 -5 776.1 69.87
0 -4 -5 862.01 70.78
0 -4 -5 816.63 70.33
0 -4 -5 696.6 69.21
0 -4 -4 711.78 59.05
0 -4 -4 710.26 60.62
0 -4 -4 640.01 51.73
0 -4 -4 582.13 57.6
0 -4 -4 505.92 51.45
0 -4 -4 560.81 52.92
0 -4 -4 655.33 55.1
0 -4 -4 645.39 56.83
0 -4 -4 597.32 54.84
0 -4 -4 577.18 53.93
0 -4 -4 657.28 55.1
0 -4 -4 590.3 52.37
0 -4 -4 561 52.05
0 -4 -4 570.57 52.38
0 -4 -4 552.05 51.99
0 -4 -3 1269.77 98.66
0 -4 -3 1120.31 93.27
0 -4 -3 1203.46 91.01
0 -4 -3 1171.97 97.42
0 -4 -3 994.54 92.08
0 -4 -3 1284.24 101.73
0 -4 -3 1041.58 92.4
0 -4 -3 1254.12 93.86
0 -4 -3 1148.02 92.63
0 -4 -3 1161.05 95.09
0 -4 -3 1161.17 97.11
0 -4 -3 1157.46 95.29
0 -4 -3 1046.78 94.08
0 -4 -3 1278.53 96.8
0 -4 -3 1134.48 92.85
0 -4 -3 1162.08 93.18
0 -4 -3 1023.2 92.28
0 -4 -3 1111.59 92.83
0 -4 -2 15.72 9.13
0 -4 -2 19.5 8.07
0 -4 -2 21.16 9.65
0 -4 -2 12.96 6.89
0 -4 -2 16.64 8.06
0 -4 -2 18.42 6.99
0 -4 -2 13.16 7.52
0 -4 -2 11.5 5.14
0 -4 -2 17.31 5.47
0 -4 -2 13.87 8.66
0 -4 -2 24.16 9.29
0 -4 -2 20.83 8.99
0 -4 -2 17.34 8.34
0 -4 -2 14.34 7.14
0 -4 -2 11.65 6.66
0 -4 -2 6.5 6.1
0 -4 -1 780.63 66.62
0 -4 -1 853.42 64.39
0 -4 -1 736.08 63.03
0 -4 -1 711.19 62.7
0 -4 -1 758.83 62.89
0 -4 -1 740 59.75
0 -4 -1 780.03 60.48
0 -4 -1 757.04 64.16
0 -4 -1 722.61 62.2
0 -4 -1 695.67 62.07
0 -4 -1 750.33 65.84
0 -4 -1 747.97 64.17
0 -4 -1 716.09 59.54
0 -4 -1 745.24 64.35
0 -4 -1 671.54 62.08
0 -4 -1 700.72 62.52
0 -4 -1 708.23 62.52
0 -4 -1 708.44 62.65
0 -4 0 131.83 19.83
0 -4 0 120.29 16.48
0 -4 0 123.71 17.09
0 -4 0 145.86 17.71
0 -4 0 130.03 17.31
0 -4 0 132.74 14.97
0 -4 0 144.78 18.18
0 -4 0 153.18 17.64
0 -4 0 138.91 16.74
0 -4 0 128.9 18.64
0 -4 0 141.28 17.75
0 -4 0 143.55 18.5
0 -4 0 129.28 17.39
0 -4 0 143.91 15.2
0 -4 0 141.8 16.91
0 -4 0 139.3 17.46
0 -4 0 128.6 17.28
0 -4 0 157.54 18.23
0 -4 1 1051.82 84.24
0 -4 1 893.18 79.87
0 -4 1 1000.7 82.61
0 -4 1 969.39 81.5
0 -4 1 992.29 82.48
0 -4 1 900.12 80.98
0 -4 1 1010.56 81.81
0 -4 1 1041.63 82.12
0 -4 1 1044.75 81.35
0 -4 1 927.95 83.15
0 -4 1 994.23 82.19
0 -4 1 950.51 80.71
0 -4 1 996.04 79.38
0 -4 1 902.13 81.66
0 -4 1 991.63 79.75
0 -4 1 967.17 80.71
0 -4 1 1110.37 80.89
0 -4 1 1007.24 82.58
0 -4 1 973.04 82.21
0 -4 1 984.65 82.31
0 -4 2 357.06 32.67
0 -4 2 266.19 30.75
0 -4 2 259.96 29.73
0 -4 2 302.63 30.13
0 -4 2 284.02 30.9
0 -4 2 307.65 29.16
0 -4 2 351.66 29.47
0 -4 2 296 29.62
0 -4 2 277.62 29.89
0 -4 2 285.9 30.66
0 -4 2 333.35 30.75
0 -4 2 309.65 31.91
0 -4 2 301.27 30.81
0 -4 2 305.59 28.89
0 -4 2 325.28 32.06
0 -4 2 320.42 31.81
0 -4 3 849.35 73.84
0 -4 3 903.16 72.93
0 -4 3 827.46 74.71
0 -4 3 863.67 72.06
0 -4 3 957.73 72.98
0 -4 3 852.31 75.24
0 -4 3 830.75 72.58
0 -4 3 856.11 74.07
0 -4 3 848.21 73.37
0 -4 3 877.9 75.17
0 -4 3 880.42 74.59
0 -4 3 873.15 75.29
0 -4 3 934.7 75.92
0 -4 3 855.14 74.95
0 -4 4 9.28 8.91
0 -4 4 2.38 6.04
0 -4 4 5.04 6.91
0 -4 4 3.65 6.87
0 -4 4 4.14 6.64
0 -4 4 13.12 7.52
0 -4 4 4.14 6.5
0 -4 4 1.82 6.87
0 -4 4 -1.75 7.37
0 -4 4 3.68 6.01
0 -4 4 1.82 6.65
0 -4 4 1.83 6.46
0 -4 5 619.16 56.36
0 -4 5 609.82 57.44
0 -4 5 639.21 56.86
0 -4 5 624.5 54.14
0 -4 5 543.17 55.54
0 -4 5 619.17 56.72
0 -4 5 616.07 56.5
0 -4 5 597.77 53.26
0 -4 5 601.86 56.12
0 -4 5 585.51 56.17
0 -4 6 143.32 21.05
0 -4 6 121.69 20.64
0 -4 6 144.58 22.3
0 -4 6 128.49 20.98
0 -4 6 132.3 21.14
0 -4 6 150.89 21.8
0 -4 6 134.52 21.22
0 -4 6 153.14 22.35
0 -4 7 112.21 19.41
0 -4 7 131.36 22.23
0 -4 7 116.23 20.51
0 -4 7 91.57 18.72
0 -4 7 126.86 20.44
0 -4 7 122.55 20.58
0 -4 7 105.16 19.55
0 -4 7 141.18 21.08
0 -4 8 698.36 62.38
0 -4 8 619.24 61.06
0 -4 8 589.14 59.96
0 -4 8 615.29 61.09
0 -4 8 631.87 61.4
0 -4 8 652.21 62.8
0 -4 8 627.46 63.14
0 -4 9 104.09 22.11
0 -4 9 111.61 21.48
0 -4 9 135.12 22.77
0 -4 9 102.91 21.22
0 -4 9 123.83 23.95
0 -4 9 157.13 26.09
0 -4 10 62.81 18.49
0 -4 10 92.42 19.77
0 -4 10 61.21 17.36
0 -4 10 56.41 17.13
0 -4 10 137.25 24.87
0 -4 10 74.45 20.79
0 -4 11 -2.83 13.36
0 -4 11 10.17 13.34
0 -4 11 -27.61 15.18
0 -4 11 -8.21 13.4
0 -4 11 10.03 17.54
0 -4 11 -3.12 16.9
0 -4 12 89.55 24.54
0 -4 12 103.09 26.2
0 -4 12 78.5 19.65
0 -4 12 61.08 19.29
0 -4 12 26.07 18.13
0 -3 -14 -4.59 22.49
0 -3 -14 23.06 19.43
0 -3 -14 4.52 20.88
0 -3 -13 300.17 45.94
0 -3 -13 286.58 45.66
0 -3 -13 326.49 47.28
0 -3 -12 12.06 18.55
0 -3 -12 4.14 17.44
0 -3 -12 -7.99 18.82
0 -3 -11 690.86 62.5
0 -3 -11 509.98 60.98
0 -3 -11 536.42 62.64
0 -3 -11 534.48 61.4
0 -3 -10 25.55 14.53
0 -3 -10 32.38 16.72
0 -3 -10 13.75 11.99
0 -3 -10 27.57 13.88
0 -3 -10 22.48 16.1
0 -3 -9 225.61 27.38
0 -3 -9 169.22 28.55
0 -3 -9 201.92 30.53
0 -3 -9 252.95 30.41
0 -3 -9 253.87 32.5
0 -3 -9 190.4 29.71
0 -3 -8 690.91 73.58
0 -3 -8 820.73 74.02
0 -3 -8 805.39 70.71
0 -3 -8 774.3 71
0 -3 -8 765.35 72.67
0 -3 -8 804.78 71.4
0 -3 -8 1021.69 74.45
0 -3 -8 690.45 71.61
0 -3 -8 890.34 76.13
0 -3 -7 910.68 76.88
0 -3 -7 836.38 75.93
0 -3 -7 978.45 79.25
0 -3 -7 877.22 75.74
0 -3 -7 878.27 74.07
0 -3 -7 968.13 78.54
0 -3 -7 845.3 74.34
0 -3 -7 768.71 76.32
0 -3 -7 943.18 80.93
0 -3 -7 893.72 74.87
0 -3 -7 880.77 74.81
0 -3 -7 826.13 74.29
0 -3 -7 910.5 79.69
0 -3 -7 925.41 78.29
0 -3 -7 878.43 75.62
0 -3 -6 1020.17 86.93
0 -3 -6 1024.27 85.37
0 -3 -6 949.62 82.74
0 -3 -6 984.2 82.97
0 -3 -6 915.13 83.51
0 -3 -6 1018.72 85.24
0 -3 -6 989.82 84.52
0 -3 -6 1126.95 87.4
0 -3 -6 1009.65 84.89
0 -3 -6 1072.32 87.39
0 -3 -6 1014.52 83.11
0 -3 -6 937 84.34
0 -3 -6 966.79 88.1
0 -3 -6 1125.87 83.72
0 -3 -6 984.94 83.01
0 -3 -6 1003.76 85.35
0 -3 -5 263.11 29.85
0 -3 -5 254.69 27.39
0 -3 -5 273.72 28.13
0 -3 -5 274.15 27.96
0 -3 -5 258.64 26.06
0 -3 -5 276.15 29.98
0 -3 -5 249.9 25.66
0 -3 -5 269.76 26.74
0 -3 -5 259.66 30.02
0 -3 -5 285.55 26.96
0 -3 -5 257.69 27.93
0 -3 -5 223.91 26.03
0 -3 -5 248.1 26.55
0 -3 -5 214.3 26.3
0 -3 -5 245.8 27.18
0 -3 -5 259.79 27.12
0 -3 -5 286.07 28.57
0 -3 -5 237.24 25.42
0 -3 -5 275.16 25.64
0 -3 -5 241.01 25.56
0 -3 -5 226.41 25.09
0 -3 -5 252.28 25.79
0 -3 -4 1156.92 97.78
0 -3 -4 1424.09 102.68
0 -3 -4 1315.85 99.48
0 -3 -4 1173.62 98.1
0 -3 -4 1406.32 103
0 -3 -4 1125.61 96.08
0 -3 -4 1172.05 100.94
0 -3 -4 1190.33 96.58
0 -3 -4 1235.91 96.59
0 -3 -4 1244.19 98.63
0 -3 -4 1178.76 97.04
0 -3 -4 1178.11 97.77
0 -3 -4 1206.34 99.18
0 -3 -4 1209.46 93.55
0 -3 -4 1193.59 98.45
0 -3 -4 1138.12 97.7
0 -3 -4 1311.6 98.15
0 -3 -4 1087.98 96.06
0 -3 -4 1196.02 96.65
0 -3 -4 1164.75 96.46
0 -3 -4 1226.05 96.79
0 -3 -3 506.48 43.7
0 -3 -3 414.11 39.02
0 -3 -3 436.48 39.62
0 -3 -3 473.24 41.05
0 -3 -3 470.35 38.13
0 -3 -3 465.86 42.74
0 -3 -3 421.6 38.6
0 -3 -3 525.58 44.88
0 -3 -3 467.22 38.56
0 -3 -3 402.27 38.67
0 -3 -3 394.67 38.13
0 -3 -3 458.73 40.31
0 -3 -3 514.27 42.4
0 -3 -3 459.92 36.34
0 -3 -3 440.68 40.38
0 -3 -3 425.13 39.75
0 -3 -3 455.34 40.28
0 -3 -3 395.21 38.33
0 -3 -3 379.96 38.19
0 -3 -3 432.05 38.86
0 -3 -3 386.82 38.22
0 -3 -2 1001.61 79.26
0 -3 -2 1183.95 84.66
0 -3 -2 984.43 81.09
0 -3 -2 1024.63 80.08
0 -3 -2 1162.79 78.12
0 -3 -2 882.36 78.9
0 -3 -2 958.08 79.61
0 -3 -2 914.21 76.99
0 -3 -2 902.73 78.37
0 -3 -2 1048.98 81.2
0 -3 -2 1154.69 83.14
0 -3 -2 953.36 80.65
0 -3 -2 903.53 80.05
0 -3 -2 1079.72 82.26
0 -3 -2 968.74 79.3
0 -3 -2 939.61 79.16
0 -3 -2 902.04 79.1
0 -3 -2 936.92 79.22
0 -3 -1 201.43 22.22
0 -3 -1 181.54 18.11
0 -3 -1 204.82 19.16
0 -3 -1 176.48 19.61
0 -3 -1 169.8 18.97
0 -3 -1 163.1 18.72
0 -3 -1 180.03 19.03
0 -3 -1 158.59 16.68
0 -3 -1 179.61 17.45
0 -3 -1 197.59 20.24
0 -3 -1 190.21 18.83
0 -3 -1 190.26 18.94
0 -3 -1 225.89 22.01
0 -3 -1 198.33 20.21
0 -3 -1 156.84 16.59
0 -3 -1 189.17 19.93
0 -3 -1 175.84 18.83
0 -3 -1 201.45 19.54
0 -3 -1 182.37 19.11
0 -3 -1 163.33 18.74
0 -3 0 2019.4 145.16
0 -3 0 1890.5 140.6
0 -3 0 1956.65 142.97
0 -3 0 1825.7 142.76
0 -3 0 1819.14 142.76
0 -3 0 1832.13 142.57
0 -3 0 1822.13 140.35
0 -3 0 1740.42 141.9
0 -3 0 1955.14 143.81
0 -3 0 1761.95 141.37
0 -3 0 1995.04 145.12
0 -3 0 1803.88 143.04
0 -3 0 1833.97 140.45
0 -3 0 1775.05 143.43
0 -3 0 1826.94 142.73
0 -3 0 1682.55 141.61
0 -3 0 1803.62 142.73
0 -3 0 1669.55 142.19
0 -3 0 1783.6 142.56
0 -3 1 77.08 10.82
0 -3 1 82.3 9.51
0 -3 1 85.79 12
0 -3 1 88.03 11.62
0 -3 1 86.7 11.84
0 -3 1 81.51 11.89
0 -3 1 107.59 12.43
0 -3 1 98.76 11.54
0 -3 1 74.15 11.18
0 -3 1 80.2 11.07
0 -3 1 88.14 11.89
0 -3 1 85.52 12.47
0 -3 1 80.44 10.2
0 -3 1 71.47 11.37
0 -3 1 73.67 10.57
0 -3 1 69.37 11.31
0 -3 1 88.94 12.21
0 -3 1 82.97 11.85
0 -3 1 106.6 13.24
0 -3 2 2122.41 157.13
0 -3 2 2104.1 159.42
0 -3 2 1935.6 158.74
0 -3 2 2090.94 159.98
0 -3 2 1956.32 158.23
0 -3 2 2084.35 158.49
0 -3 2 2126.26 159.45
0 -3 2 1923.07 158.17
0 -3 2 2080.69 159.6
0 -3 2 1894.79 158.07
0 -3 2 1989.93 157.27
0 -3 2 1989.95 159.55
0 -3 2 2123.94 157.82
0 -3 2 1918.65 157.56
0 -3 2 2088.36 159.77
0 -3 2 2070.6 159.78
0 -3 2 2089.5 159.93
0 -3 2 2068.42 159.13
0 -3 3 764.03 62.41
0 -3 3 787.53 66.09
0 -3 3 784 65.72
0 -3 3 849.96 67.03
0 -3 3 732.1 65
0 -3 3 765.57 66.13
0 -3 3 752.82 63.88
0 -3 3 780.8 64.95
0 -3 3 774.16 64.51
0 -3 3 750.64 65.14
0 -3 3 765.71 64.15
0 -3 3 816.31 64.42
0 -3 3 773.58 66.1
0 -3 3 750.93 64.13
0 -3 3 787.74 66.35
0 -3 3 783.87 66.41
0 -3 3 916.52 67.48
0 -3 3 753 61.61
0 -3 4 253.76 25.08
0 -3 4 224.39 25.89
0 -3 4 239.01 23.62
0 -3 4 221.96 24.53
0 -3 4 247.23 23.7
0 -3 4 240.32 24.09
0 -3 4 223.45 23.6
0 -3 4 239.99 25.57
0 -3 4 207.93 23.67
0 -3 4 264.56 26.24
0 -3 4 235.53 23.07
0 -3 4 260.6 26.92
0 -3 4 251.97 26.52
0 -3 4 222.46 25.13
0 -3 4 224.66 25.92
0 -3 4 220.42 21.63
0 -3 4 215.14 25.8
0 -3 4 214.8 25.55
0 -3 5 927.37 77.5
0 -3 5 883.33 72.99
0 -3 5 913.89 74.77
0 -3 5 882.12 76.51
0 -3 5 878.18 75.09
0 -3 5 875.28 76.86
0 -3 5 848.3 76.37
0 -3 5 933.53 77.5
0 -3 5 865.6 76.6
0 -3 5 968.47 78.53
0 -3 5 994.05 78.15
0 -3 5 850.83 72.52
0 -3 6 43.48 11.94
0 -3 6 57 13.61
0 -3 6 46.81 11.7
0 -3 6 33.08 10.1
0 -3 6 34.1 10.9
0 -3 6 56.73 12.38
0 -3 6 24.57 8.11
0 -3 6 31.99 10.69
0 -3 6 32.16 11.03
0 -3 6 32.04 11.14
0 -3 7 378.89 38.36
0 -3 7 338.8 37.79
0 -3 7 313.12 34.95
0 -3 7 337.56 36.33
0 -3 7 287.41 34.68
0 -3 7 347.43 36.81
0 -3 7 330.56 36.41
0 -3 8 120.91 20.86
0 -3 8 95.44 19.75
0 -3 8 73.65 15.91
0 -3 8 73.6 17.16
0 -3 8 83.3 17.37
0 -3 8 84.07 17.51
0 -3 9 248.04 33.8
0 -3 9 274.17 35.43
0 -3 9 232.79 30.28
0 -3 9 268.78 32.88
0 -3 9 256.39 32.14
0 -3 9 254.07 32.03
0 -3 10 -5.95 12.23
0 -3 10 18.61 16.54
0 -3 10 7.04 11.06
0 -3 10 15.98 13.52
0 -3 10 5.17 10.63
0 -3 10 10.25 12.78
0 -3 11 255 34.17
0 -3 11 236.28 33.56
0 -3 11 263.15 35
0 -3 11 312.5 39.1
0 -3 11 288.96 38.82
0 -3 12 8.34 13.5
0 -3 12 33.04 15.9
0 -3 12 26.04 14.3
0 -3 12 37.55 18.57
0 -3 12 42.78 19.21
0 -3 13 95.4 21.01
0 -3 13 72.52 21.55
0 -3 13 85.46 21.41
0 -3 13 152.2 28.66
0 -2 -14 380.1 54.01
0 -2 -14 334.58 49.08
0 -2 -14 340.28 51.72
0 -2 -13 104.68 29.94
0 -2 -13 75.54 24.16
0 -2 -13 79.43 27.58
0 -2 -13 134.97 27.19
0 -2 -12 146.73 32.59
0 -2 -12 112.3 29.52
0 -2 -12 115.05 27.83
0 -2 -12 175.44 29.06
0 -2 -11 140.74 30.9
0 -2 -11 174.9 33.33
0 -2 -11 242.06 35.2
0 -2 -11 235.28 31.87
0 -2 -10 219.96 28.94
0 -2 -10 138.29 28.59
0 -2 -10 213.54 32.72
0 -2 -10 201.79 27.66
0 -2 -10 234.43 33.51
0 -2 -10 186.75 27.18
0 -2 -10 186.89 28.77
0 -2 -9 1494.58 119
0 -2 -9 1301.4 120.04
0 -2 -9 1416.16 117.28
0 -2 -9 1336.79 120.93
0 -2 -9 1375.6 121.33
0 -2 -9 1334.33 116.59
0 -2 -9 1498.3 120.1
0 -2 -8 263.04 28.5
0 -2 -8 257.56 28.41
0 -2 -8 231.11 27.64
0 -2 -8 245.88 28.93
0 -2 -8 232.2 28.33
0 -2 -8 299.85 32.19
0 -2 -8 279.99 28.61
0 -2 -8 299.72 33.24
0 -2 -8 252.43 27.89
0 -2 -8 249.29 30.61
0 -2 -8 259.38 29.22
0 -2 -8 225.58 31.35
0 -2 -8 197.27 29.79
0 -2 -7 529.16 49.5
0 -2 -7 568.19 48.81
0 -2 -7 431.11 49.13
0 -2 -7 550.31 47.89
0 -2 -7 490.2 50.2
0 -2 -7 542.09 48.56
0 -2 -7 497.45 45.78
0 -2 -7 535.7 48.81
0 -2 -7 453.25 50.61
0 -2 -7 605.29 52.6
0 -2 -7 542.88 48.99
0 -2 -7 479.03 47.11
0 -2 -7 596.5 49.66
0 -2 -7 566.97 51.39
0 -2 -7 536.69 49.25
0 -2 -7 506.19 46.49
0 -2 -7 589.48 48.1
0 -2 -7 537.28 47.81
0 -2 -7 498.89 46.95
0 -2 -7 512.06 47.24
0 -2 -7 495.31 47.23
0 -2 -6 12.3 5.85
0 -2 -6 22.34 8.67
0 -2 -6 10.2 6.62
0 -2 -6 9.34 6.44
0 -2 -6 5.13 5.64
0 -2 -6 13.36 7.17
0 -2 -6 16.65 8.21
0 -2 -6 9.86 7.14
0 -2 -6 13.06 8.46
0 -2 -6 24.7 8.11
0 -2 -6 5.75 6.8
0 -2 -6 5.16 6.33
0 -2 -6 15.26 7.09
0 -2 -6 9.75 5.1
0 -2 -6 8.79 7.26
0 -2 -6 18.91 7.46
0 -2 -6 -1.48 5.8
0 -2 -6 13.85 6.83
0 -2 -6 6.25 6.5
0 -2 -6 8.19 6.86
0 -2 -6 11.31 6.43
0 -2 -6 17.63 6.78
0 -2 -6 16.01 6.61
0 -2 -6 11.04 6.28
0 -2 -5 943.96 76.76
0 -2 -5 922.28 77.4
0 -2 -5 1007.67 78.14
0 -2 -5 1057.64 78.86
0 -2 -5 814.89 76.41
0 -2 -5 928.92 75.25
0 -2 -5 900.58 79.08
0 -2 -5 920.69 75.6
0 -2 -5 1022.08 80.28
0 -2 -5 930.35 77.99
0 -2 -5 969.89 79.2
0 -2 -5 925.87 77.67
0 -2 -5 997.8 76.68
0 -2 -5 925.72 74.79
0 -2 -5 925.29 76.61
0 -2 -5 881.58 76.31
0 -2 -5 864.16 75.06
0 -2 -5 904.61 76.37
0 -2 -5 957.03 78.61
0 -2 -5 908.99 74.61
0 -2 -5 939.93 76.72
0 -2 -5 972.65 75.66
0 -2 -5 950.71 75.83
0 -2 -5 880.36 75.4
0 -2 -5 878.6 75.28
0 -2 -4 1.54 3.48
0 -2 -4 1.51 6.69
0 -2 -4 -4.89 5.28
0 -2 -4 -1.12 5.06
0 -2 -4 -7.08 5.33
0 -2 -4 -1.11 4.56
0 -2 -4 0.89 3.44
0 -2 -4 12.05 6.05
0 -2 -4 7.36 5.05
0 -2 -4 -1.49 5.61
0 -2 -4 1.76 3.99
0 -2 -4 0.95 4.21
0 -2 -4 7.62 4.48
0 -2 -4 4.79 4.24
0 -2 -4 4.31 5.08
0 -2 -4 -1.03 4.33
0 -2 -4 5.42 4
0 -2 -4 1.01 4.46
0 -2 -4 0.58 3.19
0 -2 -4 -1.24 4.36
0 -2 -4 6.48 4.44
0 -2 -4 8.86 4.34
0 -2 -4 0.81 3.91
0 -2 -4 0.87 4.03
0 -2 -4 1.75 3.95
0 -2 -3 4765.75 333.39
0 -2 -3 4397.67 330.48
0 -2 -3 4518.81 330.03
0 -2 -3 4638.53 331.08
0 -2 -3 4685.8 331.05
0 -2 -3 4672.38 332.69
0 -2 -3 4257.74 328.8
0 -2 -3 4074.59 328.77
0 -2 -3 4309.01 332.48
0 -2 -3 4034.65 328.56
0 -2 -3 4370.16 330.43
0 -2 -3 4575.66 329.7
0 -2 -3 4360.97 329.72
0 -2 -3 4352.34 330.27
0 -2 -3 4378.62 330.44
0 -2 -3 4234.23 326.7
0 -2 -3 4247.64 329.71
0 -2 -3 4296.96 329.4
0 -2 -3 4165.93 328.79
0 -2 -3 4120.45 328.66
0 -2 -3 4373.93 328.96
0 -2 -2 227.08 22.56
0 -2 -2 210.98 20.16
0 -2 -2 211.64 20.77
0 -2 -2 203.53 20.16
0 -2 -2 210.92 18.66
0 -2 -2 202.41 19.29
0 -2 -2 220.29 22.67
0 -2 -2 203.86 19.7
0 -2 -2 194.31 19.41
0 -2 -2 210.91 19.32
0 -2 -2 217.45 20.47
0 -2 -2 248.68 21.64
0 -2 -2 210.61 20.35
0 -2 -2 178.2 19.45
0 -2 -2 216.68 20.38
0 -2 -2 212.92 19.53
0 -2 -2 194.8 19.17
0 -2 -2 189.34 19.09
0 -2 -2 200.22 19.32
0 -2 -1 1412.43 105.57
0 -2 -1 1417.53 108.09
0 -2 -1 1384.71 105.65
0 -2 -1 1474.37 106.96
0 -2 -1 1484.32 104.14
0 -2 -1 1332.58 105.45
0 -2 -1 1421.99 106.02
0 -2 -1 1351.07 104.09
0 -2 -1 1283.64 104.51
0 -2 -1 1316.02 105.29
0 -2 -1 1358.56 106.61
0 -2 -1 1366.17 105.38
0 -2 -1 1412.7 107.33
0 -2 -1 1338.97 106.24
0 -2 -1 1341.48 106.12
0 -2 -1 1199.61 105.16
0 -2 -1 1358.99 105.52
0 -2 -1 1299.12 105.35
0 -2 -1 1324.25 105.47
0 -2 -1 1310.52 105.41
0 -2 0 2156.68 149.47
0 -2 0 1948.92 146.37
0 -2 0 2036.81 148.5
0 -2 0 1980.54 148.21
0 -2 0 1955.68 148.13
0 -2 0 1900.22 148
0 -2 0 1951.36 146.56
0 -2 0 1938.01 146.1
0 -2 0 1903.73 147.52
0 -2 0 1858.23 147.07
0 -2 0 2004.17 148.77
0 -2 0 1832 147.34
0 -2 0 1972.12 149.28
0 -2 0 2031.85 148.47
0 -2 0 1843.33 148.39
0 -2 0 1908.57 146.55
0 -2 0 1802.49 147.37
0 -2 0 1835.87 147.96
0 -2 0 1875.56 147.99
0 -2 0 1831.59 147.91
0 -2 1 320.36 26.34
0 -2 1 317.03 27.23
0 -2 1 284.71 26.68
0 -2 1 321.43 26.48
0 -2 1 313.22 26.99
0 -2 1 275.08 26.36
0 -2 1 309.21 26.67
0 -2 1 291.69 26.4
0 -2 1 311.61 27.38
0 -2 1 296.22 25.72
0 -2 1 284.4 26.82
0 -2 1 325.45 26.27
0 -2 1 255.46 25.53
0 -2 1 304.65 26.77
0 -2 1 290.95 26.7
0 -2 1 315.55 27.18
0 -2 1 284.87 26.73
0 -2 1 283.75 26.71
0 -2 1 332.36 27.05
0 -2 2 994.68 81.6
0 -2 2 972.69 80.77
0 -2 2 1068 80.72
0 -2 2 952.88 81.19
0 -2 2 1018.84 81
0 -2 2 1061.16 81.14
0 -2 2 1009.54 80.3
0 -2 2 969.53 80.12
0 -2 2 1091.42 81.99
0 -2 2 1054.96 80.57
0 -2 2 1003.51 80.31
0 -2 2 1028.69 79.39
0 -2 2 997.97 77.64
0 -2 2 1048.14 81.6
0 -2 2 1089.85 81.63
0 -2 2 997.8 81.51
0 -2 2 1045.42 81.78
0 -2 2 1072.7 81.93
0 -2 2 969.14 78.45
0 -2 3 535.24 47.81
0 -2 3 594.97 47.19
0 -2 3 546.78 47.12
0 -2 3 641.22 50.1
0 -2 3 496.56 49.87
0 -2 3 604.86 50.62
0 -2 3 551.25 50.49
0 -2 3 632.43 51.38
0 -2 3 558.99 50.17
0 -2 3 639 51.52
0 -2 3 601.06 48.71
0 -2 3 607.26 49.13
0 -2 3 670.64 49.45
0 -2 3 589.99 50.31
0 -2 3 655.68 50.12
0 -2 3 616.97 49.9
0 -2 3 557.57 50.41
0 -2 3 619.6 50.24
0 -2 3 591.85 50.94
0 -2 3 663.87 51.59
0 -2 3 636.4 49.64
0 -2 4 1461.15 112.65
0 -2 4 1469.06 113.4
0 -2 4 1255.46 111.19
0 -2 4 1501.44 109.08
0 -2 4 1434.8 115.14
0 -2 4 1389.77 114.31
0 -2 4 1357.16 114.8
0 -2 4 1303.12 115.21
0 -2 4 1496.6 111.61
0 -2 4 1500.28 115.06
0 -2 4 1397.76 111.75
0 -2 4 1345.7 114.67
0 -2 4 1488.76 113.98
0 -2 4 1547.35 114.1
0 -2 4 1584.15 115.43
0 -2 4 1509.19 115.45
0 -2 4 1531.78 115.19
0 -2 4 1391.69 115.12
0 -2 4 1340.77 114.59
0 -2 4 1319.07 114.54
0 -2 4 1463.27 113.25
0 -2 5 10.37 4.99
0 -2 5 13.26 6.52
0 -2 5 7.76 5.85
0 -2 5 9.84 7.25
0 -2 5 1.84 3.19
0 -2 5 1.38 5.96
0 -2 5 2.71 3.21
0 -2 5 1.17 4.81
0 -2 5 2.77 5.06
0 -2 5 5.98 6.17
0 -2 5 8.74 6.29
0 -2 5 5.36 5.06
0 -2 5 7.41 5.93
0 -2 5 2.99 5.47
0 -2 5 9.57 6.82
0 -2 5 2.11 4.97
0 -2 5 1.47 5.55
0 -2 5 4.44 5.92
0 -2 6 444.11 37.73
0 -2 6 422.01 39.89
0 -2 6 448.86 40.18
0 -2 6 331.45 37.29
0 -2 6 386.91 37.37
0 -2 6 376.99 38.68
0 -2 6 384.36 40.36
0 -2 6 477.63 39.97
0 -2 6 404.33 39.63
0 -2 6 347.57 38.63
0 -2 6 389.6 36.82
0 -2 6 405.25 37.05
0 -2 7 17.17 9.1
0 -2 7 40.44 12.12
0 -2 7 29.65 10.39
0 -2 7 33.64 11.61
0 -2 7 33.41 10.23
0 -2 7 39.68 9.77
0 -2 7 29.71 10.14
0 -2 8 923.34 80.77
0 -2 8 845.41 80.68
0 -2 8 1063.65 86.48
0 -2 8 931.62 82.94
0 -2 8 924.83 82.64
0 -2 8 935.71 82.57
0 -2 8 1027.79 81.1
0 -2 8 920.1 79.73
0 -2 9 39.55 12.83
0 -2 9 44.74 15.8
0 -2 9 52.91 14.74
0 -2 9 25.8 12.38
0 -2 9 20.96 13.06
0 -2 9 35.7 11.9
0 -2 10 320.26 37.12
0 -2 10 359.39 40.2
0 -2 10 386.64 37.95
0 -2 10 332.12 39.33
0 -2 10 287.32 37.51
0 -2 10 390.53 43.84
0 -2 11 353.34 41.96
0 -2 11 349.52 38.79
0 -2 11 279.6 38.99
0 -2 11 379.51 41.82
0 -2 12 5.5 12.43
0 -2 12 -2.73 12.86
0 -2 12 30.43 18.58
0 -2 12 17.33 14.41
0 -2 13 13.97 18.03
0 -2 13 6.92 16.3
0 -2 13 8.91 14.81
0 -2 14 101.13 23.82
0 -1 -14 130.04 35.58
0 -1 -14 189.95 34.57
0 -1 -14 221.16 38.92
0 -1 -14 211.33 34.6
0 -1 -13 51.84 23.71
0 -1 -13 30.44 22.04
0 -1 -13 62.66 21.25
0 -1 -13 69 22.4
0 -1 -12 284.29 45.36
0 -1 -12 233.87 43.39
0 -1 -12 260.08 40.33
0 -1 -12 391.86 42.68
0 -1 -12 378.9 42.48
0 -1 -11 37.49 19.42
0 -1 -11 17.37 15.1
0 -1 -11 3.03 13.49
0 -1 -11 23.5 18.9
0 -1 -11 45.09 16.88
0 -1 -11 36.42 17.48
0 -1 -10 474.18 54.27
0 -1 -10 481.69 51.62
0 -1 -10 413.59 50.69
0 -1 -10 437.63 53.61
0 -1 -10 552.36 52.74
0 -1 -10 510.01 51
0 -1 -9 46.44 14.38
0 -1 -9 91.3 18.72
0 -1 -9 50.73 13.09
0 -1 -9 86.78 15.68
0 -1 -9 70.22 14.63
0 -1 -9 34.36 14.13
0 -1 -9 69.25 17.13
0 -1 -9 73.05 18.64
0 -1 -9 102.2 21.21
0 -1 -9 98.96 16.8
0 -1 -8 887.07 81.75
0 -1 -8 864.13 82.01
0 -1 -8 920.85 80.09
0 -1 -8 931.12 84.02
0 -1 -8 1178.19 88.19
0 -1 -8 979.9 80.95
0 -1 -8 1008.51 87.92
0 -1 -8 849.12 81.42
0 -1 -8 1037.36 83.44
0 -1 -8 1123 87.09
0 -1 -8 992.07 87.32
0 -1 -8 1028.4 88.99
0 -1 -7 7.81 7.36
0 -1 -7 7.7 7.91
0 -1 -7 6.65 10.02
0 -1 -7 5.9 6.48
0 -1 -7 1.63 6.5
0 -1 -7 3.14 7.24
0 -1 -7 -3.79 8.19
0 -1 -7 11.01 9.28
0 -1 -7 2.32 7.86
0 -1 -7 4.87 7.01
0 -1 -7 8.03 7.57
0 -1 -7 4.14 6.89
0 -1 -7 -1.39 6.7
0 -1 -7 -4 7.06
0 -1 -7 3.58 7.54
0 -1 -7 2.42 5.59
0 -1 -7 9.01 6.97
0 -1 -7 7.41 6.48
0 -1 -7 -1.56 6.58
0 -1 -7 -1.54 6.66
0 -1 -6 2359.01 182.01
0 -1 -6 2296.18 184.71
0 -1 -6 2608.8 186.67
0 -1 -6 2095.94 180.41
0 -1 -6 2601.49 184.91
0 -1 -6 2227.64 185.97
0 -1 -6 2423.2 184.51
0 -1 -6 2160.54 183.01
0 -1 -6 2530.33 182.88
0 -1 -6 2645.21 185.24
0 -1 -6 2643.4 186.23
0 -1 -6 2315.7 186.77
0 -1 -6 2559.14 188.34
0 -1 -6 2560.4 184.71
0 -1 -6 2237.91 177.89
0 -1 -6 2231.32 181.93
0 -1 -6 2378.84 184.92
0 -1 -6 2414.3 186.42
0 -1 -6 2415.76 181.98
0 -1 -6 2075.65 181.38
0 -1 -6 2489.99 183.6
0 -1 -6 2498.03 183.7
0 -1 -6 2191.6 183.37
0 -1 -6 2264.85 183.29
0 -1 -5 1659.84 123.78
0 -1 -5 1736.25 128.16
0 -1 -5 1608.41 126.53
0 -1 -5 1655.59 126.94
0 -1 -5 1539.35 123.14
0 -1 -5 1699.35 126.09
0 -1 -5 1663.35 124.68
0 -1 -5 1579.84 127.21
0 -1 -5 1480.6 125.46
0 -1 -5 1580.98 125.05
0 -1 -5 1731.49 126.3
0 -1 -5 1763.52 126.6
0 -1 -5 1682.43 128.28
0 -1 -5 1756.4 128.61
0 -1 -5 1419.02 120.81
0 -1 -5 1711.55 125.87
0 -1 -5 1378.62 120.81
0 -1 -5 1587.2 124.07
0 -1 -5 1576.83 127.11
0 -1 -5 1700.56 123.93
0 -1 -5 1536.69 125.8
0 -1 -5 1583.48 123.86
0 -1 -5 1595.77 124.77
0 -1 -5 1597.7 124.73
0 -1 -5 1511.93 124.64
0 -1 -5 1650.94 125.45
0 -1 -4 670.71 53.81
0 -1 -4 694.81 57.7
0 -1 -4 565.77 55.41
0 -1 -4 655.71 56.11
0 -1 -4 647.72 54.15
0 -1 -4 738.24 56.33
0 -1 -4 614.89 55.94
0 -1 -4 716.44 55.49
0 -1 -4 671.51 55.02
0 -1 -4 646.6 55.95
0 -1 -4 662.4 55.75
0 -1 -4 745.5 55.84
0 -1 -4 579.73 56.04
0 -1 -4 710.15 56.88
0 -1 -4 679.41 55.37
0 -1 -4 644.05 52.52
0 -1 -4 685.63 52.86
0 -1 -4 669.59 54.57
0 -1 -4 669.62 56.97
0 -1 -4 684.06 55.94
0 -1 -4 721.12 54.45
0 -1 -4 675.61 54.98
0 -1 -4 705.29 55.15
0 -1 -4 631.78 54.72
0 -1 -4 601.08 54.61
0 -1 -3 1132.27 89.07
0 -1 -3 1139.99 90.12
0 -1 -3 1119.93 87.66
0 -1 -3 1070.39 88.51
0 -1 -3 1204.43 88.88
0 -1 -3 1043.26 86.76
0 -1 -3 1151.43 88.43
0 -1 -3 1056.77 88.67
0 -1 -3 1130.36 88.42
0 -1 -3 1063.61 87.23
0 -1 -3 1084.82 88.02
0 -1 -3 1115.47 86.61
0 -1 -3 1186.01 87.8
0 -1 -3 1136.11 89.12
0 -1 -3 1166.17 88.59
0 -1 -3 1098.99 86.36
0 -1 -3 1112.6 87.82
0 -1 -3 1156.73 86.69
0 -1 -3 1104.23 87.56
0 -1 -3 1140.56 89.15
0 -1 -3 1148.66 87.64
0 -1 -3 1222.2 87.31
0 -1 -3 1091.15 87.24
0 -1 -3 1056.45 87.27
0 -1 -3 1082.69 87.25
0 -1 -2 1588.62 123.31
0 -1 -2 1671.51 124.47
0 -1 -2 1623.84 122.84
0 -1 -2 1676.93 122.95
0 -1 -2 1676.42 123.22
0 -1 -2 1580.79 123.41
0 -1 -2 1592.31 122.35
0 -1 -2 1561.64 121.88
0 -1 -2 1427.13 123.25
0 -1 -2 1590.28 122.21
0 -1 -2 1585.32 121.59
0 -1 -2 1605.71 123.07
0 -1 -2 1619.14 122.44
0 -1 -2 1699.88 122.26
0 -1 -2 1630.89 122.13
0 -1 -2 1542.14 122.44
0 -1 -2 1576.34 122.43
0 -1 -2 1585.4 122.26
0 -1 -2 1596.83 121.07
0 -1 -2 1580.08 122.33
0 -1 -2 1668.85 123.21
0 -1 -2 1684.76 122.16
0 -1 -2 1532.51 121.76
0 -1 -2 1589.17 121.92
0 -1 -2 1556.57 121.86
0 -1 -2 1510.57 121.8
0 -1 -1 308.76 25.54
0 -1 -1 290.04 24.39
0 -1 -1 288.21 24.55
0 -1 -1 318.38 24.49
0 -1 -1 317.62 23.93
0 -1 -1 291.24 23.35
0 -1 -1 304 24.15
0 -1 -1 267.84 23.76
0 -1 -1 281.79 23.6
0 -1 -1 300.94 24.36
0 -1 -1 282.99 24.17
0 -1 -1 321.83 24.76
0 -1 -1 275.05 23.98
0 -1 -1 296.19 24.35
0 -1 -1 287.98 23.75
0 -1 -1 273.79 23.66
0 -1 -1 282.11 23.71
0 -1 -1 275.53 23.67
0 -1 0 152.9 13.52
0 -1 0 154.95 12.89
0 -1 0 154.56 13.42
0 -1 0 145.08 13.09
0 -1 0 145.94 13.08
0 -1 0 153.07 13.26
0 -1 0 154.02 12.78
0 -1 0 169.19 13.8
0 -1 0 156.29 12.97
0 -1 0 155.3 13.06
0 -1 0 149.37 13.78
0 -1 0 138.41 13.08
0 -1 0 143.14 12.5
0 -1 0 145.58 13.3
0 -1 0 122.43 12.64
0 -1 0 155.52 12.31
0 -1 0 150.62 13.12
0 -1 0 151.95 13.19
0 -1 0 142.29 13.06
0 -1 1 3686.75 258.91
0 -1 1 3295.5 258.6
0 -1 1 3297.04 258.84
0 -1 1 3331.64 258.81
0 -1 1 3556.27 258.98
0 -1 1 3545.18 258.54
0 -1 1 3566.55 258.73
0 -1 1 3158.32 258.91
0 -1 1 3706.28 258.83
0 -1 1 3275.17 258.4
0 -1 1 3295.47 258.55
0 -1 1 3648.38 258.26
0 -1 1 3596.52 259.15
0 -1 1 3158.68 258.83
0 -1 1 3274.39 259.03
0 -1 1 3303.28 259.04
0 -1 1 3387.03 259.12
0 -1 1 3609.54 259.28
0 -1 2 143.31 12.67
0 -1 2 132.81 11.32
0 -1 2 116.73 12.44
0 -1 2 131.46 13.62
0 -1 2 125.6 13.38
0 -1 2 130.85 13.58
0 -1 2 131.04 13.35
0 -1 2 125.37 13.42
0 -1 2 120.3 13.56
0 -1 2 144.79 12.39
0 -1 2 141.2 12.49
0 -1 2 126.74 12.3
0 -1 2 130.33 13.42
0 -1 2 123.31 13.13
0 -1 2 129.78 13.14
0 -1 2 169.49 14.19
0 -1 2 167.42 14.66
0 -1 2 136.78 13.71
0 -1 2 166.32 14.32
0 -1 2 143.28 13.02
0 -1 3 2454.79 200.68
0 -1 3 2309.47 200.33
0 -1 3 2767.04 198.44
0 -1 3 2485.14 202.02
0 -1 3 2809.25 202.42
0 -1 3 2654.13 202.3
0 -1 3 2610.89 202.24
0 -1 3 2608.53 201.75
0 -1 3 2684.62 199.13
0 -1 3 2512.51 199.19
0 -1 3 2746.14 202.37
0 -1 3 2769.36 201.61
0 -1 3 2956.43 204.19
0 -1 3 2453.78 201.48
0 -1 3 2814.88 201.91
0 -1 3 2654.56 202.34
0 -1 3 2454 201.94
0 -1 3 2747.99 201.25
0 -1 4 20.52 3.55
0 -1 4 29.69 7.08
0 -1 4 23.95 6.36
0 -1 4 39.34 7.31
0 -1 4 19.39 5.46
0 -1 4 22.36 6.04
0 -1 4 17.7 3.43
0 -1 4 33.77 7.23
0 -1 4 22.67 3.48
0 -1 4 25.85 6.08
0 -1 4 24.06 6.38
0 -1 4 35.63 6.81
0 -1 4 32.36 7.91
0 -1 4 10.93 5.33
0 -1 4 24.21 6.45
0 -1 4 30.76 6.16
0 -1 5 1681.34 125.73
0 -1 5 1582.24 120.76
0 -1 5 1709.89 127.3
0 -1 5 1522.8 125.64
0 -1 5 1553.55 126.02
0 -1 5 1528.73 125.3
0 -1 5 1686.82 126.05
0 -1 5 1598.3 121.78
0 -1 5 1801.09 127.48
0 -1 5 1536.03 127.11
0 -1 5 1540.19 126.18
0 -1 5 1481.33 126.53
0 -1 5 1497.73 126.6
0 -1 6 730.15 61.08
0 -1 6 590.83 58.4
0 -1 6 648.69 59.25
0 -1 6 638.48 58.5
0 -1 6 706.51 61.12
0 -1 6 723.61 60.32
0 -1 6 634.51 60.05
0 -1 6 608.45 59.8
0 -1 6 781.63 60.62
0 -1 6 670.33 59.12
0 -1 6 749.16 60.01
0 -1 6 827.79 59.82
0 -1 7 369.79 40.93
0 -1 7 574.78 43.39
0 -1 7 378.73 39.85
0 -1 7 528.58 42.63
0 -1 7 381.94 41.27
0 -1 7 383.01 41.01
0 -1 7 354.19 39.17
0 -1 7 482.45 41.24
0 -1 8 117.51 18.25
0 -1 8 104.13 19.17
0 -1 8 126.25 19.28
0 -1 8 117.51 17.93
0 -1 8 136.17 18.48
0 -1 8 96.66 17.56
0 -1 9 227.4 28.64
0 -1 9 223 29.66
0 -1 9 221.93 29.55
0 -1 9 245.43 29.89
0 -1 9 289.56 30.03
0 -1 9 234.28 28.18
0 -1 10 381.94 42.83
0 -1 10 335.94 41.24
0 -1 10 355.74 41.36
0 -1 10 426.79 41.58
0 -1 10 427.93 41.75
0 -1 11 71.55 18.69
0 -1 11 80.01 18.78
0 -1 11 49.32 17.05
0 -1 11 95.56 18.37
0 -1 11 96.74 18.29
0 -1 12 68.88 19.03
0 -1 12 50.92 15.76
0 -1 13 35.43 16.1
0 -1 13 19.88 14.38
0 -1 14 198.51 33.91
0 -1 14 152.75 25.77
0 -1 14 134.45 26.71
0 0 -14 21.39 20.6
0 0 -14 10.68 17.48
0 0 -14 36.46 21.76
0 0 -14 12.86 19.41
0 0 -13 241.48 41.91
0 0 -13 283.97 39.7
0 0 -13 258.2 38.51
0 0 -13 268.18 44.12
0 0 -12 16.01 19.31
0 0 -12 22.43 15.2
0 0 -12 56.4 20.09
0 0 -12 20.51 17.43
0 0 -12 23.87 16.48
0 0 -12 12.36 19.5
0 0 -11 625.11 71.38
0 0 -11 728.95 69.1
0 0 -11 782.86 70.79
0 0 -11 716.11 71.09
0 0 -11 592.69 67.59
0 0 -11 700.48 74.98
0 0 -10 43.28 14.16
0 0 -10 73.79 18.52
0 0 -10 57.46 17.46
0 0 -10 24.02 17.14
0 0 -10 48.73 19.42
0 0 -10 82.73 18.98
0 0 -10 40.46 20.19
0 0 -10 26.04 12.4
0 0 -10 48.52 14.35
0 0 -9 569.12 55.41
0 0 -9 604.63 56.86
0 0 -9 540.06 53.51
0 0 -9 472.19 51.67
0 0 -9 564.84 58.66
0 0 -9 564.61 53.27
0 0 -9 541.34 57.8
0 0 -9 636.79 58.14
0 0 -9 528.41 60.23
0 0 -8 102.91 20.83
0 0 -8 108.48 19.08
0 0 -8 97.17 16.51
0 0 -8 77.19 15.14
0 0 -8 72.33 15.3
0 0 -8 75.47 15.24
0 0 -8 82.01 16.11
0 0 -8 133.74 17.83
0 0 -8 103.34 17.88
0 0 -8 109.7 18.55
0 0 -8 93.69 16.73
0 0 -8 107.39 16.5
0 0 -8 90.8 14.75
0 0 -8 96.01 14.5
0 0 -7 716.95 62.58
0 0 -7 747.32 65.45
0 0 -7 741.97 60.28
0 0 -7 635.81 61.39
0 0 -7 785.91 63.55
0 0 -7 826.9 62.77
0 0 -7 701.43 66.49
0 0 -7 741.39 65.26
0 0 -7 586.56 61.2
0 0 -7 735.31 62.05
0 0 -7 725.37 61.76
0 0 -7 700.02 64.18
0 0 -7 682.41 63.2
0 0 -7 713.37 60.41
0 0 -7 624.1 61.29
0 0 -7 689.15 60.43
0 0 -7 669.1 58.77
0 0 -7 780.04 62.27
0 0 -7 627.04 61.24
0 0 -6 1846.53 165.2
0 0 -6 2422.13 170.09
0 0 -6 2366.14 165.71
0 0 -6 2085.01 163.78
0 0 -6 2009.28 165.82
0 0 -6 2284.67 167.26
0 0 -6 2485.68 166.98
0 0 -6 2142.98 170.52
0 0 -6 1904.46 165.74
0 0 -6 2458.7 167.02
0 0 -6 2227.36 166.12
0 0 -6 2087.82 167.84
0 0 -6 1906.66 166.23
0 0 -6 2232.66 164.84
0 0 -6 1793.65 165.52
0 0 -6 1939.51 162.7
0 0 -6 1876.88 163.92
0 0 -6 2019.05 165.66
0 0 -6 2311.31 166.48
0 0 -5 565.19 56.47
0 0 -5 788.31 60.92
0 0 -5 742.75 57.15
0 0 -5 695.07 55.81
0 0 -5 605.06 57.17
0 0 -5 651.16 57.75
0 0 -5 801.87 58.43
0 0 -5 681.63 60.97
0 0 -5 730.12 58.57
0 0 -5 761.03 58.01
0 0 -5 631.33 56.92
0 0 -5 709.88 58.53
0 0 -5 670.54 58.85
0 0 -5 669.81 56.33
0 0 -5 643.47 57.79
0 0 -5 663.68 55.05
0 0 -5 594.61 55.81
0 0 -5 638.4 57.35
0 0 -4 339.2 28.39
0 0 -4 439.16 35.26
0 0 -4 433.65 32.57
0 0 -4 341.88 32.21
0 0 -4 364.55 30.86
0 0 -4 369.94 32.81
0 0 -4 381.42 32.59
0 0 -4 363.18 32.35
0 0 -4 349.31 32.52
0 0 -4 362.12 32.35
0 0 -4 359.87 32.27
0 0 -4 336.07 32.39
0 0 -4 327.63 32.87
0 0 -4 366.38 31.55
0 0 -4 388.05 32.95
0 0 -4 313.49 30.99
0 0 -4 382.37 32.63
0 0 -4 332.82 30.09
0 0 -4 321.67 31.92
0 0 -3 239.97 19.98
0 0 -3 302.78 25.18
0 0 -3 316.73 23.25
0 0 -3 237.9 22.69
0 0 -3 211.51 21.22
0 0 -3 234.55 22.82
0 0 -3 239.13 22.62
0 0 -3 230.67 22.79
0 0 -3 246.91 22.74
0 0 -3 246.87 22.76
0 0 -3 205.49 22.26
0 0 -3 246.95 23.43
0 0 -3 254.99 22.32
0 0 -3 273.63 23.4
0 0 -3 272.26 21.48
0 0 -3 266.42 22.39
0 0 -3 284.05 23.18
0 0 -3 227.32 22.57
0 0 -2 108.19 10.44
0 0 -2 104.31 9.2
0 0 -2 89.07 9.03
0 0 -2 74.15 7.95
0 0 -2 83.52 8.94
0 0 -2 85.82 9.11
0 0 -2 85.52 9
0 0 -2 70.09 8.8
0 0 -2 69.68 8.55
0 0 -2 81.53 8.51
0 0 -2 70.53 8.73
0 0 -2 89.58 9.18
0 0 -2 69.18 8.52
0 0 -2 83.54 8.13
0 0 -2 81.96 8.45
0 0 -2 94.73 8.14
0 0 -2 93.77 8.98
0 0 -1 375.73 30.63
0 0 -1 383.86 30.83
0 0 -1 415.99 30.9
0 0 -1 405.61 30.77
0 0 -1 398.21 30.76
0 0 -1 367.34 30.59
0 0 1 474.83 33.25
0 0 1 404.31 32.38
0 0 1 392.12 32.31
0 0 1 405.64 32.5
0 0 2 76.98 8.34
0 0 2 80.05 9.36
0 0 2 69.08 7.59
0 0 2 84.03 8.79
0 0 2 77.83 7.57
0 0 2 69.55 8.35
0 0 2 79.85 8.5
0 0 2 81.16 7.93
0 0 2 75.49 8.57
0 0 2 79.38 8.71
0 0 2 85.89 8.79
0 0 2 73.08 8.51
0 0 2 71.37 8.09
0 0 2 74.94 8.3
0 0 2 63.39 8.45
0 0 2 86.26 8.23
0 0 2 87.89 8.4
0 0 2 89.17 7.65
0 0 2 76.95 8.46
0 0 3 228.36 22.78
0 0 3 279.77 19.04
0 0 3 230.07 20.07
0 0 3 244.9 21.6
0 0 3 210.55 19.61
0 0 3 199.95 21.16
0 0 3 219.77 21.28
0 0 3 218.59 20.18
0 0 3 225.29 21.6
0 0 3 203.48 21.27
0 0 3 215.37 21.5
0 0 3 208.74 21.22
0 0 3 241.04 21.21
0 0 3 204.64 20.75
0 0 3 181.8 21.01
0 0 3 264.23 21.11
0 0 3 252.44 19.88
0 0 3 230.82 21.02
0 0 3 244.2 21.46
0 0 4 200.02 28.33
0 0 4 335.1 27.42
0 0 4 343.67 29.77
0 0 4 322.66 29.43
0 0 4 306.6 29.09
0 0 4 318.07 29.01
0 0 4 293.56 28.12
0 0 4 277.05 27.79
0 0 4 289.36 28.72
0 0 4 310.87 28.75
0 0 4 295.85 26.62
0 0 4 312.9 28.87
0 0 4 314.16 26.77
0 0 4 276.01 29.1
0 0 4 350.56 28.16
0 0 4 314.48 26.38
0 0 4 340.4 28.19
0 0 4 362.72 29.52
0 0 5 583.89 49.59
0 0 5 640.74 52.97
0 0 5 542.02 52.04
0 0 5 531.35 51.83
0 0 5 547.86 51.29
0 0 5 592.07 52.16
0 0 5 577.99 51.63
0 0 5 613.77 49.24
0 0 5 640.88 51.89
0 0 5 569.39 49.04
0 0 5 473.87 51.3
0 0 5 643.88 49.08
0 0 5 675.13 51.13
0 0 5 636.09 50.78
0 0 5 694.03 52.49
0 0 6 1861.91 145.96
0 0 6 2094.37 150.64
0 0 6 1653.79 148.85
0 0 6 1635.57 148.7
0 0 6 1644.64 147.71
0 0 6 1727.14 148.83
0 0 6 1640.58 148.15
0 0 6 1776.03 145.29
0 0 6 2108.32 149.61
0 0 6 1561.12 148.62
0 0 6 2210.39 149.88
0 0 6 2000.01 147.61
0 0 6 2019.65 145.37
0 0 6 2172.3 147.98
0 0 6 2111.43 149.38
0 0 7 516.98 54.51
0 0 7 536.81 54.78
0 0 7 512.79 53.27
0 0 7 552.85 54.39
0 0 7 581.98 54.73
0 0 7 773 54.54
0 0 7 737.45 53.98
0 0 7 703.87 55.02
0 0 7 609.92 55.31
0 0 7 547.59 55.2
0 0 7 587.34 53.89
0 0 8 85.67 15.12
0 0 8 74.39 14.61
0 0 8 66.41 15.11
0 0 8 83.16 14.58
0 0 8 54.37 14.62
0 0 8 108.9 16.98
0 0 9 415.51 44.54
0 0 9 442.34 45.72
0 0 9 454.26 44.75
0 0 9 418.77 43.82
0 0 9 389.38 42.09
0 0 9 488.11 45.69
0 0 10 51.58 15.35
0 0 10 46.13 14.47
0 0 10 65.37 15.44
0 0 10 19.56 12.21
0 0 10 57.52 15.11
0 0 11 507.96 48.72
0 0 11 407.61 46.16
0 0 11 441.04 48.84
0 0 12 12.61 11.45
0 0 12 18.03 12.89
0 0 12 17.16 14.04
0 0 13 171.88 26.78
0 0 13 171.35 26.91
0 0 13 158.28 27.82
0 0 14 15.91 13.96
0 1 -14 186.19 37.88
0 1 -14 151.52 33.63
0 1 -14 251.41 37.45
0 1 -14 206.34 36.2
0 1 -13 43.7 21.51
0 1 -13 30.88 20.21
0 1 -13 -12.01 19.26
0 1 -13 21.36 16.45
0 1 -13 24.88 17.74
0 1 -12 88.2 25.28
0 1 -12 66.1 21.45
0 1 -12 80.12 24.93
0 1 -12 121.44 25.25
0 1 -12 149.05 27.1
0 1 -11 127.95 24.51
0 1 -11 120.06 23.68
0 1 -11 108.55 20.68
0 1 -11 99.9 20.55
0 1 -11 87.36 24.42
0 1 -11 100.23 20.03
0 1 -11 108.33 25.53
0 1 -11 50.99 22.8
0 1 -10 539.57 54.14
0 1 -10 591.04 55.66
0 1 -10 463.23 49.31
0 1 -10 470.18 55.6
0 1 -10 505.72 52.6
0 1 -10 467.48 55.17
0 1 -10 474.91 49.96
0 1 -9 292.75 35.15
0 1 -9 393.23 40.14
0 1 -9 344.77 39.43
0 1 -9 390.88 40.8
0 1 -9 340.86 35.1
0 1 -9 350.86 43.57
0 1 -9 264.52 35.75
0 1 -9 315.35 36.28
0 1 -8 112.82 19.2
0 1 -8 117.88 18.17
0 1 -8 146.41 22.86
0 1 -8 137.35 21.87
0 1 -8 186.24 25.39
0 1 -8 135.53 21.34
0 1 -8 156.63 21.66
0 1 -8 142.08 20.79
0 1 -7 537.02 48.37
0 1 -7 515.76 47.8
0 1 -7 437.6 47.09
0 1 -7 537.55 48.02
0 1 -7 567.91 48.91
0 1 -7 553.76 50.94
0 1 -7 475.87 48.94
0 1 -7 544.27 46.88
0 1 -7 568.56 48.35
0 1 -7 515.31 47.31
0 1 -7 476.49 47.61
0 1 -7 487.03 46.34
0 1 -7 405.22 46.24
0 1 -7 504.97 50.82
0 1 -6 737.45 69.93
0 1 -6 823.95 67.85
0 1 -6 816.08 62.98
0 1 -6 857.55 67.08
0 1 -6 797.39 62.91
0 1 -6 720.26 67.29
0 1 -6 807.89 67.52
0 1 -6 777.91 67.07
0 1 -6 793.68 69.1
0 1 -6 844.35 66.71
0 1 -6 789.29 68.53
0 1 -6 790.29 67.46
0 1 -6 858.33 67.85
0 1 -6 688.86 66.11
0 1 -6 732.53 65.8
0 1 -6 759.64 63.95
0 1 -6 644.31 65.67
0 1 -6 775.95 67.18
0 1 -5 1617.23 134.02
0 1 -5 1696.49 131.74
0 1 -5 1705.5 133.69
0 1 -5 1306.48 135.99
0 1 -5 1677.49 132.01
0 1 -5 1592.18 134.23
0 1 -5 1843.8 130.63
0 1 -5 1835.31 130.85
0 1 -5 1617.4 134.76
0 1 -5 1580.31 129.4
0 1 -5 1783.81 130.68
0 1 -5 1693.91 135.26
0 1 -5 1638.17 133.36
0 1 -5 1638.38 135.64
0 1 -5 1690.38 129.76
0 1 -5 1625.73 133.1
0 1 -5 1628.13 134.24
0 1 -5 1757.05 134.54
0 1 -5 1783.44 134.73
0 1 -5 1743.7 134.65
0 1 -5 1809.46 135
0 1 -5 1771.29 134.74
0 1 -4 37.17 6.01
0 1 -4 18.88 6.01
0 1 -4 22.43 5.83
0 1 -4 31.74 5.13
0 1 -4 26.77 7.18
0 1 -4 23.21 4.39
0 1 -4 19.11 4.34
0 1 -4 29.14 4.78
0 1 -4 14.76 5.58
0 1 -4 26.09 6.74
0 1 -4 27.09 6.42
0 1 -4 30.68 6.54
0 1 -4 25.08 4.87
0 1 -4 12.67 7.44
0 1 -4 12.84 4.67
0 1 -4 27.69 6.8
0 1 -4 19.15 6.06
0 1 -4 27.58 6.87
0 1 -4 26.52 6.55
0 1 -4 13.73 5.72
0 1 -4 23.06 6.17
0 1 -4 24.27 6.37
0 1 -4 20.33 6.29
0 1 -3 2902.66 212.42
0 1 -3 2690.55 212.34
0 1 -3 2623.42 210.91
0 1 -3 3009.54 211.2
0 1 -3 2557.94 213.14
0 1 -3 2716.03 210.59
0 1 -3 2718.12 210.33
0 1 -3 2818.4 210.73
0 1 -3 2724.32 212.82
0 1 -3 2845.76 213.5
0 1 -3 2949.08 212.66
0 1 -3 2970.05 213.34
0 1 -3 2690.01 212.86
0 1 -3 2739.21 212.77
0 1 -3 2694.54 212.62
0 1 -3 2723.3 212.67
0 1 -3 2819.94 212.9
0 1 -3 2739.49 212.75
0 1 -3 2817.27 210.85
0 1 -3 2778.99 211.78
0 1 -2 134.93 12.3
0 1 -2 134.75 14.03
0 1 -2 142.35 14.14
0 1 -2 138.67 14.09
0 1 -2 135.94 13.99
0 1 -2 159.23 14.38
0 1 -2 127.42 13.1
0 1 -2 159.16 13.6
0 1 -2 146.77 12.93
0 1 -2 168.51 14.66
0 1 -2 146.23 14.07
0 1 -2 127.75 13.99
0 1 -2 162.18 15.27
0 1 -2 137.07 13.99
0 1 -2 136.84 14.04
0 1 -2 124.85 13.84
0 1 -2 135.77 13.51
0 1 -1 3584.29 254.79
0 1 -1 3362.35 254.17
0 1 -1 3242.68 255.1
0 1 -1 3351.14 255.04
0 1 -1 3338.23 255.08
0 1 -1 3462.94 255.22
0 1 -1 3372.92 255.13
0 1 -1 3251.42 254.91
0 1 -1 3386.46 254.6
0 1 -1 3492.22 255.31
0 1 -1 3520.75 254.86
0 1 -1 3511.71 255.29
0 1 -1 3159.83 254.38
0 1 -1 3299.17 254.95
0 1 -1 3402.81 254.91
0 1 -1 3442.89 255.13
0 1 -1 3298.44 254.91
0 1 -1 3406.46 254.53
0 1 -1 3349.06 255.2
0 1 -1 3217.62 255.03
0 1 -1 3455.71 254.72
0 1 0 157.33 13.25
0 1 0 138.68 12.72
0 1 0 153.97 13.61
0 1 0 150.19 13.01
0 1 0 140.62 12.91
0 1 0 145.36 13.12
0 1 0 140.3 12.05
0 1 0 147.18 12.72
0 1 0 153.61 13.7
0 1 0 155.3 12.6
0 1 0 150.18 12.91
0 1 0 167.77 13.88
0 1 0 138.66 12.97
0 1 0 155.68 12.58
0 1 0 120.77 13.05
0 1 0 149.96 12.78
0 1 0 164.55 13.19
0 1 0 146.02 12.97
0 1 0 145.94 12.97
0 1 1 274.01 23.98
0 1 1 323.35 25.41
0 1 1 275.69 24.09
0 1 1 289.86 23.58
0 1 1 279.71 23.9
0 1 1 284.5 23.17
0 1 1 289.12 22.8
0 1 1 279.13 23.49
0 1 1 289.89 22.81
0 1 1 277.59 23.27
0 1 1 291.58 23.05
0 1 1 298.86 23.96
0 1 1 271.6 23.06
0 1 1 270.89 23.5
0 1 1 256.04 23.55
0 1 1 289.39 23.54
0 1 1 285.29 23.75
0 1 1 293.09 23.57
0 1 1 288.49 23.2
0 1 1 284.02 23.13
0 1 1 273.88 23.08
0 1 2 1532.82 117.89
0 1 2 1597.56 117.12
0 1 2 1524.44 116.19
0 1 2 1560.72 116.18
0 1 2 1089.47 115.38
0 1 2 1531.42 114.95
0 1 2 1594.51 116.71
0 1 2 1474.26 115.26
0 1 2 1597.89 114.72
0 1 2 1469.79 114.97
0 1 2 1470 115.29
0 1 2 1539.78 115.19
0 1 2 1591.8 115.92
0 1 2 1532.74 115.13
0 1 2 1524.83 115.46
0 1 2 1505.31 113.97
0 1 2 1560.34 115.31
0 1 2 1679.23 115.12
0 1 2 1351.01 114.98
0 1 2 1468.17 114.22
0 1 2 1498.56 114.87
0 1 2 1493.07 114.93
0 1 3 1063.85 79.11
0 1 3 1028.63 80.4
0 1 3 1043.42 80.41
0 1 3 997.74 84.09
0 1 3 1000.1 83.04
0 1 3 1081.86 83.04
0 1 3 1023.26 81.64
0 1 3 1028.71 82.84
0 1 3 956.46 81.78
0 1 3 1084.22 81.39
0 1 3 1064.43 82.38
0 1 3 1022.27 81.06
0 1 3 1001.16 81.78
0 1 3 1012.59 80.17
0 1 3 1003.55 80.1
0 1 3 1019.34 80.56
0 1 3 1082.22 81.3
0 1 3 1021.2 82.59
0 1 3 1007.39 80.36
0 1 3 1021.71 81.08
0 1 3 1059.11 81.44
0 1 3 1088.15 81.34
0 1 3 1138.45 81.71
0 1 4 629.92 48.45
0 1 4 644.13 47.84
0 1 4 550.11 51.92
0 1 4 587.7 51.22
0 1 4 582.99 46.72
0 1 4 582.35 51.02
0 1 4 562.09 50.33
0 1 4 577.68 48.67
0 1 4 586.92 49.16
0 1 4 625.6 48.96
0 1 4 642.89 49.81
0 1 4 587.43 50.67
0 1 4 566.71 48.77
0 1 4 560.98 49.51
0 1 4 558.12 46.71
0 1 4 573.44 46.78
0 1 4 588.61 48.86
0 1 4 560.02 50.45
0 1 4 666.35 48.46
0 1 4 594.67 49.58
0 1 4 607.7 49.54
0 1 5 1578.31 109.78
0 1 5 1427.07 109.27
0 1 5 1459.27 107.88
0 1 5 1331.38 113.2
0 1 5 1439.47 112.72
0 1 5 1329.73 106.12
0 1 5 1382.03 108.76
0 1 5 1519.46 113.5
0 1 5 1426.55 112.04
0 1 5 1283.7 109.17
0 1 5 1496.18 111.01
0 1 5 1357.27 109.45
0 1 5 1392.21 112.26
0 1 5 1329.39 110.86
0 1 5 1349.9 106.26
0 1 5 1418.86 110.99
0 1 5 1221.87 109.4
0 1 5 1271.41 111.22
0 1 5 1445.78 108.55
0 1 5 1386.81 110.93
0 1 5 1549.59 111.15
0 1 6 2052.31 157.57
0 1 6 1992.53 155.56
0 1 6 2420.96 158.6
0 1 6 1937 156.41
0 1 6 2061.08 162.14
0 1 6 1712.18 159.22
0 1 6 1807.36 156.83
0 1 6 2101.51 158.36
0 1 6 2446.78 160.7
0 1 6 1862.3 161.44
0 1 6 1778.98 160.14
0 1 6 2040.05 159.12
0 1 6 2031.07 159.62
0 1 6 2195.21 153.51
0 1 6 1690.67 157.6
0 1 6 1807.88 159.47
0 1 6 1825.56 160.3
0 1 6 1976.05 159.84
0 1 6 2490.2 160.4
0 1 7 1.13 5.1
0 1 7 -2.12 7.21
0 1 7 1.28 5.51
0 1 7 8.63 5.75
0 1 7 -1.9 7.16
0 1 7 12.19 9.18
0 1 7 1.59 6.01
0 1 7 5.6 6.33
0 1 7 1.67 7.4
0 1 7 1.92 6.51
0 1 7 5.55 6.79
0 1 7 4.25 7.06
0 1 7 8.06 7.16
0 1 7 6.85 7.4
0 1 8 732.34 61.25
0 1 8 663.72 63.65
0 1 8 736.42 64.14
0 1 8 874.25 64.66
0 1 8 742.65 63.63
0 1 8 719.64 64.57
0 1 9 51.11 14.39
0 1 9 62.39 14.66
0 1 9 65.91 14.74
0 1 9 37.54 13.41
0 1 9 50.31 14.81
0 1 10 272.96 38.16
0 1 10 370.77 39.85
0 1 10 316.72 38.79
0 1 11 22.44 12.58
0 1 11 33.18 15.68
0 1 11 16.01 12.89
0 1 11 7.89 12.21
0 1 12 169.44 28.45
0 1 12 187.84 29.18
0 1 13 35.88 15.56
0 1 13 27.66 14.46
0 1 14 115.04 23.65
0 1 14 124.87 23.78
0 2 -14 84.72 24.47
0 2 -14 159.79 30.73
0 2 -13 16.96 16.98
0 2 -13 22.26 18.55
0 2 -13 25.76 17.05
0 2 -13 18.03 17.05
0 2 -13 22.5 18.75
0 2 -12 15.29 14.45
0 2 -12 20.7 15.07
0 2 -12 6.96 18.29
0 2 -12 33.47 20.15
0 2 -12 14.1 16.31
0 2 -12 3.46 16.02
0 2 -12 14.53 17.14
0 2 -11 445.65 49.47
0 2 -11 455.16 54.32
0 2 -11 533.48 55.75
0 2 -11 556.72 56.48
0 2 -11 446.38 49.79
0 2 -11 493.65 56.11
0 2 -10 418.33 44.49
0 2 -10 437.99 48.37
0 2 -10 385.33 46.63
0 2 -10 404.65 44.65
0 2 -9 42.2 13.71
0 2 -9 40.86 13.16
0 2 -9 31.36 14.75
0 2 -9 34.25 16.39
0 2 -9 43.01 12.69
0 2 -8 1328.97 102.39
0 2 -8 1141.31 100.79
0 2 -8 1093.68 97.62
0 2 -8 1175.49 98.6
0 2 -8 1065 95.95
0 2 -7 26.76 9.73
0 2 -7 31.85 10.61
0 2 -7 37.17 11.45
0 2 -7 39.93 11.57
0 2 -7 18.44 10.67
0 2 -7 38.85 12.58
0 2 -6 445.56 40.38
0 2 -6 410.2 39.3
0 2 -6 449.66 39.74
0 2 -6 409.88 36.85
0 2 -6 434.69 41.81
0 2 -6 460.59 40.05
0 2 -6 402.65 41.14
0 2 -6 375.94 39.49
0 2 -6 405.42 39.79
0 2 -6 481.05 41.05
0 2 -5 5.03 4.84
0 2 -5 -1.33 5.17
0 2 -5 5.25 6.06
0 2 -5 1.46 5.85
0 2 -5 5.46 5.35
0 2 -5 5.22 5.39
0 2 -5 12.75 4.75
0 2 -5 25.19 7.91
0 2 -5 6.82 6.43
0 2 -5 -1.37 5.49
0 2 -5 -4.4 5.53
0 2 -5 6.1 6.43
0 2 -5 1.48 6.1
0 2 -5 5.03 5.13
0 2 -5 1.45 6.12
0 2 -5 1.45 5.79
0 2 -5 2.92 6.15
0 2 -5 7.26 6.42
0 2 -5 2.12 5.11
0 2 -4 1460.9 119.24
0 2 -4 1478.72 120.34
0 2 -4 1659 120.97
0 2 -4 1425.24 118.8
0 2 -4 1541.82 120.7
0 2 -4 1496.19 118.88
0 2 -4 1447.42 117.19
0 2 -4 1316.66 119.99
0 2 -4 1484.55 119.78
0 2 -4 1487.34 121.03
0 2 -4 1607.15 120.85
0 2 -4 1553.71 120.88
0 2 -4 1587.15 120.73
0 2 -4 1572.18 120.73
0 2 -4 1465.98 120.3
0 2 -4 1607.49 119.92
0 2 -3 638.82 53.06
0 2 -3 669.86 50.6
0 2 -3 618.82 51.34
0 2 -3 626.08 53.32
0 2 -3 608 52.95
0 2 -3 658.55 53.77
0 2 -3 650.73 53.42
0 2 -3 595.56 52.9
0 2 -3 616.67 53.07
0 2 -3 587.45 52.66
0 2 -3 630.1 53.26
0 2 -3 563.14 52.2
0 2 -3 648.53 51.35
0 2 -3 605.97 53.11
0 2 -3 600.02 53.24
0 2 -3 621.62 53.07
0 2 -3 605.69 52.74
0 2 -3 623.49 53.4
0 2 -3 663.78 53.48
0 2 -3 658.43 52.58
0 2 -2 1087.84 82.09
0 2 -2 1002.08 80.05
0 2 -2 1012.12 82.3
0 2 -2 1000.67 82.25
0 2 -2 1069.7 82.58
0 2 -2 973.92 82.04
0 2 -2 1117.19 82.6
0 2 -2 1053.75 81.71
0 2 -2 987.39 82.81
0 2 -2 1074.67 82.45
0 2 -2 1094.8 83.12
0 2 -2 991.69 80.92
0 2 -2 1069.29 82.22
0 2 -2 1042.03 82.3
0 2 -2 1033.42 82.18
0 2 -2 1140.69 81.52
0 2 -2 1007.82 82.34
0 2 -2 1001.21 82.21
0 2 -2 837.15 80.77
0 2 -1 303.03 27.59
0 2 -1 331.76 26.42
0 2 -1 294.72 25.56
0 2 -1 286.66 26.85
0 2 -1 329.32 27.44
0 2 -1 308.04 27.29
0 2 -1 311.4 24.26
0 2 -1 328.96 28.54
0 2 -1 268.04 26.01
0 2 -1 317.03 26.12
0 2 -1 297.22 26.87
0 2 -1 305.36 27.96
0 2 -1 322.97 26.9
0 2 -1 297.51 26.34
0 2 -1 312.78 27.44
0 2 -1 297.27 25.95
0 2 -1 299.02 23.82
0 2 -1 299.86 27.03
0 2 -1 281.54 26.67
0 2 -1 258.93 26.41
0 2 0 1919.76 142.65
0 2 0 1832.29 143.84
0 2 0 1908.13 142.35
0 2 0 1870.5 142.33
0 2 0 1797.16 142.2
0 2 0 1970.25 143.17
0 2 0 1850.98 140.44
0 2 0 1781.11 141.23
0 2 0 1814.88 144.03
0 2 0 1801.39 141.73
0 2 0 1967.49 142.53
0 2 0 1998.37 144.28
0 2 0 1986.59 142.93
0 2 0 1930.34 141.51
0 2 0 1862.13 142.88
0 2 0 1701.17 141.5
0 2 0 1824.32 142.28
0 2 0 1757.22 142.06
0 2 0 1771.45 142.16
0 2 0 1778.24 142.15
0 2 1 1312.65 103.81
0 2 1 1265.94 101.59
0 2 1 1259.13 103.74
0 2 1 1244.62 102.58
0 2 1 1372.6 100.29
0 2 1 1398.87 102.03
0 2 1 1366.69 102.79
0 2 1 1295.3 100.28
0 2 1 1252.9 101.01
0 2 1 1306.74 101.1
0 2 1 1315.29 101.06
0 2 1 1306.59 101.36
0 2 1 1312.02 103.7
0 2 1 1285.67 103.21
0 2 1 1266.78 102.55
0 2 1 1321.24 102.44
0 2 1 1294.8 101.93
0 2 1 1276.51 101.69
0 2 1 1337.74 101.87
0 2 1 1318.58 101.87
0 2 1 1360.32 101.95
0 2 2 178.56 20.11
0 2 2 205.32 22.23
0 2 2 210.16 21.15
0 2 2 161.98 18.94
0 2 2 191.01 20.34
0 2 2 191.73 18.56
0 2 2 205.82 18.15
0 2 2 193.03 19.46
0 2 2 216.56 18.81
0 2 2 213.99 18.27
0 2 2 199.02 19.96
0 2 2 216.97 19.37
0 2 2 209.05 18.59
0 2 2 195.97 18.5
0 2 2 206.81 20.23
0 2 2 180.13 18.59
0 2 2 180.16 19.22
0 2 2 205.07 20.01
0 2 2 232.65 19.96
0 2 2 212.66 19.66
0 2 2 211.66 18.85
0 2 2 220.87 18.94
0 2 2 216.88 18.97
0 2 3 3842.16 312.09
0 2 3 4070.24 316.33
0 2 3 4193.92 318.45
0 2 3 4127.19 315.43
0 2 3 3801.72 314.46
0 2 3 4058.95 315.82
0 2 3 3989.74 312.58
0 2 3 4113.47 314.17
0 2 3 4451.65 312.68
0 2 3 4240.5 313.04
0 2 3 4308.88 313.11
0 2 3 4138.77 313.12
0 2 3 4251.81 314.62
0 2 3 4055.74 314.04
0 2 3 4065.25 313.65
0 2 3 4216.08 314
0 2 3 4529.92 313.94
0 2 3 3831.82 313.6
0 2 3 4338.78 313.34
0 2 3 4185.83 312.82
0 2 3 4051.94 312.77
0 2 3 3996.22 312.57
0 2 4 3.28 3.28
0 2 4 2.69 2.83
0 2 4 -1.78 5.3
0 2 4 11.28 4.56
0 2 4 -2.94 5.37
0 2 4 4.73 4.32
0 2 4 5.46 5.46
0 2 4 6.22 4.69
0 2 4 3.62 3.82
0 2 4 6.49 4.19
0 2 4 -0.79 3.65
0 2 4 5.42 3.72
0 2 4 4.32 4.32
0 2 4 3.46 4
0 2 4 3.25 4.06
0 2 4 3.77 2.95
0 2 4 -0.94 3.54
0 2 4 1.45 4.09
0 2 4 2.38 3.43
0 2 4 6.11 4.26
0 2 4 1.54 3.99
0 2 5 826.17 70.83
0 2 5 827.5 69.13
0 2 5 823.09 70.47
0 2 5 838.84 67.57
0 2 5 851.27 68.92
0 2 5 806.48 67.17
0 2 5 851.22 69.33
0 2 5 801.38 66.6
0 2 5 812.62 66.47
0 2 5 776.13 65.36
0 2 5 800.3 66.37
0 2 5 839.57 66.33
0 2 5 858.39 64.75
0 2 5 826.67 66.38
0 2 5 811.74 67.65
0 2 5 740.78 72.14
0 2 5 820.28 71.63
0 2 5 809.56 66.36
0 2 5 872.64 67.74
0 2 5 910.94 68.23
0 2 6 10.99 8.06
0 2 6 13.4 8.11
0 2 6 18.26 6.99
0 2 6 12.56 7.6
0 2 6 7.14 7.93
0 2 6 16.72 6.35
0 2 6 13.16 6.61
0 2 6 5.89 5.78
0 2 6 8.51 5.55
0 2 6 22.67 7.23
0 2 6 9.57 4.82
0 2 6 11.79 5.08
0 2 6 16.7 5.51
0 2 6 9.63 5.65
0 2 6 13.37 5.4
0 2 6 3.36 5.65
0 2 6 13.68 6.67
0 2 6 1.18 5.95
0 2 7 462.77 38.75
0 2 7 440.36 41.22
0 2 7 414.2 40.63
0 2 7 390.47 41.94
0 2 7 367.26 42.86
0 2 7 345.36 37.62
0 2 7 435.89 38.92
0 2 7 455.92 42.98
0 2 7 395.45 41.72
0 2 7 418.83 40.07
0 2 8 189.55 26.54
0 2 8 162.78 25.96
0 2 8 248.58 26.05
0 2 8 178.78 25.18
0 2 8 184.15 25.89
0 2 8 241.59 26.73
0 2 9 884.78 86
0 2 9 940.95 85.73
0 2 9 1072.24 84.18
0 2 9 917.66 86.31
0 2 9 944.96 84.8
0 2 10 102.66 22.1
0 2 10 112.4 21.71
0 2 10 78.37 19.59
0 2 10 124.61 21.22
0 2 11 158.24 25.47
0 2 11 117.3 21.85
0 2 12 123.21 21.74
0 2 12 132.14 23.42
0 2 12 77.26 20.44
0 2 13 28.94 16.26
0 2 13 26.71 15.19
0 2 14 238.99 34.53
0 2 14 249.33 34.44
0 3 -13 109.05 24.99
0 3 -13 105.83 25.77
0 3 -12 31.67 18.95
0 3 -12 21.84 18.34
0 3 -12 45.98 17.4
0 3 -12 44.02 16.76
0 3 -11 310.96 42.13
0 3 -11 287.93 36.29
0 3 -11 218.13 34.03
0 3 -10 19.23 17.09
0 3 -10 9.87 15.51
0 3 -10 15.3 11.47
0 3 -10 14.68 13.05
0 3 -10 -7.47 11.74
0 3 -9 279.07 35.25
0 3 -9 308.33 36.18
0 3 -9 294.3 34.61
0 3 -9 300.54 38.5
0 3 -9 333.91 40.27
0 3 -8 114.54 19.94
0 3 -8 92.43 19.04
0 3 -8 126.9 23.02
0 3 -8 86.77 19.95
0 3 -8 96.34 17.33
0 3 -7 371.37 39
0 3 -7 317.07 37.39
0 3 -7 380.55 40.95
0 3 -7 363.12 40.85
0 3 -7 380.78 39.17
0 3 -7 360.19 37.53
0 3 -7 367.8 36.95
0 3 -6 26.19 10.97
0 3 -6 39.83 12.67
0 3 -6 35.51 11.63
0 3 -6 41.29 9.51
0 3 -6 55.87 11.82
0 3 -6 48.85 11.98
0 3 -6 28.96 11
0 3 -5 923.72 84.29
0 3 -5 1107.07 85.19
0 3 -5 1003.13 85.84
0 3 -5 937.83 85.59
0 3 -5 1046.9 85.53
0 3 -5 1031.16 84.95
0 3 -5 1017.47 83.4
0 3 -5 928.69 83.96
0 3 -4 242.69 25.89
0 3 -4 207.26 25.25
0 3 -4 241.38 25.96
0 3 -4 224.82 25.79
0 3 -4 202.79 24.76
0 3 -4 222.5 25.44
0 3 -4 230.34 25.77
0 3 -4 200.08 24.42
0 3 -4 235.36 25.68
0 3 -4 224.35 23
0 3 -4 259.69 25.86
0 3 -4 212.57 24.99
0 3 -4 225.22 24.11
0 3 -4 246.14 26.06
0 3 -4 241.99 26.29
0 3 -4 216.12 24
0 3 -3 802.07 70.62
0 3 -3 704.92 68.95
0 3 -3 849.91 65.84
0 3 -3 881.67 66.49
0 3 -3 839.79 69.94
0 3 -3 851.52 70.07
0 3 -3 870.47 70.6
0 3 -3 805.23 69.93
0 3 -3 861.9 70.19
0 3 -3 788.62 70.97
0 3 -3 827.41 69.98
0 3 -3 835.61 70.76
0 3 -3 877.71 68.56
0 3 -3 786.56 69.47
0 3 -3 723.64 68.85
0 3 -3 807.64 67.92
0 3 -3 842.7 69.91
0 3 -3 882.06 70.32
0 3 -3 844.02 69.24
0 3 -2 1888.75 159.29
0 3 -2 2060.9 157.59
0 3 -2 2006.08 161.21
0 3 -2 2101.9 157.63
0 3 -2 2069.16 160.39
0 3 -2 2040.54 160.19
0 3 -2 2098.98 161.01
0 3 -2 1937.78 155.22
0 3 -2 2187.7 158.82
0 3 -2 2085.22 159.22
0 3 -2 2023.17 162.91
0 3 -2 2008.72 160.12
0 3 -2 2064.18 161.92
0 3 -2 2087.29 159.43
0 3 -2 1985.26 160.37
0 3 -2 2049.06 159.77
0 3 -2 2256.07 158.71
0 3 -2 2134.05 160.61
0 3 -2 2039.92 160.27
0 3 -2 1951.81 160.01
0 3 -2 2000.52 160.31
0 3 -1 81.89 13.12
0 3 -1 100.21 11.19
0 3 -1 92.62 12.03
0 3 -1 68.29 10.88
0 3 -1 82.49 12.05
0 3 -1 85.71 8.55
0 3 -1 80.28 10.77
0 3 -1 90.81 10.58
0 3 -1 71.3 13.23
0 3 -1 68.14 10.96
0 3 -1 97.3 12.1
0 3 -1 94.48 13.63
0 3 -1 81.73 10.88
0 3 -1 93.06 12.3
0 3 -1 61.01 9.69
0 3 -1 89.56 8.45
0 3 -1 72.92 11.26
0 3 -1 85.06 11.89
0 3 -1 88.66 12.06
0 3 0 1774.48 139.49
0 3 0 1768.33 142.57
0 3 0 1763.93 135.94
0 3 0 1912.85 140.28
0 3 0 1801.86 136.35
0 3 0 1903.22 139.84
0 3 0 1898.42 141.03
0 3 0 1722.46 136.73
0 3 0 1685.28 142.16
0 3 0 1658.54 137.7
0 3 0 1782.07 138.57
0 3 0 1863.18 140.34
0 3 0 1812.5 139.66
0 3 0 1780.98 141.77
0 3 0 1741.77 140
0 3 0 1863.98 138.99
0 3 0 1702.26 136.76
0 3 0 1829.57 139.59
0 3 0 1904.39 139.82
0 3 0 1732.79 139.33
0 3 0 1823.11 139.59
0 3 1 162.94 16.67
0 3 1 169.04 19.58
0 3 1 197.17 21.72
0 3 1 163.1 19.26
0 3 1 195.29 16.42
0 3 1 178.63 18.62
0 3 1 169.53 19.3
0 3 1 178.31 17.35
0 3 1 176.32 17.27
0 3 1 185.12 18.02
0 3 1 135.43 19.58
0 3 1 182.73 17.55
0 3 1 174.09 18.4
0 3 1 190.31 20.63
0 3 1 176.19 19.23
0 3 1 168.22 18.98
0 3 1 171.5 18.29
0 3 1 195.19 18.92
0 3 1 189.91 18.75
0 3 1 213.35 19.28
0 3 1 198.49 19.04
0 3 2 910.4 80.72
0 3 2 889.08 78.01
0 3 2 920.91 80.88
0 3 2 931.41 78.38
0 3 2 995.86 80.13
0 3 2 967.93 77.45
0 3 2 977.25 75.72
0 3 2 957.84 78.88
0 3 2 988.59 75.72
0 3 2 1015.12 77.54
0 3 2 974.65 76.63
0 3 2 925.8 76.72
0 3 2 811.09 76.02
0 3 2 967.62 80.39
0 3 2 963.07 78.72
0 3 2 1011.06 79.93
0 3 2 1048.13 79.04
0 3 2 935.01 78
0 3 2 1026.48 77.74
0 3 2 977.42 77.57
0 3 2 1024.61 77.72
0 3 2 1027.75 77.77
0 3 3 407.42 37.67
0 3 3 416.14 40.54
0 3 3 381.82 41.96
0 3 3 384.9 40.33
0 3 3 433.98 39.56
0 3 3 347.34 39.39
0 3 3 454.48 37.87
0 3 3 474.9 37.21
0 3 3 422.59 39.29
0 3 3 460.23 37.85
0 3 3 472.61 37.03
0 3 3 432.43 39.73
0 3 3 469 37.73
0 3 3 428.96 37.69
0 3 3 454.16 40.63
0 3 3 378.29 37.19
0 3 3 432.05 37.51
0 3 3 418.86 38.93
0 3 3 458.93 39.82
0 3 3 457.72 39.05
0 3 3 413.1 38.8
0 3 3 457.99 37.89
0 3 3 473.07 38.1
0 3 3 415.13 37.46
0 3 4 1076.98 90.2
0 3 4 1008.58 94.37
0 3 4 1169.16 92.49
0 3 4 1005.36 96.65
0 3 4 1113.37 93.42
0 3 4 1131.3 95.11
0 3 4 1138.6 95.12
0 3 4 1152.96 90.62
0 3 4 1111.51 92.67
0 3 4 1280.02 90.91
0 3 4 1115.81 90.79
0 3 4 1168.05 90.71
0 3 4 1091.87 90.77
0 3 4 976.13 90.32
0 3 4 1090.15 92.74
0 3 4 1071.06 93
0 3 4 1203 92.64
0 3 4 1156.33 92.53
0 3 4 1265.08 92.36
0 3 4 1164.7 93.04
0 3 4 1114.5 91.38
0 3 4 1196.27 90.87
0 3 4 1233.23 90.91
0 3 4 1207.7 91.02
0 3 5 254.15 27.86
0 3 5 280.75 27.54
0 3 5 210.18 25.67
0 3 5 221.57 22.78
0 3 5 222.33 23.19
0 3 5 247.92 24.1
0 3 5 222.58 23.5
0 3 5 250.35 25.56
0 3 5 228.24 24.33
0 3 5 224.92 23.79
0 3 5 217.82 23.93
0 3 5 262.19 22.97
0 3 5 190.79 23.54
0 3 5 211.37 22.5
0 3 5 228.92 25.21
0 3 5 243.35 23.99
0 3 5 234.05 27.72
0 3 5 162.23 27.2
0 3 5 253.33 23.36
0 3 5 281.84 24.14
0 3 6 877.99 73.53
0 3 6 924.83 75.94
0 3 6 1000.65 75.11
0 3 6 772.17 77.61
0 3 6 782.94 79.78
0 3 6 789.88 73.76
0 3 6 900.8 75.91
0 3 6 858.62 76.46
0 3 6 927.39 77.99
0 3 6 861.05 78.23
0 3 6 909.03 72.85
0 3 6 848.04 72.59
0 3 6 1051.28 75.76
0 3 7 829.03 65.1
0 3 7 790.74 68
0 3 7 692.17 63.95
0 3 7 746.76 66.29
0 3 7 628.52 66.2
0 3 7 620.83 67.44
0 3 8 637.81 58.13
0 3 8 628.22 57.82
0 3 8 618.99 61.09
0 3 8 746.18 62.78
0 3 8 548.27 61.64
0 3 8 507.1 59.36
0 3 8 754.52 60.03
0 3 9 137.57 24.28
0 3 9 149.51 25.35
0 3 9 157.83 25.73
0 3 9 141.1 26.59
0 3 9 174.73 22.91
0 3 10 8.91 12.23
0 3 10 14.42 13.34
0 3 10 25.78 15.21
0 3 10 10.94 10.36
0 3 11 381.85 45.57
0 3 11 323.42 43.59
0 3 11 354.89 45.38
0 3 11 495.69 44.25
0 3 12 19.47 15.89
0 3 12 11.98 14.12
0 3 12 2.35 12.17
0 3 13 149.47 27.16
0 3 13 193.34 30.12
0 3 14 6.18 13.35
0 3 14 14.71 14.15
0 4 -12 76.3 20.11
0 4 -12 59.42 18.9
0 4 -12 103.37 26.16
0 4 -11 -2.55 13.17
0 4 -11 12.99 13.63
0 4 -11 7.17 16.55
0 4 -10 79.81 19.88
0 4 -10 75.63 19.36
0 4 -10 92.14 19.88
0 4 -10 109.82 24.63
0 4 -9 128.47 23.55
0 4 -9 115.74 22.53
0 4 -9 158.32 27.6
0 4 -9 152.32 23.14
0 4 -8 604.51 60.97
0 4 -8 626.47 61.07
0 4 -8 659.13 62.49
0 4 -8 713.16 66.11
0 4 -8 627.4 61.59
0 4 -7 133.64 21.33
0 4 -7 146.13 21.99
0 4 -7 112.5 20.23
0 4 -7 150.12 24.4
0 4 -6 141.01 20.43
0 4 -6 155.67 23.24
0 4 -6 133.68 21.93
0 4 -6 166.41 24.38
0 4 -5 603.96 59.3
0 4 -5 613.59 58.95
0 4 -5 665.45 60.71
0 4 -5 626.7 57.49
0 4 -5 680.53 59.76
0 4 -5 640.11 59.43
0 4 -4 3.79 7.99
0 4 -4 5.44 7.44
0 4 -4 -3.9 9.36
0 4 -4 7.59 7.99
0 4 -4 9.17 8.98
0 4 -4 -11.33 10.88
0 4 -4 4.78 7.2
0 4 -4 1.97 8.69
0 4 -3 774.21 77.39
0 4 -3 969.95 78.67
0 4 -3 856.58 79.69
0 4 -3 1007.75 78.34
0 4 -3 840.69 78.48
0 4 -3 953.1 76.25
0 4 -3 934.92 77.54
0 4 -3 950.46 78.02
0 4 -3 873.53 78.62
0 4 -3 865.29 76.25
0 4 -2 338.12 35.46
0 4 -2 335.26 30.83
0 4 -2 341.29 34
0 4 -2 326.44 33.3
0 4 -2 291.41 30.89
0 4 -2 331.96 36.07
0 4 -2 375.6 31.52
0 4 -2 336.42 32.99
0 4 -2 357.18 35.84
0 4 -2 297.4 31.75
0 4 -2 299.01 31.68
0 4 -2 294.66 30.05
0 4 -2 363.96 36.05
0 4 -2 343.51 32.98
0 4 -1 1105.54 87.52
0 4 -1 1027.89 82.11
0 4 -1 995.63 82.84
0 4 -1 961.81 82.31
0 4 -1 935.24 83.3
0 4 -1 1001.06 82.68
0 4 -1 924.96 82.27
0 4 -1 1053.6 80.75
0 4 -1 1085.24 87.84
0 4 -1 1072.09 81.77
0 4 -1 984.32 82.7
0 4 -1 956.28 82.58
0 4 -1 1098.01 86.36
0 4 -1 1036.93 83.56
0 4 -1 979.77 81.6
0 4 -1 895.93 80.17
0 4 -1 988.18 82.53
0 4 -1 969.62 82.59
0 4 -1 1008.69 85.76
0 4 0 158.78 21.46
0 4 0 122.9 17.01
0 4 0 100.28 15.86
0 4 0 141.25 18
0 4 0 159.83 17.5
0 4 0 140.3 17.12
0 4 0 157.61 21.02
0 4 0 158.1 16.61
0 4 0 130.76 14.99
0 4 0 108.07 18.38
0 4 0 118.32 16.6
0 4 0 131.76 16.64
0 4 0 125.84 17.13
0 4 0 113.96 15.08
0 4 0 137.81 16.84
0 4 0 163.73 17.71
0 4 0 123.24 18.86
0 4 0 134.78 16.64
0 4 1 774.78 65.05
0 4 1 781.66 63.07
0 4 1 739.94 67.01
0 4 1 726.89 63.5
0 4 1 803.99 62.17
0 4 1 730.98 63.36
0 4 1 726.47 59.75
0 4 1 702.12 59.61
0 4 1 716.57 65.95
0 4 1 686.78 60.23
0 4 1 772.48 63.16
0 4 1 716.38 61.82
0 4 1 748.97 64.7
0 4 1 769.74 62.99
0 4 1 674.75 60.73
0 4 1 677.32 59.31
0 4 1 749.4 61.65
0 4 1 774.97 61.93
0 4 1 703.27 61.43
0 4 1 701.75 61.34
0 4 2 8.21 7.35
0 4 2 16.71 7.93
0 4 2 8.37 6.76
0 4 2 8.1 5.03
0 4 2 12.21 6.83
0 4 2 -4.26 7.57
0 4 2 13.74 7.3
0 4 2 14.95 6.91
0 4 2 13.85 6.32
0 4 2 1.52 5.63
0 4 2 30.27 6.77
0 4 2 12.54 5.55
0 4 2 19.54 9.61
0 4 2 11.67 7.43
0 4 2 15.74 5.72
0 4 2 17.41 6.59
0 4 2 15.78 7.46
0 4 2 6.7 6.13
0 4 2 15.78 6.33
0 4 2 16.22 6.62
0 4 2 16.17 6.59
0 4 2 29.88 7.79
0 4 3 1093.21 90.34
0 4 3 1028.21 91.8
0 4 3 985.41 90.31
0 4 3 1099.09 94.77
0 4 3 1057.62 94.97
0 4 3 1096.56 91.7
0 4 3 1068.19 93.51
0 4 3 1230.24 90.14
0 4 3 1079.72 91.71
0 4 3 1158.75 89.8
0 4 3 1105.16 92.59
0 4 3 1066.93 88.39
0 4 3 1015.32 88.17
0 4 3 1041.26 88.55
0 4 3 1095.88 93.85
0 4 3 1122.07 92.43
0 4 3 1199.45 91.52
0 4 3 1097.9 90.71
0 4 3 1193.35 89.91
0 4 3 1208.77 90.04
0 4 3 1199.18 90.03
0 4 4 563.45 50.36
0 4 4 590.23 53.17
0 4 4 526.37 54.65
0 4 4 612.01 55.52
0 4 4 656.8 50.6
0 4 4 553.42 49.99
0 4 4 551.16 53.33
0 4 4 527.6 49.22
0 4 4 525.26 52.27
0 4 4 549.36 49.62
0 4 4 559.52 52.22
0 4 4 639.08 51.95
0 4 4 599.2 49.91
0 4 4 556.55 52.33
0 4 4 568.94 52.45
0 4 4 529.29 55.85
0 4 4 496.18 52.42
0 4 4 674.1 50.9
0 4 4 635.69 50.45
0 4 4 626.89 50.33
0 4 5 754.91 65.88
0 4 5 836.24 70.08
0 4 5 730.55 66.38
0 4 5 777.1 69.07
0 4 5 683.35 67.27
0 4 5 770.91 65.06
0 4 5 630.01 68.99
0 4 5 791.94 66.53
0 4 5 699.97 65.49
0 4 5 788.14 65.14
0 4 6 1187.1 112.26
0 4 6 1198.74 114.81
0 4 6 1409.11 114.53
0 4 6 1338.9 112.77
0 4 6 1350.67 111.75
0 4 6 1375.16 110.32
0 4 6 1465.96 111.19
0 4 6 1271.48 109.14
0 4 7 2.62 10.22
0 4 7 28.14 14.15
0 4 7 23.38 10.82
0 4 7 2.66 10.68
0 4 7 11.54 11.11
0 4 7 8 8.67
0 4 7 11.81 9.84
0 4 8 69.41 20.53
0 4 8 84.78 19.81
0 4 8 96.87 19.41
0 4 8 69.97 17.27
0 4 8 39.47 15.16
0 4 8 63.7 15.43
0 4 8 60.28 14.42
0 4 9 107.04 23.41
0 4 9 80.87 20.86
0 4 9 144.71 21.2
0 4 9 69.8 19.49
0 4 9 135.75 23.17
0 4 10 485.55 55.44
0 4 10 420.8 55.14
0 4 10 705.06 55.23
0 4 10 395.08 52.75
0 4 10 623.78 58.28
0 4 11 -7.23 14.44
0 4 11 18.83 13.87
0 4 11 -7.23 11.35
0 4 11 19.72 14.53
0 4 12 257.16 39.84
0 4 12 244.29 38.35
0 4 12 269.78 40.95
0 4 13 -7.13 17.79
0 4 13 40.96 18.78
0 4 13 27.63 17.14
0 5 -11 89.87 22.63
0 5 -11 116.28 22.84
0 5 -11 126.62 28.44
0 5 -10 215.87 30.18
0 5 -10 186.04 29.65
0 5 -10 227.68 35.49
0 5 -10 171.55 27.73
0 5 -9 67.34 20.03
0 5 -9 66.07 18.83
0 5 -9 43.74 15.83
0 5 -9 93.5 22.25
0 5 -9 50.9 16.52
0 5 -8 36.2 16.02
0 5 -8 30.38 15.52
0 5 -8 38.47 15.93
0 5 -8 28.32 16.2
0 5 -8 55.62 17.72
0 5 -7 -12.31 12.91
0 5 -7 7.11 11.81
0 5 -7 -2.92 11.99
0 5 -7 4.95 12.77
0 5 -6 318.32 37.66
0 5 -6 351.42 38.33
0 5 -6 319.83 37.64
0 5 -6 290.53 38
0 5 -6 361.72 36.53
0 5 -5 78.29 17.77
0 5 -5 73.29 16.53
0 5 -5 31.62 13.5
0 5 -5 68.64 14.92
0 5 -5 57.69 15.97
0 5 -4 804.13 72.29
0 5 -4 917.61 74.7
0 5 -4 772.15 71.82
0 5 -4 772.83 72.16
0 5 -4 809.78 76.04
0 5 -4 766.03 70.58
0 5 -3 15.29 9.7
0 5 -3 2.11 8.22
0 5 -3 3.91 8.84
0 5 -3 2.03 8.12
0 5 -3 19.77 12.48
0 5 -3 1.85 7.81
0 5 -2 399.93 44.97
0 5 -2 434.9 40.52
0 5 -2 473.05 42.9
0 5 -2 374.92 39.79
0 5 -2 388.52 40.38
0 5 -2 361.52 43.16
0 5 -2 401.05 40.47
0 5 -1 125.06 18.38
0 5 -1 115.97 18.85
0 5 -1 120.92 19.02
0 5 -1 141.25 19.01
0 5 -1 109.6 21.93
0 5 -1 139.84 22.81
0 5 0 849.46 86.18
0 5 0 1086.65 84.64
0 5 0 973.5 84.09
0 5 0 1002.79 82.75
0 5 0 924.44 87.28
0 5 1 644.16 63.78
0 5 1 690.2 60.73
0 5 1 618.04 57.75
0 5 1 695.81 60.38
0 5 1 673.89 58.41
0 5 1 605.82 62.53
0 5 2 103.14 16.42
0 5 2 152.2 23.22
0 5 2 113.37 18.75
0 5 2 119.98 17.98
0 5 2 124.78 18.44
0 5 2 86.2 14.93
0 5 2 105.68 19.4
0 5 3 332 40.19
0 5 3 369.89 36.31
0 5 3 349.2 38.41
0 5 3 367.32 37.94
0 5 3 353.63 36.49
0 5 3 328.8 37.03
0 5 3 334.6 38.31
0 5 3 338.71 34.26
0 5 4 194.77 24.82
0 5 4 183.49 24.45
0 5 4 190.81 28.3
0 5 4 225.28 28.46
0 5 4 201.1 26.86
0 5 4 174.98 26.08
0 5 4 217.73 26.21
0 5 4 166.98 21.95
0 5 5 588 60.51
0 5 5 636.58 60.93
0 5 5 647.62 58.13
0 5 5 517 58.96
0 5 5 607.06 56.83
0 5 5 638.88 57.8
0 5 5 605.16 58.25
0 5 6 33.81 15.77
0 5 6 30.97 14.95
0 5 6 25.76 13.14
0 5 6 41.65 13.29
0 5 6 38.19 12.22
0 5 6 32.45 12.11
0 5 6 17.62 12.84
0 5 7 393.71 53.64
0 5 7 609.55 55.55
0 5 7 506.68 54.54
0 5 7 577.5 57.14
0 5 7 508.56 51.52
0 5 7 551.18 52.01
0 5 8 -3.5 13.58
0 5 8 6.9 11.46
0 5 8 -8.29 11.34
0 5 8 6.45 11.76
0 5 9 437.43 43.08
0 5 9 410.19 45.57
0 5 9 442.6 48.9
0 5 10 38 19.99
0 5 10 64 17.02
0 5 10 70.95 21.62
0 5 10 39.03 18.42
0 5 11 452.22 40.62
0 5 11 397.94 44.26
0 5 12 46.93 20.04
0 5 12 71.35 23.26
0 5 12 70.07 18.72
0 6 -9 90.79 20.72
0 6 -9 19.1 15.36
0 6 -9 56.09 18.15
0 6 -9 90.67 23.84
0 6 -9 67.93 18.58
0 6 -8 -10.86 13.77
0 6 -8 -5.33 13.97
0 6 -8 7.7 13.24
0 6 -8 -3.21 15.71
0 6 -8 2.64 12.69
0 6 -7 144.97 24.2
0 6 -7 92.73 20.66
0 6 -7 81.58 22.34
0 6 -7 110.23 22.12
0 6 -6 2.58 13.11
0 6 -6 2.53 11.45
0 6 -6 5.62 12.42
0 6 -6 2.6 12.94
0 6 -5 760.14 73.03
0 6 -5 820.37 71.74
0 6 -5 836.91 74.01
0 6 -5 721.19 72.74
0 6 -4 273.39 35.05
0 6 -4 362.25 36.08
0 6 -4 301.03 39.84
0 6 -4 309.76 36.23
0 6 -4 246.34 33.45
0 6 -3 111.7 20.43
0 6 -3 75.21 17.3
0 6 -3 141.08 27.37
0 6 -3 111.77 20.9
0 6 -3 117.23 20
0 6 -2 92.42 18.86
0 6 -2 97.13 18.15
0 6 -2 52.85 19.75
0 6 -2 71.6 16.07
0 6 -2 65.24 16.12
0 6 -1 36.36 12.23
0 6 -1 46.33 14.31
0 6 -1 32.71 13.18
0 6 -1 19.69 15.91
0 6 -1 23.63 12
0 6 -1 15.78 14.42
0 6 0 351.13 37.73
0 6 0 340.18 35.58
0 6 0 310.92 40.9
0 6 0 286.95 40.1
0 6 1 477.48 48.16
0 6 1 406.02 44.75
0 6 1 522.85 53.8
0 6 1 436.95 51.9
0 6 1 591.52 51.39
0 6 2 680.8 67.93
0 6 2 595.23 67.42
0 6 2 771.47 67.13
0 6 2 677.1 63.64
0 6 3 -2.14 9.45
0 6 3 2.97 11.87
0 6 3 4.84 12.28
0 6 3 4.07 11.51
0 6 3 3.33 15.03
0 6 3 5.51 11.3
0 6 3 -2.26 9.26
0 6 4 357.08 38.67
0 6 4 311.59 40.44
0 6 4 314.31 38.32
0 6 4 319.38 38.65
0 6 4 362.96 41.89
0 6 4 424.38 45.98
0 6 4 362.79 38.27
0 6 5 5.52 12.79
0 6 5 22.33 13.95
0 6 5 12.2 11.77
0 6 5 14.01 11.05
0 6 5 18.67 14.69
0 6 5 14.1 11.12
0 6 5 20.11 15.82
0 6 6 596.96 64.87
0 6 6 702.01 63.59
0 6 6 607.58 63.12
0 6 6 647.73 62.6
0 6 6 732.07 64.83
0 6 6 674.89 67.21
0 6 6 601.37 66.08
0 6 7 60.54 19.83
0 6 7 82.4 20.17
0 6 7 79.44 21.34
0 6 7 80.32 18.42
0 6 8 150.29 29.77
0 6 8 153.66 27.27
0 6 8 188.24 31.92
0 6 8 209.77 28.55
0 6 9 97.72 26.44
0 6 9 139.31 26.43
0 6 9 124.72 27.51
0 6 9 129.86 23.36
0 6 10 77.9 25.3
0 6 10 148.21 27.73
0 6 10 121.06 28.14
0 6 10 121.19 23.16
0 6 11 23.93 18.9
0 6 11 53.54 17.42
0 6 11 -3.99 21.01
0 6 11 70.64 22.9
0 7 -7 67.75 19.77
0 7 -7 68.27 18.72
0 7 -7 21.92 15.68
0 7 -6 156.4 26.83
0 7 -6 122.56 24.21
0 7 -5 18.02 13.61
0 7 -5 45.73 17.46
0 7 -5 16.4 13.74
0 7 -4 35.3 15.59
0 7 -4 32.52 14.01
0 7 -4 27.52 18.25
0 7 -4 46.99 16.04
0 7 -4 42.15 15.93
0 7 -3 209.46 30.14
0 7 -3 184.6 27.46
0 7 -3 157.58 31.46
0 7 -3 227.75 29.11
0 7 -3 175.39 28.19
0 7 -2 34.46 15.27
0 7 -2 11.72 10.94
0 7 -2 32.63 14.28
0 7 -2 9.76 12.05
0 7 -2 51.28 21.05
0 7 -1 440.09 46.5
0 7 -1 414.54 47.21
0 7 -1 452.65 47.07
0 7 -1 458.23 54.17
0 7 0 146.8 24.22
0 7 0 150.12 25.35
0 7 0 191.28 26.77
0 7 0 176.27 31.41
0 7 1 267.69 37.8
0 7 1 218.67 31.36
0 7 2 63.84 22.55
0 7 2 76.92 18.38
0 7 3 371.48 44.05
0 7 3 415.34 47.06
0 7 3 486.09 49.72
0 7 3 390.55 49.04
0 7 4 103.16 24
0 7 4 119.31 21.43
0 7 4 110.86 25.61
0 7 4 97.54 22.5
0 7 5 206.55 33.85
0 7 5 175.9 28.14
0 7 5 230.86 31.62
0 7 5 172.82 31.07
0 7 6 29.42 17.21
0 7 6 21.97 15.35
0 7 7 65.25 20.41
0 7 7 67.17 18.92
0 7 8 111.7 25.99
0 7 8 158.91 28.4
0 7 8 108.23 28.11
0 7 8 135.01 24.58
0 7 9 107.24 26.23
0 7 9 90.74 27.8
0 7 9 129.65 24.8
0 7 10 184.49 34.44
0 8 -4 218.71 30.4
0 8 -4 134.27 27.1
0 8 -3 5.49 14.87
0 8 -3 10.23 14.05
0 8 -3 3.68 18.67
0 8 -3 8.62 14.59
0 8 -2 183.79 30.07
0 8 -2 228.29 31.84
0 8 -2 222.78 36.28
0 8 -2 230.77 32.93
0 8 -1 21.17 13.89
0 8 -1 11.33 13.08
0 8 -1 -2.68 14.73
0 8 -1 -3.92 20.9
0 8 0 56.37 18.76
0 8 0 82.31 20.05
0 8 0 79.29 26.92
0 8 1 59.11 19.68
0 8 1 56.42 19.36
0 8 1 35.5 21.68
0 8 2 194.83 34.62
0 8 2 194.28 31.03
0 8 2 168.58 28.37
0 8 3 78.93 22.03
0 8 3 34.42 19.5
0 8 3 56.37 17.69
0 8 4 96.94 26.9
0 8 4 215.42 31.1
0 8 5 163.59 32.01
0 8 5 180.41 32.48
0 8 5 188.59 30.52
0 8 6 3.97 16.75
0 8 6 -3.49 17.07
0 8 6 21.53 16.14
1 -8 -5 62.54 25.49
1 -8 -5 103.33 25.05
1 -8 -5 125.45 31.8
1 -8 -4 145.31 36.24
1 -8 -4 166.14 30.13
1 -8 -4 204.79 33.06
1 -8 -4 163.03 34.45
1 -8 -3 203.45 39.39
1 -8 -3 147.04 29.07
1 -8 -3 131.4 30.48
1 -8 -3 174.85 29.91
1 -8 -2 18.51 23.4
1 -8 -2 64.3 23.42
1 -8 -2 37.9 17.53
1 -8 -1 73.89 20.36
1 -8 -1 65.02 20.26
1 -8 -1 62.69 19.51
1 -8 -1 57.25 19.21
1 -8 -1 105.71 23.16
1 -8 -1 128.62 27.14
1 -8 -1 73.63 21.81
1 -8 -1 102.45 22.56
1 -8 0 43.06 18.25
1 -8 0 22.86 14.63
1 -8 0 10.78 19.54
1 -8 0 40.48 19.74
1 -8 0 52.17 19.21
1 -8 0 14.48 14.83
1 -8 0 20.25 18.09
1 -8 0 23.1 15.51
1 -8 0 25.82 16.55
1 -8 1 130.93 24.84
1 -8 1 90.81 23.25
1 -8 1 107.05 23.48
1 -8 1 121 25.71
1 -8 1 140.03 26.08
1 -8 1 118.78 24.89
1 -8 2 11.78 14.04
1 -8 2 20.55 16.97
1 -8 2 54.15 18.93
1 -8 2 35.3 18.92
1 -8 2 53.3 18.42
1 -8 2 23.76 15.23
1 -8 3 130.54 26.24
1 -8 3 99.09 22.98
1 -8 3 116.61 24.26
1 -8 3 124.72 24.73
1 -8 3 101.59 24.22
1 -7 -9 88.18 26.47
1 -7 -8 59.15 25.18
1 -7 -8 76.08 28.6
1 -7 -8 45.53 20.45
1 -7 -8 44.19 21.44
1 -7 -7 152.11 31.35
1 -7 -7 138.79 33.71
1 -7 -7 104.99 24.92
1 -7 -7 133.76 29.04
1 -7 -6 348.55 46.62
1 -7 -6 217.78 42.78
1 -7 -6 255.9 38.08
1 -7 -6 335.85 42.35
1 -7 -6 247.41 42.26
1 -7 -5 37.86 22.15
1 -7 -5 60.75 20.02
1 -7 -5 51.18 20.05
1 -7 -5 52.72 21.73
1 -7 -4 147.57 33.54
1 -7 -4 86.56 27.24
1 -7 -4 168.05 28.62
1 -7 -4 137.18 28.61
1 -7 -4 128.14 26.02
1 -7 -3 3.06 14.41
1 -7 -3 2.63 12.87
1 -7 -3 7.88 12.62
1 -7 -3 -21.79 17.44
1 -7 -3 -7.97 13.25
1 -7 -3 -12.25 14.13
1 -7 -3 11.26 17.68
1 -7 -3 -5.29 12.71
1 -7 -3 2.62 13.08
1 -7 -2 183.24 29.57
1 -7 -2 186.92 27.64
1 -7 -2 205.27 28.91
1 -7 -2 155.5 27.52
1 -7 -2 138.45 25.62
1 -7 -2 224.02 31.09
1 -7 -2 195.99 32.16
1 -7 -2 157.69 27.35
1 -7 -2 190.59 27.5
1 -7 -1 -2.98 13.15
1 -7 -1 7.86 12.34
1 -7 -1 5.31 12.25
1 -7 -1 -3.28 16.05
1 -7 -1 5.32 12.78
1 -7 -1 10.71 12.6
1 -7 -1 -8.33 12.55
1 -7 -1 -3.37 14.56
1 -7 -1 2.67 13.53
1 -7 -1 -7.94 13.88
1 -7 0 491.16 52.68
1 -7 0 504.59 52.19
1 -7 0 491.67 51.44
1 -7 0 496.99 51.51
1 -7 0 520.96 52.45
1 -7 0 520 55.57
1 -7 0 559.84 53.11
1 -7 0 446.87 50.5
1 -7 0 376.92 48.6
1 -7 1 16.2 13.7
1 -7 1 -10.85 11.7
1 -7 1 5.47 12.88
1 -7 1 13.7 13.16
1 -7 1 17.62 13.82
1 -7 1 -5.08 12.2
1 -7 1 3.02 13.33
1 -7 1 -2.73 11.78
1 -7 1 5.42 13.28
1 -7 2 123.86 22.76
1 -7 2 108.64 22.7
1 -7 2 85.08 20.68
1 -7 2 96.27 21.69
1 -7 2 119.58 24.05
1 -7 2 130.37 23.65
1 -7 2 118.48 22.64
1 -7 3 137.55 25.45
1 -7 3 105.17 24.72
1 -7 3 174.94 25.77
1 -7 3 140.48 26.41
1 -7 3 126.66 24.34
1 -7 3 166.1 26.46
1 -7 3 136.02 25.37
1 -7 4 82.82 20.15
1 -7 4 72.06 19.21
1 -7 4 37.99 17.23
1 -7 4 51.39 18.06
1 -7 4 86.57 19.62
1 -7 4 62.87 18.67
1 -7 4 63.21 18.37
1 -7 5 70.37 21.07
1 -7 5 97.52 21.26
1 -7 5 95.86 22.27
1 -7 5 78.5 19.61
1 -7 5 67.25 20.28
1 -7 5 52.14 19.35
1 -7 6 70.4 20.1
1 -7 6 41.21 19.97
1 -7 6 109.83 22.16
1 -7 6 54.23 19.04
1 -7 6 77.5 20.96
1 -7 6 82.39 21.63
1 -7 6 91.74 21.92
1 -7 7 91.96 22.21
1 -6 -10 90.12 28.94
1 -6 -9 221.24 39.44
1 -6 -9 130.08 29.59
1 -6 -8 52.35 21.53
1 -6 -8 26.72 21.16
1 -6 -8 45.95 18.76
1 -6 -8 26.26 18.23
1 -6 -7 282.22 37.4
1 -6 -7 201.39 40.85
1 -6 -7 181.8 31.99
1 -6 -7 233.83 34.94
1 -6 -6 39.94 21.34
1 -6 -6 21.14 19.38
1 -6 -6 56.56 18.83
1 -6 -6 47.97 20.53
1 -6 -6 50.99 16.07
1 -6 -5 361.07 45.2
1 -6 -5 354.58 42.92
1 -6 -5 406.85 53.03
1 -6 -5 487.39 54.11
1 -6 -5 376.8 43.54
1 -6 -5 450.96 51.38
1 -6 -5 479.44 49.42
1 -6 -5 377.29 43.21
1 -6 -5 416.52 44.29
1 -6 -4 5.6 11.49
1 -6 -4 16.82 12.6
1 -6 -4 12.06 17.36
1 -6 -4 -2.4 10.82
1 -6 -4 -2.43 10.97
1 -6 -4 3.54 15.63
1 -6 -4 -2.92 11.35
1 -6 -4 -2.39 10.32
1 -6 -4 -7.22 11.33
1 -6 -3 731.14 66.86
1 -6 -3 681.42 64.19
1 -6 -3 727.15 64.94
1 -6 -3 628.47 63.73
1 -6 -3 674.93 69.6
1 -6 -3 707.42 66.43
1 -6 -3 628.35 63.02
1 -6 -3 638.25 63.38
1 -6 -2 175.93 25.46
1 -6 -2 131.36 22.89
1 -6 -2 184.87 27.37
1 -6 -2 131.03 22.95
1 -6 -2 113.2 22.12
1 -6 -2 165.18 24.64
1 -6 -2 156.91 24.09
1 -6 -2 145.49 24.21
1 -6 -2 132.81 26.91
1 -6 -1 170.29 25.34
1 -6 -1 181.28 28.83
1 -6 -1 149.49 25.48
1 -6 -1 150.66 24.45
1 -6 -1 185.75 26.13
1 -6 -1 209.78 27.2
1 -6 -1 188.77 25.74
1 -6 -1 158.7 25.37
1 -6 -1 150.17 24.18
1 -6 0 114.49 22.21
1 -6 0 83.04 19.3
1 -6 0 101.54 20.5
1 -6 0 116.39 21.66
1 -6 0 112.21 20.78
1 -6 0 112.98 20.66
1 -6 0 131.54 20.5
1 -6 0 133.84 23.69
1 -6 0 109.4 21.22
1 -6 0 142.35 22.39
1 -6 1 239.93 29.28
1 -6 1 189.1 26.45
1 -6 1 181.15 26.24
1 -6 1 174.74 26.25
1 -6 1 195.2 27.13
1 -6 1 162.56 25.64
1 -6 1 168.86 25.83
1 -6 1 177.92 26.58
1 -6 1 145.61 25.96
1 -6 1 171.31 25.08
1 -6 2 164.37 22.48
1 -6 2 109.23 22.56
1 -6 2 119.11 22
1 -6 2 102.58 20.85
1 -6 2 116.34 22.45
1 -6 2 142.38 23.48
1 -6 2 217.98 27.01
1 -6 2 146.37 23.64
1 -6 2 163.71 24.65
1 -6 2 145.17 23.25
1 -6 3 74.21 17.75
1 -6 3 63.52 17.14
1 -6 3 46.58 15.82
1 -6 3 105.08 19.36
1 -6 3 79.79 18.49
1 -6 3 89.58 19.32
1 -6 3 88.83 19.76
1 -6 3 64.06 17
1 -6 4 238.21 31.81
1 -6 4 295.82 34.69
1 -6 4 315 35.66
1 -6 4 253.56 33.64
1 -6 4 259.81 33.86
1 -6 4 280.67 34.72
1 -6 4 222.57 32.59
1 -6 4 249.24 33.89
1 -6 5 26.65 13.63
1 -6 5 27.81 15.6
1 -6 5 32.57 14.34
1 -6 5 18.29 14.24
1 -6 5 21.48 15.06
1 -6 5 18.83 14.21
1 -6 5 18.9 14.72
1 -6 6 234.04 31.89
1 -6 6 196.23 31
1 -6 6 222.71 31.36
1 -6 6 213.88 30.41
1 -6 6 223.3 31.57
1 -6 6 223.42 31.58
1 -6 6 221.71 31.58
1 -6 7 2.77 13.57
1 -6 7 -3.06 14.12
1 -6 7 -2.85 12.88
1 -6 7 2.8 12.66
1 -6 7 8.48 14.34
1 -6 7 19.79 14.34
1 -6 7 -2.84 13.64
1 -6 8 67.22 19.87
1 -6 8 108.37 24.43
1 -6 8 86.8 20.99
1 -6 8 78.01 21.83
1 -6 8 123.52 23.65
1 -6 8 74.64 21.53
1 -6 8 124.04 23.89
1 -6 9 28.08 16.94
1 -6 9 32.11 16.24
1 -6 9 47.06 18.34
1 -6 9 69.52 18.88
1 -6 9 84.47 20.51
1 -6 9 37.7 17.68
1 -6 9 85.58 23.3
1 -5 -12 207.32 36.55
1 -5 -12 61.57 26.15
1 -5 -11 72.59 24.8
1 -5 -11 57.99 24.26
1 -5 -10 292.21 42.43
1 -5 -10 171.74 35.08
1 -5 -9 55.19 21.22
1 -5 -9 61.77 19.83
1 -5 -9 47.4 20.76
1 -5 -9 65.01 24.87
1 -5 -8 534.36 60.64
1 -5 -8 558.83 60.32
1 -5 -8 522.22 61.52
1 -5 -8 674.1 61.57
1 -5 -8 662.93 69.01
1 -5 -7 31.18 13.82
1 -5 -7 54.83 17.13
1 -5 -7 61.14 18.74
1 -5 -7 39.72 20.11
1 -5 -7 64.93 19.43
1 -5 -6 394.4 47.56
1 -5 -6 463.04 48.8
1 -5 -6 448.26 44.44
1 -5 -6 379.74 42.83
1 -5 -6 411.69 45.72
1 -5 -6 500.87 51.33
1 -5 -6 474.57 53.08
1 -5 -6 426.1 44.36
1 -5 -6 330.31 41.74
1 -5 -6 399.28 43.57
1 -5 -5 22.47 14.27
1 -5 -5 53.72 17.57
1 -5 -5 35.6 13.54
1 -5 -5 28.8 12.65
1 -5 -5 48.67 15.5
1 -5 -5 39.91 13.33
1 -5 -5 29.22 16.69
1 -5 -5 24.55 11.65
1 -5 -5 68.82 15.89
1 -5 -4 625.13 63.46
1 -5 -4 661 61.76
1 -5 -4 691.13 61.24
1 -5 -4 573.65 57.69
1 -5 -4 557.15 57.44
1 -5 -4 608.67 58.32
1 -5 -4 652.31 58.93
1 -5 -4 601.8 58.17
1 -5 -3 488.86 47.54
1 -5 -3 371.95 41.31
1 -5 -3 409.08 41.79
1 -5 -3 450.38 41.14
1 -5 -3 337.95 38.84
1 -5 -3 390.88 40.06
1 -5 -3 356.87 39.55
1 -5 -3 326.96 38.59
1 -5 -3 374.13 39.59
1 -5 -3 342.53 38.77
1 -5 -2 151.06 21.46
1 -5 -2 129.65 20.3
1 -5 -2 95.91 18.15
1 -5 -2 124.82 19.81
1 -5 -2 92.15 18.21
1 -5 -2 95.73 17.47
1 -5 -2 160.85 22.01
1 -5 -2 108.38 21.72
1 -5 -1 298.4 35.27
1 -5 -1 238.16 30.4
1 -5 -1 294.58 32.98
1 -5 -1 242.76 30.78
1 -5 -1 283.61 31.92
1 -5 -1 382.82 34.22
1 -5 -1 251.42 31.11
1 -5 -1 275.47 31.54
1 -5 -1 266.71 31.53
1 -5 -1 239.82 30.53
1 -5 0 152.39 21.43
1 -5 0 128.76 20.14
1 -5 0 126.03 23.02
1 -5 0 128.48 20.83
1 -5 0 162.23 21.76
1 -5 0 136.3 20.72
1 -5 0 152.1 21.22
1 -5 0 136.83 21.29
1 -5 0 129.18 20.73
1 -5 0 136.64 20.99
1 -5 1 145.49 21.3
1 -5 1 190.08 26.08
1 -5 1 167.54 23.43
1 -5 1 180.1 23.66
1 -5 1 136.23 22.09
1 -5 1 165.09 23.17
1 -5 1 202.97 23.69
1 -5 1 165.58 23.54
1 -5 1 131.49 22.32
1 -5 1 164.77 23.1
1 -5 2 212.55 28.16
1 -5 2 208.18 25.5
1 -5 2 216.08 27.64
1 -5 2 275.49 29.77
1 -5 2 192 26.85
1 -5 2 237.11 28.13
1 -5 2 227.93 27.42
1 -5 2 195.77 27.27
1 -5 2 215.55 27.73
1 -5 2 205.47 27.08
1 -5 3 1596.25 139.92
1 -5 3 1759.52 138.35
1 -5 3 1667.63 140.68
1 -5 3 1675.96 140.87
1 -5 3 1670.91 140.58
1 -5 3 1607.7 140.56
1 -5 3 1749.44 141.26
1 -5 3 1910.46 141.55
1 -5 3 1731.24 141.36
1 -5 3 1654.93 140.68
1 -5 3 1789.25 141.68
1 -5 4 70.3 16.16
1 -5 4 57.86 14.35
1 -5 4 34.89 13.44
1 -5 4 37.38 12.76
1 -5 4 70.76 16.11
1 -5 4 52.57 15.93
1 -5 4 41.35 13.46
1 -5 4 30.49 13
1 -5 4 55.92 14.83
1 -5 5 127.07 22.15
1 -5 5 113.05 19.36
1 -5 5 96.41 19.51
1 -5 5 93.84 19.33
1 -5 5 114.44 20.72
1 -5 5 128.9 21.58
1 -5 5 109.14 19.89
1 -5 5 67.57 17.73
1 -5 5 114.08 20.15
1 -5 6 13.36 14.13
1 -5 6 14.97 13
1 -5 6 27.75 14.37
1 -5 6 10.07 12.9
1 -5 6 27.52 13.24
1 -5 6 36.78 14.16
1 -5 6 32.45 14.6
1 -5 6 35.14 14.49
1 -5 7 88.55 20.93
1 -5 7 108.45 21.17
1 -5 7 75.26 18.65
1 -5 7 114.63 20.63
1 -5 7 70.59 18.53
1 -5 7 58.07 18.28
1 -5 7 100.74 20.03
1 -5 7 77.88 18.74
1 -5 8 73.01 20.51
1 -5 8 89.9 20
1 -5 8 85.57 21.65
1 -5 8 63.89 18.73
1 -5 8 122.38 21.82
1 -5 8 98.91 20.88
1 -5 8 75.07 19.51
1 -5 8 103.66 20.63
1 -5 9 276.31 35.73
1 -5 9 321.8 38.88
1 -5 9 292.31 39.86
1 -5 9 272.38 36.42
1 -5 9 254.89 35.56
1 -5 9 291.68 36.62
1 -5 9 284.45 37.06
1 -5 9 273.94 36.38
1 -5 10 39.4 16.55
1 -5 10 60.33 20.08
1 -5 10 43.91 17.86
1 -5 10 5.56 13.52
1 -5 10 28.87 16.46
1 -5 10 24.84 14.87
1 -5 10 27.8 15.86
1 -5 11 -6.44 16.61
1 -5 11 27.72 16.3
1 -5 11 2.8 14.68
1 -5 11 -8.38 14.4
1 -4 -12 7.08 17.65
1 -4 -12 -4.79 19.66
1 -4 -11 385.02 48.58
1 -4 -11 343.73 50.62
1 -4 -10 7.15 16.85
1 -4 -10 8.9 14.81
1 -4 -10 16.75 17.66
1 -4 -9 188.76 32.87
1 -4 -9 159.4 27.68
1 -4 -9 194.48 28.52
1 -4 -9 161.05 29.78
1 -4 -9 140.37 29.32
1 -4 -8 246.69 35.63
1 -4 -8 186.56 28.6
1 -4 -8 209.09 31.93
1 -4 -8 195.95 29.93
1 -4 -8 229.28 33.04
1 -4 -7 918.53 86.59
1 -4 -7 866.85 85.89
1 -4 -7 859.26 82.11
1 -4 -7 864.14 82.02
1 -4 -7 1126.77 86.28
1 -4 -7 902.84 82.51
1 -4 -7 1134.82 93.91
1 -4 -7 964.4 85.61
1 -4 -7 955.38 84.64
1 -4 -7 902.4 82.65
1 -4 -7 930.28 82.84
1 -4 -6 270.08 30.85
1 -4 -6 221.85 30.42
1 -4 -6 180.97 28.38
1 -4 -6 192.97 26.13
1 -4 -6 213.12 27.27
1 -4 -6 240.58 30.09
1 -4 -6 169.48 25.26
1 -4 -6 188.05 27.44
1 -4 -6 259.05 30.18
1 -4 -6 174.86 25.75
1 -4 -6 225.02 27.29
1 -4 -5 177.87 24.84
1 -4 -5 191.25 25.41
1 -4 -5 186.29 26.98
1 -4 -5 222.62 28.9
1 -4 -5 190.25 24.74
1 -4 -5 170.9 23.7
1 -4 -5 233.48 29.1
1 -4 -5 198.25 25.1
1 -4 -5 196.9 25.01
1 -4 -5 157.48 23.46
1 -4 -4 159.84 20.8
1 -4 -4 166.05 23.32
1 -4 -4 150.25 23.33
1 -4 -4 157.47 19.63
1 -4 -4 157.17 24.79
1 -4 -4 178.45 22.87
1 -4 -4 146.82 21.79
1 -4 -4 159.48 22.31
1 -4 -4 173.15 22.63
1 -4 -4 170.34 22.58
1 -4 -3 315.03 29.85
1 -4 -3 269.13 31.99
1 -4 -3 299.7 35.75
1 -4 -3 278.07 32
1 -4 -3 373.24 32.38
1 -4 -3 255.56 30.54
1 -4 -3 281.4 31.6
1 -4 -3 300.95 32.14
1 -4 -3 274.75 31.31
1 -4 -3 250.42 30.77
1 -4 -2 1802.85 140.29
1 -4 -2 1897.8 143.31
1 -4 -2 1741.87 144.25
1 -4 -2 1819.8 145.58
1 -4 -2 1959.34 149.78
1 -4 -2 1788.37 145.26
1 -4 -2 1815.99 144.7
1 -4 -2 1723.08 144.12
1 -4 -2 1720.22 144.14
1 -4 -2 1663.02 143.87
1 -4 -1 70.63 14.24
1 -4 -1 90.52 14.21
1 -4 -1 110.26 15.67
1 -4 -1 77.13 14.13
1 -4 -1 72.03 16.31
1 -4 -1 81.61 14.74
1 -4 -1 74.64 11.63
1 -4 -1 75.15 14.3
1 -4 -1 60.46 15.64
1 -4 -1 56.28 12.66
1 -4 -1 84.92 14.16
1 -4 -1 59.78 13.18
1 -4 -1 72.26 12.11
1 -4 0 750.46 71.28
1 -4 0 996.12 73.22
1 -4 0 890.69 72.54
1 -4 0 871.46 75.42
1 -4 0 816.96 71.48
1 -4 0 873.25 72.96
1 -4 0 720.34 68.25
1 -4 0 748.08 71.27
1 -4 0 1001.94 76.77
1 -4 0 842.43 72.45
1 -4 0 814.76 71.97
1 -4 0 782.9 71.63
1 -4 0 814.17 71.76
1 -4 1 37.77 11.12
1 -4 1 26.2 9.67
1 -4 1 27.37 9.15
1 -4 1 18.67 8.35
1 -4 1 16.74 10.01
1 -4 1 37.77 11.25
1 -4 1 17.58 7.41
1 -4 1 16.32 9.37
1 -4 1 51.58 13.07
1 -4 1 37.76 10.73
1 -4 1 17.92 8.79
1 -4 1 23.52 9.35
1 -4 1 13.85 8.52
1 -4 2 713.36 64.79
1 -4 2 701.91 64.3
1 -4 2 825.3 65.47
1 -4 2 711.96 65.58
1 -4 2 632.36 61.84
1 -4 2 724.27 64.71
1 -4 2 720.37 64.7
1 -4 2 671.31 64.33
1 -4 2 796.99 66.81
1 -4 2 736.08 65.44
1 -4 2 797.22 65.86
1 -4 2 741.53 65.25
1 -4 2 733.17 62.94
1 -4 3 71.84 14.1
1 -4 3 69.21 14.4
1 -4 3 72.53 12.04
1 -4 3 52.52 12.83
1 -4 3 41.4 11.85
1 -4 3 73.62 15.67
1 -4 3 56.1 14.03
1 -4 3 53.03 13.06
1 -4 3 78.48 14.36
1 -4 3 86.88 15.67
1 -4 3 65.49 14.09
1 -4 3 95.74 15.66
1 -4 4 246.44 29.19
1 -4 4 269.64 30.69
1 -4 4 293.53 31.17
1 -4 4 274.95 30.49
1 -4 4 273.47 30.85
1 -4 4 230.32 29.34
1 -4 4 284.56 30.78
1 -4 4 217.36 28.97
1 -4 4 272.34 30.85
1 -4 5 202.89 24.37
1 -4 5 173.88 24.43
1 -4 5 187.64 25.05
1 -4 5 192.17 25.65
1 -4 5 193.76 25.76
1 -4 5 203.63 25.93
1 -4 5 202.48 26.2
1 -4 5 193.62 25.67
1 -4 5 201.68 26.32
1 -4 6 286.67 32.79
1 -4 6 269.86 32.85
1 -4 6 309.21 34.05
1 -4 6 256.84 32.5
1 -4 6 271.4 32.63
1 -4 6 260.97 32.71
1 -4 6 318.38 34.47
1 -4 6 316.03 35.28
1 -4 7 130.74 20.93
1 -4 7 131.47 21.52
1 -4 7 106.99 19.82
1 -4 7 121.32 21.03
1 -4 7 113.01 20.63
1 -4 7 99.67 19.77
1 -4 7 130.52 22.85
1 -4 7 141.48 22.98
1 -4 8 240.18 31.91
1 -4 8 227.02 31.78
1 -4 8 287.46 34.38
1 -4 8 296.72 34.75
1 -4 8 286.18 34.15
1 -4 8 248.58 32.81
1 -4 8 298.13 35.93
1 -4 8 341.1 37.72
1 -4 9 235.82 31.71
1 -4 9 237.33 32.59
1 -4 9 212.22 31.52
1 -4 9 322.83 36.88
1 -4 9 290.88 36.78
1 -4 9 253.43 33.03
1 -4 9 216.99 31.4
1 -4 9 306.49 34.06
1 -4 10 -5.23 11.54
1 -4 10 -2.75 12.69
1 -4 10 6.43 14.21
1 -4 10 -6.24 14.69
1 -4 10 -7.78 11.97
1 -4 10 10.47 12.81
1 -4 11 130.37 26.19
1 -4 11 221.93 32.51
1 -4 11 189.4 31.26
1 -4 11 155.19 26.64
1 -4 11 143.14 25.36
1 -4 12 -13.43 17.91
1 -4 12 -5.76 15.12
1 -3 -13 -8.97 19.82
1 -3 -13 -3.36 17.93
1 -3 -13 4.85 18.85
1 -3 -12 230.49 39.87
1 -3 -12 279.6 38.08
1 -3 -12 182.93 37.54
1 -3 -11 195.33 36.61
1 -3 -11 275.47 36.1
1 -3 -11 327.83 38.58
1 -3 -11 169.88 37.98
1 -3 -10 32.58 18.36
1 -3 -10 46.12 18.4
1 -3 -10 37.48 20.29
1 -3 -10 64.29 18.16
1 -3 -9 38.61 14.82
1 -3 -9 43.29 16.85
1 -3 -9 19.19 16.88
1 -3 -9 53.74 16.74
1 -3 -9 50.58 14.88
1 -3 -9 38.08 14.01
1 -3 -9 38.11 15.23
1 -3 -9 54.77 18.49
1 -3 -9 51.82 18.44
1 -3 -9 48.34 14.58
1 -3 -8 1325.5 122.19
1 -3 -8 1450.51 122.12
1 -3 -8 1577.67 122.81
1 -3 -8 1267.17 124.42
1 -3 -8 1636.19 122.55
1 -3 -8 1309.6 118.62
1 -3 -8 1359.75 118.78
1 -3 -8 1340.87 118.61
1 -3 -8 1440.28 122.82
1 -3 -8 1631.16 126.43
1 -3 -8 1397.39 119.14
1 -3 -7 393.4 49.46
1 -3 -7 530.14 50.88
1 -3 -7 483.16 49.61
1 -3 -7 462.38 52.6
1 -3 -7 586.94 49.85
1 -3 -7 452.28 47.55
1 -3 -7 430.14 46.99
1 -3 -7 475.37 47.1
1 -3 -7 469.86 47.7
1 -3 -7 557.49 48.28
1 -3 -7 454.59 47.33
1 -3 -7 513.47 50.04
1 -3 -7 598.38 55.84
1 -3 -6 72.46 15.52
1 -3 -6 50.12 14
1 -3 -6 75.09 14.68
1 -3 -6 81.13 14.12
1 -3 -6 68.88 16.17
1 -3 -6 80.19 15.75
1 -3 -6 72.57 14.68
1 -3 -6 83.22 16.17
1 -3 -6 98.31 17.86
1 -3 -6 89.94 16.7
1 -3 -6 60.53 16.2
1 -3 -6 73.47 15.28
1 -3 -6 78.76 14.98
1 -3 -5 2340.1 153.98
1 -3 -5 1786.49 150
1 -3 -5 1925.91 147.79
1 -3 -5 1715.73 147.34
1 -3 -5 1750.2 146.14
1 -3 -5 2011.55 150.62
1 -3 -5 1987.46 147.33
1 -3 -5 1704.08 146.81
1 -3 -5 1876.03 151.26
1 -3 -5 2014.78 145.78
1 -3 -5 1775.52 147.82
1 -3 -5 1803.28 150.79
1 -3 -5 1635.18 148.95
1 -3 -5 1725.53 148.53
1 -3 -5 1990.24 143.6
1 -3 -5 1901.86 146.33
1 -3 -5 1748.65 147.46
1 -3 -5 1613.34 146.82
1 -3 -5 1680.82 147.16
1 -3 -4 59.68 15.07
1 -3 -4 69.93 14.18
1 -3 -4 70.09 11.88
1 -3 -4 70.05 15.09
1 -3 -4 39.71 10.63
1 -3 -4 60.36 9.89
1 -3 -4 69.03 10.82
1 -3 -4 54.96 11.88
1 -3 -4 76.4 12.69
1 -3 -4 59.17 13.01
1 -3 -4 57.22 9.6
1 -3 -4 49.52 12.73
1 -3 -4 66.8 11.14
1 -3 -4 49.49 14.04
1 -3 -4 49.31 11.79
1 -3 -4 67.81 14.02
1 -3 -4 60 12.09
1 -3 -4 70.3 13.03
1 -3 -4 67.9 13.09
1 -3 -3 947.5 73.88
1 -3 -3 944.77 74.64
1 -3 -3 844.39 72.67
1 -3 -3 807.62 67.49
1 -3 -3 935.03 71.71
1 -3 -3 747.32 65.04
1 -3 -3 730.25 68.99
1 -3 -3 888.47 69.02
1 -3 -3 839.1 65.2
1 -3 -3 817.19 69.28
1 -3 -3 788.05 70.69
1 -3 -3 784.93 71.03
1 -3 -3 774 72.54
1 -3 -3 868.34 67.16
1 -3 -3 855.25 70.99
1 -3 -3 833.3 67.46
1 -3 -3 779.36 69.36
1 -3 -3 696.88 68.67
1 -3 -3 770.08 69.33
1 -3 -3 705.82 68.87
1 -3 -2 225.77 24.81
1 -3 -2 225.23 25.87
1 -3 -2 206.95 20.6
1 -3 -2 203.23 23.57
1 -3 -2 173.42 22.06
1 -3 -2 197.91 24.74
1 -3 -2 207.88 20.36
1 -3 -2 183.12 22.12
1 -3 -2 207.04 24.73
1 -3 -2 166.66 21.14
1 -3 -2 172.45 16.77
1 -3 -2 170.6 21.44
1 -3 -2 166.61 21.2
1 -3 -2 173.47 21.4
1 -3 -2 172.8 21.4
1 -3 -2 221.06 23.02
1 -3 -1 1198.57 92.83
1 -3 -1 1143.08 90.36
1 -3 -1 1078.07 85.45
1 -3 -1 1123.5 89.28
1 -3 -1 1141.96 90.85
1 -3 -1 1145.38 89.71
1 -3 -1 999.17 88.82
1 -3 -1 1094.97 92.35
1 -3 -1 989.05 88.89
1 -3 -1 1167.33 88.64
1 -3 -1 1098.88 91.1
1 -3 -1 1128.46 88.18
1 -3 -1 1002.49 88.82
1 -3 -1 1089.1 89.39
1 -3 -1 927.9 88.2
1 -3 -1 1068.43 89.39
1 -3 -1 1029.67 88.95
1 -3 0 468.11 38.84
1 -3 0 426.01 41.16
1 -3 0 374.64 33.72
1 -3 0 419.85 38.73
1 -3 0 459.48 40.71
1 -3 0 455.28 39.6
1 -3 0 408.75 38.57
1 -3 0 422.5 41.36
1 -3 0 408.69 38.99
1 -3 0 398.95 37.1
1 -3 0 443.77 39.87
1 -3 0 416.94 38.14
1 -3 0 392.4 38.86
1 -3 0 382.33 38.48
1 -3 0 427.29 39.28
1 -3 0 394.94 38.82
1 -3 0 406.21 39.88
1 -3 0 447 37.01
1 -3 0 430.27 33.67
1 -3 1 646.9 58.48
1 -3 1 651.7 52.67
1 -3 1 698.45 55.08
1 -3 1 655.99 58.7
1 -3 1 620.73 58.27
1 -3 1 711.11 57.8
1 -3 1 628.53 58.42
1 -3 1 707.65 58.84
1 -3 1 705.52 58.45
1 -3 1 630.2 58.36
1 -3 1 647.14 60.2
1 -3 1 727.78 58.09
1 -3 1 657.58 58.28
1 -3 1 660.49 56.73
1 -3 1 757.97 59.8
1 -3 1 640.66 58.38
1 -3 1 776.2 61.11
1 -3 2 185.46 17.85
1 -3 2 152.83 18.59
1 -3 2 168.76 19.74
1 -3 2 147.55 17.83
1 -3 2 153.79 19.25
1 -3 2 166.94 20.02
1 -3 2 133.69 18.39
1 -3 2 178.44 19.83
1 -3 2 147.28 18.79
1 -3 2 179.41 18.8
1 -3 2 153.95 19.91
1 -3 2 138.18 16.93
1 -3 2 139.41 18.55
1 -3 2 177.84 18.5
1 -3 2 139.48 14.94
1 -3 2 148.27 18.85
1 -3 2 138.44 19.04
1 -3 2 185.17 21.14
1 -3 3 950.05 77.13
1 -3 3 907.53 76.88
1 -3 3 984.93 77.41
1 -3 3 921.07 75.34
1 -3 3 900.16 75.12
1 -3 3 858.05 76.3
1 -3 3 898.67 73.79
1 -3 3 933.56 75.15
1 -3 3 1022.17 77.68
1 -3 3 930.65 75.4
1 -3 3 822.68 71.05
1 -3 3 945.66 77.16
1 -3 3 815.2 73.9
1 -3 3 883.66 76.67
1 -3 3 961.3 77.33
1 -3 3 849.38 74.57
1 -3 3 973.09 77.4
1 -3 3 936.71 77.12
1 -3 4 624.89 56.55
1 -3 4 594.37 53.55
1 -3 4 635.18 56.69
1 -3 4 565.7 54.54
1 -3 4 634.19 52.56
1 -3 4 651.74 56.37
1 -3 4 658.08 56.88
1 -3 4 627.58 56.63
1 -3 4 615.63 56.09
1 -3 4 633.86 56.51
1 -3 4 627.58 56.4
1 -3 4 670.67 58.43
1 -3 5 288.31 32.54
1 -3 5 298.44 32.99
1 -3 5 311.34 30.54
1 -3 5 300.97 32.2
1 -3 5 323.31 33.01
1 -3 5 327.33 33.28
1 -3 5 269.74 31.72
1 -3 5 308.99 29.95
1 -3 5 309.22 33.3
1 -3 5 306.89 32.6
1 -3 5 319.2 32.71
1 -3 6 798.44 74.47
1 -3 6 851.42 75.06
1 -3 6 957.11 75.49
1 -3 6 846.51 75.52
1 -3 6 784.85 74.28
1 -3 6 881.2 76.63
1 -3 6 845.25 76.23
1 -3 6 890.21 72.67
1 -3 6 869.39 75.08
1 -3 6 844.25 75.12
1 -3 7 13.27 9.1
1 -3 7 2.04 8.13
1 -3 7 -6.41 8.29
1 -3 7 4.04 9.13
1 -3 7 2.03 9.56
1 -3 7 -1.52 7.02
1 -3 7 2.02 8.52
1 -3 7 -4.67 9.83
1 -3 7 2.32 9.54
1 -3 8 298.62 35.59
1 -3 8 298.19 34.65
1 -3 8 308.84 34.42
1 -3 8 281.57 34.25
1 -3 8 322.01 35.24
1 -3 8 306.95 35.11
1 -3 8 310.91 37.15
1 -3 8 371.7 38.96
1 -3 9 12.52 11.12
1 -3 9 -4.63 11.11
1 -3 9 -2.45 10.58
1 -3 9 8.48 12.48
1 -3 9 22.52 14.52
1 -3 9 -2.3 10.38
1 -3 9 -2.32 11.33
1 -3 10 146.45 24.46
1 -3 10 163.94 25.71
1 -3 10 180.27 28.88
1 -3 10 173.13 28.16
1 -3 10 164.81 24.86
1 -3 10 132.11 23.51
1 -3 11 5.44 12.86
1 -3 11 6.49 15.63
1 -3 11 9.68 14.62
1 -3 11 27.71 12.82
1 -3 11 22.88 14.01
1 -3 12 224.79 34.49
1 -3 12 233.25 34.58
1 -3 12 162.83 28.7
1 -3 13 11.4 14.48
1 -2 -14 25.89 22.01
1 -2 -14 35.1 19.7
1 -2 -13 105.76 30.53
1 -2 -13 115.51 30.8
1 -2 -13 131.97 33.15
1 -2 -13 146.25 28.22
1 -2 -12 139.01 33.03
1 -2 -12 178.24 33.94
1 -2 -12 210.49 36.14
1 -2 -12 140.18 27.54
1 -2 -11 173.41 37.98
1 -2 -11 235.22 38.33
1 -2 -11 302.92 43.47
1 -2 -11 341.79 38.17
1 -2 -11 282.09 37.51
1 -2 -10 540.34 51.01
1 -2 -10 414.3 47.99
1 -2 -10 529.59 49.09
1 -2 -10 370.81 44.45
1 -2 -10 422.03 45.88
1 -2 -10 324.36 50.18
1 -2 -10 405.51 51.15
1 -2 -10 469.14 54.08
1 -2 -10 394.15 45.01
1 -2 -10 516.1 49.1
1 -2 -10 388.44 45.09
1 -2 -9 213.03 28.1
1 -2 -9 188.5 27.6
1 -2 -9 226.53 27.83
1 -2 -9 134.07 23.23
1 -2 -9 129.74 22.97
1 -2 -9 160.97 24.26
1 -2 -9 145.24 29.39
1 -2 -9 149.03 27.67
1 -2 -9 181.36 31.16
1 -2 -9 210.81 27.94
1 -2 -9 132.38 23.21
1 -2 -8 660.22 67.53
1 -2 -8 772.59 68.29
1 -2 -8 784.46 68.09
1 -2 -8 653.51 63.21
1 -2 -8 684.56 64.6
1 -2 -8 804.42 70.49
1 -2 -8 644.62 63.84
1 -2 -8 718.13 65.37
1 -2 -8 625.94 63.67
1 -2 -8 828.11 69.06
1 -2 -7 -3.89 8.8
1 -2 -7 5.8 8.14
1 -2 -7 1.98 7.24
1 -2 -7 4.58 9.15
1 -2 -7 -2.56 8.35
1 -2 -7 8.92 10.07
1 -2 -7 1.97 7.67
1 -2 -7 -2.4 9.04
1 -2 -7 8.14 6.64
1 -2 -7 29.19 13.16
1 -2 -7 -1.77 8.15
1 -2 -6 1237.63 97.92
1 -2 -6 1087.44 91.13
1 -2 -6 1079.45 95.36
1 -2 -6 1140.76 95.85
1 -2 -6 1086.55 94.57
1 -2 -6 1019.39 98.14
1 -2 -6 1134.53 97.7
1 -2 -6 1209.84 97.78
1 -2 -6 1068.97 94.44
1 -2 -6 1226.42 95.8
1 -2 -6 1032.77 94.93
1 -2 -6 1350.01 94.96
1 -2 -6 1312.21 95.38
1 -2 -6 1116.16 95.6
1 -2 -6 1069.17 95.83
1 -2 -5 101.03 14.9
1 -2 -5 125.18 18.63
1 -2 -5 153.65 20.2
1 -2 -5 179.46 20.49
1 -2 -5 95.2 17.18
1 -2 -5 123.67 19.64
1 -2 -5 126.76 16.74
1 -2 -5 126.97 12.63
1 -2 -5 100.7 15.93
1 -2 -5 136.43 16.96
1 -2 -5 120 16.14
1 -2 -5 128.6 17.24
1 -2 -5 120.96 13.33
1 -2 -5 107.98 16.23
1 -2 -5 77.86 14.77
1 -2 -5 104.19 16.52
1 -2 -5 100.74 14.51
1 -2 -5 118.46 18.83
1 -2 -5 118.64 17.26
1 -2 -5 126.5 18.06
1 -2 -5 109.1 16.12
1 -2 -5 107.28 15.4
1 -2 -5 99.46 15.65
1 -2 -5 91.5 15.57
1 -2 -4 775.85 65.85
1 -2 -4 820.44 69.36
1 -2 -4 684.77 66.92
1 -2 -4 986.29 71.87
1 -2 -4 828.53 70.76
1 -2 -4 687.95 68.21
1 -2 -4 886.44 68.1
1 -2 -4 800.52 66.93
1 -2 -4 789.83 66.06
1 -2 -4 757.86 66.1
1 -2 -4 808.71 65.36
1 -2 -4 783.59 66
1 -2 -4 690.84 66.13
1 -2 -4 737.33 67.96
1 -2 -4 788.31 69.32
1 -2 -4 845.37 64.92
1 -2 -4 734.31 67.09
1 -2 -4 763.53 62.08
1 -2 -4 823.51 65.72
1 -2 -4 736.09 66.23
1 -2 -4 810.48 67.12
1 -2 -4 722.39 66.04
1 -2 -3 7.34 5.41
1 -2 -3 -1.27 5.23
1 -2 -3 6.88 5.07
1 -2 -3 6.8 6.61
1 -2 -3 1.76 7.23
1 -2 -3 7.1 3.7
1 -2 -3 20 7.85
1 -2 -3 -6.96 7.51
1 -2 -3 6.81 7.35
1 -2 -3 4.59 4.33
1 -2 -3 -2.88 5.92
1 -2 -3 3.35 4.94
1 -2 -3 10.13 6.75
1 -2 -3 0.91 3.85
1 -2 -3 -1.64 5.98
1 -2 -3 2.78 4.53
1 -2 -3 5.16 5.57
1 -2 -3 -1.12 5.08
1 -2 -3 9.05 5.31
1 -2 -3 -1.28 4.97
1 -2 -3 -1.28 5.26
1 -2 -2 1886.42 150.15
1 -2 -2 1968.23 151.78
1 -2 -2 2027.03 148.34
1 -2 -2 1784.35 152.47
1 -2 -2 1780.37 149.36
1 -2 -2 2110.51 153.01
1 -2 -2 1835.44 152.02
1 -2 -2 2147.68 153.36
1 -2 -2 1994.66 145.69
1 -2 -2 1708.6 150.41
1 -2 -2 1853.39 151.34
1 -2 -2 1758.56 151.94
1 -2 -2 2169.94 148.82
1 -2 -2 1895.69 150.15
1 -2 -2 1689.18 148.88
1 -2 -2 1788.05 149.48
1 -2 -2 1897.26 150.07
1 -2 -2 2037.48 150.4
1 -2 -2 1815.98 149.57
1 -2 -1 205.88 22.68
1 -2 -1 163.83 19.88
1 -2 -1 212.98 22.25
1 -2 -1 200.86 20.49
1 -2 -1 170.16 19.46
1 -2 -1 193.88 19.97
1 -2 -1 165.94 20.61
1 -2 -1 230.9 20.94
1 -2 -1 176.56 20.12
1 -2 -1 189.29 22.04
1 -2 -1 158.08 19.18
1 -2 -1 219.16 20.04
1 -2 -1 180.67 20.1
1 -2 -1 176.04 22.35
1 -2 -1 183.04 17.5
1 -2 -1 185.39 20.14
1 -2 -1 164.53 19.38
1 -2 -1 205.91 20.47
1 -2 -1 179.31 20.47
1 -2 0 1025.15 89.93
1 -2 0 1159.88 87.46
1 -2 0 1220.34 89.95
1 -2 0 1077.92 88.14
1 -2 0 1027.39 87.76
1 -2 0 956.13 87.01
1 -2 0 1109.66 88.12
1 -2 0 984.35 88.57
1 -2 0 1014.71 87.45
1 -2 0 1053.67 90.2
1 -2 0 1039.12 87.69
1 -2 0 1198.21 87.8
1 -2 0 1155.67 84.35
1 -2 0 1134.72 87.4
1 -2 0 1184.07 88.8
1 -2 0 1113.79 88.29
1 -2 0 1078.73 87.99
1 -2 0 1045.61 88.59
1 -2 1 3094.3 245.06
1 -2 1 3594.62 244.98
1 -2 1 3279.79 242.09
1 -2 1 2956.75 239.24
1 -2 1 3185.33 240.76
1 -2 1 2984.37 243.11
1 -2 1 3188.95 243.5
1 -2 1 3320.05 242.45
1 -2 1 3024.83 243.16
1 -2 1 3322.71 243.36
1 -2 1 3115.6 242.86
1 -2 1 3066.91 243.8
1 -2 1 2944.49 241.88
1 -2 1 3202.09 245.25
1 -2 1 3190.33 242.81
1 -2 1 3501.91 242.75
1 -2 1 3079.76 243.33
1 -2 1 3390.97 243.86
1 -2 1 3054.33 243.77
1 -2 2 350.93 33.94
1 -2 2 394.74 35.62
1 -2 2 418.01 31.6
1 -2 2 348.71 28.83
1 -2 2 316.26 32.33
1 -2 2 370.05 33.16
1 -2 2 370.16 31.98
1 -2 2 322.01 32.39
1 -2 2 378.79 33.23
1 -2 2 316.73 32.29
1 -2 2 335.55 32.5
1 -2 2 353.2 32.12
1 -2 2 362.66 34.04
1 -2 2 343.27 30.84
1 -2 2 340.11 31.85
1 -2 2 385.45 32.58
1 -2 2 334.67 28.47
1 -2 2 356.1 32.97
1 -2 2 413.98 33.79
1 -2 2 339.63 32.88
1 -2 3 1309.27 111.85
1 -2 3 1541.87 108.55
1 -2 3 1504.91 111.21
1 -2 3 1410.46 110.73
1 -2 3 1266.06 110.35
1 -2 3 1319.93 109.49
1 -2 3 1346.82 110.87
1 -2 3 1529.73 110.3
1 -2 3 1353.64 110.68
1 -2 3 1412.47 107.67
1 -2 3 1610.6 110.66
1 -2 3 1352.95 110.27
1 -2 3 1399.49 109.92
1 -2 3 1242.73 105.48
1 -2 3 1348.87 110.77
1 -2 3 1382.96 109.23
1 -2 3 1520.73 111.47
1 -2 3 1503.81 111.21
1 -2 3 1422.25 110.81
1 -2 3 1195.6 109.98
1 -2 4 4.65 5.02
1 -2 4 -1.7 3.85
1 -2 4 1.4 5.46
1 -2 4 1.42 4.83
1 -2 4 4.88 4.51
1 -2 4 3.43 5.06
1 -2 4 6.02 3.36
1 -2 4 2.28 4.68
1 -2 4 7.92 5.75
1 -2 4 4.64 5.13
1 -2 4 1.24 4.81
1 -2 4 3.99 2.83
1 -2 4 1.3 4.41
1 -2 4 11.43 5.19
1 -2 4 9.19 5.4
1 -2 4 1.38 5.8
1 -2 4 3.92 4.27
1 -2 4 5.2 5.2
1 -2 4 7.73 6.68
1 -2 5 225.32 27.14
1 -2 5 266.21 24.76
1 -2 5 229.67 26.73
1 -2 5 226.99 24.68
1 -2 5 252.6 26.85
1 -2 5 245.84 27.39
1 -2 5 262.64 24.26
1 -2 5 285.71 28.38
1 -2 5 257.27 26.24
1 -2 5 227.83 24.36
1 -2 5 255.56 26.09
1 -2 5 282.09 26.8
1 -2 5 257.97 26.27
1 -2 5 236.67 25.31
1 -2 5 241.37 22.91
1 -2 5 287.26 27.66
1 -2 5 251.85 26.56
1 -2 5 279.93 27.44
1 -2 6 20.24 9.21
1 -2 6 9.34 7.91
1 -2 6 26.15 8.44
1 -2 6 30.39 9.25
1 -2 6 30.74 9.85
1 -2 6 26.75 8.02
1 -2 6 28.54 9.29
1 -2 6 27.09 9.09
1 -2 6 33.21 9.15
1 -2 6 39.63 9.76
1 -2 6 23 9.48
1 -2 7 1017.42 83.76
1 -2 7 935.83 82.61
1 -2 7 876.35 79.23
1 -2 7 989.07 82.04
1 -2 7 936.2 80.98
1 -2 7 976.42 81.5
1 -2 7 912.13 80.88
1 -2 7 942.65 79.66
1 -2 7 977.28 81.31
1 -2 7 907.14 81.39
1 -2 8 23.22 10.83
1 -2 8 9.75 9.6
1 -2 8 29.23 10.91
1 -2 8 10.47 10.48
1 -2 8 6.82 7.94
1 -2 8 12.2 9.05
1 -2 8 14.19 11.41
1 -2 8 12.03 10.19
1 -2 8 16.03 9.3
1 -2 9 456.41 43.55
1 -2 9 479.55 48.22
1 -2 9 450.87 47.45
1 -2 9 410.88 43.79
1 -2 9 449.5 44.87
1 -2 9 352.58 43.27
1 -2 9 452.73 44.8
1 -2 10 217.45 26.26
1 -2 10 208.36 30.29
1 -2 10 188.5 29.17
1 -2 10 178.45 25.63
1 -2 10 145.46 24.86
1 -2 10 204.96 27.66
1 -2 11 120.66 23.47
1 -2 11 187.86 29.6
1 -2 11 151.73 23.25
1 -2 11 125.32 22.51
1 -2 12 76.38 22.06
1 -2 12 57.39 19.52
1 -2 12 41.21 17.27
1 -2 13 3.47 16.02
1 -2 13 10.54 16.9
1 -2 13 16.95 14.1
1 -1 -14 47.12 22.23
1 -1 -14 21.14 19.67
1 -1 -14 24.9 20.25
1 -1 -14 49.66 26.33
1 -1 -13 131.94 31.2
1 -1 -13 128.33 33.83
1 -1 -13 206.13 31.38
1 -1 -13 171.39 29.36
1 -1 -13 89.44 32.32
1 -1 -12 50.61 21.58
1 -1 -12 96.95 28.22
1 -1 -12 72.74 21.78
1 -1 -12 127.41 25.03
1 -1 -12 96.05 28.89
1 -1 -11 434.23 52.47
1 -1 -11 416.36 52.34
1 -1 -11 294.08 48.84
1 -1 -11 285.1 40.24
1 -1 -11 345.81 42.47
1 -1 -11 357.63 42.65
1 -1 -11 482.6 47.55
1 -1 -11 512.76 49.44
1 -1 -10 2.5 11.53
1 -1 -10 3.88 14.64
1 -1 -10 8.37 13.14
1 -1 -10 17.29 14.37
1 -1 -10 14.62 11.71
1 -1 -10 -4.83 10.91
1 -1 -9 565.45 52.26
1 -1 -9 449.32 50.76
1 -1 -9 503.27 49.63
1 -1 -9 467.52 56.74
1 -1 -9 438.22 49.81
1 -1 -9 614.91 55.5
1 -1 -9 631.24 55.38
1 -1 -8 2.58 10.33
1 -1 -8 11.76 10.64
1 -1 -8 2.43 9.44
1 -1 -8 8.38 9.48
1 -1 -8 4.23 9.15
1 -1 -8 21.68 10.62
1 -1 -8 13.76 9.08
1 -1 -8 3.71 8.22
1 -1 -8 6.29 8.63
1 -1 -7 509.65 53.16
1 -1 -7 531.1 53.81
1 -1 -7 590.57 54.62
1 -1 -7 587.08 53.18
1 -1 -7 658.42 57.12
1 -1 -7 582.46 52.1
1 -1 -7 541.36 53.81
1 -1 -7 689.94 55.78
1 -1 -7 516.97 56.54
1 -1 -7 612.98 52.47
1 -1 -6 181.98 20.85
1 -1 -6 159.38 17.56
1 -1 -6 167.07 21.3
1 -1 -6 130.12 19.31
1 -1 -6 148.39 23.38
1 -1 -6 170.33 24
1 -1 -6 155.27 16.99
1 -1 -6 144.03 19.77
1 -1 -6 176.18 22.65
1 -1 -6 132.35 17.24
1 -1 -6 190.02 22.18
1 -1 -6 206.58 19.99
1 -1 -6 175.05 21.17
1 -1 -6 112.17 17.07
1 -1 -6 181.11 22.32
1 -1 -6 168 20.63
1 -1 -6 175.95 20.41
1 -1 -6 190.48 20.93
1 -1 -6 117.24 19
1 -1 -6 144.31 20.04
1 -1 -5 3042.13 220.75
1 -1 -5 2781.62 222.23
1 -1 -5 3277.8 225.04
1 -1 -5 2432.81 222.48
1 -1 -5 2896.38 227.32
1 -1 -5 2577.23 226.76
1 -1 -5 3038.28 219.66
1 -1 -5 2693.53 222.93
1 -1 -5 3613.19 227.98
1 -1 -5 3330.51 225.5
1 -1 -5 2453.11 220.53
1 -1 -5 3313.82 220.73
1 -1 -5 3053.22 223.45
1 -1 -5 2276.28 219.65
1 -1 -5 2367.01 220.68
1 -1 -5 3132.95 222.77
1 -1 -5 2968.26 224.94
1 -1 -5 3134.81 223.66
1 -1 -5 3072.61 222.94
1 -1 -5 2782.79 223.07
1 -1 -5 2719.55 223.27
1 -1 -4 436.8 41.87
1 -1 -4 506.15 41.81
1 -1 -4 566.18 45.1
1 -1 -4 360.41 43.12
1 -1 -4 483.43 45.99
1 -1 -4 470.36 47.21
1 -1 -4 501.2 40.94
1 -1 -4 431.87 42.54
1 -1 -4 394.41 41.67
1 -1 -4 582.97 46.94
1 -1 -4 584.75 45.61
1 -1 -4 527.99 39.71
1 -1 -4 540.57 43.29
1 -1 -4 381.09 41.22
1 -1 -4 516.2 42.49
1 -1 -4 471.46 43.96
1 -1 -4 462.23 42.72
1 -1 -4 488.97 42.44
1 -1 -4 455.96 42.95
1 -1 -4 448.69 42.73
1 -1 -4 453.17 42.97
1 -1 -3 689.84 56.23
1 -1 -3 562.08 54.43
1 -1 -3 800.69 58.59
1 -1 -3 584.41 58.01
1 -1 -3 715.4 57.26
1 -1 -3 636.25 49.25
1 -1 -3 534.59 53.18
1 -1 -3 710.78 54.38
1 -1 -3 595.57 53.31
1 -1 -3 630.79 49.77
1 -1 -3 674.22 53.65
1 -1 -3 533.85 53.76
1 -1 -3 626.9 52.95
1 -1 -3 678.18 53.77
1 -1 -3 600.54 53.92
1 -1 -3 608.22 53.89
1 -1 -3 639.44 54.35
1 -1 -3 696.63 55.25
1 -1 -3 690.58 53.84
1 -1 -2 2202.89 147.94
1 -1 -2 1912.63 145.72
1 -1 -2 1963.58 145.7
1 -1 -2 1627.9 144.73
1 -1 -2 1960.02 145.95
1 -1 -2 1807.39 145.44
1 -1 -2 1904.52 144.86
1 -1 -2 2024.84 147.81
1 -1 -2 2038.89 145.15
1 -1 -2 1914.68 145.79
1 -1 -2 1845.72 141.74
1 -1 -2 1785.45 147.44
1 -1 -2 2213.27 148.5
1 -1 -2 2183.83 149.27
1 -1 -2 1990.21 146.57
1 -1 -2 2072.09 146.35
1 -1 -1 153.32 13.93
1 -1 -1 116.17 13.22
1 -1 -1 127.94 13.79
1 -1 -1 131.93 15.73
1 -1 -1 140.96 14.83
1 -1 -1 149.66 15.24
1 -1 -1 89.01 12.84
1 -1 -1 120.73 13.73
1 -1 -1 116.53 12.55
1 -1 -1 119.1 14.88
1 -1 -1 113.74 13.46
1 -1 -1 146.89 13.66
1 -1 -1 112.93 13.27
1 -1 -1 115.99 13.31
1 -1 -1 139.54 14.58
1 -1 -1 116.72 13.52
1 -1 0 3579.78 266.35
1 -1 0 3461.29 266.77
1 -1 0 3607.08 268.96
1 -1 0 3294.53 268.41
1 -1 0 3521.89 271.41
1 -1 0 3742.06 269.64
1 -1 0 3336.41 265.11
1 -1 0 3805.51 268.83
1 -1 0 3802.83 271.16
1 -1 0 3400.09 268.46
1 -1 0 3683.58 268.94
1 -1 0 3588.37 268.97
1 -1 0 3652.94 268.45
1 -1 0 3484.32 268.51
1 -1 0 3741.1 268.27
1 -1 0 3470.56 269.4
1 -1 0 3366.19 268.55
1 -1 0 3774.82 269.12
1 -1 1 2563.11 208.01
1 -1 1 2754.92 209.52
1 -1 1 2688.99 206.86
1 -1 1 2678.41 204.79
1 -1 1 2736.09 207.51
1 -1 1 2791.62 209.84
1 -1 1 2491.4 204.83
1 -1 1 2847.4 207.72
1 -1 1 2490.84 207.48
1 -1 1 2937.74 209.44
1 -1 1 2619.85 206.91
1 -1 1 2830.72 207.34
1 -1 1 2914.6 207
1 -1 1 2815.02 206.82
1 -1 1 2845.16 207.75
1 -1 1 2705.91 207.56
1 -1 1 2782.3 207.62
1 -1 1 2810.79 207.7
1 -1 2 842.59 71.27
1 -1 2 920.31 72.74
1 -1 2 898.74 72.85
1 -1 2 812.96 70.04
1 -1 2 856.52 70.85
1 -1 2 941.61 69.34
1 -1 2 951.49 71.42
1 -1 2 871.46 70
1 -1 2 879.87 68.36
1 -1 2 939.22 71.8
1 -1 2 967.01 72.41
1 -1 2 894.96 71.46
1 -1 2 928.59 70.84
1 -1 2 802.17 69.1
1 -1 2 876.62 69.87
1 -1 2 967.24 71.31
1 -1 2 825.56 70.69
1 -1 2 946.39 71.25
1 -1 2 873.44 70.93
1 -1 3 223.44 22.14
1 -1 3 222.37 22.71
1 -1 3 226.57 23.72
1 -1 3 228.44 21.72
1 -1 3 232.87 22.28
1 -1 3 233.27 22.78
1 -1 3 223.88 21.38
1 -1 3 240.96 22.4
1 -1 3 204.64 19.78
1 -1 3 234.21 23.26
1 -1 3 213.59 21.88
1 -1 3 248.94 23.2
1 -1 3 252.28 22.41
1 -1 3 237.36 19.6
1 -1 3 203.72 21.78
1 -1 3 247.62 22.71
1 -1 3 276.65 19.81
1 -1 3 231.11 19.95
1 -1 3 245.8 22.57
1 -1 3 262.87 22.81
1 -1 3 236.84 22.32
1 -1 4 646.74 57.67
1 -1 4 636.71 59.93
1 -1 4 674.32 57.83
1 -1 4 735.86 59.45
1 -1 4 691.4 57.34
1 -1 4 701.51 58.59
1 -1 4 686.68 58.48
1 -1 4 696.54 59.84
1 -1 4 687.31 59.4
1 -1 4 726.05 57.43
1 -1 4 751.74 58.49
1 -1 4 733.56 54.21
1 -1 4 700.81 58.44
1 -1 4 798.51 57.49
1 -1 4 719.99 58.77
1 -1 4 706.43 58.12
1 -1 4 705.45 55.63
1 -1 4 702.21 58.68
1 -1 4 681.95 58.38
1 -1 4 634.65 57.21
1 -1 5 74.97 11.45
1 -1 5 64.58 9.51
1 -1 5 71.46 12.73
1 -1 5 79.91 10.11
1 -1 5 74.7 11.18
1 -1 5 84.22 12.12
1 -1 5 88.25 10.95
1 -1 5 57.4 10.23
1 -1 5 76.25 11.98
1 -1 5 63.35 9.16
1 -1 5 68.62 12.16
1 -1 5 69.19 10.36
1 -1 5 85.16 11.4
1 -1 5 79.75 11.56
1 -1 5 73.7 10.53
1 -1 5 68.58 8.66
1 -1 5 82.5 11.56
1 -1 5 75.17 11.25
1 -1 5 77.45 11.56
1 -1 6 1953.03 154.46
1 -1 6 1934.08 156.21
1 -1 6 1918.5 155.79
1 -1 6 1998.09 153.78
1 -1 6 1918.79 150.23
1 -1 6 1928.31 153.8
1 -1 6 1951.04 153.22
1 -1 6 2032.36 153.76
1 -1 6 2004.67 155.49
1 -1 6 2069.34 153.08
1 -1 6 1898.63 154.2
1 -1 6 1932.51 156.11
1 -1 6 2039.58 153.72
1 -1 6 2040.46 151.45
1 -1 6 1929.86 154.36
1 -1 6 1870.18 154.04
1 -1 6 2079.64 155.22
1 -1 6 1797.39 150.22
1 -1 7 124.82 16.65
1 -1 7 126.75 18.28
1 -1 7 109 16.02
1 -1 7 144.34 18.49
1 -1 7 123.79 17.75
1 -1 7 139.94 18.25
1 -1 7 144.1 19.85
1 -1 7 138.33 17.26
1 -1 7 176.42 21.02
1 -1 7 133.14 19.52
1 -1 7 121.15 17.71
1 -1 8 441.43 42.56
1 -1 8 485.44 46.13
1 -1 8 464.32 44.56
1 -1 8 435 44.11
1 -1 8 434.06 45.38
1 -1 8 443.46 44.22
1 -1 8 480.38 47.53
1 -1 8 541.15 48.52
1 -1 9 674.26 70.41
1 -1 9 755.49 70.81
1 -1 9 736.68 70.33
1 -1 9 835.09 73.06
1 -1 9 834.84 74.75
1 -1 9 909.51 75.73
1 -1 9 921.58 72.8
1 -1 10 -6.95 10.47
1 -1 10 2.39 11.92
1 -1 10 2.77 11.65
1 -1 10 2.89 10.87
1 -1 10 10.91 9.86
1 -1 10 4.7 9.91
1 -1 11 40.98 14.59
1 -1 11 72.68 19.58
1 -1 11 50.52 17.61
1 -1 11 35.08 13.38
1 -1 11 27.32 12.75
1 -1 12 81.19 19.89
1 -1 12 81.87 18.99
1 -1 12 72.2 17.76
1 -1 12 81.09 22.88
1 -1 12 111.82 24.88
1 -1 13 232.06 31.97
1 -1 13 199.16 31.18
1 -1 13 307.71 40.57
1 -1 13 271.99 37.98
1 -1 14 18.39 14.69
1 -1 14 14.53 18.47
1 -1 14 13.99 18.96
1 0 -14 94.23 27.27
1 0 -14 103.75 25.7
1 0 -14 109.86 26.97
1 0 -13 11.81 17
1 0 -13 -16.69 20.81
1 0 -13 -3.45 17.21
1 0 -13 30.89 18.85
1 0 -13 17.22 19.87
1 0 -12 119.14 24
1 0 -12 129.19 24.41
1 0 -12 135.46 24.55
1 0 -12 199.47 31.47
1 0 -12 213.12 31.55
1 0 -12 138.66 32.67
1 0 -12 182.41 31.98
1 0 -11 10.11 13.11
1 0 -11 7.5 11.85
1 0 -11 43.13 17.46
1 0 -11 18.51 15.7
1 0 -11 23.41 13.92
1 0 -10 543.5 58.53
1 0 -10 791.4 66.18
1 0 -10 754.79 64.85
1 0 -10 533.46 58.23
1 0 -10 593.6 59.9
1 0 -9 24.81 11.57
1 0 -9 22.23 11.6
1 0 -9 25.5 11.48
1 0 -9 18.47 12.3
1 0 -9 39.67 15.65
1 0 -9 22.4 12.08
1 0 -9 18.04 10.31
1 0 -8 1033.61 90.96
1 0 -8 989.28 91.11
1 0 -8 958.34 89.04
1 0 -8 1044.12 89.88
1 0 -8 1346.56 96.27
1 0 -8 1262.77 95.95
1 0 -8 896.7 89.62
1 0 -8 1160.16 94.08
1 0 -7 1083.36 102.06
1 0 -7 1203.95 103.6
1 0 -7 1071.24 101.1
1 0 -7 1059.92 100.82
1 0 -7 1507.99 107.38
1 0 -7 1378.12 102.39
1 0 -7 1410.73 106.39
1 0 -7 1449.59 101.66
1 0 -7 1144.57 102.72
1 0 -7 1149.44 105.8
1 0 -7 1239.99 104.88
1 0 -6 159.5 25.72
1 0 -6 167.75 27.95
1 0 -6 228.72 23.02
1 0 -6 194.34 23.55
1 0 -6 232.63 24.53
1 0 -6 163.29 22.95
1 0 -6 186.23 23.63
1 0 -6 200.13 24.12
1 0 -6 209.49 23.54
1 0 -6 232.66 24.1
1 0 -6 243.44 26.5
1 0 -6 276.45 24.9
1 0 -6 188.49 24.51
1 0 -6 172.74 19.33
1 0 -6 259.02 24.59
1 0 -6 210.53 24.62
1 0 -6 171.78 22.53
1 0 -6 187.46 23.31
1 0 -6 198.42 19.6
1 0 -5 239.94 35.28
1 0 -5 349.34 26.86
1 0 -5 311.34 32.59
1 0 -5 377.37 33.21
1 0 -5 317.08 32.56
1 0 -5 328.95 33.12
1 0 -5 290.87 32.07
1 0 -5 295.58 29.11
1 0 -5 366.67 33
1 0 -5 374.53 33.07
1 0 -5 369.86 34.54
1 0 -5 326.07 31.75
1 0 -5 305.94 28.31
1 0 -5 313.98 28.86
1 0 -5 368.95 32.33
1 0 -5 328.29 29.6
1 0 -5 391.38 34.99
1 0 -5 294.67 28.5
1 0 -5 294.08 31.42
1 0 -5 283.48 31.26
1 0 -4 28.94 11.82
1 0 -4 54.45 10.74
1 0 -4 89.34 12.19
1 0 -4 70.42 11.38
1 0 -4 83.55 12.29
1 0 -4 61.82 11.19
1 0 -4 83.77 11.82
1 0 -4 60.57 11.25
1 0 -4 74.95 9.73
1 0 -4 63.13 6.92
1 0 -4 82.99 12.36
1 0 -4 89.27 13.49
1 0 -4 89.12 11.58
1 0 -4 74.07 10.03
1 0 -4 81.63 9.7
1 0 -4 60.46 10.8
1 0 -4 44.85 10.65
1 0 -4 67.79 11.14
1 0 -3 1571.14 114.63
1 0 -3 1757.98 117.84
1 0 -3 1552.48 113.7
1 0 -3 1396.22 114.55
1 0 -3 1371.82 114.68
1 0 -3 1411.85 114.37
1 0 -3 1555.5 114.91
1 0 -3 1472.42 115.32
1 0 -3 1357.53 112.5
1 0 -3 1406.7 109.89
1 0 -3 1371.33 114.59
1 0 -3 1550.71 115.08
1 0 -3 1574.56 114.69
1 0 -3 1596.77 114.86
1 0 -3 1299.23 113.83
1 0 -3 1309.21 114.03
1 0 -3 1394.71 112.55
1 0 -3 1361.81 115.14
1 0 -2 1246.53 84.39
1 0 -2 1000.89 81.23
1 0 -2 1193.25 82.23
1 0 -2 920.92 81.38
1 0 -2 1063.53 81.68
1 0 -2 1028.96 81.81
1 0 -2 936.24 81.51
1 0 -2 949.55 81.02
1 0 -2 962.47 81.26
1 0 -2 997.49 81.72
1 0 -2 1021.22 80.79
1 0 -2 1043.76 81.48
1 0 -2 1006.54 81.88
1 0 -2 1058.16 80.86
1 0 -2 1016.98 82.71
1 0 -2 1018.42 81.56
1 0 -1 4260.8 309.7
1 0 -1 4151.24 308.52
1 0 -1 4090.26 308.48
1 0 -1 4101.79 308.64
1 0 -1 3585.54 307.56
1 0 -1 4411.85 308.9
1 0 -1 4103.5 308.32
1 0 -1 3961.41 305.85
1 0 -1 3821.35 308.42
1 0 -1 4305.04 308.42
1 0 -1 3870.42 308.32
1 0 -1 3963.29 308.51
1 0 -1 3947.95 309.05
1 0 -1 3984.61 309.05
1 0 -1 4001.27 309.18
1 0 -1 4752.93 309.92
1 0 -1 4521.94 308.78
1 0 0 32.39 4.87
1 0 0 34.5 5.84
1 0 0 31.5 5.44
1 0 0 35.12 5.53
1 0 0 43.48 5.43
1 0 0 33.5 3.89
1 0 0 31.99 5.34
1 0 0 26.19 4.16
1 0 0 31.33 4.08
1 0 0 34.37 4.75
1 0 0 30.16 4.61
1 0 0 38.67 5.28
1 0 0 29.22 4.54
1 0 0 36.58 4.92
1 0 0 32.33 4.42
1 0 0 26.24 5.01
1 0 0 30.15 4.53
1 0 0 30.13 4.59
1 0 0 31.93 4.76
1 0 0 31.28 4.76
1 0 0 26.54 4.79
1 0 1 715.77 56.95
1 0 1 707.93 57.78
1 0 1 719.44 56.97
1 0 1 761.4 56.68
1 0 1 724.69 56.14
1 0 1 718.5 55.48
1 0 1 683.51 56.02
1 0 1 728.45 56.49
1 0 1 745.72 56.55
1 0 1 796.11 56.45
1 0 1 698.27 56.28
1 0 1 662.27 56.39
1 0 1 718.64 56.32
1 0 1 736.51 57.46
1 0 1 687.5 56.02
1 0 1 716.67 56.14
1 0 1 697.25 55.12
1 0 1 720.14 56.69
1 0 1 776.68 57.49
1 0 1 769.58 57.83
1 0 1 734.82 58.23
1 0 1 705.78 56.1
1 0 1 682.02 56.03
1 0 2 916.27 72.05
1 0 2 883.16 70.15
1 0 2 961.26 73
1 0 2 808.06 72.72
1 0 2 889.16 70.71
1 0 2 935.66 72.33
1 0 2 978.69 72.08
1 0 2 914.19 70.9
1 0 2 925.25 70.96
1 0 2 973.35 70.27
1 0 2 865.5 72.63
1 0 2 928.51 72.05
1 0 2 885.51 71.66
1 0 2 954.32 71.67
1 0 2 890.52 74
1 0 2 942.11 72.27
1 0 2 1004.17 71.99
1 0 2 931.51 71.12
1 0 2 912.32 71.67
1 0 2 910.91 69.81
1 0 2 991.7 73.6
1 0 2 872.68 71.17
1 0 2 974.26 72.56
1 0 2 869.41 70.78
1 0 2 883.74 70.8
1 0 2 886.5 70.84
1 0 3 3749.09 265.36
1 0 3 3910.05 266.26
1 0 3 3259.57 266.98
1 0 3 3362.84 265.93
1 0 3 3531.1 265.06
1 0 3 3586.92 265.91
1 0 3 3535.37 266.19
1 0 3 3491.51 265.5
1 0 3 3521.78 263.88
1 0 3 3639.44 264.75
1 0 3 3465.91 265.22
1 0 3 3312.97 265.92
1 0 3 3240 267.5
1 0 3 3398.85 266.24
1 0 3 3372.8 265.69
1 0 3 3637.54 264.95
1 0 3 3603.5 265.52
1 0 3 3403.96 265.55
1 0 3 3478.47 264.16
1 0 3 3275.94 264.58
1 0 3 3684.03 265.46
1 0 3 3453.97 264.68
1 0 3 3426.42 264.59
1 0 3 3482.23 264.64
1 0 4 1274.66 98.93
1 0 4 1296.29 97.02
1 0 4 1426.56 100.08
1 0 4 1310.42 101.88
1 0 4 1280.68 100.71
1 0 4 1319.99 98.85
1 0 4 1295.25 101.07
1 0 4 1202.29 102.21
1 0 4 1297.59 101.02
1 0 4 1390.27 100.9
1 0 4 1205.52 100.57
1 0 4 1333.46 99.11
1 0 4 1153.77 99.53
1 0 4 1314.86 100.25
1 0 4 1128.68 101.88
1 0 4 1268.07 101.7
1 0 4 1267.92 101.15
1 0 4 1332.86 100.17
1 0 4 1267.56 99.86
1 0 4 1258.77 100.21
1 0 4 1280.92 100.84
1 0 4 1286.49 98.93
1 0 4 1276.45 99.15
1 0 4 1247.12 99.33
1 0 4 1227.69 99.82
1 0 4 1252.52 99.83
1 0 4 1220.64 99.78
1 0 5 357.39 31.19
1 0 5 412.76 31.22
1 0 5 435.16 32.66
1 0 5 407.18 35.61
1 0 5 366.88 34.67
1 0 5 387.15 34.75
1 0 5 386.31 32.3
1 0 5 328.51 35.38
1 0 5 392.34 33.53
1 0 5 348.01 34.3
1 0 5 394.36 32.98
1 0 5 364.5 33.71
1 0 5 395 33.94
1 0 5 381.61 35.75
1 0 5 404.62 34.48
1 0 5 390.34 35.26
1 0 5 405.6 34.03
1 0 5 369.72 33.61
1 0 5 407.75 34.83
1 0 5 357.9 32.32
1 0 5 351.95 31.45
1 0 5 366.09 32.88
1 0 5 322.8 33.34
1 0 5 367.27 33.78
1 0 5 381.8 32.68
1 0 6 252.48 26.35
1 0 6 285.14 22.39
1 0 6 270.07 23.83
1 0 6 260.55 21.86
1 0 6 263.43 27.01
1 0 6 229.01 25.35
1 0 6 185.93 25
1 0 6 244.52 23.88
1 0 6 248.53 26.04
1 0 6 282.07 24.6
1 0 6 259.04 26.57
1 0 6 258.07 25.88
1 0 6 284.92 25.57
1 0 6 202.68 24.53
1 0 6 261.32 25.02
1 0 6 222.19 23.4
1 0 6 235.1 23.63
1 0 6 226.11 25.05
1 0 6 227.75 24.93
1 0 6 255.75 23.93
1 0 7 247.02 24.64
1 0 7 160.08 22.81
1 0 7 219.22 23.61
1 0 7 188.24 20.86
1 0 7 192.44 23.48
1 0 7 216.15 21.2
1 0 7 217.58 23.66
1 0 7 236.53 23.82
1 0 7 218.15 22.89
1 0 7 190.28 21.84
1 0 7 223.05 23.59
1 0 7 196.37 21.51
1 0 7 185.76 21.11
1 0 7 191.86 21.12
1 0 7 211.93 23.56
1 0 7 196.66 23.05
1 0 7 197.17 23.69
1 0 7 195.75 21.62
1 0 8 675.09 55.87
1 0 8 686.82 57.55
1 0 8 326.6 51.06
1 0 8 618.3 54.64
1 0 8 584.17 54.1
1 0 8 590.6 54.88
1 0 8 897.59 57.52
1 0 9 57.92 13.8
1 0 9 53.66 13.43
1 0 9 40.6 12.96
1 0 10 423.34 47.14
1 0 10 503.32 48.17
1 0 10 469.46 47.91
1 0 11 -2.43 11
1 0 11 2.63 10.23
1 0 11 10.21 11.53
1 0 11 20.91 13.93
1 0 12 352.27 42.78
1 0 12 306.42 39.12
1 0 12 321.03 38.23
1 0 13 33.59 16.79
1 0 13 13.5 13.98
1 0 13 11.2 12.44
1 0 14 190.6 32.12
1 0 14 195.68 28.66
1 0 14 120.92 25.68
1 1 -13 249.95 35.43
1 1 -13 301.9 44.55
1 1 -13 232.96 39.78
1 1 -13 245.06 35.07
1 1 -13 245.07 34.82
1 1 -13 293.76 40.57
1 1 -13 377.94 43.03
1 1 -12 124.26 22.88
1 1 -12 64.59 19.56
1 1 -12 70.85 18.88
1 1 -12 132.91 25.85
1 1 -12 130.63 26.42
1 1 -11 305.91 37.42
1 1 -11 299.01 37.89
1 1 -11 361.54 43.44
1 1 -11 352.11 42.26
1 1 -11 304.63 37.92
1 1 -10 68.5 17.23
1 1 -10 84.02 18.75
1 1 -10 94.84 21.16
1 1 -10 81.97 20.18
1 1 -10 89.22 17.17
1 1 -10 61.96 16.89
1 1 -9 202.67 26.22
1 1 -9 181.17 26.53
1 1 -9 299.39 32.5
1 1 -9 285.3 32.44
1 1 -9 156.91 25.38
1 1 -9 166.12 25.61
1 1 -9 178.95 26.08
1 1 -8 757.85 67.14
1 1 -8 824.74 68.39
1 1 -8 664.62 63.86
1 1 -8 686.62 64.45
1 1 -8 624.61 63
1 1 -8 655.22 64.23
1 1 -8 721.2 63.52
1 1 -7 143.34 20.72
1 1 -7 157.24 20.97
1 1 -7 126.4 19.81
1 1 -7 206.09 24.32
1 1 -7 148.78 21.76
1 1 -7 104.68 18.09
1 1 -7 128.98 20.46
1 1 -7 122.47 17.93
1 1 -6 433.68 65.59
1 1 -6 612 63.68
1 1 -6 678.02 64.54
1 1 -6 884.88 66.63
1 1 -6 842.02 66.28
1 1 -6 837.49 68.17
1 1 -6 837.2 67.83
1 1 -6 890.65 66.15
1 1 -6 675.82 59.34
1 1 -6 684.14 65.11
1 1 -6 954.16 67.76
1 1 -6 918.74 66.99
1 1 -6 876.22 65.98
1 1 -6 674.98 63.28
1 1 -6 672.99 65.48
1 1 -6 638.15 63.64
1 1 -5 26.63 8.49
1 1 -5 25.24 5.9
1 1 -5 32.43 9.28
1 1 -5 36.02 8.93
1 1 -5 37.22 9.98
1 1 -5 14.81 5.44
1 1 -5 27.4 5.95
1 1 -5 59.58 11.57
1 1 -5 35.57 9.48
1 1 -5 44.05 10.04
1 1 -5 33.03 5.73
1 1 -5 46.2 6.66
1 1 -5 38.09 10.14
1 1 -5 41.81 10.23
1 1 -5 36.36 9.3
1 1 -5 42.53 9.77
1 1 -5 36.71 9.69
1 1 -5 34.21 9.56
1 1 -5 29.8 8.22
1 1 -4 647.7 55.67
1 1 -4 539.98 51.74
1 1 -4 615.16 56.04
1 1 -4 675.78 56.71
1 1 -4 656.75 52.42
1 1 -4 649.7 56.7
1 1 -4 712.65 56.49
1 1 -4 721.1 57.62
1 1 -4 620.55 51.67
1 1 -4 587.61 55.87
1 1 -4 742.8 57.26
1 1 -4 739.58 56.94
1 1 -4 753.92 57.33
1 1 -4 714.93 56.82
1 1 -4 680.71 57.38
1 1 -4 588.71 55.32
1 1 -4 570.32 54.87
1 1 -3 496.2 38.89
1 1 -3 601.07 42.48
1 1 -3 385.27 38.36
1 1 -3 436.46 40.98
1 1 -3 410.55 40.91
1 1 -3 486.7 39.13
1 1 -3 504.45 41.85
1 1 -3 563.7 42.62
1 1 -3 459.96 41.64
1 1 -3 446.73 38.25
1 1 -3 447 41.19
1 1 -3 552.08 42.3
1 1 -3 514.24 42.2
1 1 -3 524.29 42.39
1 1 -3 421 40.65
1 1 -3 358.7 39.82
1 1 -3 438.35 41.64
1 1 -2 8063.68 574.66
1 1 -2 9999 579.25
1 1 -2 7132.27 577.37
1 1 -2 8304.34 577.99
1 1 -2 7064.14 577.32
1 1 -2 6818.81 577.49
1 1 -2 7381.22 576.32
1 1 -2 7754.44 577.54
1 1 -2 8020.94 580.07
1 1 -2 8191.53 578.51
1 1 -2 7010.49 575.48
1 1 -2 8420.94 578.36
1 1 -2 8455.59 578.35
1 1 -2 7298.6 577.47
1 1 -2 6239.66 577.32
1 1 -2 7297.77 577.79
1 1 -1 3458.07 229
1 1 -1 3091.91 226.37
1 1 -1 3450.33 231.27
1 1 -1 2960.38 226.66
1 1 -1 2916.54 229.1
1 1 -1 3059.01 229.05
1 1 -1 3085.92 226.96
1 1 -1 2829.59 228.9
1 1 -1 3152.22 229.52
1 1 -1 3105.13 230.2
1 1 -1 2935.78 228.22
1 1 -1 3144.61 229.77
1 1 -1 2963.28 229.64
1 1 -1 2551.86 228.04
1 1 -1 3168.89 229.52
1 1 -1 3104.51 229.4
1 1 -1 2712.19 228.9
1 1 -1 2835.2 229.57
1 1 -1 2746.34 229.41
1 1 0 251.09 20.08
1 1 0 248.96 20.67
1 1 0 274.49 21.6
1 1 0 264.79 20.89
1 1 0 213.97 20.56
1 1 0 237.47 20.25
1 1 0 250.5 20.86
1 1 0 227.83 20.63
1 1 0 251.45 22.35
1 1 0 238.3 21.42
1 1 0 256.54 21.5
1 1 0 218.44 19.65
1 1 0 238.72 20.89
1 1 0 227.98 20.95
1 1 0 210.41 20.27
1 1 0 222.59 21.23
1 1 0 251.09 20.91
1 1 0 241.15 20.79
1 1 0 226.73 21.4
1 1 0 257.45 21.53
1 1 0 217.26 20.95
1 1 1 439.91 35.67
1 1 1 446.52 35.12
1 1 1 440.37 34.85
1 1 1 465.7 35.71
1 1 1 488.71 36.32
1 1 1 455.15 36.51
1 1 1 416.61 36.13
1 1 1 410.09 33.92
1 1 1 449.51 36.35
1 1 1 421.65 33.78
1 1 1 436.46 36.12
1 1 1 450.97 36.47
1 1 1 494.6 36.62
1 1 1 482.65 36.86
1 1 1 445.23 36.19
1 1 1 466.09 33.98
1 1 1 450.75 37.33
1 1 1 403.73 36
1 1 1 457.52 35.14
1 1 1 446.21 34.96
1 1 1 420.32 35.65
1 1 1 435.65 35.21
1 1 1 428.44 35.7
1 1 1 462.83 36.58
1 1 1 420.33 36.3
1 1 1 419.42 34
1 1 1 417.57 33.98
1 1 1 414 33.9
1 1 1 399.7 33.9
1 1 2 200.95 18.8
1 1 2 213.55 19.22
1 1 2 211.04 19.1
1 1 2 221.89 19.89
1 1 2 201.53 18.71
1 1 2 190.51 17.17
1 1 2 194.68 16.54
1 1 2 205.83 19.26
1 1 2 172.91 17.39
1 1 2 217.13 17.07
1 1 2 197.04 16.25
1 1 2 202.92 16.62
1 1 2 195.59 16.71
1 1 2 212.37 17.93
1 1 2 214.47 19.43
1 1 2 194.99 18.24
1 1 2 208.5 18.89
1 1 2 212.91 18.9
1 1 2 204.07 19.56
1 1 2 189.37 18.71
1 1 2 209.01 19.06
1 1 2 189.47 18.26
1 1 2 199.65 18.81
1 1 2 191.66 16.7
1 1 2 182.56 17.07
1 1 3 587.86 49.19
1 1 3 604.44 49.31
1 1 3 594.44 48.97
1 1 3 580.78 49.41
1 1 3 665.31 50.86
1 1 3 642.64 49.52
1 1 3 624.96 49.51
1 1 3 565.48 46.99
1 1 3 582.97 49
1 1 3 591.45 49.8
1 1 3 615.09 49.73
1 1 3 569.41 50.12
1 1 3 596.43 49.35
1 1 3 585.41 47.14
1 1 3 607.06 48.83
1 1 3 614.19 46.54
1 1 3 586.26 46.99
1 1 3 582.88 46.99
1 1 3 567.18 47.54
1 1 3 559.02 47.84
1 1 3 574.21 49.18
1 1 3 631.17 48.68
1 1 3 601.79 48.61
1 1 3 592.47 46
1 1 3 596.78 47.79
1 1 4 2288.09 177.97
1 1 4 2229.01 181.22
1 1 4 2456.31 180.31
1 1 4 2574.36 181.89
1 1 4 2390.49 180.59
1 1 4 2455.11 181.32
1 1 4 2408.87 181.88
1 1 4 2162.51 181.78
1 1 4 2495.64 181.33
1 1 4 2305.29 180.82
1 1 4 2180.97 179.47
1 1 4 2411.52 181.51
1 1 4 2360.72 180.95
1 1 4 2325.92 182.57
1 1 4 2618.1 182.03
1 1 4 2375.57 179.2
1 1 4 2326.04 178.69
1 1 4 2323.11 179.32
1 1 4 2478.55 178.03
1 1 4 2170.88 179.78
1 1 4 2347.1 179.06
1 1 4 2354.37 181.1
1 1 4 2308.97 180.18
1 1 4 2351.24 179.44
1 1 4 2283.21 178.43
1 1 4 2237.3 178.4
1 1 4 2318.88 177.47
1 1 5 2028.58 147.02
1 1 5 1815.56 153.51
1 1 5 2048.76 149.31
1 1 5 1989.33 152.32
1 1 5 1963.2 149.61
1 1 5 2154.6 153.02
1 1 5 1921.95 151.86
1 1 5 2218.99 151.52
1 1 5 1986.05 152.61
1 1 5 1851.36 152
1 1 5 2017.11 151.84
1 1 5 1890.31 150.72
1 1 5 1797.2 150.54
1 1 5 2000.05 152.44
1 1 5 2115.11 151.82
1 1 5 1878.17 152.62
1 1 5 2006.4 152.16
1 1 5 1904.49 149.76
1 1 5 1703.42 148.27
1 1 5 1956.31 149.62
1 1 5 2156.02 147.79
1 1 5 1833.71 148.25
1 1 5 1847.44 149.61
1 1 5 1811.23 150.56
1 1 5 1983.58 151.49
1 1 5 1855.21 148.41
1 1 5 1943.85 150.6
1 1 5 1805.72 149.4
1 1 5 1826.15 149.35
1 1 5 1872.99 148.02
1 1 6 51.13 4.88
1 1 6 32.47 6.22
1 1 6 42.78 9.25
1 1 6 38.02 6.28
1 1 6 18.16 8.7
1 1 6 48.17 8.59
1 1 6 49 7.89
1 1 6 62.83 11.11
1 1 6 39.56 9.27
1 1 6 32.14 9.28
1 1 6 31.96 8.96
1 1 6 42.8 8.26
1 1 6 26.87 7.09
1 1 6 23.68 8.54
1 1 6 33.59 9.67
1 1 6 51.05 10.39
1 1 6 38.87 8.46
1 1 6 44.63 6.23
1 1 6 33.38 7.81
1 1 6 32.53 5.75
1 1 6 31.99 7.71
1 1 6 40.06 8.98
1 1 6 36.12 6.07
1 1 6 60.62 9.66
1 1 6 32.58 8.39
1 1 6 33.86 7.96
1 1 6 38.97 7.19
1 1 7 747.32 54.42
1 1 7 826.25 61.17
1 1 7 792.46 58.38
1 1 7 691.28 59.26
1 1 7 556.84 56.29
1 1 7 680.87 56.01
1 1 7 521.84 56.55
1 1 7 665.29 58.26
1 1 7 679.86 56.64
1 1 7 770.56 57.01
1 1 7 534.29 56.01
1 1 7 534.48 54.78
1 1 7 664.62 56.41
1 1 7 638.94 60.11
1 1 7 631.66 58.3
1 1 7 598.25 56.49
1 1 8 13.71 7.82
1 1 8 27.12 10.28
1 1 8 9.27 7.37
1 1 8 17.59 7.48
1 1 8 17.07 10.02
1 1 8 16.9 7.88
1 1 8 11.47 8.99
1 1 8 29.11 10.88
1 1 8 9.93 9.03
1 1 9 1550.75 115.18
1 1 9 1670.8 111.72
1 1 9 1127.44 111.36
1 1 9 1225.05 110.92
1 1 9 1137.31 109.96
1 1 10 15.72 12
1 1 10 42.83 14.18
1 1 10 26.01 12.56
1 1 11 61.55 18.8
1 1 11 115.69 21.71
1 1 12 100.41 20.29
1 1 12 58.68 17.98
1 1 13 67.3 19.59
1 1 13 35.86 17.75
1 1 14 97.47 22.48
1 1 14 98.13 21.66
1 2 -13 36.55 17.79
1 2 -13 29.47 16.4
1 2 -13 51.74 17.44
1 2 -13 17.32 18.95
1 2 -13 60.84 22.28
1 2 -12 171.8 28.96
1 2 -12 178.92 31.07
1 2 -12 150.69 26.78
1 2 -12 157.9 27.61
1 2 -11 228.84 33.27
1 2 -11 323.22 38.02
1 2 -11 296.18 37.18
1 2 -11 189.31 31.17
1 2 -11 242.33 33.52
1 2 -10 17.8 11.95
1 2 -10 53.78 17.67
1 2 -10 73.75 19.7
1 2 -10 54.66 16.22
1 2 -10 58.62 16.12
1 2 -9 299.6 35.95
1 2 -9 337.93 37.56
1 2 -9 256.61 32.56
1 2 -9 277.39 31.85
1 2 -9 255.12 31.47
1 2 -9 215.72 30.75
1 2 -8 42.55 12.67
1 2 -8 34.25 11.73
1 2 -8 25.57 12.13
1 2 -8 31.56 13.64
1 2 -8 37.53 13.12
1 2 -8 62.86 14.99
1 2 -7 1284.96 97.12
1 2 -7 1278.48 96.48
1 2 -7 991.41 91.86
1 2 -7 1112.27 93.28
1 2 -7 1090.49 92.11
1 2 -7 1000.5 92.13
1 2 -7 991 89.76
1 2 -6 22.47 8.02
1 2 -6 31.37 10.72
1 2 -6 16.35 9.23
1 2 -6 34.87 11.07
1 2 -6 25.54 10.37
1 2 -6 20.92 8.51
1 2 -6 29.37 9.65
1 2 -6 16.8 8.97
1 2 -5 1206.11 110.22
1 2 -5 1474.65 111.42
1 2 -5 1480.64 112.03
1 2 -5 1391.54 108.68
1 2 -5 1325.63 111.06
1 2 -5 1194.95 109.77
1 2 -5 1339.98 110.45
1 2 -5 1190.42 107.05
1 2 -5 1473.78 109.43
1 2 -5 1555.04 113.32
1 2 -5 1587.34 113.18
1 2 -5 1473.32 111.32
1 2 -5 1387.01 111.15
1 2 -5 1415.95 111.55
1 2 -5 1297.89 109.22
1 2 -5 1247.79 110.39
1 2 -5 1165.16 109.21
1 2 -4 212.77 26.84
1 2 -4 321.05 29.5
1 2 -4 340.49 30.38
1 2 -4 281.75 26.18
1 2 -4 195.27 26.14
1 2 -4 305.74 29.23
1 2 -4 256.94 27.91
1 2 -4 245.19 26.05
1 2 -4 265.21 25.7
1 2 -4 291.98 27.83
1 2 -4 286.37 29.23
1 2 -4 256.89 27.97
1 2 -4 304.82 29.13
1 2 -4 248.88 24.23
1 2 -4 298.22 29.3
1 2 -4 339.17 30.05
1 2 -4 265.39 28.07
1 2 -4 254.39 27.01
1 2 -4 286.71 28.78
1 2 -3 436.7 42.18
1 2 -3 468.33 42
1 2 -3 501.8 43.36
1 2 -3 443.5 42.17
1 2 -3 549.56 43.53
1 2 -3 480.51 42.64
1 2 -3 486.88 43.03
1 2 -3 509.76 40.45
1 2 -3 449.01 36.54
1 2 -3 426.32 41.43
1 2 -3 471.62 41.05
1 2 -3 450.21 41.81
1 2 -3 477.59 43.25
1 2 -3 497.61 42.89
1 2 -3 482.89 42.33
1 2 -3 531.65 43.61
1 2 -3 459.12 39.73
1 2 -3 514.66 43.42
1 2 -3 455.04 42.71
1 2 -3 487.14 43.37
1 2 -3 489.72 42.55
1 2 -2 691.43 46.05
1 2 -2 507.29 47.07
1 2 -2 592.01 48.32
1 2 -2 518.1 47.78
1 2 -2 568.17 47.52
1 2 -2 533.99 47.87
1 2 -2 592.24 47.82
1 2 -2 526.92 46.85
1 2 -2 565.51 48.27
1 2 -2 608.66 48.48
1 2 -2 539.77 46.06
1 2 -2 582.61 47.97
1 2 -2 491.83 43.16
1 2 -2 625.97 48.08
1 2 -2 604.57 48.42
1 2 -2 570.51 48.03
1 2 -2 572.21 48.28
1 2 -2 620.14 48.76
1 2 -2 543.28 47.73
1 2 -2 485.18 47.3
1 2 -2 524.25 47.8
1 2 -1 1021.92 67.35
1 2 -1 885.7 69.37
1 2 -1 814.38 66.85
1 2 -1 858.61 68.6
1 2 -1 876.44 69.29
1 2 -1 854.48 69.32
1 2 -1 807.2 69.09
1 2 -1 810.59 68.76
1 2 -1 833.25 70.94
1 2 -1 832.25 69.92
1 2 -1 907.14 70.51
1 2 -1 886.29 68.66
1 2 -1 806.68 67.69
1 2 -1 883.51 70
1 2 -1 935.16 69.72
1 2 -1 797.93 68.59
1 2 -1 889.12 69.47
1 2 -1 866.86 69.31
1 2 -1 831.69 69.31
1 2 -1 829.19 69.52
1 2 -1 772.82 69.3
1 2 0 1240.5 96.55
1 2 0 1342.14 97.06
1 2 0 1335.83 98.88
1 2 0 1233.73 98.16
1 2 0 1341.6 100.02
1 2 0 1260.14 97.61
1 2 0 1287.82 98.58
1 2 0 1271 98.46
1 2 0 1282.82 98.49
1 2 0 1244.24 98.22
1 2 0 1196.72 100.99
1 2 0 1306.48 100.77
1 2 0 1211.18 100.02
1 2 0 1241.83 97.27
1 2 0 1277.07 99.15
1 2 0 1217.71 96.48
1 2 0 1334.92 99.16
1 2 0 1247.46 98.21
1 2 0 1259.44 99.56
1 2 0 1222.51 98.38
1 2 0 1289.96 98.48
1 2 0 1223.62 99.29
1 2 0 1281.67 99
1 2 1 619.64 50.1
1 2 1 623.18 49.75
1 2 1 569.23 51.66
1 2 1 663.25 49.01
1 2 1 642.92 49.66
1 2 1 612.34 51.55
1 2 1 630.39 50.61
1 2 1 613.43 50.36
1 2 1 601.97 48.4
1 2 1 613.18 48.89
1 2 1 610.14 48.38
1 2 1 644.62 50.57
1 2 1 612.96 51.27
1 2 1 657.5 50.79
1 2 1 547.01 51.63
1 2 1 634.13 51.78
1 2 1 601.36 50.89
1 2 1 630.84 47.55
1 2 1 578.99 49.85
1 2 1 632.85 49.19
1 2 1 637.38 50.32
1 2 1 576.7 50.76
1 2 1 600.87 49.66
1 2 1 619.66 50.91
1 2 1 606.07 48.38
1 2 1 621.18 48.42
1 2 1 592.88 48.26
1 2 1 570.76 48.25
1 2 2 1843.24 144.36
1 2 2 1866.77 142.26
1 2 2 1684.58 144.53
1 2 2 1887.88 142.49
1 2 2 1713.04 144.53
1 2 2 1975.57 143.76
1 2 2 1811.74 143.8
1 2 2 1851.28 140.35
1 2 2 1906.01 141.23
1 2 2 2022.09 144
1 2 2 1920.82 145.23
1 2 2 1886.18 144.18
1 2 2 1793.11 143.53
1 2 2 1837.78 144
1 2 2 1893.31 139.87
1 2 2 1710.81 144.52
1 2 2 1733.31 144.06
1 2 2 1927.24 139.74
1 2 2 1623.8 142.88
1 2 2 1833.85 142.23
1 2 2 1891.15 143.29
1 2 2 1874.91 143.06
1 2 2 1825.92 144.52
1 2 2 1707.99 143.62
1 2 2 1808.55 143.76
1 2 2 1856.41 140.32
1 2 2 1857.84 140.36
1 2 2 1863.43 140.34
1 2 2 1854.93 140.32
1 2 2 1849.64 140.15
1 2 3 1210.6 97.01
1 2 3 1290.43 97.42
1 2 3 1230.72 95.62
1 2 3 1074.47 96.72
1 2 3 1191.87 95.97
1 2 3 1193.71 91.94
1 2 3 1188.5 96.31
1 2 3 1276.11 93.5
1 2 3 1283.01 96.54
1 2 3 1177.4 95.99
1 2 3 1201.42 95.28
1 2 3 1366.18 96.9
1 2 3 1232.6 97.99
1 2 3 1306.85 96.86
1 2 3 1127.1 96.11
1 2 3 1151.14 95.71
1 2 3 1155.25 94.93
1 2 3 1258.46 94.13
1 2 3 1266.7 95.85
1 2 3 1175.04 96.25
1 2 3 1160.23 95.96
1 2 3 1226.85 95.57
1 2 3 1222.04 95.97
1 2 3 1163.13 97.45
1 2 3 1216.4 95.52
1 2 3 1211.07 91.95
1 2 3 1180.45 91.96
1 2 4 1604.37 134.08
1 2 4 1613.73 136.39
1 2 4 1763.58 135.67
1 2 4 1723.99 134.05
1 2 4 1732.22 135.17
1 2 4 1669.5 134.42
1 2 4 1569.82 134.97
1 2 4 1740.63 134.08
1 2 4 1683.39 134.39
1 2 4 1728.9 130.37
1 2 4 1680.85 130.72
1 2 4 1842.89 131.73
1 2 4 1684.84 134.17
1 2 4 1690.61 134.24
1 2 4 1873.62 135.09
1 2 4 1702.41 136.4
1 2 4 1815.79 134.82
1 2 4 1726.13 133.21
1 2 4 1571.83 133.15
1 2 4 1686.36 133.01
1 2 4 1651.73 132.27
1 2 4 1754.52 131.46
1 2 4 1633.11 132.24
1 2 4 1779.32 133.86
1 2 4 1691.2 134.17
1 2 4 1592.76 133.64
1 2 4 1651.43 133.75
1 2 4 1633.67 133.21
1 2 4 1727.59 129.22
1 2 4 1817.04 130.44
1 2 5 269.77 28.15
1 2 5 265.14 30.48
1 2 5 328.96 30.14
1 2 5 283.5 27.6
1 2 5 243.26 27.73
1 2 5 256.88 28.53
1 2 5 307.56 25.18
1 2 5 292.35 27.91
1 2 5 296.74 28.34
1 2 5 291.01 26.07
1 2 5 290.66 28.23
1 2 5 338.83 29.58
1 2 5 295.78 28.28
1 2 5 298.3 30.64
1 2 5 284.51 28.16
1 2 5 283.25 26.9
1 2 5 259.46 26.1
1 2 5 291.92 26.04
1 2 5 273.16 25.99
1 2 5 256.46 23.08
1 2 5 278.25 27.1
1 2 5 317.32 28.71
1 2 5 239.19 27.1
1 2 5 311.01 28.14
1 2 5 287.66 26.95
1 2 5 296.89 27.96
1 2 5 296.49 23.4
1 2 5 312.23 25.14
1 2 6 1244.45 102.71
1 2 6 1315.28 104.32
1 2 6 1296.69 103.3
1 2 6 1343.21 105.71
1 2 6 1390.92 104.18
1 2 6 1191.81 101.6
1 2 6 1300.66 100.16
1 2 6 1270.17 99.76
1 2 6 1315.41 100.19
1 2 6 1098.23 101.65
1 2 6 1244.97 103.03
1 2 6 1270.47 101.94
1 2 6 1323.57 103.24
1 2 6 1266.94 101.67
1 2 6 1390.68 103.51
1 2 6 1093.34 102.83
1 2 6 1297.08 103.04
1 2 6 1266.75 102.08
1 2 6 1341.58 105.41
1 2 6 1278.71 104.08
1 2 6 1300.02 104.43
1 2 6 1144.28 106.04
1 2 7 387.51 33.08
1 2 7 297.63 35.79
1 2 7 344.75 34.9
1 2 7 268.33 31.95
1 2 7 335.19 32.18
1 2 7 330.8 32.74
1 2 7 330.62 33.87
1 2 7 273.49 32.63
1 2 7 369.56 36.01
1 2 7 350.64 31.95
1 2 7 357.08 34.61
1 2 7 342.64 35.38
1 2 8 701.91 62.32
1 2 8 728.06 64.37
1 2 8 716.54 60.51
1 2 8 669.51 59.55
1 2 8 630.54 64.74
1 2 8 677.47 62.99
1 2 9 6.81 8.49
1 2 9 4.59 11.04
1 2 9 -2.76 9.74
1 2 9 6.11 8.58
1 2 9 17.09 11.95
1 2 10 108.06 20.82
1 2 10 123.3 22.98
1 2 10 105.18 20.75
1 2 11 245.65 35.51
1 2 11 296.51 35.57
1 2 11 268.03 35.37
1 2 12 206.98 29.44
1 2 12 158.31 26.58
1 2 12 104.92 24.63
1 2 13 374.47 36.8
1 2 13 285.44 34.93
1 2 14 34.67 17.69
1 2 14 23.61 15.87
1 3 -13 132.85 25.64
1 3 -13 128 25.53
1 3 -13 120.72 24.51
1 3 -12 218.48 34.55
1 3 -12 211.8 33.22
1 3 -12 159.91 27.65
1 3 -12 172.95 28.63
1 3 -11 19.3 16.03
1 3 -11 -10.12 16.51
1 3 -11 -5.33 12.54
1 3 -11 -5.25 13.76
1 3 -11 21.58 14.28
1 3 -10 432.38 43.85
1 3 -10 354.51 45.23
1 3 -10 445.26 48.17
1 3 -10 389.54 43.73
1 3 -10 353.15 42.91
1 3 -9 176.44 26.6
1 3 -9 206.51 30.24
1 3 -9 257.14 32.17
1 3 -9 184.07 27.79
1 3 -9 214.83 28.27
1 3 -8 440.93 46.12
1 3 -8 422.64 45.84
1 3 -8 525.79 50.85
1 3 -8 581.34 51.71
1 3 -8 413.98 46.65
1 3 -8 441.47 47.35
1 3 -7 17 11.55
1 3 -7 15.14 12
1 3 -7 12.78 9.96
1 3 -7 26.01 11.3
1 3 -7 22.39 10.63
1 3 -7 37.04 11.11
1 3 -7 24.56 10.86
1 3 -6 388.2 40.72
1 3 -6 343.55 38.5
1 3 -6 393.73 40.78
1 3 -6 423.11 42
1 3 -6 396.08 41.22
1 3 -6 452.03 43.68
1 3 -6 495.33 44.3
1 3 -5 456.48 44.34
1 3 -5 497.06 43.32
1 3 -5 440.83 42.41
1 3 -5 484.53 45.62
1 3 -5 491.63 45.56
1 3 -5 447.53 44.44
1 3 -5 410.97 43.81
1 3 -5 411.23 43.43
1 3 -5 462.31 44.54
1 3 -5 472.81 43.15
1 3 -4 348.25 31.89
1 3 -4 298.04 33.84
1 3 -4 357.46 34.92
1 3 -4 337.5 35.18
1 3 -4 345.4 35.15
1 3 -4 362.86 35.81
1 3 -4 345.05 34.79
1 3 -4 335.61 34.18
1 3 -4 363.39 34.13
1 3 -4 296.46 32.96
1 3 -4 363.68 35.59
1 3 -4 340.07 34.48
1 3 -4 416.43 36.97
1 3 -4 397.14 35.94
1 3 -4 330.42 31.13
1 3 -4 347.17 35.18
1 3 -4 383.14 35.94
1 3 -4 311.12 34.03
1 3 -4 360.11 35.39
1 3 -4 347.73 34.2
1 3 -3 1050.41 88.08
1 3 -3 1093.78 90.36
1 3 -3 1066.28 90.31
1 3 -3 1059.97 89.66
1 3 -3 1071.57 90.74
1 3 -3 1117.08 89.99
1 3 -3 1004 89.13
1 3 -3 1122.39 90.17
1 3 -3 1081.8 90.39
1 3 -3 1163.38 90.08
1 3 -3 1185.5 90.36
1 3 -3 1129.54 90.07
1 3 -3 1104.57 90.41
1 3 -3 1153.18 90.92
1 3 -3 1096.24 90.45
1 3 -3 1041.74 90
1 3 -3 1092.7 89.9
1 3 -3 1077.65 90.19
1 3 -3 1061.29 90.1
1 3 -2 1141.46 90.21
1 3 -2 1007.49 94.86
1 3 -2 1180.53 95.09
1 3 -2 1269.85 96.48
1 3 -2 1260.76 96.29
1 3 -2 1278.55 96.5
1 3 -2 1243.49 95.92
1 3 -2 1124.48 97.05
1 3 -2 1129.2 96.05
1 3 -2 1242.74 96.58
1 3 -2 1240.41 95.19
1 3 -2 1188.8 96.19
1 3 -2 1136.82 94.32
1 3 -2 1182.72 95.14
1 3 -2 1191.83 96.02
1 3 -2 1185.27 95.82
1 3 -2 1166.51 95.81
1 3 -2 1240.45 96.45
1 3 -1 668.24 63.67
1 3 -1 805.44 63.99
1 3 -1 801.67 64.05
1 3 -1 809.03 63.76
1 3 -1 725.89 62.89
1 3 -1 720.13 63.23
1 3 -1 711.14 65.35
1 3 -1 820.14 62.84
1 3 -1 760.37 65.01
1 3 -1 713.69 63.97
1 3 -1 735.9 61.91
1 3 -1 813.61 64.24
1 3 -1 683.78 62.52
1 3 -1 878.99 61.73
1 3 -1 758.06 63.42
1 3 -1 742.4 63.4
1 3 -1 792.07 64.45
1 3 0 7.65 4.65
1 3 0 6 3.05
1 3 0 6.65 5.21
1 3 0 7.21 3.98
1 3 0 11.7 4.77
1 3 0 10.49 4.7
1 3 0 8.8 4.12
1 3 0 7.55 4.31
1 3 0 10.81 2.76
1 3 0 14.68 4.78
1 3 0 4.48 5.67
1 3 0 11.85 3.94
1 3 0 18.48 7.06
1 3 0 4.72 5.13
1 3 0 3.38 4.56
1 3 0 9.63 3.48
1 3 0 10.61 4.77
1 3 0 6.88 3.78
1 3 0 4.65 4.51
1 3 0 5.24 4.09
1 3 0 14.79 4.68
1 3 0 12.2 4.76
1 3 0 21.03 5.47
1 3 1 2306.08 189.47
1 3 1 2527.18 186.11
1 3 1 2570.15 188.95
1 3 1 2356.42 191.5
1 3 1 2595.45 186.62
1 3 1 2465.69 187.28
1 3 1 2397.35 188.91
1 3 1 2618.85 190.22
1 3 1 2411.08 187.77
1 3 1 2401.12 187.74
1 3 1 2483.5 188.8
1 3 1 2436.46 189.17
1 3 1 2453.1 184.99
1 3 1 2432.5 192.47
1 3 1 2370.08 185.75
1 3 1 2475.81 186.84
1 3 1 2569 191.75
1 3 1 2358.96 190.46
1 3 1 2489.47 189.78
1 3 1 2448.18 185.35
1 3 1 2280.33 188.84
1 3 1 2509.82 188.2
1 3 1 2463.27 187.85
1 3 1 2418.93 187.77
1 3 1 2477 187.73
1 3 1 2404.01 187.76
1 3 2 182.78 16.89
1 3 2 169.95 19.23
1 3 2 173.5 16.8
1 3 2 159.9 19.44
1 3 2 168.52 20.19
1 3 2 175.62 16.79
1 3 2 186.25 18.24
1 3 2 177.44 19.23
1 3 2 173.44 16.4
1 3 2 166.05 17.15
1 3 2 192.15 18.33
1 3 2 180.11 18.85
1 3 2 178.21 18.35
1 3 2 159.83 14.98
1 3 2 172.39 20.47
1 3 2 170.68 14.97
1 3 2 173.99 19.61
1 3 2 187.93 15.81
1 3 2 160.05 18.36
1 3 2 155.43 17.72
1 3 2 176.89 18.41
1 3 2 166.87 17.53
1 3 2 159.56 16.11
1 3 2 163.52 16.15
1 3 2 162.84 16.16
1 3 2 168.76 16.3
1 3 3 609.93 57.11
1 3 3 658.56 54.47
1 3 3 660.38 57.39
1 3 3 593.25 56.38
1 3 3 703.61 54.38
1 3 3 665.47 52.17
1 3 3 583.6 54.26
1 3 3 613.87 55.91
1 3 3 657.53 57.83
1 3 3 622.52 53.35
1 3 3 646.67 55.29
1 3 3 741.79 55.5
1 3 3 723.48 56.13
1 3 3 650.28 55.6
1 3 3 581.76 56.19
1 3 3 666.03 51.75
1 3 3 640.3 55.84
1 3 3 673.27 51.85
1 3 3 624.33 54.93
1 3 3 667.11 54.48
1 3 3 632.49 55.04
1 3 3 565.41 55.27
1 3 3 622.62 54.43
1 3 3 618 56.29
1 3 3 715.03 52.38
1 3 3 657.76 52.13
1 3 3 673.29 52.16
1 3 4 102.86 14.34
1 3 4 91.35 15.8
1 3 4 99.31 15.52
1 3 4 89.76 13.43
1 3 4 122.3 16.56
1 3 4 140.98 17.22
1 3 4 126.17 14.67
1 3 4 109.67 16.58
1 3 4 119.81 11.73
1 3 4 119.42 15.73
1 3 4 119.76 13.41
1 3 4 117.22 11.89
1 3 4 120.1 15.2
1 3 4 120.05 15
1 3 4 107.58 14.31
1 3 4 97.75 14.66
1 3 4 103.47 14.38
1 3 4 119.44 15.36
1 3 4 114.56 14.28
1 3 4 114.25 14.67
1 3 4 115.6 13.55
1 3 4 102.12 14.94
1 3 4 115.84 15.21
1 3 4 99.93 14.76
1 3 4 101.02 14.08
1 3 4 132.98 12
1 3 4 130.45 11.99
1 3 4 116.27 11.75
1 3 5 995.82 84.31
1 3 5 1150.13 85.57
1 3 5 1052.9 85.21
1 3 5 1118.11 89.59
1 3 5 1068.1 84.97
1 3 5 1021.14 84.46
1 3 5 990.79 84.36
1 3 5 1077.58 83.84
1 3 5 1036.52 83.8
1 3 5 1073.1 82.66
1 3 5 1046.03 85.07
1 3 5 919.88 83.7
1 3 5 1051.44 84.87
1 3 5 1085.35 85.09
1 3 5 906.77 84.29
1 3 5 1081.79 83.08
1 3 5 852.82 85.34
1 3 5 1128.37 84.82
1 3 5 1064.01 85.98
1 3 5 981.43 85.14
1 3 5 912.9 87.93
1 3 5 971.14 85.72
1 3 5 988.29 86.68
1 3 5 1113.44 87.7
1 3 6 136.73 17.25
1 3 6 118.52 15.93
1 3 6 132.18 15.91
1 3 6 105.32 17.48
1 3 6 125.94 18.64
1 3 6 127.82 17.86
1 3 6 152.4 17.81
1 3 6 142.07 18.02
1 3 6 104.19 15.91
1 3 6 151.44 17.73
1 3 6 129.6 17.55
1 3 6 149.37 16.46
1 3 6 145.16 18.89
1 3 6 94.6 19.4
1 3 7 1036.84 78.26
1 3 7 716.69 80.11
1 3 7 939.59 80
1 3 7 908.25 75.81
1 3 7 950.81 80.81
1 3 7 826.81 76.97
1 3 7 1001.93 80.76
1 3 8 456.57 56.68
1 3 8 580.47 56.2
1 3 8 606.5 53.94
1 3 8 601.1 57.08
1 3 8 647.31 57.52
1 3 8 611.32 53.57
1 3 9 69.87 16.78
1 3 9 49.25 17.45
1 3 9 95.63 18.07
1 3 9 69.84 16.98
1 3 9 68.03 13.76
1 3 10 470.78 48.35
1 3 10 353.08 47.3
1 3 10 505.66 48.89
1 3 10 448.96 48.35
1 3 11 79.86 19.94
1 3 11 60.14 19.14
1 3 11 79.42 20.05
1 3 12 322.29 43.94
1 3 12 405.03 44.31
1 3 12 346.42 44.6
1 3 13 6.75 14.91
1 3 13 -3.03 14.26
1 3 13 -10.09 14.86
1 3 14 72.75 21.66
1 3 14 121.44 23.76
1 3 14 51.13 19.31
1 4 -12 -5.35 14.7
1 4 -12 5.27 15.51
1 4 -12 23.39 17.8
1 4 -11 143.69 25.04
1 4 -11 160.03 27.34
1 4 -11 136.75 25.63
1 4 -11 214.08 32.68
1 4 -11 194.94 31.18
1 4 -10 33.94 15.55
1 4 -10 65.87 18.41
1 4 -10 33.6 15.22
1 4 -10 72.55 21.58
1 4 -10 49.96 19.82
1 4 -9 290.18 33.23
1 4 -9 240.46 33.61
1 4 -9 243.01 33.51
1 4 -9 163.25 27.78
1 4 -9 212.16 29.47
1 4 -8 37.97 15.13
1 4 -8 5.56 12.36
1 4 -8 22.1 13.56
1 4 -8 21.72 12.73
1 4 -8 37.03 14.36
1 4 -8 8.65 10.28
1 4 -7 107.47 21.51
1 4 -7 151.56 22.98
1 4 -7 120.12 18.64
1 4 -7 81.85 17.82
1 4 -7 108.16 19
1 4 -7 99.85 19.78
1 4 -7 109.17 19.67
1 4 -6 578.9 57.63
1 4 -6 588.18 57.77
1 4 -6 612.32 59.3
1 4 -6 693.47 60.13
1 4 -6 599.28 57.7
1 4 -6 574.58 57.04
1 4 -6 620.73 56.31
1 4 -6 641.73 57.88
1 4 -5 397.45 38.83
1 4 -5 363.73 38.09
1 4 -5 400.51 38.6
1 4 -5 313.82 35.67
1 4 -5 318.13 36.88
1 4 -5 419.14 39.8
1 4 -5 324.21 37.42
1 4 -5 375.65 38.04
1 4 -5 333.1 37.3
1 4 -4 1000.79 80.8
1 4 -4 805.1 78.57
1 4 -4 950.29 79.66
1 4 -4 987.32 81.39
1 4 -4 894.53 79.27
1 4 -4 894.35 78.77
1 4 -4 942.51 79.54
1 4 -4 910.23 79.48
1 4 -3 14.6 7.69
1 4 -3 10.26 9.32
1 4 -3 10.47 8.59
1 4 -3 15.94 8.27
1 4 -3 20.68 8.26
1 4 -3 15.99 7.89
1 4 -3 15.31 8.38
1 4 -3 9.4 7.14
1 4 -3 10.17 7.88
1 4 -3 3.37 7.67
1 4 -2 870.21 71.94
1 4 -2 749.12 70.25
1 4 -2 761.51 70.3
1 4 -2 890.64 71.09
1 4 -2 806.25 70.19
1 4 -2 830.29 70.79
1 4 -2 842.67 73.87
1 4 -2 824.23 69.61
1 4 -2 811.6 71.94
1 4 -2 823.62 71.26
1 4 -2 796.22 69.04
1 4 -2 885.14 71.41
1 4 -2 862.57 69.61
1 4 -2 867.07 71.13
1 4 -2 835.35 70.88
1 4 -2 771.31 70.43
1 4 -1 342.1 32.48
1 4 -1 276.24 31.95
1 4 -1 315.11 31.15
1 4 -1 277.71 30.17
1 4 -1 331.88 31.85
1 4 -1 304.93 29.41
1 4 -1 365.89 35.52
1 4 -1 309.1 29.88
1 4 -1 376.44 34.65
1 4 -1 334.38 32.22
1 4 -1 281.02 32.06
1 4 -1 306.7 29.08
1 4 -1 294.66 29.86
1 4 -1 308.3 30.7
1 4 -1 299.38 30.58
1 4 -1 339.45 31.33
1 4 -1 317.7 31.23
1 4 0 493.17 42.72
1 4 0 467.24 38.29
1 4 0 424.91 43.47
1 4 0 428.73 40.58
1 4 0 466.77 40.93
1 4 0 439.82 41.37
1 4 0 442.03 39.93
1 4 0 477.19 45.57
1 4 0 487.91 40.11
1 4 0 493.64 44.27
1 4 0 427.86 42.04
1 4 0 447.02 42.45
1 4 0 440.71 38.48
1 4 0 446.35 40.65
1 4 0 468.6 39.03
1 4 0 453.57 40.88
1 4 0 483.03 41.19
1 4 0 437.83 40.41
1 4 0 418.17 40.41
1 4 1 38.26 9.47
1 4 1 42.82 8.37
1 4 1 41.6 6.95
1 4 1 56.72 11.41
1 4 1 42.72 10.88
1 4 1 47.27 8.81
1 4 1 39.43 8.9
1 4 1 36.53 8.63
1 4 1 41.97 8.42
1 4 1 45.02 12.13
1 4 1 56 8.16
1 4 1 49 10.7
1 4 1 53.18 11.98
1 4 1 39.92 9.8
1 4 1 46.77 9.3
1 4 1 43.63 8.04
1 4 1 38.55 8.29
1 4 1 49.43 9.09
1 4 1 53.25 8.63
1 4 1 53.51 9.29
1 4 1 39.54 8.29
1 4 2 1387.05 120.23
1 4 2 1369.26 123.27
1 4 2 1413.33 122.52
1 4 2 1499.5 116.61
1 4 2 1543.97 119.08
1 4 2 1517.15 118.32
1 4 2 1635.75 120.21
1 4 2 1444.6 119.5
1 4 2 1683.18 119.56
1 4 2 1518.61 120.34
1 4 2 1524.73 124.3
1 4 2 1550.77 117.53
1 4 2 1492.08 122.21
1 4 2 1465.03 121.06
1 4 2 1408.42 119.88
1 4 2 1442.39 119.85
1 4 2 1535.37 118.91
1 4 2 1478.9 118.1
1 4 2 1525.67 118.31
1 4 2 1576.56 118.57
1 4 2 1500.46 118.31
1 4 3 428.69 41.59
1 4 3 504.25 41.54
1 4 3 467.86 42.31
1 4 3 456.62 42.91
1 4 3 440.99 44.84
1 4 3 460.98 39.2
1 4 3 456.76 43.53
1 4 3 456.01 42.79
1 4 3 474.84 42.15
1 4 3 478.78 42.61
1 4 3 472.35 41.59
1 4 3 499.85 41.83
1 4 3 479.16 41.22
1 4 3 451.72 45.36
1 4 3 441.06 39.42
1 4 3 401.8 43.73
1 4 3 488.62 41.67
1 4 3 488.63 44.97
1 4 4 835.94 75.76
1 4 4 977.25 75.65
1 4 4 927.54 76.36
1 4 4 915.53 77.82
1 4 4 923.51 76.55
1 4 4 855.6 78.15
1 4 4 881.18 76.33
1 4 4 929.18 77.48
1 4 4 994.33 76.11
1 4 4 799.93 76.9
1 4 4 931.11 76.08
1 4 4 953.75 75.43
1 4 4 866.83 76.26
1 4 4 917.47 80.29
1 4 4 898.1 75.04
1 4 4 820.89 78.82
1 4 4 956.2 79.55
1 4 4 985.92 75.75
1 4 4 916.77 79.79
1 4 5 971.6 85.51
1 4 5 1009.57 88.84
1 4 5 997.19 88.26
1 4 5 917.83 88.13
1 4 5 1104.51 85.41
1 4 5 1077.21 84.85
1 4 5 1102.71 87.21
1 4 5 979.18 86.94
1 4 5 1161.65 85.81
1 4 5 1016 86.96
1 4 5 910.75 89.36
1 4 6 114.69 21.47
1 4 6 103.15 18.37
1 4 6 147.73 20.72
1 4 6 104.8 18.82
1 4 6 111.64 19.13
1 4 6 154.56 18.6
1 4 6 117.73 17.89
1 4 7 422.89 51.15
1 4 7 480.36 49.3
1 4 7 480.17 48.5
1 4 7 529.13 50.47
1 4 7 477.02 50.05
1 4 7 557.47 48.23
1 4 8 15.98 13.22
1 4 8 42.36 13.71
1 4 8 67.33 15.8
1 4 8 43.28 13.99
1 4 8 61.18 14.95
1 4 8 54.39 12.95
1 4 9 486.79 59.47
1 4 9 500.26 55.94
1 4 9 609.18 58.93
1 4 9 580.28 58.13
1 4 9 650.18 55.1
1 4 10 3.58 13.48
1 4 10 2.89 12.77
1 4 10 5.98 12.59
1 4 10 14.67 13.26
1 4 11 306.95 44.32
1 4 11 290.59 40
1 4 11 418.99 44.74
1 4 11 365.48 43.06
1 4 12 7.3 16.14
1 4 12 3.11 15.49
1 4 12 6.77 16.87
1 4 13 122.3 26.99
1 4 13 171.56 28.97
1 4 13 176.03 31.62
1 5 -11 36.41 15.96
1 5 -11 13.88 17.41
1 5 -10 59.49 19.36
1 5 -10 68.72 19.27
1 5 -10 103.17 21.04
1 5 -10 67.22 23.27
1 5 -9 125.58 23.3
1 5 -9 88.66 20.97
1 5 -9 81.31 19.96
1 5 -9 106.08 24
1 5 -8 28.03 14.51
1 5 -8 37.41 14.78
1 5 -8 21.18 15.98
1 5 -8 14.57 12.86
1 5 -7 375.59 40.79
1 5 -7 363.98 39.77
1 5 -7 300.75 38.59
1 5 -7 346.25 41.32
1 5 -7 371.92 39.97
1 5 -7 321.52 38.18
1 5 -6 2.37 10.22
1 5 -6 2.35 11.9
1 5 -6 6.88 11.02
1 5 -6 -5.19 11.46
1 5 -6 4.02 10.02
1 5 -6 -4.6 12.05
1 5 -6 -8.63 11.5
1 5 -5 308.98 36.96
1 5 -5 316.5 36.69
1 5 -5 340.47 37.21
1 5 -5 298.59 36.37
1 5 -5 327.64 36.45
1 5 -5 386 38.02
1 5 -5 358.05 38.3
1 5 -4 2.13 10.09
1 5 -4 20.62 10.51
1 5 -4 15.22 12.68
1 5 -4 28.76 11.49
1 5 -4 18.89 9.94
1 5 -4 10.17 10.37
1 5 -3 697.86 67.5
1 5 -3 750.01 64.26
1 5 -3 734.65 64.56
1 5 -3 824.87 66.27
1 5 -3 623.45 62.64
1 5 -3 684.82 64.61
1 5 -2 117.96 16.22
1 5 -2 98.19 16.96
1 5 -2 84.11 16.06
1 5 -2 110.18 16.76
1 5 -2 91.53 15.86
1 5 -2 80.62 17.41
1 5 -2 75.43 18.88
1 5 -1 370.5 35.57
1 5 -1 434.56 39.24
1 5 -1 334.34 36.47
1 5 -1 382.47 36.93
1 5 -1 386.02 40.28
1 5 -1 302.77 35.7
1 5 -1 382.98 41.53
1 5 0 397.63 45.31
1 5 0 456.17 40.15
1 5 0 444.63 40.84
1 5 0 410.54 40.39
1 5 0 416.66 40.52
1 5 0 447.65 42.12
1 5 0 470.73 46.09
1 5 0 407.69 42.5
1 5 0 405.6 40.5
1 5 0 479.5 41.36
1 5 0 411.51 40.47
1 5 0 446.01 43.14
1 5 1 896.21 77.9
1 5 1 828.93 71.99
1 5 1 771.11 72.41
1 5 1 808.11 76.13
1 5 1 838.76 74.52
1 5 1 861.64 70.89
1 5 1 873.06 71.95
1 5 2 372.44 35.75
1 5 2 422.69 39.41
1 5 2 317.2 38.5
1 5 2 355.22 33.88
1 5 2 314.01 38.66
1 5 3 361.74 36.18
1 5 3 393.92 40.47
1 5 3 317.93 37.15
1 5 3 321.58 38.14
1 5 3 357.82 34.86
1 5 4 1292.49 101.26
1 5 4 1212.38 104.22
1 5 4 1265.46 103.77
1 5 4 1204.41 104.94
1 5 4 1159.07 105.77
1 5 4 1254.42 104.36
1 5 4 1147.58 104.62
1 5 5 116.71 21.05
1 5 5 86.14 16.97
1 5 5 120.08 19.47
1 5 5 101.79 18.73
1 5 5 90.82 19.56
1 5 5 118.36 20.91
1 5 6 168.94 28.34
1 5 6 273.75 28.82
1 5 6 187.1 26.24
1 5 6 232.51 30.39
1 5 6 219.5 28.85
1 5 6 211.45 29.94
1 5 7 121.75 24.32
1 5 7 153.34 21.6
1 5 7 159.19 25.43
1 5 7 142.4 23.58
1 5 7 141.93 24.48
1 5 8 535.92 64.12
1 5 8 749.44 62.11
1 5 8 615.62 62.41
1 5 8 648.85 64.03
1 5 8 645.9 64.82
1 5 9 18.2 17.55
1 5 9 17.6 11.45
1 5 9 38.02 16.14
1 5 9 14.98 13.32
1 5 9 18.97 13.35
1 5 10 685.37 58.03
1 5 10 582.94 61.24
1 5 10 614.11 62.39
1 5 11 148.77 28.78
1 5 11 162.02 28.9
1 5 11 106.92 28.59
1 5 12 31.94 18.27
1 5 12 53.22 20.56
1 5 12 42.96 21.04
1 6 -9 17.77 12.67
1 6 -9 2.59 12.93
1 6 -9 7.95 14.36
1 6 -8 83.42 21.04
1 6 -8 58.6 18.55
1 6 -8 102.58 21.21
1 6 -8 97.74 21.34
1 6 -7 7.75 13.34
1 6 -7 20.27 13.93
1 6 -7 4.49 12.17
1 6 -7 15.53 13.37
1 6 -7 5.07 13.33
1 6 -6 479.64 50.16
1 6 -6 495.13 50.76
1 6 -6 495.87 49.37
1 6 -6 482.08 49.51
1 6 -6 473.17 50.94
1 6 -6 469.3 50.21
1 6 -5 51.92 16.9
1 6 -5 52.68 16.15
1 6 -5 67.21 16.51
1 6 -5 46.25 16.81
1 6 -5 35.66 16.12
1 6 -4 71.62 18.35
1 6 -4 68.38 20.75
1 6 -4 116.24 20.52
1 6 -4 84.44 17.38
1 6 -4 78.18 18.5
1 6 -3 151.84 25.38
1 6 -3 159.76 23.24
1 6 -3 160.54 24.73
1 6 -3 214.06 30.39
1 6 -3 180.8 25.76
1 6 -2 311.88 35.59
1 6 -2 332.96 36.56
1 6 -2 388.03 42.6
1 6 -2 288.5 35.75
1 6 -1 620.46 59.64
1 6 -1 623.02 59.86
1 6 -1 602.64 62.73
1 6 -1 601.64 64.09
1 6 -1 721.35 59.82
1 6 0 247.91 28.59
1 6 0 183.41 27.11
1 6 0 213.91 31.47
1 6 0 231.56 29.41
1 6 0 238.19 33.69
1 6 0 250.69 27.9
1 6 1 76.04 16.51
1 6 1 109.61 21.34
1 6 1 62.91 14.8
1 6 1 61.17 18.5
1 6 1 58.93 14.6
1 6 2 5.01 10.01
1 6 2 15.13 13.37
1 6 2 1.93 8.14
1 6 2 3 11.67
1 6 2 4.41 9.07
1 6 3 713.33 69.14
1 6 3 663.3 62.88
1 6 3 680.94 69.33
1 6 3 784.39 69.1
1 6 4 8.41 11.24
1 6 4 17.09 11.98
1 6 4 18.79 14.48
1 6 4 2.4 10.89
1 6 4 17.28 14.63
1 6 5 775.39 76.21
1 6 5 778.46 73.63
1 6 5 778.59 75.55
1 6 5 747.35 74.19
1 6 5 851.33 74.06
1 6 6 15.57 14.75
1 6 6 26.96 13.52
1 6 6 19.21 14.23
1 6 6 11.93 11.56
1 6 6 35.25 14.97
1 6 7 172.97 31.37
1 6 7 239.76 32.49
1 6 7 203.2 32.09
1 6 7 282.44 35.6
1 6 7 239.67 30.06
1 6 8 185.82 30.67
1 6 8 214.85 30.66
1 6 8 221.1 32.77
1 6 8 142.5 28.58
1 6 8 166.39 25.57
1 6 9 196.45 36.42
1 6 9 308.48 41.13
1 6 9 302.72 38.14
1 6 9 283.74 39.01
1 6 9 298.49 35.32
1 6 10 208.5 37.27
1 6 10 237.57 35.62
1 6 10 274.57 39.24
1 6 11 53.41 22.39
1 6 11 49.62 21.02
1 6 11 11.48 19.59
1 6 12 72.14 24.58
1 7 -7 222.38 31.22
1 7 -7 189.61 30.39
1 7 -7 191.34 30.18
1 7 -7 230 31.96
1 7 -6 206.59 28.71
1 7 -6 168.6 27.68
1 7 -6 175.91 27.37
1 7 -6 160.91 25.78
1 7 -6 129.38 25.4
1 7 -6 125.25 23.96
1 7 -5 12.73 13.62
1 7 -5 18.53 15.02
1 7 -5 17.08 14.22
1 7 -5 31.58 15.73
1 7 -5 12.1 12.55
1 7 -4 124.25 23.54
1 7 -4 161.59 25.79
1 7 -4 133.74 23.82
1 7 -4 132.82 23.32
1 7 -3 25.43 14
1 7 -3 52.88 15.4
1 7 -3 17.12 16.95
1 7 -3 42.36 15.95
1 7 -2 84.38 19.95
1 7 -2 97.03 19.73
1 7 -2 87.36 19.5
1 7 -2 112.37 25.71
1 7 -1 115.13 22.61
1 7 -1 124.76 27.66
1 7 -1 137.71 22.66
1 7 0 448.11 52.4
1 7 0 468.13 48.86
1 7 0 450.94 54.38
1 7 0 468.09 48.41
1 7 1 76.52 21.53
1 7 1 65.94 17.9
1 7 1 71.15 22
1 7 1 55.31 16.25
1 7 2 444.99 53.55
1 7 2 512.55 52.33
1 7 2 460.76 49.43
1 7 2 468.28 54.64
1 7 2 458.88 47.79
1 7 3 6.93 15.67
1 7 3 21.39 13.53
1 7 3 -5.3 12.75
1 7 3 29.06 18.12
1 7 3 26.13 14.16
1 7 4 270.09 36.57
1 7 4 306.23 41.98
1 7 4 303.99 40.28
1 7 4 357.06 43.03
1 7 4 305.92 38.46
1 7 5 183.86 27.34
1 7 5 152.44 28.4
1 7 5 136.82 26.26
1 7 5 135 27.03
1 7 5 175.54 31.44
1 7 6 96.21 21.04
1 7 6 118.66 25.65
1 7 6 117.28 25.63
1 7 6 172.41 27.64
1 7 6 90.09 25.96
1 7 7 174.49 27.44
1 7 7 227.79 34.27
1 7 7 149.03 29.56
1 7 7 165.31 31.8
1 7 8 56.87 19.33
1 7 8 77.46 24.38
1 7 8 114.06 23.92
1 7 8 82.5 22.84
1 7 9 162.19 28.13
1 7 9 172.3 34.13
1 7 9 212.96 34.3
1 7 9 185.97 33.93
1 7 10 35.73 18.71
1 7 10 54.95 23.37
1 8 -5 109 23.21
1 8 -5 104.3 23.85
1 8 -5 117.05 22.78
1 8 -5 91.75 22.87
1 8 -4 -2.58 15.58
1 8 -4 20.61 16.64
1 8 -4 8.21 14.36
1 8 -4 2.72 13.78
1 8 -3 140.65 26.25
1 8 -3 163.53 26.53
1 8 -3 127.38 29.49
1 8 -2 -2.68 14.07
1 8 -2 -2.7 12.7
1 8 -2 22.64 23.57
1 8 -1 181.38 29.52
1 8 -1 211.31 30.5
1 8 -1 174.72 34.13
1 8 0 73.52 19.38
1 8 0 72.38 19.08
1 8 0 59.04 23.73
1 8 1 169.23 27.41
1 8 1 119.23 29.84
1 8 1 138.24 31.66
1 8 2 154.82 25.71
1 8 2 99.3 27.64
1 8 2 126.17 28.69
1 8 3 143.09 25.79
1 8 3 146.26 31.6
1 8 3 121.03 29.82
1 8 4 59.97 18.83
1 8 4 50.34 19.16
1 8 4 57.91 22.98
1 8 4 34.63 21.41
1 8 4 29.14 18.37
1 8 5 50.19 22.06
1 8 5 33.82 20.46
1 8 5 30.03 19.5
1 8 5 18.97 17
1 8 6 153.67 31.13
1 8 6 135.15 31.89
1 8 6 156.47 31
1 8 6 133.34 26.04
1 8 7 81.43 25.84
1 8 7 49.69 20.72
1 8 7 67.64 25.89
1 8 7 54.91 19.59
1 8 8 543.68 60.75
2 -7 -6 49.42 22.45
2 -7 -6 86.57 29.23
2 -7 -6 36.32 19.98
2 -7 -6 39.59 22.35
2 -7 -5 150.16 30.41
2 -7 -5 193.76 32.91
2 -7 -5 132.63 32.99
2 -7 -5 147.74 29.87
2 -7 -4 -3.41 14.73
2 -7 -4 -6.26 15.04
2 -7 -4 3.1 14.58
2 -7 -4 6.17 16.69
2 -7 -4 17.53 16.18
2 -7 -4 8.67 20.01
2 -7 -4 -3.1 14.91
2 -7 -4 9.25 15.09
2 -7 -3 180.05 31.66
2 -7 -3 148.69 28.55
2 -7 -3 177.7 30.3
2 -7 -3 180.33 30.65
2 -7 -3 201.45 32.63
2 -7 -3 211.79 37.45
2 -7 -3 187.62 30.67
2 -7 -3 225.95 32.21
2 -7 -2 -3.26 14.41
2 -7 -2 3.08 14.52
2 -7 -2 3.05 15.48
2 -7 -2 -3.05 15.18
2 -7 -2 9.38 14.12
2 -7 -2 15.78 18.58
2 -7 -2 -6.14 13.86
2 -7 -2 -3.05 15.19
2 -7 -1 111.31 24.06
2 -7 -1 67.35 20.16
2 -7 -1 97.03 22.48
2 -7 -1 72.76 21.17
2 -7 -1 79.91 20.52
2 -7 -1 122.97 27.47
2 -7 -1 79.28 20.69
2 -7 -1 75.56 22.41
2 -7 0 -9.39 14.44
2 -7 0 6.14 14.17
2 -7 0 15.2 15.95
2 -7 0 9.15 13.78
2 -7 0 -2.87 14.82
2 -7 0 2.81 12.12
2 -7 0 -3.52 15.55
2 -7 0 24.46 14.4
2 -7 0 -3.03 13.41
2 -7 1 202.9 30.93
2 -7 1 152.78 27.07
2 -7 1 141.38 26.71
2 -7 1 124.55 25.99
2 -7 1 174.18 28.54
2 -7 1 168.28 27.63
2 -7 1 149.13 28.73
2 -7 1 167.04 27.96
2 -7 1 183.42 29.41
2 -7 2 12.04 15.12
2 -7 2 18.51 16.54
2 -7 2 35.35 18.07
2 -7 2 27.44 16.6
2 -7 2 46.13 17.48
2 -7 2 26.67 16.14
2 -7 2 9.39 15.7
2 -7 2 21.46 16.93
2 -7 2 33.62 17.13
2 -7 3 127.18 24.95
2 -7 3 128.42 25.49
2 -7 3 136.37 25.79
2 -7 3 107.14 23.09
2 -7 3 157.68 27.47
2 -7 3 112.21 24.09
2 -7 3 101.7 22.89
2 -7 3 92.02 22.98
2 -7 4 100.7 23.58
2 -7 4 86.02 22.64
2 -7 4 140.1 26.4
2 -7 4 83.35 22.33
2 -7 4 105.35 23
2 -7 4 101.71 24.14
2 -7 4 149.55 26.74
2 -7 4 90.36 22.07
2 -7 5 36.57 17.58
2 -7 5 19.01 17.52
2 -6 -9 57.78 23.99
2 -6 -9 26.83 22.09
2 -6 -8 225.67 41.68
2 -6 -8 212.73 34.76
2 -6 -8 150.37 34.97
2 -6 -7 19.02 25.34
2 -6 -7 -4.07 15.35
2 -6 -7 -7.15 17.49
2 -6 -6 225.11 33.87
2 -6 -6 226.61 34.62
2 -6 -6 188.35 31.8
2 -6 -6 204.69 32.06
2 -6 -6 230.96 33.56
2 -6 -6 206.78 35.37
2 -6 -6 269.48 34.61
2 -6 -6 161.34 30.66
2 -6 -5 3.28 13.12
2 -6 -5 -2.98 13.73
2 -6 -5 2.96 14.21
2 -6 -5 -5.92 13.95
2 -6 -5 7.15 13.88
2 -6 -5 29.56 22.15
2 -6 -5 -5.93 15.56
2 -6 -5 2.98 12.86
2 -6 -4 208.05 31.79
2 -6 -4 182.95 29.26
2 -6 -4 179.54 28.84
2 -6 -4 165.91 28.17
2 -6 -4 176.86 29.26
2 -6 -4 186.81 31.14
2 -6 -4 223.5 37.82
2 -6 -4 218.76 31.38
2 -6 -4 185.65 29.52
2 -6 -3 -3.05 12.18
2 -6 -3 2.9 12.8
2 -6 -3 2.86 12.04
2 -6 -3 2.85 12.58
2 -6 -3 6.23 14.08
2 -6 -3 3.98 18.36
2 -6 -3 14.22 12.85
2 -6 -3 14.32 12.94
2 -6 -2 334.32 40.92
2 -6 -2 323.85 40.32
2 -6 -2 277.65 38.77
2 -6 -2 375.55 41.86
2 -6 -2 312.48 40.01
2 -6 -2 406.15 42.83
2 -6 -2 419.98 48.8
2 -6 -2 320.16 40.51
2 -6 -1 120.09 21.54
2 -6 -1 114.31 26.73
2 -6 -1 150.18 25.21
2 -6 -1 111.13 23.12
2 -6 -1 129.63 23.51
2 -6 -1 137.76 24.63
2 -6 -1 121.71 22.83
2 -6 -1 84.83 20.87
2 -6 -1 129.18 23.59
2 -6 0 213.29 29.48
2 -6 0 171.81 31.21
2 -6 0 184.1 27.48
2 -6 0 215.85 29.88
2 -6 0 195.95 30
2 -6 0 213.57 30.1
2 -6 0 148.8 26.89
2 -6 0 200.94 28.79
2 -6 0 146.88 26.88
2 -6 0 218.7 30.28
2 -6 1 234.85 29.37
2 -6 1 139.54 28.87
2 -6 1 216.56 30.59
2 -6 1 213.58 30.5
2 -6 1 157.73 28.07
2 -6 1 211.73 30.3
2 -6 1 231.19 30
2 -6 1 231.42 29.93
2 -6 1 161.41 28.05
2 -6 1 197.01 29.52
2 -6 2 24.44 15.37
2 -6 2 2.99 12.92
2 -6 2 13.61 12.32
2 -6 2 33.35 15.94
2 -6 2 -5.7 11.42
2 -6 2 14.09 13.55
2 -6 2 22.67 14.4
2 -6 2 18.34 12.84
2 -6 2 2.84 12.55
2 -6 2 5.64 12.49
2 -6 3 203.04 29.68
2 -6 3 123.94 26.23
2 -6 3 174.14 27.86
2 -6 3 152.12 27.42
2 -6 3 140 26.25
2 -6 3 192.89 29.07
2 -6 3 208.7 30.11
2 -6 3 216.18 29.2
2 -6 3 182.7 29.34
2 -6 3 210.41 29.98
2 -6 4 131.21 24.3
2 -6 4 82.39 21.26
2 -6 4 127.19 23.98
2 -6 4 96.64 22.05
2 -6 4 104.79 23.09
2 -6 4 97.1 21.48
2 -6 4 102.71 21.72
2 -6 4 132.49 23.9
2 -6 4 100.02 22.8
2 -6 5 130.09 25.1
2 -6 5 102.27 25.3
2 -6 5 121.79 23.92
2 -6 5 183.01 27.61
2 -6 5 101.11 22.89
2 -6 5 144.91 25.95
2 -6 5 110.01 23.89
2 -6 5 177.68 27.1
2 -6 6 18.37 16.32
2 -6 6 -2.94 12.69
2 -6 6 5.89 14.42
2 -6 6 14.37 14.33
2 -6 6 8.72 14.24
2 -6 6 14.49 15.69
2 -6 6 8.73 13.99
2 -6 6 5.85 13.24
2 -6 7 114.36 24.46
2 -6 7 54.7 18.68
2 -6 7 64.47 19.77
2 -6 7 59.14 18.11
2 -6 7 59.97 20.59
2 -6 7 92.6 21.83
2 -6 7 61.5 18.57
2 -6 7 58.94 18.89
2 -6 8 8.61 15.06
2 -6 8 -17.72 15.49
2 -6 8 17.56 14.32
2 -6 8 18.44 17.61
2 -6 8 11.71 15.83
2 -6 8 -2.94 16.64
2 -5 -10 28.79 22.65
2 -5 -10 19.1 19.12
2 -5 -9 156.33 34.74
2 -5 -9 147.45 32.9
2 -5 -9 151.09 27.23
2 -5 -9 122.53 28.49
2 -5 -8 15.44 15.13
2 -5 -8 12.31 16.15
2 -5 -8 25.98 22.34
2 -5 -8 6.16 15.08
2 -5 -8 6.18 13.97
2 -5 -8 -9.32 15.76
2 -5 -8 20.79 17.95
2 -5 -8 8.28 14.02
2 -5 -8 3.56 15.76
2 -5 -7 524.44 59.89
2 -5 -7 674.85 59.43
2 -5 -7 599.74 59.17
2 -5 -7 485.41 56.26
2 -5 -7 549.62 57.85
2 -5 -7 498.26 61.4
2 -5 -7 515.37 57.52
2 -5 -7 587.16 58.9
2 -5 -6 3.67 15.07
2 -5 -6 -6.39 13.12
2 -5 -6 23.07 14.37
2 -5 -6 17.15 15.7
2 -5 -6 14.37 13.81
2 -5 -6 -2.89 13.05
2 -5 -6 -2.88 13.27
2 -5 -6 3.9 17.22
2 -5 -6 2.9 13.38
2 -5 -5 457.39 50.98
2 -5 -5 415.8 48.99
2 -5 -5 451.55 49.94
2 -5 -5 519.99 51.52
2 -5 -5 523.52 55.16
2 -5 -5 391.81 53.56
2 -5 -5 481.1 50.45
2 -5 -5 488.84 50.71
2 -5 -4 336.2 39.54
2 -5 -4 285.39 37.45
2 -5 -4 301.18 38.18
2 -5 -4 305.32 38.04
2 -5 -4 365.1 42.1
2 -5 -4 315.97 44.38
2 -5 -4 337.19 38.84
2 -5 -4 303.49 37.68
2 -5 -3 29.06 13.79
2 -5 -3 19.12 12.22
2 -5 -3 36.72 14.34
2 -5 -3 49.56 16.24
2 -5 -3 57.46 17.17
2 -5 -3 44.7 20.1
2 -5 -3 76.17 16.9
2 -5 -3 67.95 18.04
2 -5 -2 268.99 33.94
2 -5 -2 226.47 32.38
2 -5 -2 304.02 34.7
2 -5 -2 290.31 34.66
2 -5 -2 276.39 33.89
2 -5 -2 262.44 33.58
2 -5 -2 294.24 34.23
2 -5 -2 225.29 32.6
2 -5 -2 276.34 38.75
2 -5 -1 183.69 26.81
2 -5 -1 184.42 30.72
2 -5 -1 236.58 29.5
2 -5 -1 172.09 27.46
2 -5 -1 177.59 26.69
2 -5 -1 227.64 28.98
2 -5 -1 240.63 29.45
2 -5 -1 186.33 27.21
2 -5 -1 175.35 27.26
2 -5 -1 199.56 28.16
2 -5 0 142.86 22.6
2 -5 0 154.89 27.71
2 -5 0 161.18 25.31
2 -5 0 150.81 24.07
2 -5 0 156.88 24.58
2 -5 0 148.85 24.64
2 -5 0 225.43 26.76
2 -5 0 183.65 25.34
2 -5 0 116.64 22.44
2 -5 0 163.79 24.85
2 -5 1 102.1 18.99
2 -5 1 107.22 19.07
2 -5 1 80.19 20.33
2 -5 1 102.03 19.24
2 -5 1 94.66 18.95
2 -5 1 70.89 17.69
2 -5 1 96.11 19.5
2 -5 1 109.31 19.29
2 -5 1 78.85 18.24
2 -5 1 70.72 17.65
2 -5 2 472.4 52.18
2 -5 2 515.13 48.96
2 -5 2 550.65 51.49
2 -5 2 479.06 51.02
2 -5 2 512.02 51.99
2 -5 2 505.55 51.6
2 -5 2 492.59 51.03
2 -5 2 480.87 50.52
2 -5 2 450.85 50.43
2 -5 2 534.33 52.35
2 -5 3 -7.39 12.28
2 -5 3 5.26 11.35
2 -5 3 -4.65 9.04
2 -5 3 -2.52 11.13
2 -5 3 -2.57 10.83
2 -5 3 -5.1 11.76
2 -5 3 2.56 11.57
2 -5 3 2.38 10.26
2 -5 3 2.55 11.76
2 -5 3 2.56 11.83
2 -5 4 222.78 30.66
2 -5 4 239.62 30.92
2 -5 4 198.51 29.76
2 -5 4 195.91 29.77
2 -5 4 261.08 32.25
2 -5 4 221.57 31.02
2 -5 4 276.49 33.01
2 -5 4 231.64 30.92
2 -5 4 241.91 31.45
2 -5 4 243.06 31.7
2 -5 5 50.81 15.09
2 -5 5 37.36 14.28
2 -5 5 29.23 13.69
2 -5 5 40.08 14.65
2 -5 5 18.04 13.06
2 -5 5 31.42 14.98
2 -5 5 28.44 13.76
2 -5 5 34.4 15.74
2 -5 5 21.04 14.84
2 -5 6 347.86 41.51
2 -5 6 279.79 38.89
2 -5 6 373.74 40.88
2 -5 6 353.68 40.47
2 -5 6 414.85 43.49
2 -5 6 337.96 40.5
2 -5 6 407.01 42.69
2 -5 6 295.94 39.66
2 -5 7 88.42 21.6
2 -5 7 81.83 19.42
2 -5 7 70.26 18.7
2 -5 7 52.74 17.64
2 -5 7 72.88 18.37
2 -5 7 71.88 19.85
2 -5 7 48.68 17.32
2 -5 7 86.87 19.67
2 -5 8 83.43 21.02
2 -5 8 82.63 19.93
2 -5 8 66.26 19.31
2 -5 8 79.62 19.41
2 -5 8 54.58 18.19
2 -5 8 84.46 21.51
2 -5 8 71.02 19.77
2 -5 8 46.69 17.55
2 -5 9 11.11 13.98
2 -5 9 23.5 16.01
2 -5 9 27.58 16.54
2 -5 9 30.51 15.79
2 -5 9 27.62 15.51
2 -5 9 31.45 18.36
2 -5 9 35.42 18.55
2 -5 10 35.96 17.72
2 -5 10 13.92 14.66
2 -5 10 8.31 13.87
2 -5 10 19.51 15.8
2 -4 -12 149.39 29.01
2 -4 -11 10.65 21.14
2 -4 -11 -3.12 16.1
2 -4 -11 4.84 19.89
2 -4 -10 489.47 54.31
2 -4 -10 478.19 50.01
2 -4 -10 420.09 51.47
2 -4 -9 58.28 24.6
2 -4 -9 110.29 23.83
2 -4 -9 118.46 25.88
2 -4 -9 101.8 22.81
2 -4 -9 92.07 22.82
2 -4 -9 133.8 25.29
2 -4 -9 146.77 30.15
2 -4 -9 87.19 28.14
2 -4 -9 116.85 24.34
2 -4 -9 150.47 26.49
2 -4 -8 304.29 46.92
2 -4 -8 417.12 46.95
2 -4 -8 421.05 44.41
2 -4 -8 349.21 41.93
2 -4 -8 408.97 44.49
2 -4 -8 339.24 42.12
2 -4 -8 342.29 42.04
2 -4 -8 334.33 47.26
2 -4 -8 388.64 43.64
2 -4 -8 305.22 41.88
2 -4 -7 36.65 15.81
2 -4 -7 11.37 13.84
2 -4 -7 3.16 13.31
2 -4 -7 5.66 11.65
2 -4 -7 11.26 12.74
2 -4 -7 -2.81 11.88
2 -4 -7 3.65 13.32
2 -4 -7 14.17 12.82
2 -4 -7 17.09 13.16
2 -4 -6 105.45 25.19
2 -4 -6 88.21 22.75
2 -4 -6 115.41 23.54
2 -4 -6 114.04 22.28
2 -4 -6 86.4 21.13
2 -4 -6 146.43 23.25
2 -4 -6 95.5 20.69
2 -4 -6 108.59 21.38
2 -4 -6 122.83 24.35
2 -4 -6 105.22 21.57
2 -4 -5 546.31 57.83
2 -4 -5 566.39 60.78
2 -4 -5 561.49 62.84
2 -4 -5 611.61 58.07
2 -4 -5 544.1 56.93
2 -4 -5 618.29 58.23
2 -4 -5 554.35 56.93
2 -4 -5 590.67 57.87
2 -4 -4 136.69 25.81
2 -4 -4 160.81 24.72
2 -4 -4 152.97 23.9
2 -4 -4 187.5 25.43
2 -4 -4 186.71 25.66
2 -4 -4 141.25 23.4
2 -4 -4 130.53 27.42
2 -4 -4 142.66 23.39
2 -4 -3 411.8 49.59
2 -4 -3 455.5 54.06
2 -4 -3 522.08 50.55
2 -4 -3 499.88 49.99
2 -4 -3 452.89 50.46
2 -4 -3 496.71 49.76
2 -4 -3 513.46 49.91
2 -4 -3 562.68 51.03
2 -4 -3 460.74 48.89
2 -4 -2 114.61 24.32
2 -4 -2 92.34 18.88
2 -4 -2 81.32 18.11
2 -4 -2 118.77 19.91
2 -4 -2 95.39 22.79
2 -4 -2 102.63 20.37
2 -4 -2 123.17 20.01
2 -4 -2 96.27 18.52
2 -4 -2 110.33 19.31
2 -4 -2 100.68 18.62
2 -4 -1 222.17 25.1
2 -4 -1 197.69 24.34
2 -4 -1 170.31 27.63
2 -4 -1 175.38 23.58
2 -4 -1 132.75 22.48
2 -4 -1 182.52 24.39
2 -4 -1 131.19 26.87
2 -4 -1 147.01 23.58
2 -4 -1 177.03 24.42
2 -4 -1 146.85 23.46
2 -4 -1 185.74 24.67
2 -4 0 101.83 16.95
2 -4 0 93.43 20.19
2 -4 0 114.77 17.79
2 -4 0 92.21 16.71
2 -4 0 52.75 13.83
2 -4 0 64.79 15.37
2 -4 0 59.32 15.02
2 -4 0 106.18 21.12
2 -4 0 99.42 17.23
2 -4 0 79.07 16.64
2 -4 0 79.42 17.08
2 -4 1 2096.92 146.64
2 -4 1 2098.41 146.83
2 -4 1 1613.73 142.62
2 -4 1 1561.92 146.99
2 -4 1 1796.54 144.73
2 -4 1 1847.9 146.19
2 -4 1 1683.18 144.84
2 -4 1 1587.92 147.25
2 -4 1 1711.32 145.13
2 -4 1 1766.76 145.64
2 -4 1 1778.66 145.67
2 -4 2 429.33 42.26
2 -4 2 444.15 42.86
2 -4 2 363.37 43.11
2 -4 2 469.62 41.27
2 -4 2 387.39 40.94
2 -4 2 387.73 42.12
2 -4 2 434.12 43.12
2 -4 2 328.33 42.58
2 -4 2 436.76 43.04
2 -4 2 389.87 42.26
2 -4 2 378.45 41.82
2 -4 3 147.81 24.68
2 -4 3 187.3 23.56
2 -4 3 157.2 23.89
2 -4 3 187.12 25.54
2 -4 3 178.59 24.97
2 -4 3 204.16 25.38
2 -4 3 208.16 25.14
2 -4 3 165.6 24.38
2 -4 3 171.14 24.27
2 -4 4 64.96 15.61
2 -4 4 79.48 16.5
2 -4 4 57.68 15.89
2 -4 4 75.2 16.13
2 -4 4 95.2 18.46
2 -4 4 65.33 15.4
2 -4 4 72.66 16.08
2 -4 4 68.29 16.07
2 -4 4 74.79 16.75
2 -4 4 88.07 16.83
2 -4 5 126.48 21.21
2 -4 5 113.75 20.77
2 -4 5 138.73 22.87
2 -4 5 151.24 23.08
2 -4 5 121.76 21.11
2 -4 5 160.65 23.05
2 -4 5 177.94 24.35
2 -4 5 103.4 20.61
2 -4 5 145.72 22.58
2 -4 6 41.37 14.35
2 -4 6 45.32 14.69
2 -4 6 57.09 15.07
2 -4 6 37.55 14.81
2 -4 6 58.96 15.83
2 -4 6 84.96 17.53
2 -4 6 44.91 15.23
2 -4 6 40.42 14.64
2 -4 7 217.33 29.03
2 -4 7 185.48 28.19
2 -4 7 226 29.87
2 -4 7 208.51 30.73
2 -4 7 227 29.43
2 -4 7 270.69 32.5
2 -4 7 222.6 28.85
2 -4 7 204.02 29.01
2 -4 8 271.5 34.77
2 -4 8 226.98 32.97
2 -4 8 296.07 35.49
2 -4 8 287.06 35.13
2 -4 8 267.24 34.03
2 -4 8 268.62 35.62
2 -4 8 319.82 37.68
2 -4 8 317.39 35.24
2 -4 9 -2.54 11.56
2 -4 9 8.24 12.2
2 -4 9 30.31 16.94
2 -4 9 48 15.84
2 -4 9 22.72 14.71
2 -4 9 27.93 14.8
2 -4 9 9.1 15.44
2 -4 10 118.62 22.36
2 -4 10 129.52 24.43
2 -4 10 140.57 27.36
2 -4 10 79.54 19.91
2 -4 10 134.27 27.21
2 -4 10 107.57 22.36
2 -4 10 103.16 21.56
2 -4 11 -10 17.48
2 -4 11 -3.34 17.23
2 -4 11 -5.71 15.22
2 -3 -12 49.61 27.09
2 -3 -12 103.4 24.12
2 -3 -11 102.24 30.43
2 -3 -11 100.59 25.51
2 -3 -11 116.63 26.27
2 -3 -10 45.27 19.14
2 -3 -10 6.77 14.71
2 -3 -10 25.86 14.41
2 -3 -10 23.55 20.87
2 -3 -10 8.52 13.74
2 -3 -10 31.23 15.68
2 -3 -10 23.05 15.44
2 -3 -10 28.56 17.51
2 -3 -9 288.94 38.66
2 -3 -9 296.81 38.66
2 -3 -9 433.16 46.43
2 -3 -9 292.65 39
2 -3 -9 318.96 39.45
2 -3 -9 234.68 42.1
2 -3 -9 364.75 43.28
2 -3 -9 455.25 44.31
2 -3 -8 412.32 42.46
2 -3 -8 325.48 41.3
2 -3 -8 342.95 38.91
2 -3 -8 284.68 43.4
2 -3 -8 283.8 37.69
2 -3 -8 416.27 42.36
2 -3 -8 313.73 39.14
2 -3 -8 319.68 39.29
2 -3 -7 54.97 16.41
2 -3 -7 73.49 17
2 -3 -7 42.28 15.46
2 -3 -7 59.63 16.45
2 -3 -7 41.47 15.89
2 -3 -7 48.96 17.4
2 -3 -7 38.02 15.55
2 -3 -7 47.52 19.53
2 -3 -6 321.74 45.69
2 -3 -6 402.51 48.46
2 -3 -6 394.65 45.45
2 -3 -6 469.43 45.88
2 -3 -6 452.69 45.07
2 -3 -6 426.5 44.99
2 -3 -6 441.93 45.53
2 -3 -6 475.92 46.15
2 -3 -6 378.12 43.75
2 -3 -5 187.98 25.4
2 -3 -5 124.02 26.45
2 -3 -5 191.56 26.35
2 -3 -5 172.26 28.38
2 -3 -5 177.7 24.24
2 -3 -5 188.35 26.43
2 -3 -5 134.7 26.97
2 -3 -5 185.37 25.18
2 -3 -5 172.87 24.86
2 -3 -5 173.62 24.63
2 -3 -5 205.77 26.94
2 -3 -4 1147.23 91.16
2 -3 -4 1026.99 89.83
2 -3 -4 814.42 92.03
2 -3 -4 1071.13 94.41
2 -3 -4 1059.78 90.67
2 -3 -4 983.52 88.87
2 -3 -4 1070.15 91.47
2 -3 -4 978.36 94.27
2 -3 -4 1059.39 90.4
2 -3 -4 1064.04 90.25
2 -3 -4 1025.13 89.79
2 -3 -3 12.56 10.44
2 -3 -3 2.36 9.17
2 -3 -3 6.22 12.78
2 -3 -3 2.56 9.03
2 -3 -3 6.45 8.6
2 -3 -3 10.52 8.41
2 -3 -3 9.26 13.64
2 -3 -3 2.11 7.97
2 -3 -3 4.21 8.41
2 -3 -3 -2.09 8.13
2 -3 -2 913.08 78.08
2 -3 -2 814 77.2
2 -3 -2 829.28 81.4
2 -3 -2 924.04 76.89
2 -3 -2 820.47 80.42
2 -3 -2 992.87 77.64
2 -3 -2 879.01 76.41
2 -3 -2 790.29 75.27
2 -3 -2 874.24 76.25
2 -3 -2 826.51 75.89
2 -3 -2 807.47 75.64
2 -3 -2 886.32 77.59
2 -3 -1 166.61 21.59
2 -3 -1 157.63 21.17
2 -3 -1 151.16 20.5
2 -3 -1 155.78 20.77
2 -3 -1 147.35 24.87
2 -3 -1 133.26 20.71
2 -3 -1 115.71 19.19
2 -3 -1 146.77 24.22
2 -3 -1 154.95 20.69
2 -3 -1 149.98 21.48
2 -3 -1 168.13 21.87
2 -3 -1 171.54 22.27
2 -3 -1 143.37 21.06
2 -3 -1 166.11 22.96
2 -3 0 378.49 33.27
2 -3 0 277.09 32.31
2 -3 0 297.59 36.89
2 -3 0 350.58 32.8
2 -3 0 363.74 33.9
2 -3 0 376.41 34.08
2 -3 0 247.76 31.34
2 -3 0 255.88 35.21
2 -3 0 262.97 31.61
2 -3 0 319.62 33.28
2 -3 0 355.44 34.36
2 -3 0 286.69 32.85
2 -3 0 329.42 34.1
2 -3 0 238.05 32.59
2 -3 1 219.68 28.58
2 -3 1 275.11 33.45
2 -3 1 348.99 31.52
2 -3 1 301.14 30.47
2 -3 1 266 29.05
2 -3 1 265.4 33.23
2 -3 1 243.62 28.62
2 -3 1 304.06 31.37
2 -3 1 276.19 30.35
2 -3 1 296.95 31.02
2 -3 1 280.51 30.52
2 -3 1 210.41 29.51
2 -3 2 669.24 59.57
2 -3 2 562.2 60.37
2 -3 2 624.64 58.34
2 -3 2 695.97 59.31
2 -3 2 608.27 56.61
2 -3 2 658.87 62.29
2 -3 2 761.44 59.22
2 -3 2 675.51 59.97
2 -3 2 652.64 59.35
2 -3 2 714.59 60.51
2 -3 2 660.64 59.33
2 -3 2 534.49 58.29
2 -3 3 211.16 26.45
2 -3 3 185.65 27.5
2 -3 3 207.77 26.52
2 -3 3 260.55 27.66
2 -3 3 229.05 24.18
2 -3 3 215.83 28.59
2 -3 3 248.56 26.36
2 -3 3 260.17 27.91
2 -3 3 252.55 27.84
2 -3 3 236.58 27.62
2 -3 3 260.8 27.99
2 -3 3 204.95 26.78
2 -3 4 301.9 30.94
2 -3 4 272.78 30.3
2 -3 4 257.77 30.02
2 -3 4 210.15 28.97
2 -3 4 322.5 29.72
2 -3 4 262.4 29.87
2 -3 4 256.03 30.61
2 -3 4 250.02 29.97
2 -3 4 242.83 29.71
2 -3 4 278.66 30.3
2 -3 5 354.57 36.69
2 -3 5 400.47 38.28
2 -3 5 344.1 37.5
2 -3 5 257.98 34.77
2 -3 5 352.72 36.44
2 -3 5 324.92 36.9
2 -3 5 357.26 37.08
2 -3 5 310.2 35.93
2 -3 5 384.07 37.64
2 -3 5 378.83 39.73
2 -3 5 359.13 36.78
2 -3 5 388.9 37.75
2 -3 6 123.09 18.42
2 -3 6 99.16 18.08
2 -3 6 101.49 16.93
2 -3 6 87.75 16.83
2 -3 6 89.5 17.57
2 -3 6 93.06 17.03
2 -3 6 87.46 16.89
2 -3 6 83.2 17.13
2 -3 6 63.89 17.12
2 -3 7 766.04 66.19
2 -3 7 665.46 64.1
2 -3 7 710.83 62.84
2 -3 7 606.16 62.82
2 -3 7 706.9 63.45
2 -3 7 703.42 63.4
2 -3 7 654.78 62.51
2 -3 7 672.35 61.86
2 -3 7 716.09 63.3
2 -3 7 628.29 64.36
2 -3 8 2.18 9.17
2 -3 8 13.14 11.67
2 -3 8 -2.2 10.94
2 -3 8 2.4 10.62
2 -3 8 -2.04 8.37
2 -3 8 -2 8.84
2 -3 8 -2.59 11.19
2 -3 8 -2.66 10.34
2 -3 8 -8.71 11.42
2 -3 9 211.41 29.7
2 -3 9 203.66 28.23
2 -3 9 261.25 33.04
2 -3 9 268.32 33.12
2 -3 9 222.53 29.2
2 -3 9 184.96 27.86
2 -3 9 190.85 27.52
2 -3 10 26.93 15.3
2 -3 10 12.31 14.9
2 -3 10 39.49 15.21
2 -3 11 152.68 28.66
2 -3 11 127.19 26.42
2 -3 11 116.66 24.17
2 -3 12 3.42 15.77
2 -3 12 10.02 16.05
2 -3 12 8.32 14.08
2 -2 -13 117.42 31.08
2 -2 -13 130.85 33.14
2 -2 -12 61.81 24.72
2 -2 -12 39.65 22.94
2 -2 -12 40.49 18.12
2 -2 -12 32.68 19.48
2 -2 -11 50.22 16.92
2 -2 -11 13.92 13.22
2 -2 -11 11.35 13.74
2 -2 -11 19.78 13.68
2 -2 -11 41.9 18.57
2 -2 -11 37.6 18.28
2 -2 -11 12.21 14.48
2 -2 -10 206.44 33.42
2 -2 -10 301.46 36.26
2 -2 -10 268.2 35.48
2 -2 -10 251.55 34.99
2 -2 -10 345.96 40.31
2 -2 -10 330.44 39.1
2 -2 -10 330.98 38.44
2 -2 -9 715.16 60.81
2 -2 -9 602.7 59.11
2 -2 -9 502.36 53.87
2 -2 -9 411.88 58.12
2 -2 -9 505.54 55.17
2 -2 -9 805.26 62.02
2 -2 -9 514.55 54.94
2 -2 -9 551.67 56.34
2 -2 -9 464.54 54.37
2 -2 -8 20.31 12.01
2 -2 -8 7.66 10.26
2 -2 -8 25.93 12.8
2 -2 -8 20.06 11.86
2 -2 -8 15 11.35
2 -2 -8 7.32 13.39
2 -2 -8 5.39 11.68
2 -2 -8 19.94 11.75
2 -2 -7 715.64 83.76
2 -2 -7 922.64 81.09
2 -2 -7 1179.23 85.93
2 -2 -7 1031.23 84.93
2 -2 -7 858.21 80.64
2 -2 -7 857.4 80.77
2 -2 -7 915.75 81.68
2 -2 -7 820.69 80.53
2 -2 -6 171.93 28.12
2 -2 -6 206.89 31
2 -2 -6 277.71 30.95
2 -2 -6 208.86 27.64
2 -2 -6 202.36 27.02
2 -2 -6 185.66 26.94
2 -2 -6 242.75 28.65
2 -2 -6 193.21 27.22
2 -2 -6 251.03 29.03
2 -2 -5 513.1 51.57
2 -2 -5 550.21 52.16
2 -2 -5 582.46 52.56
2 -2 -5 556.55 49.26
2 -2 -5 486.74 56.25
2 -2 -5 552.94 53.18
2 -2 -5 616.16 52.98
2 -2 -5 412.05 52.12
2 -2 -5 526.21 51.69
2 -2 -5 535.01 51.92
2 -2 -4 56.54 12.89
2 -2 -4 32.89 13.6
2 -2 -4 41.41 11.95
2 -2 -4 45.38 11.81
2 -2 -4 22.64 11.98
2 -2 -4 40.4 10.54
2 -2 -4 60.64 11.24
2 -2 -4 58.04 15.99
2 -2 -4 50.14 13.64
2 -2 -4 69.74 13.44
2 -2 -4 49.96 11.95
2 -2 -4 42.13 11.91
2 -2 -4 33.51 12.63
2 -2 -3 604.2 68.7
2 -2 -3 865.65 65.49
2 -2 -3 693.08 64.92
2 -2 -3 671.7 68.86
2 -2 -3 799.65 66.74
2 -2 -3 795.61 67.32
2 -2 -3 770.52 65.84
2 -2 -3 733.12 65.35
2 -2 -3 728.99 62.66
2 -2 -3 576.67 65.36
2 -2 -3 872.81 64.29
2 -2 -3 721.33 68.9
2 -2 -3 661.6 64.72
2 -2 -3 743.32 63.71
2 -2 -3 685.28 64.62
2 -2 -3 699.96 64.94
2 -2 -3 797.87 67.25
2 -2 -2 525.56 46.58
2 -2 -2 383.52 46.58
2 -2 -2 529.32 42.64
2 -2 -2 438.95 43.97
2 -2 -2 446.02 48.09
2 -2 -2 501.53 45.45
2 -2 -2 485.57 45.03
2 -2 -2 459.61 41.4
2 -2 -2 381.36 44.86
2 -2 -2 587.7 43.93
2 -2 -2 462.99 46.75
2 -2 -2 402.34 43.17
2 -2 -2 485.68 43.22
2 -2 -2 441.94 43.83
2 -2 -2 471.24 44.44
2 -2 -2 445.53 43.98
2 -2 -2 398.91 43.4
2 -2 -2 445.5 44.17
2 -2 -1 303.38 45.36
2 -2 -1 554.16 42.61
2 -2 -1 463.22 43.59
2 -2 -1 425.82 45.03
2 -2 -1 506.91 50.55
2 -2 -1 601.05 47.04
2 -2 -1 533.07 46.59
2 -2 -1 479.42 45.93
2 -2 -1 428.21 45
2 -2 -1 555.16 46.45
2 -2 -1 360.53 45.6
2 -2 -1 581.08 45.63
2 -2 -1 528.03 48.35
2 -2 -1 514.25 46.1
2 -2 -1 474.06 45.52
2 -2 -1 583.64 47.57
2 -2 -1 518.98 46.56
2 -2 -1 490.04 47.46
2 -2 0 1092.04 84.88
2 -2 0 1083.64 88.53
2 -2 0 866.58 90.27
2 -2 0 1103.32 87.24
2 -2 0 1205.14 89.3
2 -2 0 1013.94 87.97
2 -2 0 1130.03 88.73
2 -2 0 1181.16 88.53
2 -2 0 1052.17 90.32
2 -2 0 1247.01 89.12
2 -2 0 1208.61 87.76
2 -2 0 1033.35 88.67
2 -2 0 1026.73 87.29
2 -2 0 1117.66 88.79
2 -2 0 1097.04 88.65
2 -2 0 1142.41 90.44
2 -2 1 1652.81 125.14
2 -2 1 1567.51 122.18
2 -2 1 1571.15 125.71
2 -2 1 1446.72 128.91
2 -2 1 1671.46 126.57
2 -2 1 1517.22 125.49
2 -2 1 1588.18 125.93
2 -2 1 1673.72 125.89
2 -2 1 1744.42 126.25
2 -2 1 1402.74 126.78
2 -2 1 1336.54 124.17
2 -2 1 1463.35 124.17
2 -2 1 1514.24 124.35
2 -2 1 1719.23 124.22
2 -2 1 1600.44 126.02
2 -2 1 1630.17 126.24
2 -2 1 1433.64 126.51
2 -2 2 368.58 31.95
2 -2 2 395.29 34.03
2 -2 2 383.71 34.9
2 -2 2 313.92 36.61
2 -2 2 391.43 35.84
2 -2 2 401.29 35.34
2 -2 2 398.2 35.22
2 -2 2 351.83 34.41
2 -2 2 302.63 34.46
2 -2 2 308.34 32.49
2 -2 2 334.82 32.71
2 -2 2 326.29 33.19
2 -2 2 339.65 34.34
2 -2 2 391.55 33.01
2 -2 2 339.21 34.4
2 -2 2 325.56 33.89
2 -2 2 276.34 33.97
2 -2 3 8.4 7.08
2 -2 3 1.5 6
2 -2 3 1.96 6.93
2 -2 3 5.87 5.53
2 -2 3 -1.55 6.03
2 -2 3 -1.58 6.66
2 -2 3 3.02 5.86
2 -2 3 9.21 5.74
2 -2 3 2.08 3.92
2 -2 3 -1.35 5.85
2 -2 3 -1.52 6.07
2 -2 3 2.14 4.74
2 -2 3 18.02 7.62
2 -2 3 1.51 6.51
2 -2 3 7.49 6.92
2 -2 4 1413.74 111.95
2 -2 4 1334.44 111.82
2 -2 4 1366.66 112.61
2 -2 4 1172.98 110.2
2 -2 4 1400.18 111.86
2 -2 4 1457.27 112.3
2 -2 4 1498.26 109.92
2 -2 4 1480.63 109.57
2 -2 4 1385.97 111.75
2 -2 4 1193.12 112.1
2 -2 4 1347.73 111.61
2 -2 4 1287.86 111.71
2 -2 4 1357.51 114.46
2 -2 4 1446.87 110.01
2 -2 5 57.35 13.41
2 -2 5 62.03 14.64
2 -2 5 70.28 13.1
2 -2 5 57.09 13.18
2 -2 5 115.03 16.94
2 -2 5 83.69 14.53
2 -2 5 90.73 13.97
2 -2 5 72.04 13.79
2 -2 5 84.02 12.13
2 -2 5 94.72 15.59
2 -2 5 82.36 12.87
2 -2 5 97.09 14.68
2 -2 5 87.19 13.93
2 -2 5 86.91 14.05
2 -2 6 597.15 52.48
2 -2 6 492.12 50.72
2 -2 6 616.59 52.37
2 -2 6 651.34 54.5
2 -2 6 573.84 52.31
2 -2 6 561.13 52.13
2 -2 6 600.58 52.75
2 -2 6 477.89 50.79
2 -2 6 624.86 55.07
2 -2 6 553.83 53.36
2 -2 6 581.47 55.45
2 -2 7 8.38 8.87
2 -2 7 19.92 10.86
2 -2 7 14.64 8.15
2 -2 7 5.36 6.78
2 -2 7 2 7.59
2 -2 7 19.19 12.4
2 -2 7 20.89 9.33
2 -2 7 17.7 9.17
2 -2 7 14.17 8.71
2 -2 7 8.9 8.09
2 -2 8 215.21 26.33
2 -2 8 193.24 25.63
2 -2 8 212.16 25.94
2 -2 8 261.81 29.11
2 -2 8 170.07 24.87
2 -2 8 235.28 29.62
2 -2 8 238.34 29.28
2 -2 8 245.18 30.6
2 -2 8 212.58 27.12
2 -2 9 48.28 14.03
2 -2 9 65.9 17.12
2 -2 9 45.69 15.23
2 -2 9 33.64 14.07
2 -2 9 62.78 15.17
2 -2 10 276.9 35.67
2 -2 10 336.83 40
2 -2 10 365.59 40.31
2 -2 10 298.94 36.13
2 -2 11 163.84 24.67
2 -2 11 94.31 20.46
2 -2 11 170.53 27.64
2 -2 11 129.53 25.59
2 -2 12 57.99 17.44
2 -2 12 79.85 21.37
2 -2 12 53.86 21.32
2 -2 13 107.27 25.35
2 -1 -13 38.43 25.03
2 -1 -13 52.22 22.34
2 -1 -13 46.59 22.91
2 -1 -13 52.72 20.64
2 -1 -13 40.51 20.65
2 -1 -12 249.56 33.56
2 -1 -12 196.5 31.93
2 -1 -12 135.15 26.61
2 -1 -12 185.9 29.97
2 -1 -12 188.57 29.47
2 -1 -12 148.23 28.23
2 -1 -12 161.96 32.95
2 -1 -11 -9.19 15.27
2 -1 -11 9.39 14.73
2 -1 -11 5.58 12.33
2 -1 -11 -3.73 16.46
2 -1 -11 2.75 12.67
2 -1 -11 21.83 16.26
2 -1 -11 -5.61 13.98
2 -1 -10 434.42 50.62
2 -1 -10 628.75 56.72
2 -1 -10 726.63 58.37
2 -1 -10 387.95 48.96
2 -1 -10 433.68 50.22
2 -1 -10 478.34 49.95
2 -1 -10 470.05 50.79
2 -1 -9 7.75 11.67
2 -1 -9 2.53 11.16
2 -1 -9 15.25 12.44
2 -1 -9 30.1 14.58
2 -1 -9 -8.36 12.03
2 -1 -9 -2.33 10.28
2 -1 -9 2.6 10.94
2 -1 -8 380.83 44.32
2 -1 -8 543 49.22
2 -1 -8 439.89 45.64
2 -1 -8 390.41 44.68
2 -1 -8 347.26 43.86
2 -1 -8 485.22 45.84
2 -1 -8 478.91 46.8
2 -1 -7 37.06 13.39
2 -1 -7 68.41 15.61
2 -1 -7 79.32 15.95
2 -1 -7 111.49 18.58
2 -1 -7 80.77 15.96
2 -1 -7 45.99 14.1
2 -1 -7 51.24 14.48
2 -1 -6 633.01 58.06
2 -1 -6 631.65 59.09
2 -1 -6 571.34 57
2 -1 -6 600.16 57.62
2 -1 -6 711.01 59.27
2 -1 -6 564.56 57.62
2 -1 -6 565.11 56.31
2 -1 -5 60.57 16.94
2 -1 -5 49.67 12.88
2 -1 -5 88.13 15.39
2 -1 -5 68.28 14.07
2 -1 -5 67.71 13.74
2 -1 -5 54.06 13.72
2 -1 -5 59.81 12.15
2 -1 -5 62.64 14.14
2 -1 -5 81.89 15.2
2 -1 -5 67.93 13.66
2 -1 -5 40.91 13.35
2 -1 -5 72.75 14.45
2 -1 -4 474.3 53.09
2 -1 -4 561.87 51.33
2 -1 -4 610.55 50.81
2 -1 -4 564.61 51.07
2 -1 -4 533.7 50.81
2 -1 -4 486.17 50.37
2 -1 -4 613.81 49.99
2 -1 -4 390.16 49.31
2 -1 -4 620.09 50.3
2 -1 -4 658.5 50.83
2 -1 -4 444.15 49.53
2 -1 -4 462.41 49.66
2 -1 -4 690.05 55.53
2 -1 -4 502.5 52.73
2 -1 -4 682.09 52.8
2 -1 -4 523.08 51.57
2 -1 -4 566.2 51.07
2 -1 -3 817.9 87.81
2 -1 -3 1100.09 87.76
2 -1 -3 1186.41 86.85
2 -1 -3 1101.89 87.49
2 -1 -3 1014.21 87.19
2 -1 -3 1014.03 86.97
2 -1 -3 998.83 84.77
2 -1 -3 770.45 86.38
2 -1 -3 1211.96 86.86
2 -1 -3 1176.01 86.56
2 -1 -3 1036.49 87.36
2 -1 -3 914.12 86.72
2 -1 -3 939.28 89.43
2 -1 -3 1088.06 87.37
2 -1 -3 1164.6 89.4
2 -1 -3 1038.94 88.47
2 -1 -3 1108.7 88.25
2 -1 -2 711.09 86.63
2 -1 -2 1062.98 87.86
2 -1 -2 1142.59 87.04
2 -1 -2 1001.72 87.46
2 -1 -2 1061.71 88.11
2 -1 -2 1013.77 87.52
2 -1 -2 1077.02 85.58
2 -1 -2 994.4 89.56
2 -1 -2 1156.69 87.26
2 -1 -2 1204.36 87.41
2 -1 -2 1027.9 87.84
2 -1 -2 1019.45 88.74
2 -1 -2 953.28 90.64
2 -1 -2 1080.04 88.61
2 -1 -2 1296.06 89.57
2 -1 -2 1189.68 90
2 -1 -2 1064.44 89.04
2 -1 -1 1886.07 148.52
2 -1 -1 1964.18 144.14
2 -1 -1 2164.01 144.89
2 -1 -1 1968.93 143.4
2 -1 -1 1935.03 144.17
2 -1 -1 2247.22 144.31
2 -1 -1 2028.06 144.53
2 -1 -1 2021.4 144.54
2 -1 -1 2058.44 144.68
2 -1 -1 1943.51 141.24
2 -1 -1 2034.45 144.28
2 -1 -1 1692.34 146.17
2 -1 -1 2269.69 144.5
2 -1 -1 1917.98 144.1
2 -1 -1 1898.72 146.03
2 -1 -1 1989.32 144.5
2 -1 -1 2008.64 145.3
2 -1 -1 1909.09 145.99
2 -1 0 109.53 15.7
2 -1 0 140.85 17.92
2 -1 0 140.92 19.77
2 -1 0 157.96 17.46
2 -1 0 121.18 16.19
2 -1 0 138.73 15.25
2 -1 0 123.13 16.12
2 -1 0 119.08 15.69
2 -1 0 126.56 12.21
2 -1 0 114.87 13.29
2 -1 0 125.65 15.67
2 -1 0 132.18 18.33
2 -1 0 158.35 16.74
2 -1 0 150.82 16.62
2 -1 0 114.65 15.11
2 -1 0 162.97 18.77
2 -1 0 115.02 15.83
2 -1 0 117.99 15.83
2 -1 0 132.54 16.47
2 -1 0 151.54 17.18
2 -1 1 797.95 68.29
2 -1 1 806.16 70.52
2 -1 1 835.77 67.08
2 -1 1 852.93 69.28
2 -1 1 790.1 65.03
2 -1 1 773.22 66.13
2 -1 1 757.06 63.39
2 -1 1 783.49 66.27
2 -1 1 825.19 63
2 -1 1 801.47 62.22
2 -1 1 841.15 66.67
2 -1 1 825.78 66.41
2 -1 1 830.58 69.34
2 -1 1 875.38 66.94
2 -1 1 765.46 65.04
2 -1 1 757.85 67.69
2 -1 1 826.83 66.64
2 -1 1 723.42 65.89
2 -1 1 700.25 65.75
2 -1 1 763.33 66.27
2 -1 2 660.66 63.54
2 -1 2 748.21 63.32
2 -1 2 705.81 60.04
2 -1 2 706.54 59.63
2 -1 2 706.29 58.05
2 -1 2 733.36 60.5
2 -1 2 843.09 59.52
2 -1 2 726.94 58.05
2 -1 2 691.84 57.24
2 -1 2 734.92 60.68
2 -1 2 738.72 60.93
2 -1 2 728.5 62.72
2 -1 2 674.55 59.95
2 -1 2 700.71 60.23
2 -1 2 756.66 59.25
2 -1 2 662.95 59.93
2 -1 2 747.31 62.33
2 -1 2 736.36 62.59
2 -1 2 696.68 60.36
2 -1 2 683.3 60.09
2 -1 3 592.73 61.75
2 -1 3 709.77 64.49
2 -1 3 745.01 64.72
2 -1 3 623.38 56.35
2 -1 3 773.89 61.61
2 -1 3 712.34 59.6
2 -1 3 795.76 62.07
2 -1 3 752.91 61.83
2 -1 3 834.32 60.32
2 -1 3 855.31 60.63
2 -1 3 774.12 59.46
2 -1 3 681.87 59.47
2 -1 3 779.85 62.34
2 -1 3 821.52 63.34
2 -1 3 786.58 63.79
2 -1 3 713.28 60.28
2 -1 3 768.73 59.71
2 -1 3 835.28 62.58
2 -1 3 727.14 62.73
2 -1 3 764.61 61.73
2 -1 3 721.41 61.41
2 -1 3 784.49 62.05
2 -1 4 135.43 18.74
2 -1 4 141.56 19.84
2 -1 4 174.46 21.9
2 -1 4 170.62 15.79
2 -1 4 190.21 19.25
2 -1 4 157.45 17.62
2 -1 4 181.04 19.11
2 -1 4 181.86 17.33
2 -1 4 163.49 18.66
2 -1 4 188.27 18.66
2 -1 4 158.64 16.63
2 -1 4 167.26 19.88
2 -1 4 149.69 19.44
2 -1 4 178.94 19.69
2 -1 4 188.77 18.69
2 -1 4 153.15 16.15
2 -1 4 160.35 16.32
2 -1 4 157.81 18.83
2 -1 4 153.72 18.68
2 -1 4 166.23 19.53
2 -1 4 184.4 19.22
2 -1 4 176.75 19
2 -1 4 185.82 19.26
2 -1 5 1249 109.76
2 -1 5 1409.19 113.19
2 -1 5 1419.46 108.84
2 -1 5 1340.34 107.68
2 -1 5 1383.29 109.95
2 -1 5 1371.67 108.74
2 -1 5 1335.28 108.31
2 -1 5 1454.91 111.24
2 -1 5 1221.04 108.2
2 -1 5 1298.58 109.67
2 -1 5 1480.74 108.46
2 -1 5 1325.24 108.68
2 -1 5 1417.96 108.52
2 -1 5 1392.2 109.21
2 -1 5 1155.4 107.58
2 -1 5 1429.04 108.96
2 -1 5 1449.34 108.94
2 -1 5 1293.89 108.87
2 -1 6 138.43 19.99
2 -1 6 74.96 14.17
2 -1 6 145.97 16.35
2 -1 6 160.12 19.52
2 -1 6 112.08 16.74
2 -1 6 108.43 14.94
2 -1 6 125.62 16.09
2 -1 6 106.35 15.07
2 -1 6 144.91 15.69
2 -1 6 107.24 15.21
2 -1 6 93.91 15.82
2 -1 6 127.29 15.82
2 -1 6 85.85 14.99
2 -1 7 505.44 49.05
2 -1 7 431.16 45.59
2 -1 7 475.06 45.89
2 -1 7 471.95 44.41
2 -1 7 547.92 48.53
2 -1 7 515.06 46.79
2 -1 7 470.23 44.27
2 -1 7 467.86 44.3
2 -1 7 485.39 44.51
2 -1 8 633.45 58.98
2 -1 8 639.84 60.42
2 -1 8 695.35 60.2
2 -1 8 614.71 58.18
2 -1 8 588.88 60.38
2 -1 9 74.32 16.69
2 -1 9 126.57 19.95
2 -1 9 120.35 21.01
2 -1 9 66.96 15.86
2 -1 9 91.47 20.38
2 -1 10 227.01 28.26
2 -1 10 240.53 29.97
2 -1 10 158.27 27.76
2 -1 10 177.49 26.52
2 -1 10 232.35 31.61
2 -1 11 39.12 17.12
2 -1 11 64.64 17.42
2 -1 11 39.56 16.24
2 -1 11 27.3 13.56
2 -1 12 177.87 30.86
2 -1 12 134.53 25.64
2 -1 12 156.37 25.52
2 -1 13 3.25 16.47
2 -1 13 -3.48 17.98
2 -1 13 2.69 12.94
2 -1 13 20.32 13.95
2 -1 14 93.38 21.05
2 -1 14 52.27 19.29
2 0 -13 248.41 33.78
2 0 -13 177.54 34.45
2 0 -13 184.33 31.67
2 0 -13 183.37 32.34
2 0 -13 307.78 39.86
2 0 -13 354.27 41.16
2 0 -12 11.03 12.99
2 0 -12 2.78 13.63
2 0 -12 9.76 15.01
2 0 -12 6.48 16.73
2 0 -12 -2.85 14.95
2 0 -11 284.17 38.6
2 0 -11 340.8 40.89
2 0 -11 410.72 44.35
2 0 -11 475.15 47.15
2 0 -11 246.03 37.43
2 0 -10 2.94 12.4
2 0 -10 -2.92 12.89
2 0 -10 9.48 10.96
2 0 -10 2.67 14
2 0 -10 18.01 14.55
2 0 -10 20.82 13.21
2 0 -9 233.18 29.73
2 0 -9 243.4 30.96
2 0 -9 257.48 32.28
2 0 -9 306.72 34.35
2 0 -9 292.94 34.23
2 0 -8 189.71 27.38
2 0 -8 170.83 25.95
2 0 -8 211.58 27.77
2 0 -8 233.85 28.74
2 0 -8 188.1 26.82
2 0 -8 240.77 30.03
2 0 -8 260.95 31.23
2 0 -7 628.76 57.14
2 0 -7 571.44 55.52
2 0 -7 506.55 55.31
2 0 -7 606.75 57.53
2 0 -7 538.83 56.08
2 0 -6 783.98 58.33
2 0 -6 586.86 54.61
2 0 -6 539.09 54.21
2 0 -6 494.8 49.82
2 0 -6 505.54 53.07
2 0 -6 531.36 53.12
2 0 -6 740.47 53.99
2 0 -6 527.83 53.64
2 0 -5 74.95 23.84
2 0 -5 227.49 26.41
2 0 -5 176.95 25.38
2 0 -5 192.04 24.28
2 0 -5 246.21 26.16
2 0 -5 242.78 27.29
2 0 -5 254.24 27.51
2 0 -5 351.08 30.8
2 0 -5 227.85 25.24
2 0 -5 280.91 25.93
2 0 -5 208.46 25.59
2 0 -5 216.32 23.7
2 0 -5 217.42 26.22
2 0 -4 1636.29 110.47
2 0 -4 1716.31 114.42
2 0 -4 1316.93 109.94
2 0 -4 1282.64 110.33
2 0 -4 1182.44 110.09
2 0 -4 1235.41 108.53
2 0 -4 1478.39 110.86
2 0 -4 1540.61 112.1
2 0 -4 1242.97 107.8
2 0 -4 1225.07 110.16
2 0 -4 1588.59 110.87
2 0 -4 1574.04 111.06
2 0 -4 1063.45 109.09
2 0 -4 1214.8 108.11
2 0 -4 1230.72 109.72
2 0 -3 4.1 4.99
2 0 -3 9.76 7.5
2 0 -3 1.25 5.51
2 0 -3 4.69 5.71
2 0 -3 9.08 6.53
2 0 -3 1.53 5.57
2 0 -3 8.61 5.91
2 0 -3 -6.75 5.69
2 0 -3 4.4 5.53
2 0 -3 -1.56 5.5
2 0 -3 1.28 5.65
2 0 -3 1.25 1.98
2 0 -3 7.67 6.38
2 0 -3 3.02 5.33
2 0 -3 8.22 6.93
2 0 -3 9.03 5.83
2 0 -2 682.32 59.44
2 0 -2 748.53 59.01
2 0 -2 684.26 59.35
2 0 -2 642.97 59.17
2 0 -2 650.13 57.55
2 0 -2 800.6 59.88
2 0 -2 820.16 59.7
2 0 -2 659.99 59.27
2 0 -2 686.68 54.4
2 0 -2 632 58.65
2 0 -2 695.54 59.77
2 0 -2 621.42 59.69
2 0 -2 669.67 59.4
2 0 -2 592.63 59.49
2 0 -2 762.46 60.86
2 0 -2 759.42 58.97
2 0 -1 182 20.97
2 0 -1 197.36 19.75
2 0 -1 154.13 17.6
2 0 -1 208.62 20.08
2 0 -1 173.82 18.9
2 0 -1 161.76 18.51
2 0 -1 191.82 18.83
2 0 -1 165.74 15.11
2 0 -1 152.04 16.92
2 0 -1 191.16 19.22
2 0 -1 224.63 19.33
2 0 -1 152.17 18.49
2 0 -1 135.65 15.64
2 0 -1 176.81 14.84
2 0 -1 190.36 20.09
2 0 -1 141.16 18.75
2 0 -1 154.52 19.15
2 0 -1 157.7 18.55
2 0 -1 147.25 18.25
2 0 0 2039.74 161.61
2 0 0 2041.14 158.11
2 0 0 2131.8 159.9
2 0 0 2139.34 159.3
2 0 0 2032.12 158.71
2 0 0 2119.2 155.95
2 0 0 1948.39 158.12
2 0 0 2103.92 158.18
2 0 0 1854.2 158.17
2 0 0 2002.34 155.72
2 0 0 1950.42 155.82
2 0 0 2213.87 158.61
2 0 0 2307.98 159.64
2 0 0 2310.04 158.62
2 0 0 1902.95 158.01
2 0 0 2081.39 157.47
2 0 0 1873.67 159.34
2 0 0 2078.65 159.8
2 0 0 1952.86 159.92
2 0 0 1903.91 158.16
2 0 0 1936.69 158.02
2 0 1 260.33 25.53
2 0 1 235 23.52
2 0 1 257.32 26.38
2 0 1 233.92 24.5
2 0 1 251.69 23.83
2 0 1 239.8 23.44
2 0 1 219.29 22.64
2 0 1 240.28 22.95
2 0 1 225.05 21.89
2 0 1 261.68 22.45
2 0 1 249.77 22.18
2 0 1 227.96 19.92
2 0 1 257.19 23.22
2 0 1 225.78 22.68
2 0 1 286.29 24.58
2 0 1 246.45 22.33
2 0 1 282.83 24.31
2 0 1 235.89 24.64
2 0 1 209.45 22.31
2 0 1 211.24 22.47
2 0 1 241.58 22.87
2 0 1 241.56 22.95
2 0 2 1073.22 94.65
2 0 2 1193.35 97.53
2 0 2 1096.09 98.34
2 0 2 1225.59 98.29
2 0 2 1175.69 96.42
2 0 2 1290.63 96.58
2 0 2 1096.36 95.05
2 0 2 1216.98 94.9
2 0 2 1200.23 94.91
2 0 2 1263.62 95.88
2 0 2 1337.18 95.63
2 0 2 1232.35 94.99
2 0 2 1280.77 95.55
2 0 2 1302.86 96.13
2 0 2 1400.03 97.19
2 0 2 1077.66 93.29
2 0 2 1163.67 95.44
2 0 2 1156.71 92.85
2 0 2 1347.7 97.75
2 0 2 1179.88 97.33
2 0 2 1209.53 94.86
2 0 2 1236.33 95.04
2 0 2 1178.65 94.84
2 0 2 1219.17 94.98
2 0 3 377.76 33.1
2 0 3 333 30.14
2 0 3 324.98 32.14
2 0 3 313.04 29.55
2 0 3 320.82 28.35
2 0 3 302.12 28.21
2 0 3 341.34 27.28
2 0 3 305.1 30.67
2 0 3 346.99 29.77
2 0 3 335.95 29.33
2 0 3 331.59 29.31
2 0 3 354.08 29.6
2 0 3 316.76 29.89
2 0 3 324.23 28.48
2 0 3 325.69 28.36
2 0 3 302.59 26.33
2 0 3 296.11 29.05
2 0 3 307.2 25.85
2 0 3 346.49 29.35
2 0 3 342.65 31.02
2 0 3 283.14 29.95
2 0 3 307.99 27.82
2 0 3 310.04 28.29
2 0 4 1311.35 105.78
2 0 4 1473.88 108.07
2 0 4 1328.63 108.47
2 0 4 1368.86 103.67
2 0 4 1452.82 106.24
2 0 4 1389.77 105.63
2 0 4 1352.17 103.69
2 0 4 1316.88 102.02
2 0 4 1241.91 104.73
2 0 4 1296.74 103.5
2 0 4 1384.77 106.07
2 0 4 1379.33 105.58
2 0 4 1362.92 104.9
2 0 4 1344.09 106.18
2 0 4 1445.36 105.64
2 0 4 1375.61 103.86
2 0 4 1269.64 104.65
2 0 4 1244.14 104.61
2 0 4 1270.18 100.97
2 0 4 1182.13 103.76
2 0 4 1399.38 106.25
2 0 4 1265.8 103.45
2 0 4 1276.1 103.4
2 0 4 1300.72 103.47
2 0 5 516.84 45.35
2 0 5 581.52 47.4
2 0 5 505.94 48.8
2 0 5 544.74 46.37
2 0 5 494.24 44.14
2 0 5 520.74 45.77
2 0 5 500.34 46.51
2 0 5 552.13 45.75
2 0 5 478.4 43.75
2 0 5 535.09 45.11
2 0 5 576.73 46.87
2 0 5 533.88 46.45
2 0 5 514.95 46.56
2 0 5 591.55 46.53
2 0 5 511.55 43.91
2 0 5 557.07 45.63
2 0 5 538.46 45.64
2 0 5 481.83 43.15
2 0 5 500.29 44.04
2 0 5 460.05 44.75
2 0 5 492.02 43.82
2 0 5 517.76 44.11
2 0 5 543.69 44.22
2 0 6 430.6 40.17
2 0 6 473.37 41.87
2 0 6 457.44 41.18
2 0 6 493.51 45.62
2 0 6 511.83 42.74
2 0 6 415.7 41.43
2 0 6 409.73 41.15
2 0 6 440.6 40.17
2 0 6 534.27 43.88
2 0 6 504.95 41.59
2 0 6 435.39 45
2 0 6 448.09 43.05
2 0 6 450.81 41.98
2 0 6 471.93 40.19
2 0 6 473.32 41.3
2 0 6 456.27 41.58
2 0 6 415.53 38.71
2 0 6 448.67 39.85
2 0 6 479.63 40.57
2 0 6 461.69 40.43
2 0 6 460.35 40.36
2 0 7 981.4 92.4
2 0 7 1019.84 96.2
2 0 7 1205.72 93.9
2 0 7 1141.72 92.68
2 0 7 1150.9 95.46
2 0 7 1247.09 94.84
2 0 7 1195.45 96.1
2 0 8 43.1 14.52
2 0 8 77.01 14.51
2 0 8 80.86 15.49
2 0 8 57.26 12.61
2 0 8 65.12 14.24
2 0 9 200.25 27.02
2 0 9 239.37 27.6
2 0 9 172.56 25.71
2 0 9 182.92 27.74
2 0 10 222.91 30.27
2 0 10 203.98 27.96
2 0 10 238.53 29.3
2 0 10 178.95 29.17
2 0 11 357.14 42.59
2 0 11 376.08 41.36
2 0 11 278.64 39.4
2 0 11 348.83 40.05
2 0 11 402.86 43.79
2 0 12 29.09 15.03
2 0 12 19.34 15.51
2 0 12 2.99 11.65
2 0 12 2.68 11.33
2 0 12 17.77 15.3
2 0 13 264.05 34.81
2 0 13 189.14 33.42
2 0 13 345.36 40.3
2 0 13 296.84 40.75
2 0 14 82.61 21.11
2 0 14 61.11 19.96
2 1 -13 5.72 14.52
2 1 -13 13.96 14.18
2 1 -13 5.53 14.52
2 1 -13 -3.46 17.23
2 1 -13 13.5 16.83
2 1 -12 154.35 26.83
2 1 -12 98.5 24.02
2 1 -12 118.87 24.32
2 1 -12 172.84 30.05
2 1 -11 57.21 16.34
2 1 -11 31.49 16.55
2 1 -11 70.46 19.4
2 1 -11 39.31 16.12
2 1 -11 39.75 15.71
2 1 -11 28.98 14.56
2 1 -10 342.36 39.54
2 1 -10 453.78 45.18
2 1 -10 443.73 44.65
2 1 -10 304.87 38.36
2 1 -10 294.38 39.12
2 1 -10 306.02 37.78
2 1 -9 533.91 57.15
2 1 -9 530.43 56.61
2 1 -9 573.84 58.18
2 1 -9 538.02 55.87
2 1 -9 747.51 62.5
2 1 -9 712.49 61.75
2 1 -8 9.46 10.45
2 1 -8 10.3 11.12
2 1 -8 7.45 10.71
2 1 -8 16.06 11.64
2 1 -8 13.62 11.71
2 1 -8 -8.63 10.76
2 1 -8 -2.42 10.71
2 1 -8 4.07 8.78
2 1 -7 349.51 38.03
2 1 -7 407.31 39.47
2 1 -7 349.92 38.45
2 1 -7 475.34 41.88
2 1 -7 458.36 42.36
2 1 -7 293.34 35.84
2 1 -7 282.1 37.12
2 1 -7 318.47 36.85
2 1 -6 47.87 12.64
2 1 -6 43.37 12.79
2 1 -6 39.5 11.52
2 1 -6 53.32 13.74
2 1 -6 60.14 13.61
2 1 -6 48.85 13.37
2 1 -6 47.73 13.22
2 1 -6 43.28 13.22
2 1 -6 57.87 11.15
2 1 -5 465.83 45.69
2 1 -5 648.52 51.73
2 1 -5 479.74 48.86
2 1 -5 501.9 49.13
2 1 -5 521.22 49.85
2 1 -5 551.49 49.98
2 1 -5 513.51 49.23
2 1 -5 479.41 50
2 1 -5 479.96 46.68
2 1 -4 242.61 23.24
2 1 -4 298.13 28.33
2 1 -4 211.55 23.83
2 1 -4 224.67 26.07
2 1 -4 177.76 24.78
2 1 -4 216.15 25
2 1 -4 245.78 26.52
2 1 -4 261.89 24.25
2 1 -4 283.06 27.45
2 1 -4 258.28 26.57
2 1 -4 245.65 23.45
2 1 -4 210.51 25.57
2 1 -4 299.74 27.12
2 1 -4 267.8 26.47
2 1 -4 288.6 26.93
2 1 -4 172.8 24.35
2 1 -4 204.85 25.91
2 1 -4 199.42 24.04
2 1 -4 181.08 24.71
2 1 -3 2488.8 167.05
2 1 -3 2502.72 170.95
2 1 -3 2040.73 167.71
2 1 -3 1886.24 168.44
2 1 -3 1950.87 169.21
2 1 -3 1881.18 167.34
2 1 -3 2572.04 171.02
2 1 -3 2423.2 168.49
2 1 -3 2211.09 169.18
2 1 -3 2397.5 169.96
2 1 -3 1826.52 165.75
2 1 -3 2139.75 162.06
2 1 -3 1986.14 169.05
2 1 -3 2666.71 170.27
2 1 -3 2460.87 169.83
2 1 -3 2541.91 170.13
2 1 -3 1910.09 168.52
2 1 -3 1740.35 168.76
2 1 -3 1839.42 168.59
2 1 -3 2025.05 168.44
2 1 -2 487.19 48.27
2 1 -2 625.71 49.66
2 1 -2 589.83 46.84
2 1 -2 592.18 44.6
2 1 -2 538.94 48.92
2 1 -2 658.36 49.34
2 1 -2 498.33 48.4
2 1 -2 522.01 49.21
2 1 -2 545.55 48.12
2 1 -2 618.27 50.26
2 1 -2 695.33 50.26
2 1 -2 542.31 48.2
2 1 -2 501.39 45.71
2 1 -2 488.1 47.15
2 1 -2 651.67 49.7
2 1 -2 648.27 49.86
2 1 -2 496.56 49.36
2 1 -2 505.4 49.41
2 1 -2 479.36 48.53
2 1 -2 513.03 48.96
2 1 -1 879.64 79.35
2 1 -1 1105.69 78.98
2 1 -1 1098.59 76.87
2 1 -1 1152.62 80.01
2 1 -1 1141.76 81.14
2 1 -1 1007.76 76.37
2 1 -1 927.35 78.57
2 1 -1 1063.17 78.36
2 1 -1 923.31 78.54
2 1 -1 847.66 78.26
2 1 -1 814.55 77.06
2 1 -1 1022.37 79.64
2 1 -1 905.43 79.12
2 1 -1 931.02 75.64
2 1 -1 968.86 76.94
2 1 -1 832.03 77.78
2 1 -1 1092.56 79.29
2 1 -1 1077.34 79.14
2 1 -1 962.27 79.32
2 1 -1 818.41 78.79
2 1 -1 966.53 80.06
2 1 -1 807.98 79.16
2 1 0 341.46 35.27
2 1 0 404.98 35.51
2 1 0 359.83 35.8
2 1 0 377.27 34.48
2 1 0 329.14 35.61
2 1 0 399.27 33.01
2 1 0 432.15 35.86
2 1 0 392.03 34.68
2 1 0 453.33 34.67
2 1 0 418.2 34.24
2 1 0 367.63 33.84
2 1 0 460.49 34.16
2 1 0 379.12 33.58
2 1 0 343.45 33.12
2 1 0 400.02 33.13
2 1 0 423.86 35.37
2 1 0 387.48 34.5
2 1 0 373.13 32.53
2 1 0 405.48 34.36
2 1 0 326.15 34.37
2 1 0 406.11 34.21
2 1 0 400.23 34.21
2 1 0 343.43 33.59
2 1 0 368.92 34.04
2 1 1 1411.71 121.67
2 1 1 1670.05 120.07
2 1 1 1550.81 119.92
2 1 1 1600.17 120.58
2 1 1 1616.93 120.71
2 1 1 1494.37 117.71
2 1 1 1581.68 117.88
2 1 1 1543.3 119.13
2 1 1 1655.67 119.79
2 1 1 1478.05 120.68
2 1 1 1483.2 117.32
2 1 1 1654.39 118.12
2 1 1 1671.13 119.93
2 1 1 1651.8 118.29
2 1 1 1439.53 117.7
2 1 1 1539.81 118.41
2 1 1 1566.3 118.62
2 1 1 1536.2 119.74
2 1 1 1281.38 119.87
2 1 1 1521.45 118.62
2 1 1 1427.69 119.97
2 1 1 1434.47 119.14
2 1 1 1435.68 121.33
2 1 1 1423.46 117.63
2 1 1 1446.3 117.75
2 1 2 1707.02 139.44
2 1 2 1776.41 138.03
2 1 2 1911.33 138.49
2 1 2 1817.45 137.21
2 1 2 1748.69 134.23
2 1 2 1807.29 137.02
2 1 2 1866.07 139.25
2 1 2 1670.78 137.35
2 1 2 1721.19 134.73
2 1 2 1782.82 137.09
2 1 2 1900.09 137.49
2 1 2 1789.35 137.77
2 1 2 1824.36 137.46
2 1 2 1692.22 138.66
2 1 2 1754.61 135.35
2 1 2 1911.82 134.86
2 1 2 1976.17 137.05
2 1 2 1876.41 134.48
2 1 2 1751.46 134.31
2 1 2 1728.14 134.28
2 1 2 1690.15 134.68
2 1 2 1660.22 136.58
2 1 2 1854.84 137.94
2 1 2 1503.89 137.25
2 1 2 1548.35 135.05
2 1 2 1612.46 136.41
2 1 2 1595.71 137.98
2 1 2 1762.33 134.28
2 1 2 1732.06 134.2
2 1 3 403.04 37.08
2 1 3 389.24 34.78
2 1 3 379.1 33.4
2 1 3 419.51 38.54
2 1 3 432.93 37.99
2 1 3 439.75 36.83
2 1 3 421.51 37
2 1 3 460.09 39.77
2 1 3 428.54 37.31
2 1 3 406.42 32.78
2 1 3 417.45 38.54
2 1 3 398.48 32.78
2 1 3 435.46 33.34
2 1 3 419.09 37.02
2 1 3 475.95 37.65
2 1 3 415.19 36.8
2 1 3 418.75 36.95
2 1 3 407.41 38.53
2 1 3 439.57 34.47
2 1 3 383.46 31.77
2 1 3 425.72 35.4
2 1 3 413.01 36.12
2 1 3 492.47 36.44
2 1 3 406.93 39.11
2 1 3 394.91 34.57
2 1 3 368.07 34.21
2 1 3 430.27 34.11
2 1 3 397.23 35.71
2 1 3 400.23 37.21
2 1 3 374.1 36.78
2 1 3 375.59 32.67
2 1 3 404.78 32.77
2 1 3 411.22 32.82
2 1 4 240.58 20.99
2 1 4 270.01 24.3
2 1 4 234.5 19.73
2 1 4 251.43 25.51
2 1 4 231.63 25.41
2 1 4 220.34 23.81
2 1 4 253.37 25.46
2 1 4 249.02 26.94
2 1 4 236.65 24.48
2 1 4 232.83 25.19
2 1 4 232.28 21.53
2 1 4 248.36 20.23
2 1 4 269.84 25.42
2 1 4 230.94 24.24
2 1 4 277.41 25.14
2 1 4 230.93 25.97
2 1 4 226.2 23.94
2 1 4 229.17 19.58
2 1 4 235.59 23.06
2 1 4 251.44 22.3
2 1 4 244.32 20.88
2 1 4 246.02 21.96
2 1 4 242.48 25.94
2 1 4 223.21 21.96
2 1 4 193.36 21.75
2 1 4 234.92 21.42
2 1 4 274.31 23.81
2 1 4 255.55 25.61
2 1 4 241.82 24.29
2 1 4 226.96 20.1
2 1 4 217.23 19.94
2 1 4 237.8 20.14
2 1 5 9.71 5.72
2 1 5 22.14 7.52
2 1 5 1.65 6.08
2 1 5 22.04 6.8
2 1 5 9.26 7.19
2 1 5 16.77 6.73
2 1 5 16.2 8.86
2 1 5 9.68 6.32
2 1 5 7.92 3.59
2 1 5 4.32 4.03
2 1 5 13.6 7.15
2 1 5 16.75 8.26
2 1 5 18.83 7.77
2 1 5 27.99 8.8
2 1 5 13.33 5.9
2 1 5 9.16 6.59
2 1 5 18.13 4.37
2 1 5 21.3 5.67
2 1 5 20.82 6.43
2 1 5 7.41 3.67
2 1 5 9.77 7.03
2 1 5 14.8 5.89
2 1 5 14.17 5.1
2 1 5 19.04 3.5
2 1 5 12.87 5.8
2 1 5 13.2 5.58
2 1 5 15.16 4.67
2 1 5 11.29 6.97
2 1 5 14.6 4.25
2 1 5 11.24 3.83
2 1 5 14.71 4.11
2 1 6 1081.17 88.98
2 1 6 1128.35 90.48
2 1 6 1179.95 92.87
2 1 6 1102.54 89.5
2 1 6 1116.9 88.07
2 1 6 1084.09 88.48
2 1 6 1116.25 91.39
2 1 6 1013.66 87.76
2 1 6 1100 87.26
2 1 6 1152.69 91
2 1 6 1070.15 87.74
2 1 6 1048.24 87.71
2 1 6 1020.45 92.08
2 1 6 1144.29 89.9
2 1 6 1027.96 89.19
2 1 6 1090.27 89.47
2 1 6 1122.07 88.43
2 1 6 1008.75 91.4
2 1 6 1053.29 86.57
2 1 7 45.36 9.75
2 1 7 35.81 10.68
2 1 7 38.35 13.25
2 1 7 43 11.16
2 1 7 39.97 9.74
2 1 7 26.09 10.3
2 1 8 1302.54 102.3
2 1 8 1243.81 100.04
2 1 8 1204.33 101.96
2 1 8 1063.89 102.51
2 1 8 1190.62 100.86
2 1 9 7.7 9.07
2 1 9 2.25 9.71
2 1 9 2.25 8.49
2 1 9 16.58 12.22
2 1 9 -2.65 11.16
2 1 9 6.36 8.71
2 1 10 208.42 26.72
2 1 10 187.42 27.18
2 1 10 185.13 26.66
2 1 10 146.58 26.28
2 1 10 216.73 30.35
2 1 11 242.61 33.28
2 1 11 258.13 32.34
2 1 11 184.42 30.79
2 1 11 226.88 33.59
2 1 12 347.42 42.87
2 1 12 335.32 39.74
2 1 12 250.05 38.27
2 1 12 367.06 43.38
2 1 13 168.03 29.99
2 1 13 97.39 22.63
2 1 13 89.75 22.45
2 1 13 143.59 27.11
2 1 14 54.25 23.68
2 1 14 50.05 17.1
2 1 14 61.11 20.47
2 1 14 46.93 19.72
2 2 -13 49.54 18.78
2 2 -13 94.84 21.73
2 2 -13 57.33 19.32
2 2 -12 71.34 22.86
2 2 -12 57.14 20.97
2 2 -12 67.47 20.16
2 2 -12 54.56 19.2
2 2 -12 45.02 19.05
2 2 -11 21.61 15.98
2 2 -11 41.64 19.12
2 2 -11 20.88 15.4
2 2 -11 26.51 15.84
2 2 -11 2.43 13.58
2 2 -11 13.64 13.17
2 2 -10 336.34 38.86
2 2 -10 368.03 39.75
2 2 -10 228.73 32.57
2 2 -10 310.01 36.29
2 2 -10 262.05 33.76
2 2 -10 227.03 32.41
2 2 -10 243.83 33.16
2 2 -9 -5.66 12.51
2 2 -9 13.5 13.47
2 2 -9 12.14 12.33
2 2 -9 4.78 11.04
2 2 -9 6.84 10.31
2 2 -9 7.25 12.68
2 2 -9 10.03 11.57
2 2 -8 879.75 74.05
2 2 -8 749.84 69.74
2 2 -8 743.65 70.4
2 2 -8 610.39 67.88
2 2 -8 750.4 70.15
2 2 -8 681.62 67.17
2 2 -8 804.49 70.16
2 2 -7 36.3 13.42
2 2 -7 50.06 13.7
2 2 -7 40.67 12.77
2 2 -7 41.19 12.76
2 2 -7 32.8 11.29
2 2 -7 31.17 12.57
2 2 -7 33.5 13.29
2 2 -7 53.87 14.17
2 2 -6 203.69 25.28
2 2 -6 179.55 24.68
2 2 -6 164.67 23.78
2 2 -6 162.82 21.2
2 2 -6 234.56 25.68
2 2 -6 176.58 24.27
2 2 -6 175.07 23.87
2 2 -6 178.37 25.27
2 2 -6 243.3 26.59
2 2 -5 19.56 8.89
2 2 -5 20.25 9.2
2 2 -5 8.01 8.87
2 2 -5 1.92 7.27
2 2 -5 7.92 8.16
2 2 -5 5.47 7.9
2 2 -5 24.67 9.2
2 2 -5 3.57 6.18
2 2 -5 9.12 8.79
2 2 -5 11.12 9.1
2 2 -4 2082.12 185.9
2 2 -4 2694.65 187.09
2 2 -4 2875.85 188.41
2 2 -4 2967.26 187.1
2 2 -4 2147.37 183.73
2 2 -4 2075.29 185.63
2 2 -4 2177 186.61
2 2 -4 2480.01 186.38
2 2 -4 2386.28 184.26
2 2 -4 2595.31 187.37
2 2 -4 2478.44 187.97
2 2 -4 2032.37 182.08
2 2 -4 2671.89 187.83
2 2 -4 2712.35 188.11
2 2 -4 2093.17 186.07
2 2 -4 2098.87 185.99
2 2 -4 2322.15 187.96
2 2 -3 1676.49 157.64
2 2 -3 2308.78 159.19
2 2 -3 2242.61 159.95
2 2 -3 2435.96 159.24
2 2 -3 1777.38 156.87
2 2 -3 1743.56 157.82
2 2 -3 1830.21 158.72
2 2 -3 2131.28 158.78
2 2 -3 1996.9 157.48
2 2 -3 2117.98 158.37
2 2 -3 1867.26 159.3
2 2 -3 2352.43 160.5
2 2 -3 1774.66 155.49
2 2 -3 2314.03 160.12
2 2 -3 2388.92 160.36
2 2 -3 1747.53 158.24
2 2 -3 1918.18 159.05
2 2 -3 1968.28 159.91
2 2 -2 433.67 44.5
2 2 -2 440.24 44.95
2 2 -2 506.93 46.12
2 2 -2 483.75 39.34
2 2 -2 471.14 44.34
2 2 -2 570.9 44.47
2 2 -2 446.83 44.11
2 2 -2 472.85 40.42
2 2 -2 599.96 45.1
2 2 -2 570.62 46.01
2 2 -2 606.3 41.89
2 2 -2 509.31 44.63
2 2 -2 519.36 44.95
2 2 -2 489.66 45.29
2 2 -2 488.44 43.38
2 2 -2 527.35 45.52
2 2 -2 413.53 42.5
2 2 -2 545.98 45.49
2 2 -2 528.2 45.29
2 2 -2 453.65 44.08
2 2 -2 421.65 44.1
2 2 -1 110.6 15.69
2 2 -1 137.52 14.49
2 2 -1 143.44 11.79
2 2 -1 153.39 13.03
2 2 -1 159.02 17.84
2 2 -1 151.66 15.35
2 2 -1 116.09 13.16
2 2 -1 106.52 14.99
2 2 -1 129.6 14.67
2 2 -1 139.08 15.7
2 2 -1 125.51 13.78
2 2 -1 107.93 15.24
2 2 -1 111.41 15.06
2 2 -1 130.03 16.62
2 2 -1 119.85 16.15
2 2 -1 126.21 14.07
2 2 -1 156.08 17.18
2 2 -1 101.17 14.87
2 2 -1 89.5 14.35
2 2 -1 128.29 15.61
2 2 -1 125.02 15.63
2 2 -1 86.13 14.42
2 2 -1 113.21 15.91
2 2 -1 101.73 15.46
2 2 0 15.23 6.94
2 2 0 8.74 4.26
2 2 0 9.51 5.18
2 2 0 6.18 4.61
2 2 0 12.77 4.8
2 2 0 14.03 6.39
2 2 0 13.59 5.38
2 2 0 15.53 4.83
2 2 0 25.49 5.7
2 2 0 6.14 4.58
2 2 0 2.69 3.93
2 2 0 8.19 4.17
2 2 0 4.14 5.25
2 2 0 10.42 6.15
2 2 0 2.25 4.8
2 2 0 6.59 3.37
2 2 0 13.13 5.69
2 2 0 22.03 7.44
2 2 0 5.6 4.77
2 2 0 12.6 4.97
2 2 0 13.51 5.14
2 2 0 8.45 4.9
2 2 0 7.26 4.42
2 2 0 8.64 5.52
2 2 0 13.92 6.03
2 2 0 7.55 5.08
2 2 1 390.1 37.91
2 2 1 420.72 39.47
2 2 1 411.05 38.61
2 2 1 469.73 38.26
2 2 1 519.95 40.61
2 2 1 503.72 38.83
2 2 1 465.22 39.39
2 2 1 415.02 37.05
2 2 1 409.22 39.69
2 2 1 485.15 36.55
2 2 1 464.2 37.47
2 2 1 492.62 39.97
2 2 1 494.03 39.86
2 2 1 421.77 39.48
2 2 1 447.38 35.33
2 2 1 440.39 41.33
2 2 1 465.21 41.65
2 2 1 493 39.58
2 2 1 462.85 38.95
2 2 1 432.26 35.52
2 2 1 442.16 38.34
2 2 1 412.84 38.51
2 2 1 455.39 40.5
2 2 1 407.22 38.26
2 2 1 421.07 39.79
2 2 1 421.21 37.2
2 2 1 457.34 37.49
2 2 1 419.99 37.01
2 2 1 394.27 37.07
2 2 2 1157.89 90.41
2 2 2 1135.77 94.66
2 2 2 1198.72 91.46
2 2 2 1049.26 91.95
2 2 2 1120.97 94.9
2 2 2 1343.77 92.56
2 2 2 1279.26 93.71
2 2 2 1196.93 92.44
2 2 2 1113.56 93.15
2 2 2 1097.18 92.94
2 2 2 1107.78 88.31
2 2 2 1053.37 93.18
2 2 2 1191.21 88
2 2 2 1144.6 88.64
2 2 2 1320.23 93.74
2 2 2 1202.22 94.08
2 2 2 1311.06 94.16
2 2 2 1245.27 93.99
2 2 2 1202.11 93.26
2 2 2 1339.89 89.05
2 2 2 1179.48 95.05
2 2 2 1140.49 93.5
2 2 2 1224.54 91.57
2 2 2 1226.26 90.87
2 2 2 1078.72 87.84
2 2 2 1131.26 91.05
2 2 2 1091.8 91.87
2 2 2 1144.93 93.58
2 2 2 1180.47 92.48
2 2 2 1055.7 92.77
2 2 2 1079.93 88.55
2 2 2 1134.78 88.64
2 2 2 1087.4 88.38
2 2 2 1145.47 88.4
2 2 2 1109.67 88.64
2 2 2 1113.3 88.44
2 2 3 2709.41 199.1
2 2 3 2953.28 201.26
2 2 3 2598.18 200.03
2 2 3 2688.59 201.41
2 2 3 2480.39 199.94
2 2 3 2366.91 200.26
2 2 3 2605.57 200.04
2 2 3 2953.66 200.73
2 2 3 2692.69 200.58
2 2 3 2696.38 201.23
2 2 3 2634.19 200.37
2 2 3 2770.89 194.72
2 2 3 2735.4 196.27
2 2 3 2476.08 201.13
2 2 3 2514.48 198.94
2 2 3 2808.3 197.22
2 2 3 2527.34 195.8
2 2 3 2379.14 195.26
2 2 3 2429.58 195.04
2 2 3 2562.21 195.55
2 2 3 2580.63 197.73
2 2 3 2456.03 198.48
2 2 3 2655.54 199.79
2 2 3 2498.99 200.24
2 2 3 2342.34 199.58
2 2 3 2534 195.03
2 2 3 2554.98 201.06
2 2 3 2306.31 197.77
2 2 3 2544.5 196.93
2 2 3 2492.27 201.91
2 2 4 87.65 12.12
2 2 4 66.06 12.79
2 2 4 69.4 12.58
2 2 4 65.03 12.36
2 2 4 77.8 7.78
2 2 4 80.02 13.32
2 2 4 86.07 12.75
2 2 4 89.42 13.02
2 2 4 96.13 13.1
2 2 4 101.25 13.57
2 2 4 82.77 9.84
2 2 4 80.59 10.18
2 2 4 78.95 8.67
2 2 4 80.19 9.37
2 2 4 71.23 12.52
2 2 4 63.42 10.18
2 2 4 63.84 8.57
2 2 4 78.38 8.26
2 2 4 85.86 9.58
2 2 4 66.98 11.73
2 2 4 102.41 13.2
2 2 4 64.79 10.9
2 2 4 72.9 10.37
2 2 4 66.6 11.94
2 2 4 83.88 10.45
2 2 4 93.39 9.85
2 2 4 87.41 12.75
2 2 4 59.9 12.03
2 2 5 1407.78 108.68
2 2 5 1374.78 109.96
2 2 5 1386.53 108.38
2 2 5 1301.64 111.8
2 2 5 1389.72 109.19
2 2 5 1404.93 108.44
2 2 5 1234.5 110.46
2 2 5 1338.38 107.45
2 2 5 1377.3 109.85
2 2 5 1379.95 112.55
2 2 5 1376.78 111.02
2 2 5 1393.97 112.77
2 2 5 1378.42 111.77
2 2 5 1595.22 114.71
2 2 5 1422.28 111.87
2 2 5 1304.56 113.62
2 2 5 1446.85 112.67
2 2 5 1304.84 112.31
2 2 5 1308.89 112.93
2 2 5 1324.15 112.85
2 2 5 1543.51 113.13
2 2 5 1506.96 113.53
2 2 5 1594.83 113.86
2 2 5 1516.31 113.49
2 2 5 1407.14 114.5
2 2 6 25.92 7.18
2 2 6 20.86 6.66
2 2 6 30.05 8.43
2 2 6 30.44 9.17
2 2 6 20.8 8.56
2 2 6 19.84 9.89
2 2 6 22.95 7.68
2 2 6 13.48 7.47
2 2 7 811.26 67
2 2 7 734.15 72.91
2 2 7 798.32 70.68
2 2 7 762.08 68.11
2 2 7 819.23 70.82
2 2 7 850.61 69.84
2 2 8 190.6 29.51
2 2 8 194.04 26.18
2 2 8 255.92 28.64
2 2 8 254.14 27.18
2 2 9 238.59 29.12
2 2 9 288.94 31.2
2 2 10 282.15 38.85
2 2 10 294.21 36.9
2 2 10 398.31 39.91
2 2 11 238.97 31.88
2 2 11 189.24 32.1
2 2 12 127.68 23.82
2 2 12 73.97 21.31
2 2 13 56.16 17.72
2 2 13 57.94 19.76
2 2 13 65.69 22.76
2 2 14 184.8 29.59
2 2 14 253.09 35.92
2 3 -12 -15.12 15.01
2 3 -12 -6.43 15.74
2 3 -12 -6.77 16.88
2 3 -12 8.56 15.21
2 3 -12 -5.46 15.85
2 3 -12 22.11 16.47
2 3 -11 273.34 33.71
2 3 -11 357.94 40.51
2 3 -11 277.95 36.49
2 3 -11 234.27 32.9
2 3 -11 175.66 30.53
2 3 -11 194.12 31.02
2 3 -10 -2.45 11.98
2 3 -10 -4.85 13.32
2 3 -10 -2.93 15.84
2 3 -10 6.18 14.26
2 3 -10 24.43 15.55
2 3 -10 -2.58 12.39
2 3 -10 5.24 12.35
2 3 -9 346.51 39.89
2 3 -9 437.8 44.35
2 3 -9 440.14 43.75
2 3 -9 288.86 37.15
2 3 -9 330.27 38.74
2 3 -9 302.33 38.75
2 3 -9 319.5 38.88
2 3 -8 2.56 12.32
2 3 -8 8.16 11.76
2 3 -8 2.02 10.42
2 3 -8 13.82 11.69
2 3 -8 7.06 11.09
2 3 -8 4.7 11.92
2 3 -8 11.94 11.91
2 3 -7 189.17 27.76
2 3 -7 259.21 31.4
2 3 -7 251.76 31.17
2 3 -7 227.55 28.41
2 3 -7 229.6 27.91
2 3 -7 191.7 28.32
2 3 -7 268.48 30.73
2 3 -6 566.23 58.72
2 3 -6 649.59 59.03
2 3 -6 544.08 58.36
2 3 -6 650.57 60.74
2 3 -6 616.03 59.66
2 3 -6 791.82 63.67
2 3 -6 772.37 62.21
2 3 -5 428.19 44.51
2 3 -5 602.79 47.01
2 3 -5 404.95 43.45
2 3 -5 397.73 42.27
2 3 -5 446.09 44.37
2 3 -5 455.26 44.17
2 3 -5 451.03 44.98
2 3 -5 453.24 44.38
2 3 -4 181.12 21.72
2 3 -4 174.32 20.68
2 3 -4 196.57 22.44
2 3 -4 199.43 21.95
2 3 -4 146.13 20.53
2 3 -4 184.3 21.7
2 3 -4 141.12 20.52
2 3 -4 112.21 19.58
2 3 -4 150.65 20.99
2 3 -4 152.57 21.82
2 3 -3 346.94 35.54
2 3 -3 362.83 35.29
2 3 -3 372.05 36.31
2 3 -3 350.52 36.32
2 3 -3 357.28 35.21
2 3 -3 391.61 36.31
2 3 -3 410.3 35.57
2 3 -3 326.15 32.97
2 3 -3 351.46 36.11
2 3 -3 338.78 35.31
2 3 -3 399.7 37.09
2 3 -3 364.25 35.95
2 3 -3 306.61 34.99
2 3 -3 310.33 35.87
2 3 -3 379.05 36.25
2 3 -2 597.16 58
2 3 -2 738.89 58.58
2 3 -2 817.55 60.42
2 3 -2 646.2 59.02
2 3 -2 615.65 57.95
2 3 -2 645.78 60.32
2 3 -2 694.77 59.57
2 3 -2 686.68 60.75
2 3 -2 690.56 58.29
2 3 -2 715.63 57.28
2 3 -2 786.9 60.74
2 3 -2 642.47 58.29
2 3 -2 621.22 57.17
2 3 -2 748.1 59.87
2 3 -2 696.61 59.42
2 3 -2 665.17 59.01
2 3 -2 590.83 58.62
2 3 -2 591.05 58.77
2 3 -1 35.17 9.21
2 3 -1 34.2 9.95
2 3 -1 29.97 8.43
2 3 -1 61.19 11.28
2 3 -1 29.16 7
2 3 -1 34.95 8.31
2 3 -1 36.22 8.21
2 3 -1 28.8 7.58
2 3 -1 40.89 7.59
2 3 -1 44.79 7.82
2 3 -1 25.36 10
2 3 -1 33.52 10.07
2 3 -1 30.78 9.42
2 3 -1 30.04 6.78
2 3 -1 40.93 8.15
2 3 -1 37.83 9.51
2 3 -1 23.9 7.99
2 3 -1 40.24 9.06
2 3 -1 34.66 9.03
2 3 -1 36.05 8.84
2 3 -1 29.18 7.95
2 3 -1 40.86 9.4
2 3 -1 41.91 9.46
2 3 0 1814.58 144.88
2 3 0 1793.66 146.08
2 3 0 1883.32 145.84
2 3 0 1794.09 139.67
2 3 0 2044.99 141.63
2 3 0 2079.83 141.59
2 3 0 2084.97 142.88
2 3 0 1932.24 145.68
2 3 0 1651.85 143.55
2 3 0 1617.72 143.21
2 3 0 1815.71 144.22
2 3 0 1897.91 142.66
2 3 0 1649.97 143.31
2 3 0 1883.1 144.06
2 3 0 2105.49 144.32
2 3 0 1828.22 148.82
2 3 0 1857.46 147.42
2 3 0 1760.07 147.23
2 3 0 2000.62 145.71
2 3 0 1847.37 140.67
2 3 0 1888.46 142.82
2 3 0 1927.03 144.85
2 3 0 1737.55 143.7
2 3 0 1771.39 144.86
2 3 0 1710.85 143.58
2 3 0 1739.64 143.82
2 3 0 1702.17 143.83
2 3 0 1586.45 143.26
2 3 1 68.02 11.05
2 3 1 84.03 11.76
2 3 1 71.83 11.73
2 3 1 82.75 9.62
2 3 1 74.44 9.79
2 3 1 99.31 12.53
2 3 1 80.03 10.03
2 3 1 47.24 10.95
2 3 1 70.74 11.35
2 3 1 65.14 9.57
2 3 1 82.66 8.64
2 3 1 63.41 9.49
2 3 1 83.67 11.68
2 3 1 77.87 12.94
2 3 1 70.77 14.07
2 3 1 57.92 11.76
2 3 1 82.26 14.29
2 3 1 68.31 10.57
2 3 1 68.92 8.54
2 3 1 74.21 10.85
2 3 1 68.79 12.7
2 3 1 83.8 11.23
2 3 1 77.93 9.79
2 3 1 59.08 9.75
2 3 1 63.42 9.48
2 3 1 69.78 9.83
2 3 1 59.5 9.49
2 3 2 1402.58 110.47
2 3 2 1570.43 110.04
2 3 2 1522.62 111.66
2 3 2 1310.22 111.9
2 3 2 1323.17 107.53
2 3 2 1243.31 111.46
2 3 2 1381.17 111.65
2 3 2 1385.78 107.77
2 3 2 1624.52 112.47
2 3 2 1519.11 113.11
2 3 2 1543.43 112.79
2 3 2 1442.36 112.66
2 3 2 1430.72 113
2 3 2 1230.67 114.36
2 3 2 1278.42 113.02
2 3 2 1340.05 112.18
2 3 2 1399.49 110.32
2 3 2 1325.71 108.56
2 3 2 1393.12 105.65
2 3 2 1436.78 110.38
2 3 2 1405.22 110.35
2 3 2 1359.16 111.36
2 3 2 1244.7 113.01
2 3 2 1426.27 112.34
2 3 2 1384.89 109.36
2 3 2 1356.42 111.06
2 3 2 1404.34 110.52
2 3 2 1332.13 107.55
2 3 3 256.19 23.54
2 3 3 235.34 24.43
2 3 3 227.56 25.28
2 3 3 229.64 24.65
2 3 3 221.34 24.79
2 3 3 236.09 20.3
2 3 3 264.6 25.25
2 3 3 223.76 25.06
2 3 3 258.73 26.8
2 3 3 258.19 25.83
2 3 3 261.41 25.93
2 3 3 225.88 26.9
2 3 3 218.3 25.68
2 3 3 222.42 24.27
2 3 3 219.26 22.26
2 3 3 273.42 24.16
2 3 3 264.73 24.4
2 3 3 201.91 25.36
2 3 3 245.68 25.27
2 3 3 233.72 25.09
2 3 3 213.74 21.31
2 3 3 202.19 23.09
2 3 3 222.39 22.86
2 3 3 222 24.64
2 3 3 209.86 23.1
2 3 4 890.12 79.91
2 3 4 851.89 77.89
2 3 4 920.66 76.68
2 3 4 913.19 75.07
2 3 4 888.58 76.09
2 3 4 912.12 77.67
2 3 4 852.97 76.09
2 3 4 890.04 78.31
2 3 4 932.01 77.99
2 3 4 1000.74 80.29
2 3 4 889.53 76.78
2 3 4 857.72 78.61
2 3 4 954.69 77.88
2 3 4 875.08 77.97
2 3 4 893.63 80.14
2 3 4 1048.37 77.18
2 3 4 991.74 78.82
2 3 4 1142.58 79.51
2 3 4 989.14 78.86
2 3 4 985.05 80.01
2 3 4 914.22 77.88
2 3 5 402.44 39.95
2 3 5 432.11 37.65
2 3 5 394.77 35.37
2 3 5 332.64 36.04
2 3 5 373.36 33.64
2 3 5 363.99 36.36
2 3 5 372 34.77
2 3 5 410.36 36.19
2 3 5 338.61 37.87
2 3 5 361.14 38.19
2 3 5 385.15 38.64
2 3 5 367.25 34.49
2 3 5 373.9 38
2 3 6 392.64 33.47
2 3 6 312.37 35.04
2 3 6 340.64 38.43
2 3 6 345.55 35.47
2 3 6 376.41 37.54
2 3 6 328.71 36.07
2 3 6 344.35 36.53
2 3 7 207.88 25.52
2 3 7 170.98 27.03
2 3 7 187.21 24.54
2 3 7 196.23 25.56
2 3 7 233.31 26.54
2 3 8 236.71 34.85
2 3 8 278.23 33.31
2 3 8 289.67 32.09
2 3 8 375.73 36.36
2 3 8 308.65 33.72
2 3 9 323.76 41.91
2 3 9 357.24 39.21
2 3 9 360.43 39.77
2 3 9 329.5 37.5
2 3 10 138.74 27.72
2 3 10 139.33 24.54
2 3 11 559.18 65.49
2 3 11 642.75 63.75
2 3 11 717.53 66.25
2 3 12 5.93 13.69
2 3 12 14.4 14.4
2 3 12 3.1 14.32
2 3 13 150.26 27.21
2 3 13 97.09 25.41
2 3 13 180.91 29.42
2 3 14 40.22 17.98
2 4 -11 49 18.35
2 4 -11 29.53 15.64
2 4 -11 88.93 23.11
2 4 -11 76.91 21.24
2 4 -11 53.71 19.02
2 4 -11 38.41 17.64
2 4 -10 79.66 20.68
2 4 -10 104.32 23.43
2 4 -10 68.59 20.22
2 4 -10 48.3 18.06
2 4 -10 58.76 18.09
2 4 -9 8.38 13.96
2 4 -9 32.97 17.67
2 4 -9 18.27 13.51
2 4 -9 12.86 13.75
2 4 -9 32.52 15.49
2 4 -9 4.85 11.93
2 4 -8 232.99 31.05
2 4 -8 230.91 30.08
2 4 -8 133.92 25.58
2 4 -8 194.27 26.62
2 4 -8 219.5 28.66
2 4 -8 187.25 27.8
2 4 -8 168.08 27.27
2 4 -7 275.59 34.43
2 4 -7 294.13 36.08
2 4 -7 320.29 35.63
2 4 -7 306.93 35.06
2 4 -7 242.62 32.53
2 4 -7 283.37 33.04
2 4 -7 288.31 34.68
2 4 -6 210.47 26.68
2 4 -6 188.52 25.54
2 4 -6 144.03 22.9
2 4 -6 177.01 24.95
2 4 -6 162.43 24.4
2 4 -6 153.65 24.05
2 4 -6 178.99 24.83
2 4 -5 454.26 48.55
2 4 -5 638.85 52.74
2 4 -5 592.8 50.77
2 4 -5 459.38 48.85
2 4 -5 450.26 48.26
2 4 -5 510.31 50.44
2 4 -5 491.56 49.1
2 4 -4 65.47 15.2
2 4 -4 108.19 17.53
2 4 -4 75.06 15.88
2 4 -4 74.45 15.92
2 4 -4 91.05 16.22
2 4 -4 50.29 13.65
2 4 -4 103.68 17.66
2 4 -3 667.88 62.72
2 4 -3 624.3 61.82
2 4 -3 711 63.79
2 4 -3 769.89 62.87
2 4 -3 728.63 62.7
2 4 -3 655.77 63.85
2 4 -3 691.66 62.57
2 4 -3 730.74 62.77
2 4 -3 708.89 62.39
2 4 -2 7.79 6.89
2 4 -2 1.53 6.91
2 4 -2 11.21 8.54
2 4 -2 1.61 7.61
2 4 -2 9.63 8.69
2 4 -2 1.39 6.17
2 4 -2 3.24 6.84
2 4 -2 -1.56 7.19
2 4 -2 10.75 8.84
2 4 -2 12.81 8.8
2 4 -2 10.88 8.55
2 4 -2 1.79 9.52
2 4 -2 8.47 7.66
2 4 -1 790.71 68.93
2 4 -1 783.14 69.46
2 4 -1 952.61 75.67
2 4 -1 803.9 69.53
2 4 -1 755.03 69.03
2 4 -1 814.87 70.48
2 4 -1 796.87 69.57
2 4 -1 881 70.12
2 4 -1 815.38 69.41
2 4 -1 937.53 74.09
2 4 -1 848.54 70.76
2 4 -1 703.64 69.79
2 4 -1 855.49 71.61
2 4 0 354.62 33.32
2 4 0 351.55 31.12
2 4 0 287.11 34.33
2 4 0 305.19 30.83
2 4 0 307.18 32.29
2 4 0 290.25 31.68
2 4 0 249.62 31.72
2 4 0 260.48 30.25
2 4 0 315.59 29.58
2 4 0 319.27 30.44
2 4 0 333.42 30.44
2 4 0 290.68 33.9
2 4 0 353.41 31.74
2 4 0 319.91 30.11
2 4 1 896.16 70.64
2 4 1 912.85 71.86
2 4 1 755.73 73.56
2 4 1 765.64 68.8
2 4 1 820 70.46
2 4 1 828.66 70.99
2 4 1 839.88 69.12
2 4 1 847.02 68.69
2 4 1 849.36 68.39
2 4 1 739.32 70.01
2 4 1 820.26 67.85
2 4 1 833.28 69.96
2 4 1 758.96 73.3
2 4 1 883.4 69.55
2 4 1 826.72 67.66
2 4 2 24.2 10.93
2 4 2 47.94 10.19
2 4 2 53.88 9.62
2 4 2 43.3 9.96
2 4 2 48.15 9.62
2 4 2 51.52 8.76
2 4 2 54.71 11.96
2 4 2 42.59 10.25
2 4 2 44.58 10.54
2 4 2 52.1 11.97
2 4 2 51.91 11.76
2 4 2 34.28 12.27
2 4 2 49.67 9.82
2 4 3 486.06 43.38
2 4 3 447.94 46.73
2 4 3 467.12 42.93
2 4 3 416.3 42.98
2 4 3 445.43 46.61
2 4 3 490.61 42.12
2 4 3 469.23 42.32
2 4 4 309.6 34.39
2 4 4 313.76 30.39
2 4 4 347.11 33.79
2 4 4 262.3 33.55
2 4 4 330.17 31.24
2 4 4 260.65 32.74
2 4 5 455.36 48.05
2 4 5 483.04 45.57
2 4 5 496.13 49.62
2 4 5 493.93 49.61
2 4 5 530.23 49.93
2 4 5 520.15 46.27
2 4 6 1076.11 91.58
2 4 6 1089.61 94.49
2 4 6 1143.72 96.66
2 4 6 1206.68 97.19
2 4 6 1232.94 97.65
2 4 6 1076.89 93.25
2 4 6 982 95.88
2 4 7 32.13 12.1
2 4 7 26.32 12.54
2 4 7 56.62 14.81
2 4 7 48.51 14.07
2 4 7 56.03 14.79
2 4 7 45.38 13.27
2 4 8 386.24 44.01
2 4 8 456.87 47.46
2 4 8 472.01 47.19
2 4 8 468.89 46.04
2 4 8 401.37 48.44
2 4 9 -2.65 12.71
2 4 9 -2.76 11.89
2 4 9 -2.56 10.5
2 4 9 6.78 14.28
2 4 10 563.83 55.24
2 4 10 547.48 54.11
2 4 10 376.36 52.76
2 4 10 505.04 52.35
2 4 11 24.99 15.7
2 4 11 35.65 17.37
2 4 11 22.62 16.78
2 4 12 242.87 33.48
2 4 12 194.83 30.39
2 4 12 133.54 30.28
2 4 13 184.17 30
2 4 13 123.21 25.55
2 4 13 98.21 26.27
2 5 -10 30.89 15.28
2 5 -10 79.96 22.29
2 5 -10 63.47 18.89
2 5 -10 59.05 18.83
2 5 -9 54.12 17.96
2 5 -9 54.83 17.26
2 5 -9 39.77 18.73
2 5 -9 41.75 15.49
2 5 -9 29.11 16.09
2 5 -8 223.37 31.61
2 5 -8 229.5 31.17
2 5 -8 341.37 37.83
2 5 -8 211.49 31.02
2 5 -8 240.38 32.08
2 5 -7 22.24 13.21
2 5 -7 34.67 14.86
2 5 -7 31.42 15.04
2 5 -7 19.01 14.13
2 5 -7 22.1 14
2 5 -7 19.95 13.82
2 5 -6 352.99 41.42
2 5 -6 331.52 41.1
2 5 -6 415.85 43.33
2 5 -6 454.88 43.45
2 5 -6 417.81 43.23
2 5 -5 2.19 10.75
2 5 -5 2.24 10.36
2 5 -5 4.37 10.7
2 5 -5 11.51 10.63
2 5 -5 13.98 11.83
2 5 -4 331.59 36.75
2 5 -4 289.03 35.47
2 5 -4 326.83 37.18
2 5 -4 307.53 35.54
2 5 -4 341.91 36.83
2 5 -4 386.01 39.55
2 5 -4 344.35 36.32
2 5 -3 255.43 31.15
2 5 -3 291.64 32.41
2 5 -3 260.83 31.63
2 5 -3 257.99 30.55
2 5 -3 258.97 30.13
2 5 -3 288.12 34.02
2 5 -3 257.06 29.97
2 5 -2 260.05 29.73
2 5 -2 289.93 30.9
2 5 -2 262.46 30.28
2 5 -2 212.64 27.59
2 5 -2 214.02 29.52
2 5 -2 239.6 27.95
2 5 -2 269.21 32.97
2 5 -2 250.58 27.99
2 5 -1 13.91 9.56
2 5 -1 7.16 7.75
2 5 -1 -1.97 8.73
2 5 -1 16.53 9.62
2 5 -1 6.84 9.13
2 5 -1 10.42 11.53
2 5 -1 3.18 7.36
2 5 -1 23.33 9.4
2 5 0 1095.94 90.33
2 5 0 1109.78 91.79
2 5 0 1062.58 89.26
2 5 0 1103.02 94.72
2 5 0 1112.32 88.86
2 5 0 1157.12 96.58
2 5 0 960.56 87.74
2 5 1 145.87 23.86
2 5 1 161.97 20
2 5 1 164.23 25.12
2 5 1 153.37 20.69
2 5 1 203.64 23.34
2 5 2 71.05 16.85
2 5 2 73.85 18.19
2 5 2 63.5 13.33
2 5 3 1636.06 137.5
2 5 3 1577.23 137.27
2 5 3 1586.68 137
2 5 3 1713.49 133.05
2 5 4 7.64 10.49
2 5 4 17.89 11.33
2 5 4 7.96 10.04
2 5 4 17.16 9.05
2 5 5 372.02 42.83
2 5 5 352.98 42.28
2 5 5 421.97 42.84
2 5 5 418.56 39.52
2 5 5 343.19 37.22
2 5 6 70.97 14.22
2 5 6 48.05 15.32
2 5 6 67.95 17.55
2 5 6 59.57 16.77
2 5 6 48.86 15.76
2 5 7 400.3 45.88
2 5 7 443.64 48.77
2 5 7 438.64 48.3
2 5 7 522.73 51.13
2 5 7 484.71 51.09
2 5 8 73.71 20.04
2 5 8 83.34 20.31
2 5 8 98.82 20.5
2 5 8 78.64 21.63
2 5 9 478 49.01
2 5 9 452.85 50.34
2 5 9 451.49 50.01
2 5 9 370.16 50.33
2 5 10 44.57 17.79
2 5 10 6.35 14.1
2 5 10 11.51 14.95
2 5 11 317.11 39.76
2 5 11 296.86 38.91
2 5 11 195.28 37.16
2 5 12 169.57 29.78
2 5 12 80.1 26.56
2 6 -9 45.78 16.84
2 6 -9 31.11 16.45
2 6 -8 5.06 14.31
2 6 -8 2.57 14.12
2 6 -8 -5.12 14.26
2 6 -8 14.29 14.71
2 6 -7 119.17 22.55
2 6 -7 103.99 21.82
2 6 -7 132.81 22.87
2 6 -7 102 22.57
2 6 -7 129.69 23.1
2 6 -6 -2.42 13.1
2 6 -6 -4.93 13.33
2 6 -6 -9.3 12.77
2 6 -6 2.51 14
2 6 -6 -2.48 11.67
2 6 -5 229.72 30.5
2 6 -5 229.71 30.38
2 6 -5 195.68 29.37
2 6 -5 227.12 29.69
2 6 -5 252.31 31.55
2 6 -5 200.53 29.24
2 6 -4 90.31 20.31
2 6 -4 174.33 23.34
2 6 -4 105.62 21.04
2 6 -4 127.04 23.3
2 6 -4 129.47 22.14
2 6 -4 118.63 22.18
2 6 -4 120.48 24.02
2 6 -3 262.64 31.59
2 6 -3 261.37 31.85
2 6 -3 249.06 32.08
2 6 -3 296.4 32.97
2 6 -3 224.68 30.98
2 6 -3 259.73 32.73
2 6 -3 290.12 36.26
2 6 -2 230.75 26.9
2 6 -2 163.39 25.53
2 6 -2 231.68 27.04
2 6 -2 176.48 30.68
2 6 -2 184.78 26.15
2 6 -2 194.71 27.41
2 6 -2 235.96 29.26
2 6 -1 82.73 20.6
2 6 -1 122.08 23.35
2 6 -1 108.69 18.03
2 6 -1 111.29 20.14
2 6 -1 90.44 17.79
2 6 0 280.31 35.9
2 6 0 311.75 38.65
2 6 0 285.06 31.71
2 6 0 262.44 31.5
2 6 0 286.13 33.24
2 6 1 46.61 16.56
2 6 1 28.23 12.11
2 6 1 38.2 15.48
2 6 1 55.41 17.61
2 6 2 1067.51 101.61
2 6 2 1151.93 97.64
2 6 2 1140.68 101.81
2 6 2 1185.96 103.37
2 6 3 24.51 15.89
2 6 3 19.02 11.88
2 6 3 34.63 14.21
2 6 3 12.31 12.06
2 6 4 108.72 22.34
2 6 4 86.53 17.06
2 6 4 94.96 21.08
2 6 4 78.53 20.56
2 6 5 4.59 11.02
2 6 5 11.8 14.71
2 6 5 4.25 9.39
2 6 5 9.18 13.52
2 6 5 -2.86 12.05
2 6 5 -3.19 13.09
2 6 6 590.85 56.39
2 6 6 508.63 58.01
2 6 6 534.5 54.53
2 6 6 657.9 61.44
2 6 6 615.29 61.72
2 6 6 582.53 60.66
2 6 7 113.9 22.75
2 6 7 140.78 25.78
2 6 7 75.98 20.45
2 6 7 123.54 25.25
2 6 8 519.36 58.49
2 6 8 534.09 58.21
2 6 8 592.59 60.86
2 6 9 402.28 46.37
2 6 9 322.21 44.79
2 6 9 350.06 45.74
2 6 10 14.44 18.35
2 6 10 20.53 16.8
2 6 11 110.94 26.6
2 6 11 85.42 24.56
2 7 -7 52.33 18.72
2 7 -7 76.01 19.6
2 7 -7 74.92 20.11
2 7 -7 68.4 18.23
2 7 -6 17.85 13.9
2 7 -6 10.05 13.89
2 7 -6 34.39 15.26
2 7 -6 33.95 16.07
2 7 -6 20.74 14.13
2 7 -6 22.59 15.59
2 7 -5 82.85 19.5
2 7 -5 58.97 18.42
2 7 -5 67.44 19.34
2 7 -5 134.2 23.31
2 7 -5 115.41 22.74
2 7 -5 107.51 21.25
2 7 -4 64.07 18.37
2 7 -4 59.24 17.71
2 7 -4 65.92 18.41
2 7 -4 48.19 17.62
2 7 -3 186.28 28.28
2 7 -3 194.64 28.78
2 7 -3 158.32 26.74
2 7 -3 205.51 28.22
2 7 -3 175.36 31.36
2 7 -2 12.9 14.46
2 7 -2 26.38 14.01
2 7 -2 15.47 13.61
2 7 -2 27.72 14.02
2 7 -2 23.55 17.71
2 7 -1 215.61 29.54
2 7 -1 224.94 30.67
2 7 -1 207.07 34.53
2 7 0 -6.38 15.02
2 7 0 -10.14 12.63
2 7 0 14.04 15.86
2 7 1 336.36 41.09
2 7 1 284.03 40.14
2 7 1 295.88 36.69
2 7 1 326.75 43.04
2 7 2 -3.14 12.88
2 7 2 10.37 16.27
2 7 2 -2.49 11.49
2 7 2 7.11 16.05
2 7 3 444.09 53.93
2 7 3 496.63 54.18
2 7 3 445.28 49.32
2 7 3 537.36 56.79
2 7 4 114.51 24.41
2 7 4 94.43 24.81
2 7 4 67.38 18
2 7 4 90.81 23.24
2 7 5 115.14 25.54
2 7 5 102.27 23.82
2 7 5 133.16 27.58
2 7 5 123.39 23.03
2 7 5 106.38 23.19
2 7 5 92.79 23.92
2 7 6 198.91 33.39
2 7 6 172.96 30.27
2 7 6 171.9 32.46
2 7 6 227.76 29.83
2 7 6 177.61 28.67
2 7 6 180.19 31.91
2 7 7 118.87 26.97
2 7 7 83.75 23.71
2 7 7 97.81 26.11
2 7 8 351.36 43.95
2 7 8 302.62 43.67
2 7 8 307.46 44.16
2 7 9 67.24 25.3
2 7 9 92.21 26.23
2 7 9 60.37 25.71
2 7 10 73.94 24.5
2 8 -4 38.51 16.62
2 8 -4 55.98 18.46
2 8 -4 39.93 17.92
2 8 -4 63.37 19.28
2 8 -3 3.49 19.43
2 8 -3 8.14 14.46
2 8 -3 13.63 14.76
2 8 -3 5.24 13.96
2 8 -2 389.87 47.98
2 8 -2 341.05 40.82
2 8 -2 322.99 40.83
2 8 -2 319.57 41.79
2 8 -1 15.02 19.79
2 8 -1 35.93 16.99
2 8 0 169.16 32.31
2 8 0 150.21 27.01
2 8 1 74.3 24.67
2 8 1 62.48 21.33
2 8 1 25.07 15.89
2 8 2 153.76 31.93
2 8 2 157.49 32.43
2 8 2 123.14 24.69
2 8 3 141.95 30.36
2 8 3 89.16 23.67
2 8 3 51.51 23.83
2 8 3 123.91 23.94
2 8 4 35.23 22.45
2 8 4 22.25 17.49
2 8 4 10.31 15.55
2 8 4 4.07 19.17
2 8 4 5.68 15.17
2 8 5 234.45 36.29
2 8 5 196.99 36.16
2 8 5 255.26 38.67
2 8 5 287.58 39.2
2 8 5 227.98 38.21
2 8 5 210.48 33.02
2 8 6 94.35 22.21
2 8 6 86.79 24.53
2 8 6 84.17 25.7
2 8 6 53.07 21.07
2 8 6 71.59 27.51
2 8 7 173.12 35
2 8 7 162.54 32.22
2 8 7 190.62 35.83
3 -7 -2 20.02 16.7
3 -7 0 138.08 27.19
3 -7 1 6.4 14.78
3 -6 -6 7.48 16.52
3 -6 -6 3.47 17.32
3 -6 -6 6.99 17.42
3 -6 -6 -3.47 17.32
3 -6 -6 12.46 17.92
3 -6 -6 7 16.49
3 -6 -6 -3.48 15.39
3 -6 -5 79.72 23.13
3 -6 -5 88.97 23.97
3 -6 -5 109.96 24.49
3 -6 -5 54.63 22.12
3 -6 -5 90.72 25.87
3 -6 -5 56.81 25.38
3 -6 -5 72.29 22.52
3 -6 -5 78.78 22.88
3 -6 -4 17.57 15.21
3 -6 -4 27.09 17.8
3 -6 -4 30.31 16.82
3 -6 -4 20.21 15.58
3 -6 -4 29.59 18.47
3 -6 -4 -8.78 19.42
3 -6 -4 3.39 14.34
3 -6 -4 13.49 16.84
3 -6 -3 91.23 23.05
3 -6 -3 111.06 26.04
3 -6 -3 69.77 21.83
3 -6 -3 115.71 24.26
3 -6 -3 117.53 26.49
3 -6 -3 77.82 25.86
3 -6 -3 116.41 25.76
3 -6 -3 109.16 24.07
3 -6 -2 26.07 16.35
3 -6 -2 29.82 17.75
3 -6 -2 19.65 15.23
3 -6 -2 42.41 19.28
3 -6 -2 29.1 17.06
3 -6 -2 8.37 19.81
3 -6 -2 9.83 15.24
3 -6 -2 45.65 17.47
3 -6 -1 214.19 32.45
3 -6 -1 225.47 32.97
3 -6 -1 193.94 31.39
3 -6 -1 222.35 32.89
3 -6 -1 196.35 32.02
3 -6 -1 178.18 30.39
3 -6 -1 191.78 35.88
3 -6 -1 190.16 30.87
3 -6 0 38.02 21
3 -6 0 61.16 19.99
3 -6 0 38.83 17.49
3 -6 0 54.49 19.56
3 -6 0 83.16 22.34
3 -6 0 79.97 20.23
3 -6 0 67.48 19.84
3 -6 0 44.72 17.28
3 -6 1 80.27 19.78
3 -6 1 32.33 19.24
3 -6 1 103.52 21.48
3 -6 1 44.59 19.2
3 -6 1 75.82 21.46
3 -6 1 66.32 20.4
3 -6 1 66.96 18.92
3 -6 1 92.04 22.76
3 -6 1 78.71 21.39
3 -6 2 160.85 29.4
3 -6 2 159.71 29.09
3 -6 2 170.91 29.18
3 -6 2 153.79 29.44
3 -6 2 160.36 30.22
3 -6 2 275.65 33.89
3 -6 2 234.8 31.31
3 -6 2 172.81 31.78
3 -6 3 35.58 16.54
3 -6 3 6.39 14.45
3 -6 3 -6.18 15.41
3 -6 3 9.4 15.06
3 -6 3 18.62 15.21
3 -6 3 6.24 15.01
3 -6 3 2.88 14.38
3 -6 3 6.24 15.3
3 -6 3 31.03 18.5
3 -6 4 106.33 24.2
3 -6 4 114.29 24.32
3 -6 4 86.1 23.23
3 -6 4 65.47 21.21
3 -6 4 93.95 23.61
3 -6 4 117.27 24.2
3 -6 4 115.12 23.66
3 -6 4 152.15 26.16
3 -6 4 124.2 25.53
3 -6 4 101.86 22.95
3 -6 5 3.12 15.26
3 -6 5 6.1 15.23
3 -6 5 24.5 15.81
3 -6 5 11.93 15.15
3 -6 5 6.2 14.62
3 -6 5 6.29 15.97
3 -6 5 15.44 16.47
3 -6 5 9.21 15.85
3 -6 6 51.42 20.11
3 -5 -9 -16.91 18.86
3 -5 -9 -13.5 19.08
3 -5 -9 -6.79 17.23
3 -5 -9 6.82 16.69
3 -5 -9 -10.18 20.98
3 -5 -8 197.74 33.31
3 -5 -8 170.6 30.92
3 -5 -8 176.68 32.59
3 -5 -8 159.74 31.64
3 -5 -8 150.77 30.17
3 -5 -8 205.52 30.56
3 -5 -8 180.92 36.59
3 -5 -8 207.85 34.57
3 -5 -7 -3.4 16.66
3 -5 -7 -3.4 16.03
3 -5 -7 -6.78 16.59
3 -5 -7 -3.39 14.99
3 -5 -7 10.24 16.71
3 -5 -7 4.27 17.99
3 -5 -7 7.39 16.7
3 -5 -6 50.61 19.55
3 -5 -6 60.56 20.26
3 -5 -6 37.2 19.07
3 -5 -6 84.11 22.6
3 -5 -6 57.68 20.91
3 -5 -6 61.35 25.04
3 -5 -6 64.33 21.98
3 -5 -5 92.94 25.13
3 -5 -5 99.52 23.24
3 -5 -5 124.9 26.85
3 -5 -5 98.93 23.48
3 -5 -5 118.1 24.76
3 -5 -5 55.42 23.99
3 -5 -5 108.78 24.08
3 -5 -5 139.11 26.49
3 -5 -4 339.16 41.03
3 -5 -4 294.75 38.73
3 -5 -4 335.68 40.61
3 -5 -4 279.76 38.23
3 -5 -4 319.11 42.49
3 -5 -4 196.51 40.02
3 -5 -4 292.38 38.68
3 -5 -4 238.85 37.23
3 -5 -3 185.14 30.51
3 -5 -3 157.08 28.16
3 -5 -3 130.46 26.97
3 -5 -3 137.56 26.62
3 -5 -3 149.11 26.49
3 -5 -3 156.08 32.92
3 -5 -3 194.01 29.14
3 -5 -3 155.72 28.12
3 -5 -2 105.8 23.85
3 -5 -2 128.38 25.03
3 -5 -2 155.33 26.72
3 -5 -2 160.48 27.49
3 -5 -2 121.17 24.36
3 -5 -2 172.8 26.92
3 -5 -2 131.16 25
3 -5 -2 139.43 30.42
3 -5 -1 121.35 28.68
3 -5 -1 163.75 27.53
3 -5 -1 172.07 28.15
3 -5 -1 160.36 26.98
3 -5 -1 131.47 25.49
3 -5 -1 172.45 28.31
3 -5 -1 211.03 27.99
3 -5 -1 152.5 26.87
3 -5 -1 160.52 27.47
3 -5 0 -7.44 14.86
3 -5 0 13.1 12.82
3 -5 0 -2.66 11.47
3 -5 0 2.76 12.18
3 -5 0 -2.98 13.16
3 -5 0 8.84 13.3
3 -5 0 2.94 12.36
3 -5 0 -5.15 12.59
3 -5 0 5.9 13.04
3 -5 0 -8.8 13.53
3 -5 1 161.84 31.05
3 -5 1 181.46 27.27
3 -5 1 188.28 28.12
3 -5 1 205.75 29.77
3 -5 1 151.24 27.82
3 -5 1 266.92 32.59
3 -5 1 205.25 28.53
3 -5 1 151.62 27.73
3 -5 1 118.82 25.64
3 -5 2 31.95 15.25
3 -5 2 16.61 17.03
3 -5 2 43.74 15.9
3 -5 2 34.89 15.69
3 -5 2 31.66 15.54
3 -5 2 17.24 15.03
3 -5 2 39.34 15.03
3 -5 2 37.57 15.12
3 -5 2 48.81 17.49
3 -5 3 313.14 38.14
3 -5 3 288.17 37.97
3 -5 3 265.27 36.66
3 -5 3 248.84 36.17
3 -5 3 295.33 37.71
3 -5 3 421.38 40.83
3 -5 3 385.92 40.2
3 -5 3 221.44 36.74
3 -5 4 17.03 14.44
3 -5 4 31.39 15.72
3 -5 4 14.32 13.53
3 -5 4 22.71 12.87
3 -5 4 22.84 15.02
3 -5 4 5.41 14.68
3 -5 4 8.33 14.13
3 -5 4 5.88 12.44
3 -5 5 113.87 24.82
3 -5 5 107.07 23.29
3 -5 5 160.29 26.63
3 -5 5 135.78 25.28
3 -5 5 164.33 26.26
3 -5 5 148.55 26.03
3 -5 5 159.45 26.38
3 -5 5 139.69 25.28
3 -5 5 124.69 25.02
3 -5 6 32.41 17.36
3 -5 6 5.73 14.07
3 -5 6 2.98 13.79
3 -5 6 42.02 15.2
3 -5 6 2.82 12.8
3 -5 6 26.09 16.64
3 -5 6 14.24 14.23
3 -5 6 11.34 11.98
3 -5 7 91.44 24.1
3 -5 7 114.08 22.69
3 -5 7 108.47 22.25
3 -5 7 108.25 23.98
3 -5 7 129.75 25.2
3 -5 7 138.66 24.96
3 -5 7 68.2 20.83
3 -5 7 98.76 22.66
3 -5 8 59.39 19.55
3 -5 8 51.32 19.39
3 -5 8 53.2 18.07
3 -5 8 78.15 22.1
3 -5 8 72.94 21.13
3 -5 8 56.29 17.96
3 -4 -10 21.63 21.17
3 -4 -10 2.76 13.49
3 -4 -10 10.75 16.87
3 -4 -10 6.4 17.04
3 -4 -10 -3.18 15.82
3 -4 -10 -3.18 16.12
3 -4 -10 6.55 17.97
3 -4 -10 3.2 16.23
3 -4 -10 -9.64 15.43
3 -4 -10 -4.39 20.65
3 -4 -9 124.13 26.44
3 -4 -9 149.19 28.5
3 -4 -9 110.43 26.14
3 -4 -9 100.4 28.34
3 -4 -9 162.89 26.61
3 -4 -9 125.58 28.11
3 -4 -9 111.1 26.09
3 -4 -9 157.48 29.77
3 -4 -8 30.08 20.33
3 -4 -8 16.05 13.7
3 -4 -8 28.49 19.36
3 -4 -8 49.08 19.58
3 -4 -8 32.51 18.72
3 -4 -8 25.97 18.7
3 -4 -8 18.61 15.85
3 -4 -8 29.44 18.83
3 -4 -8 16.45 16.8
3 -4 -7 217.49 34.41
3 -4 -7 280.89 37.25
3 -4 -7 229.01 35.18
3 -4 -7 249.92 35.21
3 -4 -7 221.54 34.9
3 -4 -7 205.28 37.51
3 -4 -7 254.32 36.97
3 -4 -7 294.46 34.65
3 -4 -6 450.38 51.28
3 -4 -6 445.39 49.96
3 -4 -6 443.26 50.44
3 -4 -6 445.98 49.52
3 -4 -6 378.34 47.84
3 -4 -6 386.45 48.05
3 -4 -6 436.66 53.58
3 -4 -5 52.43 21.33
3 -4 -5 30.27 16.18
3 -4 -5 35.2 16.47
3 -4 -5 31.25 16.1
3 -4 -5 37.29 18.26
3 -4 -5 37.51 17.4
3 -4 -5 31.16 17.83
3 -4 -5 59.61 18.67
3 -4 -5 31.92 19.37
3 -4 -4 135.59 26.45
3 -4 -4 154.23 30.51
3 -4 -4 116.93 26.02
3 -4 -4 161.52 27.06
3 -4 -4 132.95 25.31
3 -4 -4 150.61 25.56
3 -4 -4 68.5 25.69
3 -4 -4 130.03 25.17
3 -4 -4 120.32 24.41
3 -4 -4 169.95 27.12
3 -4 -3 32.02 19.76
3 -4 -3 26.25 15.36
3 -4 -3 43.37 15.38
3 -4 -3 49.27 17.02
3 -4 -3 57.66 17.78
3 -4 -3 23.11 16.3
3 -4 -3 6.51 13.95
3 -4 -3 39.91 20.06
3 -4 -3 40.55 15.88
3 -4 -3 40.7 15.46
3 -4 -2 140.81 30.66
3 -4 -2 165.93 28.22
3 -4 -2 201.37 27.89
3 -4 -2 173.18 27.22
3 -4 -2 158.55 27.39
3 -4 -2 216.21 30.92
3 -4 -2 189.43 27.92
3 -4 -2 182.04 27.91
3 -4 -2 184.02 28.18
3 -4 -2 117.02 28.3
3 -4 -1 86.24 23.33
3 -4 -1 87.33 17.8
3 -4 -1 67.57 21.39
3 -4 -1 63.25 18.13
3 -4 -1 38.55 15.77
3 -4 -1 51.56 16.78
3 -4 -1 70.15 17.81
3 -4 -1 70.27 18.02
3 -4 -1 54.35 16.8
3 -4 -1 54.09 16.13
3 -4 -1 43.14 17.51
3 -4 0 515.63 64.64
3 -4 0 818.96 63.99
3 -4 0 794.22 63.75
3 -4 0 543.74 60.17
3 -4 0 532.84 65.39
3 -4 0 666.48 61.85
3 -4 0 658.06 63.42
3 -4 0 661.76 62.96
3 -4 0 578.2 61.63
3 -4 0 631.42 62.43
3 -4 0 653.09 62.8
3 -4 0 662.95 62.91
3 -4 0 559.02 63.12
3 -4 1 64.45 20.41
3 -4 1 94.24 17.86
3 -4 1 47.36 19.59
3 -4 1 59.14 16.03
3 -4 1 63.89 15.67
3 -4 1 67.44 16.24
3 -4 1 97.53 20.42
3 -4 1 75.6 18.33
3 -4 1 85.74 18.92
3 -4 1 54.81 17.16
3 -4 1 88.23 19.82
3 -4 1 72.42 19.06
3 -4 2 285.67 40.98
3 -4 2 333.91 37.76
3 -4 2 418.93 40.45
3 -4 2 252.42 39.62
3 -4 2 362.58 38.11
3 -4 2 382.79 40.4
3 -4 2 388.92 40.49
3 -4 2 313.43 38.19
3 -4 2 330.42 38.91
3 -4 2 336.14 38.92
3 -4 2 249.95 37.33
3 -4 3 19.13 11.26
3 -4 3 15.03 14.61
3 -4 3 43.82 14.49
3 -4 3 35.85 14.03
3 -4 3 40.66 13.73
3 -4 3 23.14 12.31
3 -4 3 25.51 13.13
3 -4 3 40.79 14.78
3 -4 3 39.45 17.53
3 -4 3 30.03 15.38
3 -4 4 156.32 28.78
3 -4 4 187.75 28.49
3 -4 4 242.56 31.31
3 -4 4 200.1 29.31
3 -4 4 254.3 31.31
3 -4 4 219.28 29.96
3 -4 4 169.2 29.58
3 -4 4 298.48 32.52
3 -4 4 307.15 33.2
3 -4 5 235.97 28.91
3 -4 5 139.03 25.19
3 -4 5 199.76 27.64
3 -4 5 209.75 27.77
3 -4 5 151.15 24.53
3 -4 5 193.96 27.64
3 -4 5 146.92 25.02
3 -4 5 166.03 26.19
3 -4 5 129.86 25.42
3 -4 5 140.14 24.55
3 -4 5 190.43 27.04
3 -4 6 27.66 13.56
3 -4 6 48.75 15.03
3 -4 6 32.71 16.34
3 -4 6 63.83 17.64
3 -4 6 25.35 13.23
3 -4 6 59.14 16.51
3 -4 6 45.67 15.98
3 -4 6 51.09 15.91
3 -4 7 135.26 22.62
3 -4 7 136.25 23.38
3 -4 7 88.59 20.63
3 -4 7 133.51 24.5
3 -4 7 137.34 22.67
3 -4 7 127.22 23.84
3 -4 7 89.23 20.3
3 -4 7 87.13 20.39
3 -4 8 40.74 17.26
3 -4 8 42.13 17.7
3 -4 8 59.48 18.49
3 -4 9 100.31 23.22
3 -4 9 102.95 23.76
3 -4 9 116.92 23.54
3 -4 10 -2.89 15.64
3 -3 -11 51.42 18.69
3 -3 -11 27.21 17.79
3 -3 -11 30.56 17.75
3 -3 -11 42.88 17.55
3 -3 -11 44.56 19.41
3 -3 -10 57.55 20.33
3 -3 -10 103.05 22.97
3 -3 -10 61.19 20.52
3 -3 -10 49.1 18.89
3 -3 -10 31.89 20.08
3 -3 -10 96.61 21.6
3 -3 -10 61.52 20.1
3 -3 -9 85.19 26.98
3 -3 -9 124.2 23.3
3 -3 -9 100.95 22.75
3 -3 -9 69.66 22.09
3 -3 -9 121.17 24.86
3 -3 -9 91.71 22.82
3 -3 -9 88.9 22.32
3 -3 -9 128.2 23.83
3 -3 -8 56.95 23.26
3 -3 -8 56.05 18.36
3 -3 -8 75.2 20.86
3 -3 -8 75.36 19.95
3 -3 -8 75.37 19.96
3 -3 -8 103.34 21.3
3 -3 -8 63.97 18.44
3 -3 -8 60.87 18.45
3 -3 -7 162.7 34.61
3 -3 -7 258.81 35.24
3 -3 -7 272.03 34.37
3 -3 -7 224.51 33.48
3 -3 -7 278.23 35.87
3 -3 -7 238.79 33.47
3 -3 -7 259.43 35.3
3 -3 -7 223.23 32.21
3 -3 -6 38.36 17.95
3 -3 -6 46.56 17.8
3 -3 -6 23.72 15.33
3 -3 -6 61.8 18.21
3 -3 -6 50.07 17.14
3 -3 -6 41.56 16.81
3 -3 -6 38.76 17.34
3 -3 -6 28.32 16.28
3 -3 -5 368.9 48.72
3 -3 -5 268.98 48.67
3 -3 -5 469.2 54.56
3 -3 -5 556.03 53.37
3 -3 -5 510.04 51.35
3 -3 -5 533.48 52.45
3 -3 -5 598.02 53.8
3 -3 -5 529.72 51.97
3 -3 -5 538.86 52.29
3 -3 -5 480.6 51.21
3 -3 -5 384.83 52.37
3 -3 -4 2.99 11.64
3 -3 -4 2.69 12.18
3 -3 -4 3.76 13.28
3 -3 -4 23.9 14.76
3 -3 -4 16.79 13.2
3 -3 -4 19.64 12.7
3 -3 -4 19.52 14.17
3 -3 -4 -2.79 11.18
3 -3 -4 3.69 14.77
3 -3 -4 28.06 13.24
3 -3 -4 14.09 11.6
3 -3 -3 203.3 27.78
3 -3 -3 193.42 27.18
3 -3 -3 145.99 28.29
3 -3 -3 136.2 25.13
3 -3 -3 176.5 26.73
3 -3 -3 234.12 28.99
3 -3 -3 223.91 28.71
3 -3 -3 177.04 28.3
3 -3 -3 124.5 27.31
3 -3 -2 2.55 10.49
3 -3 -2 -8.73 12.26
3 -3 -2 4.89 9.5
3 -3 -2 5.09 10.45
3 -3 -2 -2.54 10.7
3 -3 -2 -2.89 11.24
3 -3 -2 -2.55 10.18
3 -3 -2 -2.53 10.67
3 -3 -2 -10.83 14.43
3 -3 -1 925.88 105.52
3 -3 -1 1196.88 104.95
3 -3 -1 1204.85 103.08
3 -3 -1 1204.3 103.68
3 -3 -1 1210.1 103.6
3 -3 -1 1388.37 105.64
3 -3 -1 1332.39 103.53
3 -3 -1 1119.97 104.8
3 -3 -1 1240.12 104.05
3 -3 -1 1129.98 102.95
3 -3 0 566.2 68.31
3 -3 0 626.8 65.3
3 -3 0 669.9 64.51
3 -3 0 773.94 67.51
3 -3 0 656.25 65.68
3 -3 0 734.39 66.9
3 -3 0 827.78 66.71
3 -3 0 887.01 67.51
3 -3 0 683.54 67.73
3 -3 0 700.5 66.47
3 -3 0 675.81 65.89
3 -3 1 193.78 34.81
3 -3 1 315.05 33.29
3 -3 1 409.46 36.14
3 -3 1 239.59 31.47
3 -3 1 289.42 32.1
3 -3 1 333.92 35.05
3 -3 1 297.15 33.92
3 -3 1 295.53 33.53
3 -3 1 266.18 32.86
3 -3 1 269.98 33.11
3 -3 1 246.72 33.73
3 -3 2 36.41 15.19
3 -3 2 25.13 11.59
3 -3 2 52.67 13.97
3 -3 2 9.58 9.49
3 -3 2 28.14 10.1
3 -3 2 22.63 12.33
3 -3 2 10.27 11.93
3 -3 2 20.08 11.41
3 -3 2 8.96 10.23
3 -3 2 20.06 10.39
3 -3 2 8.95 9.3
3 -3 3 6.65 9.81
3 -3 3 4.25 8.75
3 -3 3 22.21 11.85
3 -3 3 11.04 9.31
3 -3 3 -2.24 9.21
3 -3 3 10.68 9.46
3 -3 3 13.27 11.23
3 -3 3 -2.5 9.73
3 -3 3 20.08 13.52
3 -3 4 145.94 26.47
3 -3 4 163.62 24.38
3 -3 4 169.44 24.39
3 -3 4 202.44 25.88
3 -3 4 187.54 25.6
3 -3 4 219.01 26.93
3 -3 4 231.76 26.88
3 -3 4 225.62 27.84
3 -3 4 160.82 24.85
3 -3 5 252.97 30.97
3 -3 5 266.44 31.41
3 -3 5 317.69 33.9
3 -3 5 188.74 30.65
3 -3 5 199.98 31.31
3 -3 5 281.52 31.67
3 -3 5 278.58 31.83
3 -3 5 198.03 29.75
3 -3 5 298.16 32.41
3 -3 5 303.31 32.24
3 -3 6 624.57 60.28
3 -3 6 597.74 59.8
3 -3 6 675.86 61.16
3 -3 6 636.18 61.48
3 -3 6 592.47 59.86
3 -3 6 608.4 63.81
3 -3 6 691.25 61.34
3 -3 6 587.08 59.48
3 -3 6 701.71 62.28
3 -3 6 726.75 63.79
3 -3 7 24.55 12.3
3 -3 7 11.21 10.82
3 -3 7 27.02 13.29
3 -3 7 -2.49 11.79
3 -3 7 29.96 13.14
3 -3 7 20.62 14.19
3 -3 7 22.26 13.14
3 -3 7 2.6 12.31
3 -3 8 160.81 27.8
3 -3 8 134.43 24.76
3 -3 8 130.42 24.04
3 -3 8 168.95 26.94
3 -3 9 19.53 14.69
3 -3 9 13.1 12.16
3 -3 9 23.61 17.19
3 -3 10 198.32 30.86
3 -3 10 142.15 27.71
3 -3 11 52.22 20.3
3 -3 11 18.63 16.19
3 -2 -12 17.58 14.91
3 -2 -12 14.67 15.68
3 -2 -11 71.19 20.73
3 -2 -11 86.34 21.73
3 -2 -11 157.9 27.55
3 -2 -11 62.44 20.59
3 -2 -11 99.65 22.29
3 -2 -11 111.22 23.59
3 -2 -10 306.1 37.28
3 -2 -10 280.02 37.41
3 -2 -10 308.75 38.3
3 -2 -10 266.3 36.67
3 -2 -10 255.97 36.35
3 -2 -10 194.57 34.74
3 -2 -9 21.99 17.7
3 -2 -9 25.46 15.42
3 -2 -9 20.81 12.96
3 -2 -9 17.39 14.56
3 -2 -9 52.4 17.65
3 -2 -9 22.94 13.89
3 -2 -9 25.75 14.87
3 -2 -9 18.71 13.44
3 -2 -8 290.57 33.13
3 -2 -8 162.49 32.85
3 -2 -8 187.91 30.24
3 -2 -8 195.93 30.83
3 -2 -8 199.51 30.44
3 -2 -8 263.87 32.78
3 -2 -8 216.24 31.37
3 -2 -8 212.01 30.18
3 -2 -7 -10.23 12.29
3 -2 -7 -3.66 15.44
3 -2 -7 2.88 12.12
3 -2 -7 -2.78 12.01
3 -2 -7 -5.58 11.76
3 -2 -7 19.25 13.21
3 -2 -7 -2.75 12.96
3 -2 -7 2.63 12.37
3 -2 -6 546.53 54.53
3 -2 -6 515.65 54.64
3 -2 -6 553.33 55.19
3 -2 -6 585.62 55.86
3 -2 -6 440.18 52.68
3 -2 -6 471.32 54.5
3 -2 -6 632.27 55.92
3 -2 -5 30.37 12.9
3 -2 -5 28.46 13.19
3 -2 -5 8.04 10.48
3 -2 -5 34.25 13.88
3 -2 -5 7.92 10.92
3 -2 -5 13.05 11.6
3 -2 -5 20.87 12.35
3 -2 -5 9.56 13.81
3 -2 -4 369.17 45.84
3 -2 -4 497.11 48.43
3 -2 -4 483.33 47.7
3 -2 -4 523.76 48.94
3 -2 -4 480.96 47.58
3 -2 -4 445.96 47.32
3 -2 -4 483.91 48.01
3 -2 -4 308.66 46.78
3 -2 -3 363.41 43.76
3 -2 -3 396.1 43.24
3 -2 -3 468.28 44.74
3 -2 -3 441.26 44.65
3 -2 -3 363.1 42.78
3 -2 -3 430.71 44.3
3 -2 -3 551.1 46.91
3 -2 -3 443.13 44.43
3 -2 -3 282.43 43.59
3 -2 -2 337.33 39.64
3 -2 -2 307.61 37.74
3 -2 -2 332.26 38.46
3 -2 -2 366.07 38.92
3 -2 -2 369.87 38.81
3 -2 -2 417.41 40.23
3 -2 -2 247.34 39.27
3 -2 -2 411.31 40.1
3 -2 -2 404.1 40.07
3 -2 -1 137.37 19.82
3 -2 -1 123.9 18.57
3 -2 -1 79.88 17.12
3 -2 -1 106.2 18.57
3 -2 -1 90.47 17.63
3 -2 -1 127.32 19.49
3 -2 -1 110.78 16.52
3 -2 -1 116.18 19.33
3 -2 -1 115.49 22.5
3 -2 -1 126.75 19.57
3 -2 -1 187.59 24.7
3 -2 0 376.05 45.13
3 -2 0 513.59 42.59
3 -2 0 415.11 40.81
3 -2 0 382.28 42.19
3 -2 0 379.67 40.1
3 -2 0 468.09 39.06
3 -2 0 336.2 39.99
3 -2 0 350.32 40.3
3 -2 0 384.77 40.98
3 -2 0 443.48 42.38
3 -2 0 429.06 42.03
3 -2 0 349.99 41.97
3 -2 1 266.39 35.84
3 -2 1 331.45 32.9
3 -2 1 345.32 33.34
3 -2 1 282.66 33.08
3 -2 1 317.35 31.81
3 -2 1 337.87 30.36
3 -2 1 269.61 31.9
3 -2 1 306.06 32.85
3 -2 1 264.7 31.75
3 -2 1 269.92 31.81
3 -2 1 284.74 32.52
3 -2 1 248.22 33
3 -2 2 14.03 13.6
3 -2 2 30.35 9.96
3 -2 2 28.27 10.81
3 -2 2 31.09 10.36
3 -2 2 23.64 10.44
3 -2 2 14.48 9.67
3 -2 2 23.12 8.91
3 -2 2 27.63 8.15
3 -2 2 39.68 11.54
3 -2 2 15.19 9.3
3 -2 2 17 9.26
3 -2 2 39.93 12.84
3 -2 3 1368.96 101.12
3 -2 3 1266.11 99.92
3 -2 3 982.08 101.44
3 -2 3 1180.09 99.23
3 -2 3 1125.57 98.74
3 -2 3 1257.44 100.16
3 -2 3 1157.67 102.23
3 -2 3 1241.95 97.09
3 -2 3 1178.81 99.24
3 -2 3 1093.94 98.51
3 -2 3 1124.7 100.93
3 -2 4 90.2 15.36
3 -2 4 95.86 16.86
3 -2 4 101.56 16.98
3 -2 4 88.64 15.7
3 -2 4 93.62 16.09
3 -2 4 85.53 15.88
3 -2 4 98.65 19.25
3 -2 4 112.46 15.56
3 -2 4 97.43 16.2
3 -2 4 61.67 16.45
3 -2 4 76.48 18.77
3 -2 5 552.13 50.04
3 -2 5 607.09 51.75
3 -2 5 423.04 50.02
3 -2 5 473.56 47.91
3 -2 5 581.41 49.84
3 -2 5 500.21 48.57
3 -2 5 462.44 51.29
3 -2 5 604.41 49.27
3 -2 5 539.84 49.18
3 -2 5 513.49 48.66
3 -2 5 407.19 48.23
3 -2 6 44.19 12.37
3 -2 6 26.51 12.36
3 -2 6 55.83 12.99
3 -2 6 42.65 11.83
3 -2 6 35.1 11.12
3 -2 6 37.32 11.37
3 -2 6 42.24 12.49
3 -2 6 -2.66 12
3 -2 6 40.94 11.74
3 -2 6 32.95 11.72
3 -2 6 18.17 11.76
3 -2 7 236.89 32.16
3 -2 7 242.13 29.09
3 -2 7 260.75 30.68
3 -2 7 181.2 26.89
3 -2 8 131.08 24.29
3 -2 8 129.62 22.87
3 -2 8 146.09 22.52
3 -2 8 113.57 21.01
3 -2 9 210.24 31.2
3 -2 9 238.41 30.7
3 -2 9 202.57 28.65
3 -2 9 139.52 25.43
3 -2 9 165.66 26.2
3 -2 10 44.25 16.2
3 -2 10 43.9 15.63
3 -2 10 49.01 17.42
3 -2 10 15.34 14.99
3 -2 11 61.22 19.2
3 -2 11 122.57 23.87
3 -2 11 69.81 20.45
3 -2 12 61.55 20.66
3 -2 12 43.18 19.67
3 -2 12 51.88 18.41
3 -1 -12 67.18 21.07
3 -1 -12 60.51 19.72
3 -1 -12 80.06 21.86
3 -1 -12 133.9 26.41
3 -1 -12 79.24 21.52
3 -1 -11 220.05 34.31
3 -1 -11 274.3 35
3 -1 -11 170.49 32.57
3 -1 -11 268.49 35.96
3 -1 -11 384.25 40.88
3 -1 -11 320.53 38.87
3 -1 -11 221.15 34.43
3 -1 -10 2.94 14.14
3 -1 -10 -2.85 12.3
3 -1 -10 2.61 12.76
3 -1 -10 5.62 12.7
3 -1 -10 -8.39 14.67
3 -1 -10 11.45 12.06
3 -1 -9 216.96 31.62
3 -1 -9 214.74 31.74
3 -1 -9 226.14 32.12
3 -1 -9 241.53 33.9
3 -1 -9 267.59 34.26
3 -1 -9 254.39 34.24
3 -1 -9 345 36.91
3 -1 -8 234.37 30.05
3 -1 -8 175.33 27.03
3 -1 -8 212.23 27.61
3 -1 -8 116.02 23.85
3 -1 -8 159.82 25.93
3 -1 -8 143 25.21
3 -1 -8 173.51 27.73
3 -1 -7 164.17 27.35
3 -1 -7 146.78 26.35
3 -1 -7 152.95 25.59
3 -1 -7 275.21 31.78
3 -1 -7 246.08 30.58
3 -1 -7 202.67 28.52
3 -1 -7 265.74 30.69
3 -1 -6 7.19 9.85
3 -1 -6 -2.5 10
3 -1 -6 4.79 9.31
3 -1 -6 5.06 10.12
3 -1 -6 -2.47 11.87
3 -1 -6 14.79 11.37
3 -1 -6 7.54 11.61
3 -1 -5 423.22 45.47
3 -1 -5 557.65 48.14
3 -1 -5 449.07 45.87
3 -1 -5 493.55 46.97
3 -1 -5 468.29 46.67
3 -1 -5 494.12 47.1
3 -1 -5 443.41 46.58
3 -1 -5 424.64 44.53
3 -1 -4 274.97 37.37
3 -1 -4 391.09 38.82
3 -1 -4 305.28 36.86
3 -1 -4 374.48 38.53
3 -1 -4 343.62 37.79
3 -1 -4 338.45 36.9
3 -1 -4 313.56 36.95
3 -1 -4 358.08 37.9
3 -1 -3 401.81 37.28
3 -1 -3 404.24 41
3 -1 -3 416.87 41.01
3 -1 -3 354.84 42.15
3 -1 -3 363.57 39.98
3 -1 -3 374.34 41.07
3 -1 -3 372.86 40.81
3 -1 -3 423.26 41.6
3 -1 -3 354.65 39.66
3 -1 -2 667.41 59.74
3 -1 -2 545.48 60.01
3 -1 -2 671.99 59.4
3 -1 -2 594.79 58.32
3 -1 -2 679.99 59.76
3 -1 -2 610.56 58.55
3 -1 -2 652.72 59.9
3 -1 -2 644.66 60.19
3 -1 -1 142.48 20.63
3 -1 -1 169.64 21.64
3 -1 -1 163.65 20.77
3 -1 -1 138.53 20.46
3 -1 -1 162 21.44
3 -1 -1 161.59 20.34
3 -1 -1 161.02 21.35
3 -1 -1 121.39 18.49
3 -1 -1 160.03 21.03
3 -1 -1 137.58 21.73
3 -1 -1 130.65 23.39
3 -1 -1 152.87 21.28
3 -1 0 962.76 84.35
3 -1 0 954.5 84.3
3 -1 0 1079 84.8
3 -1 0 958.95 84.26
3 -1 0 1058.9 85.34
3 -1 0 912.29 83.14
3 -1 0 989.66 84.51
3 -1 0 1142.11 84.15
3 -1 0 1005.67 84.72
3 -1 0 903.01 88.22
3 -1 0 990.91 84.91
3 -1 0 935.41 86.91
3 -1 1 26.14 11.43
3 -1 1 7.87 10.19
3 -1 1 1.64 7.27
3 -1 1 6.55 8.16
3 -1 1 6.32 6.66
3 -1 1 3.07 6.47
3 -1 1 7.05 6.51
3 -1 1 -1.64 6.58
3 -1 1 -3.28 6.74
3 -1 1 3.29 6.57
3 -1 1 2.77 5.85
3 -1 1 1.65 6.95
3 -1 2 1067.51 90.6
3 -1 2 997.97 90.25
3 -1 2 1236.84 92.06
3 -1 2 1220.72 91.66
3 -1 2 1117.97 90.99
3 -1 2 1062.1 90.78
3 -1 2 1003.86 88.58
3 -1 2 1107.23 93.59
3 -1 2 1162.14 90.33
3 -1 2 1108.65 91.01
3 -1 2 1105.94 96.71
3 -1 2 949.88 92.49
3 -1 3 58.16 12.37
3 -1 3 71.13 13.62
3 -1 3 84.34 13.6
3 -1 3 85.02 13.58
3 -1 3 71.24 12.94
3 -1 3 76.91 13.11
3 -1 3 87.65 16.38
3 -1 3 95.66 14.2
3 -1 3 80.14 13.46
3 -1 3 55.62 14.47
3 -1 3 86.89 17.65
3 -1 4 409.11 39.39
3 -1 4 421.26 40.2
3 -1 4 391.14 42.77
3 -1 4 411.85 38.79
3 -1 4 434.67 39.18
3 -1 4 392.67 38.42
3 -1 4 400.79 41.88
3 -1 4 437.62 39.61
3 -1 4 427.97 38.96
3 -1 4 395.39 38.48
3 -1 4 315.4 39.57
3 -1 5 30.39 9.18
3 -1 5 20.05 9.63
3 -1 5 29.98 9.77
3 -1 5 31.98 9.62
3 -1 5 28.96 9.08
3 -1 5 23.4 8.64
3 -1 5 34.93 12
3 -1 5 32 9.12
3 -1 5 15.41 10.79
3 -1 5 41.02 13.4
3 -1 6 345.64 35.94
3 -1 6 271.66 34.3
3 -1 6 389.07 40.65
3 -1 6 393.94 36.77
3 -1 6 351.46 36.91
3 -1 6 356.5 38.04
3 -1 7 123.7 18.77
3 -1 7 161.89 21.89
3 -1 7 118.75 19.15
3 -1 7 130.31 23.95
3 -1 8 297.58 36.99
3 -1 8 362.76 36.43
3 -1 8 241.88 32.32
3 -1 9 526.83 54.74
3 -1 9 453.59 50.53
3 -1 9 496.96 51.49
3 -1 9 525.32 50.74
3 -1 10 74.8 21.76
3 -1 10 70.37 19.05
3 -1 10 57.06 16.95
3 -1 10 71.71 18.69
3 -1 11 73.5 21.91
3 -1 11 75.75 18.12
3 -1 11 78.05 20.06
3 -1 11 98.16 22.17
3 -1 12 -3.2 17.82
3 -1 12 3.19 14.43
3 -1 12 2.8 12.64
3 -1 13 145.94 26.73
3 0 -12 110.61 25.88
3 0 -12 133.17 25.61
3 0 -12 108.3 25.13
3 0 -12 147.27 27.18
3 0 -12 144.33 28.14
3 0 -12 167.74 30.12
3 0 -11 40.6 18.87
3 0 -11 12.31 15.66
3 0 -11 25.87 15.6
3 0 -11 8.36 14.66
3 0 -11 5.62 13.81
3 0 -11 25.69 15.49
3 0 -11 10.33 13.6
3 0 -10 203.81 31.06
3 0 -10 176.86 28.81
3 0 -10 140.6 26.14
3 0 -10 133.6 24.98
3 0 -10 162.24 26.58
3 0 -10 148.08 26.92
3 0 -10 151.02 25.22
3 0 -9 89.63 20.91
3 0 -9 55.48 17.8
3 0 -9 42.63 15.49
3 0 -9 49.05 17.59
3 0 -9 81.16 19.9
3 0 -9 51.86 15.85
3 0 -9 65.23 17.6
3 0 -8 181.04 28.03
3 0 -8 173.57 28.2
3 0 -8 227.29 30.25
3 0 -8 193.51 28.13
3 0 -8 181.79 27.61
3 0 -8 221.17 30.2
3 0 -7 159.46 25.51
3 0 -7 165.94 25.22
3 0 -7 162.51 25.9
3 0 -7 257.28 29.76
3 0 -7 166.04 26.18
3 0 -7 172.38 26.13
3 0 -7 211.53 27.71
3 0 -6 164.71 28.04
3 0 -6 264.23 30.98
3 0 -6 237.91 30.31
3 0 -6 338.05 33.9
3 0 -6 234.1 30.36
3 0 -6 285.53 31.85
3 0 -6 231.35 30.06
3 0 -5 480.19 49.31
3 0 -5 412.8 47.87
3 0 -5 510.43 49.25
3 0 -5 456.63 46.89
3 0 -5 561.26 50.53
3 0 -5 478.79 49.46
3 0 -5 619.77 51.62
3 0 -5 444.1 47.15
3 0 -5 527.11 49.9
3 0 -4 134.31 19.55
3 0 -4 102.2 18.25
3 0 -4 159.3 21.32
3 0 -4 96.27 17.38
3 0 -4 73.77 16.93
3 0 -4 125.44 19.61
3 0 -4 120.84 19.16
3 0 -4 119.38 19.41
3 0 -4 146.29 20.62
3 0 -3 911.26 75.44
3 0 -3 860.44 75.16
3 0 -3 826.37 71.09
3 0 -3 862.19 74.77
3 0 -3 727.15 73.04
3 0 -3 809.81 74.77
3 0 -3 892.08 75.43
3 0 -3 755.54 71.67
3 0 -3 919.57 75.57
3 0 -3 783.94 74.54
3 0 -3 1017.69 73.27
3 0 -2 5.41 6.59
3 0 -2 -1.8 7.2
3 0 -2 9.47 5.81
3 0 -2 11.04 7.95
3 0 -2 1.99 7.5
3 0 -2 -1.83 6.47
3 0 -2 5.7 7.24
3 0 -2 8.01 6.76
3 0 -2 3.65 6.88
3 0 -2 15.45 7.61
3 0 -2 7.56 8.36
3 0 -2 1.94 7.55
3 0 -2 9.19 6.67
3 0 -2 10.54 8.89
3 0 -1 973.37 95.71
3 0 -1 1261.86 93.2
3 0 -1 1139.71 96.5
3 0 -1 995.41 94.68
3 0 -1 1441.64 95.03
3 0 -1 1157.08 94.96
3 0 -1 866.21 92.39
3 0 -1 1381.98 94.46
3 0 -1 1118.62 94.69
3 0 -1 1145.52 94.81
3 0 -1 1144.95 94.78
3 0 -1 1064.44 94.2
3 0 -1 1111.31 94.45
3 0 0 216.79 24.47
3 0 0 216.25 24.21
3 0 0 276.93 24.78
3 0 0 192.98 23.91
3 0 0 220.43 24.82
3 0 0 201.45 24.01
3 0 0 188.14 23.03
3 0 0 277.62 25.97
3 0 0 251.36 24.14
3 0 0 197.2 23.92
3 0 0 181.98 24.33
3 0 0 237.83 27.19
3 0 0 215.55 25.49
3 0 0 199.69 26.4
3 0 0 225.5 23.23
3 0 1 208.14 28.99
3 0 1 263.78 26.26
3 0 1 295.88 29.16
3 0 1 271.43 27.37
3 0 1 296.67 27.93
3 0 1 243.67 26.42
3 0 1 281.16 25.15
3 0 1 270.99 27.21
3 0 1 299.82 25.64
3 0 1 283.54 25.59
3 0 1 268.01 26.65
3 0 1 272.26 27
3 0 1 327.32 28.98
3 0 1 218.85 26.01
3 0 1 219.55 26.01
3 0 1 210.35 27.13
3 0 1 268.5 29.57
3 0 1 240.6 27.09
3 0 1 213.51 25.88
3 0 1 205.2 25.51
3 0 2 3.85 5.67
3 0 2 -2.82 6.37
3 0 2 -1.92 6.78
3 0 2 -2.2 8.02
3 0 2 8.64 7.64
3 0 2 11.75 7.33
3 0 2 7.04 6.07
3 0 2 4.93 5.69
3 0 2 1.22 5.52
3 0 2 4.94 5.08
3 0 2 2.33 5.82
3 0 2 -1.02 4.81
3 0 2 33.33 7.48
3 0 2 7.87 5.93
3 0 2 3.71 5.09
3 0 2 5.6 7.11
3 0 2 1.01 4.45
3 0 2 5.02 7.23
3 0 2 8.68 6.3
3 0 2 6.19 5.72
3 0 2 7.38 6.35
3 0 3 1496.99 126.94
3 0 3 1394.47 122.8
3 0 3 1504.99 128.72
3 0 3 1566.48 127.27
3 0 3 1698.66 126.42
3 0 3 1386.72 123.11
3 0 3 1501.04 122.92
3 0 3 1571.02 124.89
3 0 3 1708.08 123.47
3 0 3 1719.69 124.55
3 0 3 1664.57 124.89
3 0 3 1693.44 124.32
3 0 3 1900.98 126.71
3 0 3 1523.13 123.84
3 0 3 1529.63 125.95
3 0 3 1478.57 122.76
3 0 3 1476 122.83
3 0 3 1418.64 122.54
3 0 3 1513.23 123
3 0 4 242.24 29.19
3 0 4 290.1 32.32
3 0 4 275.47 30.77
3 0 4 290.52 29.28
3 0 4 204.75 26.03
3 0 4 261.28 25.92
3 0 4 250.39 25.79
3 0 4 332.36 28.09
3 0 4 304.85 27.85
3 0 4 310.69 27.99
3 0 4 242.25 27.36
3 0 4 307.35 28.94
3 0 4 248.88 27.11
3 0 4 231.05 28.3
3 0 4 277.2 26.25
3 0 4 268.54 26.05
3 0 4 244.88 25.65
3 0 5 250.24 27.67
3 0 5 290.44 29.54
3 0 5 271.2 31.67
3 0 5 269.69 27.89
3 0 5 257.02 29.33
3 0 5 267.17 28.49
3 0 5 320.01 33.36
3 0 5 295.64 30.55
3 0 5 266.77 28.02
3 0 6 1197.56 105.09
3 0 6 1157 105.97
3 0 6 1368.97 109.5
3 0 6 1298.87 110.56
3 0 6 1393.43 106.53
3 0 6 1436.36 108.27
3 0 7 24.62 9.26
3 0 7 15.26 9.45
3 0 7 17.65 11.72
3 0 8 292.5 32.79
3 0 8 311.18 32.1
3 0 8 268.26 33.43
3 0 8 245.18 34.45
3 0 9 74.38 16.52
3 0 9 123.71 20.3
3 0 9 84.69 18.66
3 0 9 64.42 19.16
3 0 10 180.61 25.77
3 0 10 117.91 22.87
3 0 10 140.08 26.61
3 0 11 73.44 19.4
3 0 11 32.88 14.9
3 0 11 68.41 21.18
3 0 12 374.94 44.51
3 0 12 332.93 41.75
3 0 12 372.82 46.15
3 0 13 -9.9 17.86
3 0 13 9.6 16.51
3 0 13 -2.92 12.92
3 0 13 3.31 14.64
3 1 -12 15.47 14.98
3 1 -12 8.66 14.65
3 1 -12 25.11 16.84
3 1 -12 -2.82 14.79
3 1 -11 120.9 23.44
3 1 -11 74.87 19.88
3 1 -11 95.05 24.53
3 1 -11 103.35 24.28
3 1 -11 53.96 18.42
3 1 -11 90.95 21.19
3 1 -10 136.45 26.8
3 1 -10 175.5 28.38
3 1 -10 277 33.97
3 1 -10 248.85 33.81
3 1 -10 172.33 27.71
3 1 -10 199.22 29.6
3 1 -9 103.14 20.37
3 1 -9 73.02 19.06
3 1 -9 115.56 22.58
3 1 -9 140.74 23.17
3 1 -9 90.91 20.13
3 1 -9 64.44 18.38
3 1 -9 65.72 17.8
3 1 -8 430.74 46.84
3 1 -8 400.49 46.89
3 1 -8 448.19 47.4
3 1 -8 419.19 46.29
3 1 -8 364.97 44.55
3 1 -8 591.35 51.24
3 1 -8 594.05 52.38
3 1 -7 160.09 23.78
3 1 -7 148.83 23.13
3 1 -7 192.38 25.26
3 1 -7 164.13 24.6
3 1 -7 118.52 21.2
3 1 -7 75.41 19.57
3 1 -7 127.76 21.56
3 1 -6 262.36 31.89
3 1 -6 213.81 30.86
3 1 -6 285.77 32.89
3 1 -6 280.48 32.57
3 1 -6 272.64 29.57
3 1 -6 230.73 31.83
3 1 -6 254.57 31.41
3 1 -5 61.61 14.61
3 1 -5 42.2 13.53
3 1 -5 68.19 15.19
3 1 -5 69.91 15.33
3 1 -5 76.22 15.36
3 1 -5 61.94 14.81
3 1 -5 68.93 14.29
3 1 -5 75.16 13.67
3 1 -5 39.4 13.2
3 1 -4 735.13 55.28
3 1 -4 565.66 52.9
3 1 -4 555.31 53
3 1 -4 549.22 51.67
3 1 -4 587.09 53.71
3 1 -4 533.08 52.25
3 1 -4 483.5 51.78
3 1 -4 535.87 51.13
3 1 -4 502.5 52.22
3 1 -3 -1.83 7.71
3 1 -3 -1.84 7.16
3 1 -3 1.35 6.21
3 1 -3 7.55 7.75
3 1 -3 10.12 8.41
3 1 -3 1.37 6.05
3 1 -3 1.82 7.09
3 1 -3 -1.78 9.01
3 1 -3 3.79 7.99
3 1 -3 1.94 8.76
3 1 -3 1.98 7.69
3 1 -2 1430.69 111.03
3 1 -2 1242.28 107.72
3 1 -2 1259.47 107.54
3 1 -2 1218.73 107.72
3 1 -2 1211.11 104.81
3 1 -2 1712.74 109.42
3 1 -2 1750.64 109.84
3 1 -2 1190.3 107.61
3 1 -2 1565.17 108.63
3 1 -2 1301.11 108.47
3 1 -2 1057.72 107.07
3 1 -2 1075.34 106.73
3 1 -2 1123.18 107.61
3 1 -2 1113.09 105.27
3 1 -2 1770.84 109.34
3 1 -2 1233.93 108.13
3 1 -2 1429.18 107.73
3 1 -1 67.08 13.65
3 1 -1 76.11 12.56
3 1 -1 83.7 12.62
3 1 -1 57.07 12.01
3 1 -1 59.82 11.63
3 1 -1 67.85 10.76
3 1 -1 75.4 12.94
3 1 -1 67.38 12.7
3 1 -1 89 13.16
3 1 -1 38.83 10.69
3 1 -1 82.43 13.64
3 1 -1 74.58 13.24
3 1 -1 73.47 13.93
3 1 -1 54.08 13.31
3 1 -1 81.29 10.91
3 1 -1 54.02 12.59
3 1 -1 77.19 12.76
3 1 0 451.29 41.75
3 1 0 414.45 42.36
3 1 0 367.3 42.59
3 1 0 356.99 40.43
3 1 0 428.22 43.93
3 1 0 492.83 40.11
3 1 0 474.2 41.93
3 1 0 441.6 41.32
3 1 0 472.4 43.18
3 1 0 478.55 41.53
3 1 0 506.99 40.92
3 1 0 490.62 40.07
3 1 0 499.89 40.75
3 1 0 517.17 43.03
3 1 0 420.21 40.42
3 1 0 413.77 39.71
3 1 0 326.13 40.24
3 1 0 534.69 41.76
3 1 0 468.27 41.65
3 1 0 453.17 41.15
3 1 0 470.39 41.65
3 1 1 802.88 71.53
3 1 1 810.3 73.04
3 1 1 737 69.35
3 1 1 740.33 72.75
3 1 1 925.55 71.88
3 1 1 841.96 70.65
3 1 1 891.37 72.33
3 1 1 803.03 69.18
3 1 1 968.51 69.74
3 1 1 868.22 70.39
3 1 1 810.51 69.02
3 1 1 948.72 70.65
3 1 1 846.98 69.21
3 1 1 1061.78 72.79
3 1 1 760.67 68.64
3 1 1 870.08 68.64
3 1 1 864.13 70.57
3 1 1 701.19 70.36
3 1 1 902.11 69.78
3 1 1 826.06 69.67
3 1 1 830.75 69.58
3 1 1 758.21 68.78
3 1 2 363.97 43.91
3 1 2 560.7 45.09
3 1 2 529.71 43.16
3 1 2 471.66 43.69
3 1 2 457.75 40.35
3 1 2 512.9 41.96
3 1 2 535.67 46.49
3 1 2 355.08 41.43
3 1 2 466.68 41.22
3 1 2 523.51 42.57
3 1 2 525.54 42.4
3 1 2 508.15 42.94
3 1 2 545.78 41.29
3 1 2 467.94 40.98
3 1 2 581.66 44.02
3 1 2 455.9 40.59
3 1 2 440.04 40.4
3 1 2 419.37 42.12
3 1 2 394.67 42.55
3 1 2 416.51 42.16
3 1 2 450.82 44.59
3 1 2 420.1 40.64
3 1 2 431.35 40.17
3 1 2 453.92 40.26
3 1 3 675.44 61.1
3 1 3 696.14 61.23
3 1 3 728.61 59.87
3 1 3 709.33 63.72
3 1 3 610.54 59.11
3 1 3 664.98 56.99
3 1 3 764.59 60.24
3 1 3 739.03 59.58
3 1 3 703.87 60.22
3 1 3 732.87 60.04
3 1 3 765.08 58.83
3 1 3 745.67 57.77
3 1 3 795.92 60.17
3 1 3 648.91 57.83
3 1 3 636.32 59.87
3 1 3 663.25 60.47
3 1 3 582.49 57.88
3 1 3 656.66 61.27
3 1 3 630.41 62.22
3 1 4 207.48 19.79
3 1 4 175.38 20.09
3 1 4 199.86 21.37
3 1 4 178.57 22.71
3 1 4 142.85 19.61
3 1 4 150.46 21.55
3 1 4 175.59 23.6
3 1 4 196.25 22.84
3 1 4 151.7 20.67
3 1 4 195.4 23.65
3 1 4 209.43 23.56
3 1 4 191.42 22.52
3 1 4 193.51 21.94
3 1 4 203.68 21.94
3 1 5 1683.82 133.02
3 1 5 1573.28 129.78
3 1 5 1547.08 130.14
3 1 5 1611.86 135.63
3 1 5 1645.82 132.96
3 1 5 1628.03 128.84
3 1 5 1617.32 127.34
3 1 5 1630.49 128.83
3 1 6 12 7.63
3 1 6 2.19 8.75
3 1 6 3.09 7.73
3 1 6 11.6 9.12
3 1 7 98.52 19.97
3 1 7 107.9 16.51
3 1 8 41.91 11.24
3 1 8 52.67 16.11
3 1 8 21.25 11.44
3 1 9 612.77 54.55
3 1 9 594.03 58.44
3 1 9 471.82 53.56
3 1 10 88.81 19.08
3 1 10 99.12 22.96
3 1 10 76.56 18.57
3 1 11 570.48 52.9
3 1 11 569.7 56.45
3 1 11 449.37 50.44
3 1 12 190.67 29.42
3 1 12 164.56 27.98
3 1 12 86.21 25.33
3 1 12 186.37 31.15
3 1 13 13.87 16.68
3 1 13 11.95 14.1
3 1 13 13.53 18.05
3 2 -12 43.96 16.84
3 2 -11 228.8 35.66
3 2 -11 301.24 38.02
3 2 -11 271.03 37.43
3 2 -11 304.89 37.34
3 2 -11 371.37 43.07
3 2 -11 418.96 43.32
3 2 -10 15.68 12.07
3 2 -10 7.94 13.2
3 2 -10 9.12 14.6
3 2 -10 22.95 15.76
3 2 -10 2.53 12.61
3 2 -10 -8.15 13.31
3 2 -9 138.78 23.63
3 2 -9 112.26 22.74
3 2 -9 164.41 26.47
3 2 -9 175.69 26.54
3 2 -9 115.99 22.25
3 2 -9 130.08 23.34
3 2 -9 94.97 20.28
3 2 -9 154.75 24.78
3 2 -8 4.83 9.93
3 2 -8 -2.45 10.82
3 2 -8 27.15 14.25
3 2 -8 2.53 12.15
3 2 -8 7.16 11.69
3 2 -8 2.46 10.85
3 2 -8 11.07 11.62
3 2 -8 2.51 10.6
3 2 -7 101.22 20.35
3 2 -7 137.64 22.38
3 2 -7 160.05 24.04
3 2 -7 190 24.46
3 2 -7 115.09 20.71
3 2 -7 121.84 21.46
3 2 -7 105.23 20.03
3 2 -7 98.37 20.31
3 2 -6 34.03 13.03
3 2 -6 6.52 9.87
3 2 -6 6.62 9.57
3 2 -6 14.12 10.44
3 2 -6 4.28 9.51
3 2 -6 8.8 11
3 2 -6 16.11 11.51
3 2 -6 21.55 10.98
3 2 -6 21.44 10.55
3 2 -5 1460.42 122.05
3 2 -5 1501.76 124.99
3 2 -5 1391.66 124.79
3 2 -5 1973.37 127.74
3 2 -5 1507.85 125.18
3 2 -5 1418.56 124.53
3 2 -5 1506.39 125.79
3 2 -5 1478.05 123.53
3 2 -5 1465.13 124.97
3 2 -4 206.32 25.61
3 2 -4 289.78 28.5
3 2 -4 202.23 26.5
3 2 -4 242.1 28.37
3 2 -4 261.7 28.96
3 2 -4 249.64 28.74
3 2 -4 240.82 28.76
3 2 -4 223.88 27.18
3 2 -4 195.04 26.37
3 2 -3 170.11 20.95
3 2 -3 232.03 22.66
3 2 -3 126.66 20.22
3 2 -3 165.83 21.14
3 2 -3 146.71 21.16
3 2 -3 153.87 20.75
3 2 -3 121.1 19.91
3 2 -3 161.54 22.49
3 2 -3 151.78 21.72
3 2 -3 164.6 21.89
3 2 -2 270.9 31.8
3 2 -2 286.24 30.15
3 2 -2 340.57 29.94
3 2 -2 250.96 29.41
3 2 -2 236.77 29.53
3 2 -2 215.96 27.21
3 2 -2 395.26 31.94
3 2 -2 387.23 31.98
3 2 -2 327.83 29.67
3 2 -2 213.43 29.17
3 2 -2 325.18 29.78
3 2 -2 240.19 29.49
3 2 -2 276.18 31.23
3 2 -2 308.86 31.59
3 2 -2 217.08 29.39
3 2 -1 213.8 23.77
3 2 -1 224.92 26.12
3 2 -1 221.59 24.39
3 2 -1 165.36 23.99
3 2 -1 243.88 23.92
3 2 -1 187.13 23.41
3 2 -1 204.59 24.07
3 2 -1 206.4 22.77
3 2 -1 231.39 25.49
3 2 -1 179.77 23.27
3 2 -1 281.68 26.63
3 2 -1 255.05 23.76
3 2 -1 189.12 22.66
3 2 -1 300.01 26.02
3 2 -1 287.3 26.25
3 2 -1 203.22 24.71
3 2 -1 198.03 25.28
3 2 -1 218.24 25.41
3 2 -1 171.34 24.95
3 2 0 1462.94 107.32
3 2 0 1219.35 105.04
3 2 0 1221.62 105.44
3 2 0 1476.17 108.33
3 2 0 1375.84 106.12
3 2 0 1598.07 108.79
3 2 0 1396.85 104.63
3 2 0 1453.76 104.55
3 2 0 1130.31 104.98
3 2 0 1204.27 106.24
3 2 0 1123.93 107.69
3 2 0 1436.32 105.32
3 2 0 1125.5 104.6
3 2 0 1233.59 106.3
3 2 0 1127.95 106.84
3 2 0 1231.58 106.71
3 2 0 1076.76 107.66
3 2 0 1407.84 105.01
3 2 0 1475.96 109.48
3 2 0 1598.35 107.29
3 2 1 178.54 22.5
3 2 1 196.26 24.34
3 2 1 201.29 23.68
3 2 1 172.11 25.09
3 2 1 214.73 23.16
3 2 1 281.86 24.86
3 2 1 227.66 25.55
3 2 1 245.71 24.41
3 2 1 226.44 22.46
3 2 1 193.06 26.19
3 2 1 200.52 26.29
3 2 1 240.22 25.15
3 2 1 249.66 25.04
3 2 1 249.42 21.77
3 2 1 249.27 24.95
3 2 1 254.83 24.83
3 2 1 232.07 23.06
3 2 1 224.13 24.57
3 2 1 198.91 24.28
3 2 1 246.69 23.23
3 2 1 200.58 22.05
3 2 1 213.51 22.24
3 2 1 218.56 22.58
3 2 2 667.06 47.74
3 2 2 542.07 53.22
3 2 2 625.61 50.37
3 2 2 559.56 48.18
3 2 2 495.45 49.78
3 2 2 468.54 48.14
3 2 2 486.57 51.52
3 2 2 543.72 47.93
3 2 2 497.49 49.83
3 2 2 668.54 50.08
3 2 2 505.67 52.24
3 2 2 634.01 51.83
3 2 2 483.94 50.06
3 2 2 545.48 53.07
3 2 2 582.18 49.6
3 2 2 559.83 49.93
3 2 2 617.5 51.87
3 2 2 627.21 50.83
3 2 2 555.85 50.77
3 2 2 567.94 51.12
3 2 3 4.18 4.34
3 2 3 6.78 7.67
3 2 3 4.16 6.54
3 2 3 4.26 5.33
3 2 3 12.04 5.61
3 2 3 1.54 6.83
3 2 3 7.77 6.59
3 2 3 1.69 6.97
3 2 3 8.71 7.75
3 2 3 14.78 7.99
3 2 3 2.03 7.18
3 2 3 27.18 9.12
3 2 3 13.33 8.17
3 2 4 817.13 62
3 2 4 781.7 66.03
3 2 4 840.4 67.21
3 2 4 665.73 62.47
3 2 4 702.09 65.61
3 2 4 678.25 66.85
3 2 5 -5.65 8.5
3 2 5 11.26 7.7
3 2 5 3.32 7.16
3 2 5 -2.07 8.49
3 2 6 1115.55 93.78
3 2 6 1169.36 92.25
3 2 6 977.44 91.91
3 2 7 163.76 25.41
3 2 7 222.15 25.18
3 2 7 188.1 23.97
3 2 7 199.89 26.27
3 2 8 334.66 40.36
3 2 8 400.6 38.35
3 2 8 306.23 37.8
3 2 9 248.73 31.96
3 2 9 158.75 29.19
3 2 9 177.82 27
3 2 10 96.62 23.5
3 2 10 150.94 24.06
3 2 10 90.04 23.19
3 2 11 267.7 36.04
3 2 11 201.78 30.25
3 2 11 185.92 33.09
3 2 12 31.45 19.25
3 2 12 26.7 15.12
3 2 12 7.28 14.2
3 2 13 91.35 24.8
3 2 13 91.68 22.93
3 3 -11 6 16.25
3 3 -11 -3.2 16.54
3 3 -11 32.17 16.95
3 3 -11 2.72 14.27
3 3 -11 7.75 14.41
3 3 -11 2.5 13.15
3 3 -11 27.94 17.47
3 3 -10 261.02 33.97
3 3 -10 266.42 33.25
3 3 -10 159.33 26.78
3 3 -10 155.76 26.77
3 3 -10 144.74 26.1
3 3 -10 128.55 25.52
3 3 -10 179.64 29.27
3 3 -9 31.94 16.25
3 3 -9 21.55 16.12
3 3 -9 12.54 12.82
3 3 -9 17.83 13.66
3 3 -9 29.81 15.42
3 3 -9 20.08 13.46
3 3 -9 15.73 15.09
3 3 -8 213.65 28.2
3 3 -8 131.92 23.62
3 3 -8 137.15 23.9
3 3 -8 137.46 23.94
3 3 -8 145.83 25.69
3 3 -8 154.22 23.86
3 3 -8 138.29 24.26
3 3 -7 40.87 15.35
3 3 -7 74.28 17.36
3 3 -7 37.9 13.32
3 3 -7 48.75 15.62
3 3 -7 36.22 13.24
3 3 -7 27.52 13.16
3 3 -7 46.42 15
3 3 -7 40.74 14.26
3 3 -6 518.46 55.88
3 3 -6 581.67 58.77
3 3 -6 574.79 58.08
3 3 -6 687.31 61.08
3 3 -6 583.16 58.22
3 3 -6 606.69 58.59
3 3 -6 585.64 59.09
3 3 -6 773.87 62.66
3 3 -6 799.38 61.42
3 3 -5 470.03 50.43
3 3 -5 506.26 52.28
3 3 -5 549.4 52.85
3 3 -5 545.09 53.87
3 3 -5 646.51 53.57
3 3 -5 693.2 55.73
3 3 -5 479.99 51.15
3 3 -5 531.49 51.93
3 3 -5 531.73 52.23
3 3 -4 34.11 10.76
3 3 -4 44.29 12.98
3 3 -4 33.78 11.84
3 3 -4 53.14 13.5
3 3 -4 47.11 12.82
3 3 -4 58.04 13.07
3 3 -4 50.24 13.48
3 3 -4 44.54 12.92
3 3 -4 34.65 12.99
3 3 -3 317.54 35.52
3 3 -3 319.49 35.7
3 3 -3 338.3 36.22
3 3 -3 363.81 37.7
3 3 -3 331.01 35.12
3 3 -3 433.19 37.83
3 3 -3 305.56 34.7
3 3 -3 335.23 35.36
3 3 -3 352.17 36.18
3 3 -2 23.41 9.82
3 3 -2 19.2 9.28
3 3 -2 24.29 9.39
3 3 -2 20.01 9.35
3 3 -2 7.32 8.22
3 3 -2 21.33 9.95
3 3 -2 33.72 10.8
3 3 -2 15.44 9.56
3 3 -1 287.44 30.7
3 3 -1 286.55 32.47
3 3 -1 267.09 31
3 3 -1 278.42 31.5
3 3 -1 382.4 33.16
3 3 -1 296.38 31.16
3 3 -1 260.99 31.55
3 3 -1 306.27 30.21
3 3 -1 319.88 33.42
3 3 -1 251.36 29.03
3 3 -1 274.64 29.89
3 3 0 168.93 21.41
3 3 0 206.55 22.9
3 3 0 277.3 26.04
3 3 0 251.11 25.13
3 3 0 212.53 24.45
3 3 0 206.79 25.4
3 3 0 184.14 21.79
3 3 0 186.71 23.7
3 3 0 296.87 27.76
3 3 0 169.39 22.35
3 3 0 199.7 25.56
3 3 0 203.07 24.41
3 3 0 168.9 23.21
3 3 1 1809.58 164.89
3 3 1 1930.02 163.42
3 3 1 1874.14 162.19
3 3 1 1901.64 161.43
3 3 1 2004.13 161.51
3 3 1 1968.08 165.46
3 3 1 2022.08 161.66
3 3 1 1886.36 162.98
3 3 1 2286.68 160.96
3 3 1 2414.62 162.22
3 3 1 2324.54 165.22
3 3 1 2198.53 162.51
3 3 2 66.05 12.84
3 3 2 64.25 11.61
3 3 2 80.1 12
3 3 2 51.55 13.71
3 3 2 56.15 13.95
3 3 2 61.35 11.5
3 3 2 71.24 12.9
3 3 2 66.71 11.59
3 3 2 66.46 12.9
3 3 2 51.54 10.24
3 3 2 57.42 12.1
3 3 3 586.92 50.92
3 3 3 560.51 55.17
3 3 3 555.42 52.47
3 3 3 607.67 51.54
3 3 3 522.02 55.01
3 3 3 609.68 52.71
3 3 3 671.75 54.81
3 3 4 248.64 26.68
3 3 4 221.89 29.17
3 3 4 240.43 30.23
3 3 4 246.65 27.68
3 3 4 281.71 29.1
3 3 5 336.62 38.67
3 3 5 401.74 42.62
3 3 5 332.37 40.01
3 3 5 424.96 40.17
3 3 5 472.22 41.6
3 3 6 301.83 39.06
3 3 6 311.6 38.16
3 3 6 358.87 38.39
3 3 6 380.82 38.92
3 3 6 382.07 38.8
3 3 6 433.68 40.2
3 3 7 272.81 32.22
3 3 7 289.59 36.26
3 3 7 245.1 31.84
3 3 7 241.35 31.16
3 3 7 288.26 33.33
3 3 7 275.82 33.38
3 3 7 258.41 31.71
3 3 7 281.65 32.22
3 3 8 245.35 36.42
3 3 8 246.35 31.9
3 3 8 290.89 35.55
3 3 8 231.75 31.34
3 3 8 327.08 34.8
3 3 8 317.19 34.05
3 3 9 98.51 20.42
3 3 9 86.08 20.49
3 3 9 66.97 19.29
3 3 9 94.39 19.93
3 3 10 277.11 41.9
3 3 10 286.81 37.99
3 3 10 342.7 42.1
3 3 10 354.07 39.68
3 3 11 52.67 16.15
3 3 11 26.34 16.56
3 3 11 51.93 20.09
3 3 12 196.53 36.38
3 3 12 258.79 36.16
3 3 13 9.35 13.48
3 3 13 19.26 17.42
3 3 13 11.28 20.66
3 4 -10 38.57 17.4
3 4 -10 21.49 17.3
3 4 -10 41.59 18.01
3 4 -10 17.66 13.68
3 4 -10 58.01 18.6
3 4 -10 42.7 16.68
3 4 -9 93.59 22.43
3 4 -9 164.32 27.22
3 4 -9 169.25 25.84
3 4 -9 86.24 21.74
3 4 -9 109.66 22.48
3 4 -9 150.31 24.67
3 4 -8 126.83 25.38
3 4 -8 254.8 31.6
3 4 -8 161.51 25.5
3 4 -8 211.92 28.72
3 4 -8 172.84 26.81
3 4 -8 153.07 25.71
3 4 -8 180.04 26.9
3 4 -7 59.53 16.58
3 4 -7 98.74 20.33
3 4 -7 67.08 16.88
3 4 -7 97.01 19.06
3 4 -7 55.37 17.78
3 4 -7 42.62 16.51
3 4 -7 57.53 15.92
3 4 -6 141.24 23.15
3 4 -6 151.32 23.63
3 4 -6 148.66 23.35
3 4 -6 168.15 23.94
3 4 -6 137.41 24.15
3 4 -6 123.03 21.76
3 4 -6 154.54 23.82
3 4 -5 95.42 18.34
3 4 -5 86.48 17.68
3 4 -5 96.21 18.33
3 4 -5 100.67 19.29
3 4 -5 74.13 17.8
3 4 -5 95.3 20.14
3 4 -5 105.66 19.25
3 4 -4 318.16 35.56
3 4 -4 307.33 35.65
3 4 -4 284.26 34.06
3 4 -4 303.57 35.49
3 4 -4 344.39 36.69
3 4 -4 366.58 38.23
3 4 -4 320.5 34.34
3 4 -4 379.99 38.75
3 4 -3 5.78 8.31
3 4 -3 1.92 9.03
3 4 -3 8.57 9.03
3 4 -3 -2.02 8.52
3 4 -3 4.38 9.67
3 4 -3 -6.92 10.64
3 4 -3 5.49 8.79
3 4 -3 9.28 9.25
3 4 -2 895.94 78.23
3 4 -2 906.73 78.89
3 4 -2 850.32 77.84
3 4 -2 923.82 82.86
3 4 -2 960.44 80.02
3 4 -2 937.54 80.79
3 4 -2 954.24 81.01
3 4 -1 16.41 10.62
3 4 -1 14.81 10.7
3 4 -1 4.02 9.5
3 4 -1 12.38 8.54
3 4 -1 17.5 10.72
3 4 0 847.31 65.97
3 4 0 817.6 69.87
3 4 0 609.05 61.74
3 4 0 695.41 64.25
3 4 0 694.63 63.62
3 4 1 96.02 15.23
3 4 1 49.67 16.61
3 4 1 60.82 12.66
3 4 1 51.82 13.04
3 4 1 55.51 12.12
3 4 2 165.68 19.96
3 4 2 130.77 22.83
3 4 2 109.43 18.17
3 4 2 130.37 18.64
3 4 3 816 69.35
3 4 3 996.97 72.88
3 4 3 792.35 76.14
3 4 3 740.63 70.09
3 4 3 773.23 69.27
3 4 4 460.1 43.78
3 4 4 524.72 45.71
3 4 4 515.94 50.83
3 4 4 393.02 42.48
3 4 5 269.27 32.14
3 4 5 255.7 32.75
3 4 5 276.84 34.74
3 4 5 273.57 30.45
3 4 5 235.99 33.77
3 4 5 302.47 31.18
3 4 6 135 24.43
3 4 6 168.63 25.95
3 4 6 146.99 24.17
3 4 6 173.08 27.64
3 4 6 192.48 24.1
3 4 7 233.57 33.3
3 4 7 225.41 32.7
3 4 7 237.42 32.54
3 4 7 311.63 36.03
3 4 7 232.52 32.3
3 4 7 293.41 32.39
3 4 7 333.92 35.83
3 4 8 36.57 15.11
3 4 8 47.72 16.51
3 4 8 29.12 13.59
3 4 8 6.45 13.75
3 4 9 950.62 85.78
3 4 9 1027.07 86.46
3 4 9 825.27 87.97
3 4 9 911.91 84.77
3 4 10 17.36 15.63
3 4 10 41.69 18.73
3 4 10 48.6 17.01
3 4 11 179.39 28.8
3 4 11 126.71 29.76
3 4 11 180.99 29.17
3 4 12 72.89 26.35
3 4 12 87.88 21.47
3 4 12 16.12 18.62
3 4 13 28.9 17.09
3 4 13 51.89 19.02
3 5 -9 62.45 19.54
3 5 -9 68.77 19.52
3 5 -9 52.01 18.61
3 5 -9 105.54 21.3
3 5 -9 69.14 19.55
3 5 -8 10.18 14.22
3 5 -8 5.16 13.35
3 5 -8 14.32 14.08
3 5 -8 15.61 14.75
3 5 -8 18.15 14.69
3 5 -8 26.77 15.58
3 5 -7 256.31 32.35
3 5 -7 232.68 32.17
3 5 -7 243.06 31.36
3 5 -7 217.64 32.1
3 5 -7 228.33 31.28
3 5 -6 -2.42 12.26
3 5 -6 -2.47 12.51
3 5 -6 2.56 11.82
3 5 -6 -2.35 11.48
3 5 -6 -9.53 12.5
3 5 -5 313.83 36.42
3 5 -5 369.21 38.77
3 5 -5 299.49 37.11
3 5 -5 319.31 38.2
3 5 -5 293.72 35.87
3 5 -4 44.65 14.8
3 5 -4 25.09 12.67
3 5 -4 43.91 15.17
3 5 -4 34.91 15.84
3 5 -4 41.78 13.51
3 5 -4 44.66 14.45
3 5 -3 331.06 36.99
3 5 -3 352.47 37.06
3 5 -3 347.32 40.63
3 5 -3 361.15 38.26
3 5 -3 350.13 38.86
3 5 -3 331.39 38.76
3 5 -2 55.23 15.93
3 5 -2 61.76 17.54
3 5 -2 31.5 13.06
3 5 -2 55.3 15.26
3 5 -2 52.05 15.22
3 5 -1 196.91 28.57
3 5 -1 235.71 30.27
3 5 -1 181.45 24.57
3 5 -1 150.21 25.05
3 5 -1 223.67 27.13
3 5 0 142.92 24.95
3 5 0 176.41 27.11
3 5 0 203.91 23.18
3 5 0 112.2 21.74
3 5 0 164.96 23.08
3 5 1 132.07 24.49
3 5 1 160.22 26.22
3 5 1 151.88 22.28
3 5 1 164.78 22.44
3 5 2 510.92 56.29
3 5 2 648.38 59.54
3 5 2 554.31 52.45
3 5 2 516.4 50.84
3 5 3 359.86 43.03
3 5 3 348.73 42.22
3 5 3 345.44 37.2
3 5 3 363.21 36.53
3 5 4 474.14 54.02
3 5 4 583.78 56.67
3 5 4 486.09 48.37
3 5 5 5.89 12.42
3 5 5 15.08 11.73
3 5 5 9.28 12.72
3 5 6 483.63 50.57
3 5 6 457.09 50.81
3 5 6 409.76 48.7
3 5 7 13.9 13.14
3 5 7 33.3 14.86
3 5 7 12.34 13.68
3 5 7 5.73 12.99
3 5 8 427.5 49.4
3 5 8 455.46 50.12
3 5 8 438.62 50.08
3 5 9 37.09 15.62
3 5 9 20.92 15.63
3 5 9 49.03 17.51
3 5 10 191.87 31.93
3 5 10 240.44 34.09
3 5 11 179.91 30.97
3 5 12 47.27 20.86
3 5 12 37.13 22.88
3 6 -8 141.2 26.02
3 6 -8 207.8 29.85
3 6 -8 191.58 29.16
3 6 -8 189.86 29.07
3 6 -7 -2.46 13.13
3 6 -7 5.26 13.58
3 6 -7 -5.18 12.68
3 6 -7 -2.51 13.19
3 6 -7 -10.2 13.8
3 6 -6 132.92 23.5
3 6 -6 90.77 21.85
3 6 -6 119.89 22.88
3 6 -6 112.26 22.01
3 6 -6 141.62 24.34
3 6 -5 156.39 25.42
3 6 -5 123.56 22.6
3 6 -5 122.79 24.52
3 6 -4 98.15 20.01
3 6 -4 58.61 18.2
3 6 -4 85.22 19.9
3 6 -3 72.44 19.69
3 6 -3 27.46 14.95
3 6 -3 21.1 13.89
3 6 -3 47.95 16.36
3 6 -2 231.91 32.8
3 6 -2 237.55 29.62
3 6 -2 233.01 30.72
3 6 -2 186.08 28.71
3 6 -1 310.75 39.16
3 6 -1 285.9 36.94
3 6 -1 269.01 33.97
3 6 -1 265.41 33.76
3 6 0 80.02 22.03
3 6 0 98.05 21.15
3 6 0 91.6 19.25
3 6 0 73.13 17.8
3 6 1 698.16 72.68
3 6 1 858.69 75.32
3 6 1 640.26 66.75
3 6 1 781.36 68.2
3 6 2 26.61 16.96
3 6 2 29.12 15.93
3 6 2 30.07 12.59
3 6 2 11.37 12.43
3 6 3 170.37 27.92
3 6 3 126.41 26.74
3 6 3 84.83 19.48
3 6 3 183.61 23.42
3 6 4 -3.34 14.09
3 6 4 20.48 16.08
3 6 4 -3.4 14.35
3 6 4 18.29 10.67
3 6 5 439.65 51.98
3 6 5 457.88 52.99
3 6 5 452.84 52.34
3 6 6 139.41 26.6
3 6 6 148.82 27.98
3 6 6 136.73 26.72
3 6 6 98.8 24.25
3 6 7 286.09 38.13
3 6 7 239.91 37.21
3 6 7 301.59 38.69
3 6 7 271.02 38.68
3 6 8 147.24 27.93
3 6 8 115.45 27.68
3 6 8 170.66 29.33
3 6 9 173.48 32.46
3 6 9 248.77 36.21
3 6 9 197.82 33.59
3 6 10 128.42 28.8
3 6 10 75.49 22.59
3 6 11 14.38 17.3
3 7 -6 50.19 17.53
3 7 -6 18.11 15.21
3 7 -5 87.41 21.05
3 7 -5 36.28 16.65
3 7 -5 74.7 20.15
3 7 -4 94.12 22.6
3 7 -4 120.08 23.19
3 7 -4 155.01 25.88
3 7 -3 9.56 17.24
3 7 -3 -2.62 13.3
3 7 -3 17.59 14.78
3 7 -3 -5.33 13.75
3 7 -2 158.8 30.62
3 7 -2 190.39 28.77
3 7 -2 146.87 26.81
3 7 -1 54.61 21.37
3 7 -1 12.98 13.25
3 7 -1 10.45 14.42
3 7 0 425.56 48.48
3 7 0 312.87 44.1
3 7 0 354.83 41.8
3 7 0 365.08 41.7
3 7 1 50.53 21.28
3 7 1 46.35 18.15
3 7 1 68.04 21.09
3 7 1 37.52 15.17
3 7 1 54.41 16.6
3 7 2 88.04 24.45
3 7 2 79.91 22.48
3 7 2 120.56 26.15
3 7 2 66.24 18.62
3 7 2 74.47 19.25
3 7 3 -3.7 17.07
3 7 3 14.83 15.62
3 7 3 -22.1 16.99
3 7 3 7.25 13.07
3 7 3 2.55 12.69
3 7 4 240.98 37.91
3 7 4 238.11 37.01
3 7 4 196.67 35.1
3 7 4 197.43 28.58
3 7 5 165.75 31.95
3 7 5 153.02 30.76
3 7 5 181.7 33.1
3 7 6 297.63 43.44
3 7 6 372.88 47.49
3 7 6 318.19 44.93
3 7 6 332.85 46.15
3 7 7 282.24 42.41
3 7 7 278.82 40.93
3 7 7 304.33 43.95
3 7 8 3.97 16.74
3 7 8 3.62 18.36
3 7 8 11.84 16.63
3 7 9 62.59 25.16
3 8 -2 3.54 17.95
3 8 -2 -16.57 17.46
3 8 -2 2.75 13.97
3 8 -1 58.75 22.61
3 8 -1 63.75 19.9
3 8 -1 61.38 19.5
3 8 0 64.46 22.84
3 8 0 27.7 16.85
3 8 0 56.42 20.17
3 8 1 281.46 40.89
3 8 1 233.16 37.2
3 8 1 192.53 31.2
3 8 1 232.77 33.33
3 8 2 111.63 28.86
3 8 2 88.09 25.61
3 8 2 99.37 26.07
3 8 2 103.86 22.69
3 8 2 105.04 24.22
3 8 3 32.23 21.35
3 8 3 27.64 18.48
3 8 3 63.69 25.06
3 8 3 28.44 17.42
3 8 3 65.05 19.51
3 8 4 117.4 29.94
3 8 4 189.17 34.74
3 8 4 129.43 31.57
3 8 5 54.02 23.62
3 8 5 55.32 22.47
3 8 5 21.09 21.18
3 8 5 20.14 18.76
3 8 6 119.6 30.19
4 -6 -1 33.64 18.64
4 -5 -5 96.56 24.97
4 -5 -5 100.87 26.47
4 -5 -5 75.26 24.32
4 -5 -5 100.08 26.71
4 -5 -5 138.75 28.51
4 -5 -5 68.31 22.94
4 -5 -5 153.8 28.77
4 -5 -4 -3.58 18.24
4 -5 -4 36.01 19.84
4 -5 -4 30.87 18.95
4 -5 -4 35.88 18.88
4 -5 -4 36.09 18.06
4 -5 -4 21.56 16.66
4 -5 -4 3.76 16.32
4 -5 -4 28.51 19.05
4 -5 -3 71.78 22.74
4 -5 -3 87.28 24.26
4 -5 -3 68.83 22.56
4 -5 -3 53.43 22.07
4 -5 -3 95.61 26.54
4 -5 -3 59.46 23.86
4 -5 -3 46.11 21.73
4 -5 -3 39.45 22.25
4 -5 -3 89.18 23.1
4 -5 -3 81.65 23.47
4 -5 -2 98 26.2
4 -5 -2 92.88 26.03
4 -5 -2 103.59 24.18
4 -5 -2 115.29 24.97
4 -5 -2 101.15 25.48
4 -5 -2 100.45 24.68
4 -5 -2 107.52 25.56
4 -5 -2 83.32 24.07
4 -5 -2 150.19 28.52
4 -5 -2 60.18 24.46
4 -5 -1 -3.64 16.85
4 -5 -1 24.16 19.77
4 -5 -1 19.52 15.4
4 -5 -1 31.61 16.65
4 -5 -1 37.88 18.7
4 -5 -1 23.81 17.32
4 -5 -1 47.37 19.45
4 -5 -1 3.4 14.77
4 -5 -1 27.07 16.32
4 -5 -1 20.07 18.97
4 -5 0 91.42 27.94
4 -5 0 173.38 29.75
4 -5 0 149.08 28.25
4 -5 0 171.63 29.48
4 -5 0 169.76 29.38
4 -5 0 192.37 31.54
4 -5 0 134.96 30.31
4 -5 0 175.42 28.09
4 -5 1 7.76 16.74
4 -5 1 6.5 15.31
4 -5 1 6.55 15.72
4 -5 1 -3.3 15.23
4 -5 1 3.27 17.4
4 -5 1 -3.26 17.34
4 -5 1 -11.65 19
4 -5 1 -8.31 15.44
4 -5 2 138.99 30.43
4 -5 2 187.5 29.88
4 -5 2 160.9 29.5
4 -5 2 233.46 32.57
4 -5 2 148.94 28.2
4 -5 2 166.74 29.87
4 -5 2 147.29 29.07
4 -5 2 150.77 32.9
4 -5 2 214.04 30.37
4 -5 3 32.29 18.83
4 -5 3 25.88 16.04
4 -5 3 -3.15 15.45
4 -5 3 21.96 16.73
4 -5 3 3.17 15.83
4 -5 3 3.14 13.9
4 -5 3 31.46 17.8
4 -5 3 -10.87 17.42
4 -5 3 25.78 17.51
4 -5 4 47.78 19.94
4 -5 4 40.98 17.36
4 -5 4 37.89 16.39
4 -5 4 12.43 15.37
4 -5 4 24.6 16.01
4 -5 4 24.73 16.87
4 -5 4 3.45 17.02
4 -5 4 40.16 17.11
4 -5 4 46.14 18.68
4 -5 5 3.05 14.65
4 -5 5 16 18.34
4 -5 5 -6.03 15.3
4 -5 5 12.16 16.2
4 -5 5 3.03 15.91
4 -5 5 24.17 16.11
4 -5 5 18.22 15.68
4 -4 -7 64.78 22.31
4 -4 -7 88.24 23.98
4 -4 -7 64.46 21.27
4 -4 -7 75.07 22.33
4 -4 -7 44.54 20.22
4 -4 -7 100.95 22.34
4 -4 -7 34.62 21.97
4 -4 -7 55.8 21.33
4 -4 -6 65.38 22.1
4 -4 -6 79.14 22.57
4 -4 -6 78.72 22.92
4 -4 -6 65.16 21.56
4 -4 -6 62.2 20.19
4 -4 -6 50.01 22.63
4 -4 -6 83.2 22.5
4 -4 -5 131.82 29.18
4 -4 -5 189.89 30.66
4 -4 -5 158.11 28.22
4 -4 -5 137.51 27.28
4 -4 -5 95.82 25.19
4 -4 -5 113.11 25.43
4 -4 -5 110.42 25.37
4 -4 -5 83.61 24.25
4 -4 -4 26.88 17.53
4 -4 -4 15.12 18
4 -4 -4 33.05 19.12
4 -4 -4 54.14 19.3
4 -4 -4 27.34 17.82
4 -4 -4 34.08 17.77
4 -4 -4 48.56 20.68
4 -4 -4 47.66 19.94
4 -4 -4 41.07 18.7
4 -4 -4 30.87 16.36
4 -4 -3 123.45 26.63
4 -4 -3 145.63 27.67
4 -4 -3 104.42 24.74
4 -4 -3 138.28 27.92
4 -4 -3 127.47 27.06
4 -4 -3 62 25.87
4 -4 -3 181.54 29.58
4 -4 -3 95.54 26.55
4 -4 -3 125.13 27.25
4 -4 -3 141.57 27.72
4 -4 -2 3.47 16.35
4 -4 -2 -3.4 14.32
4 -4 -2 12.38 13.67
4 -4 -2 3.27 14.76
4 -4 -2 -3.28 13.12
4 -4 -2 -3.94 16.17
4 -4 -2 26.17 15.41
4 -4 -2 3.9 16.42
4 -4 -2 16.45 14.54
4 -4 -2 -13.11 16.04
4 -4 -1 170.6 30.48
4 -4 -1 130.6 30.01
4 -4 -1 105.51 24.93
4 -4 -1 164.15 26.93
4 -4 -1 155.92 27.41
4 -4 -1 224.57 31.22
4 -4 -1 98.22 24.93
4 -4 -1 162.43 27.76
4 -4 -1 190.21 29.68
4 -4 -1 129.42 29.78
4 -4 0 3.89 17.55
4 -4 0 25.78 12.62
4 -4 0 -3.92 16.5
4 -4 0 8.93 13.73
4 -4 0 -6.25 14.71
4 -4 0 9.25 14.53
4 -4 0 -3.06 14.13
4 -4 0 -9.21 15.84
4 -4 0 3.09 14.24
4 -4 0 15.35 15.02
4 -4 0 -6.91 15.95
4 -4 1 486.42 44.4
4 -4 1 488.59 44.42
4 -4 1 233.86 42.74
4 -4 1 340.12 41.95
4 -4 1 328.96 41.59
4 -4 1 358.4 42.86
4 -4 1 330.5 42
4 -4 1 374.22 43.03
4 -4 1 266.62 43.02
4 -4 1 274.85 43.5
4 -4 2 2.63 13.11
4 -4 2 10.5 13.76
4 -4 2 11.13 17.48
4 -4 2 14.63 13.21
4 -4 2 -5.88 13.29
4 -4 2 -8.9 11.85
4 -4 2 -2.94 12.68
4 -4 2 5.86 12.94
4 -4 2 -3.71 16.75
4 -4 2 3.32 15.33
4 -4 3 45.37 17.78
4 -4 3 34.43 16.56
4 -4 3 64.21 21.02
4 -4 3 34.67 15.08
4 -4 3 86.08 20
4 -4 3 78.5 20.44
4 -4 3 43.19 16.66
4 -4 3 63.22 19.28
4 -4 3 50 19.65
4 -4 3 19.36 15.9
4 -4 4 162 25.83
4 -4 4 178.02 26.9
4 -4 4 132.51 26.93
4 -4 4 183.8 28.14
4 -4 4 177.28 27.26
4 -4 4 122.38 25.06
4 -4 4 154.95 25.96
4 -4 4 129.85 24.75
4 -4 4 102.33 25.85
4 -4 4 90.55 24.22
4 -4 5 54.69 20.18
4 -4 5 140.52 24.85
4 -4 5 135.82 24.01
4 -4 5 124.12 23.47
4 -4 5 86.27 20.39
4 -4 5 99.33 22.3
4 -4 5 122.08 23.16
4 -4 5 61.62 21.65
4 -4 5 135.44 23.66
4 -4 6 112.4 22.89
4 -4 6 108.5 21.96
4 -4 7 60.56 18.67
4 -4 7 50.47 18.96
4 -4 8 124.17 25.84
4 -3 -9 124.35 24.93
4 -3 -9 69.84 23.18
4 -3 -8 107.32 27.7
4 -3 -8 217.51 29.16
4 -3 -8 187.71 30.65
4 -3 -8 139.87 27.71
4 -3 -8 142 28.49
4 -3 -8 145.27 28.19
4 -3 -8 165.51 29.47
4 -3 -8 130.88 26.98
4 -3 -8 160.86 28.43
4 -3 -7 7.85 14.58
4 -3 -7 -7.24 15.62
4 -3 -7 12.83 15.4
4 -3 -7 -16.02 15.97
4 -3 -7 -3.18 14.68
4 -3 -7 6.37 14.07
4 -3 -7 6.41 13.84
4 -3 -7 -12.87 15.75
4 -3 -7 12.2 16.25
4 -3 -6 91.4 24.45
4 -3 -6 99.75 23.67
4 -3 -6 116.92 25.2
4 -3 -6 109.85 23.95
4 -3 -6 100.06 25.25
4 -3 -6 143.05 25.78
4 -3 -6 101.18 23.58
4 -3 -6 102.32 23.64
4 -3 -5 -3.63 14.1
4 -3 -5 12.64 14.28
4 -3 -5 12.98 14.66
4 -3 -5 16.12 16.08
4 -3 -5 19.37 17.99
4 -3 -5 3.09 14.86
4 -3 -5 9.73 14.01
4 -3 -5 -6.51 15.95
4 -3 -4 108.65 22.69
4 -3 -4 125.11 24.51
4 -3 -4 78.15 23.64
4 -3 -4 99.19 22.26
4 -3 -4 76.64 21.02
4 -3 -4 111.23 22.97
4 -3 -4 92.13 21.97
4 -3 -4 48.97 21.11
4 -3 -4 83.48 22.4
4 -3 -4 77.91 21.39
4 -3 -3 6.34 14.01
4 -3 -3 24.09 15.88
4 -3 -3 12.12 12.76
4 -3 -3 -12.63 16.02
4 -3 -3 6.3 13.59
4 -3 -3 9.52 13.7
4 -3 -3 -3.57 15.41
4 -3 -3 -3.16 13.64
4 -3 -3 15.73 14.52
4 -3 -2 791.06 74.24
4 -3 -2 841.65 72.79
4 -3 -2 691.5 70.41
4 -3 -2 785.61 72.35
4 -3 -2 721.5 71.92
4 -3 -2 807.18 72.76
4 -3 -2 721.02 71.13
4 -3 -2 792.06 72.73
4 -3 -1 109.1 22.1
4 -3 -1 85.09 21.3
4 -3 -1 81.01 20.47
4 -3 -1 116.03 21.5
4 -3 -1 82.39 21.71
4 -3 -1 93.64 21.25
4 -3 -1 114.12 22.63
4 -3 -1 93.13 19.3
4 -3 -1 68.63 20.91
4 -3 -1 99.74 25.1
4 -3 0 90.56 20.25
4 -3 0 98.53 20.33
4 -3 0 95.67 21.21
4 -3 0 103.03 20.19
4 -3 0 119.26 21.65
4 -3 0 123.67 22.75
4 -3 0 104.61 22.08
4 -3 0 132.02 23.34
4 -3 0 75.1 22.56
4 -3 0 55.32 21.56
4 -3 1 38.04 15.54
4 -3 1 70.2 18.49
4 -3 1 85.73 18.46
4 -3 1 54.38 16.37
4 -3 1 73.02 17.07
4 -3 1 59.93 17.44
4 -3 1 51.34 16.47
4 -3 1 57.96 19.66
4 -3 1 36.56 19.65
4 -3 2 89.42 18.78
4 -3 2 99.94 19.18
4 -3 2 44.8 15.78
4 -3 2 52.42 16.65
4 -3 2 42.57 15.32
4 -3 2 43.53 15.63
4 -3 2 99.61 20.13
4 -3 2 62.89 18.59
4 -3 2 53.77 20.77
4 -3 3 271.09 44.57
4 -3 3 431.66 45.23
4 -3 3 426.86 45.16
4 -3 3 440.54 45.51
4 -3 3 516.36 46.62
4 -3 3 557.09 47.38
4 -3 3 427.36 45
4 -3 3 318.67 44.61
4 -3 3 320.75 42.46
4 -3 4 120.14 21.72
4 -3 4 118.62 21.75
4 -3 4 145.58 23.85
4 -3 4 137.28 23.74
4 -3 4 128.88 22.41
4 -3 4 107.48 22.45
4 -3 4 93.23 24.17
4 -3 4 163.54 23.74
4 -3 4 88.89 21.91
4 -3 5 31.81 18.48
4 -3 5 84.56 19.17
4 -3 5 68.91 18.68
4 -3 5 99.4 19.76
4 -3 6 -2.69 12.69
4 -3 6 12.71 13.12
4 -3 6 13.84 13.8
4 -3 6 5.28 12.18
4 -3 7 167.66 26.57
4 -3 7 186.56 27.57
4 -3 7 107.98 23.58
4 -3 8 8.18 14.54
4 -3 8 -5.74 14.04
4 -3 8 -13.22 16.77
4 -3 9 189.39 32.01
4 -3 9 255.47 37.19
4 -3 9 278.99 35.93
4 -2 -10 -6.29 14.21
4 -2 -9 35.69 17.59
4 -2 -9 73.49 19.35
4 -2 -9 61.87 19.15
4 -2 -9 62.88 19.03
4 -2 -9 65.9 19.65
4 -2 -9 66.58 20.05
4 -2 -9 61.61 18.81
4 -2 -9 57.65 19.05
4 -2 -8 -3.31 14.27
4 -2 -8 -5.19 14.24
4 -2 -8 -5.88 13.85
4 -2 -8 -15.07 13.62
4 -2 -8 8.95 14.34
4 -2 -8 -5.97 15.41
4 -2 -8 -2.82 11.87
4 -2 -8 -9.07 13.06
4 -2 -7 286.15 37.07
4 -2 -7 279.13 37.4
4 -2 -7 314.98 38.04
4 -2 -7 187.83 34.12
4 -2 -7 291.84 37.85
4 -2 -7 305.91 35.72
4 -2 -7 225.58 34.99
4 -2 -7 293.88 37.02
4 -2 -6 17.88 14.58
4 -2 -6 -7.53 12.95
4 -2 -6 2.91 13.42
4 -2 -6 -14.81 13.95
4 -2 -6 -2.96 13.95
4 -2 -6 2.85 12.61
4 -2 -6 17.93 13.49
4 -2 -5 167.52 27.36
4 -2 -5 137.29 25.51
4 -2 -5 158.65 25.81
4 -2 -5 124.42 24.09
4 -2 -5 189.44 27.82
4 -2 -5 126.93 23.72
4 -2 -5 101.3 22.67
4 -2 -5 92.05 22.98
4 -2 -4 5.9 13.35
4 -2 -4 11.85 13.97
4 -2 -4 25.32 14.04
4 -2 -4 23.57 14.97
4 -2 -4 8.78 12.95
4 -2 -4 -2.93 12.35
4 -2 -4 19.99 13.2
4 -2 -4 5.57 13.14
4 -2 -4 3.09 14.87
4 -2 -3 490.83 53.44
4 -2 -3 504.76 53.63
4 -2 -3 553.53 54.18
4 -2 -3 539.49 53.82
4 -2 -3 616.32 55.66
4 -2 -3 634.8 56.49
4 -2 -3 519.6 53.76
4 -2 -3 468.99 52.84
4 -2 -2 405.28 42.23
4 -2 -2 288.44 38.87
4 -2 -2 347.16 39.98
4 -2 -2 355.85 40.78
4 -2 -2 405.62 42.58
4 -2 -2 406.1 42.59
4 -2 -2 361.18 41.08
4 -2 -2 216.11 38.25
4 -2 -2 272.87 39.01
4 -2 -1 39.62 13.11
4 -2 -1 46.07 16.21
4 -2 -1 29.54 13.03
4 -2 -1 45.86 15.93
4 -2 -1 45.68 15.67
4 -2 -1 43.2 15.54
4 -2 -1 29.58 14.4
4 -2 -1 40.24 16.67
4 -2 -1 45.32 15.34
4 -2 -1 33.09 15.27
4 -2 0 250.27 29.09
4 -2 0 202.31 28.34
4 -2 0 193.3 26.56
4 -2 0 206.62 29.06
4 -2 0 219.19 28.95
4 -2 0 172.04 29.24
4 -2 0 222.05 28.78
4 -2 0 246.33 29.94
4 -2 0 132.41 28.74
4 -2 1 71.65 20.42
4 -2 1 72.71 15.53
4 -2 1 60.58 16.13
4 -2 1 56.67 13.97
4 -2 1 36.25 12.82
4 -2 1 43.4 15.02
4 -2 1 63.06 15.44
4 -2 1 57.21 17.88
4 -2 1 43.57 14.72
4 -2 1 24.29 13.48
4 -2 2 166.87 24
4 -2 2 112.75 21.49
4 -2 2 167.77 23.89
4 -2 2 115.91 22.04
4 -2 2 161.38 23.81
4 -2 2 166.24 29.8
4 -2 2 241.86 27.03
4 -2 2 205.64 25.03
4 -2 2 154.24 26.83
4 -2 3 183.97 25.32
4 -2 3 205.2 25.45
4 -2 3 169.45 24.87
4 -2 3 197.41 25.47
4 -2 3 168.88 25.14
4 -2 3 193.85 25.47
4 -2 3 157.66 24.27
4 -2 3 166.2 29.98
4 -2 3 136.71 26.71
4 -2 4 466.36 57.24
4 -2 4 660.1 58.26
4 -2 4 724.33 58.75
4 -2 4 506.22 60.02
4 -2 5 27.94 15.85
4 -2 5 5.44 12.14
4 -2 5 46.03 17.45
4 -2 5 28.63 12.58
4 -2 5 27.74 12.45
4 -2 6 240.09 31.24
4 -2 6 264.02 34.7
4 -2 6 190.6 29.98
4 -2 6 228.99 30.21
4 -2 6 274.36 31.42
4 -2 6 188.24 32.46
4 -2 7 42.44 15.19
4 -2 7 45.47 16.04
4 -2 7 71.56 21.05
4 -2 8 177.17 26.78
4 -2 8 173.25 27.84
4 -2 8 160.48 29.91
4 -2 9 79.92 19.55
4 -2 9 79.12 23.61
4 -2 9 118.02 23.01
4 -2 10 63.65 22.68
4 -2 10 40.3 17.69
4 -1 -10 106.89 23.07
4 -1 -10 120.71 24.46
4 -1 -10 82.15 21.38
4 -1 -10 121.69 24.11
4 -1 -10 81.03 21.12
4 -1 -10 83.99 20.42
4 -1 -9 7.99 14.2
4 -1 -9 14.59 14.55
4 -1 -9 5.82 14.51
4 -1 -9 11.5 14.34
4 -1 -9 20.1 15.07
4 -1 -9 5.44 12.29
4 -1 -9 -5.06 13.7
4 -1 -8 219.07 28.81
4 -1 -8 147.3 26.29
4 -1 -8 146.61 25.91
4 -1 -8 139.32 25.54
4 -1 -8 173.19 27.79
4 -1 -8 144.06 25.55
4 -1 -8 118.59 24.02
4 -1 -7 22.5 13.43
4 -1 -7 28.42 15.7
4 -1 -7 30.77 15.46
4 -1 -7 22.35 15.21
4 -1 -7 39.61 15.63
4 -1 -7 21.59 13.55
4 -1 -7 5.22 12.4
4 -1 -6 169.58 28.53
4 -1 -6 170.42 27.51
4 -1 -6 176.55 27.96
4 -1 -6 148.44 27.81
4 -1 -6 248.41 31.38
4 -1 -6 181.48 28.76
4 -1 -6 239.29 29.06
4 -1 -5 171.83 27.15
4 -1 -5 170.95 27.15
4 -1 -5 262.96 29.41
4 -1 -5 169.16 27.68
4 -1 -5 183.79 27.91
4 -1 -5 219.1 29.22
4 -1 -5 170.25 28.06
4 -1 -5 141.4 24.47
4 -1 -4 56.5 17.81
4 -1 -4 71.46 18.05
4 -1 -4 77.61 19.44
4 -1 -4 78.24 18.91
4 -1 -4 103.93 20.62
4 -1 -4 85.28 19.85
4 -1 -4 86.21 19.02
4 -1 -4 80.64 17.8
4 -1 -3 154.68 25.04
4 -1 -3 139.01 23.64
4 -1 -3 205.91 26.49
4 -1 -3 152.6 24.9
4 -1 -3 168.36 24.84
4 -1 -3 145.63 24.12
4 -1 -3 163.94 24.62
4 -1 -3 130.11 23.52
4 -1 -3 108.15 23.57
4 -1 -2 128.09 21.84
4 -1 -2 103.57 20.34
4 -1 -2 109.67 21.19
4 -1 -2 140.75 22.57
4 -1 -2 115.7 21.36
4 -1 -2 142.62 21.97
4 -1 -2 92.4 20.78
4 -1 -2 119.29 22.69
4 -1 -2 169.36 24.29
4 -1 -2 136.58 22.36
4 -1 -1 459.45 48.59
4 -1 -1 452.19 49.68
4 -1 -1 462.7 48.8
4 -1 -1 491.83 49.56
4 -1 -1 456.81 47.1
4 -1 -1 507.92 49.16
4 -1 -1 491.13 46.43
4 -1 -1 533.21 49.52
4 -1 -1 353.16 47.88
4 -1 -1 556.31 50.38
4 -1 -1 426.35 47.64
4 -1 0 61.68 15.7
4 -1 0 70.4 13.29
4 -1 0 27.58 12.28
4 -1 0 43.84 13.6
4 -1 0 24.66 11.57
4 -1 0 32.17 12.28
4 -1 0 50.09 11.51
4 -1 0 61.83 14.98
4 -1 0 50.93 14.16
4 -1 0 27.98 12.64
4 -1 0 49.82 16.18
4 -1 0 36.22 15.64
4 -1 1 745.96 62.35
4 -1 1 532.85 64.48
4 -1 1 626.12 61.62
4 -1 1 594.25 61.41
4 -1 1 666.23 62.45
4 -1 1 746.07 63.53
4 -1 1 687.16 66.05
4 -1 1 669.14 60.46
4 -1 1 713.53 63.01
4 -1 1 721.62 63.19
4 -1 2 16.02 9.5
4 -1 2 17.91 10.16
4 -1 2 13.63 8.67
4 -1 2 19.98 9.84
4 -1 2 18.05 10.06
4 -1 2 16.1 8.5
4 -1 2 1.99 9.27
4 -1 2 19.53 12.38
4 -1 2 14.85 10.1
4 -1 2 21.84 15.31
4 -1 3 510.82 51.58
4 -1 3 509.64 48.12
4 -1 3 382.13 49.8
4 -1 3 598.42 50.75
4 -1 3 549.63 49.04
4 -1 3 462.34 53.5
4 -1 4 46.55 17.08
4 -1 4 73.46 18.21
4 -1 4 56.58 13.63
4 -1 4 39.87 16.41
4 -1 4 64.28 14.45
4 -1 4 63.84 14.83
4 -1 5 182.63 24.27
4 -1 5 173.13 23.42
4 -1 5 171.62 27.94
4 -1 5 112.87 23.13
4 -1 5 169.12 26.34
4 -1 5 224.19 25.43
4 -1 6 285.87 30.33
4 -1 6 237.02 29.5
4 -1 6 192.25 30.6
4 -1 6 178.14 29.27
4 -1 6 261.72 33.46
4 -1 6 263.59 29.8
4 -1 7 211.33 33.29
4 -1 7 226.26 30.02
4 -1 7 273.2 31.03
4 -1 7 267.05 31.76
4 -1 8 136.35 27.05
4 -1 8 143.89 23.64
4 -1 8 139.41 23.23
4 -1 9 68.19 21.22
4 -1 9 75.46 18.8
4 -1 10 67.4 20.77
4 -1 10 46.55 18.06
4 -1 10 61.08 18.06
4 -1 11 3.45 17.78
4 -1 11 2.95 14.7
4 -1 11 8.89 14.51
4 0 -10 79.94 20.74
4 0 -10 95.16 23.1
4 0 -10 109.41 23.44
4 0 -10 80.37 20.84
4 0 -10 90.18 21.99
4 0 -10 114.95 23.28
4 0 -10 80.2 21.27
4 0 -9 61.85 17.99
4 0 -9 79.05 20.1
4 0 -9 59.36 18.47
4 0 -9 38.85 17.38
4 0 -9 52.46 18.43
4 0 -9 37.35 15.77
4 0 -9 46.13 16.78
4 0 -8 22.05 14.84
4 0 -8 49.85 16.34
4 0 -8 27.21 13.49
4 0 -8 46.02 16.66
4 0 -8 31.74 16.09
4 0 -8 9.86 13.71
4 0 -8 24.94 14.46
4 0 -7 303.38 33.23
4 0 -7 180.69 29.8
4 0 -7 195.93 30.76
4 0 -7 206.67 30.47
4 0 -7 248.4 31.71
4 0 -7 202.7 29.85
4 0 -7 203.28 29.45
4 0 -6 99.48 19.51
4 0 -6 123.6 21.41
4 0 -6 92.09 20.51
4 0 -6 80.14 19.75
4 0 -6 92.82 20.44
4 0 -6 119.98 21.38
4 0 -6 79.26 18.61
4 0 -5 -2.49 11.87
4 0 -5 22.19 13.24
4 0 -5 40.61 13.71
4 0 -5 20.33 13
4 0 -5 35.76 13.92
4 0 -5 25.11 13.69
4 0 -5 45.06 15.37
4 0 -5 23.77 11.46
4 0 -4 535.86 54.5
4 0 -4 554.46 55.8
4 0 -4 725.64 57.4
4 0 -4 605.58 56.83
4 0 -4 456.89 53.27
4 0 -4 565.85 56.01
4 0 -4 656.77 57.83
4 0 -4 548.05 55.42
4 0 -4 530.72 55.58
4 0 -3 9.58 10.4
4 0 -3 9.27 10.97
4 0 -3 21.64 11.82
4 0 -3 11.92 10.11
4 0 -3 18.9 12.64
4 0 -3 4.78 11.09
4 0 -3 11.8 10.25
4 0 -3 56.6 14.61
4 0 -2 654.17 61.15
4 0 -2 509.08 59.04
4 0 -2 681.02 61.16
4 0 -2 633.88 60.25
4 0 -2 741.07 62.33
4 0 -2 587.2 60.17
4 0 -2 583.21 60.03
4 0 -2 679.27 61.49
4 0 -2 727.14 62.03
4 0 -1 -2.19 8.5
4 0 -1 2.44 11.5
4 0 -1 -7.74 11.65
4 0 -1 4.37 9.43
4 0 -1 14.34 10.91
4 0 -1 8.66 8.65
4 0 -1 -8.67 10.41
4 0 -1 4.4 9.49
4 0 -1 15.82 11.46
4 0 0 351.6 32.55
4 0 0 270.81 32.2
4 0 0 271.8 31.91
4 0 0 198.76 32.07
4 0 0 251.29 31.49
4 0 0 352.06 33.68
4 0 0 318.02 33.32
4 0 0 269.04 31.75
4 0 0 278.94 31.89
4 0 0 277.32 34.58
4 0 0 276.82 32.6
4 0 1 197.15 23.18
4 0 1 126.59 22.11
4 0 1 128.28 25.45
4 0 1 142.99 21.98
4 0 1 188.02 24.02
4 0 1 256.47 25.9
4 0 1 175.97 23.09
4 0 1 254.9 29.4
4 0 1 202.82 25.27
4 0 1 212.84 24.7
4 0 1 153.5 22.89
4 0 2 338.98 38.7
4 0 2 504.49 40.88
4 0 2 443.25 40.33
4 0 2 351.4 43.08
4 0 2 304.51 41.12
4 0 2 368.55 39.75
4 0 2 486.17 43.75
4 0 2 421.34 40.92
4 0 3 122.42 22.2
4 0 3 105.43 22.54
4 0 3 133.89 18.16
4 0 3 154.86 19.78
4 0 3 114.01 19.97
4 0 3 99.01 18.19
4 0 4 337.48 31.9
4 0 4 226.71 33.99
4 0 4 211.57 32.07
4 0 4 285.6 33.03
4 0 4 320.56 32.46
4 0 5 399.54 36.23
4 0 5 323.43 39.54
4 0 5 279.89 36.37
4 0 5 313.99 37.75
4 0 5 308.5 35.75
4 0 6 301.8 32.82
4 0 6 289.33 36.76
4 0 6 239.74 33.29
4 0 6 305.4 36.96
4 0 6 367.56 36.54
4 0 7 416.04 48.2
4 0 7 483.46 47.13
4 0 7 440.6 44.87
4 0 8 5.99 14.15
4 0 8 19.97 12.41
4 0 9 238.44 34.64
4 0 9 229.07 30.24
4 0 10 6.69 16.39
4 0 10 -2.91 14.01
4 0 10 30.83 14.93
4 0 11 243.89 37.26
4 0 11 292.82 35.22
4 0 11 203.13 33.18
4 1 -10 139.16 26.08
4 1 -10 110.11 23.78
4 1 -10 73.35 20.06
4 1 -10 64.55 20.66
4 1 -10 63.19 19.77
4 1 -10 94 21.83
4 1 -10 97.81 21.4
4 1 -9 131.88 24.05
4 1 -9 143.95 23.97
4 1 -9 77.64 19.65
4 1 -9 63.43 18.85
4 1 -9 78.3 20.01
4 1 -9 86.88 19.45
4 1 -9 73.46 19.48
4 1 -9 28.27 15.12
4 1 -8 23.38 13.82
4 1 -8 62.26 18.18
4 1 -8 21.52 14.07
4 1 -8 36.88 15.07
4 1 -8 26.51 14.31
4 1 -8 44.12 15.44
4 1 -8 21.57 12.78
4 1 -7 194.24 28.9
4 1 -7 195.76 29.3
4 1 -7 146.49 26.44
4 1 -7 206.86 28.64
4 1 -7 243.41 30
4 1 -7 177.86 28.13
4 1 -6 2.35 11.29
4 1 -6 7.56 10.88
4 1 -6 2.54 10.95
4 1 -6 -2.48 11.22
4 1 -6 2.47 13.15
4 1 -6 9.92 11.2
4 1 -6 -2.4 10.6
4 1 -5 502.54 56.94
4 1 -5 676.51 59.87
4 1 -5 600.89 58.25
4 1 -5 685.72 60.25
4 1 -5 563.38 57.26
4 1 -5 530.99 56.97
4 1 -5 494.72 54.88
4 1 -4 9.29 11.17
4 1 -4 14.06 10.6
4 1 -4 2.08 10
4 1 -4 -2.31 10
4 1 -4 10.29 9.52
4 1 -4 8.61 9.74
4 1 -4 4.56 10.1
4 1 -4 11.36 10.93
4 1 -4 18.61 10.97
4 1 -3 317.7 35.5
4 1 -3 318.9 36.07
4 1 -3 316.01 35.69
4 1 -3 306.45 35.94
4 1 -3 432.4 37.53
4 1 -3 261.18 34.24
4 1 -3 313.6 35.61
4 1 -3 310.44 35.82
4 1 -3 296.77 35.21
4 1 -2 182.85 25.67
4 1 -2 203.89 26.45
4 1 -2 185.25 25.94
4 1 -2 183.09 26.33
4 1 -2 204.74 26.19
4 1 -2 205.77 27.32
4 1 -2 192.52 25.78
4 1 -2 165.43 24.59
4 1 -2 257.64 28.11
4 1 -2 212.51 26.69
4 1 -1 74.06 17.07
4 1 -1 106.36 19.15
4 1 -1 120.27 18.31
4 1 -1 109.98 18.13
4 1 -1 87.97 16.33
4 1 -1 86.84 17.68
4 1 -1 88.14 17.76
4 1 -1 75.33 16.28
4 1 -1 76.1 16.29
4 1 -1 134.39 19.11
4 1 0 96.69 18.59
4 1 0 62.28 16.84
4 1 0 109.4 17.53
4 1 0 97.66 17.04
4 1 0 100.53 18.54
4 1 0 139.02 19.07
4 1 0 119.15 17.39
4 1 0 115.52 17.55
4 1 0 98.8 16.71
4 1 1 936.69 79.92
4 1 1 785 81.51
4 1 1 878.21 80.54
4 1 1 1052.52 79.13
4 1 1 916.94 79.75
4 1 1 1147.42 83.52
4 1 1 797.61 82.37
4 1 2 370.5 41.07
4 1 2 348 37.34
4 1 2 443.24 40.02
4 1 2 295.59 38.14
4 1 2 374.47 37.87
4 1 3 182.7 23.78
4 1 3 200.9 23.88
4 1 3 168.02 24.26
4 1 3 112.52 22.26
4 1 4 904.38 94.13
4 1 4 1177.45 94.56
4 1 4 1162.8 93.68
4 1 4 1085.02 94.71
4 1 5 43.86 13.53
4 1 5 23.96 13.39
4 1 5 34.53 12.96
4 1 5 8.65 10.15
4 1 6 204.96 29.42
4 1 6 198.87 28.18
4 1 6 210.28 26.95
4 1 7 26.77 13.63
4 1 7 9.69 10.01
4 1 8 492.18 51.97
4 1 8 469.71 50.26
4 1 9 28.54 15.47
4 1 9 52.33 19
4 1 10 125.85 26.15
4 1 10 232.75 32.81
4 1 11 42.17 17.46
4 1 11 69.08 22.4
4 1 12 86.33 22.66
4 1 12 150.28 29.55
4 2 -10 144.65 26.06
4 2 -10 76.33 19.98
4 2 -10 83.28 20.46
4 2 -10 91.27 22
4 2 -10 67.79 19.87
4 2 -9 11.69 15.33
4 2 -9 -2.61 12.03
4 2 -9 4.68 13.05
4 2 -9 -2.72 12.84
4 2 -9 26.33 14.26
4 2 -9 5.32 13.27
4 2 -8 182.08 28.54
4 2 -8 188.98 27.49
4 2 -8 155.07 26.21
4 2 -8 149.26 25.06
4 2 -8 161.43 26.47
4 2 -8 191.92 27.75
4 2 -8 165.44 26.78
4 2 -7 2.68 12.35
4 2 -7 4.96 11.69
4 2 -7 5.01 11.33
4 2 -7 5.01 12.03
4 2 -7 4.92 12.92
4 2 -7 7.13 11.64
4 2 -7 2.57 11.84
4 2 -6 265.84 33.16
4 2 -6 231.84 31.67
4 2 -6 274.24 33.33
4 2 -6 288.45 33.59
4 2 -6 221.96 32
4 2 -6 329.94 35.31
4 2 -5 27.38 12.42
4 2 -5 9.11 11.38
4 2 -5 11.5 11.7
4 2 -5 14.14 12.19
4 2 -5 7 10.57
4 2 -5 9.41 10.89
4 2 -5 7.06 11.55
4 2 -4 237.13 30.19
4 2 -4 246.74 30.58
4 2 -4 252.21 30.56
4 2 -4 269.75 31.44
4 2 -4 269.4 31.48
4 2 -4 224.72 29.42
4 2 -4 225 29.32
4 2 -4 236.66 28.61
4 2 -3 167.77 24.76
4 2 -3 237.08 26.85
4 2 -3 168.89 24.62
4 2 -3 184.03 25.01
4 2 -3 176.97 25
4 2 -3 163.39 24.36
4 2 -3 216.86 26.82
4 2 -3 182.06 25.24
4 2 -3 177.71 25.1
4 2 -2 276.19 31.42
4 2 -2 306.68 33.83
4 2 -2 261.27 29.7
4 2 -2 238.09 29.35
4 2 -2 254.65 30.24
4 2 -2 214.21 29.06
4 2 -2 255.27 31.43
4 2 -2 275.76 30.8
4 2 -2 256.42 31.73
4 2 -2 242.89 30.17
4 2 -1 432.12 44.06
4 2 -1 537.39 46.46
4 2 -1 430.76 42.71
4 2 -1 369.62 42.25
4 2 -1 379.08 41.45
4 2 -1 414.61 43.95
4 2 0 65.06 15.66
4 2 0 59.5 14.99
4 2 0 85.64 15.64
4 2 0 73.22 14.67
4 2 0 65.43 14.13
4 2 0 55.75 14.11
4 2 1 403.78 45.54
4 2 1 530.59 43.7
4 2 1 503.57 46.19
4 2 1 417.03 43.83
4 2 1 382.03 45.08
4 2 2 66.21 16.29
4 2 2 34.09 14
4 2 2 80.39 14.11
4 2 2 86.35 15.73
4 2 2 56.37 13.73
4 2 3 610.56 66.66
4 2 3 742.84 65.28
4 2 3 688.66 67.35
4 2 4 91.59 17.33
4 2 4 95.64 17.08
4 2 4 107.11 18.97
4 2 4 74.26 18.07
4 2 5 212.55 30.22
4 2 5 251.46 29.38
4 2 5 195.63 27.44
4 2 5 232.54 28.76
4 2 6 -5.18 12.92
4 2 6 -4.71 10.88
4 2 6 -7.03 10.13
4 2 7 685.71 63.59
4 2 7 604.88 61.75
4 2 8 72 19.45
4 2 8 116.92 22.33
4 2 8 68.67 18.64
4 2 9 203.02 32.64
4 2 9 336.97 38.65
4 2 10 260.75 38.34
4 2 10 433.99 45.7
4 2 11 -3.05 13.78
4 2 11 23.79 18.67
4 2 11 3.45 16.25
4 2 12 78.28 21.38
4 2 12 87.41 24.78
4 2 12 89.48 25.11
4 3 -9 131.52 24.71
4 3 -9 64.63 19
4 3 -9 86.58 20.5
4 3 -9 56.49 17.33
4 3 -9 66.97 18.79
4 3 -9 93 20.48
4 3 -9 86.1 20.67
4 3 -8 -14.04 15.42
4 3 -8 15.1 13.41
4 3 -8 17.78 14.15
4 3 -8 7.63 11.99
4 3 -8 -7.58 12.6
4 3 -8 7.17 12.12
4 3 -8 2.6 12.74
4 3 -7 386.46 43.46
4 3 -7 367.96 43.56
4 3 -7 525.86 48.15
4 3 -7 365.86 42.88
4 3 -7 395.25 43.54
4 3 -7 361.56 42.86
4 3 -7 412.44 44.06
4 3 -6 195.83 30.7
4 3 -6 287.3 33.39
4 3 -6 217.84 31.6
4 3 -6 258.89 32.64
4 3 -6 296.73 33.56
4 3 -6 246.53 32.58
4 3 -6 254.41 31.25
4 3 -5 44.85 15.53
4 3 -5 15.28 11.62
4 3 -5 25.47 13.59
4 3 -5 16.35 10.96
4 3 -5 26.09 12.79
4 3 -5 16.59 12.39
4 3 -5 33.54 13.3
4 3 -5 51.93 14.56
4 3 -4 160.92 24.14
4 3 -4 143.55 21.9
4 3 -4 134.4 22.47
4 3 -4 142.84 23.05
4 3 -4 155.37 23.34
4 3 -4 142.88 23.07
4 3 -4 140.21 22.39
4 3 -4 124.47 21.17
4 3 -3 27.29 12.44
4 3 -3 20.8 10.89
4 3 -3 31.28 12.71
4 3 -3 22.12 11.2
4 3 -3 16.27 10.83
4 3 -3 18.4 12.01
4 3 -3 36.75 12.69
4 3 -3 31.09 12.34
4 3 -2 506.86 48.29
4 3 -2 468.55 47.25
4 3 -2 489.32 48.29
4 3 -2 506.85 48.04
4 3 -2 400.35 47.11
4 3 -1 40.03 14.38
4 3 -1 71.69 15.84
4 3 -1 65.79 16.71
4 3 -1 43.52 13.05
4 3 -1 54.61 13.67
4 3 -1 44.29 13.15
4 3 0 490.31 50.5
4 3 0 609.89 52.1
4 3 0 523.86 50.02
4 3 0 491.16 48.35
4 3 0 430.68 49.72
4 3 1 4.86 10.74
4 3 1 11.93 11.02
4 3 1 12.95 10.56
4 3 1 2.03 8.97
4 3 1 -3.53 7.8
4 3 2 139.97 24.58
4 3 2 175.11 25.83
4 3 2 173.72 23.88
4 3 3 224.9 24.02
4 3 3 179.6 24.42
4 3 3 149.36 25.22
4 3 3 152.79 25.73
4 3 4 868.28 90.21
4 3 4 1126.71 89.08
4 3 4 1196.87 91.28
4 3 4 931.19 89.9
4 3 5 150.6 23.6
4 3 5 96.23 22.48
4 3 5 174.28 23.13
4 3 5 183.9 23.94
4 3 6 139.99 25.9
4 3 6 153.4 23.88
4 3 6 200.7 25.82
4 3 7 155.77 27.73
4 3 7 227.62 29.62
4 3 7 188.21 27.81
4 3 7 229.66 29.85
4 3 8 10.98 15.88
4 3 8 22.32 14.25
4 3 8 27.1 14.54
4 3 8 26.78 12.22
4 3 9 357.95 41.73
4 3 9 366.7 42.25
4 3 9 398.43 42.55
4 3 10 45.25 17.05
4 3 10 44.26 20.61
4 3 10 28.84 16.22
4 3 11 118.45 26.55
4 3 11 135.92 30.73
4 3 11 154.98 29.67
4 3 12 15.94 18.02
4 3 12 -4.14 17.44
4 4 -9 7.98 13.52
4 4 -9 17.91 14.49
4 4 -9 10.35 14.03
4 4 -9 14.42 15.71
4 4 -8 38.84 16.15
4 4 -8 86.89 19.86
4 4 -8 57.9 18.37
4 4 -8 71.56 18.79
4 4 -8 66.99 19.24
4 4 -8 73.15 18.84
4 4 -7 204.48 30.47
4 4 -7 232.82 31.19
4 4 -7 212.56 30.86
4 4 -7 256.83 32.62
4 4 -7 243.19 32.52
4 4 -7 257.73 33.17
4 4 -6 11.55 11.91
4 4 -6 4.68 11.88
4 4 -6 6.7 12.27
4 4 -6 -2.41 11.11
4 4 -6 2.45 12
4 4 -6 -2.43 10.96
4 4 -6 -5.05 13.24
4 4 -5 169.72 24.75
4 4 -5 179.1 25.48
4 4 -5 165.61 25.46
4 4 -5 169.66 26.11
4 4 -5 141.25 24.15
4 4 -5 193.82 27.53
4 4 -5 157.74 24.79
4 4 -4 -2.41 10.87
4 4 -4 -4.54 10.26
4 4 -4 2.41 10.88
4 4 -4 -5.06 11.91
4 4 -4 -2.34 10.57
4 4 -4 2.06 10.65
4 4 -3 214.83 29.25
4 4 -3 209.13 28.14
4 4 -3 229.57 29.5
4 4 -3 199.72 28.63
4 4 -3 303.61 34.48
4 4 -3 206.77 27.93
4 4 -2 29.16 13.34
4 4 -2 42.37 14.6
4 4 -2 55.49 14.47
4 4 -2 49.91 13.95
4 4 -2 40.19 14.32
4 4 -1 746.42 60.31
4 4 -1 511.62 54.69
4 4 -1 523.33 55.76
4 4 -1 519.29 53.22
4 4 -1 582.58 55.65
4 4 -1 602.02 55.51
4 4 0 158.22 26.39
4 4 0 203.49 28.1
4 4 0 155.94 24.93
4 4 0 221.51 26.57
4 4 1 367.2 36.36
4 4 1 230.29 33.22
4 4 1 265.64 34.5
4 4 1 278.59 33.29
4 4 1 341.21 34.2
4 4 2 451.89 41.49
4 4 2 299.31 39.43
4 4 2 370.49 38.96
4 4 2 341.86 40.95
4 4 3 424.01 40.48
4 4 3 286.03 39.33
4 4 3 375.08 41.47
4 4 4 70.45 18.53
4 4 4 73.76 19.14
4 4 4 92.96 17.95
4 4 5 20.52 13.6
4 4 5 19.62 14.11
4 4 5 31.05 17
4 4 5 38.88 14.43
4 4 6 328.87 42.81
4 4 6 322.29 45.12
4 4 6 377.52 40.34
4 4 6 451.04 42.97
4 4 7 31.47 15.6
4 4 7 46.53 18.28
4 4 7 61.51 17.97
4 4 7 33.83 14.42
4 4 7 34.52 17.22
4 4 7 42.76 15.04
4 4 7 68.45 17.2
4 4 8 445.91 50.52
4 4 8 508.08 55.49
4 4 8 556.29 53.13
4 4 8 449.4 50.58
4 4 8 481.87 52.28
4 4 9 5.88 14.39
4 4 9 5.73 13.51
4 4 10 247.03 36.97
4 4 10 295.35 38.18
4 4 11 76.16 24.69
4 4 11 59.65 21.06
4 5 -8 137.75 24.74
4 5 -8 97.33 22.46
4 5 -8 138.72 24.91
4 5 -8 124.73 23.77
4 5 -7 30.19 14.28
4 5 -7 25.12 15.93
4 5 -7 33.06 15.21
4 5 -7 2.64 14.13
4 5 -7 24.09 13.87
4 5 -7 4.89 14.07
4 5 -6 97.08 21.55
4 5 -6 106.49 22.38
4 5 -6 109.33 21.48
4 5 -6 107.77 22.56
4 5 -5 12.16 13.62
4 5 -5 12.62 12.86
4 5 -5 33.88 14.65
4 5 -5 12.92 13.17
4 5 -4 234.08 31.72
4 5 -4 298.54 34.92
4 5 -4 257.86 33.53
4 5 -4 260.71 34.03
4 5 -3 48.24 15.92
4 5 -3 43.12 14.32
4 5 -3 47.98 18.58
4 5 -3 41.86 15.11
4 5 -3 63.1 16.01
4 5 -3 49.23 15.46
4 5 -2 155.25 25.78
4 5 -2 155.77 24.9
4 5 -2 191.11 29.14
4 5 -2 143.1 23.96
4 5 -2 147.33 24.53
4 5 -1 129.14 23.17
4 5 -1 136.85 22.74
4 5 -1 113.14 24.98
4 5 -1 116.35 21.87
4 5 -1 148.99 23.15
4 5 0 117.92 21.25
4 5 0 142.2 24.6
4 5 0 96.2 20.41
4 5 0 133.33 27.25
4 5 0 125.68 21.8
4 5 0 122.97 20.99
4 5 1 341.77 34.78
4 5 1 288.23 34.8
4 5 1 289.41 39.07
4 5 1 240.44 34.66
4 5 1 265.51 32.8
4 5 1 232.39 30.69
4 5 2 170.79 22.02
4 5 2 69.52 20.39
4 5 2 151.9 24.65
4 5 2 122.27 25.68
4 5 2 72.99 17.95
4 5 3 282.89 32.36
4 5 3 299.96 40.47
4 5 3 222.87 33.89
4 5 3 286.57 36.2
4 5 4 7.42 14.42
4 5 4 13.39 10.53
4 5 4 3.56 15.73
4 5 4 5.66 11.94
4 5 4 14.55 15.28
4 5 5 259.29 39.81
4 5 5 339.75 35.01
4 5 5 257.72 40.04
4 5 5 240.14 36
4 5 6 -3.76 15.46
4 5 6 2.37 10.93
4 5 6 10.67 16.07
4 5 6 9.22 14.48
4 5 7 573.38 64.94
4 5 7 650.14 62.74
4 5 7 672.7 59.58
4 5 7 549.65 61.86
4 5 7 513.09 61.87
4 5 7 555.42 60.53
4 5 8 118.67 25.95
4 5 8 101.13 26.29
4 5 8 106.99 23.39
4 5 9 158.64 29.22
4 5 9 181.01 30.53
4 5 9 174.13 32.47
4 5 9 189.94 30.48
4 5 10 61.27 21.26
4 5 10 53.64 20.17
4 6 -6 39.22 18.58
4 6 -6 25.67 15.47
4 6 -5 91.67 21.39
4 6 -5 60.37 19.2
4 6 -5 99.52 21.47
4 6 -4 47.14 16.94
4 6 -4 31.75 15.14
4 6 -4 29.24 16.05
4 6 -3 65.22 18.39
4 6 -3 93.82 23.4
4 6 -3 54.46 17.72
4 6 -3 80.76 20.76
4 6 -2 133.49 25.22
4 6 -2 170.27 28.6
4 6 -2 143.94 25.18
4 6 -2 129.3 23.85
4 6 -1 80.09 22.29
4 6 -1 52.29 17.45
4 6 -1 101.61 23.85
4 6 -1 65.57 17.86
4 6 -1 59.34 17.99
4 6 0 212.37 34.21
4 6 0 257.56 33.8
4 6 0 313 40.26
4 6 0 208.81 30.77
4 6 0 252.02 32.08
4 6 1 3.52 15.19
4 6 1 13.83 16.93
4 6 1 22 13.83
4 6 1 4.59 11.66
4 6 2 372.61 44.09
4 6 2 243.11 40.61
4 6 2 269.93 34.45
4 6 3 7.55 16.7
4 6 3 26 19.18
4 6 3 3.02 13.64
4 6 4 190.68 35.67
4 6 4 279.02 38.87
4 6 4 148.4 29.48
4 6 4 225.26 32.8
4 6 5 88.5 25.52
4 6 5 51.79 21.68
4 6 5 49.21 22.42
4 6 5 55.09 20.5
4 6 6 298.69 41.96
4 6 6 313.77 42.35
4 6 6 253.54 39.61
4 6 6 216.12 35.64
4 6 7 11.52 17.46
4 6 7 44.39 20.57
4 6 7 30.75 16.85
4 6 8 97.85 25.54
4 6 8 87.13 27.29
4 6 8 95.3 24.37
4 6 9 136.34 30.15
4 6 9 231.03 37.41
4 6 9 150.86 30.19
4 7 -3 102.87 24.91
4 7 -3 100.99 21.85
4 7 -3 110.52 24.15
4 7 -2 30.31 19.68
4 7 -2 29.83 15.9
4 7 -2 29.39 15.26
4 7 -1 249.41 37.35
4 7 -1 199.79 31.36
4 7 -1 230.05 31.72
4 7 0 53.26 19.26
4 7 0 125.71 23.25
4 7 0 109.26 26.18
4 7 0 126.23 27.62
4 7 1 76.28 20.56
4 7 1 77.33 19.46
4 7 1 112.89 27.07
4 7 1 97.6 25.62
4 7 2 -10.39 14.07
4 7 2 3.87 19.31
4 7 2 -15.25 20.01
4 7 3 146.85 32.02
4 7 3 142.61 31.53
4 7 4 108.88 26.99
4 7 4 52.94 24.56
4 7 4 151.53 32.36
4 7 5 145.97 32.06
4 7 5 113.95 30.44
4 7 5 165.01 33.78
4 7 6 104.96 27.96
4 7 6 130.29 30.4
4 7 6 146.54 31.53
4 7 7 30.37 21.74
4 8 1 5.34 13.55
4 8 2 75.31 21.11
5 -4 -3 -3.27 16.61
5 -4 -2 146.16 28.89
5 -4 -2 149.33 29.87
5 -4 -2 155.37 30.6
5 -4 -2 187.37 32.39
5 -4 -2 166.88 30.75
5 -4 -2 141.6 29
5 -4 -2 102.07 26.7
5 -4 -2 93.33 26.48
5 -4 -1 -7.49 18.67
5 -4 -1 3.5 16.15
5 -4 -1 7.04 15.9
5 -4 -1 10.56 16.91
5 -4 -1 -3.49 17.11
5 -4 -1 21 18.36
5 -4 -1 14.8 20.92
5 -4 -1 31.49 19.78
5 -4 0 45.84 21.05
5 -4 0 72.32 22.65
5 -4 0 61.63 21.82
5 -4 0 90.55 23.12
5 -4 0 106.65 25.05
5 -4 0 75.35 22.53
5 -4 0 49.07 23.12
5 -4 0 89.21 24.6
5 -4 1 3.86 17.56
5 -4 1 60.5 20.61
5 -4 1 3.34 16.47
5 -4 1 6.79 16.12
5 -4 1 40.34 17.73
5 -4 1 30.12 17.93
5 -4 1 65.03 22.87
5 -4 1 57.87 22.16
5 -4 2 -11.6 20.61
5 -4 2 -3.84 20.48
5 -4 2 16.5 15.56
5 -4 2 13.08 15.72
5 -4 2 19.55 17.91
5 -4 2 39.87 19.92
5 -4 2 9.76 15.35
5 -4 2 13.09 17.18
5 -3 -5 63.38 21.37
5 -3 -5 109.52 24.87
5 -3 -5 79.83 21.76
5 -3 -5 53.8 19.57
5 -3 -5 66.43 21.2
5 -3 -5 70.08 22.93
5 -3 -5 107.08 23.84
5 -3 -4 10.12 15.56
5 -3 -4 -3.38 14.58
5 -3 -4 3.16 14.26
5 -3 -4 -3.36 15.17
5 -3 -4 3.36 15.52
5 -3 -4 10.04 17.27
5 -3 -4 16.75 16.99
5 -3 -4 -6.01 14.7
5 -3 -4 -6.39 15.33
5 -3 -3 114.73 25.05
5 -3 -3 73.95 23.51
5 -3 -3 121.66 24.75
5 -3 -3 100.86 25.36
5 -3 -3 134.05 26.63
5 -3 -3 121.22 25.4
5 -3 -3 80.47 23.24
5 -3 -3 69.24 22.36
5 -3 -3 72.93 22.79
5 -3 -2 3.34 15.07
5 -3 -2 -3.36 15.83
5 -3 -2 10.03 17.82
5 -3 -2 6.74 14.88
5 -3 -2 6.71 15.49
5 -3 -2 -3.35 16.99
5 -3 -2 -9.8 16.85
5 -3 -2 -3.45 16.58
5 -3 -1 100.68 24.29
5 -3 -1 122.33 26.75
5 -3 -1 132.99 26.33
5 -3 -1 103.26 24.44
5 -3 -1 116.08 24.35
5 -3 -1 139.12 26.98
5 -3 -1 94.97 24.64
5 -3 -1 75 23.51
5 -3 0 40.28 20.04
5 -3 0 35.56 18.08
5 -3 0 86.87 22.12
5 -3 0 74.31 20.25
5 -3 0 57.77 20.57
5 -3 0 61.12 20.39
5 -3 0 65.77 22.11
5 -3 0 79.35 19.08
5 -3 1 85.73 25.58
5 -3 1 134.68 25.65
5 -3 1 115.29 24.33
5 -3 1 95.03 23.76
5 -3 1 109.07 24.85
5 -3 1 108.92 27.06
5 -3 1 156.54 27.76
5 -3 1 108.8 25.48
5 -3 1 137.08 24.56
5 -3 2 113.49 27.55
5 -3 2 125.61 23.13
5 -3 2 102.29 24.78
5 -3 3 39.84 17.09
5 -3 3 15.08 18.91
5 -3 3 36.06 15.67
5 -3 3 17.56 18.53
5 -3 4 91.73 20.31
5 -3 4 48.39 21.9
5 -3 4 85.72 20.35
5 -3 4 37.87 20.6
5 -3 5 21.89 16.11
5 -3 5 18.24 19.45
5 -3 5 -3.35 15.81
5 -3 5 10.5 14.01
5 -3 6 171.03 27.67
5 -2 -6 47.63 16.87
5 -2 -6 22.34 17.69
5 -2 -6 14.41 14.56
5 -2 -6 58.74 19.47
5 -2 -6 36.87 18
5 -2 -6 27.63 16.02
5 -2 -6 37.13 18.13
5 -2 -6 18.62 15.93
5 -2 -6 46.93 18.48
5 -2 -5 3.23 13.92
5 -2 -5 2.9 13.11
5 -2 -5 6.23 13.11
5 -2 -5 -3.1 14.29
5 -2 -5 12.38 17
5 -2 -5 17.94 15.68
5 -2 -5 -12.47 14.68
5 -2 -5 -6.25 13.49
5 -2 -4 276.46 37.79
5 -2 -4 236.07 36.19
5 -2 -4 327.31 38.29
5 -2 -4 352.12 39.95
5 -2 -4 161.08 33.06
5 -2 -4 308.36 39.2
5 -2 -4 303.17 38.89
5 -2 -4 271.96 37.66
5 -2 -4 245.58 35.1
5 -2 -3 126.11 26.17
5 -2 -3 120.2 25.73
5 -2 -3 158.38 26.85
5 -2 -3 151.21 27.31
5 -2 -3 98.73 24.35
5 -2 -3 153.61 27.51
5 -2 -3 159.86 27.82
5 -2 -3 137.87 26.35
5 -2 -3 131.75 25.95
5 -2 -2 52.09 17.26
5 -2 -2 42.96 17.52
5 -2 -2 53.47 19.36
5 -2 -2 35.42 16.53
5 -2 -2 6.3 15.33
5 -2 -2 59.55 21.02
5 -2 -2 15.8 15.38
5 -2 -2 28.23 16.64
5 -2 -1 66.83 20.48
5 -2 -1 102.21 23.51
5 -2 -1 40.18 19.5
5 -2 -1 115.15 22.88
5 -2 -1 117.92 24.44
5 -2 -1 101.84 23.97
5 -2 -1 95.77 22.72
5 -2 0 77.71 20.27
5 -2 0 24.59 15.79
5 -2 0 59.76 16.68
5 -2 0 63.12 19.38
5 -2 0 44.82 19.06
5 -2 0 34.56 18.53
5 -2 0 59.88 18.68
5 -2 0 63.2 18.77
5 -2 0 49.38 19
5 -2 1 134.49 26.34
5 -2 1 185.35 24.93
5 -2 2 10.2 15.72
5 -2 2 21.9 12.37
5 -2 2 -3.62 16.01
5 -2 3 133.12 29.39
5 -2 3 240.02 29.15
5 -2 3 221.57 28.28
5 -2 3 124.8 28.55
5 -2 4 3.35 15.76
5 -2 4 -2.49 11.97
5 -2 4 -14.6 18.52
5 -2 5 110.93 26.01
5 -2 5 97.36 24.56
5 -2 5 131.28 23.75
5 -2 6 23.21 14.06
5 -2 7 210.51 36.11
5 -2 7 292.22 35.96
5 -2 8 21.95 15.59
5 -1 -7 67.16 19.91
5 -1 -7 67.39 20.54
5 -1 -7 57.89 19.18
5 -1 -7 75.2 20.65
5 -1 -7 94.82 20.98
5 -1 -7 74.73 18.94
5 -1 -7 86.4 20.63
5 -1 -7 36.44 17.21
5 -1 -6 8.72 13.16
5 -1 -6 14.59 14.82
5 -1 -6 5.77 12.77
5 -1 -6 2.88 13.6
5 -1 -6 12.01 13.6
5 -1 -6 5.49 12.16
5 -1 -6 8.39 12.93
5 -1 -6 31.78 16.18
5 -1 -5 46.47 17.92
5 -1 -5 61.17 18.98
5 -1 -5 60.53 18.99
5 -1 -5 63.45 19.39
5 -1 -5 86.9 20.64
5 -1 -5 61.59 18.26
5 -1 -5 59.66 17.45
5 -1 -5 64.73 17.85
5 -1 -4 192.5 30.76
5 -1 -4 178.02 30.68
5 -1 -4 229.6 32.29
5 -1 -4 248.55 33.82
5 -1 -4 247.57 34.26
5 -1 -4 259.67 34.85
5 -1 -4 312.51 36.82
5 -1 -4 266.07 35.36
5 -1 -4 258.71 33.58
5 -1 -3 27.31 14.87
5 -1 -3 -5.7 15.49
5 -1 -3 36.86 14.76
5 -1 -3 17.6 14.71
5 -1 -3 37.09 15.75
5 -1 -3 26.86 13.72
5 -1 -3 32.03 16.31
5 -1 -3 34.98 16.09
5 -1 -3 11.74 13.36
5 -1 -3 35.33 14.5
5 -1 -2 142.85 25.64
5 -1 -2 178.43 26.86
5 -1 -2 136.08 24.61
5 -1 -2 134.05 24.88
5 -1 -2 112.92 23.83
5 -1 -2 110.68 23.29
5 -1 -2 121.94 24.37
5 -1 -2 145 25.52
5 -1 -1 34.28 15.28
5 -1 -1 28.66 15.57
5 -1 -1 35.3 13.85
5 -1 -1 17.08 13.74
5 -1 -1 28.4 15.65
5 -1 -1 -6.19 14.65
5 -1 -1 11.25 12.77
5 -1 -1 5.89 12.79
5 -1 -1 28.56 16.64
5 -1 0 99.73 23.83
5 -1 0 85.34 21
5 -1 0 76.56 20.67
5 -1 0 95.42 18.34
5 -1 1 13.22 10.17
5 -1 1 9.97 15.01
5 -1 1 9.47 14.88
5 -1 1 -4.27 10.27
5 -1 2 584.64 52.6
5 -1 2 402.03 53.83
5 -1 2 423.43 53.67
5 -1 2 611.75 52.28
5 -1 3 58.45 15.57
5 -1 3 55.7 21.32
5 -1 3 42.23 17.97
5 -1 3 44.84 14.28
5 -1 4 220.45 28.12
5 -1 4 116.29 28.66
5 -1 4 161.43 29.5
5 -1 4 267.56 29.38
5 -1 5 135.81 22.22
5 -1 5 62.97 24.65
5 -1 5 120.27 25.38
5 -1 5 133.01 25.58
5 -1 5 122.41 20.67
5 -1 6 96.89 20.48
5 -1 6 82.82 24.13
5 -1 6 127.65 22.28
5 -1 7 75.81 18.66
5 -1 7 53.6 21.58
5 -1 8 17.83 14.08
5 -1 8 26.12 17.74
5 0 -8 82.23 19.5
5 0 -7 96.66 21.99
5 0 -7 115.82 22.86
5 0 -7 122.64 22.39
5 0 -7 97.72 22.82
5 0 -7 86.97 21.66
5 0 -7 111.08 22.5
5 0 -7 83.51 20.37
5 0 -6 21.92 15.27
5 0 -6 10.96 13.66
5 0 -6 -4.62 11.92
5 0 -6 -2.77 13.3
5 0 -6 -2.7 11.92
5 0 -6 7.69 13.87
5 0 -6 -2.78 13.62
5 0 -5 197.6 28.93
5 0 -5 205.74 29.19
5 0 -5 197.41 29.17
5 0 -5 128.93 24.99
5 0 -5 123 25.68
5 0 -5 216.79 30.12
5 0 -5 183.03 28.44
5 0 -4 65.07 19.39
5 0 -4 88.3 19.65
5 0 -4 64.22 17.96
5 0 -4 61.13 17.8
5 0 -4 80.99 18.15
5 0 -4 91.88 20.47
5 0 -4 106.61 19.95
5 0 -4 55.47 17.04
5 0 -4 64.48 17.87
5 0 -3 110.28 21.73
5 0 -3 134 22.69
5 0 -3 97.67 21.04
5 0 -3 155.4 24.29
5 0 -3 101.04 21.07
5 0 -3 98.43 20.78
5 0 -3 86.96 19.81
5 0 -3 81.87 19.52
5 0 -2 -2.67 12.06
5 0 -2 13.31 14.18
5 0 -2 5.23 13.03
5 0 -2 -12.75 12.71
5 0 -2 7.93 12.69
5 0 -2 -7.92 13.39
5 0 -2 -2.66 12.54
5 0 -2 5.38 11.88
5 0 -1 444.77 42.27
5 0 -1 278.84 37.96
5 0 -1 274.01 36.9
5 0 -1 252.96 37.82
5 0 -1 415.92 39.57
5 0 0 96 20.06
5 0 0 84.07 18.83
5 0 0 59.92 18.33
5 0 0 82.05 20.32
5 0 0 101.12 18.05
5 0 1 277.25 36.94
5 0 1 293.74 39.51
5 0 1 298.88 39.95
5 0 2 18.13 14.72
5 0 2 6.34 13.9
5 0 3 52.15 19.23
5 0 3 61.39 19.96
5 0 3 105.97 18.85
5 0 4 187.19 30.81
5 0 4 169.61 31.02
5 0 4 234.71 31.24
5 0 4 262.46 30.36
5 0 5 118.48 25.1
5 0 5 140.7 24.59
5 0 5 145.15 22.72
5 0 5 120.96 25.47
5 0 6 249.5 33.78
5 0 6 228.02 30.16
5 0 6 190.81 33.36
5 0 7 26.83 16.62
5 0 7 -2.53 12.85
5 0 8 166.26 28.97
5 0 8 170.13 27.11
5 0 9 6.58 17
5 0 9 19.59 15.17
5 1 -8 79.68 19.52
5 1 -8 76.22 20.03
5 1 -8 112.94 22.54
5 1 -8 67.03 19.1
5 1 -8 95.7 21.54
5 1 -7 -10.61 14.58
5 1 -7 7.36 13.07
5 1 -7 10.74 13.39
5 1 -7 15.92 14.79
5 1 -7 7.94 14.1
5 1 -7 10.8 13.7
5 1 -6 154.86 25.78
5 1 -6 104.19 23.31
5 1 -6 169.42 27.23
5 1 -6 158.55 26.61
5 1 -6 193.58 27.61
5 1 -6 226.74 29.33
5 1 -5 10.41 12.26
5 1 -5 -5.17 12.66
5 1 -5 14.92 13.05
5 1 -5 5.18 11.45
5 1 -5 15.37 12.54
5 1 -5 -5.12 11.81
5 1 -5 11.33 12.45
5 1 -4 147.76 24.52
5 1 -4 169.87 25.57
5 1 -4 130.4 23.63
5 1 -4 142.7 24.41
5 1 -4 162.85 24.92
5 1 -4 144.83 23.13
5 1 -4 119.43 23.4
5 1 -4 124.08 23.08
5 1 -3 63.7 18.19
5 1 -3 88.75 18.51
5 1 -3 94.37 19.13
5 1 -3 83.98 18.61
5 1 -2 149.51 24.93
5 1 -2 151.75 24.67
5 1 -2 180.4 25.85
5 1 -2 109.86 21.41
5 1 -1 38.03 14.38
5 1 -1 40.88 14.37
5 1 -1 26.2 13.07
5 1 -1 23.02 13.43
5 1 -1 46.76 15.92
5 1 0 172.27 26.02
5 1 0 146.15 26.51
5 1 0 146.09 25.89
5 1 0 229.28 28.17
5 1 1 123.75 21.79
5 1 1 125.39 24.17
5 1 1 116.21 23.17
5 1 1 187.11 25.49
5 1 2 113.73 22.34
5 1 2 150.11 21.46
5 1 2 133.73 21.77
5 1 3 271.96 36.06
5 1 3 209.4 34.46
5 1 3 279.19 33.57
5 1 3 323.36 34.86
5 1 4 23.32 14.7
5 1 4 27.89 15.61
5 1 4 28.63 13.48
5 1 4 38.21 13.49
5 1 5 357.15 45.02
5 1 5 340.41 45.21
5 1 5 405.78 44.34
5 1 5 498.68 46.09
5 1 6 6.36 14.37
5 1 6 2.68 13.82
5 1 6 17.72 13.29
5 1 7 256.72 35.9
5 1 7 282.47 34.9
5 1 8 9.09 15.89
5 1 8 -5.54 12.78
5 1 9 137.73 29.39
5 1 9 172 28.13
5 1 10 16.31 15.41
5 2 -8 2.65 12.99
5 2 -8 5.24 15
5 2 -8 -5.2 13.64
5 2 -8 2.67 13.32
5 2 -7 130.51 23.51
5 2 -7 88.6 20.69
5 2 -7 88.77 20.94
5 2 -7 115.94 22.86
5 2 -7 81.88 21.27
5 2 -7 113.05 22.88
5 2 -6 7.72 12.12
5 2 -6 9.94 12.6
5 2 -6 -2.55 12.24
5 2 -6 7.55 13.82
5 2 -6 -2.51 13.35
5 2 -6 2.56 12.55
5 2 -5 112.31 22.36
5 2 -5 126.54 23.45
5 2 -5 134.62 23.42
5 2 -5 136.49 24.34
5 2 -5 148.7 23.6
5 2 -5 141.3 24.59
5 2 -5 151.43 24.26
5 2 -4 101.83 20.29
5 2 -4 106.14 21.03
5 2 -4 105.65 20.24
5 2 -4 96.12 20.62
5 2 -3 21.96 13.17
5 2 -3 34.16 13.73
5 2 -3 36.1 16.01
5 2 -3 35.48 13.7
5 2 -3 19.55 12.58
5 2 -2 92.64 19.97
5 2 -2 73.96 18.03
5 2 -2 65.58 17.46
5 2 -2 93.28 18.12
5 2 -2 86.58 18.99
5 2 -1 184.07 27.17
5 2 -1 156.62 27.1
5 2 -1 199.67 28.96
5 2 0 251.27 31.65
5 2 0 212.62 31.49
5 2 0 222.63 31.97
5 2 1 40.16 13.88
5 2 1 48.24 16.07
5 2 1 56.25 17.39
5 2 1 76.5 16.59
5 2 2 356.97 46.3
5 2 2 429.55 48.12
5 2 3 226.32 27.68
5 2 3 154.77 26.41
5 2 3 154.09 27.58
5 2 4 304.45 33.02
5 2 4 307.08 34.33
5 2 4 205.64 32.49
5 2 4 196.85 32.5
5 2 5 21.33 12.93
5 2 5 20.17 12.89
5 2 5 13.98 14.28
5 2 5 35.81 15.99
5 2 6 249.45 31.42
5 2 6 234.52 30.72
5 2 6 169.45 30.48
5 2 7 57.13 18.94
5 2 7 73.31 18.56
5 2 8 125.08 26.37
5 2 8 144.68 25.4
5 2 9 189.37 31.05
5 2 9 209 30.74
5 2 9 140.37 29.62
5 2 10 147.77 26.02
5 2 10 32.84 17.97
5 3 -7 67.03 19.69
5 3 -7 91.88 20.15
5 3 -7 62.03 17.99
5 3 -7 86.78 20.1
5 3 -7 61.76 19.81
5 3 -7 79.85 19.96
5 3 -7 105.7 21.21
5 3 -6 68.45 18.92
5 3 -6 78.67 18.96
5 3 -6 62.42 18.35
5 3 -5 135.97 23.24
5 3 -5 117.01 22.72
5 3 -5 125.19 23
5 3 -5 107.28 22.14
5 3 -4 50.88 16.35
5 3 -4 63.19 17.63
5 3 -4 42.24 15.23
5 3 -4 37.32 14.1
5 3 -3 176.7 29.05
5 3 -3 248.43 30.59
5 3 -3 253.12 31.31
5 3 -3 220.73 30.58
5 3 -3 274.89 31.92
5 3 -2 17.86 12.37
5 3 -2 28.62 13.94
5 3 -2 30.62 13.92
5 3 -2 14.53 13.01
5 3 -1 146.12 25.45
5 3 -1 143.59 24.44
5 3 -1 183.22 27.33
5 3 -1 166.46 25.14
5 3 0 -5.33 10.66
5 3 0 2.57 11.85
5 3 0 13.04 12.29
5 3 0 9.3 12
5 3 1 310.89 41.19
5 3 1 455.36 44.26
5 3 1 373.31 40.42
5 3 1 349.85 42.13
5 3 2 68.81 18.83
5 3 2 63.12 17.68
5 3 2 98.49 19.42
5 3 3 175.54 30.39
5 3 3 226.56 32.42
5 3 4 -11.09 15.23
5 3 4 -2.91 13.15
5 3 4 10.2 12.93
5 3 5 74.13 20.69
5 3 5 101.32 23.2
5 3 6 296.02 35.63
5 3 6 365.99 38.14
5 3 7 168.84 27.9
5 3 7 198.41 29.78
5 3 8 436.55 44.9
5 3 8 380.25 43.38
5 3 9 16.45 17.27
5 3 9 17.97 15.48
5 3 9 3.03 14.84
5 3 10 36.68 18.14
5 3 10 70.17 23.37
5 4 -6 37.86 16.99
5 4 -6 25 14.73
5 4 -6 37.82 15.41
5 4 -5 2.4 13.39
5 4 -5 7.41 12.31
5 4 -5 -9.85 13.32
5 4 -5 -5.06 13.49
5 4 -4 126.21 23.88
5 4 -4 144.77 25.02
5 4 -4 163.59 25.47
5 4 -4 168.46 25.86
5 4 -3 -7.64 12.69
5 4 -3 2.31 12.49
5 4 -3 -2.35 12.88
5 4 -3 2.49 11.96
5 4 -2 193.59 29.25
5 4 -2 221.29 30.73
5 4 -2 259.06 31
5 4 -2 216.22 30.69
5 4 -1 34.61 15.05
5 4 -1 50.17 15.88
5 4 -1 26.99 15.05
5 4 -1 29.01 13.71
5 4 0 111.35 21.96
5 4 0 111.61 22.66
5 4 0 175.64 26.67
5 4 0 109.35 20.83
5 4 1 38.78 16.81
5 4 1 45.84 16.19
5 4 1 47.21 16.33
5 4 1 41.78 15.02
5 4 2 188.98 30.57
5 4 2 203.43 30.99
5 4 3 157.1 28.29
5 4 3 160.96 28.16
5 4 4 20.12 14.49
5 4 4 23.69 15.43
5 4 4 49.48 16.96
5 4 5 176.71 31.07
5 4 5 281.78 33.17
5 4 6 6.16 14.3
5 4 6 40.32 16.29
5 4 7 221.87 31.81
5 4 8 2.89 13.33
5 4 9 220.09 34.05
5 4 9 265.96 35.59
5 5 -5 97.28 22.12
5 5 -5 116.11 22.67
5 5 -5 109.12 22.46
5 5 -4 2.57 13.49
5 5 -4 -10.3 14.95
5 5 -4 9.99 13.1
5 5 -3 216.95 33.57
5 5 -3 211.24 29.7
5 5 -3 173.36 27.2
5 5 -3 163.38 27.39
5 5 -3 174.21 27.39
5 5 -2 143.53 29
5 5 -2 121.98 24.3
5 5 -2 126.32 23.27
5 5 -2 120.87 23.23
5 5 -2 145.61 24.4
5 5 -1 92.55 27.28
5 5 -1 113.52 23.81
5 5 -1 128.83 23.29
5 5 -1 127.2 22.53
5 5 0 90.51 22.54
5 5 0 122.82 23.59
5 5 0 150.95 32.32
5 5 0 155.1 25.8
5 5 0 112.82 22.2
5 5 1 51.83 17.59
5 5 1 27.63 15.65
5 5 1 33.86 21.15
5 5 1 39.69 15.01
5 5 1 36.05 14.41
5 5 2 129.48 30.93
5 5 2 146.57 26.48
5 5 2 134.25 25.8
5 5 2 216.87 28.02
5 5 3 20.4 20.36
5 5 3 20.92 15.19
5 5 3 -2.95 14.48
5 5 3 20.8 14.52
5 5 4 177.34 36.59
5 5 4 195.23 30.99
5 5 4 158.29 29.29
5 5 4 194.59 29.1
5 5 5 -12.92 19.87
5 5 5 -3.13 14.15
5 5 5 7.91 12.66
5 5 6 348.81 51.34
5 5 6 317.35 43.77
5 5 6 349.07 53.33
5 5 6 424.54 44.71
5 5 7 31.91 20.59
5 5 7 -5.51 13.49
5 5 8 158.96 31.57
5 5 8 96.32 31.19
5 5 8 150.92 26.37
5 6 -3 33.19 16.14
5 6 -2 23.52 18.8
5 6 -2 19.65 14.83
5 6 -2 15.33 13.73
5 6 -2 41.64 17.42
5 6 -2 24.92 15.14
5 6 -1 88.08 25.96
5 6 -1 54.56 18.61
5 6 -1 71.61 19.34
5 6 -1 61.78 18.49
5 6 0 11.75 14.9
5 6 0 13.74 13.95
5 6 0 11.08 19.06
5 6 0 -7.41 18.46
5 6 0 -2.54 13.54
5 6 1 269.8 36.72
5 6 1 276.89 35.89
5 6 1 273.75 42.15
5 6 1 267.75 41.21
5 6 1 244.67 33.41
5 6 2 -16.04 21.03
5 6 2 -3.06 14.43
5 6 2 2.95 14.18
5 6 2 4.16 17.52
5 6 3 145.49 31.87
5 6 3 100.02 24.19
5 6 3 88.57 23.35
5 6 3 122.04 30.41
5 6 4 21.39 21.7
5 6 4 -3.16 14.58
5 6 4 -6.29 15.11
5 6 4 4.53 21.33
5 6 5 205.53 38.44
5 6 5 197.95 32.9
5 6 5 195.78 39.65
5 6 6 97.14 30
5 6 6 85.31 28.85
5 6 6 66.62 22.54
6 -1 -3 19.44 16.82
6 -1 -2 2.95 16.45
6 -1 -2 8.72 14.22
6 -1 -2 -5.85 14.06
6 -1 -1 72.97 21.72
6 -1 -1 70.77 21.18
6 -1 0 -9.52 16.37
6 -1 0 6.45 15.79
6 -1 1 170.69 30
6 -1 1 104.77 25.58
6 -1 2 -13.54 18.86
6 -1 2 24.59 17.51
6 -1 3 48.17 19.92
6 -1 3 28.79 19.09
6 -1 4 34.85 20.53
6 -1 4 3.65 18.88
6 -1 5 76.48 23.85
6 0 -4 48.7 18.09
6 0 -4 32.69 16.51
6 0 -3 13.62 15.17
6 0 -3 -7.74 14.38
6 0 -3 -5.27 12.4
6 0 -3 -2.57 12.81
6 0 -2 54.5 17.85
6 0 -2 68.92 19.59
6 0 -2 56.79 19.07
6 0 -1 15.47 14.19
6 0 -1 2.89 14.17
6 0 -1 19.89 16.52
6 0 0 219.79 29.48
6 0 0 141.14 27.35
6 0 0 172.43 29.36
6 0 1 67.66 18.48
6 0 1 24.84 17.18
6 0 1 55.95 19.31
6 0 2 84.9 20.44
6 0 2 73.98 23.33
6 0 2 61.57 21.43
6 0 3 92.87 23.86
6 0 3 82.52 20.07
6 0 3 87.35 24.76
6 0 4 10.1 16.26
6 0 4 32.72 15.45
6 0 4 24.24 17.64
6 0 5 64.45 21.87
6 0 5 71.68 18.87
6 0 5 35.58 20.84
6 0 6 23.41 14.57
6 0 6 14.45 18.7
6 1 -4 15.68 15.2
6 1 -4 9.65 13.47
6 1 -3 109.02 22.13
6 1 -3 97.95 21.63
6 1 -3 102.42 21.26
6 1 -2 44.33 16.27
6 1 -2 57.43 17.88
6 1 -2 67.31 17.59
6 1 -1 75.86 18.66
6 1 -1 73.07 20.31
6 1 -1 36.44 16.43
6 1 0 52.7 17.26
6 1 0 42.11 15.91
6 1 0 24.5 15.22
6 1 1 55.49 17.13
6 1 1 29.16 18.04
6 1 1 31.23 17.57
6 1 2 99.88 21.16
6 1 2 73.01 20.96
6 1 2 71 21.54
6 1 3 13.13 13.79
6 1 3 3.15 15.42
6 1 3 12.31 15.36
6 1 4 343.48 38.03
6 1 4 361.87 38.57
6 1 4 248.37 37.52
6 1 4 185.62 34.93
6 1 5 21.33 16.17
6 1 5 24.11 15.02
6 1 5 16.27 17.42
6 1 5 33.1 19.79
6 1 6 78.26 21.56
6 1 6 84.48 20.41
6 1 6 30.68 18.74
6 2 -4 53.46 16.35
6 2 -3 22.33 14.64
6 2 -3 27.78 15.99
6 2 -3 57.67 16.18
6 2 -2 49.18 16.42
6 2 -2 70.39 18.52
6 2 -2 50.99 17.32
6 2 -1 48.56 16.71
6 2 -1 68.52 20.4
6 2 -1 77.9 20.02
6 2 -1 68.38 18.94
6 2 0 2.75 15.74
6 2 0 5.5 14.88
6 2 0 -5.28 12.68
6 2 1 191.37 31.02
6 2 1 189.06 30.66
6 2 2 -8.21 14.13
6 2 2 2.88 13.55
6 2 2 -2.84 13.37
6 2 3 172.9 29.5
6 2 3 125.72 26.75
6 2 4 -10.96 15.27
6 2 4 15.03 17.22
6 2 4 5.99 14.11
6 2 5 69.55 19.23
6 2 5 49.16 19.27
6 2 6 118.74 22.69
6 2 6 78.31 22.51
6 2 7 112.82 24.39
6 3 -3 37.41 15.98
6 3 -3 33.22 15.45
6 3 -2 116.23 22
6 3 -2 84.34 20.78
6 3 -2 85.66 20.41
6 3 -1 17.09 15.13
6 3 -1 13.54 14.48
6 3 -1 17.89 15.08
6 3 0 244.22 34.71
6 3 0 271.39 35.98
6 3 0 221.2 32.28
6 3 1 76.33 20.81
6 3 1 73.74 20.01
6 3 1 24.88 15.66
6 3 2 39.44 17.17
6 3 2 25.99 15.82
6 3 2 34.29 15.88
6 3 3 -2.81 16.73
6 3 3 -5.84 13.49
6 3 3 -5.88 16.4
6 3 4 134.96 25.36
6 3 4 85.41 21.11
6 3 4 102.7 23.55
6 3 5 102.53 22.67
6 3 5 92.21 24.11
6 3 6 90.33 23.52
6 4 -2 9.94 13.85
6 4 -2 4.9 12.85
6 4 -1 90.87 20.44
6 4 -1 103.74 23.11
6 4 -1 135.26 23.58
6 4 0 47.62 19.05
6 4 0 39.75 16.22
6 4 0 25.72 17.66
6 4 1 51.52 19.08
6 4 1 38.41 17.2
6 4 1 74.49 21.09
6 4 2 2.91 14.6
6 4 2 31.21 15.66
6 4 2 37.21 17.95
6 4 3 11.76 16.32
6 4 3 26.31 15.99
6 4 3 68.45 19.52
6 4 4 112.78 25.51
6 4 4 111.08 24.32
6 4 4 183.16 28.55
6 4 5 49.16 19.54
6 4 6 153.13 29.16
6 5 4 -3.02 14.53
loop_
_exptl_crystal_face_index_h
_exptl_crystal_face_index_k
_exptl_crystal_face_index_l
_exptl_crystal_face_perp_dist
-1 -1 0 0.2630
-1 -1 1 0.2116
-1 -1 2 0.1872
1 1 -2 0.2167
-2 -1 2 0.1772
2 1 -2 0.2023
-2 -1 1 0.1879
-1 0 2 0.1757
1 0 -2 0.1737
2 1 -1 0.2068
-2 -1 -1 0.2318
1 0 -1 0.1893
2 1 1 0.2725
2 0 -1 0.2100
-2 0 1 0.1855
0 -1 -2 0.2777
-1 -1 -2 0.3132
-1 0 0 0.2093
-2 1 2 0.1988
0 1 2 0.3262
1 0 0 0.2361
2 -1 -2 0.1786
2 -2 -1 0.2211
-1 0 -1 0.2344
-2 1 -1 0.2386
-1 1 0 0.2428
-1 2 1 0.2395
2 -1 1 0.2464
1 0 1 0.2752
1 -2 -1 0.2313
-2 2 -1 0.2516
2 -2 1 0.2370
0 -2 -1 0.2902
-1 1 -1 0.2562
0 2 1 0.3112
1 -2 2 0.2409
-1 0 -2 0.2380
-1 1 -2 0.2517
1 0 2 0.2889
0 -2 1 0.2357
0 2 -1 0.2289
0 1 -1 0.2026
0 -1 1 0.2092
0 -1 2 0.2028
0 1 -2 0.1919
0 0 1 0.2065
0 0 -1 0.2145
loop_
_geom_angle_atom_site_label_1
_geom_angle_atom_site_label_2
_geom_angle_atom_site_label_3
_geom_angle
_geom_angle_site_symmetry_1
_geom_angle_site_symmetry_3
_geom_angle_publ_flag
C2 C1 Br1 121.61(18) . . ?
C3 C1 Br1 121.00(19) 2_656 . ?
C3 C1 C2 117.4(2) 2_656 . ?
C1 C2 F1 119.7(2) . . ?
C3 C2 F1 118.9(2) . . ?
C3 C2 C1 121.4(2) . . ?
C1 C3 F2 119.4(2) 2_656 . ?
C2 C3 F2 119.3(2) . . ?
C2 C3 C1 121.2(2) . 2_656 ?
C5 N1 C4 117.4(2) . . ?
C5 C4 N1 120.0(2) 2_767 . ?
C6 C4 N1 118.2(2) . . ?
C6 C4 C5 121.7(2) . 2_767 ?
C4 C5 N1 122.6(2) 2_767 . ?
loop_
_geom_bond_atom_site_label_1
_geom_bond_atom_site_label_2
_geom_bond_distance
_geom_bond_site_symmetry_2
_geom_bond_publ_flag
Br1 C1 1.877(2) . ?
F1 C2 1.345(2) . ?
F2 C3 1.347(3) . ?
C1 C2 1.384(3) . ?
C1 C3 1.392(3) 2_656 ?
C2 C3 1.372(3) . ?
N1 C4 1.334(3) . ?
N1 C5 1.332(3) . ?
C4 C5 1.392(3) 2_767 ?
C4 C6 1.500(3) . ?
loop_
_geom_torsion_atom_site_label_1
_geom_torsion_atom_site_label_2
_geom_torsion_atom_site_label_3
_geom_torsion_atom_site_label_4
_geom_torsion
_geom_torsion_site_symmetry_1
_geom_torsion_site_symmetry_2
_geom_torsion_site_symmetry_3
_geom_torsion_site_symmetry_4
_geom_torsion_publ_flag
Br1 C1 C2 F1 0.5(2) . . . . ?
Br1 C1 C2 C3 -179.09(18) . . . . ?
Br1 C1 C3 F2 -1.0(2) . . 2_656 2_656 ?
Br1 C1 C3 C2 179.10(18) . . 2_656 2_656 ?
F1 C2 C1 C3 179.8(2) . . . 2_656 ?
F1 C2 C3 F2 0.0(2) . . . . ?
F1 C2 C3 C1 -179.8(2) . . . 2_656 ?
F2 C3 C1 C2 -179.7(2) . . 2_656 2_656 ?
F2 C3 C2 C1 179.6(2) . . . . ?
C1 C2 C3 C1 -0.2(2) . . . 2_656 ?
C1 C3 C2 C1 -0.2(2) 2_656 . . . ?
N1 C4 C5 N1 0.0(2) . . 2_767 2_767 ?
N1 C5 C4 N1 -0.0(2) . . 2_767 2_767 ?
N1 C5 C4 C6 179.9(2) . . 2_767 2_767 ?
loop_
_exptl_oxdiff_crystal_face_indexfrac_h
_exptl_oxdiff_crystal_face_indexfrac_k
_exptl_oxdiff_crystal_face_indexfrac_l
_exptl_oxdiff_crystal_face_x
_exptl_oxdiff_crystal_face_y
_exptl_oxdiff_crystal_face_z
-1.0000 -1.0000 -0.0000 0.0215 0.1078 0.1297
-1.0000 -1.0000 1.0000 0.0387 0.1602 0.0946
-1.0000 -1.0000 2.0000 0.0558 0.2127 0.0596
1.0000 1.0000 -2.0000 -0.0558 -0.2127 -0.0596
-2.0000 -1.0000 2.0000 -0.0223 0.3105 0.1441
2.0000 1.0000 -2.0000 0.0223 -0.3105 -0.1441
-2.0000 -1.0000 1.0000 -0.0394 0.2580 0.1791
-1.0000 0.0000 2.0000 -0.0438 0.2027 0.0145
1.0000 -0.0000 -2.0000 0.0438 -0.2027 -0.0145
2.0000 1.0000 -1.0000 0.0394 -0.2580 -0.1791
-2.0000 -1.0000 -1.0000 -0.0738 0.1531 0.2492
1.0000 -0.0000 -1.0000 0.0610 -0.1502 -0.0495
2.0000 1.0000 1.0000 0.0738 -0.1531 -0.2492
2.0000 -0.0000 -1.0000 0.1391 -0.2480 -0.1340
-2.0000 0.0000 1.0000 -0.1391 0.2480 0.1340
-0.0000 -1.0000 -2.0000 0.0653 -0.0950 0.1152
-1.0000 -1.0000 -2.0000 -0.0128 0.0028 0.1997
-1.0000 0.0000 0.0000 -0.0781 0.0978 0.0845
-2.0000 1.0000 2.0000 -0.2216 0.2905 0.0538
0.0000 1.0000 2.0000 -0.0653 0.0950 -0.1152
1.0000 -0.0000 -0.0000 0.0781 -0.0978 -0.0845
2.0000 -1.0000 -2.0000 0.2216 -0.2905 -0.0538
2.0000 -2.0000 -1.0000 0.3384 -0.2281 -0.0437
-1.0000 -0.0000 -1.0000 -0.0953 0.0453 0.1195
-2.0000 1.0000 -1.0000 -0.2731 0.1331 0.1589
-1.0000 1.0000 0.0000 -0.1778 0.0878 0.0394
-1.0000 2.0000 1.0000 -0.2602 0.1303 -0.0408
2.0000 -1.0000 1.0000 0.2731 -0.1331 -0.1589
1.0000 0.0000 1.0000 0.0953 -0.0453 -0.1195
1.0000 -2.0000 -1.0000 0.2602 -0.1303 0.0408
-2.0000 2.0000 -1.0000 -0.3727 0.1232 0.1138
2.0000 -2.0000 1.0000 0.3727 -0.1232 -0.1138
0.0000 -2.0000 -1.0000 0.1821 -0.0325 0.1253
-1.0000 1.0000 -1.0000 -0.1949 0.0354 0.0744
-0.0000 2.0000 1.0000 -0.1821 0.0325 -0.1253
1.0000 -2.0000 2.0000 0.3117 0.0271 -0.0643
-1.0000 -0.0000 -2.0000 -0.1125 -0.0071 0.1546
-1.0000 1.0000 -2.0000 -0.2121 -0.0171 0.1094
1.0000 0.0000 2.0000 0.1125 0.0071 -0.1546
0.0000 -2.0000 1.0000 0.2165 0.0724 0.0553
-0.0000 2.0000 -1.0000 -0.2165 -0.0724 -0.0553
-0.0000 1.0000 -1.0000 -0.1168 -0.0624 -0.0101
0.0000 -1.0000 1.0000 0.1168 0.0624 0.0101
0.0000 -1.0000 2.0000 0.1340 0.1149 -0.0249
-0.0000 1.0000 -2.0000 -0.1340 -0.1149 0.0249
0.0000 0.0000 1.0000 0.0172 0.0525 -0.0350
-0.0000 -0.0000 -1.0000 -0.0172 -0.0525 0.0350
