#------------------------------------------------------------------------------
#$Date: 2021-10-06 18:00:11 +0300 (Wed, 06 Oct 2021) $
#$Revision: 269695 $
#$URL: file:///home/coder/svn-repositories/cod/cif/7/24/33/7243331.cif $
#------------------------------------------------------------------------------
#
# This file is available in the Crystallography Open Database (COD),
# http://www.crystallography.net/
#
# All data on this site have been placed in the public domain by the
# contributors.
#
data_7243331
loop_
_publ_author_name
'Peloquin, Andrew J.'
'McMillen, Colin D.'
'Pennington, William T.'
_publ_section_title
;
 One dimensional halogen bond design: Br&#x22EF;N versus I&#x22EF;N with
 fluoroarenes
;
_journal_issue                   35
_journal_name_full               CrystEngComm
_journal_page_first              6098
_journal_page_last               6106
_journal_paper_doi               10.1039/D1CE00864A
_journal_volume                  23
_journal_year                    2021
_chemical_formula_moiety         'Br2 C6 F4, C10 H8 N2'
_chemical_formula_sum            'C16 H8 Br2 F4 N2'
_chemical_formula_weight         464.056
_space_group_crystal_system      triclinic
_space_group_IT_number           2
_space_group_name_Hall           '-P 1'
_space_group_name_H-M_alt        'P -1'
_symmetry_Int_Tables_number      2
_audit_creation_date             2021-05-25
_audit_creation_method
;
Olex2 1.3
(compiled 2020.11.12 svn.r5f609507 for OlexSys, GUI svn.r6272)
;
_audit_update_record
;
2021-06-27 deposited with the CCDC.	2021-08-02 downloaded from the CCDC.
;
_cell_angle_alpha                108.019(5)
_cell_angle_beta                 97.023(5)
_cell_angle_gamma                109.558(4)
_cell_formula_units_Z            1
_cell_length_a                   6.8925(9)
_cell_length_b                   7.6625(10)
_cell_length_c                   8.6230(12)
_cell_measurement_reflns_used    7885
_cell_measurement_temperature    99.99
_cell_measurement_theta_max      28.401
_cell_measurement_theta_min      3.042
_cell_volume                     394.92(9)
_computing_cell_refinement       'Bruker SAINT'
_computing_data_collection       'Bruker APEX3'
_computing_data_reduction        'Bruker SAINT'
_computing_molecular_graphics    'Olex2 1.3 (Dolomanov et al., 2009)'
_computing_publication_material  'Olex2 1.3 (Dolomanov et al., 2009)'
_computing_structure_refinement  'SHELXL-2016/6 (Sheldrick, 2016)'
_computing_structure_solution    'SHELXT 2014/5 (Sheldrick, 2014)'
_diffrn_ambient_temperature      99.99
_diffrn_measured_fraction_theta_full 0.9979
_diffrn_measured_fraction_theta_max 0.9934
_diffrn_measurement_device_type  'D8 Venture definition'
_diffrn_measurement_method       '\f and \w scans'
_diffrn_radiation_type           MoK\a
_diffrn_radiation_wavelength     0.71073
_diffrn_reflns_av_R_equivalents  0.0314
_diffrn_reflns_av_unetI/netI     0.0228
_diffrn_reflns_Laue_measured_fraction_full 0.9979
_diffrn_reflns_Laue_measured_fraction_max 0.9934
_diffrn_reflns_limit_h_max       9
_diffrn_reflns_limit_h_min       -8
_diffrn_reflns_limit_k_max       10
_diffrn_reflns_limit_k_min       -10
_diffrn_reflns_limit_l_max       11
_diffrn_reflns_limit_l_min       -11
_diffrn_reflns_number            9852
_diffrn_reflns_point_group_measured_fraction_full 0.9979
_diffrn_reflns_point_group_measured_fraction_max 0.9934
_diffrn_reflns_theta_full        25.2417
_diffrn_reflns_theta_max         28.40
_diffrn_reflns_theta_min         3.04
_diffrn_source                   'Incoatec I\mS'
_diffrn_source_current           1.0
_diffrn_source_power             0.05
_diffrn_source_voltage           50.0
_exptl_absorpt_coefficient_mu    5.174
_exptl_absorpt_correction_T_max  0.7457
_exptl_absorpt_correction_T_min  0.4946
_exptl_absorpt_correction_type   multi-scan
_exptl_absorpt_process_details
;
SADABS-2014/5 (Bruker,2014/5) was used for absorption correction.
wR2(int) was 0.0861 before and 0.0455 after correction.
The Ratio of minimum to maximum transmission is 0.6633.
The \l/2 correction factor is Not present.
;
_exptl_crystal_colour            colourless
_exptl_crystal_colour_primary    colourless
_exptl_crystal_density_diffrn    1.951
_exptl_crystal_density_meas      ?
_exptl_crystal_density_method    'not measured'
_exptl_crystal_description       tabular
_exptl_crystal_F_000             223.721
_exptl_crystal_size_max          0.304
_exptl_crystal_size_mid          0.114
_exptl_crystal_size_min          0.062
_exptl_transmission_factor_max   'not measured'
_exptl_transmission_factor_min   'not measured'
_refine_diff_density_max         0.5052
_refine_diff_density_min         -0.3582
_refine_diff_density_rms         0.0791
_refine_ls_d_res_high            0.7471
_refine_ls_d_res_low             6.6949
_refine_ls_goodness_of_fit_ref   1.0716
_refine_ls_hydrogen_treatment    constr
_refine_ls_matrix_type           full
_refine_ls_number_constraints    8
_refine_ls_number_parameters     109
_refine_ls_number_reflns         1966
_refine_ls_number_restraints     0
_refine_ls_restrained_S_all      1.0716
_refine_ls_R_factor_all          0.0236
_refine_ls_R_factor_gt           0.0199
_refine_ls_shift/su_max          0.0000
_refine_ls_shift/su_mean         0.0000
_refine_ls_structure_factor_coef Fsqd
_refine_ls_weighting_details
'w=1/[\s^2^(Fo^2^)+(0.0076P)^2^+0.3580P] where P=(Fo^2^+2Fc^2^)/3'
_refine_ls_weighting_scheme      calc
_refine_ls_wR_factor_gt          0.0425
_refine_ls_wR_factor_ref         0.0455
_reflns_Friedel_coverage         0.0
_reflns_limit_h_max              9
_reflns_limit_h_min              -9
_reflns_limit_k_max              9
_reflns_limit_k_min              -10
_reflns_limit_l_max              11
_reflns_limit_l_min              0
_reflns_number_gt                1832
_reflns_number_total             1966
_reflns_threshold_expression     I>=2u(I)
_iucr_refine_instructions_details
;
TITL d8-5160_a.res in P-1
REM Old TITL d8-5160 in P1
REM SHELXT solution in P-1
REM R1 0.069, Rweak 0.007, Alpha 0.049, Orientation as input
REM Formula found by SHELXT: C8 Br F1 N
CELL 0.71073 6.8925 7.6625 8.623 108.019 97.023 109.558
ZERR 1 0.0009 0.001 0.0012 0.005 0.005 0.004
LATT 1
SFAC C H Br F N
UNIT 16 8 2 4 2

L.S. 10
PLAN  20
SIZE 0.062 0.114 0.304
TEMP -173.16
BOND $H
LIST 4
FMAP 2
ACTA 
MORE -1
CONF 
WGHT 0.007632 0.358033
FVAR 1.114844
REM <olex2.extras>
REM <HklSrc "%.\\d8-5160_a.hkl">
REM </olex2.extras>

Br1   3     0.26484  0.48224  0.62148  11.00000  0.02454  0.01888  0.03421 =
 0.00962  0.00843  0.00837 
F2    4     0.20862  0.21502  0.82927  11.00000  0.02748  0.03093  0.01794 =
 0.00572  0.00315  0.01013 
F1    4     0.00595  0.17940  0.27331  11.00000  0.03390  0.03175  0.02657 =
 0.02013  0.01118  0.01621 

N1    5     0.54131  0.91402  0.66949  11.00000  0.01964  0.02436  0.01957 =
 0.01023  0.00594  0.00824 
C4    1     0.55043  1.04373  0.59216  11.00000  0.01237  0.02186  0.01628 =
 0.00677  0.00475  0.00755 

C2    1     0.00337  0.09268  0.38704  11.00000  0.02021  0.02555  0.02294 =
 0.01455  0.00957  0.01252 
C3    1     0.10614  0.11079  0.66653  11.00000  0.01668  0.02370  0.01811 =
 0.00670  0.00472  0.00975 
C1    1     0.11092  0.20691  0.55350  11.00000  0.01788  0.01863  0.02471 =
 0.00894  0.00863  0.00894 

C8    1     0.64826  1.24978  0.67826  11.00000  0.01836  0.02260  0.02161 =
 0.00636  0.00340  0.00768 
AFIX 43
H8    2     0.65192  1.33776  0.62051  11.00000 -1.20000 
AFIX 0
C5    1     0.63403  0.98973  0.83425  11.00000  0.02388  0.03647  0.02096 =
 0.01570  0.00826  0.01222 
AFIX 43
H5    2     0.63041  0.89913  0.88925  11.00000 -1.20000 
AFIX 0
C6    1     0.73520  1.19241  0.92985  11.00000  0.02034  0.04063  0.01546 =
 0.00677  0.00270  0.00980 
AFIX 43
H6    2     0.79916  1.23934  1.04687  11.00000 -1.20000 
AFIX 0
C7    1     0.74030  1.32426  0.84990  11.00000  0.02183  0.02496  0.02162 =
 0.00129  0.00117  0.00609 
AFIX 43
H7    2     0.80608  1.46429  0.91179  11.00000 -1.20000 
AFIX 0
HKLF 4

END
Q1 1 0.5 1 0.5 11 0.05 0.51
Q2 1 0.791667 1.44 0.866667 11 0.05 0.48
Q4 1 0.083333 0.16 0.466667 11 0.05 0.36
Q5 1 -0.083333 0 0.366667 11 0.05 0.33
Q3 1 0.166667 0.16 0.6 11 0.05 0.38

  REM The information below was added by Olex2.
  REM
  REM R1 = 0.0199 for 1832 Fo > 4sig(Fo) and 0.0236 for all 1966 data
  REM 109 parameters refined using 0 restraints
  REM Highest difference peak 0.5052, deepest hole -0.3582
  REM Mean Shift 0.0000, Max Shift 0.0000.

  REM +++ Tabular Listing of Refinement Information +++
  REM R1_all = 0.0236
  REM R1_gt = 0.0199
  REM wR_ref = 0.0455
  REM GOOF = 1.0716
  REM Shift_max = 0.0000
  REM Shift_mean = 0.0000
  REM Reflections_all = 1966
  REM Reflections_gt = 1832
  REM Parameters = 109
  REM Hole = -0.3582
  REM Peak = 0.5052
  REM Flack = n/a
;
_cod_data_source_file            d1ce00864a2.cif
_cod_data_source_block           Br2F4bz_22bipy
_cod_depositor_comments
;
The following automatic conversions were performed:

data item '_exptl_crystal_density_meas' value 'not measured' was
changed to '?' -- the value is perceived as not measured.

Automatic conversion script
Id: cif_fix_values 7556 2019-12-06 15:28:31Z antanas 

 Adding full bibliography for 7243307--7243335.cif.
;
_cod_database_code               7243331
_olex2_refinement_description
;
;
_iucr_refine_fcf_details
;
data_d8-5160_a
_computing_structure_refinement   'SHELXL-2016/6 (Sheldrick, 2016)'
_shelx_refln_list_code            4
loop_
  _space_group_symop_id
  _space_group_symop_operation_xyz
  1  x,y,z
  2  -x,-y,-z

_space_group_crystal_system       triclinic
_space_group_IT_number            2
_space_group_name_H-M_alt         'P -1'
_space_group_name_Hall            '-P 1'
_symmetry_space_group_name_H-M    'P -1'
_symmetry_space_group_name_Hall   '-P 1'
_symmetry_Int_Tables_number       2
_cell_length_a                    6.8925(9)
_cell_length_b                    7.6625(10)
_cell_length_c                    8.6230(12)
_cell_angle_alpha                 108.019(5)
_cell_angle_beta                  97.023(5)
_cell_angle_gamma                 109.558(4)
_cell_volume                      394.92(9)
loop_
  _refln_index_h
  _refln_index_k
  _refln_index_l
  _refln_F_squared_calc
  _refln_F_squared_meas
  _refln_F_squared_sigma
  _refln_F_squared_weight
  _refln_observed_status
-9 2 1 3.723 -0.765 2.116 355.693 o
-9 2 2 27.888 20.590 5.593 47.225 o
-9 2 3 67.410 63.336 4.561 42.709 o
-9 3 1 22.484 19.532 3.342 101.043 o
-9 3 2 2.483 -2.884 2.153 365.207 o
-9 3 3 175.486 159.608 6.209 18.872 o
-9 4 1 81.306 76.375 11.063 12.621 o
-9 4 2 35.022 26.807 6.363 36.643 o
-9 4 3 195.305 206.508 7.109 15.385 o
-9 5 1 10.495 4.985 2.084 256.402 o
-8 -1 1 181.636 175.560 6.826 16.930 o
-8 -1 2 76.385 73.678 5.326 34.261 o
-8 -1 3 40.206 33.889 5.654 41.780 o
-8 -1 4 73.923 63.987 7.560 23.080 o
-8 -1 5 132.941 135.506 4.529 27.488 o
-8 0 1 185.034 179.261 4.809 21.066 o
-8 0 2 171.104 167.271 5.601 20.344 o
-8 0 3 0.477 0.048 1.527 778.657 o
-8 0 4 155.775 142.769 5.211 23.084 o
-8 0 5 183.411 172.047 5.804 19.117 o
-8 0 6 93.982 95.289 4.784 33.374 o
-8 1 1 209.047 204.757 7.515 14.322 o
-8 1 2 181.271 182.013 5.309 20.079 o
-8 1 3 55.078 49.748 3.202 64.714 o
-8 1 4 174.423 173.111 4.866 21.762 o
-8 1 5 198.484 206.385 7.947 13.885 o
-8 1 6 69.142 61.297 8.268 20.657 o
-8 2 1 346.630 360.832 7.446 10.133 o
-8 2 2 124.006 134.330 4.593 28.215 o
-8 2 3 133.654 121.707 4.202 29.344 o
-8 2 4 1.513 0.129 1.881 487.559 o
-8 2 5 319.015 327.513 10.575 8.191 o
-8 2 6 131.156 140.708 6.898 19.738 o
-8 3 1 298.170 318.259 7.146 11.527 o
-8 3 2 108.854 114.897 4.050 33.606 o
-8 3 3 150.765 119.518 6.469 20.476 o
-8 3 4 62.600 58.704 4.222 47.743 o
-8 3 5 100.327 100.289 6.026 26.221 o
-8 3 6 130.320 143.553 8.999 14.655 o
-8 4 1 210.954 215.090 5.609 17.340 o
-8 4 2 596.189 603.655 10.494 5.529 o
-8 4 3 315.924 310.214 7.791 10.674 o
-8 4 4 7.368 4.052 1.627 390.403 o
-8 4 5 134.907 126.113 8.330 16.227 o
-8 5 1 192.803 203.115 6.273 17.069 o
-8 5 2 227.527 237.489 7.052 14.092 o
-8 5 3 50.464 42.545 7.198 27.645 o
-8 5 4 52.370 36.830 3.803 60.637 o
-8 5 5 86.877 93.965 9.090 16.598 o
-8 6 1 136.821 142.410 4.942 25.389 o
-8 6 2 108.410 108.447 6.112 24.842 o
-8 6 3 47.120 45.677 6.714 30.841 o
-8 7 1 42.819 39.249 3.821 64.493 o
-8 7 2 248.246 255.140 7.324 12.988 o
-7 -3 1 69.318 70.687 6.905 26.172 o
-7 -3 2 171.192 175.296 8.092 14.800 o
-7 -3 3 148.805 144.161 9.124 13.912 o
-7 -3 4 22.832 20.964 2.870 117.735 o
-7 -3 5 107.571 93.121 6.933 22.338 o
-7 -3 6 50.124 42.135 5.978 36.116 o
-7 -2 1 31.300 31.821 4.321 63.651 o
-7 -2 2 223.413 223.962 7.597 13.571 o
-7 -2 3 267.032 266.345 8.089 11.564 o
-7 -2 4 103.612 103.206 5.117 29.901 o
-7 -2 5 17.509 14.205 2.397 164.119 o
-7 -2 6 267.145 262.423 11.754 8.045 o
-7 -2 7 171.446 180.314 12.218 8.943 o
-7 -1 1 9.348 4.996 1.922 292.567 o
-7 -1 2 103.220 109.556 4.920 30.515 o
-7 -1 3 203.997 207.681 6.681 15.836 o
-7 -1 4 159.665 161.324 4.882 23.090 o
-7 -1 5 0.658 0.018 1.346 968.160 o
-7 -1 6 346.496 330.829 10.704 7.839 o
-7 -1 7 257.745 262.872 22.806 3.095 o
-7 -1 8 34.061 30.145 4.361 61.977 o
-7 0 1 5.367 1.859 1.166 666.658 o
-7 0 2 605.825 619.612 9.488 5.781 o
-7 0 3 656.789 644.313 9.144 5.581 o
-7 0 4 110.909 111.983 3.043 38.325 o
-7 0 5 0.015 -2.128 1.228 1263.640 o
-7 0 6 3.374 3.083 1.342 641.696 o
-7 0 7 147.670 152.584 7.909 16.277 o
-7 0 8 91.228 87.112 5.365 31.085 o
-7 1 1 0.291 -0.058 0.953 1954.580 o
-7 1 2 103.774 101.811 3.495 38.373 o
-7 1 3 120.505 127.129 4.939 27.588 o
-7 1 4 177.768 184.619 4.194 22.745 o
-7 1 5 1.640 -0.249 1.210 1029.530 o
-7 1 6 198.918 189.941 6.550 16.561 o
-7 1 7 140.803 148.824 6.967 18.884 o
-7 1 8 87.754 98.394 8.418 18.351 o
-7 2 1 34.402 33.430 2.364 106.920 o
-7 2 2 144.003 143.093 4.109 27.456 o
-7 2 3 840.585 842.375 11.743 3.975 o
-7 2 4 243.974 248.691 4.961 16.454 o
-7 2 5 15.842 13.296 2.316 177.713 o
-7 2 6 155.137 147.034 9.457 13.135 o
-7 2 7 276.623 277.020 9.141 10.204 o
-7 2 8 62.950 64.320 6.156 31.384 o
-7 3 1 7.552 7.242 1.311 435.024 o
-7 3 2 236.064 244.372 5.374 16.219 o
-7 3 3 518.422 529.485 8.691 6.860 o
-7 3 4 274.699 274.336 6.662 12.982 o
-7 3 5 12.328 8.461 3.189 135.133 o
-7 3 6 7.777 6.173 2.217 254.169 o
-7 3 7 156.497 145.883 8.290 15.293 o
-7 4 1 57.450 56.935 2.727 67.858 o
-7 4 2 3.440 3.973 1.207 693.685 o
-7 4 3 231.820 244.284 5.754 15.800 o
-7 4 4 421.874 410.227 7.653 8.742 o
-7 4 5 66.624 61.010 5.108 38.554 o
-7 4 6 0.598 -2.826 2.517 294.651 o
-7 4 7 123.908 130.908 11.309 10.972 o
-7 5 1 24.829 22.540 2.350 134.721 o
-7 5 2 37.416 34.307 2.756 92.254 o
-7 5 3 110.425 119.704 4.251 32.106 o
-7 5 4 206.778 219.867 5.870 16.948 o
-7 5 5 37.712 30.943 4.767 53.797 o
-7 5 6 57.241 38.024 12.450 11.014 o
-7 6 1 111.421 119.807 4.313 31.686 o
-7 6 2 114.474 116.969 4.375 31.199 o
-7 6 3 384.195 383.202 7.343 9.550 o
-7 6 4 182.817 173.185 6.436 17.744 o
-7 6 5 39.563 35.500 4.475 56.503 o
-7 7 1 240.857 238.778 6.423 14.619 o
-7 7 2 0.155 -0.092 1.759 609.981 o
-7 7 3 88.306 90.972 3.874 40.277 o
-7 7 4 212.774 209.559 13.100 7.637 o
-7 8 1 57.291 56.938 4.359 48.138 o
-7 8 2 13.599 9.151 2.714 162.987 o
-6 -5 3 134.349 132.210 10.497 12.002 o
-6 -5 4 212.213 217.386 15.025 6.260 o
-6 -5 5 43.645 40.213 4.720 50.778 o
-6 -4 1 248.026 205.671 13.141 7.354 o
-6 -4 2 63.913 59.041 7.061 26.378 o
-6 -4 3 27.103 28.066 3.726 80.415 o
-6 -4 4 186.960 192.989 6.085 17.884 o
-6 -4 5 569.488 561.733 20.581 2.959 o
-6 -4 6 139.537 136.011 7.104 18.882 o
-6 -4 7 26.752 13.356 2.712 124.282 o
-6 -3 1 99.670 103.467 5.181 30.033 o
-6 -3 2 27.883 27.874 3.754 79.161 o
-6 -3 3 91.148 92.901 4.021 38.569 o
-6 -3 4 330.647 345.253 9.409 8.872 o
-6 -3 5 54.245 53.731 4.794 44.908 o
-6 -3 6 19.490 10.616 2.226 175.329 o
-6 -3 7 102.575 90.595 8.383 17.989 o
-6 -3 8 71.431 74.550 8.736 18.614 o
-6 -2 1 529.523 528.597 10.701 5.961 o
-6 -2 2 2.112 1.396 1.333 779.627 o
-6 -2 3 79.570 78.585 5.079 35.008 o
-6 -2 4 262.642 272.884 7.267 12.546 o
-6 -2 5 455.779 460.313 18.429 3.704 o
-6 -2 6 233.588 235.459 8.126 12.473 o
-6 -2 7 6.759 7.206 2.723 192.999 o
-6 -2 8 116.812 122.186 6.908 20.982 o
-6 -2 9 247.199 247.220 9.008 11.023 o
-6 -1 1 507.412 499.414 7.454 7.603 o
-6 -1 2 209.141 217.552 5.911 16.831 o
-6 -1 3 134.707 136.044 4.726 26.597 o
-6 -1 4 417.439 415.852 8.118 8.474 o
-6 -1 5 384.987 385.496 6.004 10.457 o
-6 -1 6 140.185 151.219 5.135 24.142 o
-6 -1 7 3.685 1.961 1.841 423.864 o
-6 -1 8 238.722 244.122 8.894 11.325 o
-6 -1 9 22.429 13.323 3.128 114.004 o
-6 0 1 396.034 399.167 6.671 9.748 o
-6 0 2 541.777 549.673 8.020 6.905 o
-6 0 3 3.357 4.954 1.080 745.986 o
-6 0 4 520.280 527.536 7.035 7.560 o
-6 0 5 388.459 406.139 8.072 8.863 o
-6 0 6 60.748 64.500 3.125 59.320 o
-6 0 7 19.271 10.451 2.135 183.224 o
-6 0 8 91.464 88.450 5.669 29.374 o
-6 0 9 114.622 119.506 5.867 24.849 o
-6 1 1 699.930 709.834 10.027 5.010 o
-6 1 2 280.435 287.073 5.460 14.074 o
-6 1 3 154.835 156.176 4.123 25.801 o
-6 1 4 426.831 441.599 7.490 8.618 o
-6 1 5 545.314 559.137 9.308 6.340 o
-6 1 6 237.461 256.566 6.792 13.948 o
-6 1 7 55.003 61.689 4.539 46.250 o
-6 1 8 114.928 106.425 8.478 16.936 o
-6 1 9 402.114 393.643 12.934 5.975 o
-6 2 1 850.053 876.438 11.688 3.920 o
-6 2 2 42.283 42.712 2.239 94.007 o
-6 2 3 138.850 141.672 3.658 29.570 o
-6 2 4 39.003 39.151 2.510 93.731 o
-6 2 5 516.617 503.343 10.780 6.064 o
-6 2 6 127.706 142.040 11.894 10.053 o
-6 2 7 3.636 -2.189 2.242 323.998 o
-6 2 8 18.337 9.435 3.042 129.245 o
-6 2 9 38.928 43.252 15.726 7.292 o
-6 3 1 1088.000 1116.600 13.473 2.962 o
-6 3 2 2147.790 2184.020 23.442 1.197 o
-6 3 3 72.641 104.437 3.151 47.574 o
-6 3 4 213.995 214.184 5.021 18.268 o
-6 3 5 567.667 602.346 16.836 3.741 o
-6 3 6 425.863 451.086 10.494 6.903 o
-6 3 7 26.813 17.674 3.132 104.054 o
-6 3 8 20.225 10.379 4.908 63.282 o
-6 4 1 575.853 582.469 9.189 6.142 o
-6 4 2 370.212 366.421 7.485 9.739 o
-6 4 3 2.586 2.988 1.027 940.950 o
-6 4 4 186.546 178.289 4.343 22.038 o
-6 4 5 120.692 125.388 5.507 25.469 o
-6 4 6 109.094 111.841 6.650 22.645 o
-6 4 7 1.037 3.104 3.151 181.014 o
-6 5 1 300.199 293.039 6.624 12.265 o
-6 5 2 203.630 212.878 4.997 18.816 o
-6 5 3 202.823 209.292 4.818 19.275 o
-6 5 4 21.400 16.288 2.334 152.491 o
-6 5 5 285.294 290.580 7.866 11.268 o
-6 5 6 266.672 253.272 8.539 11.178 o
-6 5 7 129.831 112.715 8.812 15.523 o
-6 6 1 498.408 504.328 9.211 6.854 o
-6 6 2 633.058 651.039 9.686 5.512 o
-6 6 3 63.742 62.456 2.740 62.784 o
-6 6 4 16.746 11.703 2.539 161.084 o
-6 6 5 268.179 277.738 15.838 5.420 o
-6 6 6 189.476 187.071 13.597 7.502 o
-6 7 1 264.975 256.545 9.122 10.544 o
-6 7 2 276.032 288.784 9.539 9.745 o
-6 7 3 57.184 62.721 4.102 50.026 o
-6 7 4 19.161 11.424 3.333 111.886 o
-6 8 1 219.939 216.611 7.871 13.344 o
-6 8 2 217.444 216.625 6.997 14.748 o
-6 8 3 185.537 190.166 8.161 14.078 o
-5 -6 3 41.325 39.859 8.048 24.017 o
-5 -6 4 0.104 -2.578 2.341 346.696 o
-5 -6 5 230.756 223.496 7.382 13.708 o
-5 -6 6 343.999 342.364 35.660 1.362 o
-5 -5 1 66.865 77.012 9.937 15.376 o
-5 -5 2 446.731 437.897 12.121 6.018 o
-5 -5 3 180.375 177.038 7.782 15.079 o
-5 -5 4 0.152 -1.061 1.300 1106.530 o
-5 -5 5 15.598 8.922 2.587 166.161 o
-5 -5 6 324.552 302.328 11.429 7.636 o
-5 -5 7 140.584 123.440 6.872 19.772 o
-5 -5 8 0.036 -1.720 1.973 489.522 o
-5 -4 1 231.847 248.414 7.171 13.668 o
-5 -4 2 331.694 331.379 8.074 10.032 o
-5 -4 3 291.832 298.731 6.436 12.580 o
-5 -4 4 36.034 31.833 3.130 85.750 o
-5 -4 5 162.379 163.015 6.453 18.831 o
-5 -4 6 47.262 54.856 8.572 20.878 o
-5 -4 7 161.283 163.563 10.092 11.830 o
-5 -4 8 3.112 1.823 1.594 545.440 o
-5 -4 9 80.568 67.439 11.404 12.109 o
-5 -3 1 190.241 191.127 6.273 17.407 o
-5 -3 2 443.121 461.684 9.253 7.393 o
-5 -3 3 438.782 457.104 9.277 7.433 o
-5 -3 4 135.740 129.683 7.963 16.997 o
-5 -3 5 302.655 305.857 8.373 10.364 o
-5 -3 6 557.759 566.026 17.608 3.609 o
-5 -3 7 323.455 330.932 9.556 8.913 o
-5 -3 8 23.773 22.807 3.086 106.350 o
-5 -3 9 76.569 74.671 6.264 28.601 o
-5 -3 10 60.030 50.999 5.688 36.056 o
-5 -2 1 83.284 84.400 3.677 43.511 o
-5 -2 2 445.783 441.893 9.079 7.544 o
-5 -2 3 572.821 580.019 11.261 5.424 o
-5 -2 4 173.827 180.419 6.200 18.488 o
-5 -2 5 201.114 198.962 6.019 17.306 o
-5 -2 6 787.454 802.336 15.787 3.352 o
-5 -2 7 164.953 178.298 6.161 19.040 o
-5 -2 8 79.397 89.959 5.209 33.368 o
-5 -2 9 33.874 23.110 3.253 88.889 o
-5 -2 10 181.572 172.782 9.061 12.907 o
-5 -1 1 517.813 544.076 7.613 7.270 o
-5 -1 2 1657.760 1684.250 18.061 1.760 o
-5 -1 3 557.474 546.171 7.847 6.876 o
-5 -1 4 23.495 24.706 1.638 169.353 o
-5 -1 5 51.493 53.106 2.805 71.637 o
-5 -1 6 130.195 129.977 4.451 28.333 o
-5 -1 7 416.375 419.143 8.725 8.101 o
-5 -1 8 93.889 90.607 5.296 30.907 o
-5 -1 9 50.523 38.796 5.145 44.104 o
-5 -1 10 42.405 33.953 9.006 20.019 o
-5 0 1 2.988 3.502 0.842 1036.960 o
-5 0 2 210.971 202.627 4.202 20.157 o
-5 0 3 741.285 725.653 8.761 5.134 o
-5 0 4 317.108 320.692 5.608 12.618 o
-5 0 5 190.010 191.901 4.528 21.009 o
-5 0 6 378.615 377.146 9.403 8.225 o
-5 0 7 416.542 422.287 12.005 6.277 o
-5 0 8 30.961 35.228 3.129 89.033 o
-5 0 9 163.538 143.428 6.246 19.765 o
-5 0 10 151.296 119.231 15.609 6.469 o
-5 1 1 0.677 -0.088 0.645 3306.950 o
-5 1 2 1445.760 1504.410 15.578 2.140 o
-5 1 3 1271.880 1298.630 14.469 2.501 o
-5 1 4 331.316 338.594 6.338 11.491 o
-5 1 5 29.252 29.763 2.283 120.853 o
-5 1 6 647.082 657.578 13.183 4.426 o
-5 1 7 246.090 256.294 6.789 13.732 o
-5 1 8 142.019 136.888 7.048 18.893 o
-5 1 9 52.214 53.430 7.050 27.793 o
-5 1 10 2.428 13.356 7.644 31.507 o
-5 2 1 110.190 115.664 3.144 37.644 o
-5 2 2 657.372 638.696 8.460 5.796 o
-5 2 3 1100.260 1092.110 12.086 3.134 o
-5 2 4 227.484 226.307 5.160 17.211 o
-5 2 5 47.188 47.714 3.462 65.675 o
-5 2 6 117.563 127.529 5.985 23.879 o
-5 2 7 413.315 441.399 22.250 2.907 o
-5 2 8 120.069 130.816 9.393 14.314 o
-5 2 9 1.138 0.184 3.170 184.589 o
-5 3 1 73.885 72.160 2.429 58.814 o
-5 3 2 160.879 167.822 3.498 26.438 o
-5 3 3 974.275 967.144 11.794 3.522 o
-5 3 4 566.226 575.388 10.197 5.844 o
-5 3 5 35.572 30.289 3.398 80.490 o
-5 3 6 62.893 58.641 4.763 42.509 o
-5 3 7 561.401 572.757 15.764 4.067 o
-5 3 8 90.527 86.479 7.518 21.474 o
-5 3 9 11.424 6.621 4.184 90.801 o
-5 4 1 1.264 1.787 0.768 1727.970 o
-5 4 2 117.310 113.725 3.016 37.106 o
-5 4 3 514.687 514.355 7.642 7.399 o
-5 4 4 478.994 495.034 19.177 3.441 o
-5 4 5 21.947 18.346 2.033 164.793 o
-5 4 6 36.120 34.717 2.505 99.882 o
-5 4 7 14.087 13.708 5.531 53.636 o
-5 4 8 244.670 216.544 14.628 6.334 o
-5 5 1 1.219 1.044 0.883 1598.380 o
-5 5 2 681.627 690.877 9.181 5.352 o
-5 5 3 591.451 600.218 10.006 5.725 o
-5 5 4 286.807 291.297 7.152 11.992 o
-5 5 5 35.124 29.819 2.805 96.073 o
-5 5 6 287.381 277.557 11.669 7.871 o
-5 5 7 186.329 167.975 7.289 15.973 o
-5 6 1 195.502 193.679 5.229 19.221 o
-5 6 2 26.825 24.396 2.342 128.687 o
-5 6 3 362.774 360.524 7.296 10.023 o
-5 6 4 509.633 508.755 10.301 6.289 o
-5 6 5 281.408 259.476 9.946 9.478 o
-5 6 6 2.191 -3.201 2.141 373.842 o
-5 7 1 225.660 227.556 5.744 16.320 o
-5 7 2 18.784 15.861 1.849 194.523 o
-5 7 3 232.976 237.035 7.471 13.360 o
-5 7 4 99.910 116.906 10.267 13.273 o
-5 7 5 10.628 5.850 2.971 158.235 o
-5 8 1 57.827 59.398 4.066 50.753 o
-5 8 2 7.078 7.134 1.796 331.006 o
-5 8 3 206.553 187.547 19.137 4.337 o
-5 9 1 30.408 26.155 3.658 80.186 o
-4 -7 3 286.468 288.705 24.127 2.768 o
-4 -7 4 282.779 309.870 21.201 3.416 o
-4 -7 5 7.724 0.387 5.310 63.452 o
-4 -7 6 73.308 65.101 10.138 14.878 o
-4 -6 1 21.992 29.481 7.083 32.377 o
-4 -6 2 85.254 85.004 9.442 15.903 o
-4 -6 3 228.345 233.946 7.486 13.488 o
-4 -6 4 241.166 236.886 7.249 13.471 o
-4 -6 5 42.970 45.198 4.244 56.531 o
-4 -6 6 1.464 1.787 1.816 494.680 o
-4 -6 7 143.405 141.226 8.858 14.605 o
-4 -6 8 121.147 111.609 6.569 22.149 o
-4 -5 1 373.100 367.054 9.487 8.269 o
-4 -5 2 4.254 1.561 1.553 528.466 o
-4 -5 3 135.075 141.501 5.609 23.372 o
-4 -5 4 864.176 880.561 29.682 1.544 o
-4 -5 5 712.332 711.464 15.357 3.669 o
-4 -5 6 4.115 2.374 2.427 266.759 o
-4 -5 7 225.920 222.929 7.642 13.457 o
-4 -5 8 400.629 402.147 18.137 3.962 o
-4 -5 9 83.969 75.141 3.981 42.201 o
-4 -4 1 173.993 184.187 6.633 17.461 o
-4 -4 2 0.259 -1.452 1.102 1496.480 o
-4 -4 3 506.428 510.796 10.347 6.282 o
-4 -4 4 231.541 221.766 8.324 12.394 o
-4 -4 5 14.396 13.660 2.335 181.338 o
-4 -4 6 45.977 43.761 3.332 69.631 o
-4 -4 7 85.061 81.983 4.378 38.443 o
-4 -4 8 130.071 121.950 4.267 29.487 o
-4 -4 9 62.161 55.012 7.713 23.540 o
-4 -4 10 1.141 -1.468 4.030 115.634 o
-4 -3 1 300.754 294.187 6.190 12.694 o
-4 -3 2 9.503 11.165 1.348 352.084 o
-4 -3 3 227.492 234.740 6.015 15.704 o
-4 -3 4 947.048 927.020 20.376 2.377 o
-4 -3 5 873.543 895.339 17.458 2.870 o
-4 -3 6 96.382 96.675 3.377 41.068 o
-4 -3 7 117.883 114.385 3.908 32.999 o
-4 -3 8 372.062 350.650 14.880 5.306 o
-4 -3 9 665.565 624.838 27.520 1.880 o
-4 -3 10 28.344 21.332 3.916 77.353 o
-4 -2 1 1156.950 1161.210 15.066 2.652 o
-4 -2 2 3.606 2.950 0.910 935.090 o
-4 -2 3 444.809 448.090 8.492 7.846 o
-4 -2 4 823.353 840.898 13.941 3.594 o
-4 -2 5 643.269 619.080 9.261 5.671 o
-4 -2 6 105.670 107.306 3.986 34.983 o
-4 -2 7 288.083 270.640 8.064 11.183 o
-4 -2 8 196.098 198.888 7.307 15.130 o
-4 -2 9 5.206 2.968 2.094 319.102 o
-4 -2 10 38.216 36.813 4.849 51.444 o
-4 -1 1 1248.470 1230.700 13.944 2.618 o
-4 -1 2 704.814 708.663 8.948 5.276 o
-4 -1 3 380.341 369.642 6.410 10.362 o
-4 -1 4 1110.700 1113.150 12.194 3.086 o
-4 -1 5 429.994 442.460 8.322 8.101 o
-4 -1 6 22.303 23.126 2.373 138.899 o
-4 -1 7 27.036 22.369 2.562 121.440 o
-4 -1 8 341.891 346.259 10.821 7.734 o
-4 -1 9 150.934 164.159 7.987 15.803 o
-4 -1 10 16.674 13.176 2.706 148.153 o
-4 0 1 709.820 683.597 8.371 5.459 o
-4 0 2 678.545 690.978 8.469 5.562 o
-4 0 3 76.428 78.488 1.907 60.435 o
-4 0 4 1202.300 1191.750 14.980 2.590 o
-4 0 5 729.698 718.707 10.975 4.644 o
-4 0 6 391.635 403.361 9.480 7.936 o
-4 0 7 2.469 1.482 1.156 907.856 o
-4 0 8 565.337 545.666 36.973 1.204 o
-4 0 9 529.498 538.409 15.197 4.358 o
-4 0 10 7.458 8.055 2.534 208.260 o
-4 1 1 237.982 208.677 3.823 19.217 o
-4 1 2 454.304 512.684 6.716 8.381 o
-4 1 3 36.998 38.226 1.420 123.253 o
-4 1 4 625.870 614.496 10.662 5.319 o
-4 1 5 982.939 984.510 15.615 2.927 o
-4 1 6 33.510 36.105 3.103 86.771 o
-4 1 7 5.082 4.777 1.602 438.767 o
-4 1 8 29.672 28.448 4.884 55.536 o
-4 1 9 190.545 205.234 8.340 13.470 o
-4 1 10 87.167 84.675 10.960 12.604 o
-4 2 1 7537.310 7619.320 70.859 0.173 o
-4 2 2 2189.020 2177.670 28.724 1.013 o
-4 2 3 204.234 202.327 3.419 21.945 o
-4 2 4 793.321 802.263 14.074 3.671 o
-4 2 5 1412.440 1473.260 22.894 1.651 o
-4 2 6 366.093 373.769 9.122 8.558 o
-4 2 7 8.957 4.945 1.486 386.599 o
-4 2 8 91.860 95.223 5.227 31.242 o
-4 2 9 35.157 24.324 4.981 52.797 o
-4 3 1 696.360 662.195 8.289 5.595 o
-4 3 2 413.434 418.339 5.890 9.876 o
-4 3 3 94.077 94.504 2.384 47.810 o
-4 3 4 195.457 185.227 4.423 21.105 o
-4 3 5 235.635 233.805 5.575 16.120 o
-4 3 6 152.821 160.857 6.009 20.488 o
-4 3 7 4.407 4.138 1.409 540.420 o
-4 3 8 137.585 141.156 5.562 23.358 o
-4 3 9 220.558 195.985 10.478 10.131 o
-4 4 1 413.292 412.106 7.096 9.174 o
-4 4 2 843.161 835.964 9.964 4.325 o
-4 4 3 197.240 201.359 4.309 20.759 o
-4 4 4 386.721 389.902 7.304 9.502 o
-4 4 5 664.371 660.302 13.512 4.285 o
-4 4 6 599.208 602.115 10.504 5.515 o
-4 4 7 28.351 15.829 2.537 126.207 o
-4 4 8 64.785 50.595 6.573 29.409 o
-4 5 1 1865.680 1860.470 20.945 1.459 o
-4 5 2 495.509 476.684 7.494 7.785 o
-4 5 3 19.240 15.626 1.669 206.108 o
-4 5 4 266.070 270.418 7.613 12.091 o
-4 5 5 520.809 480.237 14.106 4.827 o
-4 5 6 98.568 80.456 8.512 17.998 o
-4 5 7 11.848 4.951 2.501 197.263 o
-4 6 1 617.179 605.429 9.512 5.752 o
-4 6 2 487.002 488.199 8.450 7.351 o
-4 6 3 4.856 5.076 1.313 546.889 o
-4 6 4 7.675 4.105 1.391 448.167 o
-4 6 5 56.655 52.781 4.376 48.772 o
-4 6 6 161.923 117.934 12.669 8.902 o
-4 7 1 420.377 421.179 9.857 7.398 o
-4 7 2 529.065 512.581 9.967 6.306 o
-4 7 3 205.135 193.423 9.100 12.144 o
-4 7 4 105.103 93.792 5.287 29.448 o
-4 7 5 280.741 277.061 11.175 8.319 o
-4 8 1 259.108 263.073 8.487 11.282 o
-4 8 2 147.010 156.249 5.058 23.680 o
-4 8 3 47.574 43.273 4.030 58.062 o
-4 8 4 11.879 5.358 3.449 124.168 o
-4 9 1 313.017 294.129 9.674 9.140 o
-4 9 2 246.562 235.582 15.196 5.942 o
-3 -7 1 280.714 273.334 10.275 9.104 o
-3 -7 2 178.952 180.670 9.986 11.510 o
-3 -7 3 32.845 24.531 3.626 79.664 o
-3 -7 4 61.497 58.416 6.250 31.339 o
-3 -7 5 477.666 471.306 11.254 6.157 o
-3 -7 6 288.795 289.641 11.060 8.277 o
-3 -7 7 68.333 57.777 4.960 39.733 o
-3 -7 8 7.022 3.320 3.181 156.586 o
-3 -6 1 412.022 436.130 18.946 3.674 o
-3 -6 2 679.623 652.906 14.722 3.952 o
-3 -6 3 51.852 52.794 3.817 57.157 o
-3 -6 4 0.899 -0.059 0.972 1646.770 o
-3 -6 5 253.915 255.457 9.347 10.477 o
-3 -6 6 460.999 472.670 13.487 5.290 o
-3 -6 7 33.366 29.641 3.705 75.508 o
-3 -6 8 0.546 -3.985 1.507 795.434 o
-3 -6 9 61.167 53.691 5.531 36.856 o
-3 -5 1 356.067 364.108 13.414 6.045 o
-3 -5 2 686.443 702.399 19.072 2.987 o
-3 -5 3 81.093 87.474 4.962 34.828 o
-3 -5 4 212.805 205.876 6.364 16.119 o
-3 -5 5 46.015 45.807 3.486 66.465 o
-3 -5 6 270.349 285.380 7.921 11.519 o
-3 -5 7 197.397 200.674 6.954 15.686 o
-3 -5 8 43.995 34.895 4.633 52.709 o
-3 -5 9 126.645 113.373 8.798 15.645 o
-3 -5 10 65.086 65.724 7.874 22.299 o
-3 -4 1 401.252 407.114 8.090 8.707 o
-3 -4 2 653.033 667.935 11.045 4.988 o
-3 -4 3 1034.420 1056.030 15.328 2.845 o
-3 -4 4 3.524 3.705 1.365 606.611 o
-3 -4 5 1060.470 1062.970 17.215 2.573 o
-3 -4 6 780.753 772.586 20.042 2.668 o
-3 -4 7 330.906 299.521 15.779 5.164 o
-3 -4 8 9.068 4.892 1.355 416.155 o
-3 -4 9 149.356 139.067 7.750 16.814 o
-3 -4 10 127.175 131.330 8.870 15.193 o
-3 -4 11 41.217 24.386 4.994 50.565 o
-3 -3 1 504.116 478.749 8.455 7.252 o
-3 -3 2 1212.390 1180.260 16.540 2.423 o
-3 -3 3 650.924 675.832 10.596 5.110 o
-3 -3 4 7.664 7.767 1.290 431.627 o
-3 -3 5 1044.340 1049.130 14.658 2.924 o
-3 -3 6 541.994 547.812 9.878 6.168 o
-3 -3 7 219.463 204.691 5.335 17.686 o
-3 -3 8 42.988 41.417 3.313 72.640 o
-3 -3 9 192.500 183.319 8.473 13.473 o
-3 -3 10 146.969 146.307 8.902 14.352 o
-3 -3 11 46.369 43.544 7.198 27.998 o
-3 -2 1 2388.050 2456.710 27.686 0.970 o
-3 -2 2 1752.490 1766.260 24.299 1.364 o
-3 -2 3 159.764 156.700 4.240 25.030 o
-3 -2 4 304.525 321.916 5.714 12.783 o
-3 -2 5 20.431 23.689 1.630 183.790 o
-3 -2 6 897.146 883.316 12.935 3.580 o
-3 -2 7 415.623 419.844 13.215 5.715 o
-3 -2 8 226.445 218.754 11.446 8.918 o
-3 -2 9 1.497 -1.557 1.443 782.420 o
-3 -2 10 257.850 244.620 19.180 4.130 o
-3 -2 11 112.209 91.788 10.315 13.187 o
-3 -1 1 6.239 5.603 0.591 760.897 o
-3 -1 2 1432.750 1379.500 15.001 2.251 o
-3 -1 3 2122.270 2042.060 21.165 1.313 o
-3 -1 4 13.844 19.531 1.120 276.581 o
-3 -1 5 538.397 566.799 9.904 6.125 o
-3 -1 6 945.147 985.242 18.764 2.550 o
-3 -1 7 460.371 485.382 9.748 6.927 o
-3 -1 8 118.445 115.525 5.291 26.947 o
-3 -1 9 215.497 211.772 12.595 8.021 o
-3 -1 10 98.361 93.442 4.757 33.030 o
-3 -1 11 28.817 32.890 4.328 64.526 o
-3 0 1 898.990 903.867 9.941 4.075 o
-3 0 2 3277.260 3263.920 31.113 0.691 o
-3 0 3 1562.770 1526.080 17.742 1.890 o
-3 0 4 234.982 241.582 5.716 15.796 o
-3 0 5 687.580 696.241 11.467 4.697 o
-3 0 6 562.540 590.614 10.508 5.713 o
-3 0 7 377.469 394.029 8.304 8.896 o
-3 0 8 362.396 354.120 9.550 8.393 o
-3 0 9 18.701 16.362 3.358 107.799 o
-3 0 10 88.042 84.393 8.368 18.803 o
-3 1 1 262.358 243.261 3.496 17.729 o
-3 1 2 2096.480 2065.910 20.344 1.350 o
-3 1 3 1118.960 1134.200 15.163 2.705 o
-3 1 4 467.472 454.758 9.414 7.151 o
-3 1 5 32.233 33.568 1.910 123.893 o
-3 1 6 760.523 771.134 13.757 3.843 o
-3 1 7 594.967 620.236 12.544 4.839 o
-3 1 8 88.704 90.275 5.749 29.169 o
-3 1 9 49.919 49.754 5.511 39.475 o
-3 1 10 97.372 83.368 9.299 15.890 o
-3 2 1 3.588 2.915 0.464 1344.220 o
-3 2 2 900.684 854.756 10.548 4.029 o
-3 2 3 2048.260 2018.600 25.122 1.191 o
-3 2 4 404.865 421.268 7.302 9.090 o
-3 2 5 0.659 0.631 0.757 2371.660 o
-3 2 6 591.562 561.509 12.022 5.126 o
-3 2 7 533.685 517.899 19.924 3.169 o
-3 2 8 7.286 7.039 1.438 410.605 o
-3 2 9 1.995 -2.286 3.043 196.144 o
-3 2 10 51.929 37.641 7.581 25.635 o
-3 3 1 2.433 2.696 0.555 1576.300 o
-3 3 2 571.614 558.252 8.111 6.639 o
-3 3 3 1694.940 1654.370 18.626 1.714 o
-3 3 4 114.638 114.299 3.821 33.870 o
-3 3 5 93.314 93.297 3.783 39.592 o
-3 3 6 5.004 8.018 2.016 307.162 o
-3 3 7 357.659 367.392 9.753 8.232 o
-3 3 8 294.040 279.063 9.898 9.254 o
-3 3 9 2.594 0.505 2.653 247.367 o
-3 4 1 587.143 614.222 8.132 6.358 o
-3 4 2 1259.460 1301.800 15.255 2.438 o
-3 4 3 663.348 659.850 11.193 4.922 o
-3 4 4 612.238 615.243 10.565 5.408 o
-3 4 5 79.418 81.861 4.156 41.170 o
-3 4 6 558.423 605.719 23.720 2.425 o
-3 4 7 102.461 104.454 6.514 23.872 o
-3 4 8 108.572 107.413 6.933 21.826 o
-3 5 1 144.971 157.323 4.147 26.564 o
-3 5 2 262.349 254.893 6.136 14.182 o
-3 5 3 921.224 907.743 14.180 3.302 o
-3 5 4 872.654 893.493 15.644 3.157 o
-3 5 5 294.628 298.468 8.012 10.896 o
-3 5 6 116.285 121.542 7.012 20.700 o
-3 5 7 193.747 190.316 9.741 11.501 o
-3 6 1 115.281 110.607 3.248 36.702 o
-3 6 2 284.031 274.729 6.682 12.743 o
-3 6 3 374.469 382.946 10.757 7.369 o
-3 6 4 76.841 77.565 3.989 43.532 o
-3 6 5 4.427 -2.156 2.558 251.157 o
-3 6 6 40.177 33.666 4.975 49.668 o
-3 7 1 30.394 26.210 2.340 120.033 o
-3 7 2 134.282 137.038 4.733 26.566 o
-3 7 3 436.283 427.134 8.594 7.958 o
-3 7 4 168.161 160.473 16.221 5.893 o
-3 7 5 13.568 6.860 4.158 89.409 o
-3 8 1 24.743 20.113 1.950 157.266 o
-3 8 2 11.253 7.766 2.428 200.631 o
-3 8 3 202.011 193.199 8.522 13.058 o
-3 9 1 100.751 82.660 4.836 33.019 o
-2 -8 1 1.374 0.885 2.449 296.910 o
-2 -8 2 161.207 157.321 7.748 16.074 o
-2 -8 3 497.730 488.364 62.910 0.460 o
-2 -8 4 125.901 121.959 11.908 10.193 o
-2 -8 5 25.620 26.873 3.510 88.049 o
-2 -8 6 59.070 50.514 4.781 44.229 o
-2 -8 7 98.641 88.086 4.981 32.146 o
-2 -8 8 213.151 212.756 11.425 9.116 o
-2 -7 1 4.236 1.769 3.205 166.135 o
-2 -7 2 113.108 110.436 4.771 29.985 o
-2 -7 3 307.659 304.627 6.917 11.705 o
-2 -7 4 290.772 300.437 6.915 12.076 o
-2 -7 5 69.059 68.723 3.661 49.771 o
-2 -7 6 73.117 74.163 2.940 54.146 o
-2 -7 7 242.005 236.568 6.561 14.420 o
-2 -7 8 121.686 116.753 6.325 22.777 o
-2 -7 9 13.178 10.203 3.048 139.759 o
-2 -6 1 212.577 192.806 8.170 13.354 o
-2 -6 2 27.196 32.860 3.213 91.865 o
-2 -6 3 657.482 654.357 9.701 5.390 o
-2 -6 4 1457.730 1460.400 18.287 1.947 o
-2 -6 5 254.597 266.362 6.387 13.912 o
-2 -6 6 78.404 77.446 5.347 33.551 o
-2 -6 7 543.139 535.419 10.446 5.972 o
-2 -6 8 304.431 298.572 10.445 8.572 o
-2 -6 9 23.606 19.637 2.785 121.105 o
-2 -6 10 11.818 9.108 2.127 226.282 o
-2 -5 1 169.302 181.359 7.239 16.430 o
-2 -5 2 272.090 256.719 5.541 14.638 o
-2 -5 3 438.020 435.041 8.265 8.093 o
-2 -5 4 94.073 93.797 3.154 43.284 o
-2 -5 5 5.172 4.702 0.882 741.220 o
-2 -5 6 26.823 26.207 2.387 125.029 o
-2 -5 7 107.283 119.032 4.258 32.546 o
-2 -5 8 216.044 231.512 9.548 11.023 o
-2 -5 9 82.777 88.146 4.074 40.373 o
-2 -5 10 2.245 1.563 2.220 337.822 o
-2 -5 11 130.767 115.183 10.025 13.043 o
-2 -4 1 90.799 87.774 2.703 47.825 o
-2 -4 2 21.985 23.659 1.616 178.246 o
-2 -4 3 1102.760 1079.350 16.676 2.580 o
-2 -4 4 1793.490 1823.230 21.150 1.489 o
-2 -4 5 774.571 791.173 11.598 4.250 o
-2 -4 6 3.152 2.614 0.967 954.269 o
-2 -4 7 399.449 388.776 7.918 8.940 o
-2 -4 8 1012.150 1016.770 15.590 2.868 o
-2 -4 9 325.262 336.209 8.544 9.689 o
-2 -4 10 34.734 31.257 4.366 61.301 o
-2 -4 11 9.243 5.229 2.273 238.665 o
-2 -3 1 660.503 650.756 9.119 5.556 o
-2 -3 2 108.530 119.206 3.642 35.275 o
-2 -3 3 766.000 771.787 11.282 4.373 o
-2 -3 4 1373.900 1342.370 17.230 2.137 o
-2 -3 5 767.820 752.382 11.111 4.436 o
-2 -3 6 36.998 37.001 2.519 97.059 o
-2 -3 7 496.340 527.330 8.827 6.961 o
-2 -3 8 10.797 10.775 1.637 291.448 o
-2 -3 9 66.650 67.496 3.961 47.838 o
-2 -3 10 26.713 18.143 2.532 127.390 o
-2 -3 11 65.865 62.933 5.762 33.688 o
-2 -2 1 3359.230 3384.440 36.544 0.596 o
-2 -2 2 56.429 61.965 2.041 75.686 o
-2 -2 3 1475.900 1461.060 18.142 1.945 o
-2 -2 4 1325.230 1343.010 16.848 2.211 o
-2 -2 5 235.201 226.905 5.015 17.120 o
-2 -2 6 63.822 59.069 2.902 61.727 o
-2 -2 7 265.282 276.905 8.000 11.601 o
-2 -2 8 653.447 663.126 13.935 4.202 o
-2 -2 9 81.832 86.392 4.537 37.563 o
-2 -2 10 28.015 27.331 2.805 106.885 o
-2 -2 11 70.879 62.607 7.455 23.794 o
-2 -1 1 945.154 920.110 13.911 3.292 o
-2 -1 2 244.474 242.574 3.038 19.093 o
-2 -1 3 1000.660 1005.800 12.583 3.316 o
-2 -1 4 1568.540 1576.050 19.115 1.782 o
-2 -1 5 1131.440 1187.050 21.593 1.999 o
-2 -1 6 217.922 222.436 4.975 17.993 o
-2 -1 7 239.342 243.896 5.394 16.084 o
-2 -1 8 1137.160 1145.820 17.539 2.412 o
-2 -1 9 235.593 248.536 7.654 12.915 o
-2 -1 10 0.350 -0.397 1.341 1013.950 o
-2 -1 11 4.359 3.087 2.164 313.290 o
-2 0 1 943.817 1026.870 10.521 3.718 o
-2 0 2 119.620 108.513 2.173 40.617 o
-2 0 3 29.398 28.349 1.488 150.768 o
-2 0 4 2649.080 2652.430 38.862 0.666 o
-2 0 5 552.504 516.327 8.610 6.708 o
-2 0 6 5.888 5.421 1.088 589.596 o
-2 0 7 3.296 3.187 1.050 841.305 o
-2 0 8 158.161 177.260 5.715 20.499 o
-2 0 9 358.467 364.062 8.166 9.393 o
-2 0 10 7.583 2.722 1.552 420.005 o
-2 1 2 2.559 2.229 0.302 1972.050 o
-2 1 3 781.784 771.284 11.624 4.252 o
-2 1 4 2283.160 2375.530 45.542 0.594 o
-2 1 5 1864.500 1952.700 26.701 1.193 o
-2 1 6 41.656 42.296 3.141 76.501 o
-2 1 7 108.211 117.339 4.113 33.223 o
-2 1 8 53.394 53.992 3.670 58.170 o
-2 1 9 117.425 121.519 4.904 28.328 o
-2 1 10 78.411 72.521 7.139 24.268 o
-2 2 1 1162.470 1129.900 12.325 2.976 o
-2 2 2 151.150 145.379 3.099 29.680 o
-2 2 3 133.171 128.068 3.543 31.491 o
-2 2 4 129.336 113.618 3.556 32.935 o
-2 2 5 543.795 536.956 11.386 5.605 o
-2 2 6 204.114 205.217 5.568 17.902 o
-2 2 7 57.375 59.339 4.321 48.160 o
-2 2 8 465.586 465.001 16.050 4.371 o
-2 2 9 132.600 131.017 5.689 23.669 o
-2 2 10 6.744 -2.850 2.569 232.564 o
-2 3 1 1323.250 1311.060 16.528 2.255 o
-2 3 2 2086.400 2122.130 25.726 1.144 o
-2 3 3 50.418 53.426 2.577 75.757 o
-2 3 4 1165.370 1172.720 24.208 1.762 o
-2 3 5 1301.030 1302.880 20.006 1.979 o
-2 3 6 433.524 447.241 16.064 4.481 o
-2 3 7 15.137 15.812 2.553 158.688 o
-2 3 8 101.432 109.807 8.340 17.761 o
-2 3 9 173.408 180.129 17.178 5.307 o
-2 4 1 1818.760 1761.700 20.590 1.519 o
-2 4 2 266.977 267.185 4.814 15.531 o
-2 4 3 32.176 32.963 2.159 116.872 o
-2 4 4 837.696 875.112 13.440 3.622 o
-2 4 5 269.090 274.783 9.226 10.242 o
-2 4 6 96.338 110.529 5.719 27.479 o
-2 4 7 6.337 6.236 2.022 300.872 o
-2 4 8 29.720 18.610 13.356 10.170 o
-2 5 1 1427.160 1451.360 17.973 1.995 o
-2 5 2 243.763 241.572 5.064 16.445 o
-2 5 3 15.077 15.610 1.437 253.229 o
-2 5 4 23.117 24.330 2.729 120.087 o
-2 5 5 362.327 360.484 8.128 9.397 o
-2 5 6 245.169 259.452 13.409 6.996 o
-2 5 7 10.447 3.730 2.362 224.108 o
-2 6 1 789.671 790.998 11.291 4.274 o
-2 6 2 948.388 967.190 13.596 3.293 o
-2 6 3 1.802 1.241 1.063 1118.260 o
-2 6 4 401.625 398.208 9.679 7.748 o
-2 6 5 276.618 286.570 9.211 10.068 o
-2 6 6 42.909 39.727 6.385 34.188 o
-2 7 1 378.107 407.233 8.296 8.822 o
-2 7 2 177.388 193.286 5.330 19.937 o
-2 7 3 39.251 37.790 2.841 86.643 o
-2 7 4 95.729 108.975 6.746 23.299 o
-2 7 5 227.994 243.518 14.483 6.442 o
-2 8 1 591.347 579.728 10.132 5.732 o
-2 8 2 202.551 201.986 7.265 14.960 o
-2 8 3 85.657 88.301 6.109 27.778 o
-2 9 1 217.062 210.153 9.754 10.928 o
-1 -9 3 3.270 -0.962 1.889 439.102 o
-1 -9 4 91.403 80.158 4.231 38.393 o
-1 -9 5 211.361 201.209 6.482 16.044 o
-1 -9 6 89.048 82.215 6.942 23.956 o
-1 -8 1 301.182 326.616 10.980 8.056 o
-1 -8 2 133.920 127.866 5.778 23.390 o
-1 -8 3 1.896 -2.922 1.213 991.837 o
-1 -8 4 260.742 273.703 6.478 13.545 o
-1 -8 5 474.527 487.800 8.602 7.376 o
-1 -8 6 249.362 252.255 6.908 13.541 o
-1 -8 7 18.521 15.095 2.113 178.351 o
-1 -8 8 22.367 14.097 2.126 165.132 o
-1 -8 9 83.021 69.628 5.011 35.623 o
-1 -7 1 892.700 888.549 14.218 3.364 o
-1 -7 2 381.155 391.045 7.274 9.586 o
-1 -7 3 21.400 21.108 1.834 173.310 o
-1 -7 4 69.727 74.989 3.334 51.592 o
-1 -7 5 582.658 577.846 9.399 6.041 o
-1 -7 6 193.599 205.204 5.854 17.804 o
-1 -7 7 22.805 29.840 3.185 99.531 o
-1 -7 8 12.377 13.529 1.886 234.741 o
-1 -7 9 210.773 203.572 8.333 13.026 o
-1 -7 10 127.699 122.334 5.275 25.859 o
-1 -6 1 592.572 625.939 11.155 5.277 o
-1 -6 2 604.388 619.497 9.852 5.668 o
-1 -6 3 33.427 32.023 2.035 119.286 o
-1 -6 4 38.952 43.796 2.296 95.983 o
-1 -6 5 153.114 158.718 4.736 24.070 o
-1 -6 6 636.843 639.899 13.007 4.532 o
-1 -6 7 14.179 18.244 3.350 113.649 o
-1 -6 8 121.877 119.807 4.564 29.340 o
-1 -6 9 91.321 104.367 5.782 27.989 o
-1 -6 10 105.913 114.904 4.733 30.752 o
-1 -5 1 476.419 481.168 6.798 8.277 o
-1 -5 2 1665.900 1674.750 19.803 1.657 o
-1 -5 3 731.464 742.328 10.123 4.808 o
-1 -5 4 777.565 795.072 14.235 3.680 o
-1 -5 5 1300.490 1320.140 21.815 1.830 o
-1 -5 6 798.894 824.435 15.137 3.433 o
-1 -5 7 127.248 127.161 4.444 28.822 o
-1 -5 8 113.981 107.954 4.205 32.636 o
-1 -5 9 231.023 239.194 7.216 13.742 o
-1 -5 10 95.080 101.184 5.380 29.709 o
-1 -5 11 38.688 42.031 4.750 51.738 o
-1 -4 1 1534.770 1492.890 16.263 2.023 o
-1 -4 2 1037.200 1025.750 11.864 3.332 o
-1 -4 3 420.153 422.380 6.903 9.150 o
-1 -4 4 289.649 307.179 6.235 12.749 o
-1 -4 5 972.897 1003.490 16.868 2.756 o
-1 -4 6 329.724 323.912 6.684 11.345 o
-1 -4 7 354.520 358.027 7.597 9.922 o
-1 -4 8 5.703 5.574 1.206 548.120 o
-1 -4 9 229.888 230.799 8.071 12.674 o
-1 -4 10 173.119 179.546 5.948 19.108 o
-1 -4 11 8.556 2.306 1.959 310.115 o
-1 -3 1 2811.810 2844.430 28.649 0.832 o
-1 -3 2 786.707 799.338 10.677 4.403 o
-1 -3 3 472.913 487.688 7.525 7.922 o
-1 -3 4 915.156 984.475 19.734 2.458 o
-1 -3 5 585.236 585.700 9.518 5.964 o
-1 -3 6 1189.300 1212.080 17.534 2.330 o
-1 -3 7 496.301 511.040 9.318 6.797 o
-1 -3 8 149.651 149.653 7.026 18.315 o
-1 -3 9 241.071 252.736 11.540 8.510 o
-1 -3 10 268.734 262.604 7.894 11.790 o
-1 -3 11 89.534 92.324 4.851 33.856 o
-1 -2 1 762.474 755.792 10.657 4.552 o
-1 -2 2 5581.350 5429.010 61.246 0.254 o
-1 -2 3 423.689 386.231 5.696 10.074 o
-1 -2 4 473.433 550.854 9.325 6.813 o
-1 -2 5 1005.480 1044.650 16.455 2.744 o
-1 -2 6 1474.690 1498.040 20.873 1.744 o
-1 -2 7 6.308 6.663 1.132 532.687 o
-1 -2 8 264.889 265.838 6.246 13.829 o
-1 -2 9 78.464 78.210 3.896 43.792 o
-1 -2 10 73.513 70.741 3.706 47.694 o
-1 -2 11 35.692 30.255 3.858 70.503 o
-1 -1 1 3460.660 3265.130 36.995 0.586 o
-1 -1 2 3426.790 3354.280 55.408 0.385 o
-1 -1 3 2401.100 2369.120 33.226 0.833 o
-1 -1 4 101.673 108.691 2.614 42.708 o
-1 -1 5 670.984 674.859 11.362 4.820 o
-1 -1 6 501.585 485.028 10.940 6.127 o
-1 -1 7 1165.120 1177.970 19.377 2.185 o
-1 -1 8 260.211 262.345 6.859 13.220 o
-1 -1 9 33.711 38.585 3.114 85.157 o
-1 -1 10 267.078 282.992 10.230 9.246 o
-1 -1 11 86.327 93.137 6.562 25.376 o
-1 0 1 1183.300 1136.500 14.380 2.711 o
-1 0 2 3623.330 3577.800 91.177 0.184 o
-1 0 3 1132.500 1149.280 18.892 2.273 o
-1 0 4 1105.710 1136.730 18.044 2.393 o
-1 0 5 317.512 308.096 6.068 12.307 o
-1 0 6 1388.120 1432.660 22.982 1.667 o
-1 0 7 425.206 427.747 9.325 7.635 o
-1 0 8 0.584 0.559 1.120 1307.540 o
-1 0 9 122.973 113.142 4.283 30.777 o
-1 0 10 88.092 82.065 4.735 35.575 o
-1 1 1 81.617 85.222 1.973 56.248 o
-1 1 2 3143.020 3094.700 43.691 0.531 o
-1 1 3 1930.360 1927.300 33.093 0.953 o
-1 1 4 140.121 139.563 3.379 30.471 o
-1 1 5 184.152 175.269 4.264 22.471 o
-1 1 6 958.432 985.175 15.234 3.017 o
-1 1 7 160.059 165.217 5.847 20.390 o
-1 1 8 17.817 15.216 1.918 195.535 o
-1 1 9 12.755 10.879 1.776 254.365 o
-1 1 10 79.051 81.715 7.483 22.467 o
-1 2 1 243.554 247.470 3.516 18.443 o
-1 2 2 2584.070 2485.430 35.901 0.740 o
-1 2 3 1366.210 1336.720 18.619 2.032 o
-1 2 4 31.396 39.808 2.620 99.555 o
-1 2 5 2.220 1.845 0.664 1602.400 o
-1 2 6 190.115 183.063 5.106 20.025 o
-1 2 7 824.325 806.989 16.863 3.097 o
-1 2 8 82.955 74.247 4.761 36.931 o
-1 2 9 0.269 0.453 1.642 678.092 o
-1 3 1 1914.460 1948.380 23.451 1.312 o
-1 3 2 843.454 855.107 10.667 4.160 o
-1 3 3 1561.200 1536.560 19.462 1.776 o
-1 3 4 229.658 229.708 6.745 14.598 o
-1 3 5 714.731 733.214 15.252 3.665 o
-1 3 6 234.859 246.039 10.562 9.532 o
-1 3 7 198.848 204.737 6.404 16.566 o
-1 3 8 50.528 49.822 6.476 31.772 o
-1 3 9 62.685 48.136 9.336 17.669 o
-1 4 1 14.548 20.888 1.393 240.986 o
-1 4 2 1030.160 1060.020 13.297 3.119 o
-1 4 3 1407.300 1425.710 17.808 2.032 o
-1 4 4 1365.650 1359.430 18.980 1.996 o
-1 4 5 16.700 14.045 1.978 199.144 o
-1 4 6 436.366 420.478 15.200 4.819 o
-1 4 7 139.206 155.586 7.808 16.752 o
-1 4 8 130.031 131.261 7.686 17.883 o
-1 5 1 31.261 34.245 1.896 125.573 o
-1 5 2 660.799 703.718 11.055 4.890 o
-1 5 3 264.508 275.045 5.575 14.550 o
-1 5 4 28.547 31.371 2.836 102.368 o
-1 5 5 1.096 -0.422 1.343 924.211 o
-1 5 6 147.131 155.130 6.614 19.348 o
-1 5 7 92.581 87.149 9.045 16.632 o
-1 6 1 0.010 0.646 0.890 2192.620 o
-1 6 2 443.724 431.700 8.145 8.123 o
-1 6 3 496.522 495.833 9.311 6.850 o
-1 6 4 114.552 107.289 3.858 34.241 o
-1 6 5 16.252 11.154 2.259 184.876 o
-1 6 6 28.686 27.456 4.342 65.780 o
-1 7 1 30.979 24.765 2.404 118.007 o
-1 7 2 100.361 104.640 3.763 37.284 o
-1 7 3 510.633 496.107 10.485 6.241 o
-1 7 4 249.361 260.160 7.977 12.089 o
-1 8 1 6.113 1.309 1.998 340.425 o
-1 8 2 120.647 110.193 6.711 21.749 o
-1 8 3 196.442 189.090 11.275 9.605 o
0 -9 1 27.599 26.343 3.085 98.972 o
0 -9 2 369.166 414.821 10.829 7.246 o
0 -9 3 329.095 330.269 9.157 9.173 o
0 -9 4 6.676 1.721 1.490 474.765 o
0 -9 5 24.669 20.797 2.753 119.486 o
0 -9 6 41.157 35.112 3.550 71.499 o
0 -9 7 244.504 236.207 8.162 12.194 o
0 -8 1 14.886 11.187 1.967 217.751 o
0 -8 2 127.472 121.665 4.550 28.684 o
0 -8 3 440.123 454.060 8.586 7.809 o
0 -8 4 366.222 374.556 7.103 10.023 o
0 -8 5 0.548 0.404 1.156 1259.440 o
0 -8 6 214.425 223.351 5.855 16.621 o
0 -8 7 213.873 201.333 6.375 16.143 o
0 -8 8 108.973 105.119 8.453 17.249 o
0 -8 9 14.674 9.182 2.051 216.605 o
0 -7 1 25.679 18.621 2.096 149.446 o
0 -7 2 234.005 256.950 6.057 15.080 o
0 -7 3 1322.570 1328.330 18.232 2.101 o
0 -7 4 822.542 826.271 11.709 4.049 o
0 -7 5 15.174 14.820 1.703 229.908 o
0 -7 6 320.179 323.567 6.861 11.356 o
0 -7 7 483.972 470.436 9.705 6.837 o
0 -7 8 128.418 128.935 6.348 21.871 o
0 -7 9 12.199 11.517 1.958 234.940 o
0 -7 10 32.558 32.332 3.171 87.789 o
0 -6 1 0.854 0.276 0.698 2638.310 o
0 -6 2 391.264 393.774 6.671 9.849 o
0 -6 3 140.050 148.299 3.713 28.886 o
0 -6 4 88.967 93.226 2.953 45.944 o
0 -6 5 7.443 9.055 1.427 389.825 o
0 -6 6 19.369 18.458 1.943 179.741 o
0 -6 7 219.042 242.798 8.152 12.668 o
0 -6 8 282.292 294.337 7.653 11.512 o
0 -6 9 75.655 88.647 4.617 37.941 o
0 -6 10 46.093 47.427 3.722 62.316 o
0 -5 1 100.524 99.029 2.808 43.117 o
0 -5 2 483.789 480.696 8.426 7.417 o
0 -5 3 2114.700 2105.790 23.976 1.200 o
0 -5 4 1690.650 1695.140 24.620 1.385 o
0 -5 5 212.284 213.654 5.581 17.365 o
0 -5 6 182.930 171.126 4.480 22.195 o
0 -5 7 974.149 965.444 17.142 2.741 o
0 -5 8 769.247 761.379 13.235 3.946 o
0 -5 9 3.787 3.448 1.757 433.590 o
0 -5 10 4.959 2.219 1.632 464.242 o
0 -5 11 8.219 7.517 2.339 229.106 o
0 -4 1 80.111 79.855 2.076 57.276 o
0 -4 2 128.363 141.023 2.972 33.305 o
0 -4 3 1348.850 1360.840 17.110 2.160 o
0 -4 4 1605.240 1587.910 21.567 1.609 o
0 -4 5 201.682 203.147 4.569 19.963 o
0 -4 6 354.160 373.939 6.997 10.281 o
0 -4 7 66.547 71.868 4.101 45.953 o
0 -4 8 45.320 55.172 3.114 70.104 o
0 -4 9 201.209 201.036 6.520 16.335 o
0 -4 10 22.694 17.892 2.466 139.758 o
0 -4 11 49.145 49.391 6.220 33.819 o
0 -3 1 1969.600 1997.210 24.845 1.229 o
0 -3 2 458.571 453.600 6.522 8.747 o
0 -3 3 1991.040 1994.840 25.954 1.180 o
0 -3 4 645.546 650.397 9.782 5.427 o
0 -3 5 389.783 367.340 6.491 10.182 o
0 -3 6 0.751 3.096 0.856 1490.130 o
0 -3 7 1017.550 1013.920 17.294 2.640 o
0 -3 8 338.112 349.535 8.264 9.666 o
0 -3 9 88.510 98.263 4.417 36.124 o
0 -3 10 0.488 1.432 1.809 536.343 o
0 -3 11 200.065 211.866 8.294 13.236 o
0 -2 1 798.396 768.342 8.818 4.819 o
0 -2 2 62.888 66.417 1.597 74.216 o
0 -2 3 1386.560 1390.590 20.401 1.862 o
0 -2 4 2141.740 2162.470 30.869 0.959 o
0 -2 5 853.395 897.657 14.724 3.341 o
0 -2 6 9.046 9.018 1.432 360.924 o
0 -2 7 852.603 877.164 15.328 3.257 o
0 -2 8 940.477 949.117 16.741 2.850 o
0 -2 9 32.199 32.512 2.788 98.406 o
0 -2 10 4.291 4.679 2.084 322.131 o
0 -2 11 31.558 34.505 4.557 58.788 o
0 -1 1 10.567 10.950 0.509 466.309 o
0 -1 2 671.061 671.793 10.019 5.203 o
0 -1 3 2323.590 2263.160 37.759 0.746 o
0 -1 4 2283.770 2173.080 31.322 0.918 o
0 -1 5 159.697 145.434 4.272 25.416 o
0 -1 6 8.792 10.292 1.393 362.220 o
0 -1 7 25.426 29.789 2.399 123.824 o
0 -1 8 479.195 471.390 11.976 5.834 o
0 -1 9 148.081 152.104 7.788 16.538 o
0 -1 10 3.004 4.705 2.105 334.234 o
0 0 2 566.540 564.971 8.768 6.403 o
0 0 3 1504.670 1509.730 22.099 1.646 o
0 0 4 3906.800 4065.430 57.048 0.342 o
0 0 5 704.356 708.815 12.591 4.337 o
0 0 6 30.301 31.547 2.456 111.756 o
0 0 7 54.204 61.805 3.947 52.922 o
0 0 8 84.800 99.489 4.332 37.182 o
0 0 9 290.109 281.244 9.368 9.773 o
0 0 10 2.204 3.285 2.134 348.996 o
0 1 0 42.277 42.616 0.832 119.523 o
0 1 1 2523.980 2464.460 30.297 0.876 o
0 1 2 7.902 5.413 0.707 629.194 o
0 1 3 7.330 11.613 1.132 431.922 o
0 1 4 350.122 301.970 5.805 11.947 o
0 1 5 1146.330 1140.560 16.759 2.490 o
0 1 6 64.809 67.987 3.011 58.032 o
0 1 7 483.716 457.113 9.910 6.786 o
0 1 8 389.683 378.590 9.041 8.351 o
0 1 9 48.546 44.073 3.549 64.569 o
0 1 10 6.303 2.753 3.185 159.380 o
0 2 0 1060.660 1006.810 10.537 3.486 o
0 2 1 4441.090 4411.880 53.957 0.338 o
0 2 2 597.304 586.713 11.023 5.384 o
0 2 3 1070.200 1104.630 16.652 2.606 o
0 2 4 1791.180 1832.030 25.026 1.306 o
0 2 5 1154.050 1155.080 17.316 2.414 o
0 2 6 64.273 58.839 3.022 60.186 o
0 2 7 33.388 40.741 3.530 75.265 o
0 2 8 199.983 208.315 6.554 16.189 o
0 2 9 151.286 161.659 7.085 17.846 o
0 3 0 3923.110 3974.370 39.224 0.495 o
0 3 1 718.761 696.606 9.565 5.083 o
0 3 2 145.662 161.872 3.298 28.802 o
0 3 3 520.747 526.623 9.139 6.662 o
0 3 4 507.153 534.187 9.553 6.548 o
0 3 5 161.444 166.773 4.833 22.909 o
0 3 6 151.083 143.769 5.165 23.517 o
0 3 7 2.500 3.557 1.286 713.770 o
0 3 8 52.632 47.349 4.579 48.549 o
0 4 0 1809.750 1874.900 21.201 1.468 o
0 4 1 1081.420 1043.900 12.961 3.093 o
0 4 2 191.453 188.947 4.389 21.303 o
0 4 3 47.966 44.445 2.354 85.145 o
0 4 4 414.571 408.148 9.954 7.439 o
0 4 5 556.125 553.128 20.926 2.917 o
0 4 6 117.529 118.544 5.538 25.915 o
0 4 7 18.158 23.148 4.489 70.015 o
0 5 0 534.250 541.115 8.831 6.656 o
0 5 1 1668.580 1692.770 21.612 1.551 o
0 5 2 393.529 385.263 6.675 9.874 o
0 5 3 187.155 194.132 5.724 18.592 o
0 5 4 412.538 415.695 9.026 7.972 o
0 5 5 182.577 179.738 5.902 18.758 o
0 5 6 23.843 16.996 4.774 62.514 o
0 6 0 456.150 504.412 10.037 6.751 o
0 6 1 324.789 348.560 8.019 10.056 o
0 6 2 240.779 249.152 7.544 12.938 o
0 6 3 0.162 4.690 1.076 1086.620 o
0 6 4 222.929 219.968 6.165 15.866 o
0 6 5 268.533 287.660 9.609 9.783 o
0 7 0 612.911 604.254 12.478 4.824 o
0 7 1 517.934 520.905 10.024 6.323 o
0 7 2 173.437 180.334 7.926 14.969 o
0 7 3 54.119 52.821 5.213 41.001 o
0 7 4 41.078 29.174 8.770 21.149 o
0 8 0 73.032 78.494 5.029 36.428 o
0 8 1 352.684 342.907 11.028 7.522 o
0 8 2 43.167 29.471 7.106 29.645 o
1 -9 0 218.502 236.267 10.417 9.955 o
1 -9 1 222.462 218.174 7.434 13.912 o
1 -9 2 65.056 54.176 3.616 54.101 o
1 -9 3 33.771 34.475 3.154 86.033 o
1 -9 4 342.952 343.802 9.289 8.838 o
1 -9 5 387.583 384.303 9.421 8.096 o
1 -9 6 127.889 130.557 5.402 25.038 o
1 -9 7 1.495 4.174 2.012 389.406 o
1 -9 8 32.017 20.195 3.154 95.245 o
1 -8 0 482.066 489.297 10.769 6.299 o
1 -8 1 713.725 734.351 13.900 3.966 o
1 -8 2 142.684 143.223 4.599 25.979 o
1 -8 3 0.260 0.038 0.897 2193.390 o
1 -8 4 307.832 309.850 7.087 11.486 o
1 -8 5 332.280 321.793 12.055 7.089 o
1 -8 6 94.856 91.405 4.134 37.324 o
1 -8 7 4.127 -0.397 1.226 767.307 o
1 -8 8 104.136 106.696 4.445 32.922 o
1 -8 9 173.244 170.277 9.189 12.915 o
1 -7 0 215.579 231.805 6.517 15.343 o
1 -7 1 720.385 747.082 11.751 4.439 o
1 -7 2 113.142 117.841 3.684 34.459 o
1 -7 3 7.840 6.690 1.056 503.992 o
1 -7 4 22.494 21.159 2.039 158.075 o
1 -7 5 657.670 646.233 11.424 4.902 o
1 -7 6 288.005 305.900 7.469 11.497 o
1 -7 7 25.434 22.456 2.207 139.812 o
1 -7 8 83.058 90.682 3.669 42.867 o
1 -7 9 107.982 116.159 4.493 31.538 o
1 -7 10 168.714 197.050 14.473 6.940 o
1 -6 0 204.913 209.812 4.621 19.525 o
1 -6 1 1009.250 1009.890 13.203 3.208 o
1 -6 2 2061.080 2021.410 23.454 1.250 o
1 -6 3 21.825 20.704 1.837 172.296 o
1 -6 4 1263.600 1288.970 17.522 2.229 o
1 -6 5 931.826 955.920 13.629 3.328 o
1 -6 6 551.833 544.799 9.109 6.422 o
1 -6 7 0.332 1.140 1.147 1246.630 o
1 -6 8 228.370 226.495 5.935 15.939 o
1 -6 9 153.485 158.039 5.487 21.946 o
1 -6 10 55.690 56.357 4.076 51.860 o
1 -5 0 885.349 847.765 10.615 4.066 o
1 -5 1 1094.520 1068.880 18.108 2.431 o
1 -5 2 587.855 590.755 8.379 6.338 o
1 -5 3 76.988 66.839 2.501 57.991 o
1 -5 4 543.710 550.196 8.417 6.731 o
1 -5 5 403.031 412.570 7.656 8.936 o
1 -5 6 480.546 490.168 8.861 7.196 o
1 -5 7 205.089 202.673 5.217 18.575 o
1 -5 8 70.401 74.601 3.849 46.767 o
1 -5 9 275.141 279.827 7.086 12.419 o
1 -5 10 100.142 96.282 5.690 27.937 o
1 -5 11 9.079 2.422 2.270 250.859 o
1 -4 0 1503.970 1567.650 16.957 1.970 o
1 -4 1 1608.530 1603.780 18.187 1.807 o
1 -4 2 587.663 593.328 8.594 6.256 o
1 -4 3 1681.040 1778.570 21.517 1.530 o
1 -4 4 5.706 10.172 1.130 495.201 o
1 -4 5 1584.210 1629.900 24.992 1.418 o
1 -4 6 791.159 823.787 14.209 3.626 o
1 -4 7 468.624 473.272 13.307 5.329 o
1 -4 8 26.792 26.811 2.502 120.097 o
1 -4 9 342.835 357.407 14.725 5.481 o
1 -4 10 171.924 173.630 8.900 13.379 o
1 -4 11 58.852 59.761 5.232 39.163 o
1 -3 0 28.717 31.467 1.232 156.784 o
1 -3 1 4401.070 4267.230 44.893 0.408 o
1 -3 2 2739.970 2690.270 30.936 0.808 o
1 -3 3 142.349 196.799 5.551 21.266 o
1 -3 4 433.682 464.701 8.493 7.870 o
1 -3 5 1693.900 1714.130 26.211 1.304 o
1 -3 6 277.543 278.185 6.716 12.810 o
1 -3 7 225.216 227.981 7.541 13.560 o
1 -3 8 28.655 27.799 4.149 69.646 o
1 -3 9 58.260 61.988 4.291 47.825 o
1 -3 10 73.483 66.530 7.320 24.061 o
1 -3 11 18.301 10.293 2.694 148.357 o
1 -2 0 541.062 533.718 6.111 7.727 o
1 -2 1 2303.910 2264.650 28.356 0.989 o
1 -2 2 4720.670 4574.830 62.974 0.276 o
1 -2 3 492.739 483.152 8.536 7.285 o
1 -2 4 263.883 255.641 5.627 14.786 o
1 -2 5 275.716 253.825 7.081 12.691 o
1 -2 6 1721.000 1678.100 30.568 1.113 o
1 -2 7 1075.530 1069.500 18.544 2.401 o
1 -2 8 6.472 4.070 1.772 369.231 o
1 -2 9 234.581 247.095 7.792 12.770 o
1 -2 10 219.356 219.994 10.617 9.834 o
1 -1 0 80.194 80.011 1.425 61.399 o
1 -1 1 3322.040 3130.090 69.886 0.286 o
1 -1 2 1555.100 1537.410 22.116 1.613 o
1 -1 3 2401.560 2381.180 33.993 0.814 o
1 -1 4 81.513 91.001 3.056 47.642 o
1 -1 5 1364.850 1400.840 22.019 1.755 o
1 -1 6 799.959 782.900 14.133 3.666 o
1 -1 7 121.377 130.644 5.547 25.047 o
1 -1 8 49.230 47.792 3.964 57.323 o
1 -1 9 81.638 74.278 5.208 34.191 o
1 -1 10 66.299 63.544 8.152 21.187 o
1 0 0 13.207 12.399 0.479 391.972 o
1 0 1 844.430 812.372 11.732 4.006 o
1 0 2 4141.320 4139.820 61.078 0.307 o
1 0 3 598.685 599.968 14.215 4.364 o
1 0 4 3.309 4.321 1.073 776.769 o
1 0 5 571.530 536.863 11.927 5.289 o
1 0 6 467.437 481.246 10.373 6.593 o
1 0 7 123.063 114.232 5.334 26.408 o
1 0 8 13.623 8.646 1.600 278.613 o
1 0 9 43.492 39.575 3.566 68.377 o
1 0 10 118.070 111.009 8.351 17.056 o
1 1 0 8.170 8.796 0.578 571.932 o
1 1 1 1652.310 1591.920 24.086 1.447 o
1 1 2 3096.620 3039.210 35.028 0.663 o
1 1 3 198.297 184.400 4.104 21.607 o
1 1 4 0.918 1.325 0.698 2207.950 o
1 1 5 19.584 19.631 1.839 183.171 o
1 1 6 950.533 918.310 17.245 2.786 o
1 1 7 383.156 373.293 8.332 8.929 o
1 1 8 21.196 14.269 2.412 151.545 o
1 1 9 24.851 25.666 5.291 51.564 o
1 2 0 915.319 901.178 11.855 3.708 o
1 2 1 749.343 793.442 10.443 4.583 o
1 2 2 1335.590 1349.760 17.081 2.179 o
1 2 3 1663.020 1702.610 21.273 1.570 o
1 2 4 138.270 142.158 5.191 24.462 o
1 2 5 404.021 416.213 8.278 8.511 o
1 2 6 169.748 178.331 5.312 20.810 o
1 2 7 261.354 268.491 7.783 12.004 o
1 2 8 7.495 4.270 2.145 276.622 o
1 2 9 26.655 22.113 4.128 73.215 o
1 3 0 1219.300 1291.180 16.267 2.387 o
1 3 1 374.577 362.395 8.739 8.797 o
1 3 2 1372.600 1399.490 16.416 2.181 o
1 3 3 2082.380 2071.300 25.857 1.147 o
1 3 4 861.599 892.919 15.124 3.262 o
1 3 5 279.235 288.842 7.840 11.417 o
1 3 6 286.426 287.694 8.245 10.880 o
1 3 7 181.075 188.343 7.584 15.252 o
1 3 8 103.911 96.455 6.067 25.899 o
1 4 0 153.103 143.313 4.623 25.014 o
1 4 1 358.498 366.655 6.669 10.525 o
1 4 2 537.613 567.344 10.201 6.013 o
1 4 3 49.485 52.054 2.218 82.687 o
1 4 4 34.871 36.047 2.843 91.881 o
1 4 5 9.320 7.635 1.662 323.495 o
1 4 6 181.364 171.517 8.332 14.141 o
1 4 7 30.207 24.753 5.533 46.768 o
1 5 0 159.655 156.524 4.188 25.192 o
1 5 1 88.397 86.361 3.797 41.266 o
1 5 2 656.077 657.517 13.409 4.340 o
1 5 3 389.247 391.910 8.982 8.329 o
1 5 4 85.662 90.718 4.594 36.143 o
1 5 5 3.676 0.025 1.984 396.519 o
1 5 6 191.306 182.705 15.368 6.246 o
1 6 0 196.497 202.382 8.234 13.527 o
1 6 1 2.552 -0.068 1.330 802.951 o
1 6 2 435.552 449.365 9.076 7.599 o
1 6 3 603.186 619.969 14.054 4.368 o
1 6 4 48.535 42.959 5.430 41.216 o
1 7 0 149.411 163.260 4.817 23.945 o
1 7 1 18.755 16.738 2.372 157.564 o
1 7 2 139.295 135.821 6.419 20.805 o
1 7 3 134.218 125.489 6.480 21.212 o
1 8 0 165.976 168.165 7.423 16.402 o
1 8 1 21.187 15.047 2.568 141.762 o
2 -10 2 313.227 339.789 12.151 7.098 o
2 -10 3 82.422 68.480 5.324 33.769 o
2 -10 4 1.212 -2.018 1.711 593.672 o
2 -10 5 4.598 -1.176 2.027 366.704 o
2 -9 0 10.809 7.984 2.041 247.865 o
2 -9 1 9.328 6.565 2.213 241.345 o
2 -9 2 224.293 226.622 7.089 14.271 o
2 -9 3 551.133 545.150 11.864 5.379 o
2 -9 4 132.478 131.687 5.856 23.102 o
2 -9 5 66.598 69.773 4.640 41.488 o
2 -9 6 174.975 174.857 6.947 16.945 o
2 -9 7 185.330 189.032 7.200 15.823 o
2 -9 8 10.466 7.714 1.900 271.413 o
2 -8 0 217.037 212.805 5.754 16.893 o
2 -8 1 19.195 18.571 2.332 155.773 o
2 -8 2 554.324 569.383 13.045 4.912 o
2 -8 3 908.873 857.662 22.197 2.224 o
2 -8 4 251.102 263.473 6.591 13.774 o
2 -8 5 30.822 32.405 2.449 110.485 o
2 -8 6 361.421 363.039 7.964 9.516 o
2 -8 7 210.625 208.635 6.898 15.235 o
2 -8 8 100.519 104.365 4.520 33.216 o
2 -8 9 0.770 -2.874 1.612 686.464 o
2 -7 0 175.507 182.785 6.452 17.814 o
2 -7 1 100.053 90.382 3.645 39.368 o
2 -7 2 106.983 111.514 4.469 32.086 o
2 -7 3 124.903 123.850 4.606 28.619 o
2 -7 4 88.522 87.599 3.761 41.342 o
2 -7 5 9.804 8.624 1.472 344.541 o
2 -7 6 68.190 81.416 3.105 53.120 o
2 -7 7 331.067 338.877 6.991 10.921 o
2 -7 8 208.557 218.497 5.551 17.470 o
2 -7 9 1.244 -1.708 1.351 899.650 o
2 -7 10 147.082 146.236 6.724 19.280 o
2 -6 0 396.115 402.527 7.025 9.491 o
2 -6 1 6.828 6.066 1.062 548.111 o
2 -6 2 1305.170 1279.310 22.037 1.822 o
2 -6 3 1724.850 1718.520 22.279 1.485 o
2 -6 4 757.798 764.674 10.843 4.510 o
2 -6 5 0.343 -0.094 0.734 3077.340 o
2 -6 6 550.169 533.231 9.793 6.197 o
2 -6 7 832.264 862.104 13.035 3.723 o
2 -6 8 112.076 108.852 3.801 34.774 o
2 -6 9 0.675 -0.515 1.396 904.441 o
2 -6 10 2.007 0.691 2.625 256.275 o
2 -5 0 571.136 574.406 7.923 6.659 o
2 -5 1 63.358 58.797 2.212 70.053 o
2 -5 2 380.286 390.505 6.742 9.975 o
2 -5 3 1530.090 1500.930 26.904 1.361 o
2 -5 4 841.879 835.687 12.712 3.793 o
2 -5 5 6.936 7.056 1.475 408.364 o
2 -5 6 99.267 110.057 3.313 39.429 o
2 -5 7 30.855 37.287 2.930 93.295 o
2 -5 8 298.541 313.788 10.935 8.172 o
2 -5 9 11.900 11.584 2.186 211.877 o
2 -5 10 53.172 54.347 4.194 51.695 o
2 -4 0 3110.410 3114.450 31.934 0.708 o
2 -4 1 22.559 27.837 1.410 177.955 o
2 -4 2 927.209 939.591 12.451 3.542 o
2 -4 3 928.065 937.185 17.993 2.698 o
2 -4 4 525.509 503.263 10.225 6.246 o
2 -4 5 319.568 316.225 7.713 10.641 o
2 -4 6 413.265 414.051 8.636 8.209 o
2 -4 7 718.179 736.608 13.729 3.991 o
2 -4 8 137.245 142.357 5.283 24.236 o
2 -4 9 64.295 62.806 4.033 48.526 o
2 -4 10 103.431 109.668 5.967 25.793 o
2 -3 0 601.135 585.612 7.086 6.716 o
2 -3 1 192.098 179.851 3.497 23.398 o
2 -3 2 199.846 191.214 4.835 19.856 o
2 -3 3 1820.320 1812.650 27.544 1.192 o
2 -3 4 1395.670 1413.070 20.210 1.863 o
2 -3 5 296.405 287.586 8.160 10.807 o
2 -3 6 85.102 89.836 3.578 43.128 o
2 -3 7 1154.430 1144.860 33.953 1.163 o
2 -3 8 263.503 277.684 10.397 9.165 o
2 -3 9 21.732 21.489 2.719 125.821 o
2 -3 10 1.327 0.732 2.331 327.135 o
2 -2 0 232.378 203.094 3.374 20.317 o
2 -2 1 1211.010 1180.340 16.086 2.471 o
2 -2 2 271.901 274.631 4.716 15.366 o
2 -2 3 2701.740 2653.460 59.872 0.384 o
2 -2 4 845.602 789.880 13.280 3.727 o
2 -2 5 54.715 57.252 3.844 54.789 o
2 -2 6 6.599 6.562 1.380 447.788 o
2 -2 7 175.286 177.655 6.548 17.723 o
2 -2 8 394.333 381.988 11.226 6.953 o
2 -2 9 23.580 24.957 3.645 87.088 o
2 -2 10 12.266 14.215 3.989 92.936 o
2 -1 1 14.342 17.735 0.722 314.276 o
2 -1 2 236.566 233.658 3.517 19.101 o
2 -1 3 2509.610 2592.650 48.619 0.523 o
2 -1 4 1978.820 2079.470 31.142 0.991 o
2 -1 5 68.098 67.542 3.182 55.007 o
2 -1 6 24.148 24.579 2.509 127.047 o
2 -1 7 24.951 29.750 2.921 105.599 o
2 -1 8 334.855 360.939 8.492 9.452 o
2 -1 9 66.035 58.417 6.495 29.303 o
2 -1 10 26.421 29.297 3.857 77.222 o
2 0 0 2351.790 2267.220 21.538 1.186 o
2 0 1 884.297 876.848 9.670 4.201 o
2 0 2 71.108 83.599 2.199 59.447 o
2 0 3 11.473 11.446 1.183 346.480 o
2 0 4 1382.990 1341.980 32.470 1.154 o
2 0 5 800.374 807.792 19.461 2.713 o
2 0 6 119.123 96.765 4.599 30.866 o
2 0 7 596.651 577.377 14.678 4.271 o
2 0 8 104.617 100.389 5.275 29.194 o
2 0 9 66.458 68.078 5.713 33.561 o
2 1 0 2459.680 2350.830 25.347 1.031 o
2 1 1 2652.710 2574.380 27.834 0.902 o
2 1 2 183.859 199.670 3.635 23.000 o
2 1 3 1590.740 1621.680 22.459 1.556 o
2 1 4 1268.890 1274.710 18.769 2.118 o
2 1 5 388.806 380.428 8.535 8.689 o
2 1 6 15.945 11.307 1.541 253.167 o
2 1 7 83.077 90.667 5.565 30.774 o
2 1 8 214.977 229.084 11.478 8.955 o
2 1 9 95.750 105.365 7.501 20.692 o
2 2 0 1236.310 1223.480 15.573 2.473 o
2 2 1 571.784 579.345 8.648 6.372 o
2 2 2 9.017 7.046 0.954 488.629 o
2 2 3 490.974 495.503 9.114 6.981 o
2 2 4 171.473 180.177 5.798 19.517 o
2 2 5 317.820 327.056 7.454 10.820 o
2 2 6 44.751 43.870 3.467 68.066 o
2 2 7 19.691 14.027 1.980 185.103 o
2 2 8 85.736 75.462 12.310 10.525 o
2 3 0 1859.720 1866.810 29.041 1.115 o
2 3 1 508.532 492.652 9.749 6.584 o
2 3 2 386.578 391.120 7.089 9.644 o
2 3 3 111.232 112.392 4.113 33.146 o
2 3 4 808.201 823.259 15.925 3.273 o
2 3 5 272.194 282.160 7.502 11.982 o
2 3 6 10.206 6.645 1.839 288.561 o
2 3 7 67.789 55.173 6.507 29.221 o
2 4 0 1241.330 1243.490 18.197 2.206 o
2 4 1 1172.080 1198.910 16.593 2.450 o
2 4 2 1.083 2.469 1.176 985.534 o
2 4 3 217.914 223.400 6.151 16.001 o
2 4 4 294.616 300.301 7.816 11.076 o
2 4 5 103.167 101.722 6.918 22.399 o
2 4 6 11.717 5.691 3.338 130.539 o
2 5 0 342.455 347.136 9.607 8.587 o
2 5 1 372.570 380.484 9.206 8.400 o
2 5 2 140.910 132.474 7.790 17.164 o
2 5 3 53.123 52.688 3.387 62.394 o
2 5 4 293.711 288.840 28.438 2.079 o
2 5 5 201.728 206.136 12.272 8.457 o
2 6 0 677.068 624.706 11.686 4.796 o
2 6 1 297.587 306.610 7.209 11.581 o
2 6 2 140.723 150.578 6.285 20.692 o
2 6 3 1.734 1.870 1.916 443.196 o
2 7 0 241.150 244.862 8.493 11.761 o
2 7 1 214.204 189.174 6.594 15.957 o
2 7 2 10.426 1.371 2.421 224.138 o
3 -10 2 5.816 -0.130 1.854 395.645 o
3 -10 3 103.283 103.842 5.472 28.241 o
3 -10 4 290.750 278.767 9.781 9.399 o
3 -10 5 219.262 221.021 11.589 8.846 o
3 -9 0 513.228 509.814 13.481 5.020 o
3 -9 1 308.055 303.822 12.142 7.268 o
3 -9 2 35.290 30.920 4.004 67.682 o
3 -9 3 58.340 61.024 4.052 50.469 o
3 -9 4 227.739 215.791 6.745 14.856 o
3 -9 5 147.155 136.684 5.921 21.771 o
3 -9 6 41.977 40.464 4.062 60.707 o
3 -9 7 18.481 12.802 3.336 111.762 o
3 -9 8 97.647 80.042 7.421 21.594 o
3 -8 0 278.402 282.898 7.179 12.214 o
3 -8 1 352.017 346.741 7.512 10.103 o
3 -8 2 27.632 24.257 2.375 125.855 o
3 -8 3 5.835 1.724 1.488 500.592 o
3 -8 4 259.188 256.872 9.995 9.726 o
3 -8 5 516.366 491.504 13.772 4.939 o
3 -8 6 24.476 25.391 3.253 97.972 o
3 -8 7 29.963 22.457 8.114 25.215 o
3 -8 8 76.888 81.858 9.898 15.099 o
3 -8 9 157.829 163.346 6.198 19.669 o
3 -7 0 313.742 303.307 7.904 10.656 o
3 -7 1 1563.360 1582.700 21.634 1.627 o
3 -7 2 363.354 374.694 7.790 9.547 o
3 -7 3 492.738 487.971 10.487 6.367 o
3 -7 4 658.652 664.813 14.060 4.154 o
3 -7 5 628.687 633.758 14.340 4.201 o
3 -7 6 161.013 150.145 7.333 17.113 o
3 -7 7 62.402 50.449 3.429 58.081 o
3 -7 8 152.423 164.350 8.271 15.174 o
3 -7 9 57.575 41.370 4.783 45.766 o
3 -6 0 723.426 704.745 10.568 4.792 o
3 -6 1 361.640 363.268 6.688 10.488 o
3 -6 2 430.176 420.773 7.043 8.959 o
3 -6 3 5.438 7.466 1.160 539.902 o
3 -6 4 271.638 279.305 12.598 7.308 o
3 -6 5 318.747 332.733 9.181 9.260 o
3 -6 6 480.470 494.899 9.858 6.708 o
3 -6 7 30.052 26.556 2.351 119.950 o
3 -6 8 159.221 139.851 9.126 13.703 o
3 -6 9 214.113 205.048 11.671 8.906 o
3 -6 10 4.433 -2.547 2.383 283.388 o
3 -5 0 1018.310 1029.730 12.367 3.293 o
3 -5 1 829.357 804.051 11.063 4.191 o
3 -5 2 1061.860 1079.920 15.080 2.824 o
3 -5 3 480.432 496.700 9.619 6.813 o
3 -5 4 652.869 654.613 12.047 4.727 o
3 -5 5 929.135 943.293 15.461 3.059 o
3 -5 6 514.615 523.050 10.653 6.074 o
3 -5 7 51.011 50.423 4.529 49.137 o
3 -5 8 167.862 179.610 9.935 11.791 o
3 -5 9 181.911 189.453 15.203 6.383 o
3 -5 10 120.901 120.752 15.287 6.873 o
3 -4 0 808.381 804.378 9.792 4.516 o
3 -4 1 3107.910 3066.250 33.821 0.680 o
3 -4 2 107.133 85.075 2.393 45.425 o
3 -4 3 76.461 90.341 3.435 46.323 o
3 -4 4 606.486 618.648 10.829 5.340 o
3 -4 5 756.209 764.527 12.766 4.077 o
3 -4 6 46.090 49.269 3.601 63.682 o
3 -4 7 13.829 12.652 2.225 195.353 o
3 -4 8 5.721 2.918 1.524 472.846 o
3 -4 9 75.808 74.135 5.849 31.054 o
3 -4 10 42.749 45.500 5.738 39.226 o
3 -3 0 356.024 342.300 4.889 12.167 o
3 -3 1 2476.630 2467.330 25.761 1.002 o
3 -3 2 1973.310 1956.150 31.456 0.995 o
3 -3 3 2.116 10.976 1.468 480.629 o
3 -3 4 31.622 29.521 2.589 107.088 o
3 -3 5 1058.540 1035.370 18.725 2.413 o
3 -3 6 1946.750 1930.430 31.593 0.998 o
3 -3 7 171.020 165.983 5.770 19.973 o
3 -3 8 73.028 78.117 4.035 44.031 o
3 -3 9 268.806 263.295 10.715 8.899 o
3 -3 10 113.433 110.854 6.200 24.023 o
3 -2 0 762.976 752.763 8.565 5.039 o
3 -2 1 939.316 940.808 10.934 3.762 o
3 -2 2 1817.460 1783.100 20.442 1.522 o
3 -2 3 836.368 854.278 15.232 3.321 o
3 -2 4 383.806 400.862 7.618 9.254 o
3 -2 5 679.770 676.693 19.137 3.002 o
3 -2 6 289.188 286.124 11.129 8.235 o
3 -2 7 3.609 3.761 1.399 584.180 o
3 -2 8 30.537 28.027 2.905 99.839 o
3 -2 9 57.025 52.274 4.506 47.334 o
3 -1 0 7.996 4.075 0.531 712.469 o
3 -1 1 2463.270 2398.970 23.235 1.084 o
3 -1 2 1290.550 1274.830 14.963 2.447 o
3 -1 3 160.262 159.929 3.413 27.088 o
3 -1 4 51.608 39.526 2.347 84.204 o
3 -1 5 455.110 461.397 8.494 7.698 o
3 -1 6 246.998 243.469 6.131 14.787 o
3 -1 7 125.669 116.800 5.605 25.045 o
3 -1 8 2.674 -0.830 1.498 662.266 o
3 -1 9 61.860 57.735 5.418 37.273 o
3 0 0 397.428 393.121 5.820 10.332 o
3 0 1 1909.410 1849.500 19.545 1.508 o
3 0 2 1104.550 1075.300 13.744 2.934 o
3 0 3 62.727 61.588 2.741 63.516 o
3 0 4 6.275 6.284 1.123 543.839 o
3 0 5 451.808 451.678 9.190 7.398 o
3 0 6 626.887 630.984 12.008 4.869 o
3 0 7 111.738 104.572 4.781 30.447 o
3 0 8 0.104 -2.973 1.847 555.949 o
3 1 0 232.295 239.898 3.899 18.629 o
3 1 1 429.224 405.825 6.091 9.627 o
3 1 2 1908.440 1935.740 22.256 1.368 o
3 1 3 204.166 209.691 4.661 19.492 o
3 1 4 240.272 257.136 5.618 15.507 o
3 1 5 101.326 106.921 3.816 36.627 o
3 1 6 320.273 340.444 9.414 9.009 o
3 1 7 40.541 36.263 3.494 72.587 o
3 1 8 16.299 21.314 2.961 125.448 o
3 2 0 28.977 32.071 1.777 136.826 o
3 2 1 769.612 756.829 12.238 4.170 o
3 2 2 1421.250 1402.400 18.842 1.952 o
3 2 3 1936.700 1968.310 25.004 1.237 o
3 2 4 5.337 2.666 1.027 720.763 o
3 2 5 355.674 374.620 9.236 8.580 o
3 2 6 150.809 154.679 5.208 23.023 o
3 2 7 239.161 252.222 9.390 10.678 o
3 3 0 5.469 4.914 0.963 676.987 o
3 3 1 433.261 438.684 8.002 8.272 o
3 3 2 102.241 103.202 3.727 37.272 o
3 3 3 15.728 22.797 2.937 126.288 o
3 3 4 59.615 55.387 4.432 46.938 o
3 3 5 82.392 75.557 5.074 34.838 o
3 3 6 65.328 57.466 5.159 38.728 o
3 4 0 29.828 30.320 2.076 126.433 o
3 4 1 283.091 289.706 7.109 12.128 o
3 4 2 638.638 654.957 14.011 4.233 o
3 4 3 224.286 229.372 7.015 14.346 o
3 4 4 50.576 59.956 4.973 43.265 o
3 4 5 44.762 37.393 4.569 52.856 o
3 5 0 133.822 127.418 4.753 26.986 o
3 5 1 89.770 96.951 5.486 30.024 o
3 5 2 640.947 655.809 14.818 4.019 o
3 5 3 233.878 225.885 8.256 12.393 o
3 5 4 1.293 0.866 2.344 323.229 o
3 6 0 8.626 6.210 2.034 275.066 o
3 6 1 25.484 17.686 5.124 55.379 o
3 6 2 93.132 100.107 6.109 26.506 o
3 7 0 87.988 82.040 8.131 19.615 o
4 -10 2 336.786 313.094 10.621 8.060 o
4 -10 3 293.962 281.170 13.395 6.629 o
4 -10 4 0.313 -3.327 2.618 275.617 o
4 -10 5 70.251 51.094 7.486 24.122 o
4 -9 0 15.652 9.815 2.388 179.798 o
4 -9 1 106.083 109.271 6.202 24.636 o
4 -9 2 435.592 426.320 15.390 4.742 o
4 -9 3 371.689 361.667 14.661 5.382 o
4 -9 4 38.555 40.264 4.136 61.186 o
4 -9 5 104.348 102.679 7.054 21.807 o
4 -9 6 160.813 153.544 8.124 15.377 o
4 -9 7 142.141 147.873 7.709 17.016 o
4 -8 0 4.604 4.541 1.651 436.988 o
4 -8 1 35.876 39.497 3.231 80.241 o
4 -8 2 59.882 65.857 4.032 49.420 o
4 -8 3 114.412 121.416 4.550 30.164 o
4 -8 4 55.777 52.681 4.090 52.305 o
4 -8 5 1.013 -1.504 1.715 599.715 o
4 -8 6 162.892 174.416 7.522 16.195 o
4 -8 7 223.605 232.126 8.978 11.595 o
4 -8 8 50.596 55.247 5.060 42.976 o
4 -7 0 135.197 137.297 5.371 24.297 o
4 -7 1 351.014 362.552 7.891 9.709 o
4 -7 2 1027.500 1054.770 25.173 1.789 o
4 -7 3 864.075 923.457 28.114 1.657 o
4 -7 4 134.227 140.779 6.325 21.232 o
4 -7 5 135.331 119.912 6.645 20.808 o
4 -7 6 500.094 488.003 12.214 5.597 o
4 -7 7 215.683 212.766 9.018 11.867 o
4 -7 8 20.625 16.221 2.720 133.702 o
4 -7 9 17.841 12.476 3.148 121.835 o
4 -6 0 307.879 304.648 6.187 12.430 o
4 -6 1 2.249 2.151 0.910 1177.210 o
4 -6 2 654.055 665.606 10.122 5.257 o
4 -6 3 889.126 889.782 14.397 3.339 o
4 -6 4 164.122 166.388 9.273 13.024 o
4 -6 5 9.244 7.270 1.912 283.465 o
4 -6 6 20.496 22.560 3.252 104.989 o
4 -6 7 203.033 214.789 11.238 9.411 o
4 -6 8 102.089 105.794 7.043 21.890 o
4 -6 9 16.547 9.133 3.299 119.825 o
4 -5 0 441.512 451.839 6.766 8.814 o
4 -5 1 92.273 91.183 2.898 45.678 o
4 -5 2 499.176 507.867 8.723 7.057 o
4 -5 3 432.939 435.462 8.326 8.104 o
4 -5 4 494.158 492.609 10.056 6.538 o
4 -5 5 0.306 -0.144 2.257 369.642 o
4 -5 6 563.796 536.794 20.131 3.071 o
4 -5 7 183.024 182.513 10.285 11.024 o
4 -5 8 134.777 145.401 7.858 16.990 o
4 -5 9 1.173 2.502 3.522 147.069 o
4 -4 0 434.406 425.798 6.960 8.931 o
4 -4 1 24.530 26.767 1.483 169.155 o
4 -4 2 499.758 487.421 7.723 7.594 o
4 -4 3 1280.600 1272.710 19.411 2.054 o
4 -4 4 471.856 471.728 10.503 6.534 o
4 -4 5 60.692 58.922 3.943 51.225 o
4 -4 6 382.085 364.517 13.841 5.708 o
4 -4 7 558.094 538.953 22.732 2.608 o
4 -4 8 52.766 51.203 5.333 40.358 o
4 -4 9 35.699 40.055 6.483 34.459 o
4 -3 0 952.565 917.511 10.673 3.801 o
4 -3 1 56.865 53.642 1.931 79.939 o
4 -3 2 893.039 871.439 13.733 3.462 o
4 -3 3 1149.230 1110.650 17.299 2.444 o
4 -3 4 230.360 236.026 7.188 13.840 o
4 -3 5 18.619 17.186 2.418 154.487 o
4 -3 6 3.473 0.331 1.167 855.459 o
4 -3 7 284.981 283.865 10.303 8.974 o
4 -3 8 100.678 95.800 9.941 14.158 o
4 -3 9 17.155 14.178 5.211 57.934 o
4 -2 0 623.215 611.275 7.910 6.227 o
4 -2 1 1.331 1.478 0.550 2397.100 o
4 -2 2 430.581 448.084 7.211 8.705 o
4 -2 3 1585.210 1627.580 21.398 1.619 o
4 -2 4 498.436 477.584 9.812 6.669 o
4 -2 5 5.478 6.337 1.611 409.597 o
4 -2 6 3.965 2.695 1.212 697.144 o
4 -2 7 135.523 141.958 5.901 22.405 o
4 -2 8 234.769 229.031 12.439 7.914 o
4 -2 9 5.748 0.603 2.427 260.239 o
4 -1 0 1707.940 1734.710 17.941 1.723 o
4 -1 1 198.137 202.019 3.669 21.899 o
4 -1 2 88.745 109.660 2.880 44.300 o
4 -1 3 448.691 416.092 6.336 9.176 o
4 -1 4 1277.800 1310.650 16.618 2.288 o
4 -1 5 44.793 44.956 4.176 56.799 o
4 -1 6 414.871 389.018 9.027 8.071 o
4 -1 7 149.796 148.306 5.818 21.550 o
4 -1 8 88.950 89.447 10.718 12.966 o
4 0 0 2178.550 2156.280 21.906 1.246 o
4 0 1 146.884 151.032 3.449 28.814 o
4 0 2 736.731 755.195 10.338 4.714 o
4 0 3 787.489 784.848 10.864 4.382 o
4 0 4 481.231 483.548 8.825 7.232 o
4 0 5 169.954 166.422 7.909 15.319 o
4 0 6 1.293 -0.855 1.345 901.609 o
4 0 7 154.065 165.448 7.077 17.670 o
4 0 8 104.834 116.432 6.655 22.757 o
4 1 0 610.825 605.084 8.126 6.247 o
4 1 1 236.274 232.786 5.080 16.866 o
4 1 2 111.634 113.607 3.425 36.250 o
4 1 3 152.744 153.637 4.388 25.319 o
4 1 4 264.547 271.431 6.641 13.279 o
4 1 5 175.970 185.201 5.405 20.058 o
4 1 6 0.484 -1.000 1.555 753.524 o
4 1 7 41.148 29.159 5.151 47.840 o
4 2 0 703.199 696.942 11.608 4.607 o
4 2 1 594.679 601.660 9.983 5.714 o
4 2 2 35.355 37.091 2.552 98.136 o
4 2 3 593.211 623.361 13.259 4.623 o
4 2 4 348.642 362.959 7.915 9.719 o
4 2 5 85.114 88.707 4.067 39.879 o
4 2 6 10.644 11.235 2.702 170.634 o
4 3 0 1210.600 1201.140 16.058 2.463 o
4 3 1 149.379 154.984 5.559 22.102 o
4 3 2 13.473 12.419 2.090 210.327 o
4 3 3 153.415 157.818 6.342 19.670 o
4 3 4 186.146 174.660 6.319 17.821 o
4 3 5 53.713 53.227 5.696 36.867 o
4 4 0 278.621 284.173 6.192 13.319 o
4 4 1 308.530 310.849 7.191 11.363 o
4 4 2 6.234 4.146 1.942 331.614 o
4 4 3 122.524 110.197 6.603 21.993 o
4 4 4 239.936 255.433 17.730 4.707 o
4 5 0 365.284 364.007 11.186 7.245 o
4 5 1 175.347 178.496 10.394 11.036 o
4 5 2 53.340 52.922 4.520 48.165 o
4 6 0 255.923 253.498 13.598 6.818 o
5 -9 0 203.883 199.835 8.719 12.650 o
5 -9 1 119.781 124.152 6.783 21.149 o
5 -9 2 41.049 38.228 4.278 58.293 o
5 -9 3 27.794 25.534 3.409 89.460 o
5 -9 4 331.950 338.833 12.959 6.492 o
5 -9 5 129.956 127.381 7.277 19.064 o
5 -9 6 0.422 -2.048 2.118 416.291 o
5 -8 0 523.554 523.038 14.543 4.603 o
5 -8 1 651.065 643.394 11.135 5.015 o
5 -8 2 22.555 17.561 1.997 166.136 o
5 -8 3 283.629 283.253 7.981 11.239 o
5 -8 4 338.465 338.296 9.817 8.516 o
5 -8 5 286.737 296.531 11.819 7.686 o
5 -8 6 3.794 0.704 2.925 199.995 o
5 -8 7 64.084 58.103 5.673 34.943 o
5 -7 0 165.809 165.012 6.282 19.030 o
5 -7 1 275.582 278.748 7.339 12.133 o
5 -7 2 169.375 177.010 6.401 18.316 o
5 -7 3 38.592 39.290 3.264 77.486 o
5 -7 4 134.616 140.918 5.709 23.107 o
5 -7 5 329.701 334.288 9.359 8.982 o
5 -7 6 216.632 198.048 10.868 9.739 o
5 -7 7 7.690 1.207 5.149 67.000 o
5 -7 8 182.247 185.907 11.901 9.123 o
5 -6 0 661.125 670.353 15.499 3.790 o
5 -6 1 573.221 568.964 10.859 5.588 o
5 -6 2 580.330 559.490 10.699 5.634 o
5 -6 3 22.754 13.262 2.126 165.224 o
5 -6 4 588.578 591.932 12.309 4.986 o
5 -6 5 376.409 376.601 10.726 7.398 o
5 -6 6 145.410 151.803 6.228 20.556 o
5 -6 7 11.947 10.982 3.025 143.339 o
5 -6 8 89.964 78.428 8.428 18.664 o
5 -5 0 1120.290 1120.380 15.024 2.728 o
5 -5 1 510.768 495.406 8.171 7.268 o
5 -5 2 4.251 4.488 1.055 716.570 o
5 -5 3 49.077 51.480 2.840 73.240 o
5 -5 4 485.437 485.785 10.959 6.206 o
5 -5 5 29.536 31.191 3.909 73.145 o
5 -5 6 11.141 9.276 2.452 195.131 o
5 -5 7 6.499 2.765 2.394 250.782 o
5 -5 8 29.491 26.654 7.523 28.556 o
5 -4 0 520.133 534.352 7.526 7.326 o
5 -4 1 1729.750 1749.980 20.192 1.584 o
5 -4 2 288.165 289.749 6.438 12.757 o
5 -4 3 8.134 5.820 1.249 454.631 o
5 -4 4 218.157 197.232 19.266 4.249 o
5 -4 5 1689.210 1720.820 34.838 0.959 o
5 -4 6 488.687 476.581 18.417 3.627 o
5 -4 7 0.262 4.348 2.637 253.408 o
5 -4 8 140.172 132.361 8.233 16.161 o
5 -3 0 316.539 325.307 5.071 13.074 o
5 -3 1 713.239 701.710 9.259 5.174 o
5 -3 2 1020.050 1052.500 14.244 3.012 o
5 -3 3 0.195 -0.481 0.964 1957.880 o
5 -3 4 236.930 127.028 10.862 9.943 o
5 -3 5 188.032 197.806 8.464 13.421 o
5 -3 6 78.923 88.342 4.768 36.361 o
5 -3 7 0.384 0.845 2.385 324.771 o
5 -3 8 10.672 9.737 3.396 125.235 o
5 -2 0 497.171 496.100 7.068 7.883 o
5 -2 1 1142.950 1151.920 13.243 2.883 o
5 -2 2 340.419 338.393 6.317 11.347 o
5 -2 3 33.624 37.439 2.528 100.730 o
5 -2 4 144.721 143.786 6.736 19.426 o
5 -2 5 224.243 236.333 7.070 14.170 o
5 -2 6 209.349 204.272 5.839 17.209 o
5 -2 7 17.216 14.556 3.408 109.251 o
5 -2 8 14.071 9.756 3.164 131.304 o
5 -1 0 450.850 448.669 6.989 8.608 o
5 -1 1 959.082 948.308 11.410 3.633 o
5 -1 2 315.902 321.270 5.602 12.644 o
5 -1 3 37.335 38.312 2.061 107.183 o
5 -1 4 76.994 76.629 3.217 49.957 o
5 -1 5 446.391 463.426 9.275 7.350 o
5 -1 6 184.344 181.779 5.742 18.974 o
5 -1 7 27.033 17.474 3.081 105.689 o
5 0 0 61.471 61.242 2.513 66.951 o
5 0 1 711.403 702.450 9.759 5.049 o
5 0 2 726.121 739.439 10.777 4.671 o
5 0 3 3.282 1.958 1.119 841.298 o
5 0 4 37.084 40.343 2.496 95.555 o
5 0 5 164.706 167.950 5.155 21.812 o
5 0 6 136.608 124.828 7.821 17.405 o
5 0 7 0.707 -1.836 2.941 216.572 o
5 1 0 151.628 151.627 3.607 27.816 o
5 1 1 587.610 577.188 11.678 5.225 o
5 1 2 1432.150 1401.340 23.688 1.607 o
5 1 3 437.543 445.643 8.675 7.820 o
5 1 4 134.772 140.565 5.558 23.594 o
5 1 5 107.067 111.926 5.977 25.348 o
5 1 6 197.484 206.190 9.040 12.255 o
5 2 0 67.148 63.584 2.976 58.342 o
5 2 1 137.190 134.313 4.693 26.562 o
5 2 2 8.473 7.375 1.934 287.302 o
5 2 3 83.716 82.790 4.707 36.417 o
5 2 4 2.890 2.076 1.842 440.724 o
5 2 5 67.783 57.959 6.534 28.915 o
5 3 0 8.629 3.243 1.464 415.827 o
5 3 1 425.526 418.515 8.229 8.313 o
5 3 2 401.227 389.244 9.425 7.947 o
5 3 3 81.766 82.559 6.615 25.972 o
5 3 4 1.565 -2.271 2.651 258.002 o
5 4 0 7.037 5.443 2.168 271.461 o
5 4 1 255.758 254.133 7.856 12.170 o
5 4 2 343.137 348.023 14.904 5.416 o
5 5 0 0.934 1.565 2.722 244.116 o
6 -9 0 0.325 2.494 2.171 375.153 o
6 -9 1 12.027 10.632 2.456 187.539 o
6 -9 2 50.551 51.801 5.878 36.061 o
6 -9 3 56.652 59.803 6.329 31.345 o
6 -9 4 21.623 19.301 3.404 100.092 o
6 -9 5 27.197 23.942 4.836 58.260 o
6 -8 0 10.408 4.327 1.833 300.002 o
6 -8 1 388.340 379.463 8.677 8.603 o
6 -8 2 513.410 525.726 14.298 4.710 o
6 -8 3 269.042 280.347 10.053 9.402 o
6 -8 4 1.245 2.398 1.973 426.689 o
6 -8 5 170.842 167.827 12.891 8.350 o
6 -8 6 171.873 172.894 8.015 14.961 o
6 -7 0 166.327 172.084 5.955 19.613 o
6 -7 1 73.226 70.121 3.117 53.237 o
6 -7 2 433.822 453.551 9.369 7.436 o
6 -7 3 288.378 286.044 8.051 11.062 o
6 -7 4 37.024 31.544 3.483 76.981 o
6 -7 5 1.565 2.393 1.964 422.631 o
6 -7 6 79.806 84.204 4.668 37.240 o
6 -7 7 128.327 120.848 7.335 19.135 o
6 -6 0 13.246 10.836 1.672 263.065 o
6 -6 1 77.894 77.779 6.013 29.655 o
6 -6 2 204.801 213.955 6.056 16.806 o
6 -6 3 291.444 297.636 6.725 12.291 o
6 -6 4 108.897 107.179 4.368 32.611 o
6 -6 5 124.651 119.245 5.712 24.638 o
6 -6 6 152.814 158.854 7.873 16.070 o
6 -6 7 109.277 108.405 10.258 13.172 o
6 -5 0 156.685 160.780 3.944 25.941 o
6 -5 1 17.367 16.064 1.706 212.355 o
6 -5 2 573.800 578.759 11.147 5.462 o
6 -5 3 428.235 441.951 9.874 7.249 o
6 -5 4 154.853 152.972 6.633 18.978 o
6 -5 5 4.372 2.259 1.849 403.369 o
6 -5 6 386.332 401.432 41.271 1.031 o
6 -5 7 101.694 77.233 8.580 17.742 o
6 -4 0 230.353 236.625 4.746 17.534 o
6 -4 1 78.126 82.825 2.967 50.633 o
6 -4 2 480.446 493.786 9.050 7.092 o
6 -4 3 370.934 376.224 10.030 7.885 o
6 -4 4 36.096 33.553 3.554 75.404 o
6 -4 5 14.698 14.866 2.793 145.797 o
6 -4 6 37.079 41.805 5.477 43.472 o
6 -4 7 136.828 145.430 8.680 15.094 o
6 -3 0 130.405 151.035 3.846 29.356 o
6 -3 1 4.570 3.516 0.884 832.940 o
6 -3 2 489.480 488.425 8.685 7.219 o
6 -3 3 578.054 577.108 10.784 5.573 o
6 -3 4 121.368 123.137 7.003 20.405 o
6 -3 5 0.370 0.230 1.497 810.592 o
6 -3 6 19.236 22.841 3.966 82.769 o
6 -3 7 196.827 197.728 10.070 10.957 o
6 -2 0 388.006 402.514 6.881 9.692 o
6 -2 1 133.769 137.253 3.570 30.739 o
6 -2 2 18.080 15.593 1.542 222.761 o
6 -2 3 686.377 697.799 10.946 4.838 o
6 -2 4 306.814 298.042 7.437 11.265 o
6 -2 5 78.823 79.110 5.795 30.696 o
6 -2 6 146.423 136.014 8.269 15.813 o
6 -2 7 47.140 54.945 10.218 15.603 o
6 -1 0 541.475 564.172 8.179 6.794 o
6 -1 1 102.862 101.311 4.223 34.658 o
6 -1 2 336.477 346.921 6.931 10.818 o
6 -1 3 257.035 261.608 5.571 14.974 o
6 -1 4 221.585 234.210 5.766 16.311 o
6 -1 5 97.010 89.699 4.645 34.120 o
6 -1 6 31.651 25.234 3.266 89.698 o
6 0 0 398.598 411.085 7.087 9.365 o
6 0 1 17.248 14.375 2.411 163.729 o
6 0 2 65.713 62.525 3.876 49.699 o
6 0 3 131.401 133.941 4.167 29.046 o
6 0 4 189.510 195.869 5.150 19.629 o
6 0 5 22.578 14.466 3.382 102.768 o
6 1 0 428.958 445.033 7.873 8.357 o
6 1 1 271.681 266.757 6.485 13.353 o
6 1 2 137.664 124.702 4.686 26.992 o
6 1 3 285.873 287.505 9.201 9.945 o
6 1 4 109.972 112.958 5.979 25.058 o
6 2 0 266.716 260.998 5.819 14.382 o
6 2 1 16.838 11.537 1.925 209.442 o
6 2 2 5.122 3.761 2.593 227.436 o
6 2 3 143.797 133.087 7.722 17.205 o
6 3 0 262.045 268.404 16.899 4.969 o
6 3 1 65.411 64.540 5.389 36.299 o
6 3 2 9.925 7.141 6.405 43.146 o
6 4 0 152.144 150.609 8.883 14.191 o
7 -8 0 66.454 63.094 4.310 45.226 o
7 -8 1 216.220 218.967 12.378 8.170 o
7 -8 2 15.162 11.240 2.709 155.121 o
7 -8 3 26.516 21.742 4.213 71.492 o
7 -8 4 106.837 106.917 6.810 22.384 o
7 -7 0 313.785 311.251 7.440 11.030 o
7 -7 1 297.928 282.621 7.792 11.195 o
7 -7 2 52.547 51.559 4.391 50.070 o
7 -7 3 157.271 164.441 7.694 16.201 o
7 -7 4 211.626 206.114 6.733 15.521 o
7 -7 5 107.400 98.763 5.554 27.709 o
7 -6 0 361.561 387.585 7.864 9.434 o
7 -6 1 41.134 44.621 2.806 82.585 o
7 -6 2 2.561 3.034 1.416 641.218 o
7 -6 3 87.711 80.364 4.153 39.612 o
7 -6 4 78.588 81.678 6.900 24.964 o
7 -6 5 4.569 1.930 2.958 189.562 o
7 -6 6 11.557 6.960 3.098 144.755 o
7 -5 0 630.045 653.630 9.205 5.668 o
7 -5 1 497.307 509.638 9.133 6.879 o
7 -5 2 59.024 56.526 3.220 60.802 o
7 -5 3 1.691 1.291 1.454 714.418 o
7 -5 4 706.080 692.959 18.235 3.117 o
7 -5 5 631.409 607.901 21.581 2.683 o
7 -5 6 29.950 20.511 4.570 62.560 o
7 -4 0 143.573 148.589 4.195 26.955 o
7 -4 1 531.155 561.193 9.570 6.314 o
7 -4 2 102.593 105.674 3.928 35.919 o
7 -4 3 24.574 19.403 2.484 132.756 o
7 -4 4 25.309 23.821 3.667 85.352 o
7 -4 5 81.459 93.224 14.120 8.288 o
7 -4 6 15.255 14.578 4.667 70.269 o
7 -3 0 459.387 475.673 8.093 7.809 o
7 -3 1 301.816 308.266 6.371 12.334 o
7 -3 2 122.156 129.121 4.247 30.064 o
7 -3 3 5.189 4.170 1.533 467.027 o
7 -3 4 101.753 101.271 8.836 16.594 o
7 -3 5 143.642 150.682 8.591 14.996 o
7 -2 0 271.735 277.826 5.873 13.949 o
7 -2 1 355.621 366.503 7.041 10.280 o
7 -2 2 84.828 83.818 3.479 44.643 o
7 -2 3 0.141 1.092 1.460 831.981 o
7 -2 4 152.995 141.854 5.456 22.592 o
7 -2 5 136.030 132.290 8.050 16.730 o
7 -1 0 107.990 106.692 3.631 36.460 o
7 -1 1 444.715 459.623 7.656 8.251 o
7 -1 2 98.587 99.075 4.223 35.515 o
7 -1 3 0.371 -2.857 1.149 1354.500 o
7 -1 4 37.323 33.147 2.978 87.549 o
7 0 0 170.696 170.330 4.120 23.943 o
7 0 1 523.380 535.217 10.832 5.923 o
7 0 2 628.643 602.290 13.828 4.384 o
7 0 3 0.342 -1.569 1.340 1017.640 o
7 0 4 51.353 44.547 3.899 58.003 o
7 1 0 53.379 52.758 2.924 68.795 o
7 1 1 6.165 3.736 1.489 461.669 o
7 1 2 11.787 8.948 2.713 169.723 o
7 1 3 70.897 51.807 7.885 22.326 o
7 2 0 83.537 89.521 11.924 11.022 o
7 2 1 388.755 364.974 8.618 8.715 o
8 -7 0 0.025 -1.164 1.914 520.319 o
8 -7 1 37.237 34.306 6.594 33.769 o
8 -7 2 95.691 101.165 6.561 24.319 o
8 -7 3 105.222 106.487 7.913 18.887 o
8 -6 0 19.360 11.027 2.822 137.194 o
8 -6 1 101.642 97.316 5.693 27.721 o
8 -6 2 246.356 249.024 8.093 12.116 o
8 -6 3 112.111 121.088 9.044 15.425 o
8 -6 4 35.703 26.150 3.972 69.482 o
8 -5 0 2.300 2.046 1.485 636.435 o
8 -5 1 68.433 64.614 4.937 39.217 o
8 -5 2 206.549 220.562 8.398 12.836 o
8 -5 3 63.553 69.753 5.536 35.103 o
8 -5 4 10.187 11.637 4.111 92.113 o
8 -4 0 40.223 41.273 3.131 78.171 o
8 -4 1 58.032 47.667 3.754 56.474 o
8 -4 2 235.531 228.235 7.571 13.264 o
8 -4 3 198.789 188.202 8.119 13.830 o
8 -4 4 17.173 12.276 3.393 111.705 o
8 -3 0 129.983 126.968 4.739 27.430 o
8 -3 1 28.768 23.404 2.380 124.259 o
8 -3 2 134.286 137.431 8.802 15.035 o
8 -3 3 263.618 270.557 10.265 9.328 o
8 -3 4 4.153 4.197 7.442 33.565 o
8 -2 0 5.313 5.781 1.508 450.992 o
8 -2 1 101.295 93.104 4.690 33.005 o
8 -2 2 78.428 74.717 8.176 20.135 o
8 -2 3 107.153 119.360 7.690 19.155 o
8 -1 0 137.965 127.027 4.917 26.040 o
8 -1 1 1.665 1.589 1.619 595.340 o
8 -1 2 44.933 43.573 5.151 44.847 o
8 0 0 265.484 244.718 5.670 14.845 o
8 0 1 0.894 -2.098 1.324 970.855 o
9 -5 0 119.312 135.877 8.342 16.575 o
9 -4 0 138.192 129.881 6.546 20.662 o
9 -4 1 102.714 93.648 8.862 16.631 o
9 -3 0 142.329 142.801 6.850 19.264 o
;
_olex2_submission_special_instructions 'No special instructions were received'
loop_
_space_group_symop_id
_space_group_symop_operation_xyz
1 x,y,z
2 -x,-y,-z
loop_
_atom_site_label
_atom_site_type_symbol
_atom_site_fract_x
_atom_site_fract_y
_atom_site_fract_z
_atom_site_U_iso_or_equiv
_atom_site_adp_type
_atom_site_occupancy
_atom_site_refinement_flags_posn
Br1 Br 0.26484(3) 0.48224(3) 0.62148(3) 0.02591(7) Uani 1.000000 .
F2 F 0.20862(17) 0.21502(17) 0.82927(13) 0.0270(2) Uani 1.000000 .
F1 F 0.00595(18) 0.17940(17) 0.27331(14) 0.0271(2) Uani 1.000000 .
N1 N 0.5413(2) 0.9140(2) 0.66949(19) 0.0207(3) Uani 1.000000 .
C4 C 0.5504(2) 1.0437(3) 0.5922(2) 0.0166(3) Uani 1.000000 .
C2 C 0.0034(3) 0.0927(3) 0.3870(2) 0.0201(3) Uani 1.000000 .
C3 C 0.1061(3) 0.1108(3) 0.6665(2) 0.0193(3) Uani 1.000000 .
C1 C 0.1109(3) 0.2069(3) 0.5535(2) 0.0194(3) Uani 1.000000 .
C8 C 0.6483(3) 1.2498(3) 0.6783(2) 0.0216(4) Uani 1.000000 .
C5 C 0.6340(3) 0.9897(3) 0.8342(2) 0.0255(4) Uani 1.000000 .
C6 C 0.7352(3) 1.1924(3) 0.9298(2) 0.0272(4) Uani 1.000000 .
C7 C 0.7403(3) 1.3243(3) 0.8499(2) 0.0260(4) Uani 1.000000 .
H5 H 0.6304(3) 0.8991(3) 0.8893(2) 0.0306(5) Uiso 1.000000 R
H6 H 0.7992(3) 1.2393(3) 1.0469(2) 0.0327(5) Uiso 1.000000 R
H7 H 0.8061(3) 1.4643(3) 0.9118(2) 0.0312(5) Uiso 1.000000 R
H8 H 0.6519(3) 1.3378(3) 0.6205(2) 0.0259(4) Uiso 1.000000 R
loop_
_atom_site_aniso_label
_atom_site_aniso_U_11
_atom_site_aniso_U_22
_atom_site_aniso_U_33
_atom_site_aniso_U_12
_atom_site_aniso_U_13
_atom_site_aniso_U_23
Br1 0.02454(10) 0.01888(9) 0.03421(12) 0.00837(7) 0.00843(8) 0.00962(8)
F2 0.0275(6) 0.0309(6) 0.0179(5) 0.0101(5) 0.0032(4) 0.0057(5)
F1 0.0339(6) 0.0317(6) 0.0266(6) 0.0162(5) 0.0112(5) 0.0201(5)
N1 0.0196(7) 0.0244(7) 0.0196(7) 0.0082(6) 0.0059(6) 0.0102(6)
C4 0.0124(7) 0.0219(8) 0.0163(8) 0.0076(6) 0.0048(6) 0.0068(7)
C2 0.0202(8) 0.0256(9) 0.0229(9) 0.0125(7) 0.0096(7) 0.0145(7)
C3 0.0167(8) 0.0237(8) 0.0181(8) 0.0097(7) 0.0047(6) 0.0067(7)
C1 0.0179(8) 0.0186(8) 0.0247(9) 0.0089(7) 0.0086(7) 0.0089(7)
C8 0.0184(8) 0.0226(9) 0.0216(9) 0.0077(7) 0.0034(7) 0.0064(7)
C5 0.0239(9) 0.0365(10) 0.0210(9) 0.0122(8) 0.0083(7) 0.0157(8)
C6 0.0203(9) 0.0406(11) 0.0155(8) 0.0098(8) 0.0027(7) 0.0068(8)
C7 0.0218(9) 0.0250(9) 0.0216(9) 0.0061(7) 0.0012(7) 0.0013(7)
loop_
_atom_type_symbol
_atom_type_scat_dispersion_real
_atom_type_scat_dispersion_imag
_atom_type_scat_Cromer_Mann_a1
_atom_type_scat_Cromer_Mann_a2
_atom_type_scat_Cromer_Mann_a3
_atom_type_scat_Cromer_Mann_a4
_atom_type_scat_Cromer_Mann_b1
_atom_type_scat_Cromer_Mann_b2
_atom_type_scat_Cromer_Mann_b3
_atom_type_scat_Cromer_Mann_b4
_atom_type_scat_Cromer_Mann_c
_atom_type_scat_source
_atom_type_scat_dispersion_source
H 0.00000 0.00000 0.49300 0.32291 0.14019 0.04081 10.51090 26.12570 3.14236
57.79970 0.0030380000826
'International Tables Volume C Table 6.1.1.4 (pp. 500-502)'
'Henke, Gullikson and Davis, At. Data and Nucl. Data Tables, 1993, 54, 2'
C 0.00347 0.00161 2.31000 1.02000 1.58860 0.86500 20.84390 10.20750 0.56870
51.65120 0.215599998832
'International Tables Volume C Table 6.1.1.4 (pp. 500-502)'
'Henke, Gullikson and Davis, At. Data and Nucl. Data Tables, 1993, 54, 2'
F 0.01794 0.01033 3.53920 2.64120 1.51700 1.02430 10.28250 4.29440 0.26150
26.14760 0.277599990368
'International Tables Volume C Table 6.1.1.4 (pp. 500-502)'
'Henke, Gullikson and Davis, At. Data and Nucl. Data Tables, 1993, 54, 2'
Br -0.28346 2.55990 17.17890 5.23580 5.63770 3.98510 2.17230 16.57960 0.26090
41.43280 2.95569992065
'International Tables Volume C Table 6.1.1.4 (pp. 500-502)'
'Henke, Gullikson and Davis, At. Data and Nucl. Data Tables, 1993, 54, 2'
N 0.00653 0.00323 12.21260 3.13220 2.01250 1.16630 0.00570 9.89330 28.99750
0.58260 -11.5290002823
'International Tables Volume C Table 6.1.1.4 (pp. 500-502)'
'Henke, Gullikson and Davis, At. Data and Nucl. Data Tables, 1993, 54, 2'
loop_
_diffrn_refln_index_h
_diffrn_refln_index_k
_diffrn_refln_index_l
_diffrn_refln_intensity_net
_diffrn_refln_intensity_u
-1 0 0 17.9 1.9
-1 0 0 15.4 1.6
-1 0 0 14.2 1.9
-1 0 0 15.5 1.6
1 0 0 14.3 1.7
1 0 0 15.6 1.5
1 0 0 12.6 1.8
1 0 0 16.5 1.6
-2 0 0 2881.31 81.09
-2 0 0 2823.82 79.39
-2 0 0 2858.91 79.49
-2 0 0 2779.92 80.79
2 0 0 2814.82 80.49
2 0 0 2771.92 80.69
2 0 0 2768.92 79.39
2 0 0 2857.21 79.39
2 0 0 2797.82 82.19
-3 0 0 470.65 18.2
-3 0 0 504.35 20.1
3 0 0 496.35 19.8
3 0 0 499.95 19.3
3 0 0 496.75 18.2
3 0 0 456.95 20.8
3 0 0 489.95 18.1
-4 0 0 2694.93 83.19
-4 0 0 2647.24 82.29
-4 0 0 2621.74 79.69
4 0 0 2655.23 84.79
4 0 0 2759.32 79.49
4 0 0 2792.92 81.19
4 0 0 2773.42 82.39
4 0 0 2506.85 83.59
4 0 0 2636.44 79.09
-5 0 0 72.69 9.7
-5 0 0 73.39 9.4
5 0 0 73.19 8.4
5 0 0 74.09 9.6
5 0 0 88.09 8.2
5 0 0 76.79 9.1
5 0 0 72.29 10.1
5 0 0 73.19 7.3
-6 0 0 502.75 27.2
6 0 0 502.75 22.4
6 0 0 532.95 24.9
6 0 0 519.15 23.1
6 0 0 458.05 26.9
6 0 0 536.75 26.9
6 0 0 516.05 21.8
6 0 0 503.55 29
-7 0 0 196.58 18.9
7 0 0 230.58 12
7 0 0 191.98 17.7
7 0 0 207.18 14.7
7 0 0 193.98 18.4
7 0 0 209.78 15.3
7 0 0 227.18 13.6
7 0 0 219.98 20.2
7 0 0 195.78 13.5
-8 0 0 319.57 25.4
8 0 0 305.17 18.2
8 0 0 306.37 18.7
8 0 0 288.57 14.4
8 0 0 282.87 24
8 0 0 322.77 16.5
8 0 0 303.57 20.1
8 -1 0 182.18 25.1
8 -1 0 148.29 12.3
8 -1 0 139.79 13.7
8 -1 0 167.98 19.4
8 -1 0 163.08 13.5
8 -1 0 165.78 14
7 -1 0 141.39 14.6
7 -1 0 126.59 15.6
7 -1 0 137.89 12.2
7 -1 0 116.89 11.7
7 -1 0 118.49 11
7 -1 0 161.08 15.6
7 -1 0 136.49 13.5
7 -1 0 130.69 10.9
6 -1 0 682.23 29.4
6 -1 0 693.23 33.8
6 -1 0 689.83 33.5
6 -1 0 658.13 30.3
6 -1 0 752.32 32.3
6 -1 0 720.03 27.6
6 -1 0 731.43 28.9
6 -1 0 705.43 28.5
-6 1 0 658.43 32.2
5 -1 0 563.44 22.9
5 -1 0 570.94 22.1
5 -1 0 536.45 23.7
5 -1 0 576.24 28.1
5 -1 0 563.74 26.9
5 -1 0 567.04 23.5
5 -1 0 531.05 24.9
-5 1 0 549.15 26.3
4 -1 0 2216.78 64.99
4 -1 0 2130.09 67.09
4 -1 0 2191.58 69.09
4 -1 0 2082.59 63.59
4 -1 0 2187.88 67.69
4 -1 0 2163.38 66.39
4 -1 0 2209.48 69.29
-4 1 0 2118.39 66.29
-4 1 0 2104.19 68.29
3 -1 0 5.2 1.8
3 -1 0 4 1.8
3 -1 0 3.9 2.1
3 -1 0 3.9 1.5
3 -1 0 7.3 2.4
3 -1 0 6.2 2.1
3 -1 0 4.4 2
-3 1 0 7.5 2.8
-3 1 0 4.7 2.1
1 -1 0 96.09 4
1 -1 0 104.39 5.1
1 -1 0 96.79 4.2
1 -1 0 93.39 5
-1 1 0 93.59 4.2
-1 1 0 106.69 4.2
-1 1 0 102.79 5.3
-1 1 0 103.49 5.8
0 -1 0 51.89 2.9
0 -1 0 51.99 3
0 -1 0 52.99 2.4
0 -1 0 52.89 2.8
0 1 0 51.29 2.4
0 1 0 56.99 3
0 1 0 53.29 2.9
-1 -1 0 10.5 2.2
-1 -1 0 12.2 2.4
-1 -1 0 10.8 1.4
1 1 0 9.6 2.1
1 1 0 10.7 2.1
1 1 0 11.3 1.3
-2 -1 0 2938.61 85.19
-2 -1 0 2944.11 84.39
-2 -1 0 2891.41 84.19
2 1 0 2919.71 83.89
2 1 0 2914.71 80.89
2 1 0 2875.11 80.59
2 1 0 2972.6 84.69
-3 -1 0 298.77 15.4
-3 -1 0 292.57 14.8
-3 -1 0 310.67 14.6
3 1 0 303.67 16.7
3 1 0 283.97 10.8
3 1 0 288.87 14.6
3 1 0 316.87 14.2
3 1 0 298.27 11.7
-4 -1 0 724.93 29
-4 -1 0 797.22 31.1
-4 -1 0 746.33 30.9
4 1 0 764.32 28.4
4 1 0 750.22 32.9
4 1 0 745.23 25.5
4 1 0 739.23 24.1
4 1 0 757.22 30
-5 -1 0 183.18 13.5
-5 -1 0 204.18 15.5
-5 -1 0 175.08 14.8
5 1 0 192.38 12.5
5 1 0 175.18 9.1
5 1 0 196.78 15.6
5 1 0 205.58 10.7
5 1 0 172.48 15.4
-6 -1 0 554.64 27.6
-6 -1 0 559.34 35.4
-6 -1 0 542.55 28.8
6 1 0 523.65 19.5
6 1 0 535.35 21.8
6 1 0 549.74 25.3
6 1 0 652.83 27
6 1 0 514.65 29.5
-7 -1 0 69.69 13.2
7 1 0 61.39 5.8
7 1 0 66.39 6.6
7 1 0 72.79 9.5
7 1 0 62.79 12.7
8 -2 0 11.7 6.6
8 -2 0 13.2 4.8
8 -2 0 7.1 3.9
8 -2 0 -2.1 4.8
8 -2 0 3.3 4.1
8 -2 0 9.2 5.9
8 -2 0 11.5 6.9
7 -2 0 335.67 18.8
7 -2 0 354.96 21.7
7 -2 0 370.56 22.7
7 -2 0 335.17 20.7
7 -2 0 346.77 19.9
7 -2 0 330.07 17.3
7 -2 0 328.67 22.9
7 -2 0 372.06 23.8
6 -2 0 517.95 24.4
6 -2 0 506.95 25.2
6 -2 0 506.95 22.3
6 -2 0 497.15 24.5
6 -2 0 499.75 25.8
6 -2 0 490.45 26.3
6 -2 0 468.45 20.5
6 -2 0 524.45 26.6
5 -2 0 651.53 27.1
5 -2 0 624.04 27.4
5 -2 0 656.23 31.8
5 -2 0 607.24 27.9
5 -2 0 596.84 26.4
5 -2 0 601.94 22.7
5 -2 0 618.64 24.1
5 -2 0 607.04 26
-5 2 0 598.64 26.6
4 -2 0 777.52 26.6
4 -2 0 787.42 29.1
4 -2 0 762.82 25.3
4 -2 0 704.43 29.6
4 -2 0 811.82 28.9
4 -2 0 735.83 30
4 -2 0 710.93 28.3
4 -2 0 784.32 29.3
-4 2 0 728.73 30.6
-4 2 0 770.42 29.5
3 -2 0 931.61 33.2
3 -2 0 987.7 33
3 -2 0 953.5 32.5
3 -2 0 932.81 32.7
3 -2 0 898.21 29.6
3 -2 0 933.41 30.8
-3 2 0 947.91 32.8
-3 2 0 872.71 33.4
-3 2 0 955.8 30.2
2 -2 0 257.67 9.7
2 -2 0 265.27 11.7
2 -2 0 255.27 11.8
2 -2 0 258.87 10.1
-2 2 0 243.58 11.6
-2 2 0 263.27 9.8
-2 2 0 243.18 10
-2 2 0 219.98 11.7
1 -2 0 694.93 21.4
1 -2 0 662.73 22.3
1 -2 0 675.53 21.7
1 -2 0 589.84 20.3
-1 2 0 682.23 20.9
-1 2 0 664.93 22.4
-1 2 0 655.53 21.8
-1 2 0 676.63 21.3
0 -2 0 1228.38 37.8
0 -2 0 1213.48 37.4
0 -2 0 1262.87 37.2
0 -2 0 1279.37 35.8
0 2 0 1192.88 37.4
0 2 0 1262.27 37.3
0 2 0 1262.47 35.9
0 2 0 1298.57 37.7
-1 -2 0 1131.39 32.9
-1 -2 0 1084.09 35.7
-1 -2 0 1087.09 35.4
1 2 0 1170.28 35.1
1 2 0 1083.29 35.1
1 2 0 1150.48 33.1
-2 -2 0 1520.15 49.1
-2 -2 0 1585.84 48.1
-2 -2 0 1454.65 48.5
2 2 0 1509.35 47.7
2 2 0 1534.25 48
2 2 0 1514.15 43.7
-3 -2 0 38.1 7.1
-3 -2 0 44 6.8
-3 -2 0 37.7 6.4
3 2 0 42.2 6
3 2 0 38.2 5.8
3 2 0 39.4 3.5
-4 -2 0 846.72 35.3
-4 -2 0 861.21 34.6
-4 -2 0 951.8 36.8
4 2 0 801.22 26.6
4 2 0 887.21 33
4 2 0 903.81 38.2
4 2 0 852.51 34
-5 -2 0 76.79 10.6
-5 -2 0 79.59 10.9
-5 -2 0 92.79 12.2
5 2 0 74.79 5.2
5 2 0 83.29 9.1
-6 -2 0 315.87 23.4
-6 -2 0 353.16 23.3
-6 -2 0 305.07 21.6
6 2 0 310.87 12
6 2 0 316.77 24.4
6 2 0 328.17 21.4
6 2 0 357.26 20
-7 -2 0 86.89 15.4
7 2 0 142.39 18
7 2 0 103.89 12.7
9 -3 0 172.18 15.1
9 -3 0 184.88 16.5
9 -3 0 176.48 13.2
8 -3 0 178.38 13.6
8 -3 0 163.58 17.4
8 -3 0 165.28 11.7
8 -3 0 177.98 23.5
8 -3 0 140.39 15.1
8 -3 0 117.69 15.4
8 -3 0 155.18 14.7
8 -3 0 147.29 16.1
7 -3 0 603.14 30.1
7 -3 0 592.24 31.1
7 -3 0 589.34 25.9
7 -3 0 582.14 28.9
7 -3 0 581.44 30.7
7 -3 0 615.74 30.3
7 -3 0 598.04 24
7 -3 0 563.74 29.2
6 -3 0 187.48 15.7
6 -3 0 190.18 12.1
6 -3 0 188.58 14.2
6 -3 0 191.88 14.8
6 -3 0 187.88 14.1
6 -3 0 192.68 11
6 -3 0 189.38 13.9
6 -3 0 166.68 14.3
5 -3 0 389.16 17.6
5 -3 0 391.26 19.1
5 -3 0 383.06 21.6
5 -3 0 414.66 21.3
5 -3 0 405.76 21
5 -3 0 402.06 16.3
5 -3 0 402.26 19.8
5 -3 0 426.56 21.3
-5 3 0 421.56 21.6
-5 3 0 415.26 22.8
4 -3 0 1188.08 37.8
4 -3 0 1153.28 40.8
4 -3 0 1136.29 36.9
4 -3 0 1065.69 40.2
4 -3 0 1150.98 40.6
4 -3 0 1104.79 41.6
-4 3 0 1172.58 37.6
-4 3 0 1135.49 41.2
-4 3 0 1133.59 42.7
3 -3 0 450.65 19.4
3 -3 0 421.36 18.7
3 -3 0 414.56 15.1
3 -3 0 424.86 15.2
-3 3 0 423.86 19.2
-3 3 0 399.06 19.8
-3 3 0 437.46 16.7
-3 3 0 428.56 15.8
2 -3 0 711.63 23.3
2 -3 0 738.83 24.6
2 -3 0 719.63 26.9
2 -3 0 701.43 25.7
-2 3 0 760.12 22.3
-2 3 0 727.93 26.7
-2 3 0 728.73 24.6
-2 3 0 721.63 26.4
1 -3 0 29 4.3
1 -3 0 42.3 4.1
1 -3 0 42.9 3.9
1 -3 0 42.5 4.6
-1 3 0 42.6 4.2
-1 3 0 39.1 4.5
-1 3 0 31 3.8
-1 3 0 38.8 4.2
0 -3 0 4861.21 138.79
0 -3 0 4798.22 137.99
0 -3 0 4916.21 138.29
0 -3 0 4785.62 135.59
0 3 0 5030 138.29
0 3 0 5136.69 139.39
0 3 0 4985.3 136.19
0 3 0 4991.4 138.69
-1 -3 0 1600.04 50.59
-1 -3 0 1661.03 51.29
-1 -3 0 1566.04 47.5
1 3 0 1587.14 50.29
1 3 0 1556.54 49.7
1 3 0 1654.83 48.1
-2 -3 0 2224.28 66.89
-2 -3 0 2357.96 72.69
-2 -3 0 2183.38 72.09
2 3 0 2301.17 71.09
2 3 0 2345.47 66.69
2 3 0 2489.65 70.99
-3 -3 0 4.4 4.2
-3 -3 0 3.9 3.1
-3 -3 0 6 3.3
3 3 0 5.6 3.3
3 3 0 8.5 2
3 3 0 4.9 3.1
-4 -3 0 1509.25 57.79
-4 -3 0 1580.24 56.29
-4 -3 0 1459.35 54.29
4 3 0 1528.45 51.99
4 3 0 1468.15 44
4 3 0 1451.15 57.09
4 3 0 1460.45 52.49
-5 -3 0 6 5.8
-5 -3 0 7.4 7.4
-5 -3 0 2 4.5
5 3 0 4.6 3.7
5 3 0 -0.1 3.4
5 3 0 7.4 4.7
-6 -3 0 384.16 26.7
-6 -3 0 323.87 24.4
6 3 0 304.77 20
9 -4 0 181.58 18
9 -4 0 157.48 11.9
9 -4 0 152.28 14.2
8 -4 0 56.39 7.8
8 -4 0 43.1 9
8 -4 0 52.39 10.8
8 -4 0 51.09 11.2
8 -4 0 64.49 12.7
8 -4 0 41.2 8.3
7 -4 0 188.68 11.5
7 -4 0 197.88 17.6
7 -4 0 180.38 16.5
7 -4 0 192.18 13.4
7 -4 0 195.98 16.6
7 -4 0 172.28 15.2
7 -4 0 172.48 15.5
7 -4 0 172.98 14.7
6 -4 0 295.37 14.2
6 -4 0 311.57 20.9
6 -4 0 298.47 16.7
6 -4 0 279.87 18.9
6 -4 0 320.27 19.9
6 -4 0 279.67 18.6
6 -4 0 295.07 15.8
6 -4 0 270.17 17.1
-6 4 0 299.37 21
5 -4 0 667.13 29.7
5 -4 0 686.63 25.9
5 -4 0 642.74 29.5
5 -4 0 667.83 25.1
5 -4 0 666.73 27.3
5 -4 0 653.03 29.1
-5 4 0 670.83 31.9
-5 4 0 622.44 29.9
-5 4 0 681.83 26.3
4 -4 0 524.75 24.4
4 -4 0 491.95 27.2
4 -4 0 545.75 21.1
4 -4 0 552.54 19.2
-4 4 0 529.75 24.8
-4 4 0 509.25 21.1
-4 4 0 523.95 25.8
3 -4 0 999.2 31.7
3 -4 0 991.8 36.8
3 -4 0 1012.4 33.8
3 -4 0 1001.5 36
-3 4 0 948.31 37.8
-3 4 0 1011.7 36.9
-3 4 0 1021.2 30.7
-3 4 0 994.9 33.8
2 -4 0 3843.42 111.09
2 -4 0 3859.91 109.59
2 -4 0 3789.32 113.39
2 -4 0 3873.21 111.99
-2 4 0 4087.59 113.29
-2 4 0 3858.11 113.99
-2 4 0 3763.82 111.19
-2 4 0 3880.11 113.79
1 -4 0 1965.7 58.99
1 -4 0 1811.42 59.69
1 -4 0 1937.41 58.29
1 -4 0 1918.41 60.39
-1 4 0 2004.6 59.89
-1 4 0 1993 59.19
-1 4 0 1996.7 60.99
-1 4 0 1946.91 59.59
0 -4 0 2268.67 70.69
0 -4 0 2378.16 69.79
0 -4 0 2338.17 66.39
0 -4 0 2396.66 70.39
0 4 0 2363.26 70.99
0 4 0 2344.67 70.09
0 4 0 2210.48 69.99
-1 -4 0 163.88 11.9
-1 -4 0 159.68 11
1 4 0 184.08 11.9
1 4 0 190.98 9.9
1 4 0 184.08 11.7
-2 -4 0 1597.94 54.09
-2 -4 0 1563.44 53.79
-2 -4 0 1448.36 47.5
2 4 0 1501.05 47.4
2 4 0 1600.04 51.79
2 4 0 1582.44 52.49
-3 -4 0 37.3 8.2
-3 -4 0 42.8 8.3
-3 -4 0 43.4 9
3 4 0 37.8 7.2
3 4 0 30.4 4.2
3 4 0 41 8.9
3 4 0 43.2 7.1
-4 -4 0 333.67 22.5
-4 -4 0 360.76 24
-4 -4 0 367.76 22.8
4 4 0 347.17 13.4
4 4 0 390.16 35.4
4 4 0 339.37 20
4 4 0 364.36 20.5
-5 -4 0 12.1 6.9
-5 -4 0 5.5 6.8
5 4 0 6.2 4.8
5 4 0 4.7 4.4
-6 -4 0 200.88 21.7
-6 -4 0 171.88 20.2
6 4 0 188.08 16.6
9 -5 0 166.38 14.9
9 -5 0 147.09 17.2
9 -5 0 188.58 17.1
8 -5 0 -0.3 3.8
8 -5 0 -1.4 4.6
8 -5 0 4.3 4.9
8 -5 0 5.1 4.8
8 -5 0 4.9 3.3
7 -5 0 806.72 38.3
7 -5 0 802.52 32.5
7 -5 0 792.32 29.3
7 -5 0 796.82 35.1
7 -5 0 847.02 41.1
7 -5 0 873.81 33
7 -5 0 801.82 28.5
7 -5 0 815.52 38.4
-7 5 0 772.92 40.3
6 -5 0 200.98 13.2
6 -5 0 178.28 18.6
6 -5 0 204.38 10.6
6 -5 0 202.98 11.8
6 -5 0 189.18 17.3
6 -5 0 188.08 13.7
-6 5 0 209.18 18.1
-6 5 0 208.58 13.9
5 -5 0 1422.16 52.39
5 -5 0 1383.86 43.4
5 -5 0 1364.16 46.7
5 -5 0 1405.66 51.49
-5 5 0 1417.76 52.89
-5 5 0 1373.46 47.4
-5 5 0 1393.66 54.69
4 -5 0 574.74 27
4 -5 0 542.15 23.1
4 -5 0 560.34 25.7
4 -5 0 577.64 20.8
-4 5 0 586.74 24.1
-4 5 0 490.75 27.2
-4 5 0 568.84 26.8
-4 5 0 564.84 19.6
3 -5 0 1278.17 40.8
3 -5 0 1290.07 44.7
3 -5 0 1285.57 43.2
3 -5 0 1276.27 46.2
-3 5 0 1230.38 48.2
-3 5 0 1302.97 45.9
-3 5 0 1284.37 43.6
-3 5 0 1281.67 37.9
2 -5 0 711.33 27.3
2 -5 0 687.53 29
2 -5 0 699.93 26.1
2 -5 0 717.43 27.8
-2 5 0 744.83 28.4
-2 5 0 698.53 27.5
-2 5 0 755.02 29.8
-2 5 0 698.73 27.4
1 -5 0 1093.29 38.1
1 -5 0 1098.89 35
1 -5 0 1009.8 37.7
1 -5 0 1038 36.7
-1 5 0 1052.39 37.3
-1 5 0 970.3 39.9
-1 5 0 1055.69 38
-1 5 0 1081.99 36.4
0 -5 0 663.03 27.5
0 -5 0 701.73 27.3
0 -5 0 646.14 25.9
0 5 0 653.83 27.2
0 5 0 701.13 26.7
0 5 0 666.83 26.8
-1 -5 0 203.88 14
-1 -5 0 194.38 14
-1 -5 0 193.58 11.7
1 5 0 190.58 12.8
1 5 0 192.58 11.5
1 5 0 193.88 13.2
-2 -5 0 440.76 23.8
-2 -5 0 377.76 18.3
2 5 0 444.06 18.4
2 5 0 428.36 24.4
2 5 0 472.15 22.2
-3 -5 0 126.29 18.1
-3 -5 0 155.38 15.6
3 5 0 168.38 14
3 5 0 156.28 9.2
3 5 0 170.28 14.6
-4 -5 0 430.96 28.4
4 5 0 477.85 25.7
4 5 0 428.06 28.8
4 5 0 462.45 28.7
-5 -5 0 2.9 5.3
-5 -5 0 10.2 8.8
5 5 0 -3.2 4.6
8 -6 0 17.2 6.8
8 -6 0 12.6 6.5
8 -6 0 6.2 4.3
-8 6 0 25.9 8.7
7 -6 0 468.65 23.4
7 -6 0 495.45 30.7
7 -6 0 475.75 25.2
7 -6 0 470.65 19.1
7 -6 0 498.65 29.8
7 -6 0 484.45 29.2
-7 6 0 505.65 32.2
6 -6 0 14.7 3.5
6 -6 0 16.4 4.8
6 -6 0 7.9 4.7
-6 6 0 13.4 6.4
-6 6 0 13.5 5.2
5 -6 0 851.21 37.7
5 -6 0 814.02 32.5
5 -6 0 861.31 29.2
5 -6 0 685.93 34.2
-5 6 0 866.11 33.6
-5 6 0 851.91 40.8
-5 6 0 899.21 46.9
4 -6 0 385.16 21.2
4 -6 0 347.47 18.9
4 -6 0 394.26 22.4
4 -6 0 376.46 16.9
-4 6 0 384.66 21.7
-4 6 0 391.86 24.7
-4 6 0 380.56 19.5
3 -6 0 891.31 36.6
3 -6 0 878.91 31.6
3 -6 0 911.11 34.5
3 -6 0 870.61 33.7
-3 6 0 816.22 38.8
-3 6 0 895.01 35.4
-3 6 0 852.81 34
2 -6 0 502.15 21.8
2 -6 0 503.05 21.9
2 -6 0 462.05 22.9
2 -6 0 529.65 24.6
-2 6 0 496.35 23
-2 6 0 500.65 23.4
-2 6 0 508.05 24.6
1 -6 0 272.07 15.8
1 -6 0 243.98 15.8
1 -6 0 275.57 13.3
1 -6 0 276.97 15.4
-1 6 0 253.17 15.4
-1 6 0 251.27 15.8
-1 6 0 240.88 15.4
0 -6 0 671.73 28
0 -6 0 611.44 28
0 -6 0 613.44 26.3
0 6 0 605.94 27.7
0 6 0 630.04 29.8
-1 -6 0 279.67 18.2
-1 -6 0 265.47 15.1
-1 -6 0 218.88 24.5
1 6 0 237.88 16.4
1 6 0 237.58 14.4
-2 -6 0 823.62 37
-2 -6 0 741.93 30
2 6 0 757.02 33.2
2 6 0 802.02 29.6
2 6 0 760.92 34.3
-3 -6 0 8.8 6.4
-3 -6 0 -2.2 6.5
3 6 0 15.2 7.1
3 6 0 5.7 3
3 6 0 12.5 4.9
-4 -6 0 319.97 26.4
4 6 0 311.57 22
8 -7 0 -3.1 4.9
8 -7 0 -7 5
8 -7 0 3.6 4.4
-8 7 0 0 4.8
7 -7 0 404.56 28.1
7 -7 0 410.06 21.8
7 -7 0 378.06 21.9
7 -7 0 386.76 17
-7 7 0 367.86 29.3
-7 7 0 363.06 24.9
6 -7 0 192.28 17.9
6 -7 0 198.88 18.9
6 -7 0 220.18 12.9
6 -7 0 220.48 15.7
-6 7 0 227.58 21
5 -7 0 203.48 12.5
5 -7 0 215.18 15.1
5 -7 0 185.78 17.7
-5 7 0 212.88 20.3
4 -7 0 165.88 15.9
4 -7 0 183.38 14.3
4 -7 0 173.98 11.7
4 -7 0 154.98 18.3
-4 7 0 160.68 17.4
3 -7 0 400.36 20.5
3 -7 0 364.06 18.5
3 -7 0 359.46 23.9
3 -7 0 394.16 23.6
-3 7 0 359.16 25.7
2 -7 0 242.98 17
2 -7 0 220.68 15.8
2 -7 0 210.38 14.7
2 -7 0 258.37 21.7
-2 7 0 217.28 16.1
1 -7 0 321.17 18.2
1 -7 0 268.67 17.9
1 -7 0 290.07 18.2
-1 7 0 271.07 17.7
-1 7 0 284.77 18.6
0 -7 0 664.73 44.7
0 -7 0 764.42 31.4
0 -7 0 788.52 33.5
0 7 0 753.62 32
0 7 0 735.73 33.6
-1 -7 0 186.88 16.9
-1 -7 0 201.08 14.6
-1 -7 0 190.68 16.8
1 7 0 230.88 17.3
1 7 0 195.38 15.6
1 7 0 189.98 13.7
1 7 0 226.48 17.2
-2 -7 0 290.97 17.6
-2 -7 0 324.37 23.4
2 7 0 316.57 21
2 7 0 287.27 24.6
-3 -7 0 128.69 21.2
-3 -7 0 98.59 17.3
3 7 0 89.19 13.2
7 -8 0 75.99 8.4
7 -8 0 73.79 11.9
7 -8 0 78.29 11.8
7 -8 0 75.79 15.8
-7 8 0 102.19 20.3
6 -8 0 5.6 5
6 -8 0 4.2 5.4
6 -8 0 1.4 3.8
-6 8 0 3.1 6.7
-6 8 0 14.9 6.1
5 -8 0 597.14 34
5 -8 0 662.33 27.2
5 -8 0 678.33 32.7
5 -8 0 587.74 29.9
-5 8 0 667.23 32.6
-5 8 0 719.63 41.8
4 -8 0 4.9 5.2
4 -8 0 5.2 3.7
4 -8 0 6.3 4.6
-4 8 0 8.8 5.1
-4 8 0 3.2 4.9
3 -8 0 336.47 22.7
3 -8 0 316.77 20.9
3 -8 0 361.66 20.1
3 -8 0 370.96 20.5
-3 8 0 340.97 27
-3 8 0 369.66 21.8
2 -8 0 266.87 19.5
2 -8 0 282.97 21.9
2 -8 0 291.47 17.6
-2 8 0 252.47 13.2
-2 8 0 244.58 17.8
-2 8 0 257.07 19.2
1 -8 0 610.74 30.6
1 -8 0 620.04 29.6
1 -8 0 599.84 33.8
-1 8 0 603.94 26.2
-1 8 0 604.84 31
0 -8 0 99.99 12.7
0 -8 0 82.89 13.4
0 8 0 102.59 12.5
0 8 0 100.19 11.6
-1 -8 0 203.98 16.9
-1 -8 0 200.98 19
1 8 0 221.58 20.6
1 8 0 211.28 17.9
6 -9 0 5.3 5.8
6 -9 0 -2.2 5.6
6 -9 0 7.5 4.3
-6 9 0 0 6.8
5 -9 0 236.48 21.8
5 -9 0 269.97 17.3
5 -9 0 219.18 18.8
-5 9 0 260.77 26.7
4 -9 0 13.3 5.5
4 -9 0 21.9 7.7
4 -9 0 14.8 6.3
4 -9 0 5.1 6.1
-4 9 0 5.6 9.3
3 -9 0 669.23 31
3 -9 0 597.74 30.2
3 -9 0 624.94 33.4
-3 9 0 644.24 43.5
2 -9 0 16.7 6.4
2 -9 0 6.5 5.9
-2 9 0 6.6 3.8
-2 9 0 12.1 5.5
1 -9 0 261.77 19.9
1 -9 0 323.37 21.3
-1 9 0 310.77 23.3
-1 9 0 282.67 17.7
0 9 -1 38.9 8.1
0 9 -1 22.4 6.5
0 -9 1 38.2 9.6
0 -9 1 32 7.4
-1 9 -1 255.67 15
-1 9 -1 281.57 21
1 -9 1 281.77 20.3
1 -9 1 276.37 19.7
-2 9 -1 12.5 6.1
2 -9 1 5.5 5.1
2 -9 1 11.1 6.1
2 -9 1 4.8 5
-3 9 -1 363.96 29.7
3 -9 1 379.26 24.2
3 -9 1 385.26 25.4
-4 9 -1 132.79 19.1
4 -9 1 128.49 12.3
4 -9 1 132.79 17.1
4 -9 1 150.08 15.7
-5 9 -1 169.08 21.9
5 -9 1 142.59 15.3
5 -9 1 164.38 26.6
5 -9 1 153.88 12.6
-6 9 -1 25.3 10.9
6 -9 1 12.2 6.4
6 -9 1 8 4.2
6 -9 1 15.4 7.5
2 8 -1 0.3 6.6
2 8 -1 8.8 6
-2 -8 1 -1.7 4.5
-2 -8 1 -5 11.3
1 8 -1 379.76 23.9
-1 -8 1 401.46 27.2
-1 -8 1 426.46 21
0 8 -1 11.5 4.9
0 8 -1 12.1 5
0 -8 1 26.4 8
0 -8 1 13.9 5.5
0 -8 1 9.4 5.2
-1 8 -1 904.01 33
-1 8 -1 896.21 38.4
-1 8 -1 865.71 37.7
1 -8 1 928.41 49.8
1 -8 1 976 39.3
-2 8 -1 24.7 6.5
-2 8 -1 20 5.7
2 -8 1 26.6 7
2 -8 1 25 7.6
2 -8 1 19.7 6.1
-3 8 -1 432.66 24.2
-3 8 -1 396.46 23.2
-3 8 -1 455.65 24.6
-3 8 -1 392.36 28.7
3 -8 1 454.25 22.2
3 -8 1 449.86 24.2
3 -8 1 412.56 25.1
-4 8 -1 43.3 9.2
-4 8 -1 55.09 10
-4 8 -1 50.49 13.2
4 -8 1 55.69 11.8
4 -8 1 47.3 7.8
4 -8 1 45 9.6
-5 8 -1 782.02 36.1
-5 8 -1 829.72 45
-5 8 -1 764.62 38.4
5 -8 1 804.82 30.3
5 -8 1 850.41 37.1
5 -8 1 750.72 34.3
5 -8 1 822.92 40.3
-6 8 -1 484.65 33.4
-6 8 -1 428.26 29.2
-6 8 -1 452.35 26.6
6 -8 1 489.05 20
6 -8 1 457.15 25.2
6 -8 1 505.05 31
-7 8 -1 249.78 24.5
7 -8 1 305.67 25.2
7 -8 1 262.77 19
3 7 -1 354.76 29
3 7 -1 356.86 23.1
-3 -7 1 337.57 26.1
-3 -7 1 305.47 25
2 7 -1 1.7 4
-2 -7 1 13.2 6.6
-2 -7 1 -3.2 3.5
1 7 -1 1081.69 43
1 7 -1 1090.99 43.8
1 7 -1 1088.79 43.1
-1 -7 1 1106.09 39.4
-1 -7 1 1128.69 45.8
-1 -7 1 1133.09 45.6
0 7 -1 23.4 6
0 7 -1 20.6 5.2
0 -7 1 21.4 5.2
0 -7 1 24.6 6.1
0 -7 1 27.4 7.3
-1 7 -1 949.8 37.4
-1 7 -1 958.4 32.4
-1 7 -1 930.41 34.4
1 -7 1 832.22 37.3
1 -7 1 959.3 37.3
1 -7 1 918.51 36.8
-2 7 -1 118.79 10.8
-2 7 -1 112.79 11
-2 7 -1 119.99 11.4
2 -7 1 100.69 11.4
2 -7 1 111.39 10.5
2 -7 1 107.19 11.6
-3 7 -1 2025.7 65.69
-3 7 -1 1917.41 66.09
-3 7 -1 1951.2 67.39
3 -7 1 1999.8 65.29
3 -7 1 1922.71 62.39
3 -7 1 1985.6 68.89
-4 7 -1 458.45 25.5
-4 7 -1 450.65 28.8
4 -7 1 428.26 24.2
4 -7 1 472.85 19.8
4 -7 1 414.26 25
4 -7 1 460.35 23.6
-5 7 -1 354.36 25.6
-5 7 -1 369.46 23.6
5 -7 1 340.57 15.4
5 -7 1 325.27 19.3
5 -7 1 357.96 23.6
-6 7 -1 84.79 11.3
-6 7 -1 82.29 13.1
-6 7 -1 86.89 13.4
6 -7 1 76.19 12.2
6 -7 1 96.29 7.1
6 -7 1 82.79 13.7
6 -7 1 95.79 13.7
6 -7 1 73.39 9.9
-7 7 -1 370.96 22.6
-7 7 -1 357.96 26
-7 7 -1 360.86 27.1
7 -7 1 359.06 26.8
7 -7 1 314.07 21.3
7 -7 1 350.36 21
-8 7 -1 61.89 13.7
8 -7 1 29.6 7.1
8 -7 1 56.49 12.7
8 -7 1 32 9.8
4 6 -1 50.89 10.8
-4 -6 1 38.1 10.8
-4 -6 1 15 9.7
3 6 -1 496.45 26
3 6 -1 559.24 30.3
3 6 -1 504.15 27.3
-3 -6 1 670.93 40.8
-3 -6 1 536.15 31.1
2 6 -1 249.28 17.8
2 6 -1 236.08 15.9
2 6 -1 232.58 16.5
-2 -6 1 291.87 19.6
-2 -6 1 210.58 12.7
1 6 -1 777.32 36.2
1 6 -1 690.83 41.1
1 6 -1 782.42 33
-1 -6 1 814.42 29.2
-1 -6 1 795.12 34
-1 -6 1 757.52 33.5
0 6 -1 -0.1 2.1
0 6 -1 -1.6 1.6
0 6 -1 -1.3 2.4
0 6 -1 0.2 2.2
0 -6 1 2.6 3.7
0 -6 1 0.9 2.6
0 -6 1 4.4 3
-1 6 -1 1287.67 43
-1 6 -1 1281.37 44.1
-1 6 -1 1298.57 44.5
-1 6 -1 1241.98 39.8
1 -6 1 1253.77 44.7
1 -6 1 1210.48 43.6
1 -6 1 1207.28 44.9
-2 6 -1 8.8 3.6
-2 6 -1 8.4 3.9
-2 6 -1 6.1 3.4
2 -6 1 9.1 3.1
2 -6 1 6.8 4.2
2 -6 1 8.5 3.2
2 -6 1 4.9 3.4
-3 6 -1 439.06 22.8
-3 6 -1 445.36 21.6
-3 6 -1 457.35 25.8
3 -6 1 449.56 21.6
3 -6 1 460.05 23.8
3 -6 1 435.96 21.5
3 -6 1 468.05 18.8
-4 6 -1 0.1 2.9
-4 6 -1 4.7 4
-4 6 -1 0.3 3.3
4 -6 1 4.1 4
4 -6 1 4.2 2.1
4 -6 1 2.7 2.8
4 -6 1 2.7 3.3
-5 6 -1 737.93 42.8
-5 6 -1 747.43 30.7
-5 6 -1 747.73 36.3
5 -6 1 717.43 34.4
5 -6 1 707.73 24.1
5 -6 1 685.03 29.1
5 -6 1 620.34 30.9
-6 6 -1 97.59 12.7
-6 6 -1 96.39 13.6
6 -6 1 95.99 12.6
-7 6 -1 64.59 12.2
-7 6 -1 49.7 11.5
7 -6 1 71.29 10.5
7 -6 1 35.5 9.9
7 -6 1 56.29 12.3
7 -6 1 49.2 6.6
7 -6 1 60.79 9.3
7 -6 1 50.79 11.5
-8 6 -1 120.49 16.5
8 -6 1 108.99 13.7
8 -6 1 139.59 12
8 -6 1 84.59 15.1
8 -6 1 124.29 12.7
-5 -5 1 107.89 19.8
-5 -5 1 85.99 15.8
4 5 -1 437.86 27.5
4 5 -1 437.26 24.4
4 5 -1 502.15 25
-4 -5 1 451.45 27.3
-4 -5 1 438.86 28.3
3 5 -1 466.65 22.9
3 5 -1 497.15 24.1
3 5 -1 460.65 25.7
-3 -5 1 458.15 26.2
-3 -5 1 358.26 23.7
2 5 -1 245.18 16.4
2 5 -1 244.08 14.7
2 5 -1 206.78 14.5
-2 -5 1 238.68 17.1
-2 -5 1 205.78 11.3
1 5 -1 585.94 25.5
1 5 -1 603.24 24.9
1 5 -1 600.74 22.9
1 5 -1 607.64 25.7
1 5 -1 588.04 19.4
-1 -5 1 637.14 27.2
-1 -5 1 606.54 22.6
-1 -5 1 556.04 26.1
0 5 -1 116.09 9.5
0 5 -1 122.59 9.6
0 5 -1 131.19 8
0 5 -1 123.89 8.7
0 -5 1 120.99 9.9
0 -5 1 126.19 9.4
0 -5 1 113.99 10.1
-1 5 -1 1367.76 40.5
-1 5 -1 1328.67 43.8
-1 5 -1 1380.36 43.9
-1 5 -1 1359.16 44.6
1 -5 1 1275.37 43.4
1 -5 1 1174.68 44
1 -5 1 1385.46 45.4
-2 5 -1 63.69 7.4
-2 5 -1 81.89 7.2
-2 5 -1 70.39 7.3
2 -5 1 75.19 7.6
2 -5 1 72.79 7.4
2 -5 1 75.39 6.3
2 -5 1 66.99 8.1
-3 5 -1 996.3 38
-3 5 -1 981.3 35.6
-3 5 -1 1079.29 40.5
3 -5 1 1026.9 36.8
3 -5 1 968.2 31.9
3 -5 1 958.9 35.3
3 -5 1 1004.2 38.5
-4 5 -1 118.39 11.3
-4 5 -1 109.39 9.6
-4 5 -1 109.49 11.4
4 -5 1 115.09 10.7
4 -5 1 111.19 6.6
4 -5 1 116.49 9.3
4 -5 1 116.39 11.6
-5 5 -1 546.65 29.3
-5 5 -1 634.14 30.6
-5 5 -1 631.84 26.4
5 -5 1 607.24 28.3
5 -5 1 627.14 21.6
5 -5 1 616.54 25.6
5 -5 1 626.14 30
-6 5 -1 15.9 6
-6 5 -1 15.9 6
-6 5 -1 25 5.7
6 -5 1 12.8 5.4
6 -5 1 13.9 5
6 -5 1 24.6 5.7
6 -5 1 25.3 5.6
-7 5 -1 637.04 33.9
-7 5 -1 608.04 39.5
7 -5 1 651.63 32.5
7 -5 1 637.54 31
7 -5 1 634.64 28.4
7 -5 1 649.93 34.6
7 -5 1 616.24 28
7 -5 1 629.04 33.1
8 -5 1 75.19 12.4
8 -5 1 72.99 13
8 -5 1 84.29 12.1
8 -5 1 85.69 11.7
-6 -4 1 249.18 22.9
-6 -4 1 261.97 23.3
5 4 -1 318.97 24
5 4 -1 312.27 19.2
5 4 -1 317.67 20.4
-5 -4 1 296.77 23.1
-5 -4 1 331.27 24.4
-5 -4 1 272.97 21.4
4 4 -1 218.68 15.4
4 4 -1 221.48 14.9
-4 -4 1 247.38 18.9
-4 -4 1 234.38 17.7
3 4 -1 498.75 23.4
3 4 -1 457.45 25.4
3 4 -1 541.15 23.4
-3 -4 1 495.95 25.6
-3 -4 1 527.05 25.1
-3 -4 1 501.25 25.2
2 4 -1 119.69 9.7
2 4 -1 105.19 6.3
2 4 -1 115.59 9.3
2 4 -1 123.89 10.6
-2 -4 1 113.69 10.5
-2 -4 1 97.09 6.5
-2 -4 1 103.89 10.1
1 4 -1 1799.82 52.99
1 4 -1 1891.41 57.99
1 4 -1 1837.42 59.09
1 4 -1 1853.21 58.59
1 4 -1 1886.31 55.59
-1 -4 1 1859.21 55.09
-1 -4 1 1834.92 59.39
-1 -4 1 1885.41 59.79
0 4 -1 90.49 7.3
0 4 -1 102.09 7
0 4 -1 106.79 7.3
0 4 -1 95.19 7.5
0 4 -1 99.69 6.4
0 -4 1 97.49 8.2
0 -4 1 98.79 7.3
0 -4 1 101.09 7.8
-1 4 -1 2010.2 56.59
-1 4 -1 1849.52 60.29
-1 4 -1 2023.4 60.59
1 -4 1 1968.7 60.79
1 -4 1 1983 61.39
1 -4 1 2084.99 59.69
1 -4 1 2012.5 59.69
-2 4 -1 38.7 5.5
-2 4 -1 34.3 4.8
-2 4 -1 35.6 4.2
2 -4 1 32.7 5.7
2 -4 1 34.9 4.9
2 -4 1 28.5 3.5
2 -4 1 40.3 5.1
-3 4 -1 3815.42 113.49
-3 4 -1 3748.02 110.19
-3 4 -1 4042.9 114.49
3 -4 1 3840.32 109.89
3 -4 1 3763.32 111.79
3 -4 1 3662.13 113.49
3 -4 1 3793.02 105.89
-4 4 -1 34.2 6.8
-4 4 -1 31.2 6.3
-4 4 -1 39.4 5.6
4 -4 1 31 6.7
4 -4 1 30.8 4
4 -4 1 32.8 3.2
4 -4 1 34.2 5.5
-5 4 -1 2132.89 68.49
-5 4 -1 2137.59 73.39
-5 4 -1 2187.18 73.39
5 -4 1 2117.59 66.79
5 -4 1 2203.38 73.09
5 -4 1 2142.49 71.19
5 -4 1 2222.68 67.99
5 -4 1 2262.87 74.89
-6 4 -1 76.29 11
-6 4 -1 100.09 12.3
6 -4 1 107.09 12.3
6 -4 1 102.19 10.7
6 -4 1 108.29 10.1
6 -4 1 113.59 10.2
6 -4 1 100.69 11.4
6 -4 1 102.59 10.4
6 -4 1 104.59 12
-7 4 -1 739.73 35.4
7 -4 1 717.83 33.5
7 -4 1 660.63 35.5
7 -4 1 700.73 32.8
7 -4 1 631.54 32.1
7 -4 1 721.13 34.6
7 -4 1 683.63 33.7
7 -4 1 717.33 32.1
8 -4 1 54.19 12
8 -4 1 56.99 11.8
8 -4 1 58.69 11.6
8 -4 1 64.39 10.3
8 -4 1 69.39 12.1
8 -4 1 46.3 11.1
9 -4 1 125.09 16.1
9 -4 1 107.49 15.1
7 3 -1 75.89 12.7
-7 -3 1 89.69 17.1
-7 -3 1 100.59 15.9
6 3 -1 123.69 12.6
6 3 -1 126.29 13.2
-6 -3 1 133.69 16.1
-6 -3 1 126.09 15.4
-6 -3 1 136.29 15.8
5 3 -1 235.48 16.1
5 3 -1 241.38 15.4
5 3 -1 243.78 20
-5 -3 1 239.28 18.3
-5 -3 1 226.78 18.6
4 3 -1 390.96 18.7
4 3 -1 361.86 19.2
4 3 -1 367.36 19.8
4 3 -1 368.56 22.9
-4 -3 1 364.66 21.8
-4 -3 1 340.57 20.5
-4 -3 1 357.16 20.5
3 3 -1 597.84 24.1
3 3 -1 616.94 28.1
3 3 -1 611.14 25.1
-3 -3 1 599.94 25.1
-3 -3 1 567.94 26
-3 -3 1 573.34 26.6
2 3 -1 815.02 29.7
2 3 -1 843.22 31.8
2 3 -1 828.72 28.7
2 3 -1 809.72 24.4
-2 -3 1 791.02 24.3
-2 -3 1 770.32 30.5
1 3 -1 3439.66 101.79
1 3 -1 3538.85 101.29
1 3 -1 3668.33 103.09
1 3 -1 3559.94 98.79
1 3 -1 3576.64 97.49
-1 -3 1 3503.65 98.39
-1 -3 1 3449.75 102.59
-1 -3 1 3533.75 102.79
0 3 -1 2438.46 70.59
0 3 -1 2413.06 71.09
0 3 -1 2460.05 71.89
0 3 -1 2642.84 72.59
0 -3 1 2582.34 74.59
0 -3 1 2444.96 71.59
0 -3 1 2386.06 72.19
-1 3 -1 5361.16 146.39
-1 3 -1 5227.08 148.29
-1 3 -1 5245.78 147.79
1 -3 1 5130.59 147.79
1 -3 1 5373.66 149.09
1 -3 1 5246.67 146.29
1 -3 1 5522.75 147.79
-2 3 -1 221.78 13.7
-2 3 -1 232.98 10.7
-2 3 -1 214.08 11.4
2 -3 1 219.08 11.1
2 -3 1 228.58 8.4
2 -3 1 218.38 10.6
-3 3 -1 3098.69 89.29
-3 3 -1 3121.79 92.39
-3 3 -1 2988.6 91.79
3 -3 1 2942.71 86.69
3 -3 1 3105.39 88.89
3 -3 1 3081.69 92.29
3 -3 1 3077.99 90.79
3 -3 1 3117.89 92.89
-4 3 -1 67.99 7.9
-4 3 -1 64.69 7.6
-4 3 -1 72.59 6.8
4 -3 1 63.09 8.1
4 -3 1 68.69 6.7
4 -3 1 63.59 6.2
4 -3 1 72.29 7.1
4 -3 1 62.89 7.9
4 -3 1 60.39 7.2
-5 3 -1 900.31 36.1
-5 3 -1 811.72 35.2
5 -3 1 882.81 35.7
5 -3 1 895.51 32.3
5 -3 1 862.51 34.1
5 -3 1 926.91 34.8
5 -3 1 896.11 36.4
5 -3 1 823.42 33.5
5 -3 1 842.42 33.3
-6 3 -1 5.3 3.8
6 -3 1 8.4 4.3
6 -3 1 -0.5 4.1
6 -3 1 -0.3 2.6
6 -3 1 7.7 2.5
6 -3 1 4.4 3.2
6 -3 1 2.9 3.1
6 -3 1 5.4 4.1
6 -3 1 6.7 3.6
7 -3 1 364.66 23.4
7 -3 1 376.96 23.4
7 -3 1 381.96 16.5
7 -3 1 352.16 22.2
7 -3 1 394.36 28.4
7 -3 1 387.86 24.6
7 -3 1 406.66 22.9
7 -3 1 401.96 23.6
8 -3 1 25.4 6
8 -3 1 42.6 10.1
8 -3 1 30.6 7.5
8 -3 1 34.4 8.4
8 -3 1 24.7 7.3
8 -3 1 21 6.2
7 2 -1 43.6 10
7 2 -1 36.5 9.6
-7 -2 1 22.4 13.6
-7 -2 1 47.6 10.9
6 2 -1 676.23 29.9
6 2 -1 646.54 23.9
6 2 -1 649.83 31.3
-6 -2 1 701.73 34.3
-6 -2 1 612.84 33.1
5 2 -1 109.89 10.5
5 2 -1 105.99 7.6
-5 -2 1 107.99 12
-5 -2 1 96.49 12.2
-5 -2 1 99.99 11.3
4 2 -1 1479.25 49.9
4 2 -1 1450.65 49.1
4 2 -1 1446.76 53.69
4 2 -1 1395.26 43.9
-4 -2 1 1422.16 49.7
-4 -2 1 1487.05 51.79
-4 -2 1 1434.26 50.49
3 2 -1 3014.9 94.49
3 2 -1 3076.99 90.99
3 2 -1 3036.9 86.19
3 2 -1 3101.39 91.09
-3 -2 1 3021.7 91.99
-3 -2 1 2960.5 92.49
-3 -2 1 3148.68 90.69
2 2 -1 4162.98 119.79
2 2 -1 4252.07 122.49
2 2 -1 4190.28 118.49
2 2 -1 4196.58 120.09
-2 -2 1 4238.98 120.89
-2 -2 1 4170.28 120.99
-2 -2 1 4233.78 118.59
1 2 -1 952.8 31
1 2 -1 979.6 29.6
-1 -2 1 933.91 30.6
-1 -2 1 951.7 30.6
-1 -2 1 885.91 26.9
0 2 -1 964.9 29.2
0 2 -1 992 28.6
0 2 -1 944.31 29.1
0 2 -1 964 28.6
0 -2 1 938.51 29.3
0 -2 1 938.51 28.9
0 -2 1 938.01 29.3
-1 2 -1 2807.12 79.29
-1 2 -1 2832.52 77.49
-1 2 -1 2821.82 80.19
1 -2 1 2791.02 79.69
1 -2 1 2819.42 77.49
-2 2 -1 1448.76 45.6
-2 2 -1 1487.95 44.9
-2 2 -1 1459.35 44.1
2 -2 1 1415.66 43.8
2 -2 1 1521.95 45.2
-3 2 -1 1238.08 39.4
-3 2 -1 1131.39 37.2
-3 2 -1 1137.19 39.2
3 -2 1 1159.78 37.9
3 -2 1 1194.58 38
3 -2 1 1183.98 40.2
3 -2 1 1190.08 38.5
3 -2 1 1118.39 37.4
-4 2 -1 0.6 3.1
-4 2 -1 1.8 2.4
-4 2 -1 2.6 2.6
4 -2 1 2.8 2
4 -2 1 1.9 1.5
4 -2 1 3.6 3.1
4 -2 1 0.9 2.1
4 -2 1 1.4 2.2
4 -2 1 0.3 1.9
4 -2 1 2.9 2.2
-5 2 -1 1465.95 50.39
-5 2 -1 1389.06 51.89
5 -2 1 1498.75 48.4
5 -2 1 1390.46 48.6
5 -2 1 1416.46 50.49
5 -2 1 1375.16 43.6
5 -2 1 1512.35 51.69
5 -2 1 1395.06 50.89
5 -2 1 1443.96 50.19
-6 2 -1 163.38 13.2
6 -2 1 187.98 10.4
6 -2 1 158.18 12.6
6 -2 1 163.88 13.3
6 -2 1 170.08 16.8
6 -2 1 174.68 14.5
6 -2 1 152.98 14.3
6 -2 1 179.48 13
6 -2 1 165.18 14.5
7 -2 1 455.45 19.7
7 -2 1 463.65 26.3
7 -2 1 432.06 27.1
7 -2 1 486.35 27.5
7 -2 1 463.95 24.4
7 -2 1 421.76 23.2
7 -2 1 457.45 31.6
7 -2 1 464.55 23.5
8 -2 1 119.29 13
8 -2 1 109.39 14.9
8 -2 1 101.69 14.2
8 -2 1 120.59 14.7
8 -2 1 120.09 10.3
8 1 -1 197.98 14
8 1 -1 218.28 17.6
8 1 -1 234.38 17
-8 -1 1 232.98 21.8
7 1 -1 16.9 5.6
7 1 -1 -1 3.4
7 1 -1 4 5.7
-7 -1 1 6.4 5.4
-7 -1 1 9.8 6.5
6 1 -1 659.23 33.8
6 1 -1 630.54 21.3
6 1 -1 617.44 29.4
6 1 -1 614.44 25.4
6 1 -1 585.64 20
6 1 -1 630.44 27.9
-6 -1 1 638.14 30.9
-6 -1 1 627.24 31.1
5 1 -1 692.83 22.5
5 1 -1 638.54 21.4
5 1 -1 681.83 26.1
5 1 -1 668.73 29
5 1 -1 694.03 33.2
5 1 -1 689.73 28
-5 -1 1 686.23 30.6
-5 -1 1 675.83 30.1
4 1 -1 1545.95 44.6
4 1 -1 1486.15 49.6
4 1 -1 1365.96 60.29
4 1 -1 1567.54 48.6
4 1 -1 1551.34 51.49
4 1 -1 1564.64 48.1
-4 -1 1 1587.84 51.29
-4 -1 1 1477.05 51.79
-4 -1 1 1541.85 50.89
3 1 -1 6.4 1.3
3 1 -1 9.7 3.1
3 1 -1 8.9 2.6
3 1 -1 5.9 2
3 1 -1 7.9 3.1
3 1 -1 4.1 2
-3 -1 1 7.9 2.8
-3 -1 1 9.6 3.1
-3 -1 1 5.5 2.4
2 1 -1 1117.19 35.8
2 1 -1 1179.88 38.1
2 1 -1 1153.98 36
-2 -1 1 1212.28 36.6
-2 -1 1 1108.89 34.9
-2 -1 1 1088.09 36.1
1 1 -1 3944.61 112.49
1 1 -1 4074.79 113.49
-1 -1 1 4088.19 112.69
-1 -1 1 4017.9 110.69
-1 -1 1 4073.39 112.79
-1 -1 1 4147.88 113.69
0 1 -1 13.1 1.5
0 1 -1 15.2 1.4
0 1 -1 13.8 1.4
0 -1 1 14.1 1.5
0 -1 1 11.6 1.3
-1 1 -1 4047.8 106.39
-1 1 -1 3972.3 107.09
-1 1 -1 3785.42 107.89
1 -1 1 4056.49 107.19
1 -1 1 3532.25 107.59
-2 1 -1 21.1 1.9
-2 1 -1 21.1 3.2
-2 1 -1 22.4 3.8
-2 1 -1 22.5 3
2 -1 1 30.5 3.2
2 -1 1 22.3 1.9
2 -1 1 17.5 2.8
2 -1 1 21.6 3
2 -1 1 15.6 3.2
-3 1 -1 2888.61 88.99
-3 1 -1 2987.8 83.89
-3 1 -1 3057.79 87.39
3 -1 1 2906.91 88.19
3 -1 1 2936.51 87.99
3 -1 1 2962.9 86.39
3 -1 1 2962 86.29
3 -1 1 3077.09 87.39
3 -1 1 3033.9 83.69
-4 1 -1 243.98 13.5
-4 1 -1 243.38 14.9
4 -1 1 252.97 14.6
4 -1 1 245.08 13.2
4 -1 1 260.87 14.3
4 -1 1 258.17 14.9
4 -1 1 269.87 11.5
4 -1 1 246.38 12.9
4 -1 1 224.58 14.6
-5 1 -1 1155.38 41.7
-5 1 -1 1198.58 45.5
5 -1 1 1215.18 46
5 -1 1 1210.28 43.6
5 -1 1 1130.79 43.6
5 -1 1 1173.08 40.6
5 -1 1 1182.68 43.9
5 -1 1 1201.38 38.5
5 -1 1 1140.29 41.2
-6 1 -1 133.29 14.2
6 -1 1 119.49 9.5
6 -1 1 114.49 12.2
6 -1 1 113.69 10.7
6 -1 1 148.99 14
6 -1 1 100.39 12.7
6 -1 1 128.39 10.7
6 -1 1 148.49 12.9
-7 1 -1 548.05 31.8
7 -1 1 569.84 25.8
7 -1 1 550.44 23.8
7 -1 1 638.44 31.7
7 -1 1 578.74 30.5
7 -1 1 564.94 27.2
7 -1 1 619.94 29.9
7 -1 1 541.85 26.4
7 -1 1 533.55 32.2
-8 1 -1 7.2 6.6
8 -1 1 -5.1 5.1
8 -1 1 1.3 3.8
8 -1 1 4.1 4.8
8 -1 1 3.2 3.7
8 0 -1 227.08 11.4
8 0 -1 209.78 12
8 0 -1 240.38 17
8 0 -1 225.68 16.5
8 0 -1 224.68 21
8 0 -1 215.18 15.9
7 0 -1 2.3 3.4
7 0 -1 2.4 2.6
7 0 -1 2.6 5.5
7 0 -1 9.1 5.3
7 0 -1 6.9 4.4
7 0 -1 -4.5 4
7 0 -1 -6.4 5.2
7 0 -1 5.7 3.5
6 0 -1 476.25 27.8
6 0 -1 487.95 28
6 0 -1 500.65 20
6 0 -1 483.55 22.8
6 0 -1 473.35 26.5
6 0 -1 529.05 25.4
6 0 -1 502.05 23.8
-6 0 1 495.15 25.9
-6 0 1 506.75 27.5
5 0 -1 5.6 3.2
5 0 -1 9.2 3.5
5 0 -1 4.2 3.9
5 0 -1 0.6 2.9
5 0 -1 5.8 2.3
5 0 -1 -0.5 2.5
5 0 -1 2 2.5
-5 0 1 5 3.6
-5 0 1 11.7 4.5
4 0 -1 845.12 33.8
4 0 -1 816.32 29.8
4 0 -1 814.92 30.3
4 0 -1 888.31 31.6
4 0 -1 839.12 34.6
4 0 -1 873.21 30.9
4 0 -1 864.41 27.9
-4 0 1 865.41 32
-4 0 1 833.32 31.6
3 0 -1 1120.19 36.5
3 0 -1 1163.08 39
3 0 -1 1130.49 36.6
3 0 -1 1123.39 36.2
3 0 -1 1125.69 35.9
3 0 -1 1139.49 34.1
3 0 -1 1087.89 39.7
-3 0 1 1090.79 36.6
-3 0 1 1122.89 40.3
2 0 -1 1318.17 41.6
2 0 -1 1162.08 38.1
2 0 -1 1262.57 38.4
2 0 -1 1296.07 36.9
2 0 -1 1238.58 38
2 0 -1 1273.97 40.1
-2 0 1 1340.67 40.5
-2 0 1 1289.07 38.4
-2 0 1 1302.37 38.7
1 0 -1 1412.06 39.7
1 0 -1 1413.86 39.5
-1 0 1 1361.56 39.7
-1 0 1 1449.65 39.7
-1 0 1 1423.46 41.3
-1 0 -1 958.5 30.6
-1 0 -1 1050.19 29.4
1 0 1 1033.5 29.2
1 0 1 1012.8 30.6
1 0 1 982.5 30.3
-2 0 -1 1109.09 33.4
-2 0 -1 1067.19 33
-2 0 -1 1116.29 35.6
-2 0 -1 1062.49 35
2 0 1 1125.29 35.3
2 0 1 1067.69 34.7
2 0 1 1080.29 32.7
2 0 1 1090.39 32.7
-3 0 -1 2282.97 67.39
-3 0 -1 2308.27 67.69
-3 0 -1 2369.56 70.79
-3 0 -1 2246.38 70.89
3 0 1 2279.87 69.49
3 0 1 2203.28 69.99
3 0 1 2338.87 67.09
3 0 1 2344.17 66.79
-4 0 -1 182.98 13.1
-4 0 -1 188.78 15.6
-4 0 -1 185.18 11
4 0 1 182.28 10.4
4 0 1 201.28 12.4
4 0 1 180.28 12.4
4 0 1 181.28 10
4 0 1 211.48 15.9
-5 0 -1 873.71 37.4
-5 0 -1 864.41 32.7
5 0 1 895.41 36
5 0 1 892.21 34.3
5 0 1 862.01 30.9
5 0 1 871.71 36
5 0 1 874.41 31.3
5 0 1 849.52 38.2
-6 0 -1 16.2 7.1
6 0 1 29.3 8.3
6 0 1 15.1 3.8
6 0 1 10.9 3.9
6 0 1 25 6.6
-7 0 -1 687.33 36.4
7 0 1 703.83 50.59
7 0 1 642.54 30.4
7 0 1 634.14 28.1
7 0 1 659.03 28.9
7 0 1 705.53 34.8
-8 0 -1 -8.6 7.4
8 0 1 4.8 5.5
8 0 1 -5.3 2.9
8 0 1 -4.6 3.5
8 0 1 -0.2 3.9
8 0 1 -1.1 4.4
8 -1 -1 224.38 16.3
8 -1 -1 234.28 21.8
8 -1 -1 253.57 16.6
8 -1 -1 272.97 15.7
8 -1 -1 293.97 20.5
8 -1 -1 238.38 18
7 -1 -1 -1.4 2.8
7 -1 -1 0 2.8
7 -1 -1 -5.4 3.8
7 -1 -1 -0.4 3.8
7 -1 -1 2.6 4.4
7 -1 -1 -0.4 3.7
7 -1 -1 1.2 2.6
7 -1 -1 4.2 4.6
6 -1 -1 876.61 32.3
6 -1 -1 877.31 33.2
6 -1 -1 876.41 32.5
6 -1 -1 857.91 35.4
6 -1 -1 960 36.6
6 -1 -1 847.42 35.5
6 -1 -1 917.81 40.6
6 -1 -1 844.02 38.3
5 -1 -1 -2.6 2.5
5 -1 -1 1.5 2.6
5 -1 -1 1.9 2.2
5 -1 -1 0.7 1.9
5 -1 -1 -2.3 2.2
5 -1 -1 -0.6 1.8
5 -1 -1 0.5 2
4 -1 -1 272.57 14.9
4 -1 -1 257.07 14.1
4 -1 -1 265.37 12.7
4 -1 -1 278.87 16.3
4 -1 -1 252.17 11.4
4 -1 -1 254.57 13.4
4 -1 -1 259.27 14.1
4 -1 -1 245.08 12.4
3 -1 -1 292.97 11.4
3 -1 -1 311.77 13
3 -1 -1 297.07 13.9
3 -1 -1 298.57 14
3 -1 -1 281.87 12.7
3 -1 -1 320.97 15.9
3 -1 -1 315.07 14.5
-3 1 1 305.57 13.1
-3 1 1 282.47 16.4
-3 1 1 319.77 14.7
1 -1 -1 96.69 5.9
1 -1 -1 104.69 5.5
1 -1 -1 111.39 4.5
-1 1 1 113.39 6.4
-1 1 1 97.69 5.4
-1 1 1 107.19 4.5
0 -1 -1 3062.69 84.29
0 -1 -1 2918.41 85.09
0 -1 -1 3185.38 85.09
0 1 1 3021.5 84.09
0 1 1 2987.8 85.39
0 1 1 3184.18 85.19
-1 -1 -1 2018.1 57.89
-1 -1 -1 2023.7 57.29
-1 -1 -1 2068.99 56.49
1 1 1 1995.8 57.49
1 1 1 1787.12 55.79
1 1 1 1960.7 57.09
-2 -1 -1 3343.27 92.49
-2 -1 -1 3066.99 92.79
-2 -1 -1 3211.08 93.39
-2 -1 -1 3202.08 88.59
2 1 1 3140.39 92.69
2 1 1 3165.58 89.59
2 1 1 3253.67 91.49
-3 -1 -1 500.25 22.3
-3 -1 -1 490.35 17.3
-3 -1 -1 497.25 22.2
-3 -1 -1 519.75 21.1
3 1 1 508.75 21.5
3 1 1 523.05 20
3 1 1 496.25 17.8
-4 -1 -1 277.87 17.4
-4 -1 -1 313.27 17.6
-4 -1 -1 296.87 16
4 1 1 297.47 12.7
4 1 1 283.37 16.6
4 1 1 264.77 14.4
-5 -1 -1 710.53 30.6
-5 -1 -1 726.33 33.7
5 1 1 728.73 25.4
5 1 1 702.13 28.3
-6 -1 -1 336.97 20.9
-6 -1 -1 295.87 22.6
6 1 1 349.17 18.6
6 1 1 324.57 21.9
6 1 1 330.87 14.9
6 1 1 339.37 24.5
-7 -1 -1 1.4 6.9
7 1 1 8.9 5.4
7 1 1 2.4 3.3
7 1 1 4.5 4.6
7 1 1 5.9 3.2
9 -2 -1 -3.4 4.1
9 -2 -1 0.7 4.9
9 -2 -1 0.3 4.8
8 -2 -1 475.85 24.4
8 -2 -1 440.56 26.4
8 -2 -1 442.46 26.9
8 -2 -1 477.85 30.6
8 -2 -1 431.56 28.9
8 -2 -1 427.56 23
8 -2 -1 460.55 22.9
8 -2 -1 420.46 29.9
7 -2 -1 44.5 7.7
7 -2 -1 29.8 7.6
7 -2 -1 47.6 10.4
7 -2 -1 39.8 9.5
7 -2 -1 36.1 6.9
7 -2 -1 47.4 8.4
7 -2 -1 29.3 6.9
7 -2 -1 57.69 9.8
6 -2 -1 1090.69 42.6
6 -2 -1 1132.99 43.1
6 -2 -1 1041.6 42.6
6 -2 -1 1085.49 41.2
6 -2 -1 1027.2 44.8
6 -2 -1 1130.69 38.5
6 -2 -1 1094.19 40
6 -2 -1 1088.29 37.5
5 -2 -1 137.49 12.7
5 -2 -1 146.49 10.8
5 -2 -1 137.19 11.3
5 -2 -1 143.79 9.7
5 -2 -1 137.19 10.4
5 -2 -1 121.59 15.3
5 -2 -1 148.99 9
5 -2 -1 162.18 12.5
4 -2 -1 9326.67 263.07
4 -2 -1 9570.74 267.47
4 -2 -1 9563.64 259.37
4 -2 -1 9421.16 263.47
4 -2 -1 9041.7 264.77
4 -2 -1 9255.57 261.87
4 -2 -1 9706.13 265.47
-4 2 1 9999 268.87
-4 2 1 9301.57 263.87
3 -2 -1 5.2 2.2
3 -2 -1 3.2 1.6
3 -2 -1 3.4 1.6
3 -2 -1 3.2 1.9
3 -2 -1 5 1.5
-3 2 1 2.3 1.4
-3 2 1 1.2 2.3
-3 2 1 3.1 1.6
-3 2 1 6.3 2.2
2 -2 -1 1415.96 45
2 -2 -1 1366.16 44.1
2 -2 -1 1424.36 41.1
2 -2 -1 1373.36 43.7
-2 2 1 1417.16 42.2
-2 2 1 1400.66 41.2
-2 2 1 1450.85 46.1
-2 2 1 1383.46 44
1 -2 -1 319.17 12.1
1 -2 -1 308.27 12.3
1 -2 -1 313.67 11.8
1 -2 -1 311.27 12.8
-1 2 1 292.57 11.5
-1 2 1 306.57 12.8
-1 2 1 291.67 13.4
-1 2 1 314.27 12.5
0 -2 -1 5492.15 150.28
0 -2 -1 5497.15 151.68
0 -2 -1 5644.23 150.98
0 2 1 5535.25 151.78
0 2 1 5670.43 151.88
0 2 1 5005.8 151.88
-1 -2 -1 972.2 30.9
-1 -2 -1 945.61 32.4
-1 -2 -1 977 32.5
1 2 1 1009.2 30.8
1 2 1 997.3 32.4
1 2 1 1010.4 31.9
-2 -2 -1 754.52 27.5
-2 -2 -1 698.13 27.2
-2 -2 -1 713.73 27.4
2 2 1 711.93 26.3
2 2 1 730.13 23.7
2 2 1 707.73 26.5
-3 -2 -1 942.01 36.1
-3 -2 -1 902.61 35.9
-3 -2 -1 928.11 35.3
3 2 1 958.6 33.7
3 2 1 959.5 30.2
-4 -2 -1 712.03 32.5
-4 -2 -1 748.93 31.9
-4 -2 -1 793.02 34.2
4 2 1 747.93 29.6
4 2 1 734.63 25.3
4 2 1 757.72 31.5
-5 -2 -1 166.28 14.8
-5 -2 -1 182.98 18.1
-5 -2 -1 172.48 15.6
5 2 1 157.58 9.3
5 2 1 171.38 12.8
-6 -2 -1 26.1 9.1
-6 -2 -1 12 6.6
6 2 1 13.8 5.2
6 2 1 12.4 3.1
-7 -2 -1 512.85 35.3
7 2 1 443.26 17.4
7 2 1 458.35 18.7
7 2 1 454.35 24.8
7 2 1 421.56 29.1
9 -3 -1 31 8.7
9 -3 -1 26.6 6.5
9 -3 -1 15.7 6.1
8 -3 -1 391.66 27.4
8 -3 -1 383.36 20.4
8 -3 -1 402.96 23.7
8 -3 -1 394.06 25.8
8 -3 -1 369.76 23.8
8 -3 -1 388.86 25.7
8 -3 -1 424.86 20.5
7 -3 -1 11.5 5.8
7 -3 -1 3.4 5.5
7 -3 -1 10.4 3.9
7 -3 -1 10 4.7
7 -3 -1 11.6 5.4
7 -3 -1 10.4 4.1
7 -3 -1 2.5 3.6
7 -3 -1 14.6 5.6
6 -3 -1 1364.36 52.59
6 -3 -1 1405.76 53.69
6 -3 -1 1423.46 49.3
6 -3 -1 1388.56 49.99
6 -3 -1 1372.46 49.99
6 -3 -1 1359.06 51.89
6 -3 -1 1384.96 45.3
6 -3 -1 1369.86 46.1
-6 3 1 1427.36 56.19
5 -3 -1 80.99 9.5
5 -3 -1 90.19 10.2
5 -3 -1 93.29 8.6
5 -3 -1 100.29 10.1
5 -3 -1 90.09 7.1
5 -3 -1 95.39 10.5
5 -3 -1 85.09 8.3
-5 3 1 80.79 10.2
-5 3 1 89.09 8.9
4 -3 -1 851.11 33.4
4 -3 -1 786.72 32.2
4 -3 -1 837.92 28.8
4 -3 -1 812.42 28.7
4 -3 -1 851.51 27.7
4 -3 -1 798.92 31.3
-4 3 1 841.82 37.6
-4 3 1 805.12 34.6
-4 3 1 813.82 28
3 -3 -1 1.7 1.9
3 -3 -1 3.2 2.4
3 -3 -1 1.5 1.6
3 -3 -1 2.7 1.6
-3 3 1 2.7 1.5
-3 3 1 4.5 2.2
-3 3 1 5 3
-3 3 1 9.1 3.1
2 -3 -1 1674.83 49.2
2 -3 -1 1557.64 49.1
2 -3 -1 1602.34 51.49
2 -3 -1 1627.84 51.19
-2 3 1 1652.43 49.2
-2 3 1 1656.93 51.99
1 -3 -1 2533.25 72.49
1 -3 -1 2442.96 70.69
1 -3 -1 2404.16 70.79
-1 3 1 2351.06 71.49
-1 3 1 2320.67 70.59
-1 3 1 2471.55 72.39
0 -3 -1 868.81 26.8
0 -3 -1 799.22 30.6
0 -3 -1 873.81 28.7
0 3 1 863.11 29.4
0 3 1 867.41 30.1
0 3 1 909.91 29.6
-1 -3 -1 395.96 18.6
-1 -3 -1 447.26 19.2
1 3 1 456.75 18.8
1 3 1 486.55 19.7
1 3 1 458.95 17.6
-2 -3 -1 585.54 25.8
2 3 1 619.24 25
2 3 1 610.54 24.4
2 3 1 626.84 22.2
-3 -3 -1 530.25 25.6
-3 -3 -1 532.65 26.8
-3 -3 -1 575.74 26.8
3 3 1 542.45 24.5
3 3 1 544.35 20.3
3 3 1 545.95 24.2
-4 -3 -1 193.68 16.2
-4 -3 -1 171.78 14.7
-4 -3 -1 203.88 17.5
4 3 1 197.18 10.4
-5 -3 -1 607.04 33.3
-5 -3 -1 531.25 29.9
-5 -3 -1 517.15 31.4
5 3 1 492.75 27.1
5 3 1 508.95 19.6
5 3 1 502.05 31.1
5 3 1 507.35 25.6
-6 -3 -1 103.09 16.6
-6 -3 -1 85.29 16.6
6 3 1 62.09 10.9
6 3 1 79.89 6.3
9 -4 -1 78.29 10.9
9 -4 -1 75.39 13.3
9 -4 -1 117.09 11.6
8 -4 -1 266.67 16.3
8 -4 -1 278.07 21.7
8 -4 -1 292.77 20.6
8 -4 -1 235.38 30.1
8 -4 -1 279.67 16.3
8 -4 -1 253.57 19.2
8 -4 -1 267.77 22
8 -4 -1 238.08 19.3
7 -4 -1 61.69 7.8
7 -4 -1 73.59 9.8
7 -4 -1 54.99 9.7
7 -4 -1 68.69 11.3
7 -4 -1 76.99 8.8
7 -4 -1 68.09 11.7
7 -4 -1 73.39 11.6
7 -4 -1 85.49 11.2
-7 4 1 73.09 12.8
6 -4 -1 698.23 33.4
6 -4 -1 720.73 34
6 -4 -1 737.83 32.8
6 -4 -1 743.43 33.6
6 -4 -1 761.82 35.2
6 -4 -1 730.23 27.5
6 -4 -1 701.53 28.9
-6 4 1 696.03 36.2
5 -4 -1 0.9 2.4
5 -4 -1 -2.2 2.2
5 -4 -1 4.8 2.9
5 -4 -1 1.8 2.4
5 -4 -1 2.4 3.3
-5 4 1 2.5 3.3
-5 4 1 6.5 3.1
-5 4 1 3.1 2.7
4 -4 -1 530.55 20.5
4 -4 -1 507.15 20.1
4 -4 -1 459.65 23.7
4 -4 -1 493.35 23.7
-4 4 1 502.45 20.5
-4 4 1 526.05 20.5
-4 4 1 570.24 27.3
-4 4 1 501.95 26.4
3 -4 -1 719.13 30
3 -4 -1 765.02 26.8
3 -4 -1 762.92 29.8
3 -4 -1 808.42 27.4
-3 4 1 766.72 32.5
-3 4 1 774.62 26.2
-3 4 1 744.53 27.3
-3 4 1 750.32 30.4
2 -4 -1 2170.88 66.29
2 -4 -1 2139.89 67.09
2 -4 -1 2275.27 66.09
2 -4 -1 2173.58 68.39
-2 4 1 2142.59 66.29
-2 4 1 2190.28 68.89
-2 4 1 2231.28 71.39
1 -4 -1 25.6 5.5
1 -4 -1 26.7 4.1
1 -4 -1 24.9 4.1
1 -4 -1 29.4 4.6
-1 4 1 24.4 4.6
-1 4 1 25.1 4.7
-1 4 1 24.7 4.9
0 -4 -1 1331.37 43.5
0 -4 -1 1314.47 39
0 -4 -1 1293.27 42.7
0 -4 -1 1225.28 42
0 4 1 1351.36 43.2
0 4 1 1324.47 43.2
0 4 1 1229.48 43.7
-1 -4 -1 437.66 21.2
-1 -4 -1 420.56 20.5
-1 -4 -1 475.45 19.4
1 4 1 486.05 20.8
1 4 1 450.35 21
1 4 1 455.05 19.2
-2 -4 -1 1441.06 52.29
-2 -4 -1 1553.14 53.19
-2 -4 -1 1488.65 48.5
2 4 1 1458.65 47.4
2 4 1 1442.76 51.09
2 4 1 1555.84 51.39
-3 -4 -1 357.46 23.3
-3 -4 -1 360.66 21.9
3 4 1 347.47 16
3 4 1 365.16 20
3 4 1 374.86 20.1
-4 -4 -1 406.66 27.3
-4 -4 -1 379.06 24
-4 -4 -1 414.36 25.1
4 4 1 392.76 22.3
4 4 1 372.86 21.7
4 4 1 372.56 16.4
-5 -4 -1 336.57 27
-5 -4 -1 337.07 25.3
5 4 1 308.47 13.9
5 4 1 303.47 20.5
9 -5 -1 7.2 5.9
9 -5 -1 10.5 4.2
9 -5 -1 3.1 6.5
9 -5 -1 2.6 5
8 -5 -1 255.07 15.8
8 -5 -1 262.27 21.2
8 -5 -1 247.98 21.4
8 -5 -1 244.68 17
8 -5 -1 243.68 18.5
-8 5 1 267.87 24.6
7 -5 -1 23.9 8.5
7 -5 -1 31.6 6.8
7 -5 -1 26.6 7.8
7 -5 -1 35.3 7.2
7 -5 -1 18.1 6
-7 5 1 27.3 7.4
6 -5 -1 372.06 24.1
6 -5 -1 354.26 22.3
6 -5 -1 373.36 18.1
6 -5 -1 353.06 17
-6 5 1 379.96 18.5
-6 5 1 341.67 25.1
5 -5 -1 3.1 2.5
5 -5 -1 0 2.6
5 -5 -1 -0.2 3.1
5 -5 -1 3.9 2.9
-5 5 1 0.6 2.3
-5 5 1 0.3 3
4 -5 -1 2281.17 70.09
4 -5 -1 2270.07 75.99
4 -5 -1 2290.37 71.09
4 -5 -1 2433.16 76.09
-4 5 1 2304.97 71.49
-4 5 1 2268.97 69.19
-4 5 1 2331.77 80.29
-4 5 1 2330.47 76.99
3 -5 -1 209.28 14.4
3 -5 -1 184.68 12.1
3 -5 -1 195.18 11.4
3 -5 -1 178.18 12.7
-3 5 1 179.18 15.1
-3 5 1 203.58 14.1
-3 5 1 177.48 11.9
-3 5 1 219.88 10.7
2 -5 -1 1787.92 59.79
2 -5 -1 1791.32 57.49
2 -5 -1 1743.23 57.99
2 -5 -1 1753.12 56.99
-2 5 1 1793.12 60.29
-2 5 1 1944.81 62.39
-2 5 1 1820.22 59.29
1 -5 -1 40.3 5.8
1 -5 -1 42.3 6.3
1 -5 -1 44.7 7.3
1 -5 -1 41.1 5.3
-1 5 1 55.69 6.8
-1 5 1 25.8 5.9
-1 5 1 42.5 7
0 -5 -1 2152.78 66.69
0 -5 -1 2107.59 60.99
0 -5 -1 2153.58 66.39
0 5 1 2050.79 66.59
0 5 1 2054.59 66.69
0 5 1 2097.99 68.19
-1 -5 -1 109.59 10.2
-1 -5 -1 104.99 10.7
1 5 1 92.79 12.8
1 5 1 109.59 9.3
1 5 1 112.49 10.6
-2 -5 -1 453.95 21.8
-2 -5 -1 463.65 25
2 5 1 485.95 24.5
2 5 1 485.95 21
-3 -5 -1 123.49 14.2
-3 -5 -1 69.69 13.5
-3 -5 -1 132.99 14.3
3 5 1 113.79 12
3 5 1 120.99 9.3
3 5 1 138.49 13.3
-4 -5 -1 164.48 20.4
-4 -5 -1 234.08 20.3
4 5 1 215.38 17.6
4 5 1 235.28 12.5
8 -6 -1 188.58 19.4
8 -6 -1 165.58 13.2
8 -6 -1 190.38 14.1
8 -6 -1 171.98 12.2
8 -6 -1 178.88 16
-8 6 1 169.08 20.2
7 -6 -1 154.48 12.4
7 -6 -1 162.38 11.2
7 -6 -1 149.69 17.1
7 -6 -1 127.09 15.7
7 -6 -1 160.78 13.2
-7 6 1 156.48 18.6
-7 6 1 118.09 11.7
6 -6 -1 626.04 25
6 -6 -1 650.03 37
6 -6 -1 641.54 34.5
6 -6 -1 620.64 26.8
6 -6 -1 621.04 32.4
-6 6 1 633.44 27.7
-6 6 1 596.04 35.1
5 -6 -1 227.38 18
5 -6 -1 248.28 15
5 -6 -1 248.98 13.8
-5 6 1 242.48 15.4
-5 6 1 224.08 15.1
-5 6 1 249.08 20.9
4 -6 -1 737.33 32.5
4 -6 -1 771.82 28.8
4 -6 -1 739.63 30.1
4 -6 -1 672.93 36.5
-4 6 1 804.32 26.8
-4 6 1 743.53 30.6
-4 6 1 737.43 37.9
3 -6 -1 139.49 11.7
3 -6 -1 154.08 10.9
3 -6 -1 137.29 12.9
3 -6 -1 135.49 11.7
-3 6 1 135.19 11.3
-3 6 1 147.29 15
-3 6 1 128.89 8.7
-3 6 1 124.69 12.1
2 -6 -1 972.8 36.4
2 -6 -1 1030.8 34.6
2 -6 -1 979.2 35.9
2 -6 -1 993.6 38.9
-2 6 1 934.21 36.7
-2 6 1 1004.3 39
-2 6 1 955 39.2
1 -6 -1 1.9 2.4
1 -6 -1 1.3 3.1
1 -6 -1 0.5 3.4
1 -6 -1 -1.6 3.4
-1 6 1 1.2 2.8
-1 6 1 2 2.6
-1 6 1 -0.6 3.3
0 -6 -1 420.76 21.7
0 -6 -1 445.36 22
0 -6 -1 425.76 22.9
0 6 1 450.25 22.1
0 6 1 421.26 22.8
-1 -6 -1 -0.8 3.5
-1 -6 -1 0.5 3.8
1 6 1 -0.5 3
1 6 1 0.5 3.1
-2 -6 -1 402.46 21
-2 -6 -1 381.06 24.5
-2 -6 -1 344.57 23.2
2 6 1 376.36 22.7
2 6 1 374.66 19.2
2 6 1 398.36 22.3
-3 -6 -1 25.8 8.2
-3 -6 -1 6.7 8.4
3 6 1 29.9 7.7
8 -7 -1 35.8 7.6
8 -7 -1 68.39 12
8 -7 -1 51.09 8.1
8 -7 -1 38.7 10.2
-8 7 1 51.29 13.7
7 -7 -1 278.17 17.9
7 -7 -1 303.67 16
7 -7 -1 293.67 18.5
7 -7 -1 292.67 23.9
-7 7 1 307.37 19.7
-7 7 1 306.77 26.6
6 -7 -1 301.37 22.8
6 -7 -1 289.97 18.3
6 -7 -1 309.27 22.3
6 -7 -1 340.07 17.3
-6 7 1 355.06 27.5
5 -7 -1 266.27 17.4
5 -7 -1 283.67 20.2
5 -7 -1 289.57 16
5 -7 -1 283.37 21.1
-5 7 1 281.87 24.2
-5 7 1 286.57 12.9
4 -7 -1 517.55 28.2
4 -7 -1 470.25 25.5
4 -7 -1 526.85 23.7
-4 7 1 500.05 31.9
-4 7 1 560.04 20.1
3 -7 -1 33.9 7.5
3 -7 -1 31.1 6.9
3 -7 -1 21.1 6.5
3 -7 -1 36.5 7.9
-3 7 1 41.8 10.7
-3 7 1 30.6 7.7
-3 7 1 35.1 8.4
2 -7 -1 499.65 25.3
2 -7 -1 496.05 24.4
2 -7 -1 518.25 26.4
2 -7 -1 521.25 22.8
-2 7 1 498.75 26.5
-2 7 1 498.25 26.9
1 -7 -1 28.6 5.9
1 -7 -1 34 8.4
1 -7 -1 23.2 9.9
1 -7 -1 31.8 6.8
-1 7 1 36.8 8
-1 7 1 28.1 6.8
0 -7 -1 690.03 30
0 -7 -1 644.64 31.8
0 -7 -1 640.24 29.9
0 7 1 679.23 30.4
0 7 1 597.94 31.5
0 7 1 619.94 29.7
-1 -7 -1 24.1 6.5
-1 -7 -1 25 6.5
1 7 1 19.9 5.7
1 7 1 14.2 5.2
-2 -7 -1 261.57 21.4
-2 -7 -1 213.08 16.9
2 7 1 230.18 15.3
2 7 1 255.07 21.5
2 7 1 227.48 19
7 -8 -1 65.09 10.8
7 -8 -1 70.39 9.8
7 -8 -1 77.19 11.2
7 -8 -1 82.89 15.6
-7 8 1 47 9.4
-7 8 1 95.09 17
6 -8 -1 289.37 16.9
6 -8 -1 247.38 18.1
-6 8 1 263.47 26.3
-6 8 1 266.57 20.2
5 -8 -1 72.89 10.2
5 -8 -1 79.89 14.6
5 -8 -1 90.89 11.8
5 -8 -1 56.59 11.9
-5 8 1 56.29 12
-5 8 1 77.29 16.5
4 -8 -1 331.37 23.3
4 -8 -1 344.47 19.6
4 -8 -1 292.67 20.1
-4 8 1 336.27 22
3 -8 -1 26 6.8
3 -8 -1 33.8 7
3 -8 -1 17.2 6.6
3 -8 -1 31.2 7.4
-3 8 1 19.1 8.4
-3 8 1 30.3 5.9
-3 8 1 18.5 5.5
-3 8 1 15.2 5.7
2 -8 -1 689.13 33
2 -8 -1 735.13 34.5
2 -8 -1 766.02 31.2
2 -8 -1 740.13 29.5
-2 8 1 684.93 34.6
-2 8 1 691.63 36.6
-2 8 1 709.23 35.6
1 -8 -1 -1.5 4.8
1 -8 -1 4.8 5.3
-1 8 1 7.4 6.5
-1 8 1 -1.8 4.1
0 -8 -1 457.95 24.6
0 -8 -1 426.36 25.3
0 8 1 403.16 27.4
0 8 1 386.96 35.9
-1 -8 -1 15.9 6.8
-1 -8 -1 24.4 8.7
1 8 1 17 5.7
1 8 1 16.7 8.1
1 8 1 21 7.6
5 -9 -1 41 9.8
5 -9 -1 35.4 10.4
5 -9 -1 24.5 7.2
-5 9 1 29.8 10.3
4 -9 -1 331.57 25.5
4 -9 -1 368.76 23.3
4 -9 -1 368.46 19.5
-4 9 1 399.66 33.2
3 -9 -1 119.99 17
3 -9 -1 101.79 11.7
-3 9 1 113.49 19.1
-3 9 1 95.49 8.4
2 -9 -1 259.27 21.3
2 -9 -1 260.17 18
-2 9 1 265.97 25.7
-2 10 -2 412.46 25.6
2 -10 2 432.56 26.4
2 -10 2 422.06 26.5
-3 10 -2 9.6 5.7
-3 10 -2 -1 5.7
3 -10 2 -9 4.8
3 -10 2 1.2 4.8
3 -10 2 -0.2 5
-4 10 -2 326.37 32.1
-4 10 -2 407.86 26.1
4 -10 2 411.46 30.3
4 -10 2 374.56 25.6
4 -10 2 402.76 28
0 9 -2 514.95 29.1
0 9 -2 491.55 23.4
0 -9 2 546.65 31.1
0 -9 2 521.25 26
-1 9 -2 55.49 10.5
-1 9 -2 68.69 6.6
1 -9 2 65.09 11.6
1 -9 2 75.49 15.4
1 -9 2 72.79 13.1
-2 9 -2 272.57 18.4
-2 9 -2 291.97 20
2 -9 2 258.87 20.1
2 -9 2 307.77 19.9
2 -9 2 272.77 20.3
-3 9 -2 43.8 9.3
-3 9 -2 20 6.7
3 -9 2 42.5 9.8
3 -9 2 31.8 8
3 -9 2 53.69 10.8
-4 9 -2 441.96 34.3
-4 9 -2 569.74 30.5
4 -9 2 574.04 32.2
4 -9 2 525.45 28.5
4 -9 2 514.95 24.3
-5 9 -2 67.59 15.5
-5 9 -2 49.9 11.2
5 -9 2 33.1 8.8
5 -9 2 40.3 8.2
5 -9 2 56.59 11.5
-6 9 -2 71.89 15.7
-6 9 -2 74.29 14.5
6 -9 2 60.69 15.3
6 -9 2 46.3 13.3
2 8 -2 185.18 17
-2 -8 2 216.58 27.6
-2 -8 2 196.08 12.9
1 8 -2 174.58 14.6
1 8 -2 149.09 14.6
-1 -8 2 159.88 16.9
-1 -8 2 152.38 12.4
0 8 -2 142.69 11.5
0 8 -2 150.78 13.7
0 8 -2 156.28 15.4
0 -8 2 155.48 15.2
0 -8 2 158.68 13.4
0 -8 2 145.99 15.3
-1 8 -2 167.78 12.5
-1 8 -2 209.28 15.1
-1 8 -2 170.08 16.2
-1 8 -2 180.08 9.9
1 -8 2 149.99 15.1
1 -8 2 188.38 15.3
1 -8 2 169.88 14.8
-2 8 -2 733.03 31.8
-2 8 -2 677.23 30.9
2 -8 2 678.23 33.3
2 -8 2 680.53 32.5
2 -8 2 757.42 31.2
-3 8 -2 28.7 7.2
-3 8 -2 45.5 8.8
-3 8 -2 23.7 6.3
3 -8 2 24.8 6.3
3 -8 2 34.1 7.5
3 -8 2 23.1 6.9
-4 8 -2 79.19 10.9
-4 8 -2 77.99 11.3
-4 8 -2 78.99 14.6
4 -8 2 87.69 13.3
4 -8 2 84.99 11
4 -8 2 82.09 14.2
-5 8 -2 25.4 6.9
-5 8 -2 27.2 8.6
-5 8 -2 14.6 6
5 -8 2 19.6 7.8
5 -8 2 15.3 5.6
5 -8 2 21.9 7.1
5 -8 2 26.6 5.6
-6 8 -2 668.93 37.2
-6 8 -2 655.13 38.8
6 -8 2 650.63 31.3
6 -8 2 640.24 36.3
-7 8 -2 14.5 6.9
-7 8 -2 16.6 7
7 -8 2 16 6.3
7 -8 2 8.7 6.8
3 7 -2 206.88 25.9
3 7 -2 236.58 19.9
-3 -7 2 221.38 20.1
2 7 -2 154.88 14.3
2 7 -2 143.69 13.3
-2 -7 2 124.09 15.2
-2 -7 2 129.69 16.3
-2 -7 2 131.19 10.1
1 7 -2 499.95 24.9
1 7 -2 483.15 26.6
1 7 -2 461.35 17.8
1 7 -2 459.55 23.5
-1 -7 2 493.95 27
-1 -7 2 495.75 21.6
-1 -7 2 555.44 34.2
0 7 -2 310.47 16.4
0 7 -2 308.67 22.5
0 7 -2 334.87 16
0 -7 2 308.87 21.7
0 -7 2 335.97 17.9
0 -7 2 302.77 18.9
-1 7 -2 149.39 8.5
-1 7 -2 145.99 11.5
-1 7 -2 136.59 11.5
1 -7 2 149.49 12.6
1 -7 2 150.98 13.1
1 -7 2 144.19 12.3
-2 7 -2 129.49 11
-2 7 -2 135.99 11.8
2 -7 2 137.39 13.4
2 -7 2 151.48 17.1
2 -7 2 144.29 11.2
-3 7 -2 450.55 24.4
-3 7 -2 472.25 23.6
-3 7 -2 457.25 21.8
3 -7 2 452.35 29.4
3 -7 2 464.05 20.2
3 -7 2 496.85 26
-4 7 -2 1352.06 55.59
-4 7 -2 1507.15 68.29
4 -7 2 1270.07 51.29
4 -7 2 1321.87 42.3
4 -7 2 1197.28 47.6
4 -7 2 1293.97 47.7
-5 7 -2 222.68 18.4
5 -7 2 247.18 20.1
5 -7 2 219.78 18.2
5 -7 2 203.18 17.7
5 -7 2 211.68 15.5
-6 7 -2 541.15 32.3
-6 7 -2 536.05 28.1
-6 7 -2 588.74 33.3
6 -7 2 527.55 32.9
6 -7 2 567.74 32.6
6 -7 2 581.14 30.3
6 -7 2 591.94 27.8
-7 7 -2 63.89 12.7
-7 7 -2 68.69 11.7
-7 7 -2 63.09 12.5
7 -7 2 60.19 14
7 -7 2 62.89 10.8
-8 7 -2 142.19 19.3
-8 7 -2 139.59 17
8 -7 2 125.39 17.8
8 -7 2 104.29 13.2
4 6 -2 85.39 12
4 6 -2 134.09 17
-4 -6 2 88.29 14.1
-4 -6 2 120.89 16.8
3 6 -2 830.92 35.8
3 6 -2 801.12 34.2
-3 -6 2 826.22 39.4
-3 -6 2 787.52 37.6
2 6 -2 34.9 7.8
2 6 -2 37.3 7.6
2 6 -2 59.19 8.6
-2 -6 2 49.8 10.3
-2 -6 2 30.2 5.6
-2 -6 2 34.7 8.5
1 6 -2 759.22 31.1
1 6 -2 771.42 26.2
1 6 -2 753.72 31.1
1 6 -2 790.12 31.9
-1 -6 2 779.02 28.1
-1 -6 2 762.42 33.4
0 6 -2 490.55 20.3
0 6 -2 489.75 20.5
0 6 -2 502.65 22.6
0 6 -2 461.65 22
0 -6 2 492.35 24
0 -6 2 497.55 21.8
0 -6 2 490.15 23.1
-1 6 -2 2544.75 72.19
-1 6 -2 2542.55 77.69
-1 6 -2 2582.24 77.29
-1 6 -2 2474.75 78.29
1 -6 2 2327.67 78.59
1 -6 2 2531.55 77.59
1 -6 2 2556.14 78.89
-2 6 -2 1497.15 51.09
-2 6 -2 1652.53 54.89
-2 6 -2 1564.54 53.49
2 -6 2 1651.13 50.99
2 -6 2 1647.24 55.39
2 -6 2 1521.75 53.29
-3 6 -2 526.45 21.1
-3 6 -2 506.45 23.7
-3 6 -2 547.65 26
3 -6 2 515.75 19.9
3 -6 2 501.05 23.4
3 -6 2 539.95 26.2
3 -6 2 530.45 24
-4 6 -2 833.52 33.4
-4 6 -2 796.92 36.9
-4 6 -2 798.22 35.9
4 -6 2 852.01 32.8
4 -6 2 825.12 36.5
4 -6 2 832.72 27
4 -6 2 836.42 34.1
-5 6 -2 707.73 34.3
-5 6 -2 688.13 30.2
-5 6 -2 666.93 33.6
5 -6 2 699.83 29.4
5 -6 2 687.93 34.9
5 -6 2 720.73 34.4
-6 6 -2 245.08 20.3
-6 6 -2 278.07 20.8
6 -6 2 281.97 21
6 -6 2 262.37 16.7
6 -6 2 264.67 11.9
-7 6 -2 7.2 4.9
-7 6 -2 4.5 5.3
7 -6 2 1.2 3.2
7 -6 2 2.8 4.1
7 -6 2 4.4 4.7
7 -6 2 4.1 4.8
-8 6 -2 326.67 28.4
-8 6 -2 305.67 24.2
8 -6 2 287.37 23.9
8 -6 2 295.47 20.6
8 -6 2 326.77 18.8
5 5 -2 524.05 28.6
5 5 -2 530.85 27.4
-5 -5 2 586.84 32
-5 -5 2 540.05 33.8
4 5 -2 2.6 3.5
4 5 -2 4.4 5.6
4 5 -2 4 4.5
-4 -5 2 0.4 5.2
-4 -5 2 2 5.5
-4 -5 2 -2.3 5.3
3 5 -2 899.81 34.4
3 5 -2 881.51 35.6
3 5 -2 930.71 38.8
-3 -5 2 751.82 34.8
-3 -5 2 895.81 39.3
2 5 -2 354.86 17.5
2 5 -2 316.87 17.5
2 5 -2 323.07 18.7
-2 -5 2 319.07 19.1
-2 -5 2 298.57 12.6
-2 -5 2 313.87 19.4
1 5 -2 2046.6 65.79
1 5 -2 2056.09 61.29
1 5 -2 2046.6 65.89
1 5 -2 2083.59 65.59
-1 -5 2 2065.49 62.19
-1 -5 2 2100.89 67.59
-1 -5 2 2179.48 68.49
0 5 -2 548.15 23.4
0 5 -2 593.04 22.3
0 5 -2 614.34 23.1
0 -5 2 615.44 23.7
0 -5 2 612.94 24.8
-1 5 -2 727.03 27.9
-1 5 -2 732.83 26.6
-1 5 -2 742.53 27
-1 5 -2 729.53 27.8
1 -5 2 764.52 28.5
1 -5 2 738.03 28.6
1 -5 2 706.23 26.7
-2 5 -2 475.75 20.9
-2 5 -2 510.85 22.5
-2 5 -2 467.85 18.7
2 -5 2 504.35 21.2
2 -5 2 486.55 22.7
2 -5 2 475.15 18.4
-3 5 -2 1324.57 48.1
-3 5 -2 1357.86 48.5
3 -5 2 1360.86 48.5
3 -5 2 1342.07 40.3
3 -5 2 1354.16 46.9
3 -5 2 1316.07 45
-4 5 -2 579.94 28.7
-4 5 -2 601.24 26.2
-4 5 -2 644.64 28.9
4 -5 2 654.53 26
4 -5 2 643.04 30.8
4 -5 2 618.34 27.2
4 -5 2 674.43 30.1
-5 5 -2 4.9 4
-5 5 -2 4.9 3.6
-5 5 -2 6.5 4.6
5 -5 2 7.1 3.7
5 -5 2 3.2 3.9
5 -5 2 8 2.7
5 -5 2 7.3 3.8
5 -5 2 1.1 4.5
-6 5 -2 687.43 35.1
-6 5 -2 738.03 34.7
6 -5 2 711.83 34.9
6 -5 2 695.43 32.7
6 -5 2 754.22 28.7
6 -5 2 705.83 40.9
-7 5 -2 87.89 12.3
-7 5 -2 67.09 12.4
7 -5 2 68.69 11.5
7 -5 2 70.69 10.1
7 -5 2 71.59 11.7
7 -5 2 62.39 9.6
7 -5 2 74.69 12.3
7 -5 2 55.39 11.8
-8 5 -2 259.97 22.6
8 -5 2 287.27 19.8
8 -5 2 288.57 23.5
8 -5 2 260.77 18.7
6 4 -2 86.89 11.3
6 4 -2 54.89 10.5
-6 -4 2 58.69 12.3
-6 -4 2 87.49 14.7
5 4 -2 401.86 21.4
5 4 -2 430.46 23.5
5 4 -2 413.16 27.1
-5 -4 2 387.06 24
-5 -4 2 417.96 26.3
-5 -4 2 422.96 26.8
4 4 -2 -5 2.1
4 4 -2 -2.1 3.1
4 4 -2 -2.7 2.2
-4 -4 2 1.5 4.8
-4 -4 2 4.2 4.5
3 4 -2 808.82 32.9
3 4 -2 882.91 31.7
3 4 -2 789.82 35
-3 -4 2 814.52 35.4
-3 -4 2 847.82 32.4
-3 -4 2 817.52 34.9
2 4 -2 32 5.6
2 4 -2 32.7 6.5
2 4 -2 23.1 5.1
-2 -4 2 21.2 5.6
-2 -4 2 28.7 6.4
-2 -4 2 31.5 3.2
1 4 -2 1282.87 42.6
1 4 -2 1326.57 41.9
1 4 -2 1236.18 42.2
1 4 -2 1255.17 38.7
-1 -4 2 1303.57 43.2
-1 -4 2 1262.07 38.9
-1 -4 2 1258.77 43.3
-1 -4 2 1275.07 43.9
0 4 -2 183.48 10.2
0 4 -2 184.48 9.4
0 4 -2 182.58 9.1
0 4 -2 165.78 9.8
0 -4 2 171.98 9.7
0 -4 2 166.78 10.1
0 -4 2 166.68 10.3
-1 4 -2 752.52 26.9
-1 4 -2 717.23 24.7
-1 4 -2 744.33 26.6
1 -4 2 730.03 25.1
1 -4 2 763.62 26.8
1 -4 2 718.43 27.2
-2 4 -2 1214.68 35.4
-2 4 -2 1151.98 38.6
-2 4 -2 1136.89 40.1
2 -4 2 1129.89 35
2 -4 2 1166.08 40.8
2 -4 2 1198.78 38.7
-3 4 -2 111.99 8.6
-3 4 -2 98.69 8.8
-3 4 -2 109.29 9.6
3 -4 2 107.09 8.9
3 -4 2 114.09 10.1
3 -4 2 102.59 5.1
3 -4 2 103.49 8.2
-4 4 -2 608.04 26.3
-4 4 -2 586.04 27.4
-4 4 -2 633.04 25.6
4 -4 2 559.34 25.3
4 -4 2 605.34 28
4 -4 2 613.94 22.1
4 -4 2 623.04 24.5
-5 4 -2 373.36 21.7
-5 4 -2 331.17 19.7
5 -4 2 356.06 18.2
5 -4 2 365.46 19.6
5 -4 2 357.96 17.5
5 -4 2 380.86 22.2
-6 4 -2 659.13 30.5
-6 4 -2 613.54 37.8
6 -4 2 613.04 28.9
6 -4 2 609.94 30.8
6 -4 2 598.74 27.2
6 -4 2 577.54 28.6
6 -4 2 624.14 27.7
-7 4 -2 145.39 15.3
7 -4 2 129.39 12.2
7 -4 2 123.49 14
7 -4 2 134.89 12.2
7 -4 2 137.59 17.6
7 -4 2 124.99 13.4
7 -4 2 140.29 14.6
7 -4 2 116.89 13.3
-8 4 -2 284.97 22.8
8 -4 2 270.77 19.3
8 -4 2 286.57 22.1
8 -4 2 298.37 20.1
8 -4 2 277.17 21.5
7 3 -2 230.08 17.2
7 3 -2 177.98 21.7
-7 -3 2 219.68 22.1
-7 -3 2 226.88 20.7
6 3 -2 35.6 8.8
6 3 -2 49.7 9.2
6 3 -2 28.1 4.6
-6 -3 2 45.9 10.9
-6 -3 2 21.8 7.8
5 3 -2 590.44 27.8
5 3 -2 578.64 21.2
5 3 -2 571.64 25.1
-5 -3 2 566.04 27.6
-5 -3 2 556.24 29.6
4 3 -2 8.7 4.8
4 3 -2 16.6 4.3
4 3 -2 13.1 4.6
4 3 -2 14.7 3.2
-4 -3 2 10.3 5.1
-4 -3 2 14.3 5
-4 -3 2 17.1 5.3
3 3 -2 1464.15 47
3 3 -2 1469.65 57.89
3 3 -2 1459.85 49.4
-3 -3 2 1515.95 51.89
-3 -3 2 1420.16 50.59
-3 -3 2 1471.85 47.5
2 3 -2 151.38 10
2 3 -2 160.28 9.3
2 3 -2 146.79 10.6
-2 -3 2 141.79 10.7
-2 -3 2 134.49 10.2
1 3 -2 985.1 33.2
1 3 -2 1029.1 32.3
1 3 -2 991.9 33.5
-1 -3 2 914.61 32.6
-1 -3 2 1009.2 30
-1 -3 2 1020.5 33.9
0 3 -2 560.04 19.9
0 3 -2 572.24 19.2
0 3 -2 567.74 20.2
0 -3 2 574.24 19.5
0 -3 2 549.95 20.3
0 -3 2 555.94 20.1
-1 3 -2 3355.66 96.19
-1 3 -2 3340.47 95.39
-1 3 -2 3282.57 93.19
1 -3 2 3332.07 91.69
1 -3 2 3473.85 95.59
1 -3 2 3277.37 93.29
-2 3 -2 228.78 11.4
-2 3 -2 240.18 12.8
2 -3 2 240.38 12.7
2 -3 2 241.88 11.4
-3 3 -2 2319.17 72.89
-3 3 -2 2416.36 75.29
-3 3 -2 2566.44 73.29
3 -3 2 2485.15 73.99
3 -3 2 2356.36 72.29
-4 3 -2 1050.39 45.6
-4 3 -2 1129.89 40.9
4 -3 2 1119.29 41
4 -3 2 1113.59 38.7
4 -3 2 1029.5 37.2
4 -3 2 1053.89 37.4
-5 3 -2 1294.37 48.5
5 -3 2 1327.57 45.6
5 -3 2 1283.07 47.4
5 -3 2 1292.27 46.5
5 -3 2 1312.47 46.3
5 -3 2 1283.27 44.4
5 -3 2 1367.06 49.8
-6 3 -2 598.84 29.9
6 -3 2 589.64 28.8
6 -3 2 618.14 27
6 -3 2 564.44 29.6
6 -3 2 579.74 27.4
6 -3 2 638.04 29.9
6 -3 2 648.64 27.8
-7 3 -2 165.58 15.8
7 -3 2 160.38 14.5
7 -3 2 158.08 15.7
7 -3 2 153.98 15.9
7 -3 2 171.08 15.5
7 -3 2 159.08 13.5
7 -3 2 148.39 13.3
7 -3 2 169.78 16.2
8 -3 2 187.08 18.4
8 -3 2 189.58 15.7
8 -3 2 131.49 15.2
8 -3 2 169.38 15.2
7 2 -2 278.17 15.4
7 2 -2 258.37 19.1
-7 -2 2 272.87 20.7
-7 -2 2 308.47 22.8
6 2 -2 3.4 3.2
6 2 -2 2.4 3.9
6 2 -2 3.5 3.4
-6 -2 2 1.2 4
-6 -2 2 -3 4.4
5 2 -2 576.34 25.8
5 2 -2 518.65 25.3
5 2 -2 541.75 22.4
-5 -2 2 549.25 25.8
-5 -2 2 562.04 27.8
4 2 -2 2.1 2.5
4 2 -2 4.4 3
4 2 -2 9.6 4.8
4 2 -2 4.1 2.5
-4 -2 2 1.2 3.1
-4 -2 2 4.4 3.3
-4 -2 2 2.3 3
3 2 -2 2203.98 67.89
3 2 -2 2175.98 70.79
3 2 -2 2251.17 65.09
-3 -2 2 2172.48 65.49
-3 -2 2 2164.58 68.89
2 2 -2 74.49 7.1
2 2 -2 78.09 5.4
-2 -2 2 85.49 7
-2 -2 2 77.29 5
-2 -2 2 74.39 6.8
-2 -2 2 69.09 7.2
1 2 -2 6907.11 185.18
1 2 -2 6808.72 187.18
1 2 -2 6711.53 186.58
-1 -2 2 6703.03 187.48
-1 -2 2 6564.14 186.88
-1 -2 2 6777.62 185.48
0 2 -2 81.49 4.6
0 2 -2 83.49 4.9
0 2 -2 84.29 4.9
0 -2 2 82.09 5
0 -2 2 82.09 4.9
0 -2 2 81.89 4.9
-1 2 -2 5831.72 157.28
-1 2 -2 5706.73 154.38
1 -2 2 5645.94 156.88
1 -2 2 5550.84 157.68
-2 2 -2 340.77 13
-2 2 -2 339.37 15.3
-2 2 -2 348.47 15.1
-2 2 -2 334.07 14
2 -2 2 347.67 15.2
2 -2 2 338.97 14
-3 2 -2 2206.58 69.59
-3 2 -2 2207.78 65.69
-3 2 -2 2224.58 68.49
3 -2 2 2248.68 67.09
3 -2 2 2331.47 64.89
3 -2 2 2190.78 66.69
3 -2 2 2073.89 68.49
-4 2 -2 546.05 25.6
-4 2 -2 547.65 24.2
4 -2 2 592.04 24.9
4 -2 2 550.14 22.8
4 -2 2 537.55 21.5
4 -2 2 576.24 23
4 -2 2 548.85 24.8
-5 2 -2 411.66 21.3
-5 2 -2 431.36 23.7
5 -2 2 448.56 20.8
5 -2 2 418.16 22.2
5 -2 2 460.85 22.8
5 -2 2 395.36 15.2
5 -2 2 401.56 19.7
-6 2 -2 25.8 6.6
-6 2 -2 11 4.8
6 -2 2 18.6 6.1
6 -2 2 9.8 4.4
6 -2 2 23.7 5.8
6 -2 2 21 7.2
6 -2 2 27.6 4.5
6 -2 2 19.1 5.8
6 -2 2 10.2 4.3
-7 2 -2 105.69 17
-7 2 -2 80.39 13.5
7 -2 2 101.69 11.6
7 -2 2 81.69 12.7
7 -2 2 106.19 13.9
7 -2 2 110.59 8.7
7 -2 2 102.69 13
7 -2 2 121.19 12.3
8 -2 2 115.79 13.9
8 -2 2 66.89 11.7
8 -2 2 98.99 8.9
8 -2 2 77.49 11.7
8 1 -2 86.99 10.6
8 1 -2 91.09 11
8 1 -2 98.59 13.3
7 1 -2 161.88 27.7
7 1 -2 144.19 14.6
7 1 -2 136.39 17.2
7 1 -2 134.49 13
7 1 -2 123.59 11.9
-7 -1 2 138.39 15.1
6 1 -2 263.97 20.7
6 1 -2 258.67 16.8
6 1 -2 296.87 16.9
6 1 -2 248.18 17.4
-6 -1 2 271.67 18.8
-6 -1 2 275.67 18.2
5 1 -2 2099.59 72.89
5 1 -2 2095.69 67.89
5 1 -2 2104.69 66.59
5 1 -2 2106.09 58.89
5 1 -2 2103.49 74.39
5 1 -2 2151.28 67.69
5 1 -2 2122.19 64.69
-5 -1 2 1937.01 68.89
-5 -1 2 2096.29 67.89
4 1 -2 901.41 30.1
4 1 -2 846.32 32.1
4 1 -2 846.32 32.1
4 1 -2 908.01 32.1
4 1 -2 902.71 38
4 1 -2 869.31 25.7
-4 -1 2 884.81 31.8
-4 -1 2 893.51 33.8
3 1 -2 1772.92 53.19
3 1 -2 1632.74 47.5
3 1 -2 1696.23 53.49
3 1 -2 1724.83 50.69
3 1 -2 1759.22 56.39
-3 -1 2 1726.93 51.89
-3 -1 2 1686.53 53.89
-3 -1 2 1733.43 56.69
2 1 -2 292.67 10.6
2 1 -2 303.77 13.1
2 1 -2 306.07 9.4
2 1 -2 304.67 14.1
2 1 -2 311.77 10.4
-2 -1 2 295.37 9.8
-2 -1 2 282.47 14.2
-2 -1 2 305.47 10.9
-2 -1 2 303.57 12.9
1 1 -2 4063.79 116.19
1 1 -2 4276.87 116.69
1 1 -2 4382.66 113.79
-1 -1 2 3914.91 113.59
-1 -1 2 4176.78 113.89
0 1 -2 825.22 24.6
0 1 -2 840.52 25.9
0 -1 2 822.62 24.8
0 -1 2 850.91 24.4
-1 1 -2 1999.9 56.29
-1 1 -2 1908.51 53.09
1 -1 2 1847.62 55.59
1 -1 2 1883.61 55.09
-2 1 -2 294.77 12.9
-2 1 -2 309.17 10.6
-2 1 -2 270.37 13.5
2 -1 2 274.97 13
2 -1 2 292.97 12.7
2 -1 2 292.27 10.2
2 -1 2 285.47 9.9
-3 1 -2 1594.24 46.6
-3 1 -2 1502.75 51.89
3 -1 2 1582.14 45.9
3 -1 2 1600.74 50.19
3 -1 2 1584.24 48.2
3 -1 2 1657.53 51.69
3 -1 2 1558.74 51.09
-4 1 -2 148.19 8.3
-4 1 -2 132.19 11.6
-4 1 -2 137.29 9.9
4 -1 2 128.79 9.2
4 -1 2 147.59 12.9
4 -1 2 133.99 10.1
4 -1 2 128.39 7.4
-5 1 -2 391.16 19.7
-5 1 -2 400.26 23.4
-5 1 -2 365.66 16.9
5 -1 2 409.66 22
5 -1 2 439.96 20.9
5 -1 2 408.76 16.6
5 -1 2 405.26 20.3
5 -1 2 377.46 20.8
-6 1 -2 411.26 25.5
-6 1 -2 440.66 22.2
6 -1 2 431.96 23.7
6 -1 2 437.46 22.9
6 -1 2 418.16 22.6
6 -1 2 432.26 26.4
6 -1 2 437.86 18.8
-7 1 -2 112.19 13.8
7 -1 2 131.19 10
7 -1 2 122.19 13.9
7 -1 2 136.59 13.8
7 -1 2 102.09 15.4
7 -1 2 117.69 12.5
-8 1 -2 39.9 10.8
8 -1 2 71.79 9.9
8 -1 2 72.89 11.7
8 -1 2 39.2 7.9
8 -1 2 48.1 13.5
8 -1 2 39.9 9
8 0 -2 217.78 12.2
8 0 -2 183.38 22.9
8 0 -2 201.98 16.1
8 0 -2 198.58 14.3
8 0 -2 218.78 17.5
7 0 -2 757.52 33.2
7 0 -2 738.23 33.6
7 0 -2 789.92 27.1
7 0 -2 791.72 33
7 0 -2 756.12 30.2
7 0 -2 798.82 40.7
7 0 -2 762.42 39.2
-7 0 2 759.82 36.1
6 0 -2 659.53 29.5
6 0 -2 717.53 28.9
6 0 -2 683.33 29
6 0 -2 625.74 34.3
6 0 -2 671.83 26.2
6 0 -2 708.23 28.7
6 0 -2 682.13 30.2
6 0 -2 698.33 33.9
-6 0 2 683.13 31
5 0 -2 247.28 17.1
5 0 -2 238.38 17.8
5 0 -2 247.98 14.5
5 0 -2 258.47 11.6
5 0 -2 249.68 14.8
5 0 -2 253.27 14.2
5 0 -2 257.67 15.4
-5 0 2 251.97 15.5
4 0 -2 864.71 30.2
4 0 -2 880.61 27.7
4 0 -2 888.11 32.2
4 0 -2 829.22 30.7
4 0 -2 843.12 33.6
4 0 -2 829.62 35.4
4 0 -2 863.41 30.7
-4 0 2 849.91 34.2
-4 0 2 862.91 31.6
3 0 -2 4034.3 114.59
3 0 -2 3973.5 114.69
3 0 -2 4200.18 121.09
3 0 -2 3898.91 117.79
3 0 -2 4133.29 116.19
3 0 -2 4191.58 112.89
-3 0 2 3945.81 113.39
-3 0 2 3944.51 118.59
-3 0 2 4161.98 115.59
2 0 -2 139.69 6.2
2 0 -2 125.79 7.9
2 0 -2 132.59 9
2 0 -2 140.79 6.6
-2 0 2 132.69 6.7
-2 0 2 129.99 8.3
-2 0 2 135.19 6.6
1 0 -2 4378.66 121.89
1 0 -2 4100.19 124.29
-1 0 2 4554.64 122.19
-1 0 2 4709.33 124.99
0 0 -2 711.13 22.2
0 0 -2 717.83 21.5
0 0 2 682.73 21.9
0 0 2 695.83 21.6
-1 0 -2 5426.36 143.49
-1 0 -2 5229.28 141.39
1 0 2 5020 142.69
1 0 2 4885.11 142.09
1 0 2 5136.69 141.49
-2 0 -2 101.89 6.3
-2 0 -2 99.09 7.7
-2 0 -2 105.39 6.5
2 0 2 99.59 7.4
2 0 2 105.79 6.6
2 0 2 108.29 6.1
-3 0 -2 1340.17 42.1
-3 0 -2 1349.47 42.5
-3 0 -2 1272.47 45.6
3 0 2 1374.06 44.4
3 0 2 1244.68 42.6
3 0 2 1346.77 45.1
3 0 2 1408.96 42.5
-4 0 -2 932.91 33.3
-4 0 -2 955.9 37.7
-4 0 -2 910.01 32.6
4 0 2 891.51 32.1
4 0 2 954 34.8
4 0 2 982.8 36.8
4 0 2 953.9 32
-5 0 -2 932.81 34.8
-5 0 -2 890.41 33.4
-5 0 -2 909.71 39.7
5 0 2 955 40.6
5 0 2 923.91 32.9
5 0 2 892.41 36.2
5 0 2 931.51 32.9
-6 0 -2 94.59 13.2
-6 0 -2 81.29 9.8
6 0 2 86.59 10.7
6 0 2 70.49 8.1
6 0 2 66.09 8.3
-7 0 -2 736.33 40.5
7 0 2 737.83 35.6
7 0 2 732.13 29
7 0 2 789.92 35.4
8 -1 -2 218.88 21.9
8 -1 -2 221.28 18.8
8 -1 -2 223.78 14.7
8 -1 -2 220.28 22.1
8 -1 -2 219.98 13.7
8 -1 -2 241.88 19.2
8 -1 -2 237.18 17.3
7 -1 -2 121.19 13.2
7 -1 -2 121.99 15.3
7 -1 -2 116.39 12.4
7 -1 -2 131.19 13.2
7 -1 -2 132.59 10.4
7 -1 -2 126.09 14.7
7 -1 -2 127.39 10.1
7 -1 -2 128.79 11.9
6 -1 -2 343.47 20.2
6 -1 -2 363.56 18.6
6 -1 -2 346.37 19
6 -1 -2 374.36 17.2
6 -1 -2 332.97 19.4
6 -1 -2 341.97 16
6 -1 -2 388.06 24.5
6 -1 -2 373.66 22.4
5 -1 -2 1794.22 66.29
5 -1 -2 1950.4 63.99
5 -1 -2 1879.41 57.99
5 -1 -2 1909.11 59.89
5 -1 -2 1914.41 58.29
5 -1 -2 1825.32 59.59
5 -1 -2 1798.92 60.49
5 -1 -2 1909.31 62.79
-5 1 2 1857.61 60.39
-5 1 2 1837.92 64.19
4 -1 -2 617.64 28.6
4 -1 -2 627.14 20.8
4 -1 -2 639.84 26.3
4 -1 -2 615.34 26.1
4 -1 -2 725.93 26.9
4 -1 -2 620.54 23.6
4 -1 -2 622.34 24.9
-4 1 2 649.34 24.1
-4 1 2 611.24 26.6
3 -1 -2 2574.74 74.69
3 -1 -2 2578.34 79.89
3 -1 -2 2587.94 71.19
3 -1 -2 2467.95 73.49
3 -1 -2 2623.74 76.69
-3 1 2 2558.84 75.59
-3 1 2 2572.24 73.89
-3 1 2 2661.13 80.69
-3 1 2 2484.85 78.09
2 -1 -2 1.9 1.6
2 -1 -2 3.4 1
2 -1 -2 3.9 1
2 -1 -2 0.7 1.2
-2 1 2 2.2 0.9
-2 1 2 3.4 1.5
-2 1 2 2.8 1.5
-2 1 2 3.3 0.8
-2 1 2 1.7 1.7
1 -1 -2 3900.51 107.69
1 -1 -2 3911.51 109.29
-1 1 2 3883.11 107.89
-1 1 2 3677.03 109.59
0 -1 -2 9.1 2.2
0 -1 -2 5.9 1.6
0 1 2 6.6 1.8
0 1 2 5.7 1.6
-1 -1 -2 3756.12 106.59
-1 -1 -2 3662.03 106.79
-1 -1 -2 3786.32 106.69
1 1 2 3647.03 106.69
1 1 2 3803.62 106.69
1 1 2 3987.6 106.39
-2 -1 -2 255.07 13.6
-2 -1 -2 251.47 10.1
-2 -1 -2 239.38 12.9
-2 -1 -2 250.17 12.3
2 1 2 235.78 12.6
2 1 2 243.98 11.7
2 1 2 257.17 11.5
-3 -1 -2 2404.36 73.79
-3 -1 -2 2402.06 76.29
-3 -1 -2 2337.37 75.39
-3 -1 -2 2444.96 69.69
3 1 2 2467.55 70.99
3 1 2 2327.27 74.69
3 1 2 2434.46 72.19
-4 -1 -2 132.29 11.3
-4 -1 -2 143.99 8.6
-4 -1 -2 147.19 13.6
4 1 2 142.49 10.3
4 1 2 139.69 9.2
4 1 2 140.99 11.8
-5 -1 -2 1741.23 60.29
-5 -1 -2 1679.33 64.59
5 1 2 1761.82 57.19
5 1 2 1766.32 54.79
-6 -1 -2 164.58 17.5
6 1 2 149.09 14.7
6 1 2 159.98 17.2
6 1 2 148.69 10.6
6 1 2 144.89 13.8
6 1 2 172.48 15.7
-7 -1 -2 25.1 11.8
-7 -1 -2 7.4 6.5
7 1 2 7.2 3.8
7 1 2 6 5
7 1 2 18.1 5.4
9 -2 -2 17.7 6
9 -2 -2 39.6 8.5
9 -2 -2 18 6.1
8 -2 -2 157.18 13.1
8 -2 -2 159.78 19
8 -2 -2 171.28 17
8 -2 -2 182.78 12.4
8 -2 -2 162.28 14
8 -2 -2 177.48 16.3
8 -2 -2 139.79 17.5
7 -2 -2 181.78 16.6
7 -2 -2 176.28 18
7 -2 -2 181.98 11.5
7 -2 -2 186.38 13.7
7 -2 -2 171.78 14.3
7 -2 -2 189.28 15.8
7 -2 -2 174.38 13.1
7 -2 -2 151.58 15.8
6 -2 -2 46.8 7.3
6 -2 -2 57.89 6.2
6 -2 -2 59.99 8.1
6 -2 -2 55.99 9.4
6 -2 -2 51.89 7.2
6 -2 -2 50.19 8.7
6 -2 -2 55.29 10.2
6 -2 -2 40.6 8
5 -2 -2 825.32 26.4
5 -2 -2 809.82 30.4
5 -2 -2 792.02 33.2
5 -2 -2 763.62 34.9
5 -2 -2 780.02 29.3
5 -2 -2 808.02 32.5
5 -2 -2 786.62 31.7
-5 2 2 792.42 36.3
-5 2 2 761.62 32.7
4 -2 -2 2759.52 78.89
4 -2 -2 2479.35 85.39
4 -2 -2 2834.52 81.69
4 -2 -2 2713.43 81.09
4 -2 -2 2841.12 76.69
4 -2 -2 2788.52 84.49
-4 2 2 2653.83 82.89
-4 2 2 2639.54 81.99
-4 2 2 2549.04 86.49
3 -2 -2 1071.89 35.8
3 -2 -2 1025.1 32
3 -2 -2 1065.09 31.9
-3 2 2 1005.5 39.4
-3 2 2 1102.49 37.7
-3 2 2 1107.89 36.7
-3 2 2 1057.29 31.8
2 -2 -2 194.58 11.2
2 -2 -2 180.38 10.1
2 -2 -2 189.78 8
-2 2 2 172.48 10
-2 2 2 172.08 7.8
-2 2 2 173.48 11.5
1 -2 -2 3179.28 88.99
1 -2 -2 3004.9 84.49
1 -2 -2 2861.91 90.59
-1 2 2 3196.78 91.09
-1 2 2 3172.18 87.39
-1 2 2 3095.39 89.29
0 -2 -2 689.53 24.9
0 -2 -2 666.93 27.9
0 -2 -2 737.23 23.7
0 2 2 762.62 26
0 2 2 764.02 25.3
0 2 2 734.83 23.1
-1 -2 -2 1604.84 54.49
-1 -2 -2 1699.33 51.29
-1 -2 -2 1657.73 51.99
1 2 2 1739.23 51.19
1 2 2 1677.63 52.29
1 2 2 1672.13 50.99
-2 -2 -2 10.4 3.6
-2 -2 -2 7.5 3.8
-2 -2 -2 8.7 3
2 2 2 8.6 2.7
2 2 2 8.5 2.3
2 2 2 9 2.8
-3 -2 -2 1724.13 60.09
-3 -2 -2 1751.62 58.19
-3 -2 -2 1717.93 58.79
3 2 2 1805.12 57.99
3 2 2 1656.53 53.29
3 2 2 1803.62 56.59
-4 -2 -2 40.9 8.8
-4 -2 -2 49.5 10.1
-4 -2 -2 52.89 8.7
4 2 2 48.2 8.2
4 2 2 41.4 7.1
4 2 2 45.1 5.9
-5 -2 -2 19.9 7.6
-5 -2 -2 4.3 2.5
5 2 2 12 4.6
5 2 2 7.1 2.9
5 2 2 12.7 5.6
-6 -2 -2 6.9 6
-6 -2 -2 3.5 6.1
6 2 2 3.8 4.9
9 -3 -2 -3.3 3.6
9 -3 -2 -3.9 4
8 -3 -2 167.48 16.6
8 -3 -2 144.79 14.7
8 -3 -2 134.99 10.6
8 -3 -2 135.09 13.6
8 -3 -2 171.28 17.2
8 -3 -2 133.09 18.1
8 -3 -2 131.49 12.3
8 -3 -2 135.09 16.1
7 -3 -2 317.47 21.2
7 -3 -2 319.67 20.3
7 -3 -2 293.47 18.6
7 -3 -2 288.97 21.3
7 -3 -2 299.87 18.2
7 -3 -2 306.77 22.6
7 -3 -2 302.77 15.1
7 -3 -2 302.67 17.4
6 -3 -2 2749.72 86.19
6 -3 -2 2748.23 92.09
6 -3 -2 2773.02 84.09
6 -3 -2 2655.93 88.59
6 -3 -2 2707.83 79.99
6 -3 -2 2641.54 85.39
6 -3 -2 2729.63 90.19
-6 3 2 2635.74 87.89
-6 3 2 2791.62 94.99
5 -3 -2 220.98 13
5 -3 -2 211.58 10.5
5 -3 -2 206.18 15.8
5 -3 -2 201.18 13.7
5 -3 -2 201.78 11.9
5 -3 -2 205.98 15.2
-5 3 2 208.78 17.1
-5 3 2 204.48 14.1
-5 3 2 210.78 10.7
4 -3 -2 537.65 24.7
4 -3 -2 548.55 19
4 -3 -2 499.45 22.7
4 -3 -2 552.04 25.6
4 -3 -2 503.95 19.1
-4 3 2 524.35 23.7
-4 3 2 503.55 18.8
-4 3 2 505.15 22.3
-4 3 2 506.25 26.5
3 -3 -2 702.23 21.9
3 -3 -2 669.83 28.3
3 -3 -2 669.73 26.9
3 -3 -2 663.13 27.6
3 -3 -2 705.33 23.5
-3 3 2 793.82 29.4
-3 3 2 676.23 27.5
-3 3 2 686.03 23.5
-3 3 2 661.33 29.8
2 -3 -2 2619.24 77.99
2 -3 -2 2702.63 76.79
2 -3 -2 2729.03 79.69
2 -3 -2 2606.24 79.29
-2 3 2 2540.85 76.49
-2 3 2 2622.24 79.89
1 -3 -2 1045.5 35.3
1 -3 -2 1070.69 35.1
1 -3 -2 1047.6 32.1
1 -3 -2 1065.49 36.1
-1 3 2 1078.09 36.6
-1 3 2 1099.09 36.5
-1 3 2 1038.3 34.5
0 -3 -2 198.08 10.3
0 -3 -2 181.18 11
0 -3 -2 204.48 11.4
0 -3 -2 212.38 9.5
0 3 2 191.58 11
0 3 2 206.98 12.1
0 3 2 207.98 11.2
-1 -3 -2 1637.64 55.19
-1 -3 -2 1834.52 54.79
-1 -3 -2 1741.73 55.19
-1 -3 -2 1698.43 49.4
1 3 2 1755.62 54.29
1 3 2 1779.02 53.89
1 3 2 1720.83 55.99
-2 -3 -2 474.25 22.8
-2 -3 -2 531.05 21.7
-2 -3 -2 476.95 22.6
2 3 2 483.25 21.9
2 3 2 454.55 21
2 3 2 489.45 19.9
-3 -3 -2 126.89 12.6
-3 -3 -2 114.59 13.2
-3 -3 -2 141.29 12.8
3 3 2 129.89 11.1
3 3 2 126.99 11
3 3 2 127.29 9.1
-4 -3 -2 17 6.4
-4 -3 -2 25.9 8.2
4 3 2 10.8 4.2
4 3 2 14.1 3.6
-5 -3 -2 463.25 28.4
-5 -3 -2 490.75 29.9
-5 -3 -2 482.95 31.9
5 3 2 461.85 24.9
5 3 2 504.75 20.7
-6 -3 -2 33.6 10.9
6 3 2 3.4 3.7
6 3 2 5.3 4.2
9 -4 -2 25.6 5.9
9 -4 -2 43.4 10.9
9 -4 -2 18.2 6.5
9 -4 -2 55.19 11.6
8 -4 -2 731.33 38
8 -4 -2 764.32 35.5
8 -4 -2 779.62 34.9
8 -4 -2 725.73 33.3
8 -4 -2 739.63 29.2
8 -4 -2 728.73 43.1
8 -4 -2 771.92 32.3
7 -4 -2 -3 3.4
7 -4 -2 9.7 4.8
7 -4 -2 6 5.5
7 -4 -2 4.8 4
7 -4 -2 11.6 6.9
7 -4 -2 3.2 3.7
7 -4 -2 6.9 3.4
-7 4 2 5.5 5.1
6 -4 -2 445.76 19
6 -4 -2 485.85 21.4
6 -4 -2 448.26 24
6 -4 -2 437.86 25.1
6 -4 -2 452.15 26.4
-6 4 2 454.85 23.3
5 -4 -2 139.79 12.4
5 -4 -2 126.19 12.3
5 -4 -2 130.89 12.8
5 -4 -2 147.09 9.7
5 -4 -2 158.08 9.6
-5 4 2 138.29 9.2
-5 4 2 124.99 14.3
-5 4 2 142.89 11.5
-5 4 2 139.09 12.7
4 -4 -2 1051.29 40.3
4 -4 -2 1045.3 34.6
4 -4 -2 1015.6 38.9
4 -4 -2 1042.2 36.3
4 -4 -2 1059.39 33.1
-4 4 2 1055.59 40.4
-4 4 2 921.91 42.1
-4 4 2 1086.29 34.8
-4 4 2 1022.7 36.9
3 -4 -2 1714.43 52.39
3 -4 -2 1576.64 54.19
3 -4 -2 1638.04 50.69
3 -4 -2 1554.74 54.09
-3 4 2 1618.24 51.49
-3 4 2 1667.23 58.59
-3 4 2 1603.74 50.89
-3 4 2 1545.85 58.59
2 -4 -2 344.27 16.5
2 -4 -2 338.27 17.3
2 -4 -2 326.97 15.7
2 -4 -2 333.47 12.3
-2 4 2 325.77 15.5
-2 4 2 361.06 19.8
-2 4 2 297.07 16.8
1 -4 -2 1304.17 43.9
1 -4 -2 1300.47 40.9
1 -4 -2 1276.37 42.3
1 -4 -2 1387.46 45.4
-1 4 2 1319.77 45.6
-1 4 2 1286.17 45
-1 4 2 1349.66 43.6
0 -4 -2 246.98 12.9
0 -4 -2 250.57 14.1
0 -4 -2 221.08 13.3
0 -4 -2 238.68 10.7
0 4 2 245.68 13.7
0 4 2 209.08 14
0 4 2 223.38 12.9
-1 -4 -2 712.33 27.8
-1 -4 -2 722.33 28.8
1 4 2 696.63 27.4
1 4 2 672.23 28.3
1 4 2 722.03 29.6
-2 -4 -2 5.1 4.3
-2 -4 -2 0.8 3.4
-2 -4 -2 4.7 4.4
2 4 2 1.9 2.3
2 4 2 4.2 3.4
-3 -4 -2 800.22 39.2
-3 -4 -2 862.31 36.9
3 4 2 819.12 34.7
3 4 2 782.32 30.4
-4 -4 -2 4.4 5.2
-4 -4 -2 2.9 5.7
-4 -4 -2 5.3 7
4 4 2 7.6 4.8
4 4 2 5.2 5
-5 -4 -2 392.36 35
-5 -4 -2 448.66 32.6
5 4 2 444.36 29.4
8 -5 -2 328.87 19.9
8 -5 -2 292.97 16.2
8 -5 -2 287.47 22.1
8 -5 -2 280.57 17.9
-8 5 2 275.47 25.7
7 -5 -2 40.9 9
7 -5 -2 48.2 10.3
7 -5 -2 37 9
7 -5 -2 45.5 7.1
7 -5 -2 43.8 10.5
7 -5 -2 35.3 7.9
-7 5 2 49.3 12.7
6 -5 -2 279.07 14.9
6 -5 -2 257.57 15.1
6 -5 -2 265.37 14.5
6 -5 -2 228.08 17.9
-6 5 2 259.37 16.5
-6 5 2 284.07 22.7
-6 5 2 273.77 16.8
5 -5 -2 848.82 32
5 -5 -2 825.42 37.2
5 -5 -2 888.31 31.6
5 -5 -2 873.31 30.2
5 -5 -2 843.42 36.7
-5 5 2 792.52 42.6
-5 5 2 865.81 38
-5 5 2 878.11 33.3
-5 5 2 866.11 31.7
4 -5 -2 576.44 27.8
4 -5 -2 571.34 23.8
4 -5 -2 614.84 28.4
4 -5 -2 606.94 24.5
-4 5 2 608.84 24.6
-4 5 2 610.04 24.8
-4 5 2 560.94 31.2
-4 5 2 572.74 28.2
3 -5 -2 275.37 17.3
3 -5 -2 343.07 19.4
3 -5 -2 335.97 16.6
3 -5 -2 308.77 16.4
-3 5 2 325.77 21.2
-3 5 2 328.57 19.2
-3 5 2 301.67 16.4
2 -5 -2 292.37 15.9
2 -5 -2 291.57 15.8
2 -5 -2 288.37 17.2
2 -5 -2 290.27 13
-2 5 2 325.47 16.4
-2 5 2 290.37 17.4
-2 5 2 334.67 20.7
1 -5 -2 838.82 30.5
1 -5 -2 846.52 33.2
1 -5 -2 909.11 34.7
1 -5 -2 829.42 30.7
-1 5 2 913.11 35.8
-1 5 2 925.31 33.3
-1 5 2 871.81 34.7
0 -5 -2 486.35 21.8
0 -5 -2 467.15 17.6
0 -5 -2 491.75 25.8
0 -5 -2 485.55 22.6
0 5 2 471.85 22.5
0 5 2 482.15 23.9
0 5 2 476.45 22.3
-1 -5 -2 817.62 33.6
-1 -5 -2 813.72 32.7
1 5 2 799.02 32.3
1 5 2 840.82 34.9
-2 -5 -2 115.49 12.6
-2 -5 -2 171.98 14.9
-2 -5 -2 173.78 13.8
2 5 2 162.08 12.1
2 5 2 193.28 15
-3 -5 -2 862.51 38.8
-3 -5 -2 744.93 41
3 5 2 813.72 37.3
3 5 2 821.02 32.1
-4 -5 -2 75.49 14.5
-4 -5 -2 56.89 14.5
4 5 2 72.69 11.7
4 5 2 60.49 8.2
8 -6 -2 138.79 16.9
8 -6 -2 137.49 11.9
8 -6 -2 122.39 13.1
-8 6 2 162.68 32.6
7 -6 -2 151.98 12.2
7 -6 -2 141.79 12
7 -6 -2 165.38 17.2
7 -6 -2 142.69 12.2
-7 6 2 160.58 19.5
-7 6 2 125.89 11.6
6 -6 -2 838.32 32
6 -6 -2 815.92 38.7
6 -6 -2 803.12 37.6
6 -6 -2 819.92 30.4
6 -6 -2 772.42 31.4
-6 6 2 821.92 32.5
-6 6 2 809.32 43
-6 6 2 789.62 32.2
5 -6 -2 28.5 7.7
5 -6 -2 31.5 7.3
5 -6 -2 28.4 7
-5 6 2 32.8 6.5
-5 6 2 32.3 9
-5 6 2 28.4 6.2
4 -6 -2 610.54 26.2
4 -6 -2 606.14 29.8
4 -6 -2 656.83 29.9
4 -6 -2 594.44 25.8
-4 6 2 594.54 27
-4 6 2 601.84 25
-4 6 2 579.74 33.5
3 -6 -2 314.97 16
3 -6 -2 343.17 19.3
3 -6 -2 362.06 18.6
-3 6 2 341.97 21.1
-3 6 2 350.76 19
2 -6 -2 1193.48 39.7
2 -6 -2 1182.48 43.6
2 -6 -2 1223.08 42.7
2 -6 -2 1193.98 45.6
-2 6 2 1244.68 44.2
-2 6 2 1237.28 55.59
-2 6 2 1143.59 45.8
1 -6 -2 547.15 26.1
1 -6 -2 527.95 23
1 -6 -2 550.24 25.8
1 -6 -2 521.45 21.7
-1 6 2 550.84 27.8
-1 6 2 530.55 26
0 -6 -2 305.67 12.3
0 -6 -2 339.57 19.6
0 -6 -2 324.67 18.3
0 6 2 272.77 19.2
0 6 2 325.07 18.9
0 6 2 285.07 18.9
-1 -6 -2 531.15 28.5
-1 -6 -2 587.44 27
-1 -6 -2 592.94 28.2
1 6 2 515.85 28.6
1 6 2 556.94 26.4
1 6 2 554.54 27.3
-2 -6 -2 187.28 15.9
-2 -6 -2 179.48 16.1
2 6 2 190.88 14.1
2 6 2 189.58 16.8
-3 -6 -2 113.59 24.4
-3 -6 -2 143.99 17.1
3 6 2 112.39 11.2
3 6 2 130.19 15.3
8 -7 -2 310.77 18.9
8 -7 -2 289.67 18.8
8 -7 -2 323.57 26.4
8 -7 -2 323.47 18.5
-8 7 2 349.96 31.3
-8 7 2 337.37 30.7
7 -7 -2 2.3 5.3
7 -7 -2 -4.9 3.3
7 -7 -2 -2 8.2
7 -7 -2 0.7 4.3
-7 7 2 9 8.8
6 -7 -2 410.96 20.3
6 -7 -2 333.57 19.5
6 -7 -2 324.87 24.2
6 -7 -2 362.56 17
-6 7 2 336.17 17.7
-6 7 2 380.16 29.8
5 -7 -2 19.3 5.4
5 -7 -2 18.2 5.4
5 -7 -2 14.4 6.7
5 -7 -2 19.9 6.2
-5 7 2 13.9 7.1
-5 7 2 23.3 7.4
-5 7 2 24.9 5.4
4 -7 -2 623.94 32.1
4 -7 -2 674.83 28.9
4 -7 -2 589.74 28.4
-4 7 2 637.64 37.5
-4 7 2 664.83 26.3
-4 7 2 611.54 32.4
3 -7 -2 175.38 13.8
3 -7 -2 176.08 11
3 -7 -2 173.98 14
3 -7 -2 165.48 15.8
-3 7 2 172.48 18.7
-3 7 2 140.99 17.1
2 -7 -2 232.58 18.7
2 -7 -2 245.48 15.5
2 -7 -2 232.58 14.3
2 -7 -2 241.98 18.6
-2 7 2 231.98 18
-2 7 2 245.48 19
-2 7 2 257.67 21.7
1 -7 -2 127.79 14.2
1 -7 -2 137.89 9.8
1 -7 -2 135.89 13.5
1 -7 -2 125.99 11.5
-1 7 2 135.09 12.8
-1 7 2 114.49 13.9
-1 7 2 122.99 12.9
0 -7 -2 208.88 17.2
0 -7 -2 241.48 17.2
0 7 2 219.78 16.8
-1 -7 -2 161.78 15.2
-1 -7 -2 167.38 16.1
1 7 2 173.48 19
1 7 2 173.18 14.5
-2 -7 -2 -4.1 6.1
-2 -7 -2 3.6 5.6
2 7 2 4.4 4.4
7 -8 -2 4.6 5.7
7 -8 -2 16.3 6.1
-7 8 2 10 7
-7 8 2 17.2 10.1
6 -8 -2 277.97 18
6 -8 -2 249.18 18.1
6 -8 -2 211.98 21.7
6 -8 -2 265.07 14.8
-6 8 2 274.17 21.1
-6 8 2 308.27 28.8
-6 8 2 284.17 14.2
5 -8 -2 11.4 6.2
5 -8 -2 9.5 7.8
5 -8 -2 12.7 5.7
-5 8 2 17.9 11.2
-5 8 2 7.9 3.4
-5 8 2 -0.4 5.5
4 -8 -2 187.38 15.7
4 -8 -2 188.78 11.7
4 -8 -2 180.08 18.7
-4 8 2 198.58 13
-4 8 2 203.78 22.7
-4 8 2 210.38 17.6
3 -8 -2 14.4 7
3 -8 -2 0.2 2.8
3 -8 -2 10 4.5
3 -8 -2 17.5 8.2
-3 8 2 24.1 7.3
-3 8 2 6 7.1
2 -8 -2 232.28 19.7
2 -8 -2 265.17 16.1
2 -8 -2 256.47 15.9
-2 8 2 230.88 23.1
1 -8 -2 111.09 14.5
1 -8 -2 140.49 13.6
-1 8 2 127.99 24
-1 8 2 156.38 15.3
0 -8 -2 19.2 7.2
0 -8 -2 57.29 12.4
0 8 2 48.5 10.5
0 8 2 25.4 7.1
4 -9 -2 279.07 15.8
4 -9 -2 332.17 21.6
4 -9 -2 265.77 23.8
-2 10 -3 86.69 12.8
-2 10 -3 89.09 12
2 -10 3 73.89 14
2 -10 3 87.39 14.6
-3 10 -3 119.79 14.9
-3 10 -3 131.09 15.4
3 -10 3 121.89 15.9
3 -10 3 140.79 13.5
3 -10 3 125.09 17
-4 10 -3 357.96 24.9
-4 10 -3 263.27 29.2
4 -10 3 386.26 26.9
4 -10 3 329.17 24
4 -10 3 364.16 19.8
1 9 -3 0.3 4.5
1 9 -3 0.8 4.5
-1 -9 3 -3.3 4.2
-1 -9 3 -2.9 6.2
0 9 -3 378.66 19.3
0 9 -3 404.96 23.7
0 9 -3 402.36 19.5
0 -9 3 426.86 22.3
0 -9 3 462.45 27.9
-1 9 -3 50.89 8.5
-1 9 -3 49.6 9.8
1 -9 3 32.1 7.7
1 -9 3 41.9 10.3
1 -9 3 37.4 8.3
-2 9 -3 675.63 36.8
-2 9 -3 686.83 31.2
2 -9 3 720.33 34
2 -9 3 692.03 31.2
2 -9 3 602.54 32.6
-3 9 -3 75.29 11.1
-3 9 -3 88.49 11
3 -9 3 77.79 12.2
3 -9 3 56.79 13
3 -9 3 71.09 9.8
-4 9 -3 362.76 30.6
-4 9 -3 470.35 28.3
4 -9 3 477.45 29.3
4 -9 3 471.05 21.3
4 -9 3 424.36 25.4
-5 9 -3 36.2 11.2
-5 9 -3 41.3 10.4
5 -9 3 38.4 7
5 -9 3 26.3 8.1
5 -9 3 15.5 6.1
-6 9 -3 91.29 16.6
-6 9 -3 67.49 14.1
6 -9 3 87.89 16.5
6 -9 3 57.19 11.3
2 8 -3 537.75 35.3
-2 -8 3 694.13 45
1 8 -3 -4.4 2.3
1 8 -3 2.4 4.3
1 8 -3 -3.1 3.7
-1 -8 3 -3.2 3.4
-1 -8 3 -10.6 5.2
0 8 -3 553.54 24.3
0 8 -3 569.74 27.3
0 8 -3 554.94 23.5
0 8 -3 536.75 27.4
0 -8 3 623.04 26.6
0 -8 3 538.55 29
-1 8 -3 5.4 3.5
-1 8 -3 0.6 1.6
-1 8 -3 -2.4 2.8
1 -8 3 -1 3.6
1 -8 3 -1.7 3.9
1 -8 3 -1 4
-2 8 -3 1089.49 42.7
-2 8 -3 1113.69 40.8
2 -8 3 960.9 42.5
2 -8 3 1080.79 40.2
-3 8 -3 7.5 3.9
-3 8 -3 -0.8 2.1
-3 8 -3 -3.9 2.4
3 -8 3 4 4.2
3 -8 3 6.2 3.8
3 -8 3 6.7 4.4
-4 8 -3 133.49 14.4
-4 8 -3 145.89 17.7
-4 8 -3 173.78 15
4 -8 3 142.29 13.3
4 -8 3 145.99 10.2
4 -8 3 167.28 16.8
-5 8 -3 363.56 25.2
-5 8 -3 346.57 22.5
-5 8 -3 390.66 27.6
5 -8 3 353.56 25.2
5 -8 3 362.26 26.6
5 -8 3 312.27 20.8
-6 8 -3 386.96 27.7
-6 8 -3 340.87 26.1
6 -8 3 334.37 25.9
6 -8 3 336.47 21.6
-7 8 -3 30.4 8.5
-7 8 -3 28.8 10.3
7 -8 3 21.4 8.7
4 7 -3 380.66 31.1
-4 -7 3 392.46 25.5
-4 -7 3 287.07 26.7
3 7 -3 45.5 10.9
3 7 -3 31.1 7.2
-3 -7 3 15.3 7.3
-3 -7 3 30.9 10
2 7 -3 410.56 22.6
2 7 -3 376.16 21.6
2 7 -3 381.06 22.3
-2 -7 3 353.46 15.5
-2 -7 3 388.06 24.4
-2 -7 3 387.26 25.2
1 7 -3 30 6.8
1 7 -3 23.5 5.5
1 7 -3 21.4 5.2
1 7 -3 26.2 5.9
-1 -7 3 22.1 7
-1 -7 3 23.5 5.9
-1 -7 3 35.2 6.6
0 7 -3 1695.53 56.59
0 7 -3 1587.24 53.89
0 7 -3 1680.83 53.19
0 7 -3 1607.84 56.89
0 -7 3 1618.24 57.49
0 -7 3 1706.53 55.39
-1 7 -3 11.3 4.2
-1 7 -3 6.9 3.4
-1 7 -3 7.2 1.9
1 -7 3 7.3 4.2
1 -7 3 11.1 4.3
1 -7 3 8.5 4.5
-2 7 -3 158.88 13.1
-2 7 -3 144.29 11.1
2 -7 3 135.39 16
2 -7 3 160.78 14
2 -7 3 162.78 11.5
-3 7 -3 566.84 24.1
-3 7 -3 599.24 29.5
3 -7 3 593.24 27.6
3 -7 3 620.24 23.6
3 -7 3 662.93 31.1
-4 7 -3 1274.67 50.89
-4 7 -3 1145.09 47.6
4 -7 3 1096.89 47
4 -7 3 1086.09 43.2
-5 7 -3 59.59 11.4
-5 7 -3 39.5 9.4
-5 7 -3 42.4 9.4
5 -7 3 53.09 11
5 -7 3 44.3 8.2
5 -7 3 57.09 11.7
-6 7 -3 357.26 25.6
-6 7 -3 383.56 30
-6 7 -3 354.96 22.2
6 -7 3 368.16 21.4
6 -7 3 334.57 24.9
6 -7 3 333.17 25.6
-7 7 -3 182.88 20
-7 7 -3 214.18 19.6
7 -7 3 211.88 20.9
7 -7 3 205.38 16.8
-8 7 -3 168.88 18.6
-8 7 -3 109.99 17.2
8 -7 3 122.19 10.2
8 -7 3 146.19 15.6
8 -7 3 116.89 17.5
5 6 -3 58.09 12.5
-5 -6 3 60.19 13
-5 -6 3 26.3 10
4 6 -3 298.17 20.2
4 6 -3 300.57 19.1
4 6 -3 275.87 21.8
-4 -6 3 278.67 23.7
-4 -6 3 292.37 20.1
3 6 -3 61.09 9.7
3 6 -3 65.49 9.5
-3 -6 3 64.49 10.4
-3 -6 3 71.59 12.6
-3 -6 3 67.69 11.8
2 6 -3 820.72 27.4
2 6 -3 829.32 34.8
2 6 -3 838.82 33.9
2 6 -3 839.32 32.9
-2 -6 3 801.22 36.1
-2 -6 3 743.53 26.2
-2 -6 3 854.91 37.7
1 6 -3 41.9 6.9
1 6 -3 39.9 5.6
1 6 -3 38.4 6.6
1 6 -3 36.3 6.8
-1 -6 3 43.8 8.5
-1 -6 3 39.5 5.8
-1 -6 3 39.7 8.1
0 6 -3 171.48 12.3
0 6 -3 179.38 10.7
0 6 -3 196.18 12.6
0 6 -3 206.28 12.1
0 -6 3 175.48 12.1
0 -6 3 175.58 13.3
0 -6 3 180.58 12.9
-1 6 -3 19 4.7
-1 6 -3 29.3 5.6
-1 6 -3 26.1 5.9
1 -6 3 16.8 5.2
1 -6 3 26.6 6.6
1 -6 3 33.9 6.2
-2 6 -3 2167.78 65.09
-2 6 -3 2131.69 68.59
-2 6 -3 2209.78 70.39
2 -6 3 2154.38 64.99
2 -6 3 2116.59 70.59
2 -6 3 2025.1 67.99
-3 6 -3 4.4 3.9
-3 6 -3 9.7 3.9
-3 6 -3 8.1 2.8
3 -6 3 12.6 4.4
3 -6 3 10.6 2.9
3 -6 3 10.4 4.4
-4 6 -3 1134.79 45.6
-4 6 -3 1099.79 44.4
-4 6 -3 1078.49 41.7
4 -6 3 1097.39 40.9
4 -6 3 1057.29 45.3
4 -6 3 1169.38 45.9
-5 6 -3 19.6 6.3
-5 6 -3 19.8 5.7
5 -6 3 12.3 5
5 -6 3 15 4.6
-6 6 -3 398.56 26.3
-6 6 -3 371.66 25
-6 6 -3 357.46 23.2
6 -6 3 373.36 16.1
6 -6 3 380.56 21.3
6 -6 3 348.87 24.7
6 -6 3 351.46 24.2
-7 6 -3 86.89 14.3
-7 6 -3 115.89 14.1
7 -6 3 87.49 9.3
7 -6 3 108.59 13.5
7 -6 3 98.59 12.4
7 -6 3 109.69 15.7
-8 6 -3 144.39 18.5
8 -6 3 158.68 19.8
8 -6 3 131.19 13.1
8 -6 3 194.78 24.8
6 5 -3 169.58 20.9
-6 -5 3 160.78 16.7
5 5 -3 218.68 17.7
5 5 -3 245.78 16.9
-5 -5 3 213.78 17.5
-5 -5 3 186.38 19.3
4 5 -3 171.38 14.9
4 5 -3 191.28 13.9
4 5 -3 169.48 19.4
-4 -5 3 188.58 18.3
-4 -5 3 156.28 13.8
3 5 -3 90.79 10
3 5 -3 94.59 11
3 5 -3 117.59 10.5
-3 -5 3 116.29 13.5
-3 -5 3 121.89 11.1
2 5 -3 538.45 24.6
2 5 -3 542.05 23.3
-2 -5 3 529.65 26
-2 -5 3 550.84 26.9
-2 -5 3 541.65 17.9
1 5 -3 898.21 33.6
1 5 -3 943.81 33.7
1 5 -3 910.71 31
1 5 -3 917.71 34.1
-1 -5 3 907.31 34.9
-1 -5 3 936.11 31
-1 -5 3 943.11 35.6
0 5 -3 2666.23 78.39
0 5 -3 2573.34 78.59
0 5 -3 2611.64 76.79
0 5 -3 2658.03 79.79
0 -5 3 2658.53 78.89
0 -5 3 2547.05 79.89
0 -5 3 2599.74 79.69
-1 5 -3 77.69 7.9
-1 5 -3 87.69 6.9
-1 5 -3 83.69 7.9
1 -5 3 75.69 7.8
1 -5 3 77.49 8.1
1 -5 3 90.79 7.3
-2 5 -3 1775.32 55.09
-2 5 -3 1954.1 61.79
2 -5 3 1847.02 55.39
2 -5 3 1899.91 59.49
-3 5 -3 578.94 27.3
-3 5 -3 598.14 25.7
-3 5 -3 646.04 27.2
3 -5 3 646.54 28.7
3 -5 3 616.54 25.2
-4 5 -3 515.25 24.2
-4 5 -3 588.54 28.1
-4 5 -3 523.95 25
4 -5 3 527.95 18.6
4 -5 3 574.24 28
4 -5 3 539.25 24
-5 5 -3 59.49 8.7
-5 5 -3 66.19 10.5
-5 5 -3 59.39 8.5
5 -5 3 76.09 11
5 -5 3 67.09 8.8
5 -5 3 60.89 6.6
-6 5 -3 510.35 30
-6 5 -3 576.94 28.1
6 -5 3 520.45 29.7
6 -5 3 553.24 24.3
6 -5 3 567.94 26.4
-7 5 -3 0.1 3.9
7 -5 3 1.8 3.9
7 -5 3 0.7 4.3
7 -5 3 10.9 4.8
7 -5 3 -3.4 3.6
-8 5 -3 93.19 15.4
8 -5 3 92.89 13
8 -5 3 76.29 14.6
8 -5 3 82.39 12.6
6 4 -3 42.7 9.3
6 4 -3 29.8 7.6
-6 -4 3 35.4 12.7
-6 -4 3 31.1 9.3
5 4 -3 356.06 15.6
5 4 -3 372.16 19.7
5 4 -3 372.06 22.1
5 4 -3 376.06 25.3
-5 -4 3 375.56 24.9
-5 -4 3 397.66 21.6
-5 -4 3 358.86 25.2
4 4 -3 628.34 31.4
4 4 -3 626.94 25.9
4 4 -3 643.74 29.3
-4 -4 3 645.94 26.9
-4 -4 3 626.84 31.7
3 4 -3 1283.07 48.7
3 4 -3 1325.47 44.1
3 4 -3 1276.17 46.5
-3 -4 3 1347.47 43.7
-3 -4 3 1287.27 48.5
-3 -4 3 1344.77 49.5
2 4 -3 1355.16 46
2 4 -3 1417.86 47.5
2 4 -3 1318.07 43.7
-2 -4 3 1283.37 47.6
-2 -4 3 1328.67 47.3
1 4 -3 524.25 20.7
1 4 -3 518.35 21.5
1 4 -3 531.05 21.5
-1 -4 3 521.85 19
-1 -4 3 534.75 22.3
-1 -4 3 520.75 21.6
0 4 -3 1730.83 50.89
0 4 -3 1690.33 52.19
0 4 -3 1660.23 52.39
0 -4 3 1741.93 53.09
0 -4 3 1651.13 51.39
0 -4 3 1669.73 52.69
-1 4 -3 2283.77 67.89
-1 4 -3 2214.58 64.39
-1 4 -3 2173.58 66.79
1 -4 3 2233.88 66.79
1 -4 3 2226.08 62.99
1 -4 3 2130.59 64.59
-2 4 -3 1200.48 41.1
-2 4 -3 1189.38 39.4
2 -4 3 1182.58 40.9
2 -4 3 1087.89 38.4
-3 4 -3 113.29 9.1
-3 4 -3 102.59 9
-3 4 -3 118.49 10.5
3 -4 3 118.89 10.7
3 -4 3 110.39 8.9
-4 4 -3 1574.34 56.19
-4 4 -3 1596.04 53.19
-4 4 -3 1560.04 52.29
4 -4 3 1536.95 51.99
4 -4 3 1647.24 56.59
-5 4 -3 3.6 2.6
-5 4 -3 6.6 4.1
5 -4 3 10.4 3.4
5 -4 3 6.1 4.4
5 -4 3 10.5 3.8
-6 4 -3 484.15 27.4
6 -4 3 450.45 25
6 -4 3 461.95 23.6
6 -4 3 475.45 24.2
-7 4 -3 25.2 7.1
7 -4 3 16.5 6.4
7 -4 3 28.8 6.9
7 -4 3 24.5 8.1
7 -4 3 24.2 6.4
-8 4 -3 222.68 20.4
8 -4 3 247.28 19.1
8 -4 3 239.78 21.2
8 -4 3 222.58 20.2
7 3 -3 179.38 15.6
7 3 -3 162.08 21
7 3 -3 158.08 11.5
-7 -3 3 227.58 21.1
-7 -3 3 205.78 28.8
6 3 -3 106.89 17.1
6 3 -3 107.09 10.2
6 3 -3 113.69 9.7
6 3 -3 109.89 13
-6 -3 3 117.49 12.4
-6 -3 3 143.59 15.9
5 3 -3 565.94 23.8
5 3 -3 591.84 27.6
5 3 -3 574.84 23.7
-5 -3 3 534.95 29.5
-5 -3 3 564.94 25.7
4 3 -3 293.87 17.3
4 3 -3 285.47 19.1
4 3 -3 280.57 14.4
-4 -3 3 310.87 19.4
-4 -3 3 293.47 15.2
3 3 -3 839.92 29.1
3 3 -3 845.22 32.4
3 3 -3 806.42 39.7
-3 -3 3 821.32 33.5
-3 -3 3 858.21 28.5
-3 -3 3 849.91 33.8
2 3 -3 973.3 34.1
2 3 -3 947.41 35.1
2 3 -3 970.1 31.6
-2 -3 3 945.41 34.9
-2 -3 3 942.41 35.1
-2 -3 3 972.9 35.8
1 3 -3 611.24 21.5
1 3 -3 612.94 22.9
1 3 -3 601.14 22.5
-1 -3 3 546.35 23.7
-1 -3 3 641.44 23.5
-1 -3 3 613.74 23.6
0 3 -3 2481.55 71.79
0 3 -3 2491.25 72.19
0 -3 3 2465.85 72.19
0 -3 3 2407.26 72.29
0 -3 3 2546.55 72.19
-1 3 -3 248.58 11.7
-1 3 -3 232.48 9.5
1 -3 3 257.77 11.9
-2 3 -3 2339.67 69.89
-2 3 -3 2261.87 67.89
2 -3 3 2176.68 68.89
2 -3 3 2230.58 67.29
-3 3 -3 8.3 3.4
-3 3 -3 17.5 3.7
-3 3 -3 11.9 3.9
-3 3 -3 8.6 2.5
3 -3 3 22.1 4.8
3 -3 3 13.6 4.4
-4 3 -3 1378.66 44.9
-4 3 -3 1330.17 49.9
-4 3 -3 1387.86 49.6
4 -3 3 1460.65 50.09
4 -3 3 1343.37 46.6
-5 3 -3 2.6 3.3
-5 3 -3 -3.7 2.4
5 -3 3 -1.8 2.2
5 -3 3 0.8 2.6
5 -3 3 0.6 3.6
-6 3 -3 678.23 34.9
-6 3 -3 705.23 33.6
6 -3 3 742.33 32
6 -3 3 741.43 37.3
6 -3 3 725.43 28.2
6 -3 3 702.83 33.2
-7 3 -3 6.2 4.7
7 -3 3 6.2 5.9
7 -3 3 7.7 5.1
7 -3 3 1.7 3.4
7 -3 3 2.1 4.8
7 -3 3 9.5 5.5
-8 3 -3 347.97 24.1
8 -3 3 324.87 19.4
8 -3 3 340.97 23.8
7 2 -3 338.37 18.8
7 2 -3 342.37 21.8
7 2 -3 334.67 18.2
-7 -2 3 298.47 22.7
6 2 -3 92.09 9.2
6 2 -3 82.99 11.2
6 2 -3 129.89 18.5
6 2 -3 100.09 11.5
-6 -2 3 109.99 11.1
-6 -2 3 80.19 12.3
5 2 -3 660.23 36.6
5 2 -3 741.93 31.1
5 2 -3 693.83 26.5
5 2 -3 708.13 28.9
-5 -2 3 753.22 29.3
-5 -2 3 754.82 33.4
4 2 -3 535.65 24.2
4 2 -3 577.94 21
4 2 -3 569.54 27.2
-4 -2 3 544.65 21.7
-4 -2 3 552.64 25.6
3 2 -3 196.28 13.4
3 2 -3 196.08 11.8
3 2 -3 201.88 9.5
-3 -2 3 187.58 13.4
-3 -2 3 184.98 12.3
2 2 -3 1783.72 56.19
2 2 -3 1810.82 57.59
2 2 -3 1848.42 52.89
-2 -2 3 1815.92 50.99
-2 -2 3 1833.72 56.69
-2 -2 3 1795.82 58.19
1 2 -3 478.65 18.2
1 2 -3 487.05 18.4
1 2 -3 496.35 16.4
-1 -2 3 495.05 16.7
-1 -2 3 450.05 16
-1 -2 3 470.75 19
0 2 -3 1714.03 50.59
0 2 -3 1721.13 50.69
0 -2 3 1803.22 51.19
0 -2 3 1671.93 50.39
-1 2 -3 590.84 21
-1 2 -3 622.24 21.7
1 -2 3 588.24 20.9
1 -2 3 601.04 21.3
-2 2 -3 3304.97 96.69
-2 2 -3 3192.28 97.09
2 -2 3 3134.69 94.89
2 -2 3 3537.55 96.99
-3 2 -3 1045.4 39.1
-3 2 -3 1115.49 38.3
3 -2 3 1016.8 37.7
3 -2 3 1064.89 36.5
-4 2 -3 2070.99 66.19
-4 2 -3 1975.5 67.99
4 -2 3 2056.59 66.89
4 -2 3 1994.9 66.19
4 -2 3 1944.31 59.69
4 -2 3 2098.59 64.99
-5 2 -3 53.29 9.3
-5 2 -3 37.9 7.5
5 -2 3 42.4 8.5
5 -2 3 51.29 9.7
5 -2 3 48 7.5
5 -2 3 46.7 5.8
-6 2 -3 873.71 36.8
-6 2 -3 822.62 40.2
6 -2 3 862.61 42.8
6 -2 3 924.21 37.1
6 -2 3 855.91 32.9
6 -2 3 841.12 39.4
6 -2 3 872.71 28.8
-7 2 -3 -3.1 5.2
-7 2 -3 5.6 4.5
7 -2 3 4.7 5.7
7 -2 3 2.7 2.6
7 -2 3 -3.4 4
-8 2 -3 147.29 18.6
8 -2 3 168.88 15.9
8 -2 3 129.39 13.6
8 1 -3 36.8 8.6
8 1 -3 46.5 8.7
8 1 -3 25.6 7
-8 -1 3 64.59 13
7 1 -3 246.48 22.7
7 1 -3 266.67 18.7
7 1 -3 285.47 30.6
7 1 -3 257.27 17.6
7 1 -3 258.87 18.8
-7 -1 3 243.58 19.7
6 1 -3 140.39 15.9
6 1 -3 164.18 17.5
6 1 -3 158.98 13.2
6 1 -3 166.48 13.4
6 1 -3 178.38 11.7
-6 -1 3 192.28 15.7
5 1 -3 692.73 29
5 1 -3 649.83 20.6
5 1 -3 687.43 34.4
5 1 -3 678.83 28.7
5 1 -3 707.83 25.6
5 1 -3 668.83 28
5 1 -3 655.23 31.8
-5 -1 3 704.73 29.9
4 1 -3 473.85 14.7
4 1 -3 461.35 23.5
4 1 -3 386.76 26.5
4 1 -3 442.86 20.6
4 1 -3 474.85 17.5
4 1 -3 473.25 16.5
-4 -1 3 461.25 21.1
-4 -1 3 427.46 23
3 1 -3 2588.64 71.29
3 1 -3 2531.45 71.89
3 1 -3 2530.85 70.79
3 1 -3 2568.54 76.89
3 1 -3 2598.74 78.89
-3 -1 3 2516.05 75.99
-3 -1 3 2476.25 71.79
-3 -1 3 2491.65 79.49
2 1 -3 1286.37 35.6
2 1 -3 1271.17 41.1
2 1 -3 1220.28 36.5
-2 -1 3 1238.08 39.1
-2 -1 3 1237.18 41.8
-2 -1 3 1242.88 37
1 1 -3 2888.51 81.29
-1 -1 3 2963.9 81.19
-1 -1 3 2933.71 82.79
-1 -1 3 2994.1 85.29
0 1 -3 2633.24 83.79
0 1 -3 2919.31 79.09
0 -1 3 2842.82 78.99
0 -1 3 2821.92 79.99
-1 1 -3 3002.1 82.99
-1 1 -3 2964.2 85.69
1 -1 3 2854.11 84.49
1 -1 3 3011.4 84.89
-2 1 -3 3365.26 90.29
-2 1 -3 3202.48 95.29
2 -1 3 3016.8 93.59
2 -1 3 3272.67 93.59
-3 1 -3 193.58 11.7
-3 1 -3 190.78 13
-3 1 -3 212.08 9.8
3 -1 3 209.48 12.2
3 -1 3 196.08 9.1
3 -1 3 183.08 12.1
3 -1 3 197.08 12.6
-4 1 -3 532.65 25.7
-4 1 -3 521.55 22.6
-4 1 -3 521.85 19.9
4 -1 3 516.55 20
4 -1 3 444.06 20
4 -1 3 549.25 23.8
4 -1 3 534.55 24
4 -1 3 530.45 24.8
-5 1 -3 59.39 10
-5 1 -3 43.2 6.4
-5 1 -3 41.8 7.3
5 -1 3 49.2 6.6
5 -1 3 39 7.9
5 -1 3 48.3 7.9
5 -1 3 51.99 5.8
5 -1 3 45.4 8.3
-6 1 -3 316.57 18.7
-6 1 -3 326.37 23.5
-6 1 -3 338.77 17
6 -1 3 331.77 18.3
6 -1 3 318.37 15.4
6 -1 3 338.07 18.5
6 -1 3 300.67 19.6
-7 1 -3 -8.1 3.7
-7 1 -3 -4.2 5
7 -1 3 -6.3 3.2
7 -1 3 -2.9 5
7 -1 3 -2.2 2.4
7 -1 3 2.4 3.9
8 0 -3 -2.1 4.5
8 0 -3 1.3 3.3
8 0 -3 -0.1 4.3
8 0 -3 6.5 5.2
8 0 -3 -5.1 4.7
7 0 -3 822.22 36.6
7 0 -3 813.42 29.7
7 0 -3 803.72 41.7
7 0 -3 754.12 34
7 0 -3 836.12 33
7 0 -3 828.52 35
7 0 -3 790.02 40
7 0 -3 767.92 27.7
-7 0 3 795.32 36.3
6 0 -3 5.9 2.7
6 0 -3 7.8 4.6
6 0 -3 7.6 4.3
6 0 -3 2 3.5
6 0 -3 6.2 4
6 0 -3 6.3 5.2
6 0 -3 7.7 3.7
-6 0 3 6.7 4
5 0 -3 919.91 29.2
5 0 -3 845.52 39.9
5 0 -3 934.01 38
5 0 -3 910.51 29.4
5 0 -3 902.21 34
5 0 -3 905.71 34.5
5 0 -3 919.91 32.8
5 0 -3 891.41 40.3
-5 0 3 888.31 34.5
-5 0 3 865.21 38
4 0 -3 101.89 5.3
4 0 -3 95.29 9.3
4 0 -3 104.79 8.8
4 0 -3 87.99 10.5
4 0 -3 98.09 6.3
4 0 -3 93.89 7.2
4 0 -3 93.19 7.5
-4 0 3 114.49 10.7
-4 0 3 95.39 6.9
-4 0 3 86.99 7.7
3 0 -3 1923.21 55.39
3 0 -3 1896.11 56.29
3 0 -3 1885.51 63.39
3 0 -3 1908.61 59.99
-3 0 3 1896.11 56.79
-3 0 3 1874.41 61.19
-3 0 3 1887.01 56.69
2 0 -3 35.2 3.8
2 0 -3 37.8 5.4
-2 0 3 34.7 3.8
-2 0 3 35.8 3.4
-2 0 3 31.7 5.5
1 0 -3 1485.75 45.1
1 0 -3 1382.56 42.6
-1 0 3 1394.96 42.8
-1 0 3 1454.45 45.2
0 0 -3 1877.81 54.29
0 0 -3 1855.11 55.49
0 0 3 1904.21 55.39
0 0 3 1867.91 54.59
-1 0 -3 733.73 24.5
1 0 3 758.22 25.5
-2 0 -3 14.9 3
-2 0 -3 12.4 3.4
2 0 3 10.2 2.9
2 0 3 18 3.6
2 0 3 14.7 3.8
-3 0 -3 77.59 7.1
-3 0 -3 71.89 8.6
-3 0 -3 92.19 8.7
3 0 3 66.29 7.9
3 0 3 80.69 6.5
3 0 3 66.59 7.1
-4 0 -3 952 35.3
-4 0 -3 1001 34.7
-4 0 -3 970 40.2
4 0 3 964.8 34.6
4 0 3 991 33.5
4 0 3 942.31 38.2
4 0 3 995.4 34.9
-5 0 -3 5.8 3.3
-5 0 -3 2.7 4.5
5 0 3 4.5 3
5 0 3 0.1 2.7
5 0 3 -0.1 2.8
-6 0 -3 158.78 17.5
-6 0 -3 156.48 13.9
-6 0 -3 161.98 12.5
6 0 3 192.18 12.6
6 0 3 146.69 13
6 0 3 162.58 12.2
6 0 3 177.78 16.9
-7 0 -3 -7.3 7.2
-7 0 -3 -3.3 3.4
7 0 3 3.9 4.1
7 0 3 -0.1 3.2
7 0 3 -4.2 2.6
8 -1 -3 71.29 12.5
8 -1 -3 69.39 12.9
8 -1 -3 53.29 7.4
8 -1 -3 64.39 11.2
8 -1 -3 63.29 10.4
8 -1 -3 60.39 8.1
7 -1 -3 166.98 14.1
7 -1 -3 125.79 15
7 -1 -3 172.88 11.4
7 -1 -3 162.08 18.8
7 -1 -3 138.89 12.9
7 -1 -3 178.08 16
7 -1 -3 152.08 9.9
6 -1 -3 179.38 12.9
6 -1 -3 183.28 17.4
6 -1 -3 196.98 12
6 -1 -3 185.28 14.9
6 -1 -3 196.88 14.1
6 -1 -3 218.18 16.8
-6 1 3 171.38 16.1
-6 1 3 212.88 14.3
5 -1 -3 1721.93 51.49
5 -1 -3 1594.44 47.1
5 -1 -3 1728.03 61.69
5 -1 -3 1570.84 56.29
5 -1 -3 1574.54 51.49
5 -1 -3 1594.64 53.89
5 -1 -3 1620.54 56.29
-5 1 3 1565.34 52.39
-5 1 3 1555.04 57.49
4 -1 -3 46.1 3
4 -1 -3 40.4 4.8
4 -1 -3 53.79 8.3
4 -1 -3 55.79 6.8
4 -1 -3 47.4 5.8
4 -1 -3 45.8 5.8
-4 1 3 51.99 6.5
-4 1 3 40.6 7
-4 1 3 52.79 6.1
3 -1 -3 1395.96 44
3 -1 -3 1409.46 49.5
-3 1 3 1478.45 50.49
-3 1 3 1442.66 45.5
-3 1 3 1353.56 47.2
-3 1 3 1385.76 42
2 -1 -3 933.71 34.6
-2 1 3 936.61 27.7
-2 1 3 959.3 32.8
-2 1 3 1016.1 36.6
-2 1 3 960.8 32
1 -1 -3 2416.36 71.39
-1 1 3 2345.67 70.09
-1 1 3 2425.16 72.29
0 -1 -3 15.5 3.4
0 -1 -3 13.1 2.9
0 1 3 13.6 3
0 1 3 15.1 2.3
-1 -1 -3 223.08 11.1
-1 -1 -3 239.28 12
1 1 3 232.48 11.3
1 1 3 227.98 11.1
1 1 3 223.48 11.6
-2 -1 -3 1942.71 64.29
-2 -1 -3 2036.4 61.79
2 1 3 2093.99 63.29
2 1 3 2007.3 61.19
2 1 3 1989.8 61.69
-3 -1 -3 275.77 16.9
-3 -1 -3 260.37 12.1
-3 -1 -3 262.57 14.8
3 1 3 259.27 15.5
3 1 3 254.97 13.9
3 1 3 255.27 13.4
-4 -1 -3 175.18 10.4
-4 -1 -3 185.88 13.8
-4 -1 -3 185.68 15.8
4 1 3 189.08 14.6
4 1 3 205.68 12.8
4 1 3 210.28 15.2
-5 -1 -3 521.25 27.1
-5 -1 -3 579.94 22.1
-5 -1 -3 521.15 30.7
5 1 3 545.75 24.5
5 1 3 560.54 23.6
5 1 3 582.04 38.6
-6 -1 -3 352.16 26.3
6 1 3 337.37 20.9
6 1 3 336.27 19.2
6 1 3 390.36 18.6
7 1 3 64.39 9.8
9 -2 -3 83.29 8.1
9 -2 -3 76.89 10.8
9 -2 -3 69.69 11.7
8 -2 -3 158.38 10.3
8 -2 -3 139.09 14
8 -2 -3 142.99 15.3
8 -2 -3 142.19 17
8 -2 -3 155.38 14
8 -2 -3 152.68 12.8
8 -2 -3 157.18 17.7
7 -2 -3 1071.79 39.2
7 -2 -3 1066.29 49.9
7 -2 -3 1001.7 44.4
7 -2 -3 1035 39.7
7 -2 -3 948.41 41.7
7 -2 -3 1116.99 44.9
7 -2 -3 1077.69 41.2
7 -2 -3 1047.8 34.5
6 -2 -3 167.18 12.2
6 -2 -3 174.18 14
6 -2 -3 194.68 12.4
6 -2 -3 181.88 14.3
6 -2 -3 184.08 9.1
6 -2 -3 144.79 14.4
6 -2 -3 169.58 16.3
-6 2 3 164.18 14.9
5 -2 -3 1335.27 47.6
5 -2 -3 1308.97 52.69
5 -2 -3 1389.56 46.2
5 -2 -3 1344.17 43.4
5 -2 -3 1398.06 50.69
5 -2 -3 1400.96 40.3
5 -2 -3 1337.97 47.9
-5 2 3 1427.46 50.59
-5 2 3 1307.87 47.3
-5 2 3 1281.27 53.29
4 -2 -3 257.57 9.6
4 -2 -3 260.77 15.9
4 -2 -3 247.78 16.9
4 -2 -3 238.88 10.6
4 -2 -3 256.37 13.9
-4 2 3 251.87 9.6
-4 2 3 239.88 17.3
-4 2 3 251.27 14.7
-4 2 3 256.37 15.5
3 -2 -3 2408.96 79.09
3 -2 -3 2521.35 75.59
-3 2 3 2507.45 70.39
-3 2 3 2580.24 77.09
-3 2 3 2591.04 81.69
-3 2 3 2438.86 76.49
2 -2 -3 150.78 10.5
2 -2 -3 161.28 10.2
-2 2 3 166.98 11.9
-2 2 3 154.58 10.1
-2 2 3 161.48 7.9
1 -2 -3 1610.44 51.59
1 -2 -3 1719.93 52.09
-1 2 3 1617.94 53.59
-1 2 3 1659.53 51.99
-1 2 3 1689.63 49.7
0 -2 -3 1365.96 44.1
0 -2 -3 1314.37 43.7
0 2 3 1373.06 41.1
0 2 3 1433.26 44.3
0 2 3 1451.55 48.6
0 2 3 1299.87 44.8
-1 -2 -3 2181.78 65.29
-1 -2 -3 2023.7 64.79
-1 -2 -3 2105.99 64.49
1 2 3 2085.69 64.29
1 2 3 2147.29 65.79
1 2 3 2146.69 63.99
-2 -2 -3 587.74 26.7
-2 -2 -3 612.74 25.8
2 2 3 610.64 23.9
2 2 3 652.33 25.5
2 2 3 610.74 25
-3 -2 -3 2447.96 81.39
-3 -2 -3 2510.45 78.69
-3 -2 -3 2479.55 69.89
3 2 3 2356.26 76.19
3 2 3 2441.16 74.39
3 2 3 2435.06 77.79
-4 -2 -3 787.12 37.9
-4 -2 -3 799.62 34.7
4 2 3 740.13 31.4
4 2 3 777.82 29.6
-5 -2 -3 94.89 14.8
-5 -2 -3 78.99 18.6
5 2 3 112.99 11.7
5 2 3 108.89 10
5 2 3 92.39 12.8
-6 -2 -3 144.29 16.9
-6 -2 -3 185.98 21.2
6 2 3 156.08 12
6 2 3 180.88 15.1
9 -3 -3 188.18 16
9 -3 -3 199.68 12.6
9 -3 -3 187.88 16.9
9 -3 -3 217.38 18
8 -3 -3 169.38 14.4
8 -3 -3 173.58 14.6
8 -3 -3 151.98 16
8 -3 -3 120.29 15.1
8 -3 -3 144.99 10.2
8 -3 -3 121.79 12.9
7 -3 -3 685.43 30.3
7 -3 -3 686.33 30.1
7 -3 -3 673.03 31.4
7 -3 -3 660.23 44.8
7 -3 -3 676.13 33
7 -3 -3 627.94 27.5
7 -3 -3 623.74 23.7
-7 3 3 656.73 34.4
6 -3 -3 134.49 13.6
6 -3 -3 124.99 8.4
6 -3 -3 122.99 13.9
6 -3 -3 132.69 11.6
6 -3 -3 135.49 12.2
6 -3 -3 144.89 13.3
6 -3 -3 124.19 9.6
-6 3 3 114.09 12.4
-6 3 3 146.89 17.4
5 -3 -3 1175.58 46.7
5 -3 -3 1242.68 43.9
5 -3 -3 1189.18 38.5
5 -3 -3 1208.48 37.3
5 -3 -3 1149.39 47.6
-5 3 3 1140.59 44.6
-5 3 3 1348.07 52.29
-5 3 3 1182.18 45.2
-5 3 3 1195.28 37.4
4 -3 -3 125.69 7.2
4 -3 -3 133.29 11.9
4 -3 -3 112.99 6.2
4 -3 -3 121.29 10.3
4 -3 -3 116.59 11.4
-4 3 3 107.49 12
-4 3 3 116.69 12.8
-4 3 3 121.19 10.5
-4 3 3 108.59 6.7
3 -3 -3 2023.9 64.89
3 -3 -3 2060.09 67.69
3 -3 -3 2051.99 66.49
3 -3 -3 1966.9 64.19
-3 3 3 2144.09 65.29
-3 3 3 1933.91 69.29
-3 3 3 2170.18 60.99
-3 3 3 2049.49 65.99
2 -3 -3 70.29 7.2
2 -3 -3 65.19 7.8
-2 3 3 67.19 6
-2 3 3 60.69 7.1
-2 3 3 67.89 8.4
1 -3 -3 1915.81 59.89
1 -3 -3 1970.3 60.39
1 -3 -3 1860.71 54.69
-1 3 3 1837.92 62.39
-1 3 3 1922.81 60.69
-1 3 3 1947.71 58.39
0 -3 -3 673.63 26
0 -3 -3 637.54 23.4
0 3 3 670.23 26.1
0 3 3 631.64 24.8
0 3 3 664.33 27.2
-1 -3 -3 2528.05 79.29
-1 -3 -3 2678.33 79.19
-1 -3 -3 2470.25 77.99
1 3 3 2645.34 78.69
1 3 3 2545.35 76.99
1 3 3 2571.04 80.29
-2 -3 -3 143.39 12.1
-2 -3 -3 148.19 12
-2 -3 -3 147.29 11.8
2 3 3 124.99 10.9
2 3 3 135.59 10.6
-3 -3 -3 21.5 6.9
-3 -3 -3 18.1 6.1
3 3 3 46.4 9.6
3 3 3 27.5 6
3 3 3 27.8 6.6
-4 -3 -3 218.88 20.6
4 3 3 202.68 15.4
4 3 3 183.88 17.1
4 3 3 187.78 12.8
-5 -3 -3 125.99 17.5
5 3 3 103.49 12.8
5 3 3 91.99 9.8
9 -4 -3 250.97 18.9
9 -4 -3 229.88 18.2
9 -4 -3 258.17 20.3
9 -4 -3 273.97 14.8
8 -4 -3 379.06 17.8
8 -4 -3 371.26 21.8
8 -4 -3 399.86 21.3
8 -4 -3 383.06 23.8
8 -4 -3 399.56 26.4
7 -4 -3 302.17 14.6
7 -4 -3 318.47 23.3
7 -4 -3 313.87 20
7 -4 -3 301.17 21.4
7 -4 -3 318.67 20.1
7 -4 -3 276.17 22.9
-7 4 3 285.67 20.5
-7 4 3 307.07 25.2
6 -4 -3 7.8 3.3
6 -4 -3 3.1 4
6 -4 -3 2.4 3.5
6 -4 -3 4.3 3.4
-6 4 3 5.1 4.3
-6 4 3 3 3.6
-6 4 3 1.2 2.5
5 -4 -3 648.94 23.5
5 -4 -3 657.33 22.3
5 -4 -3 616.54 30.6
5 -4 -3 614.94 28.7
-5 4 3 640.74 23.4
-5 4 3 636.24 28.7
-5 4 3 620.64 30
-5 4 3 660.13 34.7
4 -4 -3 251.27 16.2
4 -4 -3 266.27 12.8
4 -4 -3 234.98 14.6
4 -4 -3 240.48 16.8
-4 4 3 246.38 15.6
-4 4 3 242.18 16.6
-4 4 3 257.87 19.3
-4 4 3 252.77 12.6
3 -4 -3 824.62 32.9
3 -4 -3 826.52 45.4
3 -4 -3 855.11 31.8
-3 4 3 794.92 36.7
-3 4 3 796.42 29.6
-3 4 3 821.22 33.6
2 -4 -3 36.6 6.1
2 -4 -3 44.6 6.6
2 -4 -3 34.8 7.6
-2 4 3 44.3 5.8
-2 4 3 45.7 6.9
-2 4 3 34.6 6.9
1 -4 -3 1779.22 56.19
1 -4 -3 1763.12 52.99
1 -4 -3 1830.52 58.49
1 -4 -3 1666.63 57.19
-1 4 3 1811.52 58.99
-1 4 3 1767.92 61.39
-1 4 3 1785.32 67.79
0 -4 -3 52.59 5.8
0 -4 -3 54.19 6.7
0 -4 -3 51.09 8.2
0 4 3 50.99 7.9
0 4 3 49.7 7.4
0 4 3 70.69 8
-1 -4 -3 69.99 8.3
-1 -4 -3 70.59 9
-1 -4 -3 59.09 4.5
-1 -4 -3 63.59 8.4
1 4 3 60.99 8.7
1 4 3 76.39 9
1 4 3 63.49 8
-2 -4 -3 254.27 17.1
-2 -4 -3 290.27 17.9
2 4 3 271.97 18
2 4 3 286.17 16.3
2 4 3 281.97 16.4
-3 -4 -3 273.17 19.6
-3 -4 -3 303.77 23.9
-3 -4 -3 294.57 20.4
3 4 3 283.67 19
3 4 3 278.07 16.6
-4 -4 -3 151.68 19.9
4 4 3 135.09 14.3
4 4 3 132.49 11.6
8 -5 -3 72.39 14.2
8 -5 -3 40.9 9.5
8 -5 -3 42.4 7.7
-8 5 3 72.89 15.7
7 -5 -3 145.89 17.5
7 -5 -3 164.28 11.1
7 -5 -3 138.59 11
7 -5 -3 139.19 15.7
7 -5 -3 161.58 15.7
-7 5 3 146.79 18.4
-7 5 3 134.59 14
6 -5 -3 270.77 14.3
6 -5 -3 255.77 12.7
6 -5 -3 260.97 19.1
6 -5 -3 269.17 16.8
-6 5 3 267.97 17.6
-6 5 3 244.18 13.8
-6 5 3 254.77 22.2
5 -5 -3 763.52 24.4
5 -5 -3 699.03 27.7
5 -5 -3 731.93 33.5
5 -5 -3 790.12 31
-5 5 3 786.42 32.5
-5 5 3 726.03 38.6
-5 5 3 715.83 28.2
4 -5 -3 22 5.1
4 -5 -3 18.4 4.7
4 -5 -3 11.4 4.3
4 -5 -3 27.3 10.7
-4 5 3 27.3 6.4
-4 5 3 20.1 4.9
-4 5 3 11.9 6
3 -5 -3 1159.98 41.3
3 -5 -3 1082.49 42.8
3 -5 -3 1147.09 43
-3 5 3 1081.29 40.6
-3 5 3 1183.58 48.6
-3 5 3 1122.59 44
2 -5 -3 19.9 4.8
2 -5 -3 21.8 4
2 -5 -3 17.8 4.5
2 -5 -3 17.7 5.4
-2 5 3 17.3 5.3
-2 5 3 24.6 5.4
-2 5 3 13.4 4.3
1 -5 -3 341.37 15.6
1 -5 -3 323.87 18.9
1 -5 -3 351.36 16.8
1 -5 -3 359.96 19.9
-1 5 3 319.97 21.2
-1 5 3 346.17 18.1
-1 5 3 341.47 19.7
0 -5 -3 244.18 14.5
0 -5 -3 244.28 11.8
0 -5 -3 243.38 16.3
0 5 3 229.98 15.7
-1 -5 -3 493.25 24.6
-1 -5 -3 466.35 23.6
1 5 3 514.35 27
1 5 3 482.65 26.1
1 5 3 482.65 24
-2 -5 -3 64.39 11.1
-2 -5 -3 72.59 11
-2 -5 -3 72.39 11.1
2 5 3 60.89 10.1
2 5 3 54.39 8.4
2 5 3 71.69 11.2
-3 -5 -3 258.97 24.8
-3 -5 -3 285.67 21
3 5 3 297.87 21.4
3 5 3 275.27 17.1
8 -6 -3 43.9 8.2
8 -6 -3 43.4 10.9
8 -6 -3 46.5 7.8
8 -6 -3 73.79 10.4
-8 6 3 86.69 16.5
7 -6 -3 442.06 21.3
7 -6 -3 512.95 20.5
7 -6 -3 473.05 24.2
7 -6 -3 470.35 28.9
-7 6 3 454.35 34.3
-7 6 3 480.85 22.2
-7 6 3 474.35 24.7
6 -6 -3 67.09 8.9
6 -6 -3 66.09 6.3
6 -6 -3 82.39 13.2
6 -6 -3 85.49 13.6
6 -6 -3 90.89 10.4
-6 6 3 82.59 9.4
-6 6 3 65.69 11.7
-6 6 3 85.29 10.3
-6 6 3 91.79 14.7
5 -6 -3 430.56 21
5 -6 -3 462.25 23
5 -6 -3 457.65 26.6
5 -6 -3 409.76 25
-5 6 3 468.25 22.4
-5 6 3 457.95 22.9
-5 6 3 440.26 30.3
4 -6 -3 4.8 3.7
4 -6 -3 6.1 3.6
4 -6 -3 9.6 4
-4 6 3 4.2 4.8
-4 6 3 3.6 4
-4 6 3 9.5 4.2
3 -6 -3 501.65 24.7
3 -6 -3 502.35 24
3 -6 -3 419.66 24.8
-3 6 3 479.35 29.5
-3 6 3 432.76 25.4
-3 6 3 500.35 23.9
2 -6 -3 2.3 4.7
2 -6 -3 0.2 3
2 -6 -3 6.1 4
2 -6 -3 1.8 4.3
-2 6 3 -1.4 2.7
-2 6 3 3.4 3.5
-2 6 3 0.3 3.5
1 -6 -3 636.14 24.9
1 -6 -3 632.24 31.6
1 -6 -3 631.94 25.2
1 -6 -3 615.54 29.2
-1 6 3 563.54 32.2
-1 6 3 591.14 29.6
0 -6 -3 4.6 4.4
0 -6 -3 5.5 3.7
0 -6 -3 6.2 5.2
0 -6 -3 6.8 2.2
0 6 3 4.4 4.1
0 6 3 6.6 3.5
0 6 3 5.7 4.5
-1 -6 -3 811.12 34.9
-1 -6 -3 741.53 33.8
1 6 3 745.83 33.9
1 6 3 784.62 37.5
-2 -6 -3 -1.7 4.7
-2 -6 -3 1 5.4
2 6 3 10.6 5.4
2 6 3 0.6 4
7 -7 -3 105.49 16.4
7 -7 -3 117.29 11.3
7 -7 -3 109.99 7.8
7 -7 -3 100.79 12.4
-7 7 3 123.39 20.2
-7 7 3 125.39 12.7
6 -7 -3 90.59 11
6 -7 -3 67.89 9.7
6 -7 -3 69.89 13.2
-6 7 3 73.19 14
-6 7 3 81.89 10.7
5 -7 -3 279.77 21.9
5 -7 -3 301.67 19.2
5 -7 -3 289.57 21.9
-5 7 3 293.57 17.4
-5 7 3 310.37 26.6
4 -7 -3 254.47 17.5
4 -7 -3 228.38 19.5
-4 7 3 277.97 24.2
-4 7 3 196.08 22.3
-4 7 3 235.28 15.8
3 -7 -3 543.85 27.1
3 -7 -3 532.65 19.8
3 -7 -3 557.44 26.7
3 -7 -3 452.35 27.5
-3 7 3 569.74 27.8
-3 7 3 507.75 29.1
-3 7 3 529.55 34
2 -7 -3 49.8 10.2
2 -7 -3 46.9 11.3
2 -7 -3 40.9 8
2 -7 -3 48.6 7.3
-2 7 3 44.4 11.7
-2 7 3 43.8 9.5
-2 7 3 53.39 10
1 -7 -3 625.64 24.6
1 -7 -3 594.84 26.3
1 -7 -3 623.54 31.2
-1 7 3 632.04 36.4
-1 7 3 612.64 31.5
0 -7 -3 56.79 12
0 -7 -3 74.09 10.2
0 7 3 71.99 11.7
0 7 3 44.4 12.7
-1 -7 -3 169.48 16
-1 -7 -3 137.89 15.8
1 7 3 160.98 15.5
1 7 3 151.38 17.3
6 -8 -3 229.88 24.5
-6 8 3 244.18 15.6
-6 8 3 259.07 28.5
-6 8 3 214.68 19.2
5 -8 -3 213.88 21.2
-5 8 3 302.97 28.7
-5 8 3 172.88 18.1
-5 8 3 248.58 15.9
4 -8 -3 49.7 10.7
4 -8 -3 61.09 12
-4 8 3 41.5 8.3
-4 8 3 62.69 14.8
-4 8 3 64.49 14
3 -8 -3 241.58 12.7
3 -8 -3 210.38 29.8
-3 8 3 252.27 25.1
2 -8 -3 91.69 15.2
2 -8 -3 117.19 11.1
2 -8 -3 118.09 12.3
-2 8 3 90.99 16.3
1 -8 -3 201.98 20
1 -8 -3 245.48 16.2
-1 8 3 250.97 24.1
-2 10 -4 0.4 4.1
-2 10 -4 -1.1 4.4
2 -10 4 -5 5
2 -10 4 -8.4 5.5
2 -10 4 0.3 5.2
-3 10 -4 350.86 23.6
-3 10 -4 373.96 22.4
3 -10 4 364.56 21.1
3 -10 4 345.07 25.4
3 -10 4 276.27 22.8
-4 10 -4 -2.8 5.8
-4 10 -4 -11.2 4
4 -10 4 5.9 6.6
4 -10 4 -9.8 3.8
4 -10 4 4.3 5.6
1 9 -4 99.69 13.2
1 9 -4 88.09 11.3
1 9 -4 109.39 9.6
-1 -9 4 87.09 16.6
-1 -9 4 99.99 11.1
0 9 -4 0.4 3.5
0 9 -4 0.6 3.4
0 9 -4 1.2 4.4
0 -9 4 7.9 6.7
0 -9 4 3.5 4.5
-1 9 -4 443.26 23.4
-1 9 -4 423.76 22.9
1 -9 4 366.66 25
1 -9 4 438.96 25
1 -9 4 450.95 24.8
-2 9 -4 168.38 13.7
-2 9 -4 160.58 14.7
2 -9 4 189.38 15
2 -9 4 136.69 15
2 -9 4 151.38 16.1
-3 9 -4 264.97 20.1
-3 9 -4 264.17 16.9
3 -9 4 249.97 19.6
3 -9 4 275.07 16.7
3 -9 4 286.67 22
-4 9 -4 61.29 10.8
-4 9 -4 36.4 11
4 -9 4 54.29 13.1
4 -9 4 45 7.8
4 -9 4 71.69 14.9
4 -9 4 36.9 8.7
-5 9 -4 470.45 32.4
-5 9 -4 423.56 28.6
5 -9 4 393.26 29
5 -9 4 389.16 34.7
-6 9 -4 22.9 7
-6 9 -4 19.8 9.4
6 -9 4 28.4 9.1
6 -9 4 25 9.1
2 8 -4 151.58 14.8
1 8 -4 345.47 21
1 8 -4 342.87 18.9
1 8 -4 340.97 17.3
-1 -8 4 314.97 22.3
-1 -8 4 351.16 24.8
-1 -8 4 341.97 17.2
0 8 -4 468.05 19.8
0 8 -4 468.05 22.5
0 8 -4 423.66 23.9
0 8 -4 485.65 24.3
0 -8 4 497.35 23.5
0 -8 4 430.46 25.6
0 -8 4 470.45 25.6
-1 8 -4 363.96 20.9
-1 8 -4 384.76 20.1
-1 8 -4 392.36 22.5
1 -8 4 386.66 21.5
1 -8 4 371.66 22.3
1 -8 4 411.06 22.5
-2 8 -4 336.07 20.7
-2 8 -4 322.37 20.8
-2 8 -4 338.07 17.6
2 -8 4 317.07 18.1
2 -8 4 362.86 26.5
2 -8 4 297.47 19.8
-3 8 -4 263.67 16.3
-3 8 -4 340.97 22
3 -8 4 351.56 21.4
3 -8 4 323.37 22.4
3 -8 4 329.77 16.7
-4 8 -4 70.99 10.5
-4 8 -4 52.79 12.1
-4 8 -4 55.29 10.8
4 -8 4 53.09 10
4 -8 4 65.69 12.3
4 -8 4 92.69 14.3
-5 8 -4 427.76 28.6
-5 8 -4 447.76 28.6
5 -8 4 436.46 29
5 -8 4 396.26 23.7
5 -8 4 401.36 27.7
-6 8 -4 8.2 5.2
-6 8 -4 3.9 5
6 -8 4 -1.3 4.5
6 -8 4 1.8 5
-7 8 -4 130.59 18.7
-7 8 -4 134.09 16.5
7 -8 4 106.49 17.5
7 -8 4 148.19 15.5
4 7 -4 356.86 24.1
-4 -7 4 409.56 24
3 7 -4 72.29 10.3
3 7 -4 93.39 11.8
-3 -7 4 68.99 11.1
-3 -7 4 43.5 10.4
2 7 -4 367.96 16.6
2 7 -4 375.56 21.1
2 7 -4 380.16 21.6
2 7 -4 354.86 21.3
-2 -7 4 355.56 23.4
-2 -7 4 415.46 25.9
1 7 -4 88.59 9.5
1 7 -4 91.39 9.1
1 7 -4 89.39 10.4
-1 -7 4 89.29 12.1
-1 -7 4 91.39 11.8
-1 -7 4 103.99 9.2
0 7 -4 1001.4 34.9
0 7 -4 1046.1 38.2
0 7 -4 1011.2 39.5
0 7 -4 1030.1 38.4
0 -7 4 1040.8 40.2
0 -7 4 1055.19 38.6
0 -7 4 1004.6 40.6
-1 7 -4 29.6 6.4
-1 7 -4 29.1 6.8
-1 7 -4 27.3 6
1 -7 4 21.3 5.8
1 -7 4 19.8 5.2
1 -7 4 32.4 8.1
-2 7 -4 105.19 8.8
-2 7 -4 108.59 11.3
2 -7 4 112.79 12.1
2 -7 4 108.99 11.5
2 -7 4 110.69 9.7
-3 7 -4 746.23 29
-3 7 -4 847.82 37.6
3 -7 4 845.92 29.1
3 -7 4 896.31 38.3
3 -7 4 805.02 34.3
3 -7 4 848.22 42.6
-4 7 -4 198.88 17.2
-4 7 -4 164.98 15.8
4 -7 4 174.18 14.3
4 -7 4 160.98 16
-5 7 -4 154.78 14.2
-5 7 -4 173.28 16.4
-5 7 -4 187.08 17.4
5 -7 4 184.28 17.7
5 -7 4 179.98 14.6
-6 7 -4 35.9 9
-6 7 -4 49.1 11.2
6 -7 4 39.4 9.1
6 -7 4 29.3 7.9
6 -7 4 48.2 14.2
-7 7 -4 273.07 24.7
-7 7 -4 268.47 21
7 -7 4 218.98 20.2
7 -7 4 272.77 27.1
7 -7 4 255.47 12
5 6 -4 -6 3.8
-5 -6 4 -0.6 6.4
-5 -6 4 -1.1 6.4
4 6 -4 284.17 18.3
4 6 -4 298.17 20.4
4 6 -4 267.67 21.5
-4 -6 4 322.37 24.4
-4 -6 4 301.27 18
3 6 -4 2.5 3.6
3 6 -4 1.6 2.3
3 6 -4 -2.9 3.7
3 6 -4 0.2 2.4
-3 -6 4 -2.1 3.6
-3 -6 4 -1.7 5.1
-3 -6 4 0.3 4.2
2 6 -4 1809.02 61.79
2 6 -4 1797.52 60.19
2 6 -4 1854.31 56.49
2 6 -4 1850.41 62.59
-2 -6 4 1815.52 52.99
-2 -6 4 1820.42 65.99
-2 -6 4 1743.53 64.09
1 6 -4 44.5 7.5
1 6 -4 59.69 6.9
1 6 -4 50.69 7.6
1 6 -4 56.69 7.3
-1 -6 4 57.19 9.2
-1 -6 4 47.7 8.5
-1 -6 4 58.09 6.7
0 6 -4 110.29 10.1
0 6 -4 113.59 9.5
0 6 -4 128.69 10.1
0 6 -4 106.59 7.8
0 -6 4 104.69 10.3
0 -6 4 125.39 10.3
0 -6 4 124.39 11
-1 6 -4 1656.23 54.39
-1 6 -4 1576.34 53.79
-1 6 -4 1549.24 50.69
1 -6 4 1618.04 54.89
1 -6 4 1594.14 52.29
1 -6 4 1622.94 54.39
-2 6 -4 920.51 31.9
-2 6 -4 1000.8 37
-2 6 -4 941.21 37.5
2 -6 4 931.71 32.5
2 -6 4 966.2 37.9
2 -6 4 978.8 38.7
2 -6 4 927.51 36
-3 6 -4 363.96 21
-3 6 -4 328.97 18.8
3 -6 4 315.27 18
3 -6 4 388.76 21.8
-4 6 -4 211.78 15.6
4 -6 4 200.48 17.1
-5 6 -4 740.53 33
-5 6 -4 717.63 36.3
5 -6 4 713.63 31.7
5 -6 4 754.12 25
-6 6 -4 130.19 13
-6 6 -4 125.99 15.6
6 -6 4 127.99 13.1
6 -6 4 142.69 16.1
6 -6 4 130.09 15.4
6 -6 4 137.89 10
-7 6 -4 92.89 15.3
7 -6 4 101.89 13.3
7 -6 4 109.49 16.5
-8 6 -4 37.6 11.1
8 -6 4 42.1 8.2
8 -6 4 26.3 7.4
8 -6 4 19.2 8.7
6 5 -4 245.18 18
6 5 -4 282.27 24.1
-6 -5 4 357.56 43.5
-6 -5 4 265.27 19.4
5 5 -4 1 4.2
5 5 -4 -5.4 3.6
5 5 -4 2.3 2.5
-5 -5 4 -1 4.5
-5 -5 4 -6 5
4 5 -4 1139.09 40.2
4 5 -4 1076.09 43.7
-4 -5 4 1157.68 39.1
-4 -5 4 1067.29 48.1
-4 -5 4 878.91 57.89
3 5 -4 244.08 16.6
3 5 -4 254.47 14.8
3 5 -4 268.37 17.8
-3 -5 4 251.67 22.5
-3 -5 4 261.07 19.4
2 5 -4 115.59 9.3
2 5 -4 118.59 10.7
2 5 -4 114.89 11.3
-2 -5 4 111.09 11.4
-2 -5 4 119.69 6.6
-2 -5 4 112.19 12.6
1 5 -4 964.9 35.3
1 5 -4 939.41 35.7
1 5 -4 1083.29 39
-1 -5 4 993.8 36.4
-1 -5 4 940.31 37
-1 -5 4 1004.9 33.6
0 5 -4 2019.8 64.69
0 5 -4 2132.79 66.49
0 -5 4 2168.18 66.09
0 -5 4 2036.8 65.79
0 -5 4 2168.48 64.59
-1 5 -4 696.93 24.6
-1 5 -4 677.33 27.4
1 -5 4 680.73 26.9
1 -5 4 673.53 23.3
1 -5 4 721.33 27.3
1 -5 4 655.13 25.1
-2 5 -4 1024.3 38.9
-2 5 -4 1039.9 32.4
-2 5 -4 1033.8 37.6
2 -5 4 1034.1 38.6
2 -5 4 1052.89 31.4
-3 5 -4 827.42 34.7
-3 5 -4 866.71 32.2
-3 5 -4 787.02 32.1
3 -5 4 788.12 38.5
3 -5 4 788.72 31.3
-4 5 -4 622.74 30.5
-4 5 -4 621.54 26.4
-4 5 -4 612.64 27.5
4 -5 4 600.84 29.4
4 -5 4 603.24 26.6
-5 5 -4 633.44 26.9
-5 5 -4 574.94 31
5 -5 4 596.94 27.3
5 -5 4 600.44 24.8
-6 5 -4 183.38 18
-6 5 -4 204.88 14.9
6 -5 4 171.88 13.5
6 -5 4 170.08 17.1
6 -5 4 212.78 15.9
-7 5 -4 875.71 43.5
7 -5 4 885.21 38.7
7 -5 4 827.72 36.5
-8 5 -4 26.5 8.7
8 -5 4 3.9 5.8
8 -5 4 11.5 5.6
8 -5 4 24.3 10.4
6 4 -4 231.18 14.3
6 4 -4 227.48 18.6
6 4 -4 239.38 15.2
-6 -4 4 273.97 23.1
-6 -4 4 240.98 16.9
5 4 -4 36 8.3
5 4 -4 30.4 6.9
5 4 -4 27.9 7.4
5 4 -4 44.5 7.2
-5 -4 4 61.59 12.4
-5 -4 4 40.4 7.5
4 4 -4 288.17 18
4 4 -4 232.88 17.9
4 4 -4 290.07 15
-4 -4 4 277.57 20.4
3 4 -4 2.6 2.9
3 4 -4 6.8 3.9
3 4 -4 5.2 3
-3 -4 4 4.3 4.4
2 4 -4 2256.87 71.59
2 4 -4 2259.57 72.19
2 4 -4 2329.47 68.69
-2 -4 4 2294.07 73.89
-2 -4 4 2258.27 64.69
-2 -4 4 2258.57 73.39
-2 -4 4 2211.68 64.49
1 4 -4 393.76 16.6
1 4 -4 365.06 17.1
1 4 -4 384.86 17.6
-1 -4 4 389.46 18.4
-1 -4 4 374.86 17.1
0 4 -4 1951.9 60.29
0 4 -4 1914.91 59.69
0 -4 4 1984.1 60.29
0 -4 4 1919.71 58.69
0 -4 4 2092.69 60.79
-1 4 -4 11.2 3.2
-1 4 -4 16.9 3.3
1 -4 4 11 3.3
1 -4 4 7.9 2.5
1 -4 4 14.6 3.3
-2 4 -4 655.03 25.4
-2 4 -4 620.14 26.3
2 -4 4 591.04 24.3
2 -4 4 635.24 25.8
-3 4 -4 792.02 27.7
-3 4 -4 764.72 30.2
-3 4 -4 761.52 32.4
3 -4 4 738.33 29.2
3 -4 4 783.62 31.7
-4 4 -4 577.54 23.2
-4 4 -4 595.24 28.7
4 -4 4 575.84 27.8
4 -4 4 598.24 25.8
-5 4 -4 269.37 19.2
5 -4 4 221.48 17.2
-6 4 -4 46.3 9.9
6 -4 4 37.7 8.2
6 -4 4 42.7 9
6 -4 4 40.9 8.5
-7 4 -4 25.7 7.7
7 -4 4 28.7 8.1
7 -4 4 33.5 7.9
-8 4 -4 20.1 7.6
8 -4 4 16.4 8.1
8 -4 4 10.2 6.5
7 3 -4 22.1 5.4
7 3 -4 21.6 6.8
7 3 -4 25.4 5.7
-7 -3 4 41.7 10.8
6 3 -4 415.36 21.9
6 3 -4 497.55 44.8
6 3 -4 414.26 19.6
6 3 -4 446.76 25.4
-6 -3 4 426.86 27.4
5 3 -4 180.78 14.7
5 3 -4 147.79 13.8
-5 -3 4 152.18 15.1
4 3 -4 1084.29 45
4 3 -4 1142.59 42.9
4 3 -4 1221.78 38.3
-4 -3 4 1123.79 45.1
3 3 -4 9.8 4.2
3 3 -4 9.5 2.6
3 3 -4 10.2 4
-3 -3 4 9.6 4
-3 -3 4 9.3 4.1
2 3 -4 1658.33 54.69
2 3 -4 1636.74 53.79
2 3 -4 1688.23 50.49
-2 -3 4 1660.23 48.5
-2 -3 4 1713.03 56.49
-2 -3 4 1655.63 51.99
1 3 -4 1273.27 40.2
1 3 -4 1239.48 40.2
1 3 -4 1264.97 38.4
-1 -3 4 1090.59 40
-1 -3 4 1228.88 41.4
0 3 -4 817.72 27.5
0 3 -4 826.52 27.4
0 -3 4 782.72 25.8
0 -3 4 828.22 28.2
0 -3 4 789.02 27.2
-1 3 -4 549.15 21.7
-1 3 -4 582.44 19.6
1 -3 4 591.64 21.8
1 -3 4 584.14 21.6
-2 3 -4 1778.22 55.59
-2 3 -4 1747.03 56.69
-2 3 -4 1802.62 57.69
2 -3 4 1743.93 54.99
2 -3 4 1709.33 55.99
-3 3 -4 39.4 7.1
-3 3 -4 37.5 6.6
3 -3 4 26.9 6.2
3 -3 4 40.3 6
-4 3 -4 282.47 18.5
-4 3 -4 290.87 18.3
4 -3 4 288.97 17.9
4 -3 4 307.37 16.9
5 -3 4 157.88 13.5
-6 3 -4 152.38 14.9
-6 3 -4 143.99 15.8
6 -3 4 160.58 14.6
-7 3 -4 108.49 14.8
-7 3 -4 155.98 15.5
7 -3 4 127.79 14.7
7 -3 4 99.19 14.8
-8 3 -4 -2.8 5.2
8 -3 4 15.7 6.8
7 2 -4 120.39 14.1
7 2 -4 126.89 9.8
7 2 -4 128.09 13.3
-7 -2 4 141.39 16.6
6 2 -4 339.67 15.9
6 2 -4 317.77 19.7
6 2 -4 367.86 27
6 2 -4 331.87 20.5
-6 -2 4 350.86 22.5
5 2 -4 222.68 17.5
5 2 -4 210.58 11.3
-5 -2 4 230.18 17
-5 -2 4 256.47 20.9
4 2 -4 1059.89 39.2
4 2 -4 1041.3 33
4 2 -4 1014.7 41.3
-4 -2 4 1026.9 42.5
-4 -2 4 1077.89 40.1
3 2 -4 418.06 14.7
3 2 -4 414.66 20.4
3 2 -4 377.66 18.6
-3 -2 4 385.86 14.1
-3 -2 4 411.76 19.5
-3 -2 4 388.96 21.1
2 2 -4 1732.43 48.6
2 2 -4 1694.73 53.79
2 2 -4 1665.13 53.29
-2 -2 4 1663.63 55.19
-2 -2 4 1625.24 49
-2 -2 4 1630.54 49.1
1 2 -4 681.13 22.2
-1 -2 4 703.53 23.3
-1 -2 4 689.13 22.1
-1 -2 4 658.83 25.6
0 2 -4 2714.13 76.89
0 2 -4 2654.83 77.19
0 -2 4 2671.83 75.79
0 -2 4 2709.33 77.09
-1 2 -4 321.47 14.6
-1 2 -4 320.97 13.9
1 -2 4 314.07 13.7
1 -2 4 314.77 13.8
-2 2 -4 916.81 35.1
-2 2 -4 1016.8 29.7
2 -2 4 982.4 34.2
2 -2 4 990.2 33.9
-3 2 -4 467.55 23.5
-3 2 -4 493.25 17
-3 2 -4 493.25 23.1
3 -2 4 500.45 21.8
3 -2 4 534.25 22.9
-4 2 -4 551.34 28.3
-4 2 -4 600.84 27.3
4 -2 4 614.84 27.2
4 -2 4 590.14 26
4 -2 4 604.44 27.7
-5 2 -4 162.68 15.4
-5 2 -4 192.88 14.8
5 -2 4 177.18 13.5
-6 2 -4 395.06 22.7
-6 2 -4 351.36 24.7
6 -2 4 366.96 23.2
6 -2 4 359.36 21.8
6 -2 4 372.26 15.5
-7 2 -4 196.08 16.4
-7 2 -4 193.58 20.8
7 -2 4 181.18 15.5
7 -2 4 158.08 11.2
7 -2 4 171.68 16.7
8 1 -4 66.99 8.7
8 1 -4 107.99 22
8 1 -4 83.09 8.9
8 1 -4 101.79 14.1
-8 -1 4 52.39 11.7
7 1 -4 184.78 15.9
7 1 -4 198.08 23.8
7 1 -4 208.98 16.6
7 1 -4 204.28 11.5
7 1 -4 198.48 11.9
-7 -1 4 204.98 17.7
6 1 -4 532.45 21.3
6 1 -4 514.95 19.4
6 1 -4 508.35 25.8
6 1 -4 513.35 31.7
6 1 -4 531.85 26.7
-6 -1 4 480.35 30.7
5 1 -4 28.6 3.8
5 1 -4 34.6 9.1
5 1 -4 36.4 7.1
5 1 -4 29.7 3.8
5 1 -4 40.6 8.6
5 1 -4 27.1 4.7
-5 -1 4 38.3 7.6
-5 -1 4 21.4 6
4 1 -4 1414.16 41
4 1 -4 1396.96 53.79
4 1 -4 1369.26 41.8
4 1 -4 1410.96 50.09
4 1 -4 1412.96 40.2
4 1 -4 1410.96 48.2
-4 -1 4 1337.47 42.5
-4 -1 4 1366.36 51.49
-4 -1 4 1324.67 46.5
3 1 -4 22.5 3.7
3 1 -4 23.1 2
3 1 -4 29.2 6.8
3 1 -4 28.4 5.6
-3 -1 4 26.9 6.1
-3 -1 4 22 4.6
-3 -1 4 26.2 3.9
2 1 -4 2063.89 64.59
2 1 -4 1898.61 57.39
2 1 -4 1971.4 54.49
-2 -1 4 1943.71 62.29
-2 -1 4 1922.11 54.59
-2 -1 4 1968.5 57.89
1 1 -4 131.99 6
1 1 -4 134.19 9.3
-1 -1 4 138.59 7.8
-1 -1 4 136.29 6.2
-1 -1 4 135.39 8.8
0 1 -4 2750.62 77.89
0 1 -4 2723.03 77.69
0 -1 4 2660.13 77.19
0 -1 4 2667.53 78.69
-1 1 -4 112.59 6.8
-1 1 -4 109.79 8.1
1 -1 4 107.29 7.4
1 -1 4 123.49 8.4
-2 1 -4 2652.33 79.99
-2 1 -4 2559.84 74.39
2 -1 4 2525.65 77.69
2 -1 4 2603.04 77.89
-3 1 -4 53.99 7.9
-3 1 -4 34.5 6.3
-3 1 -4 51.49 5.4
3 -1 4 51.09 7
3 -1 4 51.19 6.8
-4 1 -4 1667.93 55.39
-4 1 -4 1580.94 58.69
-4 1 -4 1622.94 51.69
4 -1 4 1607.04 50.29
4 -1 4 1673.53 56.39
4 -1 4 1680.83 57.79
4 -1 4 1571.54 53.89
-5 1 -4 85.49 12.3
-5 1 -4 105.69 10.4
-5 1 -4 92.59 8.9
5 -1 4 88.09 7.9
5 -1 4 105.89 11.3
5 -1 4 94.89 9.9
-6 1 -4 287.37 18.2
-6 1 -4 281.77 19.8
-6 1 -4 273.37 22.7
6 -1 4 270.07 17.6
6 -1 4 338.57 23.1
6 -1 4 289.27 20.1
6 -1 4 297.87 15.1
-7 1 -4 55.09 12.7
-7 1 -4 38.4 11.7
7 -1 4 35.6 7.3
7 -1 4 40.8 7.8
7 -1 4 47.4 11
7 -1 4 37.2 7.9
8 0 -4 165.78 14.1
8 0 -4 167.78 11.1
8 0 -4 197.38 17.6
8 0 -4 188.38 11
8 0 -4 164.88 17.4
7 0 -4 132.29 17.6
7 0 -4 157.18 16.8
7 0 -4 126.79 14.4
7 0 -4 125.69 8.5
7 0 -4 144.19 8.8
7 0 -4 137.59 13.2
7 0 -4 146.69 8.7
7 0 -4 139.49 11.6
-7 0 4 140.59 13.9
6 0 -4 640.64 21.9
6 0 -4 698.23 33.1
6 0 -4 700.73 33.3
6 0 -4 668.73 31.4
6 0 -4 621.14 35.1
6 0 -4 689.53 27.2
6 0 -4 659.03 23.5
6 0 -4 636.94 21.7
-6 0 4 657.33 34.4
-6 0 4 603.94 28.6
5 0 -4 401.06 20.7
5 0 -4 412.36 16.3
5 0 -4 422.06 18.3
5 0 -4 418.26 25.5
5 0 -4 378.26 21.5
-5 0 4 408.56 23.8
-5 0 4 374.96 19
-5 0 4 372.26 17.5
4 0 -4 1436.46 55.39
4 0 -4 1475.85 51.09
4 0 -4 1515.55 46.7
4 0 -4 1528.05 45.6
-4 0 4 1500.55 53.59
-4 0 4 1468.95 47.5
-4 0 4 1423.66 47.4
3 0 -4 310.57 13.5
3 0 -4 290.97 17.7
-3 0 4 309.77 14.1
-3 0 4 286.67 12.8
2 0 -4 3327.77 94.49
2 0 -4 3245.88 99.39
-2 0 4 3338.87 97.79
-2 0 4 3269.97 94.99
1 0 -4 1459.75 45.8
1 0 -4 1427.96 44.1
-1 0 4 1353.76 45.6
-1 0 4 1405.46 44
0 0 -4 4975.9 140.49
0 0 -4 4932.31 142.59
0 0 4 5215.78 142.59
0 0 4 5079.79 141.59
-1 0 -4 5.9 2.7
-1 0 -4 4.1 1.9
1 0 4 6.6 2.6
-2 0 -4 1515.45 54.39
-2 0 -4 1683.63 51.59
2 0 4 1688.03 54.09
2 0 4 1759.22 53.29
-3 0 -4 9.2 3.4
-3 0 -4 6 4
-3 0 -4 7.2 3.2
3 0 4 7.2 3
3 0 4 9.6 3.8
3 0 4 7.7 3.4
-4 0 -4 584.14 25.8
-4 0 -4 605.24 25.2
-4 0 -4 615.54 36.8
4 0 4 607.14 25.5
4 0 4 591.74 24
4 0 4 611.54 28.6
-5 0 -4 45.4 7.1
-5 0 -4 50.79 8.8
-5 0 -4 53.69 10.5
5 0 4 56.39 7.5
5 0 4 49.2 11.8
5 0 4 47 8.4
5 0 4 48.6 6.6
-6 0 -4 255.57 18
-6 0 -4 228.68 15.3
-6 0 -4 236.08 22.2
6 0 4 235.08 15
6 0 4 231.58 18.8
6 0 4 241.48 15.5
6 0 4 271.07 16.7
-7 0 -4 48.1 14.4
7 0 4 45.1 9.5
7 0 4 62.49 12
7 0 4 52.39 10.9
7 0 4 62.49 9.4
8 -1 -4 208.38 19.1
8 -1 -4 219.68 11
8 -1 -4 220.38 13.1
8 -1 -4 222.38 16.8
8 -1 -4 190.08 16.9
8 -1 -4 215.08 17
7 -1 -4 218.88 10.1
7 -1 -4 234.28 15.7
7 -1 -4 221.08 21.4
7 -1 -4 229.68 16.6
7 -1 -4 248.68 13.8
7 -1 -4 222.88 18.7
7 -1 -4 234.88 16.2
7 -1 -4 228.28 18.8
-7 1 4 223.78 20.5
6 -1 -4 536.05 24.9
6 -1 -4 554.84 22.5
6 -1 -4 537.85 28.1
6 -1 -4 548.05 27.9
6 -1 -4 550.84 23.6
6 -1 -4 579.34 26.8
-6 1 4 551.84 24.7
-6 1 4 489.25 41.8
5 -1 -4 418.16 21.7
5 -1 -4 421.86 19.9
5 -1 -4 447.46 26.4
5 -1 -4 443.76 18.8
-5 1 4 410.56 23.5
-5 1 4 407.56 18.6
-5 1 4 399.46 20
4 -1 -4 795.72 28
4 -1 -4 724.13 33.9
-4 1 4 749.03 32.3
-4 1 4 752.42 26.2
-4 1 4 781.22 29.7
3 -1 -4 608.74 26.8
3 -1 -4 592.24 22.2
-3 1 4 530.75 24.3
-3 1 4 568.64 23.1
-3 1 4 522.55 26.2
-3 1 4 559.34 18.5
2 -1 -4 2977.3 89.89
2 -1 -4 2853.61 85.99
-2 1 4 3173.38 82.09
-2 1 4 2737.03 90.09
-2 1 4 2946.51 86.99
1 -1 -4 183.88 10.5
1 -1 -4 177.88 10.4
-1 1 4 170.48 7
-1 1 4 178.28 10.4
-1 1 4 157.28 10.7
0 -1 -4 374.66 16.6
0 -1 -4 362.96 16.7
0 1 4 399.46 16.9
0 1 4 375.96 16.5
0 1 4 365.26 14.4
-1 -1 -4 4.9 2.7
-1 -1 -4 0.9 2.4
1 1 4 1.5 1.7
1 1 4 3.1 2.1
1 1 4 -0.6 1.5
-2 -1 -4 1519.75 54.09
-2 -1 -4 1594.04 51.29
2 1 4 1572.34 52.09
2 1 4 1572.74 51.69
2 1 4 1651.53 51.79
-3 -1 -4 326.17 17.5
-3 -1 -4 314.87 15
-3 -1 -4 318.57 20.1
3 1 4 324.87 18.5
3 1 4 341.17 16.8
3 1 4 292.37 16.1
-4 -1 -4 364.06 23.5
-4 -1 -4 331.57 19.8
-4 -1 -4 336.27 15.8
4 1 4 318.67 17.7
4 1 4 344.57 17.9
-5 -1 -4 179.08 19
-5 -1 -4 171.88 11
5 1 4 170.78 15.8
5 1 4 178.98 13
-6 -1 -4 146.39 19.4
6 1 4 140.79 18.1
6 1 4 125.89 12.7
6 1 4 149.88 12.7
8 -2 -4 2.8 5.1
8 -2 -4 -5 4.7
8 -2 -4 6.6 5.4
8 -2 -4 -1.8 3.2
7 -2 -4 296.17 11.8
7 -2 -4 292.97 24.6
7 -2 -4 318.47 17.3
7 -2 -4 302.77 19.9
7 -2 -4 334.37 24.9
7 -2 -4 315.77 19.5
7 -2 -4 315.07 17.6
7 -2 -4 317.77 21.2
-7 2 4 306.97 22.9
6 -2 -4 55.19 8.4
6 -2 -4 53.49 8.9
6 -2 -4 48.1 6.8
6 -2 -4 41.5 7.5
6 -2 -4 44.1 9.5
-6 2 4 52.59 8.4
-6 2 4 41.9 9.4
5 -2 -4 269.57 18.1
5 -2 -4 287.67 15.8
5 -2 -4 293.07 12.7
5 -2 -4 296.27 20.7
-5 2 4 259.37 20.5
-5 2 4 262.87 16.8
-5 2 4 282.67 18.9
4 -2 -4 1005.4 41.2
4 -2 -4 1002.6 36
-4 2 4 1018.1 39.6
-4 2 4 955.9 37.3
-4 2 4 1007.1 42.6
3 -2 -4 513.55 25
3 -2 -4 498.75 21.8
-3 2 4 522.35 23
-3 2 4 527.75 17.3
-3 2 4 542.35 23.7
-3 2 4 536.75 26.5
2 -2 -4 140.39 10.9
2 -2 -4 132.99 10.1
-2 2 4 147.69 12
-2 2 4 152.08 8
-2 2 4 125.29 9.8
1 -2 -4 52.69 6.7
1 -2 -4 50.19 6.3
-1 2 4 50.89 6.3
-1 2 4 42.4 6.8
0 -2 -4 2171.18 69.59
0 -2 -4 2321.17 70.59
0 2 4 2310.27 71.09
0 2 4 2285.37 66.49
0 2 4 2292.77 70.29
-1 -2 -4 178.68 11.5
-1 -2 -4 198.18 13
1 2 4 169.88 10.2
1 2 4 162.28 11.8
-2 -2 -4 230.88 16.1
-2 -2 -4 224.58 14.1
2 2 4 216.08 14.2
2 2 4 225.18 13.6
-3 -2 -4 1.2 3.3
-3 -2 -4 -1.1 3.8
-3 -2 -4 4.2 2.3
3 2 4 4.9 3.7
3 2 4 9 4
3 2 4 2.1 2.8
-4 -2 -4 449.36 16.7
-4 -2 -4 506.55 30
4 2 4 439.06 23.1
4 2 4 436.96 21.5
4 2 4 443.96 25
-5 -2 -4 -6 5.8
-5 -2 -4 4.5 7
5 2 4 3.5 3.4
5 2 4 6.6 4.3
8 -3 -4 66.99 8.3
8 -3 -4 94.99 14.2
8 -3 -4 58.19 9.6
8 -3 -4 81.19 11.2
8 -3 -4 64.89 10
-8 3 4 84.29 14.3
7 -3 -4 329.47 13.2
7 -3 -4 352.16 25.1
7 -3 -4 367.36 24.6
7 -3 -4 321.77 21.6
7 -3 -4 317.37 26.9
7 -3 -4 387.06 26.5
-7 3 4 336.97 23.9
6 -3 -4 261.47 13
6 -3 -4 241.88 16.3
6 -3 -4 272.37 10.8
-6 3 4 273.67 19.5
-6 3 4 270.07 18.6
-6 3 4 278.77 22.9
5 -3 -4 704.43 41
5 -3 -4 712.13 30
-5 3 4 695.63 31.7
-5 3 4 739.63 37.4
-5 3 4 720.73 23.1
-5 3 4 714.93 32.7
4 -3 -4 223.18 16.8
4 -3 -4 236.08 14.7
4 -3 -4 248.48 16.6
-4 3 4 234.38 15.8
-4 3 4 223.58 15.3
-4 3 4 225.18 10
-4 3 4 224.98 18.2
3 -3 -4 137.69 11.4
3 -3 -4 143.99 11.1
-3 3 4 141.79 11.4
-3 3 4 141.09 8.6
-3 3 4 146.29 11.7
2 -3 -4 1390.36 48.9
2 -3 -4 1429.96 49.1
-2 3 4 1516.15 46.3
-2 3 4 1547.25 54.49
-2 3 4 1399.76 49.7
1 -3 -4 252.07 15.3
1 -3 -4 282.67 15.6
-1 3 4 297.77 17.7
-1 3 4 275.97 15.8
-1 3 4 311.27 14.5
0 -3 -4 663.03 27.2
0 -3 -4 696.83 27.9
0 3 4 686.23 27.8
0 3 4 629.84 22.8
0 3 4 655.13 28.4
-1 -3 -4 1044.2 40
-1 -3 -4 1198.58 41.9
1 3 4 1091.79 37.7
1 3 4 1098.59 41.9
1 3 4 1114.19 40.3
-2 -3 -4 989.3 39.5
-2 -3 -4 1037.5 43
2 3 4 1017.6 37.9
2 3 4 1047.9 38.5
-3 -3 -4 84.99 17.4
-3 -3 -4 69.29 12.1
3 3 4 67.19 9.9
3 3 4 64.39 8.9
-4 -3 -4 207.88 21.6
-4 -3 -4 240.18 19.6
4 3 4 212.58 14.9
4 3 4 211.28 16.8
4 3 4 214.78 17.1
-5 -3 -4 6.8 7.8
5 3 4 -3.3 3.8
5 3 4 -6.7 3.5
8 -4 -4 5.3 4.5
8 -4 -4 5.5 4.7
8 -4 -4 6.1 3.2
8 -4 -4 6.4 7.2
-8 4 4 1.3 5.5
7 -4 -4 553.14 33.9
7 -4 -4 504.65 35.3
7 -4 -4 516.15 26.8
7 -4 -4 466.95 19.6
7 -4 -4 503.35 28.6
7 -4 -4 511.65 21.1
-7 4 4 521.65 29.6
-7 4 4 564.34 35.9
6 -4 -4 220.58 10.4
6 -4 -4 195.18 11.1
6 -4 -4 247.58 17.2
-6 4 4 221.48 17.7
-6 4 4 219.38 21
-6 4 4 233.88 11.1
-5 4 4 630.24 22.3
-5 4 4 641.34 34.9
-5 4 4 649.93 30.4
-5 4 4 525.85 28.7
4 -4 -4 513.55 23.8
4 -4 -4 491.85 24.2
4 -4 -4 474.75 25.4
-4 4 4 508.85 20
-4 4 4 482.35 28.6
-4 4 4 443.26 23.9
-4 4 4 454.35 24.7
3 -4 -4 748.23 32.7
3 -4 -4 821.72 31.9
3 -4 -4 781.12 32.4
-3 4 4 749.13 32.7
-3 4 4 737.73 28.5
-3 4 4 744.53 36.2
2 -4 -4 1138.99 40.7
2 -4 -4 1083.09 40.8
2 -4 -4 1072.39 41.2
-2 4 4 1064.89 41.4
-2 4 4 1032.1 44.1
-2 4 4 1114.79 38
1 -4 -4 1713.83 55.29
1 -4 -4 1697.03 57.39
1 -4 -4 1700.73 61.69
-1 4 4 1677.93 57.99
-1 4 4 1565.44 59.99
-1 4 4 1754.62 55.19
0 -4 -4 422.96 22.6
0 -4 -4 505.55 24.4
0 -4 -4 507.35 20.8
0 4 4 504.45 25.6
0 4 4 531.15 24.7
0 4 4 560.44 23.8
-1 -4 -4 53.09 9.5
-1 -4 -4 39.5 4.7
1 4 4 53.59 8.8
1 4 4 42.7 7.8
-2 -4 -4 354.66 21.7
-2 -4 -4 314.97 23.5
2 4 4 385.96 21
2 4 4 377.56 21.5
2 4 4 393.86 19.8
2 4 4 389.06 22.8
-3 -4 -4 86.29 15.3
3 4 4 71.29 10.9
3 4 4 72.49 10.3
3 4 4 70.99 15.7
-4 -4 -4 376.86 29.9
4 4 4 305.17 22.3
4 4 4 295.67 19.2
8 -5 -4 39.2 8.6
8 -5 -4 48.1 7.3
8 -5 -4 40.7 9.3
-8 5 4 64.89 12.8
-8 5 4 31.6 11.2
7 -5 -4 293.57 14.2
7 -5 -4 281.37 28.8
7 -5 -4 261.67 20.4
7 -5 -4 251.17 12.4
-7 5 4 282.67 21.1
-7 5 4 285.47 26.1
6 -5 -4 17.1 4.8
6 -5 -4 34.3 8.8
6 -5 -4 14.3 5.2
-6 5 4 20 6.2
-6 5 4 29.5 5.3
-6 5 4 15.5 7.1
-6 5 4 7.9 4.6
5 -5 -4 344.07 21.4
5 -5 -4 381.86 20.8
-5 5 4 383.16 17.7
-5 5 4 351.86 22
-5 5 4 343.67 26.6
-5 5 4 335.07 25.9
4 -5 -4 324.07 20.9
4 -5 -4 384.56 20
4 -5 -4 340.87 21.3
-4 5 4 307.87 23.6
-4 5 4 330.47 20.5
-4 5 4 308.27 20.1
3 -5 -4 1122.19 43.9
3 -5 -4 1113.09 42
3 -5 -4 1071.69 43
-3 5 4 1139.99 40.7
-3 5 4 1096.79 49.1
2 -5 -4 18.9 5.2
2 -5 -4 40.3 9.5
2 -5 -4 28.4 6.1
-2 5 4 22.7 6.4
-2 5 4 40.9 8.3
-2 5 4 34.3 7.2
1 -5 -4 40.8 7.1
1 -5 -4 44.7 9.8
-1 5 4 39.3 7.9
-1 5 4 36.8 8.7
-1 5 4 34.5 6.9
0 -5 -4 505.95 22.6
0 -5 -4 521.15 21
0 -5 -4 516.05 26.4
0 5 4 522.25 26.3
0 5 4 520.15 34.5
-1 -5 -4 124.39 13.6
-1 -5 -4 99.89 12.8
1 5 4 108.89 11.9
1 5 4 108.69 13.5
1 5 4 119.59 12.3
-2 -5 -4 315.07 25.7
2 5 4 385.76 22.2
-3 -5 -4 -4 7.7
3 5 4 1.5 4
3 5 4 3.9 5.1
7 -6 -4 216.38 22.3
7 -6 -4 229.28 17.6
-7 6 4 210.88 18.3
-7 6 4 242.18 24.5
-7 6 4 198.58 13.2
6 -6 -4 6.4 5.6
6 -6 -4 19.7 5.6
-6 6 4 6.5 5.5
-6 6 4 23.4 6.7
-6 6 4 15.9 4.9
5 -6 -4 608.24 31.9
5 -6 -4 658.33 30
5 -6 -4 690.13 34.4
-5 6 4 608.14 35.1
-5 6 4 611.74 30.9
-5 6 4 615.84 27.7
4 -6 -4 9.9 5.1
4 -6 -4 9.6 5.3
-4 6 4 2.8 2.7
-4 6 4 -0.3 4.1
-4 6 4 5.7 5
-4 6 4 6.8 6.5
3 -6 -4 108.69 12.2
3 -6 -4 89.89 12.8
3 -6 -4 97.29 11.7
-3 6 4 101.79 11.1
-3 6 4 85.89 13.5
-3 6 4 87.29 12
2 -6 -4 508.15 26.3
2 -6 -4 471.55 26.8
2 -6 -4 511.85 24.5
-2 6 4 481.45 27.2
-2 6 4 494.85 30.8
1 -6 -4 140.19 15.2
1 -6 -4 117.49 10.6
1 -6 -4 131.49 9.7
1 -6 -4 134.49 14.7
-1 6 4 145.19 12.8
-1 6 4 141.19 15.9
-1 6 4 132.49 14.2
0 -6 -4 276.57 16.6
0 -6 -4 276.47 12.8
0 -6 -4 243.28 19
0 6 4 281.37 22.2
0 6 4 283.77 20
-1 -6 -4 58.59 12.7
1 6 4 50.99 11.8
1 6 4 51.09 10.8
7 -7 -4 278.17 33.1
-7 7 4 254.27 18.7
6 -7 -4 17 7.2
-6 7 4 3.4 3.7
-6 7 4 26.5 7.1
-6 7 4 17 7.5
-5 7 4 144.19 14.7
-5 7 4 148.59 25.7
4 -7 -4 110.49 14.3
4 -7 -4 126.19 15.9
-4 7 4 123.79 18.8
-4 7 4 108.99 13.3
-4 7 4 117.49 13.1
3 -7 -4 153.38 17.9
-3 7 4 214.78 17
-3 7 4 223.58 22.5
2 -7 -4 141.69 13.2
2 -7 -4 121.69 15.7
-2 7 4 115.19 17.1
-2 7 4 153.28 16.8
1 -7 -4 318.87 16.7
1 -7 -4 338.97 17.6
1 -7 -4 311.57 22.8
-1 7 4 312.37 26.4
0 -7 -4 48.7 12.1
0 7 4 26.9 7.8
4 -8 -4 -3.7 7
4 -8 -4 24.6 11.1
-4 8 4 7 8.5
-4 8 4 5.6 6
-2 10 -5 -2.3 4.6
-2 10 -5 -0.4 4.9
2 -10 5 -4.5 5.3
2 -10 5 1.5 5.5
-3 10 -5 252.87 20.6
3 -10 5 295.27 19
3 -10 5 298.07 23.6
3 -10 5 240.68 22.4
-4 10 -5 40.1 13.3
-4 10 -5 69.49 14.1
4 -10 5 73.59 15.2
1 9 -5 266.47 27.9
1 9 -5 240.18 15.5
1 9 -5 238.78 15.8
-1 -9 5 282.17 24
-1 -9 5 249.48 15.4
0 9 -5 22.1 6
0 9 -5 30.3 7.1
0 -9 5 24.1 6.3
0 -9 5 27.8 8.9
-1 9 -5 492.85 24.2
-1 9 -5 480.05 25.7
1 -9 5 458.75 27.2
1 -9 5 485.55 26.3
1 -9 5 463.45 28
-2 9 -5 64.49 11.2
-2 9 -5 90.59 10.1
2 -9 5 98.39 13.5
2 -9 5 75.69 13.3
2 -9 5 95.59 11.5
-3 9 -5 170.98 16.7
-3 9 -5 171.48 13.3
3 -9 5 188.58 18.5
3 -9 5 154.48 15.7
3 -9 5 161.98 21.1
-4 9 -5 122.09 15.7
4 -9 5 145.69 18.5
4 -9 5 117.59 20.6
4 -9 5 122.79 16.5
-5 9 -5 170.18 18.9
-5 9 -5 154.08 19.3
5 -9 5 140.19 15.5
5 -9 5 173.28 19.7
-6 9 -5 25 9.7
-6 9 -5 28 9.4
6 -9 5 38.7 13.2
2 8 -5 29.5 6.9
2 8 -5 31.8 6.6
-2 -8 5 43.1 10.8
1 8 -5 618.34 26.7
1 8 -5 578.54 29
1 8 -5 598.34 26.2
1 8 -5 606.34 29
-1 -8 5 642.94 25.5
-1 -8 5 585.04 32.2
-1 -8 5 591.54 31.5
0 8 -5 -3.9 3.2
0 8 -5 -0.5 3.3
0 8 -5 -1.3 2.8
0 -8 5 1 3.8
0 -8 5 7.7 5.1
0 -8 5 3.7 4.1
-1 8 -5 406.36 20.4
-1 8 -5 364.66 21.9
-1 8 -5 438.86 23.5
1 -8 5 409.26 23
1 -8 5 437.76 22.3
1 -8 5 326.67 21.7
-2 8 -5 47.4 7.3
-2 8 -5 30.4 7.2
-2 8 -5 39.3 8.4
2 -8 5 29 7.1
2 -8 5 39.8 7.9
2 -8 5 49.6 10.7
2 -8 5 45.7 9.5
-3 8 -5 543.35 23.9
-3 8 -5 616.14 31.7
-3 8 -5 618.64 30.6
3 -8 5 688.73 33.7
3 -8 5 623.64 30.3
-4 8 -5 -5.8 3.7
-4 8 -5 -0.6 4.5
-4 8 -5 -7.6 3
4 -8 5 -5.7 6.5
4 -8 5 7.7 4.5
4 -8 5 2.4 3.7
-5 8 -5 405.66 39.1
-5 8 -5 362.26 26.2
5 -8 5 387.46 26.9
5 -8 5 401.76 27.5
5 -8 5 317.17 21.8
-6 8 -5 238.08 19.6
-6 8 -5 164.88 19.7
6 -8 5 223.68 17.9
6 -8 5 185.88 20.3
4 7 -5 -4.3 4.6
-4 -7 5 8.9 8.1
3 7 -5 561.04 27.5
3 7 -5 607.94 23.5
3 7 -5 578.94 29.9
-3 -7 5 582.54 34.1
2 7 -5 88.19 13.2
2 7 -5 88.09 10.5
2 7 -5 88.19 11.3
2 7 -5 80.99 8.3
-2 -7 5 88.99 13.7
-2 -7 5 81.29 13.1
1 7 -5 713.43 31
1 7 -5 680.83 28.7
1 7 -5 747.43 32.8
1 7 -5 718.43 31.1
-1 -7 5 722.13 32.5
-1 -7 5 733.43 28.1
-1 -7 5 713.63 33.4
0 7 -5 16.3 4.5
0 7 -5 19.4 4.8
0 7 -5 23.1 5.8
0 -7 5 20.9 5.2
0 -7 5 21.1 6.5
0 -7 5 9.1 5
-1 7 -5 749.23 30
-1 7 -5 752.82 33.1
-1 7 -5 798.42 33.4
1 -7 5 843.32 32.7
1 -7 5 791.82 33.4
1 -7 5 860.51 34.8
1 -7 5 828.72 33.7
-2 7 -5 13.1 4.6
-2 7 -5 15 4
-2 7 -5 11.8 4.6
2 -7 5 6.4 3.9
2 -7 5 9 4.9
2 -7 5 7.3 5.4
-3 7 -5 774.22 35.9
3 -7 5 801.32 37.2
3 -7 5 755.92 33.2
3 -7 5 823.62 36.7
-4 7 -5 152.58 15.2
-4 7 -5 161.58 14.9
4 -7 5 134.39 13.1
-5 7 -5 383.46 23.9
-5 7 -5 440.96 24.9
-5 7 -5 401.26 27.3
5 -7 5 404.36 23.3
5 -7 5 448.96 27.9
-6 7 -5 6.3 4.7
-6 7 -5 0.3 4.9
6 -7 5 2.9 4.7
6 -7 5 2.2 5.3
-7 7 -5 153.08 20.1
-7 7 -5 124.29 14.2
7 -7 5 113.09 15
7 -7 5 110.79 9.8
7 -7 5 138.29 18.6
5 6 -5 265.97 14
5 6 -5 289.87 17.9
5 6 -5 292.07 21.6
-5 -6 5 268.27 25.7
4 6 -5 56.89 11.2
4 6 -5 62.99 9.3
4 6 -5 55.59 11.3
-4 -6 5 42.3 10.8
3 6 -5 296.37 19.7
3 6 -5 326.17 18.1
-3 -6 5 330.27 23.7
2 6 -5 332.67 19.5
2 6 -5 332.47 19.2
2 6 -5 322.27 17.6
-2 -6 5 335.07 22.1
-2 -6 5 333.17 13.8
1 6 -5 199.68 13.3
1 6 -5 191.08 12.6
1 6 -5 197.98 13.8
-1 -6 5 191.78 12.1
-1 -6 5 208.38 14.4
0 6 -5 17.3 4.8
0 6 -5 11.7 3.6
0 6 -5 8.2 3.4
0 -6 5 5.7 4.3
0 -6 5 13.4 4.2
-1 6 -5 1162.38 42.8
-1 6 -5 1181.38 43.5
-1 6 -5 1205.48 39.7
1 -6 5 1169.38 38.3
1 -6 5 1207.28 42.9
1 -6 5 1202.48 42.6
-2 6 -5 -1.9 2.4
-2 6 -5 1.9 3.1
-2 6 -5 1.4 2
2 -6 5 -1.6 2.2
2 -6 5 1 1.6
2 -6 5 -2.6 3.6
-3 6 -5 399.16 23.1
-3 6 -5 420.46 22.6
3 -6 5 402.56 22.8
3 -6 5 429.96 22.8
-4 6 -5 8.2 5.4
-4 6 -5 12.6 4.4
4 -6 5 7.9 4.3
4 -6 5 7 5.2
-5 6 -5 522.25 24.1
-5 6 -5 423.16 27.9
5 -6 5 457.65 24.3
5 -6 5 451.15 19.4
5 -6 5 474.95 28.4
-6 6 -5 134.79 17.2
-6 6 -5 154.58 12.9
6 -6 5 183.58 20.7
6 -6 5 137.69 11.4
6 -6 5 142.89 14.1
-7 6 -5 -4.2 5.3
7 -6 5 10.1 5.2
7 -6 5 1.1 5.5
6 5 -5 54.69 9.1
6 5 -5 40.9 8.6
-6 -5 5 59.29 17
5 5 -5 14 5.1
5 5 -5 13.7 5.1
-5 -5 5 3.4 7.1
4 5 -5 899.41 38.4
4 5 -5 875.41 40.1
4 5 -5 881.21 33.5
-4 -5 5 880.11 42.5
3 5 -5 55.79 7
3 5 -5 50.59 9.2
3 5 -5 56.19 8.7
-3 -5 5 67.59 11.3
2 5 -5 6.3 3.1
2 5 -5 7 3.2
2 5 -5 6.7 3.3
-2 -5 5 6.6 4.2
-2 -5 5 7.5 5
-2 -5 5 2.8 3.4
-2 -5 5 3.6 2.2
-2 -5 5 7.5 2.6
1 5 -5 1647.34 54.49
1 5 -5 1652.23 53.29
-1 -5 5 1608.64 55.19
-1 -5 5 1652.53 53.99
0 5 -5 270.17 14.1
0 -5 5 262.87 14.6
0 -5 5 264.47 14.2
0 -5 5 264.57 12.8
-1 5 -5 518.45 22.6
-1 5 -5 510.25 19.8
1 -5 5 523.25 22.4
1 -5 5 510.15 22
1 -5 5 504.25 20.1
-2 5 -5 14.9 4.9
-2 5 -5 12.9 4.5
2 -5 5 3.6 2.9
2 -5 5 10 4.2
2 -5 5 7.1 2.4
-3 5 -5 1166.98 42.9
-3 5 -5 1177.78 45.8
-3 5 -5 1236.28 40.8
3 -5 5 1180.98 42.4
3 -5 5 1080.59 43.4
4 -5 5 0.7 3.7
4 -5 5 -1.2 4.3
-5 5 -5 34.3 7.8
-5 5 -5 47.1 10.5
5 -5 5 37.1 7.7
-6 5 -5 6.9 6.1
6 -5 5 1.6 3.9
6 -5 5 7.2 5
6 -5 5 -2.4 4.2
-7 5 -5 785.12 42.1
7 -5 5 733.93 34.8
6 4 -5 690.13 30.5
6 4 -5 668.03 27.8
-6 -4 5 768.52 41.1
5 4 -5 206.08 12.6
5 4 -5 208.08 18.5
5 4 -5 202.98 16.7
-5 -4 5 186.78 19.1
4 4 -5 12 4.6
4 4 -5 21.1 5.1
-4 -4 5 16.8 5.5
3 4 -5 1332.17 43
3 4 -5 1304.77 48.6
3 4 -5 1286.27 47.5
-3 -4 5 1292.17 50.29
-3 -4 5 1388.66 51.19
2 4 -5 985.1 36.7
2 4 -5 1014.2 33.7
2 4 -5 1020.6 37.8
-2 -4 5 935.81 31.5
-2 -4 5 996 38.9
-2 -4 5 959.2 34.9
1 4 -5 1224.98 42.3
1 4 -5 1257.57 40.7
-1 -4 5 1282.77 44.2
-1 -4 5 1225.48 40.8
0 4 -5 262.17 13.2
0 4 -5 251.87 12.8
0 -4 5 244.68 11.3
0 -4 5 252.37 13.7
0 -4 5 253.47 12.9
-1 4 -5 2039.2 63.39
-1 4 -5 2024.4 60.09
1 -4 5 2071.69 62.99
1 -4 5 1966.7 62.19
-2 4 -5 398.36 19.2
-2 4 -5 398.66 20.4
2 -4 5 402.06 19.2
2 -4 5 374.66 18.1
-3 4 -5 961.9 31.2
-3 4 -5 952.5 39
-3 4 -5 929.11 36
3 -4 5 958.3 37.2
3 -4 5 945.61 35.5
-4 4 -5 69.79 9.9
-4 4 -5 65.19 10.3
4 -4 5 81.69 9.2
4 -4 5 72.19 9.9
-5 4 -5 2130.69 76.99
-5 4 -5 2085.59 76.19
5 -4 5 2190.98 72.09
-6 4 -5 21.3 8.3
6 -4 5 19.7 6.3
6 -4 5 15.5 6.7
6 -4 5 17.8 6.9
-7 4 -5 97.49 15.1
7 -4 5 132.59 16.8
7 3 -5 107.39 14.4
7 3 -5 90.69 12.7
7 3 -5 124.49 9.8
-7 -3 5 133.29 18.2
6 3 -5 58.09 10.8
6 3 -5 51.59 9.5
6 3 -5 79.29 8.2
-6 -3 5 61.89 13.2
5 3 -5 370.76 16.3
5 3 -5 386.86 22.3
5 3 -5 394.36 24.2
-5 -3 5 377.56 23.9
4 3 -5 1105.59 35.9
4 3 -5 1043 43.8
4 3 -5 1122.99 46.3
-4 -3 5 1208.68 45.4
-4 -3 5 1078.89 45.8
3 3 -5 1347.57 40.7
3 3 -5 1325.77 46.4
3 3 -5 1352.06 47.6
-3 -3 5 1257.87 39.2
-3 -3 5 1256.97 47.6
-3 -3 5 1277.57 49.3
2 3 -5 931.91 34.5
2 3 -5 933.41 30.3
2 3 -5 940.71 34.7
-2 -3 5 877.41 37.7
-2 -3 5 918.81 30.7
-2 -3 5 1006.2 37.3
1 3 -5 712.83 25
1 3 -5 759.32 27.7
-1 -3 5 719.43 25.9
-1 -3 5 718.93 25.3
-1 -3 5 734.23 29
0 3 -5 471.15 18.5
0 3 -5 451.45 18.4
0 -3 5 459.55 19.3
0 -3 5 453.95 16.4
0 -3 5 447.46 18
-1 3 -5 2175.88 65.49
-1 3 -5 2153.28 66.19
1 -3 5 2117.19 64.39
1 -3 5 2075.19 64.59
-2 3 -5 364.66 18.5
2 -3 5 362.96 17.2
2 -3 5 345.17 17.1
-3 3 -5 1287.47 48
-3 3 -5 1295.57 47.7
3 -3 5 1287.17 44.9
3 -3 5 1277.77 45.8
-4 3 -5 24 6.6
-4 3 -5 17.3 5.6
4 -3 5 26.3 6.8
4 -3 5 18.1 5.4
-5 3 -5 227.48 18
-5 3 -5 246.68 19.3
5 -3 5 260.37 17.5
-6 3 -5 0.2 3.8
-6 3 -5 2.9 4.5
6 -3 5 -1.3 4.1
6 -3 5 1.1 4.9
6 -3 5 -1 3.8
-7 3 -5 185.88 17.7
-7 3 -5 173.08 19.4
7 -3 5 199.88 18.5
7 2 -5 16.3 7.2
7 2 -5 19.7 4.6
7 2 -5 10.7 5.8
-7 -2 5 23.5 7.8
6 2 -5 490.75 33.4
6 2 -5 595.64 29.2
6 2 -5 564.14 20.7
-6 -2 5 617.94 30.8
5 2 -5 240.48 16.7
5 2 -5 242.98 10.8
-5 -2 5 264.17 17.8
-5 -2 5 248.48 19.8
4 2 -5 706.73 32.5
4 2 -5 717.13 36.5
4 2 -5 792.42 24.4
4 2 -5 788.62 32.3
-4 -2 5 762.92 35.3
-4 -2 5 777.32 25.4
-4 -2 5 795.22 32.4
3 2 -5 36.2 6.2
3 2 -5 26.5 3.2
3 2 -5 29.6 6.6
-3 -2 5 32.6 4.7
-3 -2 5 27.3 6.6
-3 -2 5 26.6 5.9
2 2 -5 287.17 11
-2 -2 5 269.67 12.8
-2 -2 5 280.77 16.5
-2 -2 5 286.27 11.4
1 2 -5 1312.27 39.6
-1 -2 5 1325.77 41.6
-1 -2 5 1276.37 39.1
-1 -2 5 1276.97 43.8
0 2 -5 1150.98 37.4
0 2 -5 1142.19 35.9
0 -2 5 1096.49 37.4
0 -2 5 1070.79 35.8
-1 2 -5 317.97 15.5
1 -2 5 311.27 14.6
1 -2 5 317.67 15.7
-2 2 -5 67.89 5.4
-2 2 -5 78.09 8.7
2 -2 5 81.99 7.8
2 -2 5 59.09 7.1
-3 2 -5 848.62 27.9
-3 2 -5 767.02 33.9
-3 2 -5 898.71 35.8
3 -2 5 790.82 32.2
3 -2 5 889.41 33.2
-4 2 -5 2.6 4.2
-4 2 -5 15 4.8
4 -2 5 8.3 3.2
4 -2 5 11 4.8
4 -2 5 3.8 3.8
-5 2 -5 293.87 21.8
-5 2 -5 284.67 19.3
5 -2 5 308.87 19.3
5 -2 5 286.27 19.9
5 -2 5 293.37 18.4
-6 2 -5 115.99 13.2
-6 2 -5 78.19 13.1
6 -2 5 102.39 12.6
6 -2 5 90.29 11.8
-7 2 -5 160.08 18.6
-7 2 -5 174.38 16.4
7 -2 5 155.98 17.2
8 1 -5 193.58 17.8
8 1 -5 173.58 17.1
8 1 -5 159.88 9.4
8 1 -5 170.78 9.9
-8 -1 5 155.18 17
7 1 -5 1.4 3.4
7 1 -5 0.9 2
7 1 -5 1 4.2
7 1 -5 -8.6 4.2
-7 -1 5 4.9 5
6 1 -5 497.05 19.3
6 1 -5 504.45 26
6 1 -5 484.85 17
6 1 -5 479.85 16.4
6 1 -5 461.85 16.1
-6 -1 5 472.35 29.9
-6 -1 5 453.05 24.7
5 1 -5 70.79 6.1
5 1 -5 61.19 8.8
-5 -1 5 59.29 16.7
-5 -1 5 63.99 6.2
-5 -1 5 65.39 8.8
4 1 -5 538.55 25.3
4 1 -5 541.45 25.8
4 1 -5 608.04 30.7
-4 -1 5 547.05 23.6
-4 -1 5 552.54 21.8
-4 -1 5 518.95 27.5
3 1 -5 740.83 32.7
3 1 -5 704.23 24.7
-3 -1 5 646.94 30
-3 -1 5 704.73 26.4
-3 -1 5 719.63 26
2 1 -5 1406.96 45.8
2 1 -5 1466.05 51.59
-2 -1 5 1406.06 49.6
-2 -1 5 1505.95 41.9
-2 -1 5 1566.14 47
1 1 -5 864.61 26.9
1 1 -5 831.42 31
-1 -1 5 846.92 29.4
-1 -1 5 810.82 26.4
0 1 -5 187.28 9.7
0 1 -5 176.58 11.4
0 -1 5 180.48 10.9
0 -1 5 176.28 10.7
-1 1 -5 1739.53 55.89
-1 1 -5 1700.93 53.19
1 -1 5 1743.43 54.39
1 -1 5 1782.02 55.59
-2 1 -5 90.59 6.8
-2 1 -5 78.29 8.8
2 -1 5 84.99 8.3
2 -1 5 76.39 8.2
-3 1 -5 595.44 22.6
-3 1 -5 576.54 27.7
-3 1 -5 528.35 25.6
3 -1 5 581.74 26.5
3 -1 5 541.25 25.2
3 -1 5 604.44 25.4
-4 1 -5 48.7 7.1
-4 1 -5 72.79 9
-4 1 -5 39.9 8.4
4 -1 5 69.99 9.3
4 -1 5 46.2 7.9
4 -1 5 50.09 9.1
-5 1 -5 573.14 24.8
-5 1 -5 519.15 31.1
-5 1 -5 580.34 27.7
5 -1 5 580.44 27.2
5 -1 5 586.04 29.4
5 -1 5 606.54 30.8
-6 1 -5 97.49 11.4
-6 1 -5 112.19 12.3
-6 1 -5 141.09 17
6 -1 5 109.49 12.1
6 -1 5 106.29 13.6
8 0 -5 204.28 14.8
8 0 -5 225.98 18.9
8 0 -5 212.58 10.6
-8 0 5 219.38 18.4
7 0 -5 -4.3 5.1
7 0 -5 2.7 3.8
7 0 -5 -3.3 2.1
7 0 -5 -10 7.5
7 0 -5 -4.3 4.5
-7 0 5 3.3 4.4
-7 0 5 -6.2 4.6
6 0 -5 536.75 28
6 0 -5 493.45 21.7
6 0 -5 534.75 20.2
6 0 -5 516.75 26.2
6 0 -5 481.25 27
-6 0 5 468.75 29.2
-6 0 5 477.55 23.8
5 0 -5 248.78 20.2
5 0 -5 231.38 12.3
5 0 -5 244.18 16.8
5 0 -5 233.38 12.8
-5 0 5 231.78 14
-5 0 5 238.78 14.2
-5 0 5 258.77 18.9
4 0 -5 892.31 30.8
4 0 -5 872.81 39.7
4 0 -5 918.61 30.8
-4 0 5 916.41 38.1
-4 0 5 854.61 31
-4 0 5 902.41 33.3
3 0 -5 822.42 35.9
3 0 -5 907.91 30.4
-3 0 5 852.81 34.7
-3 0 5 858.61 28.4
-3 0 5 867.21 31.7
2 0 -5 639.64 27.5
2 0 -5 643.64 24.2
-2 0 5 618.84 26.3
-2 0 5 665.73 25
-2 0 5 638.54 19.4
1 0 -5 379.76 17.7
1 0 -5 393.16 17.5
-1 0 5 393.96 17.2
-1 0 5 376.86 14.4
-1 0 5 370.96 18.5
0 0 -5 885.91 32.1
0 0 -5 893.91 31.6
0 0 5 885.01 31.5
0 0 5 860.51 30.1
-1 0 -5 636.54 26.5
-1 0 -5 677.13 24.9
1 0 5 683.73 25.7
-2 0 -5 1032.8 34.9
-2 0 -5 1058.09 39.1
2 0 5 937.91 35.8
2 0 5 985.4 36.8
-3 0 -5 536.55 24.7
-3 0 -5 524.15 27.4
-3 0 -5 610.04 24.4
3 0 5 558.34 26.3
3 0 5 561.84 24.7
-4 0 -5 216.48 14.2
-4 0 -5 200.18 14.8
-4 0 -5 172.58 16.4
4 0 5 224.38 14.9
-5 0 -5 188.88 15.6
-5 0 -5 192.08 18.9
-5 0 -5 217.28 14.3
5 0 5 218.38 14.1
5 0 5 194.28 17.1
5 0 5 224.28 15.6
-6 0 -5 23.2 5.8
-6 0 -5 14.3 9.1
-6 0 -5 0.4 4.5
6 0 5 11.3 5.1
6 0 5 27.9 7
6 0 5 31.3 7.4
8 -1 -5 268.37 15
8 -1 -5 258.67 20.3
8 -1 -5 237.18 17.2
7 -1 -5 3.3 4.1
7 -1 -5 -4.5 3.4
7 -1 -5 -0.4 3.9
7 -1 -5 1.4 5.2
7 -1 -5 1.1 3.1
7 -1 -5 -1 5.3
-7 1 5 -1.5 4.3
6 -1 -5 689.33 29.4
6 -1 -5 732.43 27.5
6 -1 -5 697.43 33.8
6 -1 -5 710.03 32.6
-6 1 5 680.53 28.3
-6 1 5 664.13 35
-6 1 5 675.63 30
5 -1 -5 24.6 7.5
5 -1 -5 33.4 6.8
5 -1 -5 34.9 6.3
-5 1 5 45.9 6
-5 1 5 36.4 8.6
-5 1 5 35.1 7.4
4 -1 -5 1251.87 41.5
4 -1 -5 1222.08 48.9
-4 1 5 1194.98 43.7
-4 1 5 1232.18 38.3
-4 1 5 1207.08 47.1
3 -1 -5 42.4 6.6
3 -1 -5 46.1 8.1
-3 1 5 39.4 3.5
-3 1 5 45 6.7
-3 1 5 43.7 7.2
-3 1 5 39.8 7.9
2 -1 -5 2419.46 76.79
2 -1 -5 2447.16 73.99
-2 1 5 2522.45 69.09
-2 1 5 2293.27 77.49
-2 1 5 2414.66 74.59
1 -1 -5 214.98 13
1 -1 -5 232.08 13.3
-1 1 5 216.18 9
-1 1 5 214.48 13.5
-1 1 5 212.78 12.7
0 -1 -5 1412.06 47.1
0 -1 -5 1398.76 47.6
0 1 5 1405.06 44
0 1 5 1470.65 47.9
0 1 5 1402.36 46.6
-1 -1 -5 19.9 5.5
-1 -1 -5 25 5.6
1 1 5 19.9 4.6
1 1 5 33.7 5.8
1 1 5 22 4.5
-2 -1 -5 481.15 21.4
-2 -1 -5 455.85 23.8
2 1 5 486.65 22.1
2 1 5 466.25 18.6
-3 -1 -5 143.79 12.2
-3 -1 -5 144.09 10.6
-3 -1 -5 121.09 13.4
3 1 5 125.39 11.1
3 1 5 127.19 11.2
3 1 5 129.09 11.8
-4 -1 -5 222.08 13.3
-4 -1 -5 226.58 19.9
-4 -1 -5 246.08 17.5
4 1 5 229.18 15.6
4 1 5 224.68 20.7
4 1 5 233.48 15.3
-5 -1 -5 136.19 10.9
-5 -1 -5 147.99 18.3
5 1 5 138.49 12.2
8 -2 -5 398.16 24.8
8 -2 -5 403.86 27.2
8 -2 -5 398.66 23.9
-8 2 5 435.96 30.7
7 -2 -5 11.2 4.8
7 -2 -5 12.2 6.7
7 -2 -5 23 7.3
7 -2 -5 20.3 7.1
-7 2 5 18.8 7.8
6 -2 -5 579.04 31.6
6 -2 -5 658.53 27.4
6 -2 -5 629.94 28.6
-6 2 5 625.34 30.2
-6 2 5 616.64 33
5 -2 -5 65.99 8.7
5 -2 -5 61.49 11.4
-5 2 5 54.99 8.5
-5 2 5 65.49 10.5
-5 2 5 42.6 9.9
4 -2 -5 1858.11 59.69
4 -2 -5 1726.03 64.89
-4 2 5 1876.91 64.39
-4 2 5 1809.82 62.09
-4 2 5 1875.91 67.99
3 -2 -5 -0.2 2.7
3 -2 -5 2 2.7
-3 2 5 2 3.5
-3 2 5 3.1 2.8
-3 2 5 -1.3 2.7
-3 2 5 0.1 1.4
2 -2 -5 650.13 27.1
2 -2 -5 647.44 27.7
-2 2 5 706.23 30.9
-2 2 5 695.43 23.7
-2 2 5 629.94 27.4
1 -2 -5 3.4 2.5
1 -2 -5 2.7 2.4
-1 2 5 2.7 2.3
-1 2 5 3.5 1.2
-1 2 5 -1.3 2
0 -2 -5 1440.06 49.6
0 -2 -5 1414.56 48.4
0 2 5 1431.96 49.4
0 2 5 1450.45 44.6
0 2 5 1438.06 49.2
-1 -2 -5 502.15 22.9
-1 -2 -5 515.45 24.3
1 2 5 523.45 22.8
1 2 5 522.75 23.7
1 2 5 521.65 21.6
-2 -2 -5 443.86 24.5
-2 -2 -5 396.36 20.7
2 2 5 412.96 20.4
2 2 5 402.26 20.6
2 2 5 388.06 18.6
-3 -2 -5 481.55 19.4
-3 -2 -5 472.75 28.5
3 2 5 444.16 23.5
3 2 5 457.15 23
-4 -2 -5 114.19 15.8
-4 -2 -5 118.89 16.2
-4 -2 -5 105.59 10
4 2 5 105.79 11.2
4 2 5 120.49 13
4 2 5 104.69 11.6
-5 -2 -5 85.69 16.2
5 2 5 77.99 11.7
5 2 5 57.19 10.4
8 -3 -5 128.19 15.5
8 -3 -5 116.29 14.3
8 -3 -5 114.79 13.3
-8 3 5 145.09 17.9
7 -3 -5 5 4.7
7 -3 -5 20.7 7.6
-7 3 5 9.4 6.7
6 -3 -5 769.02 32.5
-6 3 5 727.63 40.6
-6 3 5 738.33 37
5 -3 -5 44.5 8.7
-5 3 5 40.1 9
-5 3 5 29.1 8.2
-5 3 5 34.8 8
4 -3 -5 297.67 17.6
4 -3 -5 259.67 18.8
-4 3 5 291.57 19.3
-4 3 5 316.17 19.2
-4 3 5 266.47 20.8
-4 3 5 294.47 11.9
3 -3 -5 122.39 11.2
3 -3 -5 108.89 10.9
-3 3 5 109.59 12.8
-3 3 5 113.49 10.8
-3 3 5 119.99 8.4
2 -3 -5 1541.45 54.99
2 -3 -5 1584.14 54.99
-2 3 5 1603.84 55.89
-2 3 5 1679.73 51.59
-2 3 5 1679.03 59.89
1 -3 -5 888.91 35.7
-1 3 5 894.31 35.9
-1 3 5 924.91 38.1
-1 3 5 948.31 43.3
0 -3 -5 224.88 15.5
0 -3 -5 196.98 13.9
0 3 5 200.78 10.4
0 3 5 206.98 14.6
0 3 5 213.98 15
-1 -3 -5 346.87 21.8
1 3 5 333.17 19.2
1 3 5 366.46 20.2
1 3 5 379.56 17.5
-2 -3 -5 350.56 21.1
-2 -3 -5 329.87 23.2
2 3 5 366.16 21.7
2 3 5 353.56 20.1
2 3 5 348.97 18.9
-3 -3 -5 93.59 14.6
-3 -3 -5 87.79 12.9
3 3 5 93.59 11.3
3 3 5 99.39 12.3
-4 -3 -5 75.79 16.4
4 3 5 69.59 11.1
4 3 5 55.89 11.1
8 -4 -5 160.48 17
8 -4 -5 151.28 19.2
-8 4 5 157.08 17.8
7 -4 -5 56.39 11.3
-7 4 5 76.99 14.7
-7 4 5 86.49 13.2
-7 4 5 81.19 12.3
6 -4 -5 154.08 16.7
6 -4 -5 143.39 15.9
6 -4 -5 151.68 14.9
-6 4 5 153.18 18.5
-6 4 5 147.49 18.5
-6 4 5 180.88 17
5 -4 -5 25.7 6.7
5 -4 -5 18.6 5.9
5 -4 -5 15.9 5
-5 4 5 27.5 4.5
-5 4 5 14 6
-5 4 5 29.2 7.9
4 -4 -5 802.12 35
4 -4 -5 810.82 34.6
-4 4 5 837.42 29.8
-4 4 5 889.71 42.2
-4 4 5 766.92 36.2
3 -4 -5 100.29 11.6
3 -4 -5 124.49 11.8
3 -4 -5 100.39 11.2
-3 4 5 95.99 9.1
-3 4 5 81.39 12
2 -4 -5 344.47 20.4
-2 4 5 351.96 17.7
-2 4 5 319.47 22.3
1 -4 -5 16.6 5.6
-1 4 5 23.6 5.4
-1 4 5 15.8 4.3
-1 4 5 12.6 4.7
0 -4 -5 620.04 29.9
0 -4 -5 741.23 32.1
0 4 5 665.13 30.9
0 4 5 724.13 33.5
-1 -4 -5 5.1 4.8
-1 -4 -5 11.1 4.9
1 4 5 11.7 5.1
1 4 5 11.9 4.9
1 4 5 8.2 3.8
-2 -4 -5 111.79 16.2
2 4 5 130.39 14.5
2 4 5 132.19 14.2
-3 -4 -5 40.1 10.7
3 4 5 55.19 10.5
3 4 5 42.7 8.7
8 -5 -5 119.39 16.5
-8 5 5 114.39 15.5
7 -5 -5 49.8 12.7
-7 5 5 29.3 8.4
-7 5 5 39.4 11.1
6 -5 -5 362.96 22.6
6 -5 -5 364.26 24.1
-6 5 5 366.16 16.1
-6 5 5 346.87 24
-6 5 5 357.16 29
5 -5 -5 50.39 11.4
5 -5 -5 38.9 8.6
5 -5 -5 38.9 9.3
-5 5 5 21.4 6.3
-5 5 5 48.7 12.5
-5 5 5 34.6 6.3
4 -5 -5 663.43 30.7
4 -5 -5 594.14 30
-4 5 5 621.34 35.5
-4 5 5 564.84 25.8
-4 5 5 547.35 30.1
3 -5 -5 360.96 22.5
3 -5 -5 348.77 22
3 -5 -5 404.26 22.3
-3 5 5 374.06 26.2
-3 5 5 364.96 19.7
2 -5 -5 432.16 24.7
2 -5 -5 450.75 23.8
2 -5 -5 415.46 24.6
-2 5 5 435.56 25.1
-2 5 5 469.15 22.6
-2 5 5 483.75 28.9
1 -5 -5 0.6 3.5
1 -5 -5 0.3 4.3
1 -5 -5 -2.6 3.6
-1 5 5 0.5 4.3
-1 5 5 -1.1 3.3
0 -5 -5 214.28 13.2
0 -5 -5 224.78 17.7
0 5 5 221.78 18.7
0 5 5 228.38 16.5
0 5 5 233.08 17.9
-1 -5 -5 -2.4 5.7
1 5 5 -1.6 3.4
1 5 5 4.2 4.6
-2 -5 -5 259.47 24.1
2 5 5 253.97 19.7
7 -6 -5 65.69 14.6
-7 6 5 38.9 11.3
-7 6 5 37.5 9.9
-7 6 5 39 8.9
6 -6 -5 281.37 29.4
-6 6 5 336.97 17.9
-6 6 5 361.96 24.5
-6 6 5 392.76 31.1
5 -6 -5 367.46 30.6
5 -6 -5 301.97 22.6
-5 6 5 287.67 22.3
-5 6 5 317.47 27.7
-5 6 5 340.77 19.3
4 -6 -5 85.79 12.8
4 -6 -5 64.59 13.8
-4 6 5 66.09 14.6
-4 6 5 56.59 11.5
-4 6 5 53.69 9.9
3 -6 -5 -3.6 4.6
-3 6 5 -1.8 4.4
2 -6 -5 355.76 21
2 -6 -5 367.56 23.8
-2 6 5 343.57 26.6
-2 6 5 354.96 21.4
1 -6 -5 13.7 5.9
1 -6 -5 15.8 4.8
-1 6 5 21.9 6.8
-1 6 5 4.6 5.5
0 -6 -5 336.57 23.9
0 -6 -5 359.46 16.1
0 6 5 375.86 26.7
5 -7 -5 6 7
-5 7 5 12.2 7.8
-5 7 5 -2.7 6.8
-5 7 5 15.6 8.2
4 -7 -5 335.97 25
4 -7 -5 387.36 24.9
-4 7 5 283.57 22.7
-4 7 5 369.86 30.3
-4 7 5 345.57 22.8
3 -7 -5 3.7 5.9
-3 7 5 20.1 7.3
-3 7 5 3 7.2
2 -7 -5 310.57 23.5
-2 7 5 290.67 28
1 9 -6 107.59 11.7
-1 -9 6 87.49 11.1
-1 -9 6 118.69 17.8
0 9 -6 38.9 9.1
0 9 -6 41.4 8.8
0 -9 6 48 9.2
0 -9 6 50.69 10.4
0 -9 6 32.9 13.7
-1 9 -6 154.78 14.5
-1 9 -6 170.48 13.3
1 -9 6 157.08 16
1 -9 6 161.68 16.2
1 -9 6 163.98 15.7
-2 9 -6 209.98 18.4
-2 9 -6 219.78 14.4
2 -9 6 225.38 19.3
2 -9 6 212.68 18.4
-3 9 -6 62.79 11.1
-3 9 -6 49.1 8.2
3 -9 6 35.6 8.8
3 -9 6 56.89 17.3
-4 9 -6 172.98 22.4
-4 9 -6 163.68 19.4
4 -9 6 183.18 17.3
4 -9 6 190.48 20.3
4 -9 6 238.78 22.4
-5 9 -6 -1.1 5.6
-5 9 -6 -1.3 5.7
5 -9 6 -6.2 4.9
5 -9 6 -1.2 5
2 8 -6 60.19 8.6
2 8 -6 68.59 11.2
-2 -8 6 60.19 12.1
1 8 -6 319.07 20.1
1 8 -6 322.07 18.8
1 8 -6 312.07 19.5
-1 -8 6 313.17 17.3
-1 -8 6 297.97 20.9
0 8 -6 280.77 18
0 8 -6 274.27 16.9
0 8 -6 269.37 18.2
0 -8 6 293.27 17.4
0 -8 6 238.28 18.1
0 -8 6 300.97 18.5
-1 8 -6 121.49 12.6
-1 8 -6 107.19 10.2
-1 8 -6 111.79 12.2
1 -8 6 113.99 12.8
1 -8 6 120.49 12.5
1 -8 6 100.39 19.1
-2 8 -6 450.45 25.9
-2 8 -6 476.45 20.4
-2 8 -6 405.66 24
2 -8 6 481.65 25.9
2 -8 6 424.66 24.6
2 -8 6 451.95 26.4
-3 8 -6 32.6 8.2
-3 8 -6 33.8 8.8
3 -8 6 32.7 8
3 -8 6 27.3 7.5
-4 8 -6 216.58 19.3
-4 8 -6 210.28 19.1
4 -8 6 201.68 17.1
4 -8 6 267.27 23.1
4 -8 6 195.58 19.4
-5 8 -6 3.4 4.7
-5 8 -6 7.4 9.8
5 -8 6 -5.5 5.3
-6 8 -6 215.58 17.6
-6 8 -6 188.48 21.8
6 -8 6 227.68 22.5
6 -8 6 221.78 19
4 7 -6 97.99 14.3
4 7 -6 72.79 8.5
3 7 -6 336.47 21.9
3 7 -6 385.96 21.1
3 7 -6 351.16 22.7
2 7 -6 82.59 9.6
2 7 -6 89.69 10.4
2 7 -6 89.09 11.5
2 7 -6 92.69 10.5
-2 -7 6 102.49 8
-2 -7 6 99.29 14.5
-2 -7 6 87.29 7.5
1 7 -6 259.17 16.7
1 7 -6 238.38 16.4
1 7 -6 256.47 15.8
-1 -7 6 275.17 15.5
-1 -7 6 238.38 17.1
0 7 -6 409.26 21.5
0 7 -6 396.16 21.3
0 7 -6 416.26 20.5
0 -7 6 387.06 21.7
0 -7 6 407.16 19.4
0 -7 6 392.96 21.2
-1 7 -6 378.66 18.1
-1 7 -6 409.76 21.7
-1 7 -6 384.36 25
1 -7 6 385.66 20.4
1 -7 6 342.17 20.3
-2 7 -6 105.29 12.1
-2 7 -6 107.89 11.4
-2 7 -6 101.39 8.2
2 -7 6 103.09 12
2 -7 6 97.19 6.6
2 -7 6 99.59 11.3
-3 7 -6 206.18 17.1
3 -7 6 187.88 16.1
3 -7 6 168.78 14.3
-4 7 -6 614.04 29.4
-4 7 -6 606.54 33
-4 7 -6 618.84 30.5
4 -7 6 587.14 29
-5 7 -6 211.98 20.1
-5 7 -6 262.67 17.5
5 -7 6 252.77 21.1
-6 7 -6 107.49 11.4
-6 7 -6 87.39 16
6 -7 6 103.89 13.5
6 -7 6 107.59 8.9
5 6 -6 558.14 44.5
5 6 -6 389.56 21.4
-5 -6 6 406.06 34.1
4 6 -6 1.4 4.9
4 6 -6 3.4 4
4 6 -6 4.8 3.8
-4 -6 6 -3.1 6.6
3 6 -6 604.14 29.5
3 6 -6 576.14 25.8
-3 -6 6 584.14 33.2
2 6 -6 86.19 10
2 6 -6 108.49 11.4
2 6 -6 102.69 10
-2 -6 6 121.49 14.4
-2 -6 6 72.89 7.3
-2 -6 6 108.09 11.9
1 6 -6 783.52 32.3
1 6 -6 780.42 31.4
-1 -6 6 821.92 32.6
-1 -6 6 795.42 33.1
0 6 -6 24 5.9
0 6 -6 21.4 5
0 -6 6 17 4.7
0 -6 6 25 5.5
0 -6 6 28 6.4
-1 6 -6 699.73 30.1
-1 6 -6 667.03 25.7
-1 6 -6 636.14 28.5
1 -6 6 710.83 29.3
1 -6 6 694.63 26.3
1 -6 6 653.53 27.3
-2 6 -6 650.53 29.3
-2 6 -6 654.13 23.4
2 -6 6 681.63 33.1
2 -6 6 677.83 29.1
2 -6 6 658.83 24.5
-3 6 -6 650.63 31.6
-3 6 -6 624.54 28.9
3 -6 6 611.04 29.4
3 -6 6 595.64 27.6
3 -6 6 605.04 22.4
-4 6 -6 26 6.2
-4 6 -6 24.5 7.3
4 -6 6 33.5 7.8
-5 6 -6 181.38 12.2
-5 6 -6 192.58 19.3
5 -6 6 192.48 17.6
5 -6 6 194.38 15.7
-6 6 -6 211.08 21.6
6 -6 6 208.48 17.3
6 -6 6 182.08 14.2
-7 6 -6 4.3 7.9
7 -6 6 9.9 6.5
7 -6 6 10.8 6
5 5 -6 373.86 18.5
5 5 -6 372.16 36.1
-5 -5 6 382.16 28.1
4 5 -6 -3.2 3.7
4 5 -6 12.5 4
4 5 -6 -1 3.8
-4 -5 6 4.2 5.8
3 5 -6 372.16 21.2
3 5 -6 363.36 21.1
3 5 -6 326.57 17
-3 -5 6 384.16 24.5
-3 -5 6 339.97 24.1
2 5 -6 25.9 6.4
2 5 -6 37.3 6.1
-2 -5 6 26.3 5.4
-2 -5 6 41.9 7.6
-2 -5 6 29.9 7
1 5 -6 1021.9 37.9
1 5 -6 1013.3 36.5
-1 -5 6 1025.6 39.4
-1 -5 6 1037.8 36.9
0 5 -6 216.98 12.7
0 5 -6 216.98 13.1
0 -5 6 192.68 13
0 -5 6 218.58 13.2
0 -5 6 214.98 10.8
-1 5 -6 622.54 23.1
-1 5 -6 598.34 25.9
1 -5 6 620.84 24.5
1 -5 6 586.04 25.3
1 -5 6 612.54 24.6
-2 5 -6 143.69 11.4
-2 5 -6 143.49 12.5
-2 5 -6 132.59 7.7
2 -5 6 135.29 10.9
2 -5 6 146.29 9.6
2 -5 6 119.79 10.7
-3 5 -6 632.64 44.3
-3 5 -6 678.13 29.3
-3 5 -6 631.14 24.4
3 -5 6 669.03 29.9
3 -5 6 636.54 28.5
-4 5 -6 675.23 34.2
4 -5 6 610.24 30.8
4 -5 6 708.33 30.2
-5 5 -6 5.8 5.4
5 -5 6 11.2 4.6
5 -5 6 18.4 6.1
-6 5 -6 438.16 30.6
6 -5 6 540.75 28.2
-7 5 -6 19.6 8.8
7 -5 6 22.8 13.9
7 -5 6 31.8 8.8
6 4 -6 168.08 11.6
6 4 -6 180.88 17.7
-6 -4 6 152.28 21.3
5 4 -6 80.29 11.4
5 4 -6 42.2 10.3
-5 -4 6 75.29 13.7
4 4 -6 53.29 8.7
4 4 -6 57.09 6.3
-4 -4 6 57.29 10.8
-4 -4 6 45.6 9.4
3 4 -6 964.4 32.9
3 4 -6 1039 39.5
-3 -4 6 1012.5 41.8
-3 -4 6 971.4 41.2
-3 -4 6 857.51 30.8
2 4 -6 1.7 2.5
2 4 -6 4.6 2.2
-2 -4 6 0.7 3.1
-2 -4 6 5.1 3.7
-2 -4 6 4.1 2.6
1 4 -6 404.26 17.6
1 4 -6 408.16 19.3
-1 -4 6 383.96 20.3
-1 -4 6 400.76 17.6
-1 -4 6 412.06 18.5
0 4 -6 432.46 19.5
0 4 -6 472.45 20.1
0 -4 6 480.35 19.8
0 -4 6 471.75 17.3
0 -4 6 462.45 21.2
-1 4 -6 1041.6 34.1
1 -4 6 1005.8 35.6
1 -4 6 1020 36.4
1 -4 6 1025.6 35.3
-2 4 -6 498.35 23.1
-2 4 -6 533.35 18.5
2 -4 6 526.65 23.1
2 -4 6 488.25 22.3
-3 4 -6 55.19 9.6
-3 4 -6 58.39 8.8
3 -4 6 66.79 8.6
3 -4 6 62.19 8.9
-4 4 -6 478.05 32.6
-4 4 -6 417.96 26.2
4 -4 6 487.15 23.8
4 -4 6 428.06 23.6
-5 4 -6 531.65 31.9
-5 4 -6 620.74 32.8
5 -4 6 636.84 30
5 -4 6 567.34 29.6
-6 4 -6 57.89 12.5
-6 4 -6 52.69 12.3
6 -4 6 45.7 10.8
-7 4 -6 24.3 8.1
7 -4 6 12.7 7.1
7 3 -6 37.8 11.6
7 3 -6 40.3 10
7 3 -6 52.99 6.8
-7 -3 6 76.59 15
6 3 -6 14.4 3.5
6 3 -6 9.4 5.8
-6 -3 6 14.5 7.2
5 3 -6 638.24 33.4
5 3 -6 689.33 24.2
5 3 -6 680.73 32.8
-5 -3 6 734.53 37.4
-5 -3 6 789.12 36
4 3 -6 118.49 7.4
4 3 -6 113.19 11.2
-4 -3 6 128.29 13.3
-4 -3 6 119.39 7.1
-4 -3 6 129.09 14.1
3 3 -6 692.33 23.3
3 3 -6 695.83 29.7
-3 -3 6 685.43 32.4
-3 -3 6 618.34 29.9
-3 -3 6 693.43 25.1
2 3 -6 46.5 4.8
2 3 -6 43.9 6.5
-2 -3 6 37.8 6.1
-2 -3 6 56.89 8.1
1 3 -6 1514.85 47
1 3 -6 1543.85 50.29
-1 -3 6 1454.65 46.4
-1 -3 6 1497.35 48.7
-1 -3 6 1527.95 51.89
0 3 -6 2.4 2.1
0 3 -6 5.4 2.3
0 -3 6 4.1 2.5
0 -3 6 3.1 2.5
0 -3 6 4.4 2.6
-1 3 -6 337.17 16.9
1 -3 6 350.36 16.5
1 -3 6 352.46 15.7
1 -3 6 340.67 17.9
-2 3 -6 102.89 10.3
-2 3 -6 110.19 7.1
2 -3 6 123.59 10
2 -3 6 109.19 9.4
-3 3 -6 2402.36 80.09
-3 3 -6 2351.86 80.49
3 -3 6 2463.35 77.29
3 -3 6 2373.76 76.49
-4 3 -6 2 3.1
-4 3 -6 -0.5 3.1
4 -3 6 -1.4 2.6
4 -3 6 1.8 2.9
-5 3 -6 112.09 14.2
-5 3 -6 105.89 13.7
5 -3 6 108.99 12.6
5 -3 6 106.59 12.5
5 -3 6 115.59 13.5
-6 3 -6 29.5 8.9
-6 3 -6 38.2 9.1
6 -3 6 18.4 6.1
7 2 -6 342.77 29.9
7 2 -6 300.87 23.1
-7 -2 6 339.87 24.3
6 2 -6 286.67 23
6 2 -6 276.37 25.8
6 2 -6 292.07 20.3
-6 -2 6 274.07 23.3
-6 -2 6 321.37 21.6
5 2 -6 994.2 41.4
-5 -2 6 1010 41
-5 -2 6 992.2 45.2
-5 -2 6 993.4 32.8
4 2 -6 135.39 15.3
4 2 -6 134.79 12.5
4 2 -6 135.99 12.4
-4 -2 6 111.59 13.2
-4 -2 6 135.09 9.4
-4 -2 6 140.59 12.4
3 2 -6 1130.39 41.7
3 2 -6 1057.69 45.3
3 2 -6 1108.89 32.4
-3 -2 6 1080.89 40.3
-3 -2 6 1049.09 43.1
-3 -2 6 1131.59 37.8
2 2 -6 71.49 9.5
-2 -2 6 80.09 7.6
-2 -2 6 64.79 8.4
-2 -2 6 73.49 5.4
1 2 -6 1853.11 61.29
1 2 -6 1805.92 54.69
-1 -2 6 1916.51 58.79
-1 -2 6 1864.71 55.29
-1 -2 6 1874.01 60.99
0 2 -6 9 2.8
0 -2 6 13.2 3.6
0 -2 6 11.6 3
-1 2 -6 2052.09 66.19
1 -2 6 2128.39 66.69
1 -2 6 2076.19 64.59
-2 2 -6 7.4 2.7
-2 2 -6 7.2 4.4
2 -2 6 6.7 3.3
2 -2 6 12 4.1
-3 2 -6 269.07 19.4
-3 2 -6 365.86 21.5
-3 2 -6 382.16 16
3 -2 6 362.46 19.4
3 -2 6 363.76 19.8
-4 2 -6 7.8 4.9
-4 2 -6 2.2 2.5
-4 2 -6 -1.8 3.4
4 -2 6 6.3 3.9
4 -2 6 4.4 3.4
-5 2 -6 254.87 13.5
-5 2 -6 263.97 19.7
-5 2 -6 232.38 20.5
5 -2 6 274.87 20
5 -2 6 226.88 17.8
5 -2 6 265.07 18.6
-6 2 -6 165.38 16.5
-6 2 -6 151.68 19.6
6 -2 6 184.48 17.7
7 1 -6 399.66 26.7
7 1 -6 413.96 25.6
-7 -1 6 433.86 30.4
-7 -1 6 402.16 24.7
6 1 -6 185.08 10
6 1 -6 182.98 16.8
6 1 -6 194.58 16
-6 -1 6 196.28 19.2
-6 -1 6 186.78 15.1
5 1 -6 173.08 10.4
5 1 -6 153.88 13.7
-5 -1 6 161.78 11.4
-5 -1 6 157.98 15.8
-5 -1 6 150.98 12.5
4 1 -6 34 8.4
4 1 -6 26.4 5.9
-4 -1 6 30.3 6.4
-4 -1 6 26.5 7.1
-4 -1 6 27.8 6
3 1 -6 1133.99 47.5
3 1 -6 1270.17 40.7
-3 -1 6 1258.57 42.3
-3 -1 6 1178.18 46.3
-3 -1 6 1241.18 41.4
2 1 -6 270.47 14.5
2 1 -6 254.97 16.6
-2 -1 6 276.07 10.1
-2 -1 6 292.27 15.1
-2 -1 6 284.67 16.7
1 1 -6 614.74 22
1 1 -6 576.24 24.9
-1 -1 6 637.84 24.6
-1 -1 6 582.14 21
0 1 -6 11.4 2.9
0 1 -6 15.6 4.4
0 -1 6 15.3 3.5
0 -1 6 8.7 3.5
-1 1 -6 968.1 33.8
-1 1 -6 930.11 36
1 -1 6 961 34.6
1 -1 6 1030.2 36.3
-2 1 -6 28.8 7
-2 1 -6 31.7 5.2
2 -1 6 30.5 6.4
2 -1 6 30.1 6.9
-3 1 -6 284.67 19.7
-3 1 -6 319.47 16
-3 1 -6 262.17 18.3
3 -1 6 315.67 18
3 -1 6 308.57 21.4
3 -1 6 310.57 18.8
-4 1 -6 473.95 27.6
-4 1 -6 507.25 26.1
-4 1 -6 448.06 22.4
4 -1 6 480.45 24
4 -1 6 513.95 26.4
-5 1 -6 247.18 17.8
-5 1 -6 244.58 20.9
-5 1 -6 201.08 14.8
5 -1 6 228.18 18.3
5 -1 6 211.88 18.1
5 -1 6 229.98 16.7
-6 1 -6 29.4 7.3
-6 1 -6 39.4 10
-6 1 -6 24.6 7.1
6 -1 6 34.3 9.1
8 0 -6 107.79 14
8 0 -6 126.89 9.3
8 0 -6 99.49 10.7
-8 0 6 126.89 14
-8 0 6 131.39 19.6
7 0 -6 1.4 5
7 0 -6 2.2 2.7
7 0 -6 3.1 6.5
7 0 -6 1 3.5
-7 0 6 7.4 4.4
-7 0 6 11.4 6.3
6 0 -6 67.59 7.9
6 0 -6 89.19 11.5
6 0 -6 79.79 8.3
-6 0 6 68.29 12.1
-6 0 6 86.69 10.1
-6 0 6 87.99 9.3
5 0 -6 478.75 19.9
5 0 -6 506.35 20.6
-5 0 6 449.16 22.6
-5 0 6 442.06 27.3
-5 0 6 445.76 20.7
4 0 -6 530.55 21.6
4 0 -6 501.65 28.6
-4 0 6 473.85 26.2
-4 0 6 528.85 24
-4 0 6 468.05 19.8
3 0 -6 727.63 27.9
3 0 -6 747.63 33.6
-3 0 6 744.83 29.6
-3 0 6 694.53 31.8
-3 0 6 746.93 25.3
2 0 -6 8.5 3.5
2 0 -6 3.5 2.9
-2 0 6 7.9 3.8
-2 0 6 7.2 1.9
1 0 -6 1724.63 57.29
1 0 -6 1791.12 57.69
-1 0 6 1779.52 57.59
-1 0 6 1822.52 55.99
0 0 -6 39.8 6.3
0 0 -6 29.8 5.9
0 0 6 39.7 6.5
0 0 6 44.5 5.8
-1 0 -6 550.34 25.5
-1 0 -6 603.84 26.9
1 0 6 624.94 24.7
1 0 6 607.14 25.8
-2 0 -6 131.99 10
-2 0 -6 127.09 12.1
2 0 6 119.89 10.8
2 0 6 99.59 9.9
-3 0 -6 797.52 33.3
-3 0 -6 739.73 35.8
-3 0 -6 788.42 31.4
3 0 6 823.02 33.2
3 0 6 760.22 33.6
-4 0 -6 1.6 3.9
-4 0 -6 -3 4.3
-4 0 -6 -2.4 3
4 0 6 1.2 4.7
4 0 6 -2 3.5
-5 0 -6 156.48 13.1
5 0 6 153.48 14.5
8 -1 -6 96.59 12
8 -1 -6 61.09 9.1
-8 1 6 68.09 14.7
7 -1 -6 248.38 14.9
7 -1 -6 233.58 16
7 -1 -6 242.18 18.9
7 -1 -6 214.98 24
-7 1 6 219.58 21.6
6 -1 -6 334.17 17.3
6 -1 -6 312.17 17.7
-6 1 6 334.57 16.9
-6 1 6 287.07 23.2
-6 1 6 303.97 19.6
5 -1 -6 808.02 31.4
-5 1 6 838.02 28.8
-5 1 6 808.82 38.5
-5 1 6 804.22 34.7
4 -1 -6 37.9 9.4
4 -1 -6 54.29 7.8
-4 1 6 47.3 4.7
-4 1 6 28 7.2
-4 1 6 42 9
3 -1 -6 968.8 35.4
3 -1 -6 966.5 39.9
-3 1 6 919.91 38.5
-3 1 6 1000.1 37.6
-3 1 6 925.81 40.4
2 -1 -6 56.39 7.6
2 -1 -6 53.49 7.9
-2 1 6 48.9 7.3
-2 1 6 50.89 8.6
1 -1 -6 1231.28 44
1 -1 -6 1211.18 43.4
-1 1 6 1199.18 44.3
-1 1 6 1247.08 43.8
-1 1 6 1230.08 37.5
0 -1 -6 84.69 9
0 -1 -6 82.49 9.6
0 1 6 84.39 6.8
0 1 6 87.49 8.3
0 1 6 82.49 9.1
-1 -1 -6 1081.29 40.4
-1 -1 -6 1123.29 43.1
1 1 6 1229.08 42.6
1 1 6 1160.08 39.8
1 1 6 1111.59 38.4
-2 -1 -6 16.5 6.3
-2 -1 -6 14 4.3
2 1 6 12.4 4.3
2 1 6 15.6 4.9
2 1 6 13.3 3.2
-3 -1 -6 428.66 22.7
-3 -1 -6 433.96 21.2
-3 -1 -6 374.86 25
3 1 6 439.56 22.8
-4 -1 -6 -0.2 4.6
-4 -1 -6 1.2 3.5
4 1 6 -2.9 3.7
4 1 6 -3.1 3.9
-5 -1 -6 268.77 15.7
-5 -1 -6 240.78 21.6
-5 -1 -6 242.78 24.1
8 -2 -6 181.38 14.6
8 -2 -6 171.38 16.3
8 -2 -6 166.88 17.9
-8 2 6 177.38 22.2
7 -2 -6 163.38 13.8
7 -2 -6 206.78 15.8
-7 2 6 176.28 18.6
6 -2 -6 228.38 21.2
6 -2 -6 151.68 18
6 -2 -6 165.98 16.5
-6 2 6 161.38 17.2
5 -2 -6 161.68 13.1
-5 2 6 156.28 15.7
-5 2 6 149.09 14.1
-5 2 6 168.78 17.8
4 -2 -6 454.55 26.5
4 -2 -6 495.25 23
-4 2 6 428.26 25.5
-4 2 6 463.65 28
-4 2 6 467.35 24.6
3 -2 -6 706.73 32.2
3 -2 -6 739.83 29.9
-3 2 6 754.02 34.9
-3 2 6 694.63 30.6
-3 2 6 713.73 32.1
-3 2 6 623.44 23.5
2 -2 -6 260.47 16.2
2 -2 -6 253.07 16.3
-2 2 6 268.47 12.9
-2 2 6 237.08 15.9
-2 2 6 244.98 17.3
1 -2 -6 237.18 15.6
1 -2 -6 237.18 15.4
-1 2 6 220.68 15.5
-1 2 6 222.88 9
0 -2 -6 72.39 10.3
0 -2 -6 86.79 9.3
0 2 6 73.79 9.1
0 2 6 65.99 8.9
0 2 6 68.59 6.3
-1 -2 -6 211.88 14.3
-1 -2 -6 232.28 16.7
1 2 6 230.58 16
1 2 6 222.08 14.4
1 2 6 215.78 13.2
-2 -2 -6 57.19 10.6
2 2 6 56.49 7.5
2 2 6 54.29 9.3
2 2 6 50.49 8
-3 -2 -6 191.98 16.4
-3 -2 -6 199.38 12.4
-3 -2 -6 180.38 18.4
3 2 6 210.38 16.1
3 2 6 177.88 12.1
-4 -2 -6 13.8 8.7
-4 -2 -6 10.1 7.3
-4 -2 -6 15.8 4.2
8 -3 -6 180.98 16.1
8 -3 -6 173.38 17.6
-8 3 6 184.58 33.2
7 -3 -6 5.2 4.6
7 -3 -6 11.9 6.4
-7 3 6 11.2 6.4
-7 3 6 4.1 5.3
6 -3 -6 555.34 33.6
6 -3 -6 516.15 31.1
6 -3 -6 558.84 27.3
-6 3 6 544.55 31.7
-6 3 6 574.94 33.2
-6 3 6 625.44 37.4
5 -3 -6 52.49 9.8
5 -3 -6 73.69 11.7
-5 3 6 73.59 12.9
-5 3 6 91.99 13
4 -3 -6 195.58 15.5
-4 3 6 211.38 19.3
-4 3 6 198.58 9.5
3 -3 -6 9.7 4.4
-3 3 6 9.2 3.8
-3 3 6 11.3 5.1
2 -3 -6 534.15 26.5
-2 3 6 588.44 23.1
-2 3 6 525.45 28.7
1 -3 -6 290.07 18.7
-1 3 6 272.67 19.1
-1 3 6 342.17 17.1
-1 3 6 300.07 19
0 -3 -6 186.38 15.6
0 3 6 175.68 14.2
0 3 6 184.08 14.8
0 3 6 174.48 9.7
-1 -3 -6 366.76 22.9
-1 -3 -6 343.47 20.5
1 3 6 340.47 19.8
1 3 6 377.26 19.3
-2 -3 -6 8.2 4.6
-2 -3 -6 21.4 9.3
2 3 6 7.2 3.8
2 3 6 10.5 4.4
2 3 6 1.9 3.9
-3 -3 -6 77.79 14.9
3 3 6 68.39 10.7
3 3 6 70.89 9.5
7 -4 -6 -2.4 4.9
-7 4 6 -5.9 5.7
-7 4 6 -2.4 5.8
6 -4 -6 142.39 15.4
-6 4 6 140.89 15.6
-6 4 6 126.79 16.8
-6 4 6 144.89 19
5 -4 -6 32.5 8.4
5 -4 -6 52.39 9.8
5 -4 -6 44.4 10.1
-5 4 6 40.7 4.9
-5 4 6 41.4 10.9
-5 4 6 49.7 11.3
-5 4 6 46.2 9.6
4 -4 -6 711.73 33.5
4 -4 -6 738.43 36.8
4 -4 -6 774.62 34.3
-4 4 6 752.82 35.7
-4 4 6 729.43 36.7
-4 4 6 749.82 28.2
-4 4 6 785.42 40.7
3 -4 -6 699.23 33.5
-3 4 6 824.22 42
-3 4 6 752.92 38.5
2 -4 -6 134.39 14
-2 4 6 131.19 22.3
-2 4 6 152.58 11.6
-2 4 6 114.89 13.8
1 -4 -6 458.45 25.4
1 -4 -6 537.85 27.6
-1 4 6 562.34 28.4
-1 4 6 534.35 29.7
0 -4 -6 137.39 15.3
0 -4 -6 148.69 14
0 4 6 144.99 14.6
0 4 6 159.88 20.9
0 4 6 149.88 14.5
-1 -4 -6 229.58 19.6
1 4 6 210.98 17.1
1 4 6 200.78 17.4
-2 -4 -6 9.1 7.8
2 4 6 5.8 4.9
7 -5 -6 22.9 7.7
-7 5 6 78.69 14.3
-7 5 6 37.4 11.9
6 -5 -6 298.37 22.5
-6 5 6 335.97 25.2
-6 5 6 313.87 13.7
5 -5 -6 337.97 23.1
-5 5 6 360.46 16.9
-5 5 6 293.57 23.7
-5 5 6 371.56 29
4 -5 -6 111.19 15
4 -5 -6 119.39 14.6
-4 5 6 63.59 12.5
-4 5 6 84.39 10.5
-4 5 6 123.19 16.6
3 -5 -6 134.19 15.5
-3 5 6 159.58 13.2
-3 5 6 154.28 17.5
2 -5 -6 329.17 22.9
-2 5 6 314.57 24.3
1 -5 -6 194.28 17.7
1 -5 -6 195.88 15
-1 5 6 195.38 18.6
-1 5 6 186.48 15.3
0 -5 -6 33.2 8.9
0 -5 -6 22.7 7.8
0 5 6 9.6 6.1
1 5 6 227.08 19.1
6 -6 -6 181.28 20.3
-6 6 6 268.87 27.5
-6 6 6 228.38 14.4
-6 6 6 257.87 21.5
5 -6 -6 -4.2 5.1
-5 6 6 -7.1 5.1
-5 6 6 3.2 5.3
-5 6 6 -8.1 5.9
4 -6 -6 146.79 22.1
-4 6 6 113.09 16.4
-4 6 6 179.68 20.6
3 -6 -6 54.99 12.2
3 -6 -6 33.4 9.3
-3 6 6 37.2 10.4
2 -6 -6 35.6 9.1
-2 6 6 68.79 14.7
-2 6 6 48.9 9.5
1 -6 -6 27.4 9.5
1 -6 -6 42.5 9.7
-1 6 6 29.7 8.9
0 9 -7 299.77 20.5
0 9 -7 304.57 18.5
0 -9 7 251.57 21.6
0 -9 7 304.67 20
-1 9 -7 -1.1 3.5
-1 9 -7 8.5 5.7
1 -9 7 11.8 6.4
1 -9 7 6.3 6.1
-2 9 -7 232.28 14.5
-2 9 -7 245.18 19.8
2 -9 7 213.08 19.6
2 -9 7 248.48 19.7
-3 9 -7 18.4 13.1
3 -9 7 11.5 6.4
3 -9 7 10.9 6.7
3 -9 7 32.5 13.3
-4 9 -7 211.38 20
-4 9 -7 169.88 19.2
4 -9 7 176.48 17.8
4 -9 7 174.48 19.9
2 8 -7 116.49 11.4
2 8 -7 118.69 21.8
-2 -8 7 103.69 8.8
-2 -8 7 107.19 17.2
1 8 -7 14.8 5.3
1 8 -7 20.5 6.1
1 8 -7 15.7 5.7
-1 -8 7 22.4 7.1
-1 -8 7 20.7 5.6
0 8 -7 256.97 18.3
0 8 -7 257.37 16.5
0 8 -7 240.88 17.6
0 -8 7 245.98 18.5
0 -8 7 248.18 17.9
-1 8 -7 -0.2 3.6
-1 8 -7 3 4
-1 8 -7 -1.2 2.9
1 -8 7 -4.5 3.6
1 -8 7 4.5 4.8
1 -8 7 -3.3 4.4
-2 8 -7 262.57 13.9
-2 8 -7 263.67 19.8
2 -8 7 252.37 18.2
2 -8 7 256.47 18.7
-3 8 -7 29.5 8.2
3 -8 7 8.4 5.5
3 -8 7 49.6 10.4
-4 8 -7 287.47 21
-4 8 -7 290.97 24
4 -8 7 273.27 21.8
4 -8 7 302.57 22.8
-5 8 -7 75.99 14.8
-5 8 -7 76.09 11.1
5 -8 7 64.49 11.6
3 7 -7 62.09 11.3
3 7 -7 65.29 9.9
3 7 -7 80.89 15.8
-3 -7 7 88.09 15.3
2 7 -7 300.27 19.9
2 7 -7 281.67 17.7
-2 -7 7 316.97 23.9
-2 -7 7 310.87 15.2
-2 -7 7 270.87 14.7
1 7 -7 38.1 8.2
1 7 -7 40.1 7.9
-1 -7 7 32 7.3
-1 -7 7 38.1 8.4
0 7 -7 593.44 28
0 7 -7 615.84 26.6
0 7 -7 563.14 27.2
0 -7 7 572.14 27.3
0 -7 7 575.74 25.9
-1 7 -7 36.1 7.6
-1 7 -7 23 5.9
-1 7 -7 35.1 6.5
1 -7 7 19.1 4.7
1 -7 7 31.3 7.7
1 -7 7 23.6 7.1
-2 7 -7 391.66 24
-2 7 -7 429.76 17.8
-2 7 -7 433.96 24.9
2 -7 7 436.46 23.3
2 -7 7 407.46 22.5
2 -7 7 419.76 18.5
-3 7 -7 64.49 10.4
-3 7 -7 61.79 11.2
3 -7 7 60.39 10.8
3 -7 7 62.19 7.1
3 -7 7 64.69 10.3
-4 7 -7 257.77 21.6
-4 7 -7 275.77 17
4 -7 7 252.47 20.6
5 -7 7 1.5 6.4
-6 7 -7 148.39 20.1
6 -7 7 146.89 12.5
6 -7 7 157.78 17.8
4 6 -7 180.98 20.7
4 6 -7 173.28 13
3 6 -7 46.1 9.4
3 6 -7 29 6.8
-3 -6 7 44.7 10.9
-3 -6 7 29.9 8.5
2 6 -7 668.03 30.8
2 6 -7 666.03 27.8
-2 -6 7 612.94 25.5
-2 -6 7 696.93 30
-2 -6 7 700.33 32.7
1 6 -7 15.6 5.3
1 6 -7 21.3 5.4
-1 -6 7 37.2 7.9
-1 -6 7 16.8 5.2
0 6 -7 283.67 16.3
0 6 -7 328.37 17.9
0 -6 7 310.47 17.7
0 -6 7 284.97 17
-1 6 -7 3.7 3.6
-1 6 -7 1.5 2.7
1 -6 7 2 3.5
1 -6 7 -1.8 3.1
1 -6 7 2.1 3.3
-2 6 -7 998.7 41.1
-2 6 -7 1117.29 44.6
-2 6 -7 1074.79 34.9
2 -6 7 1059.39 40.9
2 -6 7 1077.29 40.7
2 -6 7 1095.59 38
-3 6 -7 33.6 6.2
-3 6 -7 43.1 9.6
-3 6 -7 45.4 10.4
3 -6 7 24.3 6.7
3 -6 7 32.2 6
3 -6 7 26.4 5.9
-4 6 -7 260.87 21.3
4 -6 7 271.37 18.5
-5 6 -7 18.3 7.5
5 -6 7 7.5 4.5
5 -6 7 18.8 6.9
-6 6 -7 118.89 17.9
6 -6 7 144.39 15.4
5 5 -7 147.99 10.9
5 5 -7 167.38 16.7
-5 -5 7 146.99 24.2
4 5 -7 290.07 15
4 5 -7 279.07 20.1
4 5 -7 256.07 19.5
-4 -5 7 242.28 22
-4 -5 7 301.27 23.3
3 5 -7 245.28 17.5
3 5 -7 234.68 13.6
-3 -5 7 251.37 19.8
-3 -5 7 283.27 21.5
2 5 -7 143.99 10.6
2 5 -7 148.49 13
-2 -5 7 157.88 13.8
-2 -5 7 142.29 10.8
-2 -5 7 150.98 11.9
1 5 -7 158.08 11.3
1 5 -7 156.08 12.2
-1 -5 7 153.78 13.9
-1 -5 7 161.38 11.5
-1 -5 7 159.58 13.5
0 5 -7 1192.88 42.6
0 5 -7 1209.58 41.9
0 -5 7 1176.08 41.7
0 -5 7 1222.68 44.4
-1 5 -7 261.17 13.5
-1 5 -7 235.18 14.9
1 -5 7 250.37 15.3
1 -5 7 259.97 15.3
1 -5 7 249.68 13.8
-2 5 -7 46.3 7.8
-2 5 -7 46 6.2
2 -5 7 46.1 8
2 -5 7 47.1 7.6
-3 5 -7 60.09 10.5
3 -5 7 66.19 9.8
3 -5 7 61.29 9.1
-4 5 -7 215.08 19.7
4 -5 7 234.68 16.8
-5 5 -7 -2.5 5.2
5 -5 7 6.3 4.6
5 -5 7 6.5 5.9
-6 5 -7 90.99 16.8
6 -5 7 99.09 13.8
6 4 -7 20.6 6.7
6 4 -7 14.7 3.9
5 4 -7 186.58 10.6
5 4 -7 243.38 18.6
-5 -4 7 187.08 20.2
-5 -4 7 217.18 20.8
4 4 -7 112.29 12.5
4 4 -7 97.89 7.6
-4 -4 7 107.79 14.2
-4 -4 7 93.89 14
3 4 -7 400.26 16.4
3 4 -7 400.76 21.5
-3 -4 7 308.47 16.4
-3 -4 7 387.86 29.8
2 4 -7 478.35 19.8
2 4 -7 456.55 23.4
-2 -4 7 478.85 25.9
-2 -4 7 499.85 21.7
-2 -4 7 494.95 20.7
1 4 -7 434.96 19.2
1 4 -7 445.16 21.4
-1 -4 7 451.25 23.8
-1 -4 7 452.55 19.2
-1 -4 7 441.76 23.3
0 4 -7 74.09 8
0 4 -7 101.19 9.3
0 -4 7 80.39 7.9
0 -4 7 96.59 10
0 -4 7 96.99 9.5
-1 4 -7 571.94 25
-1 4 -7 633.24 23.6
1 -4 7 538.25 26.1
1 -4 7 591.54 24.8
-2 4 -7 938.51 30.9
-2 4 -7 893.81 36.4
2 -4 7 900.91 35.1
2 -4 7 919.11 34.9
-3 4 -7 12.2 4.9
-3 4 -7 20 6.6
3 -4 7 16.6 5.5
3 -4 7 15.2 5.5
-4 4 -7 678.53 34.1
-4 4 -7 600.94 34.2
4 -4 7 712.13 31.5
-5 4 -7 13.3 6.5
5 -4 7 2.2 4.9
5 -4 7 2.6 5
-6 4 -7 158.88 18.5
-6 4 -7 189.48 19.3
6 -4 7 190.78 18.3
6 3 -7 96.99 21
-6 -3 7 108.59 18
-6 -3 7 122.69 16.1
5 3 -7 390.26 24
5 3 -7 388.76 24.6
5 3 -7 424.96 30.4
-5 -3 7 446.86 29.2
-5 -3 7 417.66 26.3
4 3 -7 154.68 13.9
4 3 -7 142.59 7.4
-4 -3 7 131.79 9.9
-4 -3 7 149.09 15.6
-4 -3 7 139.99 14.7
3 3 -7 269.67 20.8
3 3 -7 264.07 24.2
3 3 -7 253.57 11.2
-3 -3 7 266.07 15
-3 -3 7 224.88 17.1
-3 -3 7 249.88 18.6
2 3 -7 690.83 32.8
2 3 -7 641.74 23.2
2 3 -7 614.94 28
-2 -3 7 681.23 26.9
-2 -3 7 665.13 23.6
-2 -3 7 639.84 30.6
1 3 -7 649.64 29.3
1 3 -7 639.94 23.8
-1 -3 7 616.84 23.2
-1 -3 7 649.04 28.6
-1 -3 7 628.14 26.3
0 3 -7 1239.18 43.7
0 3 -7 1234.68 41.7
0 -3 7 1273.37 41.9
0 -3 7 1294.67 44.9
-1 3 -7 275.57 16.2
1 -3 7 279.87 15.3
1 -3 7 295.97 17.4
-2 3 -7 1488.75 52.39
-2 3 -7 1378.76 44.9
2 -3 7 1502.65 49.8
2 -3 7 1320.27 50.19
-3 3 -7 203.98 16.8
-3 3 -7 205.78 17.8
-3 3 -7 199.68 10.9
3 -3 7 220.08 15.2
-4 3 -7 343.17 23.5
4 -3 7 357.46 21.4
4 -3 7 355.96 21.8
-5 3 -7 7 6.2
-5 3 -7 -1.9 4.5
5 -3 7 -0.5 5.1
-6 3 -7 227.18 22.5
-6 3 -7 238.58 21.3
6 -3 7 266.37 21.3
-7 -2 7 220.78 19.4
-7 -2 7 229.18 24.4
6 2 -7 9.7 6.1
-6 -2 7 5.6 5
-6 -2 7 12.8 7
5 2 -7 205.28 21.2
5 2 -7 223.98 17.6
-5 -2 7 205.98 19.3
-5 -2 7 219.38 13.3
-5 -2 7 243.18 17.5
4 2 -7 333.57 20.5
-4 -2 7 316.97 22.6
-4 -2 7 365.56 20.3
-4 -2 7 325.17 17.7
3 2 -7 502.95 28.6
-3 -2 7 546.75 23.8
-3 -2 7 481.75 24.1
-3 -2 7 551.74 28.2
2 2 -7 343.27 21.6
-2 -2 7 341.17 20.4
-2 -2 7 345.77 13.4
1 2 -7 4.6 2.8
1 2 -7 9.2 3.3
-1 -2 7 12.4 3.8
-1 -2 7 10 4.2
-1 -2 7 6.9 2.5
0 2 -7 1120.49 38.5
0 2 -7 1089.19 37.5
0 -2 7 1099.19 39.8
0 -2 7 1053.79 36.8
-1 2 -7 1325.37 44.6
-1 2 -7 1377.06 47.8
1 -2 7 1300.57 47
1 -2 7 1314.77 45.2
-2 2 -7 215.08 15.8
-2 2 -7 230.58 12.7
2 -2 7 212.08 14.3
-3 2 -7 1.1 3.8
-3 2 -7 5.3 4.4
-3 2 -7 4.9 3.4
3 -2 7 5.4 3.8
3 -2 7 7 4.3
-4 2 -7 157.08 16
-4 2 -7 197.38 17.9
4 -2 7 182.68 15.5
4 -2 7 159.18 14.9
4 -2 7 185.98 16.4
-5 2 -7 15.1 6.7
-5 2 -7 23 8.4
5 -2 7 17.1 7.2
-6 2 -7 68.29 12.7
-7 -1 7 360.06 27.6
-7 -1 7 303.37 21.2
6 1 -7 11.2 12.4
6 1 -7 2.8 5.3
-6 -1 7 -3.2 3.6
-6 -1 7 3.8 4.6
-6 -1 7 5.6 6.4
5 1 -7 538.75 28.1
5 1 -7 528.95 21.8
5 1 -7 473.35 31.2
-5 -1 7 553.64 24.9
-5 -1 7 501.05 24.5
-5 -1 7 501.45 30.5
4 1 -7 23.9 7
4 1 -7 29.3 6.6
-4 -1 7 31.8 6.8
-4 -1 7 32.5 10
-4 -1 7 21 6.5
3 1 -7 608.14 25.2
3 1 -7 604.34 30.8
-3 -1 7 589.94 26.5
-3 -1 7 611.84 24.8
-3 -1 7 599.34 29.7
2 1 -7 290.97 18.3
2 1 -7 310.67 13.4
-2 -1 7 292.37 11.6
-2 -1 7 300.07 18.5
-2 -1 7 324.87 17.3
1 1 -7 1405.76 50.09
1 1 -7 1478.75 47.1
-1 -1 7 1453.85 45.6
-1 -1 7 1514.45 50.39
0 1 -7 37.4 5
0 1 -7 39.4 6.6
0 -1 7 37.5 5.8
0 -1 7 31.9 7.1
-1 1 -7 167.08 11.9
-1 1 -7 164.68 12.9
1 -1 7 156.08 11.2
-2 1 -7 40.6 8.4
-2 1 -7 40.1 6.4
2 -1 7 35.6 7.7
2 -1 7 29.9 7
-3 1 -7 147.29 14.9
-3 1 -7 156.78 12
3 -1 7 128.29 12.7
3 -1 7 143.69 18.4
-4 1 -7 198.58 18.8
-4 1 -7 185.38 19.2
-4 1 -7 159.08 13.8
4 -1 7 203.98 16.4
4 -1 7 162.28 16
4 -1 7 199.08 15.9
-5 1 -7 23.1 7.4
-5 1 -7 15.6 6.3
-5 1 -7 22.1 8.8
5 -1 7 28.3 9.2
7 0 -7 207.18 12.9
7 0 -7 198.18 18.1
-7 0 7 172.88 19.3
-7 0 7 164.38 14.7
6 0 -7 22.5 8.1
6 0 -7 7.1 3.8
6 0 -7 21.6 6.5
-6 0 7 9.8 7
-6 0 7 7.7 4.4
-6 0 7 16.1 5.5
5 0 -7 474.15 38.3
5 0 -7 564.74 23.4
5 0 -7 537.15 21.4
-5 0 7 457.75 29
-5 0 7 535.65 22.3
-5 0 7 505.45 26.2
4 0 -7 4.1 3.2
4 0 -7 1.7 4.2
-4 0 7 2.3 3.8
-4 0 7 -0.8 2.2
-4 0 7 3.6 4.3
3 0 -7 483.25 22.6
3 0 -7 523.05 27.4
-3 0 7 471.45 18.5
-3 0 7 490.55 26.1
-3 0 7 498.55 24.2
2 0 -7 2 3.4
2 0 -7 4.4 3
-2 0 7 6.3 3.5
-2 0 7 2.9 3.5
-2 0 7 4.1 2.1
1 0 -7 562.54 23.8
1 0 -7 512.55 24.4
-1 0 7 520.25 20.7
-1 0 7 531.15 24.5
0 0 -7 74.99 8.8
0 0 -7 77.89 8.9
0 0 7 77.39 7.9
-1 0 -7 146.79 11.3
-1 0 -7 143.39 12.4
1 0 7 135.99 10.9
-2 0 -7 654.43 32.9
-2 0 -7 720.33 29.4
2 0 7 711.33 30.9
2 0 7 771.82 32.1
-3 0 -7 134.29 12.4
-3 0 -7 133.39 13.5
-3 0 -7 142.09 15.1
3 0 7 124.49 12.7
3 0 7 115.49 13.2
-4 0 -7 206.98 15.8
-4 0 -7 197.28 19.6
4 0 7 191.08 17.5
4 0 7 223.58 18.1
-5 0 -7 1 5.8
-5 0 -7 -3 6.1
5 0 7 -5.6 7.4
7 -1 -7 174.98 17.3
7 -1 -7 182.78 19.4
7 -1 -7 182.58 14.2
-7 1 7 203.68 20.5
6 -1 -7 80.69 15
6 -1 -7 77.99 9.8
6 -1 -7 70.29 9.4
-6 1 7 82.59 13.8
5 -1 -7 337.47 24.9
5 -1 -7 318.77 18
-5 1 7 309.27 13.7
-5 1 7 315.37 21
-5 1 7 330.67 23.9
4 -1 -7 8.7 4.1
4 -1 -7 9.7 4.8
-4 1 7 5.9 4.4
-4 1 7 1.3 3.2
3 -1 -7 768.02 31.7
3 -1 -7 800.62 35.6
-3 1 7 775.92 33.5
-3 1 7 722.93 35.7
-3 1 7 784.72 39.1
2 -1 -7 137.69 12.1
2 -1 -7 158.48 12.8
-2 1 7 151.38 13.5
-2 1 7 156.88 12.9
-2 1 7 135.39 8.5
1 -1 -7 213.68 14.8
-1 1 7 194.78 14.5
-1 1 7 206.18 10.2
0 -1 -7 544.35 25.9
0 -1 -7 554.14 25.6
0 1 7 582.04 22.5
0 1 7 584.34 25
-1 -1 -7 449.16 24.7
-1 -1 -7 460.65 22.7
1 1 7 463.65 24.6
1 1 7 460.85 24
1 1 7 478.65 20.6
-2 -1 -7 124.29 13.9
2 1 7 117.19 12.1
2 1 7 100.29 10.6
-3 -1 -7 49.6 12.4
-3 -1 -7 42.1 9.8
-3 -1 -7 43.1 8.4
3 1 7 51.79 9.6
3 1 7 38.7 9.5
-4 -1 -7 46.2 9.1
-4 -1 -7 37.4 9
-4 -1 -7 20.2 7.9
7 -2 -7 342.07 20.6
7 -2 -7 341.47 20.6
-7 2 7 344.57 24.6
-7 2 7 352.36 26.9
6 -2 -7 -1.4 4
-6 2 7 -7.9 4.1
-6 2 7 2.6 5.7
5 -2 -7 502.75 25.5
5 -2 -7 588.54 35.4
-5 2 7 580.14 33.1
4 -2 -7 9.6 4
4 -2 -7 1.9 2.6
-4 2 7 9.7 5.3
-4 2 7 6.6 4.6
3 -2 -7 651.13 29.3
3 -2 -7 723.63 32.5
-3 2 7 657.33 32.2
-3 2 7 549.74 22.7
-3 2 7 696.33 34.3
2 -2 -7 76.49 10.5
-2 2 7 75.49 7.7
-2 2 7 66.69 10.7
1 -2 -7 989.3 40.6
-1 2 7 994.9 30.5
-1 2 7 1030.5 41
0 -2 -7 49.4 10
0 2 7 51.19 6
0 2 7 50.39 8.4
-1 -2 -7 341.47 22.2
1 2 7 312.87 20.5
1 2 7 325.77 17.9
1 2 7 350.16 17.8
-2 -2 -7 17.2 7.7
-2 -2 -7 21.6 6.2
2 2 7 11.9 4
2 2 7 18.5 6
2 2 7 19.6 5.6
-3 -2 -7 311.67 17.4
-3 -2 -7 327.57 25.7
3 2 7 306.87 19.9
7 -3 -7 183.78 16.9
7 -3 -7 188.18 16.7
-7 3 7 165.18 20.7
6 -3 -7 22.4 6.4
-6 3 7 29.7 9.7
-6 3 7 10.8 6.4
-6 3 7 29.6 9.4
5 -3 -7 667.83 32.2
5 -3 -7 804.02 38.8
-5 3 7 682.93 35.2
-5 3 7 722.63 40.7
-5 3 7 691.83 38
4 -3 -7 5.5 3.7
4 -3 -7 -2.5 4
-4 3 7 0.6 3.5
-4 3 7 10 4.8
-4 3 7 4.4 5.8
-4 3 7 10.5 2.9
3 -3 -7 490.85 25.4
-3 3 7 428.46 25.3
-3 3 7 442.76 28.1
-3 3 7 457.15 20.3
2 -3 -7 23 6.8
-2 3 7 15.3 5.4
-2 3 7 20.5 4.8
1 -3 -7 259.67 17.9
1 -3 -7 261.27 19.2
-1 3 7 239.28 18.2
-1 3 7 263.37 19
-1 3 7 250.07 15.5
0 -3 -7 8.7 5.3
0 -3 -7 5.5 4.3
0 3 7 2.1 3.9
0 3 7 3.2 2.4
0 3 7 4.6 4
-1 -3 -7 216.88 19.7
1 3 7 241.98 16.9
1 3 7 236.48 13.9
-2 -3 -7 69.59 13.5
2 3 7 67.99 10.1
7 -4 -7 162.78 18
-7 4 7 162.58 22.5
6 -4 -7 7 5
-6 4 7 -0.1 6.3
5 -4 -7 25.4 7.8
-5 4 7 5 5.9
-5 4 7 25.8 10
4 -4 -7 21.8 6.8
-4 4 7 23 7
-4 4 7 18.1 7.7
-4 4 7 16.9 4.9
3 -4 -7 124.79 14.6
-3 4 7 135.59 11.9
-3 4 7 123.89 16.9
2 -4 -7 6.4 4.6
-2 4 7 7.7 4.4
-2 4 7 9 4.1
1 -4 -7 173.18 17.5
-1 4 7 202.28 17.7
-1 4 7 200.18 15.5
0 -4 -7 23.2 6.7
0 4 7 41.6 9.8
0 4 7 23.5 6.8
-1 -4 -7 36.1 11.7
1 4 7 27 8.5
6 -5 -7 144.29 18
-6 5 7 152.68 21.5
-6 5 7 124.39 18
5 -5 -7 213.08 19.7
-5 5 7 207.78 30.5
-5 5 7 165.98 19.9
-5 5 7 220.68 12.9
4 -5 -7 8.7 5.9
-4 5 7 1.9 7
-4 5 7 5.6 5.3
-4 5 7 8.2 7.3
3 -5 -7 237.38 20.6
3 -5 -7 225.98 19.9
-3 5 7 248.08 22.7
2 -5 -7 2.8 6.8
2 -5 -7 13 6.4
-2 5 7 -1.1 5.2
-2 5 7 5 5.5
1 -5 -7 110.49 15.8
-1 5 7 105.99 16
-1 9 -8 24.1 6
-1 9 -8 32.9 9.2
1 -9 8 13.1 5.9
1 -9 8 19.2 7.6
1 -9 8 37.6 8.8
-2 9 -8 6.9 4.1
-2 9 -8 13 6.6
2 -9 8 11.4 4.9
2 -9 8 7.9 5.7
2 -9 8 10 6.4
-3 9 -8 110.49 15.8
3 -9 8 87.49 16.2
3 -9 8 77.29 13.2
3 -9 8 118.19 15.7
2 8 -8 250.87 18.3
2 8 -8 279.27 20.2
1 8 -8 17.2 5.9
1 8 -8 14.9 5.6
-1 -8 8 25.1 6.3
-1 -8 8 12.1 5.9
-1 -8 8 16.6 5.9
0 8 -8 140.29 12.7
0 8 -8 95.69 12.5
0 -8 8 125.59 13.6
0 -8 8 153.78 14.7
-1 8 -8 132.29 14.1
-1 8 -8 129.69 10.7
1 -8 8 154.98 15.2
1 -8 8 122.19 12.5
1 -8 8 129.49 11
-2 8 -8 146.49 15.9
-2 8 -8 135.49 10.1
2 -8 8 115.29 13.8
2 -8 8 137.89 13.9
2 -8 8 118.69 9.5
-3 8 -8 92.19 21.5
3 -8 8 105.79 15
-4 8 -8 74.59 11.5
-4 8 -8 65.39 13.7
4 -8 8 69.49 13.4
4 -8 8 62.79 12.1
3 7 -8 -2.3 4.1
3 7 -8 11.4 6.1
-3 -7 8 7.2 8.2
2 7 -8 166.98 15.1
2 7 -8 132.09 12.3
-2 -7 8 124.69 13.7
-2 -7 8 126.39 11.3
-2 -7 8 161.98 12.2
-2 -7 8 159.68 16
1 7 -8 13.1 5.1
1 7 -8 13.8 4.7
-1 -7 8 26.7 7.1
-1 -7 8 15.2 4.4
-1 -7 8 17.1 6.1
0 7 -8 157.58 13.8
0 -7 8 162.98 13.5
0 -7 8 159.98 13.7
-1 7 -8 111.19 9.7
-1 7 -8 99.89 11.6
-1 7 -8 125.49 12.9
1 -7 8 100.39 10.3
1 -7 8 120.19 12.3
1 -7 8 120.39 11.2
-2 7 -8 265.17 18.6
-2 7 -8 271.97 13.5
-2 7 -8 291.27 21
2 -7 8 261.47 15.6
2 -7 8 253.47 18.3
2 -7 8 288.37 17.5
-3 7 -8 175.98 17.5
3 -7 8 214.18 13.2
3 -7 8 209.68 16.7
-4 7 -8 7.3 9.3
4 -7 8 24.2 8.3
4 -7 8 21.1 5.1
4 -7 8 23.7 6.6
-5 7 -8 225.08 22.7
5 -7 8 235.28 19.5
4 6 -8 146.99 11.4
4 6 -8 120.29 14.8
-4 -6 8 140.69 19.1
3 6 -8 -4 2.8
3 6 -8 -4.2 4.1
-3 -6 8 -6.8 4.8
-3 -6 8 1.5 5.9
-3 -6 8 -12.6 6.2
2 6 -8 387.56 22.3
2 6 -8 355.26 19
-2 -6 8 320.87 20.7
-2 -6 8 415.76 21
-2 -6 8 368.46 23.4
1 6 -8 154.68 12.8
1 6 -8 144.89 11.8
-1 -6 8 147.39 12.4
-1 -6 8 138.89 12.5
-1 -6 8 160.48 14.3
0 6 -8 367.96 20.2
0 6 -8 376.16 19.5
0 -6 8 370.46 21
0 -6 8 347.27 26.8
0 -6 8 357.26 20.8
-1 6 -8 283.67 17.8
-1 6 -8 280.77 15.2
1 -6 8 253.97 16.6
1 -6 8 290.17 15.6
1 -6 8 296.47 17.8
-2 6 -8 123.29 12.6
-2 6 -8 139.39 9
-2 6 -8 143.69 14.2
2 -6 8 142.79 13
2 -6 8 139.69 12.2
2 -6 8 121.69 10.8
-3 6 -8 161.28 16.9
3 -6 8 182.88 15.3
-4 6 -8 125.79 16.7
4 -6 8 136.99 14.2
4 -6 8 129.49 14.9
-5 6 -8 97.29 17
5 -6 8 97.59 13.3
5 5 -8 0.1 5.1
5 5 -8 -1.4 3.4
-5 -5 8 -5.8 6.1
-5 -5 8 -2.6 8.3
4 5 -8 492.75 27.9
4 5 -8 505.85 27.9
-4 -5 8 566.74 32.7
-4 -5 8 423.66 30.4
3 5 -8 41.7 7
3 5 -8 48.7 9.5
-3 -5 8 61.39 12.4
-3 -5 8 28.5 7
2 5 -8 267.87 15.1
2 5 -8 301.87 18.7
-2 -5 8 261.37 16.5
-2 -5 8 329.07 16.9
-2 -5 8 270.77 20.3
1 5 -8 133.59 12
1 5 -8 137.59 10.7
-1 -5 8 129.99 13.5
-1 -5 8 124.09 10.4
-1 -5 8 146.29 12.7
0 5 -8 950.9 35.8
0 5 -8 939.41 36.1
0 -5 8 932.61 35.4
0 -5 8 929.11 37.9
0 -5 8 981.9 39.1
-1 5 -8 91.79 9.8
-1 5 -8 92.69 8.4
1 -5 8 102.29 10.6
1 -5 8 83.59 9.9
-2 5 -8 365.96 16.3
2 -5 8 392.36 21.1
2 -5 8 421.26 20.6
-3 5 -8 232.38 19.6
3 -5 8 216.78 15.9
-4 5 -8 156.98 18.3
4 -5 8 193.38 16.8
4 -5 8 184.08 15.9
-5 5 -8 45.1 13.6
5 -5 8 26.4 7.8
5 4 -8 1.9 2.3
5 4 -8 -1.5 8.6
-5 -4 8 5.6 7.2
-5 -4 8 3 5.5
4 4 -8 150.98 8.8
4 4 -8 150.48 18.5
4 4 -8 153.48 14.3
-4 -4 8 129.59 16.7
-4 -4 8 171.38 18.3
-4 -4 8 151.78 11
3 4 -8 8.5 2.9
3 4 -8 6.3 3.8
-3 -4 8 2.3 3.3
-3 -4 8 7.3 5.3
-3 -4 8 6.2 5.2
2 4 -8 1282.37 47.5
2 4 -8 1309.87 53.49
2 4 -8 1254.97 41.6
-2 -4 8 1240.78 65.49
-2 -4 8 1181.98 44.8
-2 -4 8 1303.87 42.2
1 4 -8 11.6 4.8
1 4 -8 5.9 3.6
1 4 -8 7.1 3.3
-1 -4 8 6.3 3.4
-1 -4 8 7.7 4.1
-1 -4 8 4.4 3.4
0 4 -8 62.49 7.9
0 4 -8 74.99 8.9
0 -4 8 58.39 9.3
0 -4 8 66.99 9.4
0 -4 8 75.59 8.1
-1 4 -8 27 6.8
-1 4 -8 33.1 5.2
-1 4 -8 33.2 6.2
1 -4 8 38.9 7.3
-2 4 -8 178.38 11.1
-2 4 -8 177.48 14.1
2 -4 8 176.28 13.5
2 -4 8 174.48 14.8
-3 4 -8 3.6 4.7
-3 4 -8 12.2 6.2
3 -4 8 3.7 4.1
3 -4 8 0 2.6
-4 4 -8 51.79 12.2
-4 4 -8 73.89 11.7
4 -4 8 60.99 10.7
-5 4 -8 152.18 19
-5 4 -8 176.68 18.5
5 -4 8 162.78 16.1
6 3 -8 109.59 14.3
-6 -3 8 63.69 14.3
-6 -3 8 92.49 17.1
5 3 -8 20.1 7
-5 -3 8 38 9.5
-5 -3 8 30.7 8.6
-5 -3 8 25.8 6.6
4 3 -8 416.66 40.7
4 3 -8 459.55 25.5
-4 -3 8 422.16 29.9
-4 -3 8 380.46 20.9
-4 -3 8 508.85 29.5
3 3 -8 54.39 10.9
3 3 -8 63.29 9.3
-3 -3 8 35.1 8.1
-3 -3 8 53.39 10.4
-3 -3 8 48.4 8.3
2 3 -8 9.8 4.9
2 3 -8 14.1 4.8
-2 -3 8 16.5 4.7
-2 -3 8 13 3
1 3 -8 209.78 15
-1 -3 8 172.28 13.3
-1 -3 8 190.08 10.8
-1 -3 8 167.08 14.3
0 3 -8 453.75 20.4
0 3 -8 418.76 20.3
0 -3 8 420.66 19.4
0 -3 8 445.96 22.4
-1 3 -8 33.3 7.5
1 -3 8 35.6 7.1
-2 3 -8 355.06 21.6
-2 3 -8 359.56 16.9
2 -3 8 314.67 19.3
-3 3 -8 93.19 12.3
-3 3 -8 94.99 8.4
-3 3 -8 107.59 14.4
3 -3 8 94.69 11.6
3 -3 8 99.29 12.2
-4 3 -8 109.29 14.4
-4 3 -8 77.39 13.8
4 -3 8 130.39 15.1
4 -3 8 141.89 14.4
-5 3 -8 15.3 9.3
-5 3 -8 11 6.6
5 -3 8 10.9 6.8
6 2 -8 183.98 20.6
-6 -2 8 161.08 22.8
-6 -2 8 146.69 15.5
-6 -2 8 138.89 11.5
5 2 -8 106.19 16.3
5 2 -8 125.69 13.9
-5 -2 8 111.89 15.4
-5 -2 8 94.49 14.9
-5 -2 8 112.59 12.7
4 2 -8 262.07 18.9
-4 -2 8 260.57 20.4
-4 -2 8 229.18 16.8
-4 -2 8 241.48 17.2
3 2 -8 285.07 20.7
-3 -2 8 225.08 16.3
-3 -2 8 291.37 17.8
-3 -2 8 290.97 20.7
2 2 -8 776.52 36.1
-2 -2 8 843.72 27.1
-2 -2 8 851.91 34
-2 -2 8 799.12 37.2
1 2 -8 340.57 18.8
1 2 -8 325.17 16
-1 -2 8 328.07 19.8
-1 -2 8 336.87 15.1
-1 -2 8 318.87 18.5
0 2 -8 1178.58 42.5
0 2 -8 1153.08 39.6
0 -2 8 1191.18 40.6
0 -2 8 1198.98 44.2
-1 2 -8 0.7 3.2
-1 2 -8 8.5 3.6
1 -2 8 6.6 3.8
-2 2 -8 472.15 29.2
-2 2 -8 484.65 21.4
2 -2 8 463.85 23.7
-3 2 -8 38.9 9.8
-3 2 -8 31.5 7.1
3 -2 8 41 8.9
3 -2 8 40.3 9.3
3 -2 8 25.5 6.7
-4 2 -8 230.48 21.3
-4 2 -8 320.97 23.9
4 -2 8 289.77 20.5
4 -2 8 296.17 30.8
-5 2 -8 13.4 7.3
-5 2 -8 9.3 6.6
5 -2 8 13.8 6.6
7 1 -8 39.9 10
-7 -1 8 33 8
-7 -1 8 41.3 10.9
6 1 -8 345.27 23.4
-6 -1 8 299.97 19.3
-6 -1 8 280.17 18.2
-6 -1 8 295.37 24.5
5 1 -8 124.19 16.1
-5 -1 8 116.49 14.9
-5 -1 8 98.59 12.6
-5 -1 8 113.79 10.9
-4 -1 8 414.66 26.6
-4 -1 8 439.16 20.5
-4 -1 8 430.36 24
3 1 -8 141.99 14.8
-3 -1 8 141.89 11
-3 -1 8 153.88 13.6
-3 -1 8 135.19 14.3
2 1 -8 1415.56 53.09
2 1 -8 1409.46 45.6
-2 -1 8 1364.66 53.29
-2 -1 8 1495.95 51.59
-2 -1 8 1427.26 43
1 1 -8 339.87 18
1 1 -8 331.57 17
-1 -1 8 334.47 19
-1 -1 8 304.97 15
0 1 -8 583.34 26.5
0 1 -8 592.34 26.5
0 -1 8 582.44 24.5
-1 1 -8 62.99 9.5
-1 1 -8 56.39 8.1
1 -1 8 59.49 8.2
-2 1 -8 445.76 21.7
-2 1 -8 462.65 25.7
2 -1 8 448.46 23.6
2 -1 8 462.65 24.6
2 -1 8 426.56 23
-3 1 -8 -2.6 3.1
-3 1 -8 2.4 5.2
3 -1 8 -2 3.9
3 -1 8 -0.7 3.5
-4 1 -8 119.49 14.4
-4 1 -8 90.59 12.7
4 -1 8 138.79 23.8
7 0 -8 116.59 15.6
7 0 -8 102.69 11.1
-7 0 8 106.99 11.8
-7 0 8 112.99 18
6 0 -8 102.29 11.7
-6 0 8 107.69 10.2
-6 0 8 129.19 17.6
5 0 -8 47 9.5
5 0 -8 45.6 12
-5 0 8 24.7 7.3
-5 0 8 53.99 11.9
-5 0 8 46.4 6.7
4 0 -8 796.22 33.9
-4 0 8 662.63 24.3
-4 0 8 718.23 36.1
-4 0 8 533.45 29.9
3 0 -8 427.56 31.1
3 0 -8 449.46 25.9
-3 0 8 452.65 18.3
-3 0 8 413.26 25.1
2 0 -8 227.98 16
2 0 -8 213.18 15.9
-2 0 8 213.88 16.8
-2 0 8 222.48 10.9
1 0 -8 2.1 3.6
1 0 -8 -1.9 2
-1 0 8 2.6 2.1
0 0 -8 116.19 11.3
0 0 -8 119.69 11.5
0 0 8 124.89 9.9
0 0 8 131.19 10.6
-1 0 -8 14.4 6.2
-1 0 -8 5.8 2.8
1 0 8 14.2 7.4
1 0 8 15 6.1
1 0 8 10.8 4.3
-2 0 -8 125.89 14.2
2 0 8 120.29 12
2 0 8 113.69 12.5
2 0 8 140.69 14.2
-3 0 -8 -7.4 5.1
-3 0 -8 -7.8 3.6
3 0 8 -0.9 4.4
3 0 8 1.6 4.3
-4 0 -8 157.48 16
-4 0 -8 137.69 18
-4 0 -8 134.09 15.5
4 0 8 146.79 17
7 -1 -8 106.79 11.8
7 -1 -8 125.89 11.9
-7 1 8 157.88 19.6
-7 1 8 104.49 17.7
6 -1 -8 144.19 13.2
6 -1 -8 142.59 12.2
-6 1 8 110.19 16.6
-6 1 8 103.59 16.5
5 -1 -8 167.98 18.7
5 -1 -8 174.18 14.8
-5 1 8 185.08 20.2
-5 1 8 151.38 17.8
4 -1 -8 34.1 8.3
-4 1 8 36.7 8.9
3 -1 -8 99.49 12
3 -1 -8 125.89 13.4
-3 1 8 92.29 13.1
-3 1 8 115.39 6.1
2 -1 -8 79.09 10.5
2 -1 -8 60.89 9.9
-2 1 8 68.69 6.8
-2 1 8 55.29 9.6
1 -1 -8 14.8 5.9
-1 1 8 22.2 4.8
-1 1 8 18.1 3.7
-1 1 8 18.9 5.7
0 -1 -8 440.26 24.4
0 -1 -8 515.55 35.3
0 1 8 468.25 22.5
0 1 8 479.55 20.5
0 1 8 461.75 30.4
-1 -1 -8 17.7 10
-1 -1 -8 16.5 5.9
1 1 8 15.2 5.2
1 1 8 20.6 5.3
-2 -1 -8 294.97 19
-2 -1 -8 270.27 21.6
-3 -1 -8 30.4 7.6
-3 -1 -8 29.6 10.4
-3 -1 -8 19.4 6.1
3 1 8 27.8 7
7 -2 -8 73.19 12.4
7 -2 -8 87.39 12.2
-7 2 8 75.99 16.1
6 -2 -8 8.2 5.5
-6 2 8 15.6 8.7
-6 2 8 13 6.5
5 -2 -8 140.49 14.5
5 -2 -8 147.09 16.9
-5 2 8 192.18 19.5
-5 2 8 176.28 17.6
4 -2 -8 128.69 15.3
4 -2 -8 117.99 13.2
-4 2 8 110.29 13.8
-4 2 8 118.89 15.3
-4 2 8 116.19 15.5
3 -2 -8 2.1 4.6
-3 2 8 9.8 6
-3 2 8 6.4 3.4
-3 2 8 2.4 5.3
-3 2 8 15.9 3.5
-3 2 8 9.1 5.4
2 -2 -8 630.44 30
2 -2 -8 526.65 28.5
-2 2 8 536.45 29.6
-2 2 8 612.14 24.5
-2 2 8 557.94 29.3
1 -2 -8 89.69 12.7
1 -2 -8 89.59 11.2
-1 2 8 95.59 11.5
-1 2 8 93.79 12.1
0 -2 -8 253.97 18.9
0 -2 -8 280.97 18.5
0 2 8 250.37 12.9
0 2 8 256.87 17.3
-1 -2 -8 4.2 7.4
1 2 8 8.3 4.5
1 2 8 3.4 3.7
-2 -2 -8 93.79 15.3
6 -3 -8 12.9 6.1
5 -3 -8 114.29 15
-5 3 8 84.69 16.6
-5 3 8 116.49 17.2
4 -3 -8 169.78 16.9
-4 3 8 185.18 19.8
-4 3 8 165.68 18.9
-4 3 8 176.98 9.1
3 -3 -8 342.77 23
-3 3 8 361.46 25.6
-3 3 8 341.87 17.7
2 -3 -8 124.49 15.2
-2 3 8 119.69 14.5
-2 3 8 151.68 12
1 -3 -8 62.59 12.9
-1 3 8 61.49 10.3
0 -3 -8 51.09 15
0 -3 -8 48.3 12.3
0 3 8 54.59 9.3
0 3 8 71.99 11
-1 -3 -8 116.99 16.9
1 3 8 136.99 13
1 3 8 107.89 10.1
5 -4 -8 261.87 21.7
-5 4 8 284.87 33.3
4 -4 -8 82.49 13.6
-4 4 8 41.2 8.1
-4 4 8 71.99 15
-4 4 8 69.09 14.8
3 -4 -8 120.79 15.4
-3 4 8 147.19 18.1
-3 4 8 133.89 12.7
2 -4 -8 9.4 5.9
-2 4 8 42.6 10.9
1 -4 -8 151.38 18.8
-1 4 8 170.88 16.9
-1 4 8 163.68 14.7
1 8 -9 85.89 11.9
1 8 -9 68.49 12.1
-1 -8 9 82.09 12.5
-1 -8 9 105.79 13.5
0 8 -9 9 5
0 8 -9 21.4 8
0 -8 9 12.8 5.7
0 -8 9 11.9 5.6
0 -8 9 5.6 5.3
-1 8 -9 196.48 18.4
1 -8 9 230.48 15.4
1 -8 9 197.18 17.3
-2 8 -9 -2.6 4.9
-2 8 -9 -3.9 3
2 -8 9 -2.1 4.1
2 -8 9 -5.9 5.2
-3 8 -9 195.18 16.5
-3 8 -9 186.88 19.5
3 -8 9 249.28 23.6
3 -8 9 203.38 18.2
3 -8 9 196.58 13.1
2 7 -9 26.9 9.3
2 7 -9 20.9 7.1
-2 -7 9 6.9 5.3
-2 -7 9 9.9 6.8
-2 -7 9 5.8 5.8
1 7 -9 260.17 17.9
-1 -7 9 259.57 17.3
-1 -7 9 235.98 18.7
0 7 -9 18.4 5
0 7 -9 17 6.1
0 -7 9 12.5 5.7
0 -7 9 13.1 5.2
0 -7 9 9.5 5.4
-1 7 -9 148.69 11.7
-1 7 -9 127.69 13.2
-1 7 -9 153.68 15.9
1 -7 9 151.48 14.5
1 -7 9 135.59 15.6
1 -7 9 146.19 12.7
-2 7 -9 -1.6 2.7
-2 7 -9 -3.6 4.4
2 -7 9 -2 4.7
2 -7 9 -2.1 3.6
2 -7 9 -1.6 4.8
-3 7 -9 49.99 11.1
3 -7 9 48.9 9
3 -7 9 56.19 11.3
-4 7 -9 17.3 8.4
4 -7 9 21 7.7
4 -7 9 10.5 5.4
3 6 -9 89.19 13.1
3 6 -9 59.49 8.1
-3 -6 9 84.69 19.7
-3 -6 9 68.99 14.3
-3 -6 9 47.9 9.6
2 6 -9 18.5 5
2 6 -9 21 6
-2 -6 9 46.1 10.7
-2 -6 9 21.6 5.7
-2 -6 9 23.6 6.1
1 6 -9 131.89 12.4
1 6 -9 126.09 11.3
-1 -6 9 132.29 14.1
0 6 -9 104.69 11.1
0 6 -9 112.09 11
0 -6 9 116.79 11.4
0 -6 9 105.59 12.6
-1 6 -9 175.08 17
-1 6 -9 201.88 13
1 -6 9 204.48 16.8
1 -6 9 211.98 15.9
1 -6 9 181.58 14.7
-2 6 -9 -3.5 2.4
-2 6 -9 -1.5 4.6
2 -6 9 4.2 4.4
2 -6 9 0.5 4.1
-3 6 -9 240.28 22.8
3 -6 9 263.87 18.8
-4 6 -9 13.6 8.1
4 -6 9 13.9 5.8
4 -6 9 5.4 8.3
4 5 -9 88.79 13
4 5 -9 104.29 8.1
-4 -5 9 84.19 9.2
-4 -5 9 86.69 15.7
-4 -5 9 82.59 16.2
3 5 -9 140.79 13.9
3 5 -9 170.38 20.5
-3 -5 9 151.68 16.9
-3 -5 9 165.38 18.2
-3 -5 9 96.39 12
2 5 -9 115.29 9.6
2 5 -9 116.99 12.5
-2 -5 9 124.99 14.9
-2 -5 9 105.69 11.6
-2 -5 9 91.39 9.5
1 5 -9 282.97 16.4
1 5 -9 289.57 18.3
-1 -5 9 305.07 16.7
-1 -5 9 316.77 21.6
0 5 -9 5.2 4.4
0 5 -9 -0.9 3
0 -5 9 8.7 8.2
0 -5 9 8.9 4.7
-1 5 -9 347.77 17.9
-1 5 -9 362.76 18.7
1 -5 9 323.27 21
1 -5 9 325.87 21.6
1 -5 9 367.16 20
-2 5 -9 11.6 3.5
2 -5 9 15.9 6.2
2 -5 9 18.2 6
-3 5 -9 257.47 21.6
3 -5 9 219.68 16.9
-4 5 -9 7.6 6.4
4 -5 9 -1.1 6
5 4 -9 116.99 14.4
-5 -4 9 52.99 11.4
-5 -4 9 106.19 17.8
-5 -4 9 71.99 7.9
4 4 -9 67.89 11
-4 -4 9 89.79 15.4
-4 -4 9 49.6 10.9
3 4 -9 192.88 27.4
3 4 -9 198.08 16.3
-3 -4 9 183.78 18
-3 -4 9 134.09 13.3
-3 -4 9 171.48 17.2
2 4 -9 386.06 22.6
2 4 -9 390.96 25.6
-2 -4 9 426.86 23
-2 -4 9 442.16 26.5
-2 -4 9 432.06 18.7
1 4 -9 266.17 19
1 4 -9 297.97 19.4
-1 -4 9 265.37 19.8
-1 -4 9 303.07 15.3
0 4 -9 239.88 15.9
0 4 -9 233.18 15.8
0 -4 9 262.17 15.4
0 -4 9 264.07 18.1
-1 4 -9 440.66 22.4
1 -4 9 412.56 24.1
1 -4 9 486.65 28.4
-2 4 -9 81.59 8.3
-2 4 -9 77.49 10.6
2 -4 9 61.09 11
2 -4 9 84.99 11.1
-3 4 -9 90.69 12.3
-3 4 -9 86.59 13.8
3 -4 9 97.09 11.9
-4 4 -9 43.8 10.8
-4 4 -9 55.69 12.1
5 3 -9 98.69 13.7
-5 -3 9 88.79 20.4
-5 -3 9 87.59 14.2
-5 -3 9 92.89 16.2
4 3 -9 726.13 41.8
4 3 -9 867.31 38.3
-4 -3 9 796.12 41
-4 -3 9 700.33 35.7
3 3 -9 230.58 17.9
-3 -3 9 218.28 19.5
-3 -3 9 232.48 17.5
2 3 -9 91.59 12
-2 -3 9 82.59 7.2
-2 -3 9 75.49 11.9
-2 -3 9 86.29 11.2
1 3 -9 273.77 21.5
-1 -3 9 320.97 20.9
-1 -3 9 327.77 15.4
0 3 -9 116.19 10.7
0 3 -9 116.49 9.9
0 -3 9 129.29 13.1
0 -3 9 128.89 10.9
-1 3 -9 66.79 8.9
-1 3 -9 85.49 10.7
1 -3 9 77.49 11.2
1 -3 9 81.39 13.1
-2 3 -9 27.6 7.3
-2 3 -9 23.6 5.2
2 -3 9 25.1 6.5
2 -3 9 37.3 11.1
-3 3 -9 325.37 25.2
-3 3 -9 351.36 24.2
3 -3 9 308.67 20.6
-4 3 -9 23 8.2
-4 3 -9 5.5 5.7
4 -3 9 27.6 7.9
6 2 -9 295.17 23.7
-6 -2 9 326.87 27.6
-6 -2 9 297.67 18.9
-6 -2 9 316.27 21.9
5 2 -9 36.8 9.1
-5 -2 9 25.6 8.6
-5 -2 9 24.5 7.6
-5 -2 9 27.3 7.4
4 2 -9 7 6.5
-4 -2 9 7.4 6.2
-4 -2 9 3 5.1
-4 -2 9 -0.3 4.1
3 2 -9 -0.9 2.4
-3 -2 9 -3.1 2.7
2 2 -9 99.49 11.8
-2 -2 9 111.19 7.4
-2 -2 9 103.99 12.9
1 2 -9 98.29 10.6
1 2 -9 88.99 9
-1 -2 9 104.29 8.5
-1 -2 9 94.19 11.5
0 2 -9 38.6 7.4
0 2 -9 38.7 5.3
0 -2 9 51.29 9.7
0 -2 9 37.1 7.3
-1 2 -9 320.27 18
-1 2 -9 308.27 19.8
1 -2 9 294.57 19.8
1 -2 9 301.07 20.1
-2 2 -9 41.6 9.7
-2 2 -9 28.9 6.8
2 -2 9 24.5 6.9
-3 2 -9 74.49 12.8
-3 2 -9 55.29 9.2
-3 2 -9 46.1 11.1
3 -2 9 74.39 12.2
3 -2 9 73.49 12
-4 2 -9 7.7 5.8
-4 2 -9 -8.3 4.4
-4 2 -9 3.5 5.8
4 -2 9 2.9 5.6
6 1 -9 13.3 6.3
-6 -1 9 13.8 7.6
-6 -1 9 21.7 6.5
-5 -1 9 40.4 9.4
-5 -1 9 53.19 8.6
4 1 -9 209.08 23.9
-4 -1 9 201.78 19.4
-4 -1 9 203.48 13.2
3 1 -9 241.58 19.6
-3 -1 9 285.97 15.6
-3 -1 9 241.18 20.1
2 1 -9 325.07 20.1
2 1 -9 289.57 15.8
-2 -1 9 347.27 23.3
-2 -1 9 288.67 20.9
-2 -1 9 307.87 13.4
1 1 -9 44.8 7.7
1 1 -9 45.1 7.4
-1 -1 9 52.79 6.9
-1 -1 9 46.7 9.7
0 1 -9 170.68 14.3
0 -1 9 183.58 15.5
0 -1 9 206.28 13.5
-1 1 -9 98.09 12.4
1 -1 9 84.79 10.4
1 -1 9 95.19 11.1
-2 1 -9 72.09 12.3
2 -1 9 72.99 10.7
-3 1 -9 80.59 13.5
-3 1 -9 44.4 11.1
3 -1 9 76.89 11.2
3 -1 9 77.09 12.1
6 0 -9 159.48 13.6
-6 0 9 137.49 19.3
-6 0 9 151.18 11.2
-6 0 9 123.19 19.1
5 0 -9 196.38 15.6
-5 0 9 169.38 10.8
-5 0 9 171.98 19.2
-5 0 9 183.78 28.9
4 0 -9 667.53 30.9
4 0 -9 642.44 50.89
-4 0 9 661.83 36.5
-4 0 9 695.73 40.2
3 0 -9 39.7 9.4
3 0 -9 9.7 4.9
-3 0 9 17.2 6.3
-3 0 9 25.6 8
-3 0 9 17 4.5
2 0 -9 476.65 24.6
2 0 -9 457.15 21.9
-2 0 9 433.16 18.1
-2 0 9 460.75 25.6
-2 0 9 446.46 26.8
1 0 -9 135.59 12.4
1 0 -9 147.69 14.3
-1 0 9 141.79 10.8
-1 0 9 133.89 9.7
-1 0 9 151.18 14.6
0 0 -9 345.67 21.3
0 0 9 350.16 20.4
0 0 9 352.06 19
-1 0 -9 55.79 10
-1 0 -9 33.8 7.8
1 0 9 50.59 9.3
1 0 9 54.89 8.8
-2 0 -9 75.69 11.2
-2 0 -9 90.19 14.1
2 0 9 89.29 12.1
6 -1 -9 524.65 26.6
6 -1 -9 462.65 22.8
-6 1 9 483.05 34.1
5 -1 -9 72.69 12.3
-5 1 9 75.69 14.2
-5 1 9 44.8 12.2
4 -1 -9 253.77 19
4 -1 -9 251.17 21.1
-4 1 9 240.68 22.6
-4 1 9 270.77 20.7
3 -1 -9 67.99 12
-3 1 9 52.89 12.5
-3 1 9 62.09 11.2
2 -1 -9 160.98 15.1
2 -1 -9 155.28 16.1
-2 1 9 135.69 9.8
-2 1 9 160.18 11
1 -1 -9 14.3 5.7
1 -1 -9 11.3 4.8
-1 1 9 15.7 3.5
-1 1 9 10.8 4.5
0 -1 -9 68.09 11.2
0 -1 -9 48.1 10.1
0 1 9 50.89 6.9
0 1 9 54.89 8.9
-1 -1 -9 38.5 10.2
1 1 9 19.6 5.7
1 1 9 40.9 8.6
-2 -1 -9 112.69 16.5
2 1 9 150.48 18.2
2 1 9 129.19 13.2
6 -2 -9 73.39 14.4
-6 2 9 34.3 9.8
5 -2 -9 1.5 5
-5 2 9 -1.4 6.4
4 -2 -9 30.6 8.1
-4 2 9 29.7 9.6
3 -2 -9 8.5 6.3
-3 2 9 -12.1 5.7
-3 2 9 -5.8 2.8
-3 2 9 -0.2 3
2 -2 -9 183.58 17.4
-2 2 9 167.28 19.4
-2 2 9 160.18 12.3
-2 2 9 152.48 11.6
1 -2 -9 -4.8 4.4
1 -2 -9 0.1 6
-1 2 9 5.5 4.9
-1 2 9 1.4 2.9
0 -2 -9 224.08 19.5
0 2 9 204.28 15.7
0 2 9 190.08 11.2
-1 -2 -9 30.6 11
1 2 9 26.4 5.8
5 -3 -9 4.1 5.4
-5 3 9 14.5 8.2
4 -3 -9 246.58 20.9
-4 3 9 218.58 22.7
-4 3 9 263.87 24.5
3 -3 -9 8.2 5.9
-3 3 9 2.1 7.4
-3 3 9 -8.6 4.2
-3 3 9 5.2 6.4
2 -3 -9 200.58 20
-2 3 9 243.28 20.1
1 -3 -9 36.6 9.5
-1 3 9 52.99 12.2
-1 3 9 78.99 11.3
1 7 -10 148.49 14.4
1 7 -10 129.49 13.2
-1 -7 10 168.28 17.2
-1 -7 10 154.78 14.7
-1 -7 10 162.68 14.6
0 7 -10 33.5 7.1
0 7 -10 40.4 9.2
0 -7 10 53.79 10.1
0 -7 10 43.3 10.5
0 -7 10 30.6 8.5
-1 7 -10 235.68 15.4
1 -7 10 215.38 17.2
1 -7 10 282.47 18.6
-2 7 -10 156.08 18
-2 7 -10 191.88 11.7
2 -7 10 193.28 20.1
2 -7 10 171.18 15.7
2 6 -10 6.4 7.2
2 6 -10 11.8 4.8
2 6 -10 11.6 5.2
-2 -6 10 11.1 6.3
-2 -6 10 15.5 7.4
1 6 -10 157.78 14.3
1 6 -10 145.69 12.3
1 6 -10 126.89 17.1
-1 -6 10 143.89 12.8
-1 -6 10 134.99 15.6
-1 -6 10 134.89 16.3
0 6 -10 60.19 11.3
0 6 -10 64.89 9
0 -6 10 52.59 11.7
0 -6 10 52.59 9.3
0 -6 10 60.99 11.4
-1 6 -10 76.89 9.7
-1 6 -10 58.39 8.5
1 -6 10 80.99 11.2
1 -6 10 64.39 10.6
-2 6 -10 -1.7 5.3
-2 6 -10 1 3.4
2 -6 10 12.6 5.3
2 -6 10 -7.3 4.6
-3 6 -10 0 5.8
3 -6 10 1 5.7
3 -6 10 -8.4 4.1
3 5 -10 92.99 16.1
-3 -5 10 101.59 15.1
-3 -5 10 76.19 15.2
-3 -5 10 50.59 11.9
2 5 -10 3.1 4.3
-2 -5 10 -2.9 5.3
-2 -5 10 5.1 4.9
1 5 -10 140.89 15.2
1 5 -10 113.89 12.4
-1 -5 10 107.69 14.4
-1 -5 10 138.69 11.1
-1 -5 10 116.89 13.6
0 5 -10 4.8 4.2
0 5 -10 2.6 4.2
0 -5 10 -1.4 4.3
0 -5 10 7.9 5.3
0 -5 10 0.5 5
-1 5 -10 115.39 10.9
1 -5 10 123.09 13.9
1 -5 10 122.19 12.5
-2 5 -10 64.39 8.3
-2 5 -10 74.49 8.4
2 -5 10 58.29 11.1
-3 5 -10 150.08 19
4 4 -10 2.4 5.1
-4 -4 10 13.3 7
-4 -4 10 -6.6 5
-4 -4 10 -12.4 5.2
3 4 -10 198.38 20.7
3 4 -10 166.08 16
-3 -4 10 146.19 17.9
-3 -4 10 141.89 17.1
2 4 -10 41.7 8.9
-2 -4 10 52.39 11.9
-2 -4 10 40.9 6.8
-2 -4 10 19.7 6.9
1 4 -10 237.08 17.2
1 4 -10 206.98 17.3
-1 -4 10 221.18 13.4
-1 -4 10 217.88 17.5
-1 -4 10 232.88 19.1
0 4 -10 18.7 5
0 -4 10 23.8 6.6
0 -4 10 21.2 6.3
0 -4 10 27 7.4
-1 4 -10 207.08 15.4
1 -4 10 224.38 15.9
-2 4 -10 131.69 11.3
-2 4 -10 129.99 13.8
2 -4 10 148.29 14
-3 4 -10 63.79 11.9
-3 4 -10 56.89 13.3
3 -4 10 46 12
5 3 -10 61.59 13.9
-5 -3 10 78.49 17
-5 -3 10 59.89 13.9
-5 -3 10 56.39 12.7
4 3 -10 29.5 8.3
-4 -3 10 19.2 7.2
-4 -3 10 32.9 10.9
3 3 -10 191.08 17.3
3 3 -10 186.18 22.2
-3 -3 10 165.58 18.9
2 3 -10 23.5 7.3
-2 -3 10 24.3 7.2
-2 -3 10 22.6 4.6
-2 -3 10 19.1 8
1 3 -10 322.87 19.7
-1 -3 10 317.97 16.1
-1 -3 10 344.47 22.1
-1 -3 10 327.17 22.9
0 3 -10 -0.8 4.1
0 -3 10 -0.4 5.2
0 -3 10 2.1 3.9
0 -3 10 6.9 5.3
-1 3 -10 93.49 19.4
1 -3 10 79.09 10.3
-2 3 -10 6.6 5.5
-2 3 -10 -4.2 3.7
2 -3 10 2.4 4.3
-3 3 -10 157.48 18.5
-3 3 -10 139.19 12.9
-3 3 -10 115.79 15.8
3 -3 10 137.69 16
5 2 -10 199.68 19.5
-5 -2 10 231.58 23.1
-5 -2 10 215.58 17.2
4 2 -10 36.5 10.7
-4 -2 10 46.3 15.6
-4 -2 10 62.19 15.7
-4 -2 10 42.9 9.7
-3 -2 10 315.07 24.6
-3 -2 10 349.27 23.2
-3 -2 10 259.17 18.2
2 2 -10 32.8 8.8
-2 -2 10 38.8 5.3
-2 -2 10 22.5 7.6
-2 -2 10 30.7 7.8
1 2 -10 95.39 9.5
1 2 -10 85.79 10
-1 -2 10 79.79 8.5
-1 -2 10 80.29 12.7
-1 -2 10 99.19 12.9
0 2 -10 11.3 4.9
0 2 -10 0.6 4.9
0 -2 10 5.6 3.9
-1 2 -10 275.47 19.8
1 -2 10 271.77 17.7
-2 2 -10 20.7 8.1
2 -2 10 25.8 7.1
2 -2 10 7.8 5.6
-5 -1 10 57.79 9.1
-5 -1 10 22.8 8.6
-5 -1 10 29.7 9.5
4 1 -10 13.9 7.3
-4 -1 10 23.6 5.5
-4 -1 10 11.3 7.6
-4 -1 10 10.1 7.2
3 1 -10 117.29 9.4
-3 -1 10 104.89 15.6
-3 -1 10 122.99 10.7
-3 -1 10 107.69 15
2 1 -10 -4.9 3.5
2 1 -10 3 4.2
-2 -1 10 6.2 8.4
-2 -1 10 -2 4.6
-2 -1 10 -0.6 2.5
1 1 -10 382.86 22.9
1 1 -10 342.77 20.3
-1 -1 10 337.87 17.5
0 1 -10 8.5 5.6
0 1 -10 8.8 5.2
0 -1 10 2.1 3.6
-1 1 -10 101.59 13.6
-1 1 -10 63.29 10.2
1 -1 10 74.29 11
-2 1 -10 51.19 9.4
-2 1 -10 29.8 8.3
2 -1 10 26.6 7.7
2 -1 10 34.4 7.3
-5 0 10 148.19 19.4
4 0 -10 10.4 4.4
4 0 -10 7.9 5.9
-4 0 10 11.9 7
3 0 -10 104.89 10.4
2 0 -10 3.3 4.5
-2 0 10 1.4 5.9
-2 0 10 -0.6 2.7
-2 0 10 10.7 4
1 0 -10 111.89 12.2
-1 0 10 97.49 8.8
-1 0 10 100.09 10.4
0 0 -10 2.4 5.5
0 0 10 7.5 4.8
0 0 10 2.5 3.9
-1 0 -10 136.99 15.9
1 0 10 138.69 13.7
5 -1 -10 16.6 9.5
4 -1 -10 100.79 22.1
-4 1 10 107.79 17.3
3 -1 -10 105.39 16.6
-3 1 10 101.89 16.1
2 -1 -10 70.09 11
-2 1 10 104.29 9.9
-2 1 10 86.69 9.3
1 -1 -10 112.19 13.4
-1 1 10 93.59 10.6
0 -1 -10 7.1 7
0 1 10 0.9 4.8
3 -2 -10 67.59 14.1
-3 2 10 34.9 12.3
-3 2 10 39.5 8.3
2 -2 -10 -3.2 5.3
-2 2 10 -3.8 4
2 5 -11 122.09 15.2
2 5 -11 161.48 18.6
-2 -5 11 97.39 14.9
-2 -5 11 163.68 29.2
-2 -5 11 162.08 12.8
1 5 -11 51.69 9.9
-1 -5 11 59.19 10.4
-1 -5 11 43.5 10.4
0 5 -11 10.1 5.2
0 5 -11 19.5 7.9
0 -5 11 1.5 6.1
0 -5 11 8.6 5.1
-1 5 -11 1.3 4.4
1 -5 11 6.2 4.7
1 -5 11 1.3 5.9
3 4 -11 36.8 9.6
-3 -4 11 19.1 7.9
-3 -4 11 19.2 8.2
-3 -4 11 44.5 10.5
2 4 -11 4.5 5.9
2 4 -11 7.5 5
-2 -4 11 1.2 9.4
-2 -4 11 9.8 4.7
1 4 -11 5.9 5.3
1 4 -11 4 4.1
-1 -4 11 6.6 4.6
-1 -4 11 -6.1 5.4
0 -4 11 61.89 9.7
0 -4 11 60.49 12.8
-1 4 -11 59.59 10.3
1 -4 11 84.19 10.8
1 -4 11 76.79 13.3
3 3 -11 73.49 14.8
3 3 -11 48.8 11.6
-3 -3 11 69.09 15
-3 -3 11 31.8 8.8
-2 -3 11 76.79 8.2
-2 -3 11 82.49 14.7
1 3 -11 102.49 11.7
1 3 -11 120.39 10.5
-1 -3 11 125.59 25.6
-1 -3 11 115.59 10.2
0 3 -11 253.27 17.5
0 3 -11 276.37 19.6
0 -3 11 262.17 16.8
-1 3 -11 15.8 7.2
-1 3 -11 14.2 5.4
1 -3 11 9.2 5.3
3 2 -11 139.99 16.2
-3 -2 11 97.89 16.7
-3 -2 11 101.79 12.4
2 2 -11 76.19 11.1
-2 -2 11 48.5 11.6
-2 -2 11 86.19 7.9
1 2 -11 37.5 8.1
-1 -2 11 37.6 9.2
-1 -2 11 37.7 7.8
0 2 -11 47.5 8.8
0 -2 11 38.9 7.4
3 1 -11 40 10.7
-3 -1 11 38.2 7.4
-3 -1 11 47 11.5
2 1 -11 4.4 4.7
-2 -1 11 5 6.5
-2 -1 11 2.7 3.8
1 1 -11 119.39 12.6
-1 -1 11 112.99 10.7
loop_
_geom_angle_atom_site_label_1
_geom_angle_atom_site_label_2
_geom_angle_atom_site_label_3
_geom_angle
_geom_angle_site_symmetry_1
_geom_angle_site_symmetry_3
_geom_angle_publ_flag
C5 N1 C4 117.53(16) . . ?
C4 C4 N1 116.70(19) 2_676 . ?
C8 C4 N1 122.42(16) . . ?
C3 C2 F1 118.66(16) 2_556 . ?
C1 C2 F1 120.01(16) . . ?
C1 C2 C3 121.33(16) . 2_556 ?
C2 C3 F2 119.08(16) 2_556 . ?
C1 C3 F2 120.35(16) . . ?
C1 C3 C2 120.57(16) . 2_556 ?
C2 C1 Br1 120.35(13) . . ?
C3 C1 Br1 121.52(14) . . ?
C3 C1 C2 118.10(16) . . ?
C7 C8 C4 118.79(17) . . ?
H8 C8 C4 120.61(10) . . ?
H8 C8 C7 120.61(11) . . ?
C6 C5 N1 123.98(18) . . ?
H5 C5 N1 118.01(11) . . ?
H5 C5 C6 118.01(11) . . ?
C7 C6 C5 118.03(17) . . ?
H6 C6 C5 120.99(11) . . ?
H6 C6 C7 120.99(11) . . ?
C6 C7 C8 119.24(18) . . ?
H7 C7 C8 120.38(11) . . ?
H7 C7 C6 120.38(11) . . ?
loop_
_geom_bond_atom_site_label_1
_geom_bond_atom_site_label_2
_geom_bond_distance
_geom_bond_site_symmetry_2
_geom_bond_publ_flag
Br1 C1 1.8720(17) . ?
F2 C3 1.339(2) . ?
F1 C2 1.343(2) . ?
N1 C4 1.347(2) . ?
N1 C5 1.335(2) . ?
C4 C4 1.489(3) 2_676 ?
C4 C8 1.392(2) . ?
C2 C3 1.377(2) 2_556 ?
C2 C1 1.380(3) . ?
C3 C1 1.389(2) . ?
C8 C7 1.387(3) . ?
C8 H8 0.9500 . ?
C5 C6 1.386(3) . ?
C5 H5 0.9500 . ?
C6 C7 1.382(3) . ?
C6 H6 0.9500 . ?
C7 H7 0.9500 . ?
