#------------------------------------------------------------------------------
#$Date: 2021-12-07 04:51:08 +0200 (Tue, 07 Dec 2021) $
#$Revision: 271154 $
#$URL: file:///home/coder/svn-repositories/cod/cif/7/24/38/7243818.cif $
#------------------------------------------------------------------------------
#
# This file is available in the Crystallography Open Database (COD),
# http://www.crystallography.net/
#
# All data on this site have been placed in the public domain by the
# contributors.
#
data_7243818
loop_
_publ_author_name
'Liu, Rui'
'Jiang, Yansong'
'Gong, Yiran'
'Fu, Yu'
'Shen, Jieyu'
'Wang, Li'
'Fan, Yong'
'Guo, Yupeng'
'Xu, Jianing'
_publ_section_title
;
 Two scandium-based coordination polymers: rapid ultrasound-assisted
 synthesis, crystal transformation, and catalytic properties
;
_journal_issue                   44
_journal_name_full               CrystEngComm
_journal_page_first              7813
_journal_page_last               7821
_journal_paper_doi               10.1039/D1CE01206A
_journal_volume                  23
_journal_year                    2021
_chemical_formula_sum            'C3 H12 O12 Sc'
_chemical_formula_weight         285.09
_space_group_crystal_system      triclinic
_space_group_IT_number           2
_space_group_name_Hall           '-P 1'
_space_group_name_H-M_alt        'P -1'
_atom_sites_solution_hydrogens   difmap
_audit_creation_method           SHELXL-2014/7
_audit_update_record
;
2021-02-09 deposited with the CCDC.	2021-10-06 downloaded from the CCDC.
;
_cell_angle_alpha                65.082(2)
_cell_angle_beta                 76.419(2)
_cell_angle_gamma                73.429(2)
_cell_formula_units_Z            2
_cell_length_a                   7.8876(5)
_cell_length_b                   8.3604(6)
_cell_length_c                   9.6680(7)
_cell_measurement_reflns_used    5795
_cell_measurement_temperature    298(2)
_cell_measurement_theta_max      25.439
_cell_measurement_theta_min      2.343
_cell_volume                     549.34(7)
_computing_structure_refinement  'SHELXL-2014/7 (Sheldrick, 2014)'
_diffrn_ambient_temperature      298(2)
_diffrn_measured_fraction_theta_full 0.956
_diffrn_measured_fraction_theta_max 0.953
_diffrn_measurement_device_type  BrukerD8venture
_diffrn_radiation_type           MoK\a
_diffrn_radiation_wavelength     0.71073
_diffrn_reflns_av_R_equivalents  0.0575
_diffrn_reflns_av_unetI/netI     0.0578
_diffrn_reflns_Laue_measured_fraction_full 0.956
_diffrn_reflns_Laue_measured_fraction_max 0.953
_diffrn_reflns_limit_h_max       9
_diffrn_reflns_limit_h_min       -9
_diffrn_reflns_limit_k_max       10
_diffrn_reflns_limit_k_min       -10
_diffrn_reflns_limit_l_max       11
_diffrn_reflns_limit_l_min       -10
_diffrn_reflns_number            5795
_diffrn_reflns_point_group_measured_fraction_full 0.956
_diffrn_reflns_point_group_measured_fraction_max 0.953
_diffrn_reflns_theta_full        25.242
_diffrn_reflns_theta_max         25.439
_diffrn_reflns_theta_min         2.343
_exptl_absorpt_coefficient_mu    0.725
_exptl_absorpt_correction_T_max  0.930
_exptl_absorpt_correction_T_min  0.917
_exptl_absorpt_correction_type   multi-scan
_exptl_crystal_colour            colorless
_exptl_crystal_density_diffrn    1.724
_exptl_crystal_description       block
_exptl_crystal_F_000             294.0
_exptl_crystal_size_max          0.4
_exptl_crystal_size_mid          0.1
_exptl_crystal_size_min          0.1
_refine_diff_density_max         0.944
_refine_diff_density_min         -0.398
_refine_diff_density_rms         0.082
_refine_ls_extinction_method     none
_refine_ls_goodness_of_fit_ref   1.056
_refine_ls_hydrogen_treatment    constr
_refine_ls_matrix_type           full
_refine_ls_number_parameters     147
_refine_ls_number_reflns         1940
_refine_ls_number_restraints     0
_refine_ls_restrained_S_all      1.056
_refine_ls_R_factor_all          0.0511
_refine_ls_R_factor_gt           0.0474
_refine_ls_shift/su_max          0.000
_refine_ls_shift/su_mean         0.000
_refine_ls_structure_factor_coef Fsqd
_refine_ls_weighting_details
'w=1/[\s^2^(Fo^2^)+(0.0708P)^2^+0.6907P] where P=(Fo^2^+2Fc^2^)/3'
_refine_ls_weighting_scheme      calc
_refine_ls_wR_factor_gt          0.1319
_refine_ls_wR_factor_ref         0.1369
_reflns_Friedel_coverage         0.000
_reflns_number_gt                1767
_reflns_number_total             2034
_reflns_threshold_expression     'I > 2\s(I)'
_cod_data_source_file            d1ce01206a2.cif
_cod_data_source_block           jys_200926_0m
_cod_depositor_comments          'Adding full bibliography for 7243818.cif.'
_cod_database_code               7243818
_shelx_shelxl_version_number     2014/7
_shelx_space_group_comment
;
The symmetry employed for this shelxl refinement is uniquely defined
by the following loop, which should always be used as a source of
symmetry information in preference to the above space-group names.
They are only intended as comments.
;
_shelx_res_file
;

    jys_200926_0m.res created by SHELXL-2014/7

TITL jys_200926_0m_a.res in P-1
CELL 0.71073 7.8876 8.3604 9.668 65.082 76.419 73.429
ZERR 9 0.0005 0.0006 0.0007 0.002 0.002 0.002
LATT 1
SFAC C  O  Sc H
UNIT 6 24 2 1
L.S. 32
ACTA
FMAP 2
PLAN 10
LIST 4
TEMP 24.53
WGHT    0.070800    0.690700
FVAR       2.39467
SC01  3    0.720996    0.389005    0.250219    11.00000    0.01699    0.02442 =
         0.01538   -0.01043    0.00341   -0.00527
O002  2    1.001408    0.710150   -0.146438    11.00000    0.02081    0.02886 =
         0.01919   -0.00757    0.00440   -0.00480
O003  2    0.811292    0.626128    0.070565    11.00000    0.02414    0.02664 =
         0.02384   -0.01173    0.00926   -0.00430
O004  2    0.527828    0.304847    0.467521    11.00000    0.02771    0.02764 =
         0.02198   -0.01495    0.00557   -0.01073
O005  2    0.358954    0.390632    0.656459    11.00000    0.02814    0.03110 =
         0.02029   -0.01418    0.00979   -0.01400
O006  2    0.288833    0.633861   -0.016600    11.00000    0.02607    0.04119 =
         0.02873   -0.01896   -0.00739    0.00094
O007  2    0.455959    0.526031    0.174377    11.00000    0.02241    0.04493 =
         0.02162   -0.01918   -0.00116   -0.00419
O008  2    0.708600    0.115811    0.306124    11.00000    0.04071    0.02778 =
         0.02536   -0.01361    0.00608   -0.00859
AFIX   7
H00A  4    0.742973    0.047688    0.394780    11.00000   -1.50000
H00B  4    0.785422    0.073695    0.243718    11.00000   -1.50000
AFIX   6
O009  2    0.725201    0.850428    0.595406    11.00000    0.03248    0.04441 =
         0.04481   -0.01375   -0.00093   -0.01635
H00E  4    0.684848    0.881272    0.672144    11.00000   -1.50000
H00F  4    0.648079    0.798623    0.593262    11.00000   -1.50000
AFIX   0
O00A  2    0.902876    0.293845    0.419254    11.00000    0.02502    0.07217 =
         0.02918   -0.02640   -0.00473    0.00409
AFIX   7
H00C  4    1.009756    0.289409    0.374165    11.00000   -1.50000
H00D  4    0.899669    0.184738    0.478059    11.00000   -1.50000
AFIX   0
C00B  1    0.946747    0.596981   -0.022662    11.00000    0.01767    0.02967 =
         0.01694   -0.01226    0.00256   -0.00712
C00C  1    0.425198    0.547214    0.044953    11.00000    0.02155    0.03045 =
         0.02202   -0.01247    0.00230   -0.01049
C00D  1    0.466466    0.411492    0.536446    11.00000    0.01862    0.02477 =
         0.01675   -0.01105    0.00001   -0.00531
AFIX   6
O00E  2    0.891558   -0.089586    0.141750    11.00000    0.08349    0.05766 =
         0.08100   -0.04980   -0.01679    0.00169
H00G  4    0.935236   -0.184976    0.123071    11.00000   -1.50000
H00H  4    0.785014   -0.048428    0.120668    11.00000   -1.50000
O00F  2    0.801575    0.232282    0.718521    11.00000    0.06572    0.09397 =
         0.05448   -0.04633   -0.01374    0.01078
H00I  4    0.836893    0.330943    0.682227    11.00000   -1.50000
H00J  4    0.887847    0.153104    0.762150    11.00000   -1.50000
O00G  2    0.601467   -0.042862    0.854235    11.00000    0.09019    0.10256 =
         0.10516   -0.04353   -0.00179   -0.00621
H00K  4    0.688296    0.009499    0.828922    11.00000   -1.50000
H00L  4    0.509766    0.037000    0.863778    11.00000   -1.50000
AFIX   0
HKLF 4

REM  jys_200926_0m_a.res in P-1
REM R1 =  0.0474 for    1767 Fo > 4sig(Fo)  and  0.0511 for all    1940 data
REM    147 parameters refined using      0 restraints

END

WGHT      0.0705      0.6825

REM Highest difference peak  0.944,  deepest hole -0.398,  1-sigma level  0.082
Q1    1   0.8875  0.3912  0.6503  11.00000  0.05    0.94
Q2    1   0.8870  0.3131  0.5041  11.00000  0.05    0.39
Q3    1   0.7008  0.3348  0.7515  11.00000  0.05    0.36
Q4    1   0.7080  0.3800  0.1431  11.00000  0.05    0.34
Q5    1   0.6575  0.2144  0.3350  11.00000  0.05    0.33
Q6    1   0.8014  0.3652  0.3409  11.00000  0.05    0.32
Q7    1   0.7456  0.4049  0.3475  11.00000  0.05    0.30
Q8    1   1.0000  0.5000  0.0000  10.50000  0.05    0.30
Q9    1   0.7152  0.0652  0.2466  11.00000  0.05    0.30
Q10   1   0.8381 -0.2005  0.1437  11.00000  0.05    0.28
;
_shelx_res_checksum              47082
_shelx_hkl_file
;
  -3   0   0 1032.22   98.77
  -3   0   0 1179.80  101.41
   3   0   0 1346.01   99.18
   3   0   0 1281.34  100.38
  -4   0   0 5835.89  472.18
  -5   0   0 3472.84  281.24
  -5   0   0 3065.23  278.94
   5   0   0 3389.80  277.62
   5   0   0 3844.99  281.80
  -6   0   0  291.92   30.02
  -6   0   0  258.91   27.50
   6   0   0  340.48   31.34
  -7   0   0 1681.61  152.39
   7   0   0 1696.02  150.31
   7   0   0 2202.70  157.52
  -9   0   0  334.46   34.06
   8  -1   0   -2.28    5.34
   8  -1   0  -11.17    5.91
   7  -1   0  120.87   14.82
   7  -1   0  127.23   15.63
   7  -1   0  139.04   19.70
   6  -1   0 2672.22  237.41
   6  -1   0 3022.50  234.16
   6  -1   0 2919.16  235.04
   5  -1   0  288.11   28.21
   5  -1   0  281.45   25.31
   5  -1   0  316.68   25.56
  -5   1   0  259.39   27.56
  -5   1   0  239.98   25.43
   4  -1   0 5220.70  381.90
  -4   1   0 4512.53  381.32
  -4   1   0 4392.15  379.49
   3  -1   0 1666.60  131.59
   3  -1   0 1804.83  133.14
   3  -1   0 1531.32  130.92
  -3   1   0 1622.00  134.25
  -3   1   0 1467.96  131.27
   2  -1   0  365.31   32.86
   2  -1   0  407.68   34.09
   2  -1   0  423.01   33.71
  -2   1   0  399.76   34.11
  -2   1   0  390.10   33.73
   1  -1   0  323.84   25.08
   1  -1   0  269.89   24.56
  -1   1   0  250.67   24.52
  -1   1   0  324.91   25.15
  -2  -1   0 1106.61   95.00
  -2  -1   0 1278.73   94.23
   2   1   0 1026.29   92.95
   2   1   0 1172.46   94.16
  -3  -1   0 1172.57   94.72
  -3  -1   0 1157.99   94.10
   3   1   0 1022.05   92.68
   3   1   0 1208.19   94.81
  -4  -1   0  588.68   51.21
  -4  -1   0  563.83   50.04
   4   1   0  659.01   51.69
   4   1   0  528.73   48.46
  -5  -1   0 3163.45  255.78
  -5  -1   0 2870.85  253.86
   5   1   0 2851.10  252.05
   5   1   0 3630.82  256.67
  -6  -1   0 2489.10  198.95
  -6  -1   0 2225.61  196.28
   6   1   0 2452.35  194.17
  -7  -1   0  506.13   49.35
   7   1   0  573.30   46.57
  -8  -1   0  471.47   51.25
   8   1   0  687.39   53.80
   8   1   0  539.30   47.18
   8   1   0  589.08   50.66
  -9  -1   0   10.49    7.26
   9   1   0   19.68    9.36
   8  -2   0  387.24   38.51
   8  -2   0  397.04   42.34
   7  -2   0  435.34   37.75
   7  -2   0  469.90   41.50
   7  -2   0  495.45   45.12
   7  -2   0  377.92   39.96
   6  -2   0 7657.01  541.46
   6  -2   0 6579.64  546.06
   6  -2   0 6677.30  543.10
  -6   2   0 5927.50  545.65
   5  -2   0 1590.23  130.29
   5  -2   0 1741.05  132.90
   5  -2   0 1649.80  128.50
  -5   2   0 1313.49  131.53
   4  -2   0  871.59   70.76
   4  -2   0  911.80   72.09
   4  -2   0  795.11   68.81
  -4   2   0  772.71   71.56
   3  -2   0  851.70   77.35
   3  -2   0 1053.59   79.72
  -3   2   0  941.46   79.41
  -3   2   0  952.35   79.59
   2  -2   0  341.01   30.65
   2  -2   0  389.31   31.47
  -2   2   0  303.85   31.63
  -2   2   0  363.79   31.58
   1  -2   0   85.62    9.03
   1  -2   0  102.22   10.65
   1  -2   0   93.15    8.95
  -1   2   0  106.17   10.84
  -1   2   0   74.09    8.98
   0  -2   0  137.44   14.04
   0  -2   0  146.54   13.49
   0   2   0  120.89   13.17
   0   2   0  132.51   14.22
   0   2   0  158.09   12.69
  -2  -2   0 1014.99   94.41
  -2  -2   0 1053.16   94.72
  -2  -2   0 1226.52   95.68
   2   2   0 1235.54   94.85
   2   2   0 1225.56   95.54
  -3  -2   0 1765.55  147.71
  -3  -2   0 1710.34  147.49
   3   2   0 1735.40  146.27
   3   2   0 1968.58  147.90
  -4  -2   0 4646.03  379.27
  -4  -2   0 4705.21  379.72
  -5  -2   0 3517.43  298.18
  -5  -2   0 3359.46  297.12
   5   2   0 4070.24  297.93
   5   2   0 3636.88  295.02
  -6  -2   0 2900.96  255.04
  -6  -2   0 3055.92  256.72
   6   2   0 3356.44  252.44
   7   2   0 1736.34  142.62
   7   2   0 1750.55  146.59
   8   2   0 2687.01  217.16
   8   2   0 2545.68  211.54
   9   2   0  -14.41    5.86
   7  -3   0  227.97   26.59
   7  -3   0  229.50   23.53
   7  -3   0  264.78   29.32
   6  -3   0 2518.73  188.20
   6  -3   0 2313.57  192.70
   6  -3   0 2508.33  195.28
   6  -3   0 2341.89  190.31
  -6   3   0 1945.32  193.92
   5  -3   0 1218.14  106.40
   5  -3   0 1359.97  108.05
   5  -3   0 1355.80  103.98
   5  -3   0 1255.77  103.04
  -5   3   0 1117.14  107.40
   4  -3   0  573.22   51.08
   4  -3   0  653.24   54.41
   4  -3   0  663.79   54.51
  -4   3   0  573.36   54.28
   2  -3   0 3355.59  252.71
   2  -3   0 3105.19  250.05
   2  -3   0 2968.89  251.01
  -2   3   0 3213.60  253.04
  -2   3   0 2841.91  251.30
   1  -3   0  212.74   21.10
   1  -3   0  253.16   23.37
  -1   3   0  206.59   21.17
  -1   3   0  276.18   23.99
  -1  -3   0  929.04   75.94
   1   3   0  924.14   75.90
   1   3   0  832.34   75.02
  -4  -3   0 3161.67  273.51
  -4  -3   0 3287.64  274.02
   4   3   0 3475.16  273.93
   4   3   0 3460.81  272.21
  -5  -3   0  698.61   66.09
   5   3   0  771.98   66.46
   5   3   0  766.71   63.92
  -6  -3   0 1611.62  157.27
   6   3   0 2035.48  155.11
   6   3   0 1995.09  158.33
   7   3   0  245.42   23.71
   7   3   0  235.47   27.78
   8   3   0 3033.62  251.87
   9   3   0  486.04   47.81
   9   3   0  459.94   39.78
   7  -4   0  876.84   71.36
   7  -4   0  687.84   61.82
   6  -4   0   74.97   15.27
   6  -4   0   81.78    8.00
   6  -4   0   89.52    8.39
   6  -4   0   99.21   16.52
  -6   4   0   66.75   16.74
   5  -4   0 1974.20  144.51
   5  -4   0 1833.34  138.18
   5  -4   0 1876.14  144.16
   5  -4   0 1609.91  138.30
  -5   4   0 1546.78  143.83
  -5   4   0 1419.17  142.84
   4  -4   0 1621.81  120.81
   4  -4   0 1218.63  116.61
   4  -4   0 1537.55  120.96
   4  -4   0 1539.18  116.40
  -4   4   0 1319.64  120.71
  -4   4   0 1342.23  120.22
   3  -4   0 2366.76  196.81
   3  -4   0 2573.43  195.08
   3  -4   0 2539.60  198.64
  -3   4   0 2151.51  197.09
  -3   4   0 2359.93  198.97
   2  -4   0 8323.18  629.70
  -2   4   0 7250.59  627.67
   1  -4   0  129.17   14.23
   1  -4   0  161.67   17.76
  -1   4   0  175.56   17.91
  -1   4   0  122.85   12.02
  -1  -4   0   43.63    8.52
  -1  -4   0   36.17    8.89
   1   4   0   35.07    8.08
   1   4   0   39.29    9.29
  -3  -4   0 2546.29  217.62
  -3  -4   0 2812.30  219.52
  -3  -4   0 2375.49  217.76
   3   4   0 2757.99  218.92
   3   4   0 2800.04  218.31
  -4  -4   0  233.41   28.32
  -4  -4   0  286.23   29.64
  -4  -4   0  308.12   30.89
   4   4   0  354.08   30.14
   4   4   0  341.46   31.19
  -5  -4   0 3748.25  316.49
  -5  -4   0 3589.37  315.60
   5   4   0 4032.73  316.37
   5   4   0 4033.91  314.07
   6   4   0  242.61   24.56
   6   4   0  229.44   26.53
   7   4   0  185.66   23.99
   7   4   0  168.91   19.92
   8   4   0  179.28   20.70
   8   4   0  196.01   25.87
   9   4   0 2445.08  206.80
   6  -5   0  418.24   41.63
   5  -5   0   33.13    9.71
   5  -5   0   17.20    3.44
   5  -5   0   25.68    4.03
  -5   5   0   22.73    8.35
   4  -5   0 1163.69  115.10
   4  -5   0 1602.87  118.82
   4  -5   0 1624.27  115.17
  -4   5   0 1204.64  119.53
  -4   5   0 1403.28  119.15
   3  -5   0   44.92    8.71
   3  -5   0   48.60   10.90
   3  -5   0   45.29    7.59
  -3   5   0   51.40    9.50
  -3   5   0   29.67    9.36
   2  -5   0 4661.00  393.43
   2  -5   0 4996.12  396.62
   2  -5   0 5118.05  393.17
  -2   5   0 4478.65  393.98
  -2   5   0 5041.98  397.55
   1  -5   0  212.95   20.31
   1  -5   0  178.49   19.11
   1  -5   0  245.09   26.56
  -1   5   0  209.80   23.68
  -1   5   0  167.63   16.49
   0  -5   0 1005.58   82.24
   0  -5   0  823.41   78.65
   0  -5   0 1007.74   80.12
   0   5   0 1044.59   82.70
   0   5   0  823.45   77.08
  -1  -5   0  355.56   33.65
  -1  -5   0  254.94   30.41
  -1  -5   0  338.76   32.43
   1   5   0  304.46   31.43
   1   5   0  358.12   34.23
   1   5   0  367.94   30.90
  -2  -5   0 4173.03  330.47
  -2  -5   0 3783.51  330.40
   2   5   0 3985.13  329.85
   2   5   0 4216.35  330.78
  -3  -5   0 1955.15  153.67
  -3  -5   0 1614.94  151.69
   3   5   0 1906.23  152.37
   3   5   0 1787.79  152.27
  -4  -5   0  635.83   54.73
  -4  -5   0  527.70   53.92
  -4  -5   0  592.92   56.09
   4   5   0  595.18   55.31
   4   5   0  634.56   54.92
  -5  -5   0  147.96   19.79
  -5  -5   0  176.89   21.52
   5   5   0  199.35   21.96
   5   5   0  212.13   24.36
  -6  -5   0   12.67    5.62
   6   5   0   11.48    7.08
   6   5   0    7.46    8.61
   7   5   0  136.49   17.51
   7   5   0   92.49   18.15
   8   5   0  235.58   25.70
   8   5   0  227.86   29.97
   5  -6   0   -8.21    3.54
   5  -6   0   -8.10    5.62
  -5   6   0    0.82    6.14
  -5   6   0    1.74    5.54
   4  -6   0  985.68   74.96
   4  -6   0  719.45   71.68
  -4   6   0  847.23   75.53
  -4   6   0  876.23   78.72
   3  -6   0 1387.91  114.52
   3  -6   0 1482.09  116.09
  -3   6   0 1306.05  119.82
  -3   6   0 1316.86  116.64
   2  -6   0  118.36   13.78
   2  -6   0   88.47   14.08
  -2   6   0  119.86   18.65
   1  -6   0  301.96   28.85
   1  -6   0  268.10   27.20
  -1   6   0  274.96   31.90
   0  -6   0 1157.74   91.45
   0  -6   0  991.91   89.84
   0   6   0  934.53   87.59
   0   6   0 1197.80   94.93
  -1  -6   0    8.38    6.20
  -1  -6   0    3.76    6.90
  -1  -6   0    1.03    3.97
   1   6   0    5.51    4.29
   1   6   0   11.20    8.52
  -2  -6   0  197.14   24.07
  -2  -6   0  192.74   23.05
   2   6   0  182.95   23.08
   2   6   0  225.54   22.37
   2   6   0  183.89   24.59
  -3  -6   0 5047.21  450.30
   3   6   0 5306.62  449.96
   3   6   0 5398.53  450.18
   3   6   0 6327.67  450.26
  -4  -6   0 1165.07  119.76
  -4  -6   0 1478.44  120.26
   4   6   0 1478.84  121.09
   4   6   0 1510.54  122.07
  -5  -6   0  252.12   32.58
   5   6   0  378.47   35.33
   5   6   0  369.30   36.90
  -6  -6   0  257.10   31.71
   6   6   0  340.12   34.42
   6   6   0  365.92   37.12
  -7  -6   0  478.02   49.70
   7   6   0  562.37   54.71
   7   6   0  575.86   51.31
   8   6   0  967.10   85.99
   8   6   0  854.23   78.99
   8   6   0  873.36   83.61
   4  -7   0  639.86   58.65
  -4   7   0  712.21   65.64
  -3   7   0 1286.37  114.81
   2  -7   0  183.36   18.98
   2  -7   0  144.55   18.93
  -2   7   0  149.64   23.04
   1  -7   0  429.81   40.55
   1  -7   0  445.49   42.32
  -1   7   0  442.69   46.33
   0  -7   0   35.21   10.71
   0  -7   0   42.44    8.68
   0   7   0   30.65    6.42
   0   7   0   24.01   12.33
   1   7   0  657.16   60.57
   1   7   0  598.93   55.05
  -2  -7   0 1128.51  107.13
   2   7   0 1314.84  110.60
   2   7   0 1293.09  106.34
  -3  -7   0 3625.12  323.99
   3   7   0 4178.04  325.67
   3   7   0 4352.01  323.69
   3   7   0 3581.91  323.65
  -4  -7   0  546.28   56.05
   4   7   0  615.80   56.23
   4   7   0  590.36   55.10
   4   7   0  515.66   54.65
   5   7   0  106.72   20.52
   5   7   0  146.05   21.26
   6   7   0  805.64   74.77
   6   7   0  772.70   71.92
   6   7   0  756.69   73.83
   7   7   0  627.82   59.80
   7   7   0  545.33   54.44
   7   7   0  530.20   57.42
   2  -8   0 1486.92  131.44
  -2   8   0 1645.38  138.60
   1  -8   0   -5.29    3.98
  -1   8   0   -1.18    6.13
   0   8   0  598.85   54.37
   0   8   0  713.19   64.48
  -1  -8   0   -1.83    4.70
   1   8   0    3.58    3.91
   1   8   0   -4.38    8.32
  -2  -8   0  969.33   91.70
   2   8   0 1113.68   95.95
   2   8   0 1039.72   89.94
  -3  -8   0    6.40    6.94
   3   8   0    4.71   10.03
   3   8   0   -0.15    6.87
   4   8   0  422.45   42.75
   4   8   0  452.77   45.46
   4   8   0  362.70   42.90
   5   8   0  329.09   34.68
   5   8   0  271.35   33.95
   5   8   0  256.34   33.64
   6   8   0  204.58   28.07
   6   8   0  132.47   26.36
   6   8   0  177.18   25.40
  -1  -9   0   -5.67    4.89
   1   9   0   -4.86    9.08
  -2  -9   0   93.69   17.61
  -2  -9   0   61.62   14.99
   2   9   0  115.85   14.10
   2   9   0  104.23   21.03
  -3  -9   0   43.45   13.43
   3   9   0   68.26   13.75
   3   9   0   43.84   14.28
   5   8  -1  482.07   47.95
   5   8  -1  407.89   46.18
   4   8  -1   74.40   15.89
   4   8  -1   73.99   17.92
   3   8  -1   13.98    7.15
   3   8  -1   11.12    9.67
  -3  -8   1   17.13    9.10
   2   8  -1   10.11    6.04
   2   8  -1    1.13    9.36
  -2  -8   1   -0.31    6.19
   1   8  -1  440.38   46.56
   1   8  -1  391.98   38.42
  -1  -8   1  404.04   41.94
   0   8  -1  728.59   69.97
   0  -8   1  686.17   65.02
  -1   8  -1  510.71   53.30
   1  -8   1  486.26   47.61
   2  -8   1  186.11   22.92
   6   7  -1  367.26   41.49
   6   7  -1  373.20   41.06
   6   7  -1  358.58   39.06
   5   7  -1 1800.92  168.53
   5   7  -1 2227.23  170.62
   5   7  -1 1903.77  167.58
   4   7  -1  938.59   82.43
   4   7  -1  848.47   81.07
   3   7  -1  116.53   17.48
   3   7  -1  111.15   18.18
   2   7  -1 2043.99  170.96
  -2  -7   1 2041.25  173.67
   1   7  -1  914.88   78.43
   1   7  -1  775.45   71.71
  -1  -7   1  808.96   75.03
   0   7  -1 1755.76  145.66
   0  -7   1 1576.65  140.81
  -1   7  -1   25.34   10.98
   1  -7   1   21.94    8.21
  -2   7  -1  418.12   45.22
   2  -7   1  435.24   40.66
   2  -7   1  387.95   40.29
  -3   7  -1    3.58    6.01
   3  -7   1  -11.55    5.04
   7   6  -1  210.57   25.25
   7   6  -1  196.68   27.13
   7   6  -1  249.28   31.64
  -7  -6   1  207.18   23.56
   6   6  -1 2034.89  172.76
   6   6  -1 1967.70  175.28
   6   6  -1 2170.67  177.12
   5   6  -1  159.94   23.85
   5   6  -1  194.66   24.58
   5   6  -1  156.18   21.37
  -5  -6   1  125.02   21.06
   4   6  -1 1940.25  152.44
   4   6  -1 1707.26  151.66
   4   6  -1 1691.86  150.67
   3   6  -1  220.17   26.28
   3   6  -1  239.64   27.83
   2   6  -1 1712.42  138.71
   2   6  -1 1700.31  135.87
  -2  -6   1 1408.32  136.45
   1   6  -1   -2.23    5.07
   1   6  -1    0.57    3.86
  -1  -6   1   -0.70    4.48
  -1  -6   1    0.94    7.60
   0   6  -1   11.98    9.68
   0   6  -1   19.14    5.47
   0  -6   1   15.37    6.86
   0  -6   1    9.62    7.70
  -1   6  -1 2167.94  201.84
  -1   6  -1 2638.40  210.37
   1  -6   1 2457.20  206.32
   1  -6   1 2751.04  208.39
  -2   6  -1    2.06    6.35
   2  -6   1   -0.11    4.73
   2  -6   1    1.93    6.03
   3  -6   1  137.56   17.95
   3  -6   1  125.77   16.87
  -4   6  -1   83.73   17.01
  -4   6  -1  127.01   18.58
   4  -6   1   90.17   14.82
   4  -6   1  140.93   17.26
   4  -6   1   86.33   13.77
  -5   6  -1  437.13   48.90
   5  -6   1  549.58   48.84
   8   5  -1  962.90   85.62
   8   5  -1  826.12   82.05
   7   5  -1   38.86   12.80
   7   5  -1   40.98    9.86
   7   5  -1   68.18   17.90
   6   5  -1  726.66   60.53
   6   5  -1  764.27   65.45
  -6  -5   1  553.06   59.06
   5   5  -1    9.08    7.54
   5   5  -1    9.15    7.70
   5   5  -1   -1.73    6.57
  -5  -5   1    0.16    4.05
   4   5  -1 3216.28  266.47
   4   5  -1 3132.72  267.84
   4   5  -1 3371.77  268.38
   3   5  -1 1025.37   97.53
   3   5  -1 1162.03   97.72
   3   5  -1 1231.96   98.21
  -3  -5   1 1210.49   98.71
  -3  -5   1 1011.69   96.71
   2   5  -1 2530.78  200.18
   2   5  -1 2329.22  201.02
  -2  -5   1 2393.90  201.36
  -2  -5   1 2416.91  200.82
   1   5  -1  818.45   72.02
   1   5  -1  774.65   68.59
  -1  -5   1  720.49   70.04
  -1  -5   1  848.56   71.96
  -1  -5   1  824.63   70.54
   0   5  -1  183.14   19.29
   0   5  -1  228.44   25.22
   0  -5   1  185.02   21.81
   0  -5   1  182.53   21.40
   0  -5   1  229.90   23.68
  -1   5  -1 3322.14  250.77
  -1   5  -1 2628.51  243.65
   1  -5   1 2819.86  246.80
   1  -5   1 3145.88  249.07
   1  -5   1 3192.76  246.70
  -2   5  -1  368.11   37.89
  -2   5  -1  377.62   40.71
   2  -5   1  423.06   37.19
   2  -5   1  413.60   40.03
   2  -5   1  405.43   37.96
  -3   5  -1 1747.29  150.00
  -3   5  -1 1650.69  147.52
   3  -5   1 1832.92  147.33
   3  -5   1 1780.75  144.87
  -4   5  -1  198.76   25.48
  -4   5  -1  234.27   25.01
   4  -5   1  198.26   22.09
   4  -5   1  227.05   24.46
   4  -5   1  201.00   21.12
  -5   5  -1  213.92   25.63
  -5   5  -1  197.10   25.19
   5  -5   1  265.52   26.20
   5  -5   1  193.78   21.38
   6  -5   1  240.39   25.97
   6  -5   1  167.01   17.79
   8   4  -1 1888.32  161.04
   8   4  -1 1798.88  157.73
   7   4  -1    3.12   10.76
   7   4  -1   -8.85    6.18
   7   4  -1   -6.18    4.56
   6   4  -1   26.18   10.31
   6   4  -1   26.96    7.78
   6   4  -1   30.52    9.97
  -6  -4   1   19.92    5.62
   5   4  -1  731.89   59.67
   5   4  -1  715.78   62.23
  -5  -4   1  746.41   62.86
  -5  -4   1  558.04   58.37
  -5  -4   1  639.40   61.49
   4   4  -1 1593.80  137.42
   4   4  -1 1835.69  138.73
   4   4  -1 1659.94  135.71
  -4  -4   1 1358.64  134.73
  -4  -4   1 1712.89  138.00
   3   4  -1 2394.65  207.57
   3   4  -1 2774.56  208.40
  -3  -4   1 2325.50  206.39
  -3  -4   1 2562.42  208.01
   2   4  -1 2002.63  155.34
   2   4  -1 1710.67  155.16
   2   4  -1 1844.28  155.69
  -2  -4   1 1863.52  155.28
  -2  -4   1 1908.75  155.54
   1   4  -1  264.51   26.21
   1   4  -1  291.91   28.73
  -1  -4   1  268.29   27.06
  -1  -4   1  271.90   27.88
   0   4  -1  441.77   37.43
   0   4  -1  332.03   32.93
   0  -4   1  414.45   35.25
   0  -4   1  336.20   34.79
   0  -4   1  371.74   35.77
  -2   4  -1 3880.37  311.04
  -2   4  -1 3556.46  308.87
   2  -4   1 3741.15  308.63
   2  -4   1 3857.34  309.66
   2  -4   1 3899.37  307.38
  -3   4  -1 3209.81  275.85
  -3   4  -1 3098.83  276.78
   3  -4   1 3473.26  273.25
   3  -4   1 3643.63  275.92
   3  -4   1 3393.86  276.31
  -4   4  -1  684.18   63.97
  -4   4  -1  643.59   62.88
   4  -4   1  621.54   60.46
   4  -4   1  723.89   59.53
   4  -4   1  784.44   63.41
   4  -4   1  761.52   63.61
  -5   4  -1  190.37   22.83
   5  -4   1  187.86   18.88
   5  -4   1  168.61   18.91
   5  -4   1  229.19   23.62
   6  -4   1  222.89   22.24
   6  -4   1  266.20   28.72
   6  -4   1  244.22   20.08
   6  -4   1  232.18   21.23
   6  -4   1  225.57   21.51
   7  -4   1    3.36    1.60
   7  -4   1  -10.92    6.52
   7  -4   1  -10.14    4.45
   8   3  -1  638.38   52.34
   8   3  -1  645.53   61.72
   8   3  -1  562.97   58.05
   7   3  -1 1899.01  159.06
   7   3  -1 2011.04  164.83
   6   3  -1  772.28   63.14
   6   3  -1  770.94   67.09
  -6  -3   1  673.43   66.43
   5   3  -1 1703.85  138.67
   5   3  -1 1782.18  142.15
  -5  -3   1 1625.55  141.74
  -5  -3   1 1611.42  144.31
   4   3  -1 2924.99  243.49
   4   3  -1 2976.66  241.35
  -4  -3   1 3142.55  243.96
  -4  -3   1 2806.73  243.10
   1   3  -1 1396.38  116.09
   1   3  -1 1375.80  115.13
  -1  -3   1 1361.42  115.54
  -1  -3   1 1427.63  115.91
   0   3  -1 1975.88  174.44
   0   3  -1 2323.96  177.37
   0  -3   1 2362.80  176.94
   0  -3   1 2191.19  175.76
   0  -3   1 1894.89  175.77
  -1   3  -1 2690.94  202.43
  -1   3  -1 2201.85  198.36
  -1   3  -1 2280.54  200.55
   1  -3   1 2615.92  201.46
   1  -3   1 2508.49  201.21
   1  -3   1 2450.25  200.74
  -3   3  -1  953.59   82.90
  -3   3  -1  901.55   82.01
   3  -3   1 1024.55   82.31
   3  -3   1  883.86   78.28
   3  -3   1 1053.53   82.37
  -4   3  -1 3547.02  303.08
  -4   3  -1 3452.58  302.89
   4  -3   1 4134.90  303.50
   4  -3   1 3655.39  299.09
   4  -3   1 4082.91  302.83
   4  -3   1 3381.76  300.54
   5  -3   1   66.59    9.19
   5  -3   1   65.24   12.11
   5  -3   1   77.52   13.08
   6  -3   1   40.46   10.76
   6  -3   1   61.73   13.25
   6  -3   1   61.18    8.38
   7  -3   1 1053.45   81.15
   7  -3   1  988.33   87.67
   7  -3   1  850.08   84.74
   9   2  -1  267.65   34.90
   9   2  -1  269.56   30.55
   8   2  -1  510.89   50.24
   8   2  -1  551.49   54.53
   7   2  -1  605.07   51.35
  -7  -2   1  477.38   49.32
   6   2  -1  170.67   19.32
   6   2  -1  148.40   14.40
  -6  -2   1  135.56   17.65
   5   2  -1 1541.72  119.06
   5   2  -1 1384.28  115.10
  -5  -2   1 1328.55  118.97
  -5  -2   1 1378.06  118.40
  -4  -2   1 6268.29  507.67
   3   2  -1    5.03    3.53
   3   2  -1    4.57    4.59
  -3  -2   1    2.11    2.34
  -3  -2   1   12.12    5.29
  -1   2  -1 1998.88  180.92
  -1   2  -1 2359.79  183.43
   1  -2   1 2533.00  184.66
   1  -2   1 2102.93  182.53
   1  -2   1 2235.09  180.93
  -2   2  -1   47.73    7.61
  -2   2  -1   46.96    7.24
   2  -2   1   47.21    7.52
   2  -2   1   51.63    5.75
   2  -2   1   53.32    7.34
  -3   2  -1 6229.80  503.83
  -4   2  -1  698.33   64.04
   4  -2   1  789.92   63.38
   4  -2   1  801.23   66.79
   4  -2   1  661.36   61.83
  -5   2  -1   33.87    8.91
   5  -2   1   36.49    7.08
   5  -2   1   64.68   10.41
   5  -2   1   58.49   10.85
  -6   2  -1   57.53   13.64
   6  -2   1   87.72   15.23
   6  -2   1   94.78   12.97
   6  -2   1   95.98   11.25
   7  -2   1 1328.57  103.74
   7  -2   1 1078.25  104.93
   7  -2   1 1331.70  109.53
   8  -2   1  -24.48   13.86
   8  -2   1   12.43    6.69
   8  -2   1   14.61    9.99
   9   1  -1    7.97    6.41
  -9  -1   1    4.54    6.60
   8   1  -1 3495.63  286.77
   7   1  -1   22.26    7.30
  -7  -1   1   18.03    7.12
   6   1  -1  557.30   45.94
  -6  -1   1  452.69   44.90
  -6  -1   1  489.74   47.31
   5   1  -1 2693.37  201.46
   5   1  -1 2666.97  205.25
  -5  -1   1 2363.04  206.16
  -5  -1   1 2253.20  204.45
  -4  -1   1 5915.39  478.93
   3   1  -1 1762.45  141.71
   3   1  -1 1760.10  143.81
  -3  -1   1 1621.69  144.04
  -3  -1   1 1861.19  143.93
   0   1  -1 1109.91   87.00
   0   1  -1  953.95   86.36
   0  -1   1 1126.09   86.90
   0  -1   1 1069.72   87.28
   0  -1   1 1043.95   86.43
  -4   1  -1  416.92   41.85
   4  -1   1  457.92   40.74
   4  -1   1  447.61   40.40
   4  -1   1  552.87   42.94
  -5   1  -1 1995.74  185.50
   5  -1   1 2221.75  183.67
   5  -1   1 2272.43  183.46
   5  -1   1 2491.04  186.60
  -6   1  -1   17.16    6.85
   6  -1   1   28.73    6.73
   6  -1   1   29.20    9.27
   6  -1   1   28.02    6.27
   7  -1   1 1236.47  109.20
   7  -1   1 1398.64  109.36
   7  -1   1 1263.48  113.18
   8  -1   1   49.91   11.23
   8  -1   1   75.57   15.00
   8   0  -1 1652.26  137.69
   7   0  -1 1074.83   91.20
   7   0  -1  995.22   87.49
  -6   0   1 1140.84   91.50
  -6   0   1  967.53   87.80
   5   0  -1 1467.96  130.25
   5   0  -1 1842.99  133.27
   5   0  -1 1753.95  130.08
  -5   0   1 1426.40  132.43
  -5   0   1 1571.82  134.88
   2   0  -1   34.55    5.06
   2   0  -1   23.51    4.27
  -2   0   1   33.30    4.40
   0   0  -1 1178.65   94.66
   0   0   1 1136.25   94.15
  -2   0  -1   14.69    3.28
  -2   0  -1   17.44    3.75
   2   0   1    9.67    2.85
   2   0   1   17.76    3.63
  -3   0  -1 1309.52  118.62
  -3   0  -1 1427.60  119.49
   3   0   1 1641.52  119.92
   3   0   1 1421.69  118.60
  -4   0  -1 6664.58  538.82
  -5   0  -1 2422.59  208.25
  -5   0  -1 2159.36  206.28
   5   0   1 2444.17  207.17
   5   0   1 2791.10  206.66
   5   0   1 2829.09  208.98
  -6   0  -1 1249.15  118.64
  -6   0  -1 1297.75  120.67
   6   0   1 1631.96  119.03
   6   0   1 1586.04  121.81
   6   0   1 1352.81  117.56
  -7   0  -1    4.01    4.73
   7   0   1    4.13    5.27
   7   0   1   -3.65    4.59
   7   0   1    0.74    4.07
  -8   0  -1   37.97    9.51
   8   0   1   59.35   14.01
   8   0   1   47.82    8.65
   8   0   1   47.75   10.80
  -9   0  -1    7.22   11.15
   9   0   1   34.70    8.99
   9   0   1   -0.68    6.88
   9   0   1   17.03    9.58
   9   0   1   24.27   10.20
   8  -1  -1  234.01   26.17
  -8   1   1  205.08   21.84
   7  -1  -1 3707.70  307.87
   7  -1  -1 3681.05  309.44
   7  -1  -1 4113.18  314.00
   6  -1  -1  510.92   43.14
   6  -1  -1  555.28   42.42
  -6   1   1  424.62   43.27
   5  -1  -1 1431.06  112.49
   5  -1  -1 1430.70  112.00
  -5   1   1 1231.35  115.11
  -4   1   1 4915.09  420.49
  -4   1   1 5545.53  423.25
  -2  -1  -1 1268.85  102.97
  -2  -1  -1 1125.81  102.72
   2   1   1 1341.98  103.05
   2   1   1 1287.76  102.92
  -5  -1  -1 1356.64  119.25
  -5  -1  -1 1201.25  117.52
   5   1   1 1494.25  119.62
   5   1   1 1620.91  118.46
  -6  -1  -1  315.41   32.35
  -6  -1  -1  289.90   30.54
   6   1   1  299.29   29.69
   6   1   1  388.26   33.50
  -7  -1  -1 1873.27  181.56
   7   1   1 2107.98  180.48
   7   1   1 2286.56  180.31
   7   1   1 2561.50  185.87
  -8  -1  -1   -2.04    3.94
   8   1   1    3.53    3.75
   8   1   1    0.65    6.68
   8   1   1   -3.99    7.11
   9   1   1  837.93   75.31
   8  -2  -1   28.31    8.54
   7  -2  -1  570.40   51.84
   6  -2  -1 3502.96  261.09
  -6   2   1 2861.37  262.13
   5  -2  -1 1955.79  151.24
   5  -2  -1 1771.44  147.96
   5  -2  -1 1895.00  153.16
   5  -2  -1 1919.00  150.53
  -5   2   1 1631.96  152.36
   4  -2  -1  349.97   29.37
   4  -2  -1  321.58   30.49
   4  -2  -1  334.72   29.41
  -4   2   1  287.30   30.07
   3  -2  -1 1404.54  107.88
   3  -2  -1 1285.88  108.86
   3  -2  -1 1423.62  109.64
  -3   2   1 1161.58  108.13
   1  -2  -1  100.52   10.12
   1  -2  -1   93.89    8.07
   1  -2  -1   86.48    8.21
  -1   2   1   90.53    7.82
  -1   2   1   75.82    8.19
  -1   2   1   98.65   10.10
  -1  -2  -1 2721.67  220.62
  -4  -2  -1 1537.56  132.28
  -4  -2  -1 1480.67  131.88
   4   2   1 1635.94  132.33
   4   2   1 1830.56  132.52
   4   2   1 1485.52  130.93
  -5  -2  -1 3007.33  239.18
  -5  -2  -1 2710.92  237.85
   5   2   1 2713.41  236.49
   5   2   1 3215.03  239.27
  -6  -2  -1  243.43   28.27
  -6  -2  -1  292.38   30.04
   6   2   1  267.77   27.01
   6   2   1  352.59   30.16
   6   2   1  292.40   30.20
  -7  -2  -1  641.92   66.27
   7   2   1  755.67   64.71
   7   2   1  886.86   70.00
  -8  -2  -1   62.31   13.07
   8   2   1   72.85   10.30
   8   2   1   95.03   15.79
   9   2   1  553.93   53.86
   7  -3  -1  220.25   25.42
   7  -3  -1  270.59   25.99
   6  -3  -1 4293.52  323.53
   6  -3  -1 4117.58  325.80
  -6   3   1 3486.71  325.07
   5  -3  -1   42.36    9.33
   5  -3  -1   35.02    6.64
   5  -3  -1   55.01   10.04
  -5   3   1   33.59    8.66
   4  -3  -1  287.37   24.34
   4  -3  -1  288.91   27.05
   4  -3  -1  326.55   27.47
  -4   3   1  233.16   26.07
  -4   3   1  244.46   26.54
   3  -3  -1  171.65   17.80
   3  -3  -1  172.54   17.03
   3  -3  -1  158.87   14.56
  -3   3   1  168.50   17.63
   1  -3  -1  109.42   10.74
   1  -3  -1  141.35   14.34
  -1   3   1  109.29   11.02
  -1   3   1  134.02   14.03
   0  -3  -1   61.24    7.37
   0  -3  -1   49.12    5.79
   0   3   1   64.29    8.94
   0   3   1   67.21    7.56
  -2  -3  -1  707.36   63.09
  -2  -3  -1  725.89   62.15
   2   3   1  793.87   63.14
   2   3   1  731.75   62.91
  -3  -3  -1   22.85    5.87
  -3  -3  -1   28.42    6.94
  -3  -3  -1   24.41    5.82
   3   3   1   32.77    7.20
   3   3   1   31.02    6.59
  -4  -3  -1 1423.45  123.81
  -4  -3  -1 1513.56  123.70
   4   3   1 1495.30  122.58
  -5  -3  -1 6649.92  562.28
  -5  -3  -1 7236.60  562.92
  -6  -3  -1  469.14   45.62
  -6  -3  -1  383.61   44.03
   6   3   1  551.76   45.85
   6   3   1  496.78   42.87
  -7  -3  -1  241.15   28.99
   7   3   1  306.24   30.94
   7   3   1  280.57   26.89
   8   3   1    1.86    8.12
   8   3   1    3.88    4.62
   9   3   1  986.40   92.95
   7  -4  -1  137.51   13.70
   6  -4  -1 2467.88  183.67
   6  -4  -1 2461.15  182.76
   6  -4  -1 2009.87  177.20
  -6   4   1 1849.20  182.40
   5  -4  -1  185.21   16.54
   5  -4  -1  222.47   22.66
  -5   4   1  182.40   21.42
  -5   4   1  179.76   21.63
   4  -4  -1   24.37    8.48
   4  -4  -1   17.62    6.12
  -4   4   1   23.19    6.99
  -4   4   1   22.55    6.90
   3  -4  -1  250.72   21.77
   3  -4  -1  251.69   24.18
   3  -4  -1  254.31   19.24
   3  -4  -1  180.55   19.03
  -3   4   1  208.76   23.40
  -3   4   1  192.11   22.65
   2  -4  -1 4583.98  381.91
   2  -4  -1 4919.68  381.66
   2  -4  -1 5141.00  385.55
  -2   4   1 4316.57  382.41
   0  -4  -1 1432.83  115.45
   0  -4  -1 1491.03  117.53
   0  -4  -1 1193.54  113.32
   0   4   1 1423.42  115.01
   0   4   1 1452.09  116.96
  -2  -4  -1 1321.41  110.62
  -2  -4  -1 1217.15  112.33
  -2  -4  -1 1301.46  112.33
   2   4   1 1429.13  112.29
   2   4   1 1432.04  112.54
  -3  -4  -1  584.67   49.21
  -3  -4  -1  538.57   50.31
  -3  -4  -1  453.20   49.06
   3   4   1  608.35   50.31
   3   4   1  610.71   50.04
  -4  -4  -1  348.17   36.26
  -4  -4  -1  378.10   35.66
   4   4   1  380.04   35.30
   4   4   1  395.06   36.57
  -5  -4  -1 3541.30  321.67
   5   4   1 4055.52  320.44
   5   4   1 4184.20  321.85
  -6  -4  -1 1796.41  174.16
   6   4   1 2392.62  175.58
   6   4   1 2070.28  172.50
   7   4   1  168.30   22.45
   7   4   1  159.59   18.59
   8   4   1   12.05    6.64
   9   4   1  121.14   21.72
   6  -5  -1   -6.59    5.39
  -6   5   1   -5.22    6.25
   5  -5  -1 1758.30  137.16
   5  -5  -1 1799.45  135.40
  -5   5   1 1453.59  135.41
  -5   5   1 1419.14  135.56
   4  -5  -1 1120.84   89.29
   4  -5  -1 1089.60   91.85
  -4   5   1  969.29   89.71
  -4   5   1 1019.07   91.52
   3  -5  -1   31.01    9.07
   3  -5  -1   36.61    6.65
   3  -5  -1   33.38    5.46
  -3   5   1   28.35    9.71
  -3   5   1   28.86    6.65
   2  -5  -1    4.07    2.62
   2  -5  -1   -0.85    5.61
   2  -5  -1    2.07    3.46
  -2   5   1    3.25    6.41
   1  -5  -1  874.02   71.48
   1  -5  -1  892.19   74.81
   1  -5  -1  746.48   69.67
  -1   5   1  883.62   74.52
   0  -5  -1 2533.73  237.01
   0  -5  -1 3133.84  242.28
   0  -5  -1 2886.71  239.09
   0   5   1 2910.73  238.85
   0   5   1 3221.69  241.83
  -1  -5  -1  153.60   18.82
  -1  -5  -1  161.41   18.06
   1   5   1  144.76   17.09
   1   5   1  163.78   18.78
  -2  -5  -1 5463.37  447.03
  -2  -5  -1 5488.54  444.62
  -2  -5  -1 5304.68  447.76
   2   5   1 5749.05  446.64
  -3  -5  -1  651.81   64.29
  -3  -5  -1  687.97   64.82
  -3  -5  -1  732.12   63.00
   3   5   1  802.08   64.95
   3   5   1  744.93   64.63
  -4  -5  -1  152.70   18.18
  -4  -5  -1  155.62   19.39
  -4  -5  -1  112.25   17.06
   4   5   1  169.74   19.30
   4   5   1  184.03   20.75
  -5  -5  -1  529.01   52.29
  -5  -5  -1  533.45   53.75
   5   5   1  603.42   53.79
   5   5   1  587.70   51.97
   6   5   1 1218.51  105.81
   6   5   1 1264.32  108.27
   7   5   1  431.42   49.63
   7   5   1  477.07   43.76
   8   5   1   15.39    8.60
   8   5   1    7.55    9.79
   5  -6  -1  854.43   68.32
  -5   6   1  681.99   69.65
   4  -6  -1  133.20   15.97
  -4   6   1  128.22   18.83
  -4   6   1  140.76   16.65
   3  -6  -1  182.37   18.45
   3  -6  -1  176.45   18.08
  -3   6   1  164.71   18.75
  -3   6   1  175.99   23.09
   2  -6  -1   42.74    8.18
   2  -6  -1   54.86    7.34
  -2   6   1   43.43   12.61
   1  -6  -1 1341.19  114.56
   1  -6  -1 1331.04  110.81
   1  -6  -1 1226.07  108.66
  -1   6   1 1415.90  115.00
   0  -6  -1  119.46   16.29
   0  -6  -1  113.83   13.57
   0  -6  -1  155.28   19.55
   0   6   1  155.57   18.88
   0   6   1  132.94   13.28
  -1  -6  -1  727.36   67.59
  -1  -6  -1  779.12   71.85
  -1  -6  -1  824.67   70.06
   1   6   1  768.81   69.01
   1   6   1  869.23   72.20
  -2  -6  -1  552.67   55.37
  -2  -6  -1  587.27   51.70
   2   6   1  617.21   55.63
   2   6   1  604.25   54.27
  -3  -6  -1  121.39   14.81
  -3  -6  -1  101.81   16.00
  -3  -6  -1   93.96   15.21
   3   6   1  116.64   17.33
   3   6   1  109.08   16.13
  -4  -6  -1  343.01   32.93
  -4  -6  -1  279.79   33.31
   4   6   1  343.33   34.91
   4   6   1  331.43   34.11
  -5  -6  -1   99.96   16.44
  -5  -6  -1   70.88   15.11
   5   6   1  122.12   17.25
   5   6   1  113.43   17.29
   6   6   1 1806.91  143.80
   6   6   1 1549.77  148.25
   7   6   1  359.81   40.35
   7   6   1  368.05   37.44
   8   6   1  201.14   25.57
   8   6   1  247.08   29.42
   4  -7  -1  410.64   36.95
  -4   7   1  508.80   46.78
  -3   7   1  311.49   35.36
   2  -7  -1  717.97   59.33
   2  -7  -1  675.46   61.32
  -2   7   1  708.61   70.27
   1  -7  -1    2.45    3.02
   1  -7  -1    2.72    5.05
  -1   7   1    2.43    7.19
   0  -7  -1    7.87    4.01
   0   7   1   -0.11    2.82
   0   7   1    0.46    8.33
  -1  -7  -1    0.94    3.23
  -1  -7  -1    3.29    6.12
   1   7   1   -1.36    4.88
   1   7   1    7.64    9.13
   1   7   1    2.73    4.78
  -2  -7  -1   37.25    8.31
  -2  -7  -1   34.50    8.68
   2   7   1   59.29   13.56
   2   7   1   58.56   11.44
   2   7   1   49.99   10.88
  -3  -7  -1 1492.70  132.58
   3   7   1 1605.17  135.48
   3   7   1 1662.34  136.72
  -4  -7  -1  434.05   43.76
   4   7   1  440.99   45.48
   4   7   1  509.12   47.37
   5   7   1   82.19   16.57
   5   7   1   60.48   15.33
   6   7   1   70.26   16.27
   6   7   1   85.85   17.61
   7   7   1 1242.61  108.32
   7   7   1 1153.43  104.86
   3  -8  -1   40.16    6.76
   3  -8  -1   30.38    8.80
  -3   8   1   74.20   16.92
   2  -8  -1  276.06   30.48
   2  -8  -1  299.18   26.71
  -2   8   1  347.11   36.39
   1  -8  -1  768.92   72.01
   1  -8  -1  816.85   68.34
  -1   8   1  869.51   77.58
   0  -8  -1  357.46   31.89
   0   8   1  340.24   38.60
   0   8   1  330.24   29.86
  -1  -8  -1  576.42   54.60
   1   8   1  666.17   61.59
   1   8   1  620.54   53.98
  -2  -8  -1   47.93   10.30
  -2  -8  -1   48.14   10.10
   2   8   1   51.82   11.63
   2   8   1   57.41   14.61
   2   8   1   51.03   12.60
  -3  -8  -1 2073.52  180.39
   3   8   1 2270.30  182.17
   3   8   1 2105.63  184.23
   3   8   1 2256.35  185.49
  -4  -8  -1   10.98    8.63
   4   8   1   25.68   11.65
   4   8   1    6.37    9.57
   4   8   1   17.90   10.28
   5   8   1   21.17   13.24
   5   8   1   13.23    9.99
   6   8   1   -3.77    9.06
   6   8   1   -5.30    9.36
   0  -9  -1   -3.62    3.27
   0   9   1    7.75   10.24
  -1  -9  -1  584.82   54.56
   1   9   1  654.89   62.85
  -2  -9  -1  144.98   18.99
  -2  -9  -1  172.31   21.01
   2   9   1  198.26   20.19
   2   9   1  160.15   26.32
  -3  -9  -1  149.67   21.03
  -3  -9  -1  104.91   18.43
   3   9   1  180.89   21.11
   3   9   1  157.53   24.09
   4   9   1   22.74    9.40
   4   9   1    4.89   11.20
   3   8  -2   25.59    9.14
   3   8  -2   16.87   11.64
  -3  -8   2    6.73    9.13
   2   8  -2  275.95   35.38
   2   8  -2  252.65   28.81
  -2  -8   2  283.40   33.32
   1   8  -2   14.78   11.54
   1   8  -2   17.79    5.82
  -1  -8   2   12.78    8.26
   0   8  -2   59.99   18.48
   0  -8   2   57.53   14.84
   5   7  -2  346.32   39.56
   5   7  -2  400.36   42.25
   4   7  -2  161.43   22.92
   4   7  -2  185.29   24.81
   3   7  -2  346.98   35.91
   3   7  -2  340.53   38.08
  -3  -7   2  290.13   36.63
   2   7  -2   -2.59    5.20
   2   7  -2   -6.89    7.84
  -2  -7   2    3.73    7.86
   1   7  -2 1509.30  127.31
   1   7  -2 1366.24  120.71
  -1  -7   2 1406.65  124.65
   0   7  -2   10.24   10.05
   0   7  -2   14.63    5.50
   0  -7   2   14.15    8.84
  -1   7  -2  837.90   76.57
  -1   7  -2  982.64   86.81
   1  -7   2  934.60   82.26
  -2   7  -2    0.65    6.64
   2  -7   2   -2.40    5.81
  -3   7  -2   33.70   12.86
   3  -7   2   20.59    9.54
   6   6  -2   12.69    7.90
   6   6  -2    7.92    9.67
   5   6  -2 2396.79  205.84
   5   6  -2 2533.05  209.27
   4   6  -2   -3.08    6.33
   4   6  -2   -6.00    6.55
   3   6  -2  736.82   70.41
   3   6  -2  780.72   70.00
   2   6  -2  554.74   54.62
   2   6  -2  645.76   58.35
  -2  -6   2  573.15   56.86
   1   6  -2 3182.43  280.08
   1   6  -2 3671.28  285.54
  -1  -6   2 3427.63  283.83
   0   6  -2 1372.19  115.61
   0  -6   2 1227.69  112.59
  -1   6  -2   16.64    5.70
  -1   6  -2   13.05   10.98
   1  -6   2    7.93    8.86
   1  -6   2    3.13    6.47
  -2   6  -2  960.05   88.52
   2  -6   2  945.70   83.31
   2  -6   2  956.52   84.83
  -3   6  -2   -6.98    5.84
   3  -6   2   -8.62    5.73
   3  -6   2    5.14    5.58
  -4   6  -2   26.31   11.19
   4  -6   2    2.61    8.44
   4  -6   2   18.39    9.00
   7   5  -2  558.25   58.12
   6   5  -2  437.91   42.77
   6   5  -2  388.83   36.66
   6   5  -2  373.56   39.80
  -6  -5   2  314.08   35.11
   5   5  -2  418.80   41.38
   5   5  -2  450.30   45.64
   4   5  -2  121.29   17.50
   4   5  -2  142.33   20.18
  -4  -5   2  122.74   17.36
   3   5  -2   51.69   12.04
   3   5  -2   41.19   11.78
  -3  -5   2   58.13   12.36
   2   5  -2    4.17    7.92
   2   5  -2   14.74    7.66
  -2  -5   2    8.61    8.29
  -2  -5   2   11.07    8.31
   1   5  -2 1010.09   93.35
   1   5  -2 1108.85   96.84
  -1  -5   2 1155.52   95.94
  -1  -5   2 1235.93   95.92
  -1  -5   2  977.32   95.45
   0   5  -2  122.53   20.25
   0   5  -2  100.31   13.21
   0  -5   2  125.60   16.83
   0  -5   2  117.60   16.30
   0  -5   2  100.44   15.70
  -1   5  -2  139.67   20.61
  -1   5  -2  110.85   14.21
   1  -5   2  142.01   17.74
   1  -5   2  162.31   20.14
  -2   5  -2  517.06   49.89
   2  -5   2  465.77   44.76
   2  -5   2  496.36   46.88
  -3   5  -2   18.22    7.96
  -3   5  -2   16.87    8.36
   3  -5   2   29.59    7.41
   3  -5   2   23.04    7.99
  -4   5  -2  167.23   25.93
  -4   5  -2  158.79   21.56
   4  -5   2  162.54   18.60
   4  -5   2  186.31   22.01
   4  -5   2  143.37   19.33
   5  -5   2  403.95   41.79
   5  -5   2  481.18   45.29
   5  -5   2  454.72   40.69
   6  -5   2   62.56   11.43
   6  -5   2   90.27   19.30
   8   4  -2  181.69   17.18
   8   4  -2  195.12   29.39
   7   4  -2 2694.42  231.58
   7   4  -2 2842.35  234.52
   6   4  -2 2195.82  185.07
   6   4  -2 2046.84  180.21
   6   4  -2 2377.56  188.34
   5   4  -2  471.95   43.43
   5   4  -2  439.47   41.84
  -5  -4   2  339.81   36.96
   4   4  -2  337.50   38.14
   4   4  -2  381.84   37.10
   4   4  -2  437.90   40.86
  -4  -4   2  402.84   39.39
   3   4  -2 2675.92  239.66
   3   4  -2 3102.89  242.18
  -3  -4   2 2912.04  239.89
  -3  -4   2 3004.93  241.32
   2   4  -2  207.71   24.09
   2   4  -2  222.79   24.70
  -2  -4   2  235.62   24.37
  -2  -4   2  253.00   25.27
   1   4  -2  481.43   45.96
   1   4  -2  474.32   44.00
  -1  -4   2  541.80   45.59
  -1  -4   2  447.55   44.29
  -1  -4   2  476.17   45.71
   0   4  -2  438.00   43.06
   0   4  -2  420.16   39.67
   0  -4   2  498.08   42.82
   0  -4   2  413.92   41.87
   0  -4   2  456.54   41.34
  -1   4  -2 2715.89  247.82
  -1   4  -2 3351.03  253.32
   1  -4   2 3163.48  249.82
   1  -4   2 3010.22  251.54
  -2   4  -2 1651.55  137.41
  -2   4  -2 1478.76  135.48
   2  -4   2 1696.12  135.89
   2  -4   2 1666.89  135.84
   2  -4   2 1553.46  133.49
  -3   4  -2 1143.12  110.67
  -3   4  -2 1154.70  109.70
   3  -4   2 1309.23  110.04
   3  -4   2 1411.20  104.95
   3  -4   2 1351.24  110.17
  -4   4  -2  573.87   55.50
  -4   4  -2  568.35   57.64
   4  -4   2  606.77   48.50
   4  -4   2  604.73   54.55
   4  -4   2  538.33   52.89
  -5   4  -2  826.81   84.87
   5  -4   2 1086.50   85.94
   5  -4   2  945.80   77.96
   6  -4   2  149.78   21.36
   8   3  -2  470.05   51.63
   8   3  -2  489.74   50.90
   7   3  -2 2994.80  232.54
   7   3  -2 2469.66  221.47
   7   3  -2 2846.45  229.10
   6   3  -2 2147.04  187.44
   6   3  -2 2139.23  182.49
   6   3  -2 2474.85  190.70
   5   3  -2 3315.21  253.08
   5   3  -2 2930.02  246.76
   5   3  -2 3086.13  251.02
  -5  -3   2 3361.70  251.38
  -5  -3   2 2553.43  247.51
   4   3  -2 1377.42  120.65
   4   3  -2 1617.63  122.93
   4   3  -2 1350.35  117.85
  -4  -3   2 1292.55  117.65
  -4  -3   2 1517.13  121.00
   3   3  -2   86.37   13.24
   3   3  -2   64.02   10.26
  -3  -3   2   73.02   10.60
  -3  -3   2   83.41   11.97
   2   3  -2 1342.41  109.40
   2   3  -2 1194.20  107.56
  -2  -3   2 1311.09  107.72
  -2  -3   2 1298.16  108.51
  -1  -3   2 5890.95  492.18
  -1  -3   2 6277.05  492.40
   0   3  -2   18.09    4.91
   0   3  -2   29.19    7.62
   0  -3   2   27.03    6.44
   0  -3   2   26.50    6.64
   0  -3   2   23.50    7.26
  -1   3  -2   67.60   12.49
  -1   3  -2   64.10    8.33
  -1   3  -2   49.26   10.16
   1  -3   2   68.00    8.27
   1  -3   2   64.32    9.87
   1  -3   2   68.97   10.93
  -2   3  -2  954.56   84.36
  -2   3  -2  914.49   84.64
   2  -3   2 1074.99   84.36
   2  -3   2  969.54   84.22
  -3   3  -2 2301.51  190.08
  -3   3  -2 2133.69  190.01
   3  -3   2 2381.63  189.87
   3  -3   2 2334.11  189.23
  -4   3  -2  128.27   17.77
   4  -3   2  151.08   16.94
   4  -3   2  133.88   16.75
   4  -3   2  150.48   17.99
   4  -3   2  158.73   18.54
  -5   3  -2  562.99   59.71
   5  -3   2  552.20   57.10
   5  -3   2  766.76   61.48
   5  -3   2  713.22   58.02
   5  -3   2  696.35   59.62
   6  -3   2  547.40   49.31
   6  -3   2  625.76   55.02
   6  -3   2  535.04   50.22
   7  -3   2  104.50   20.78
   7  -3   2  153.61   18.48
   7  -3   2  151.57   16.92
   8   2  -2  100.53   15.55
   8   2  -2   93.69   19.76
   7   2  -2   -1.92    5.29
  -7  -2   2    2.04    5.28
   6   2  -2  153.74   20.24
   6   2  -2  195.85   23.56
  -6  -2   2  150.11   19.12
   5   2  -2 7285.11  610.27
  -5  -2   2 7936.20  610.58
  -5  -2   2 7398.76  611.09
   4   2  -2  664.19   60.17
   4   2  -2  681.60   63.44
   4   2  -2  776.56   65.30
  -4  -2   2  811.81   64.01
  -4  -2   2  703.18   63.53
   2   2  -2   33.23    6.25
   2   2  -2   31.89    7.99
  -2  -2   2   24.26    6.12
  -2  -2   2   32.54    6.26
  -1  -2   2 4765.93  385.71
  -1   2  -2  699.69   62.35
  -1   2  -2  745.59   64.29
  -1   2  -2  746.14   64.26
   1  -2   2  800.39   63.93
   1  -2   2  741.98   63.42
   1  -2   2  734.11   64.28
  -2   2  -2 1863.88  147.24
  -2   2  -2 1681.56  146.74
   2  -2   2 1716.43  144.45
   2  -2   2 1813.25  146.33
   2  -2   2 1785.01  146.88
  -3   2  -2  806.05   71.43
   3  -2   2  751.59   70.46
   3  -2   2  892.45   71.77
   3  -2   2  844.55   70.70
  -4   2  -2    4.29    4.01
   4  -2   2    2.54    3.75
   4  -2   2    0.32    2.35
   4  -2   2   -3.84    3.37
  -5   2  -2   95.24   16.34
   5  -2   2  158.67   18.59
   5  -2   2  151.18   16.80
   5  -2   2  133.76   15.57
   6  -2   2  101.24   14.11
   6  -2   2  126.70   16.89
   6  -2   2  123.97   15.58
   7  -2   2  458.09   44.62
   7  -2   2  385.53   40.05
   8  -2   2 1281.87  112.00
   8  -2   2 1221.59  105.64
   8   1  -2  150.18   21.41
  -8  -1   2   96.07   15.37
   7   1  -2  259.58   29.28
   7   1  -2  234.18   24.85
  -7  -1   2  213.42   24.18
   6   1  -2  861.58   73.39
   6   1  -2  835.99   70.62
  -6  -1   2  735.45   69.68
   5   1  -2  426.48   39.59
   5   1  -2  360.94   38.09
  -5  -1   2  422.25   36.89
  -5  -1   2  372.45   37.63
   4   1  -2   39.00    8.02
   4   1  -2   61.91   11.02
  -4  -1   2   51.24    8.56
  -4  -1   2   35.17    7.97
   2   1  -2  137.38   15.48
  -2  -1   2  138.47   15.42
  -2  -1   2  138.57   13.20
   2  -1   2   12.90    4.55
   2  -1   2   23.00    5.28
   2  -1   2   20.88    4.80
  -3   1  -2 1533.32  128.48
   3  -1   2 1560.36  127.65
   3  -1   2 1619.03  128.65
   3  -1   2 1459.78  127.71
  -4   1  -2 1056.11   94.13
   4  -1   2 1261.41   95.00
   4  -1   2 1087.33   93.00
   4  -1   2 1031.02   92.81
  -5   1  -2 2189.24  198.40
   5  -1   2 2748.74  199.70
   5  -1   2 2399.39  196.83
   5  -1   2 2264.68  196.75
  -6   1  -2   29.36    9.84
   6  -1   2   39.77    8.84
   6  -1   2   44.58   10.82
   6  -1   2   40.32    8.02
   7  -1   2  564.00   50.21
   7  -1   2  536.97   53.09
   7  -1   2  537.06   49.45
   8  -1   2  885.57   75.33
   8  -1   2  874.60   80.23
   8  -1   2  823.49   75.71
  -8   0   2  520.36   47.70
  -7   0   2  660.18   58.05
   6   0  -2    2.81    6.54
   6   0  -2   -1.99    3.33
  -6   0   2   -4.34    2.22
   5   0  -2  746.11   64.48
   5   0  -2  814.04   67.63
  -5   0   2  780.24   69.42
  -5   0   2  708.49   64.24
   4   0  -2  860.71   70.40
   4   0  -2  717.33   65.33
  -4   0   2  809.91   65.75
  -4   0   2  737.15   66.87
   3   0  -2  538.88   47.49
  -3   0   2  465.61   46.40
  -3   0   2  599.40   46.13
   2   0  -2  206.04   20.71
  -2   0   2  220.70   17.99
  -2   0   2  215.92   19.71
   1   0  -2   -0.59    2.42
  -1   0   2   -0.56    1.23
   0   0  -2  559.78   47.70
   0   0   2  565.63   47.64
   0   0   2  574.61   48.24
  -1   0  -2   -0.33    1.55
   1   0   2    0.45    1.49
   1   0   2    1.56    1.91
  -4   0  -2  288.68   28.41
  -4   0  -2  326.17   29.50
   4   0   2  296.66   28.21
   4   0   2  291.51   28.07
  -5   0  -2   10.23    4.91
  -5   0  -2    8.22    6.09
   5   0   2   22.73    5.92
   5   0   2   21.74    5.71
   5   0   2   29.40    7.70
  -6   0  -2  265.12   29.04
  -6   0  -2  264.33   30.28
   6   0   2  302.08   28.73
   6   0   2  351.96   31.85
  -7   0  -2  946.42   96.78
   7   0   2 1180.67  100.05
   7   0   2 1120.59   96.44
   7   0   2 1289.77   97.44
   8   0   2   -5.20    6.16
   8   0   2    9.17    4.83
   8   0   2   -1.15    5.32
   9   0   2   59.34   13.32
   9   0   2   51.44   15.98
   8  -1  -2 1324.58  111.24
  -8   1   2 1218.68  112.09
   7  -1  -2  404.40   40.35
   6  -1  -2  455.98   38.34
  -6   1   2  337.68   33.87
  -6   1   2  392.99   37.75
   5  -1  -2 2348.20  182.93
  -5   1   2 2069.90  182.45
   4  -1  -2  499.56   42.56
  -4   1   2  477.60   42.30
  -4   1   2  444.16   39.72
  -1   1   2 2446.26  198.11
   0  -1  -2   56.07    6.91
   0   1   2   62.39    7.23
   0   1   2   60.08    7.16
   0   1   2   78.28    7.30
  -4  -1  -2   36.07    7.43
  -4  -1  -2   30.17    6.75
   4   1   2   38.17    7.92
   4   1   2   47.51    7.91
  -5  -1  -2 3757.51  322.43
  -5  -1  -2 3466.33  321.18
   5   1   2 4197.58  321.68
   5   1   2 4389.99  323.10
  -6  -1  -2 1502.05  148.91
  -6  -1  -2 1691.30  150.88
   6   1   2 1961.25  149.82
   6   1   2 2039.93  151.88
  -7  -1  -2  280.81   34.44
   7   1   2  402.59   37.92
   7   1   2  412.16   36.01
   7   1   2  359.25   34.43
  -8  -1  -2  662.26   67.75
   8   1   2  827.97   66.96
   8   1   2  717.13   67.05
   8   1   2  821.30   71.60
   9   1   2    8.15    9.53
   9   1   2   20.59    6.47
   9   1   2   13.52    9.37
   8  -2  -2   69.35   12.82
   7  -2  -2  114.36   15.13
   6  -2  -2  342.38   30.94
   6  -2  -2  395.97   35.22
  -6   2   2  376.36   36.60
   5  -2  -2   47.77    8.83
   5  -2  -2   43.17    5.94
  -5   2   2   32.40    7.96
   4  -2  -2  711.96   57.44
   4  -2  -2  675.42   55.77
  -4   2   2  605.47   57.44
   1  -2  -2 2879.00  233.11
   0  -2  -2 1584.66  146.86
   0  -2  -2 1735.00  147.73
   0   2   2 1932.11  147.86
   0   2   2 1877.81  147.41
   0   2   2 1932.88  146.25
   0   2   2 1816.58  147.03
  -1  -2  -2 1454.42  125.92
  -1  -2  -2 1367.81  126.19
  -1  -2  -2 1589.91  125.16
   1   2   2 1618.16  126.61
   1   2   2 1679.53  126.27
  -2  -2  -2 3407.89  258.97
  -2  -2  -2 2986.23  259.18
  -3  -2  -2 2527.22  224.71
  -3  -2  -2 2783.76  224.71
   3   2   2 2903.38  224.66
   3   2   2 2604.84  224.98
   3   2   2 2974.21  225.22
  -4  -2  -2 1634.96  134.85
  -4  -2  -2 1433.26  134.15
   4   2   2 1530.76  134.41
   4   2   2 1699.96  134.71
   4   2   2 1816.52  135.08
  -5  -2  -2  539.33   50.46
  -5  -2  -2  458.03   49.15
   5   2   2  531.33   49.56
   5   2   2  643.06   51.11
   5   2   2  617.48   50.26
  -6  -2  -2    3.25    4.07
  -6  -2  -2    4.87    3.78
   6   2   2    2.16    4.76
   6   2   2    2.45    4.60
   6   2   2    3.80    5.27
  -7  -2  -2   11.92    5.61
   7   2   2   18.74    7.96
   7   2   2   30.41   10.01
   8   2   2  512.78   46.61
   8   2   2  431.95   44.03
   8   2   2  491.29   48.00
   9   2   2   -2.61    8.18
   9   2   2    6.28    4.72
   9   2   2  -10.60    8.98
   7  -3  -2   38.32    7.85
   7  -3  -2   41.49    8.52
   6  -3  -2  277.19   27.11
  -6   3   2  235.31   27.81
   5  -3  -2 1542.21  129.10
   5  -3  -2 1663.43  129.69
  -5   3   2 1480.37  131.08
   4  -3  -2 4458.10  361.44
   4  -3  -2 4741.55  362.67
  -4   3   2 4318.76  361.93
  -4   3   2 4375.49  362.96
   3  -3  -2 3370.20  296.84
  -3   3   2 3663.24  298.28
  -3   3   2 4012.22  298.64
   2  -3  -2   15.19    4.67
   2  -3  -2   10.59    2.63
  -2   3   2    9.32    2.93
  -2   3   2   12.85    4.84
  -1  -3  -2 2109.98  182.34
  -1  -3  -2 2074.50  186.26
  -1  -3  -2 2221.21  184.19
   1   3   2 2586.34  184.38
   1   3   2 2311.38  184.81
  -2  -3  -2  489.47   43.56
  -2  -3  -2  487.67   42.14
  -2  -3  -2  450.21   43.34
   2   3   2  506.55   42.08
   2   3   2  486.51   43.55
   2   3   2  552.94   43.66
  -3  -3  -2 1926.57  160.13
  -3  -3  -2 1778.24  160.77
   3   3   2 1881.27  160.74
   3   3   2 2116.91  161.18
   3   3   2 2061.00  160.12
  -4  -3  -2  784.48   71.79
  -4  -3  -2  830.34   71.52
   4   3   2  809.59   71.37
   4   3   2  899.80   71.61
  -5  -3  -2 1935.14  158.97
  -5  -3  -2 1725.42  158.26
   5   3   2 2161.64  159.11
   5   3   2 1802.53  157.59
  -6  -3  -2 3522.91  302.17
   6   3   2 3490.87  300.49
   6   3   2 4026.10  302.51
  -7  -3  -2   65.23   13.56
   7   3   2  100.99   12.89
   7   3   2   79.43   15.20
   8   3   2  823.31   80.98
   8   3   2 1113.00   85.38
   8   3   2  915.36   85.19
   9   3   2    7.97    5.52
   9   3   2   -3.22    9.88
   7  -4  -2   20.58    3.99
   7  -4  -2   -3.90    5.31
   6  -4  -2  110.04   12.32
   6  -4  -2  121.28   15.07
  -6   4   2  102.54   15.81
   5  -4  -2 3470.64  286.91
   5  -4  -2 3903.66  290.75
  -5   4   2 3223.17  289.17
  -5   4   2 3618.30  290.97
   4  -4  -2  542.35   47.16
   4  -4  -2  600.16   51.32
  -4   4   2  571.83   50.43
   3  -4  -2  517.41   47.33
  -3   4   2  561.17   47.45
  -3   4   2  496.03   45.35
   2  -4  -2  768.70   60.99
   2  -4  -2  573.52   55.94
  -2   4   2  660.95   57.14
  -2   4   2  803.71   60.67
   1  -4  -2  417.24   38.51
   1  -4  -2  391.68   35.27
  -1   4   2  474.92   38.57
  -1   4   2  372.01   34.00
  -1   4   2  435.81   35.31
   0  -4  -2  448.59   43.26
   0  -4  -2  487.45   45.63
   0   4   2  531.02   45.20
   0   4   2  551.58   43.49
  -1  -4  -2  228.62   23.35
  -1  -4  -2  226.09   24.37
  -1  -4  -2  229.40   20.87
   1   4   2  267.91   24.40
   1   4   2  272.97   23.59
  -2  -4  -2 5232.53  424.68
  -3  -4  -2  213.75   21.52
  -3  -4  -2  210.18   19.94
  -3  -4  -2  152.44   20.11
   3   4   2  225.25   21.47
  -4  -4  -2  188.56   23.31
  -4  -4  -2  232.37   23.28
   4   4   2  239.91   23.84
   4   4   2  243.87   24.53
  -5  -4  -2 2834.99  248.10
   5   4   2 3242.68  248.77
   5   4   2 2972.91  247.56
  -6  -4  -2  777.61   80.04
  -6  -4  -2  883.10   80.76
   6   4   2 1008.83   80.88
   6   4   2  963.05   79.38
   7   4   2  402.92   37.58
   7   4   2  306.85   33.51
   8   4   2   45.29   10.38
   8   4   2   43.55   13.11
   9   4   2    2.40    5.70
   9   4   2   -9.01    8.83
   6  -5  -2  310.21   30.71
  -6   5   2  243.27   29.78
   5  -5  -2    4.64    6.98
  -5   5   2   13.79    5.74
  -5   5   2    2.72    5.36
   4  -5  -2  325.79   34.83
  -4   5   2  282.35   29.37
  -4   5   2  318.82   31.27
   3  -5  -2   26.26    8.58
  -3   5   2   21.42    5.30
  -3   5   2   27.31    8.34
   2  -5  -2 2008.70  163.42
   2  -5  -2 1757.91  158.24
  -2   5   2 1909.62  158.45
  -2   5   2 2161.87  163.22
   1  -5  -2  104.77   12.10
   1  -5  -2  143.76   16.71
  -1   5   2  113.47   14.91
  -1   5   2  109.41   12.15
   0  -5  -2 1553.55  140.76
   0  -5  -2 1669.58  143.89
   0   5   2 1768.61  140.75
   0   5   2 1854.43  143.45
  -1  -5  -2 1350.00  119.97
  -1  -5  -2 1355.19  121.95
  -1  -5  -2 1380.26  116.89
   1   5   2 1542.34  119.93
   1   5   2 1573.87  121.72
  -2  -5  -2 4122.01  344.44
  -2  -5  -2 4036.59  348.30
  -2  -5  -2 4159.81  347.36
   2   5   2 4742.36  348.21
  -3  -5  -2 1525.52  133.55
  -3  -5  -2 1564.38  131.24
  -3  -5  -2 1344.38  132.93
   3   5   2 1665.89  133.45
   3   5   2 1830.41  133.73
  -4  -5  -2 1356.49  117.87
  -4  -5  -2 1345.94  122.79
   4   5   2 1482.60  119.31
   4   5   2 1417.22  118.87
  -5  -5  -2 1731.15  146.30
  -5  -5  -2 1502.34  143.77
   5   5   2 1888.86  144.20
   5   5   2 1675.60  142.68
   6   5   2  128.25   19.73
   6   5   2  125.94   16.98
   7   5   2  754.17   67.27
   7   5   2  683.46   64.14
   8   5   2    3.78    7.27
   8   5   2   -2.47    8.51
   9   5   2   36.76   10.89
   9   5   2   60.03   16.21
  -5   6   2  341.57   35.69
  -5   6   2  385.89   37.47
  -4   6   2  146.74   19.97
  -4   6   2  156.61   17.17
   3  -6  -2   70.23    7.53
  -3   6   2  105.15   15.04
   2  -6  -2  169.09   18.49
   2  -6  -2  192.20   23.43
  -2   6   2  245.82   24.80
   1  -6  -2 2420.95  201.81
   1  -6  -2 2175.05  196.96
  -1   6   2 2661.52  201.47
   0  -6  -2   34.87    7.63
   0  -6  -2   36.09    3.87
   0  -6  -2   40.55   10.79
   0   6   2   34.44    7.60
   0   6   2   50.05   11.82
  -1  -6  -2   34.83    8.48
  -1  -6  -2   49.24    6.36
  -1  -6  -2   44.54   11.50
  -1  -6  -2   37.28    5.49
   1   6   2   46.31   11.38
   1   6   2   50.11    9.63
  -2  -6  -2 3992.78  342.03
  -2  -6  -2 3875.95  345.37
  -2  -6  -2 4042.50  347.46
   2   6   2 4600.79  345.44
   2   6   2 4653.24  346.93
  -3  -6  -2   54.93    9.12
  -3  -6  -2   35.05    9.45
  -3  -6  -2   36.10   10.95
   3   6   2   47.59   11.08
   3   6   2   43.98   11.25
  -4  -6  -2 1576.61  136.68
  -4  -6  -2 1353.26  137.97
  -4  -6  -2 1478.35  139.05
   4   6   2 1880.24  139.52
   4   6   2 1898.78  139.67
  -5  -6  -2  265.34   28.36
  -5  -6  -2  198.42   27.21
   5   6   2  293.20   29.63
   5   6   2  312.40   30.34
   6   6   2  857.03   79.20
   6   6   2  882.00   77.90
   7   6   2  300.66   31.77
   7   6   2  280.01   32.97
   8   6   2    6.83   10.94
   8   6   2   -0.16    6.91
  -4   7   2   92.35   17.60
  -3   7   2  158.68   22.08
   2  -7  -2 1255.64  110.60
  -2   7   2 1418.88  116.51
   1  -7  -2 2934.98  259.32
  -1   7   2 3438.40  264.30
   0  -7  -2  492.50   48.95
   0  -7  -2  495.79   43.68
   0   7   2  595.36   45.59
   0   7   2  580.64   53.05
  -1  -7  -2   46.55    6.65
  -1  -7  -2   30.53    6.07
   1   7   2   47.32   12.92
   1   7   2   40.67    9.79
  -2  -7  -2   17.71    5.14
  -2  -7  -2    9.97    5.96
   2   7   2   17.15    9.91
   2   7   2   20.73    7.99
  -3  -7  -2 1574.32  145.33
   3   7   2 1891.62  150.40
   3   7   2 1832.50  149.03
  -4  -7  -2  568.57   56.54
   4   7   2  677.25   60.12
   4   7   2  657.26   60.04
  -5  -7  -2  558.70   54.48
   5   7   2  612.97   56.12
   6   7   2 1224.16  107.98
   6   7   2 1238.12  109.05
   7   7   2   81.38   16.70
   7   7   2   60.38   15.24
   8   7   2  789.29   77.29
   8   7   2  821.57   78.26
  -3   8   2  302.92   35.03
   2  -8  -2   97.14   14.23
   1  -8  -2  863.86   79.50
  -1   8   2  980.84   84.91
   0  -8  -2 1781.04  152.92
   0   8   2 1737.69  147.51
   0   8   2 1969.39  157.26
  -1  -8  -2    6.74    3.38
   1   8   2   -0.63    4.95
   1   8   2    6.62   10.44
   1   8   2   11.45    6.63
  -2  -8  -2   29.06    6.72
  -2  -8  -2   32.88    7.33
   2   8   2   39.85   12.04
   2   8   2   39.49   11.12
  -3  -8  -2    4.44    5.23
   3   8   2    2.94    9.83
   3   8   2    3.48    8.35
   4   8   2 1544.42  132.62
   4   8   2 1494.25  131.47
   5   8   2    0.27    7.23
   5   8   2   -0.99    9.12
   6   8   2  246.51   30.57
   6   8   2  202.13   29.89
   7   8   2   72.79   18.03
   7   8   2  103.84   21.32
   1  -9  -2   11.10    7.99
  -1   9   2   27.25   11.63
   0   9   2  506.57   53.13
  -1  -9  -2  150.27   15.60
   1   9   2  182.95   25.01
   1   9   2  175.19   17.47
  -2  -9  -2  288.80   30.25
   2   9   2  317.51   34.22
   2   9   2  308.60   37.94
   2   9   2  350.86   31.97
  -3  -9  -2  513.00   51.78
  -3  -9  -2  588.67   54.66
   3   9   2  640.30   59.64
   3   9   2  580.43   56.85
   3   9   2  634.40   55.65
  -4  -9  -2  531.30   52.77
   4   9   2  596.42   57.05
   4   9   2  614.73   59.64
   5   9   2   57.10   18.15
   5   9   2   44.57   13.06
   4   7  -3  175.13   24.77
   4   7  -3  188.63   25.68
   3   7  -3   63.61   14.41
   3   7  -3   50.47   14.48
  -3  -7   3   62.80   16.81
   2   7  -3  720.48   66.03
   2   7  -3  600.37   60.88
   1   7  -3    0.59    8.02
   1   7  -3   10.86    6.39
  -1  -7   3    0.00    6.81
   0   7  -3  503.84   53.22
   0   7  -3  458.84   45.17
   0  -7   3  502.38   50.49
  -1   7  -3   82.18   19.96
   1  -7   3   52.97   14.37
  -2   7  -3  618.33   63.57
   2  -7   3  604.76   59.48
   6   6  -3   13.57    6.61
   6   6  -3    2.83    8.67
   5   6  -3  224.27   29.95
   5   6  -3  211.62   26.15
   4   6  -3 1291.17  124.23
   4   6  -3 1612.36  128.30
   3   6  -3   -2.51    7.02
   3   6  -3   -0.17    5.39
  -3  -6   3    7.57    7.61
   2   6  -3  519.27   52.39
   2   6  -3  576.28   55.58
  -2  -6   3  564.72   55.60
   1   6  -3  125.33   18.68
  -1  -6   3  154.36   21.52
   0   6  -3 1391.95  124.15
   0   6  -3 1553.19  130.58
   0  -6   3 1481.02  128.78
  -1   6  -3  177.33   26.29
  -1   6  -3  177.92   21.13
   1  -6   3  152.02   22.30
  -2   6  -3  156.50   22.98
   2  -6   3  150.94   21.81
  -3   6  -3  132.76   21.76
   3  -6   3  172.17   22.54
  -4   6  -3   18.70    9.43
   4  -6   3   -3.82    7.85
   7   5  -3  340.53   41.31
   6   5  -3    9.22   10.62
   6   5  -3   27.17    8.01
  -6  -5   3   26.70   10.94
   5   5  -3  608.38   57.81
   5   5  -3  689.45   63.47
  -5  -5   3  612.33   57.61
   4   5  -3  532.10   49.02
   4   5  -3  420.28   44.43
  -4  -5   3  446.88   44.18
   3   5  -3   -6.17    5.58
   3   5  -3   -0.23    4.95
  -3  -5   3   -2.14    6.33
   2   5  -3   -2.02    6.54
   2   5  -3   -2.18    5.25
  -2  -5   3   -5.81    3.40
   1   5  -3 1541.22  130.39
   1   5  -3 1509.31  127.55
  -1  -5   3 1449.25  130.05
   0   5  -3 1651.22  141.20
   0   5  -3 1536.17  136.49
   0  -5   3 1721.58  141.00
  -1   5  -3   54.41   10.37
  -1   5  -3   59.12   15.43
   1  -5   3   61.95   11.73
   1  -5   3   66.05   13.81
  -2   5  -3   63.77   15.00
   2  -5   3   68.39   14.52
   2  -5   3   67.40   12.01
  -3   5  -3   57.45   14.34
  -3   5  -3   41.57   12.23
   3  -5   3   58.09   11.00
   3  -5   3   69.09   13.83
   4  -5   3   97.20   17.94
   4  -5   3   81.37   12.92
   5  -5   3   45.75   12.82
   5  -5   3   39.74    9.14
   5  -5   3   42.84   10.97
   7   4  -3  283.53   35.29
   6   4  -3  806.31   80.05
   6   4  -3 1048.65   84.07
  -6  -4   3  818.35   74.82
   5   4  -3 1393.73  115.03
   5   4  -3 1513.91  122.27
  -5  -4   3 1225.68  114.45
   4   4  -3  571.43   52.77
   4   4  -3  610.09   57.00
  -4  -4   3  570.72   52.49
   3   4  -3  137.42   19.81
   3   4  -3  149.70   18.25
  -3  -4   3  128.80   17.58
   2   4  -3 1104.76  102.03
   2   4  -3 1072.18  101.34
  -2  -4   3 1230.97  102.23
  -2  -4   3 1323.13  102.17
   1   4  -3 1197.91  106.54
   1   4  -3 1196.29  105.30
  -1  -4   3 1322.71  106.19
  -1  -4   3 1215.86  107.62
   0   4  -3  376.38   38.39
   0  -4   3  389.45   37.93
   0  -4   3  401.80   38.97
   0  -4   3  357.39   36.72
  -1   4  -3  609.02   61.88
  -1   4  -3  597.03   58.16
   1  -4   3  746.99   58.47
   1  -4   3  686.01   62.03
   1  -4   3  698.83   62.43
   1  -4   3  679.24   60.87
  -2   4  -3    4.76    4.63
  -2   4  -3   -7.77    4.55
   2  -4   3    4.37    5.82
   2  -4   3    0.77    3.43
  -3   4  -3 2408.04  213.02
  -3   4  -3 2630.26  213.04
   3  -4   3 2581.12  212.19
  -4   4  -3  236.75   27.88
   4  -4   3  207.13   26.07
   4  -4   3  284.38   28.88
   5  -4   3  362.21   38.76
   5  -4   3  444.24   41.74
   5  -4   3  374.74   37.88
   6  -4   3  880.06   78.33
   8   3  -3   73.90   18.78
   7   3  -3 1581.19  139.53
  -6  -3   3  483.74   42.08
   5   3  -3  885.40   78.71
   5   3  -3 1065.98   86.66
  -5  -3   3  906.40   79.03
   4   3  -3  919.27   86.03
   4   3  -3 1110.25   91.96
  -4  -3   3 1006.34   86.38
  -4  -3   3 1093.01   89.57
   3   3  -3  473.86   46.20
   3   3  -3  433.64   43.01
  -3  -3   3  507.08   45.81
  -3  -3   3  510.38   43.60
   2   3  -3   85.91   15.21
   2   3  -3   75.65   14.10
  -2  -3   3  100.85   13.03
  -2  -3   3   77.83   12.22
   1   3  -3   -3.48    3.72
   1   3  -3   -3.48    3.11
  -1  -3   3    1.74    4.66
  -1  -3   3    1.56    5.47
  -1  -3   3   -2.40    3.99
  -1  -3   3    3.74    3.92
  -1   3  -3    0.03    2.61
  -1   3  -3   -0.38    4.61
   1  -3   3    2.18    3.27
   1  -3   3   -1.76    4.55
   1  -3   3    1.56    3.16
  -2   3  -3  929.92   90.92
  -2   3  -3 1094.75   91.90
   2  -3   3 1076.83   91.64
   2  -3   3 1098.75   88.11
  -3   3  -3  111.41   15.53
  -3   3  -3   97.31   15.16
   3  -3   3  113.89   15.19
   3  -3   3  118.16   15.50
   3  -3   3  103.85   12.11
  -4   3  -3 1333.49  121.46
   4  -3   3 1545.91  122.31
   4  -3   3 1251.61  119.83
   4  -3   3 1418.95  117.29
   4  -3   3 1530.12  121.38
   5  -3   3    8.65    3.61
   5  -3   3    1.04    5.96
   5  -3   3   -3.40    2.76
   6  -3   3  846.15   69.55
   6  -3   3  716.87   62.64
   6  -3   3  644.82   64.61
   7  -3   3  156.02   23.46
   7  -3   3  148.28   19.21
   8   2  -3   -3.58    5.36
   7   2  -3 1183.38  106.61
   6   2  -3   23.55   10.75
  -6  -2   3   40.89   10.09
   5   2  -3   22.50    9.65
  -5  -2   3   20.80    7.78
  -5  -2   3   21.15    4.05
   4   2  -3 2822.17  229.08
  -4  -2   3 2865.31  226.78
  -4  -2   3 2590.18  223.36
   3   2  -3 5155.47  433.30
  -3  -2   3 5533.59  429.78
  -3  -2   3 5253.89  431.52
   2   2  -3 2705.26  255.87
   2   2  -3 3182.97  259.05
  -2  -2   3 3422.02  256.68
  -2  -2   3 3313.85  257.91
   1   2  -3 2734.46  246.16
  -1  -2   3 3285.23  246.31
  -1  -2   3 3050.11  245.47
  -1  -2   3 2975.94  245.88
   0   2  -3 3946.44  344.89
   0   2  -3 3781.19  345.05
   0  -2   3 4586.76  345.06
   0  -2   3 4312.34  347.15
   0  -2   3 4641.31  345.56
  -1   2  -3 2947.27  252.28
  -1   2  -3 2997.44  250.38
  -1   2  -3 2769.29  251.56
   1  -2   3 3210.95  252.90
   1  -2   3 3134.67  250.20
   1  -2   3 3391.13  251.66
  -2   2  -3 3578.21  322.93
  -2   2  -3 3953.46  323.95
   2  -2   3 4178.85  323.02
   2  -2   3 3875.31  322.65
   2  -2   3 4238.68  324.75
  -3   2  -3    0.40    3.69
   3  -2   3    2.60    3.60
   3  -2   3    6.96    5.16
   3  -2   3    4.48    3.57
  -4   2  -3 1532.69  138.74
   4  -2   3 1784.55  139.62
   4  -2   3 1698.25  140.45
   4  -2   3 1566.73  140.80
   4  -2   3 1628.73  136.08
  -5   2  -3   59.49   12.13
   5  -2   3   56.24   10.73
   5  -2   3   67.52   12.42
   5  -2   3   56.72   10.29
   5  -2   3   44.97   11.49
   6  -2   3  181.03   21.84
   6  -2   3  128.38   17.31
   7  -2   3  811.93   79.45
   7  -2   3 1057.98   85.36
   8  -2   3   88.93   19.37
   8  -2   3   85.43   13.70
   8   1  -3  109.76   19.49
  -8  -1   3   74.95   15.57
   7   1  -3   -0.93    7.23
  -7  -1   3   -3.74    4.42
   6   1  -3  320.40   34.50
  -6  -1   3  301.18   30.57
   5   1  -3  581.49   56.92
  -5  -1   3  668.38   54.95
  -5  -1   3  575.19   55.50
   4   1  -3   45.02   10.44
  -4  -1   3   30.73    3.93
  -4  -1   3   49.99    9.18
   3   1  -3 1914.68  160.90
  -3  -1   3 1971.24  156.46
  -3  -1   3 1890.10  158.75
   1   1  -3  186.85   19.80
  -1  -1   3  193.49   18.56
  -1  -1   3  200.06   19.61
   0   1  -3  250.02   25.97
   0  -1   3  310.82   26.29
   0  -1   3  283.15   27.17
   0  -1   3  272.67   27.37
  -1   1  -3  155.08   17.38
  -1   1  -3  150.33   15.98
   1  -1   3  166.28   17.70
   1  -1   3  148.42   16.31
   1  -1   3  165.78   16.18
  -2   1  -3 2601.59  219.70
   2  -1   3 2703.64  218.42
   2  -1   3 2524.34  218.59
   2  -1   3 2879.03  220.29
  -3   1  -3  852.83   77.55
   3  -1   3  890.23   76.84
   3  -1   3  871.31   77.54
   3  -1   3  964.98   76.46
  -4   1  -3 2140.95  189.45
   4  -1   3 2584.40  190.63
   4  -1   3 2278.29  188.70
   4  -1   3 2146.81  188.77
  -5   1  -3  167.46   22.21
   5  -1   3  179.60   21.68
   5  -1   3  221.84   23.63
   5  -1   3  218.69   22.20
   6  -1   3   73.21   11.84
   6  -1   3   70.90   14.12
   6  -1   3   85.22   12.35
   7  -1   3  281.26   30.58
   7  -1   3  290.29   36.31
   7  -1   3  333.89   31.99
   8  -1   3  408.11   41.11
   8  -1   3  339.86   36.19
   8   0  -3 1501.41  131.10
   7   0  -3  641.88   57.85
  -7   0   3  565.22   52.91
   6   0  -3 2109.84  166.52
  -6   0   3 1841.24  161.90
   5   0  -3  985.73   84.18
  -5   0   3  991.87   81.00
  -5   0   3  883.66   82.62
   4   0  -3 2032.31  170.64
  -4   0   3 2181.91  168.23
  -4   0   3 1922.17  169.30
   3   0  -3  277.83   28.45
  -3   0   3  298.14   23.79
  -3   0   3  284.34   26.84
   1   0  -3 2755.89  224.77
  -1   0   3 2468.38  222.63
  -1   0   3 3055.38  224.63
   0   0  -3    1.83    2.26
   0   0   3    3.64    2.59
   0   0   3    5.88    2.89
  -1   0  -3  302.44   28.75
  -1   0  -3  361.04   30.07
   1   0   3  283.89   28.52
   1   0   3  329.90   29.71
  -2   0  -3 1523.80  131.45
   2   0   3 1650.37  132.18
   2   0   3 1614.19  131.77
   2   0   3 1552.05  130.86
  -4   0  -3 5113.58  443.56
   4   0   3 5280.61  443.28
   4   0   3 6166.01  444.67
   4   0   3 5310.89  443.05
   5   0   3 1809.11  161.73
   5   0   3 2139.25  161.25
   5   0   3 1805.32  159.11
   6   0   3  589.82   55.19
   6   0   3  582.85   53.59
   6   0   3  596.35   53.90
   7   0   3  242.61   26.37
   7   0   3  245.99   28.27
   7   0   3  240.62   26.07
   8   0   3 3869.39  320.45
   8   0   3 3817.52  317.01
   8   0   3 3889.95  316.85
   9   0   3  324.73   39.50
   9   0   3  337.09   35.55
   8  -1  -3 1201.23  104.16
  -8   1   3 1156.65   99.79
   7  -1  -3 1928.67  163.14
   6  -1  -3 1114.32   85.32
  -6   1   3  818.05   83.47
   5  -1  -3 1504.91  121.21
  -5   1   3 1396.82  120.33
  -5   1   3 1387.39  117.28
   4  -1  -3  307.38   30.90
  -4   1   3  347.57   28.51
  -4   1   3  289.33   29.92
   3  -1  -3  858.31   73.17
  -3   1   3  845.82   72.26
   2  -1  -3 1185.68  102.91
  -2   1   3 1104.91  100.12
  -2   1   3 1435.76  103.07
   0   1   3 3168.36  250.51
   0   1   3 3002.16  250.43
   1   1   3  758.34   64.57
   1   1   3  743.90   64.40
   1   1   3  782.46   65.16
  -2  -1  -3  369.56   33.49
  -2  -1  -3  339.63   33.63
   2   1   3  399.30   33.80
   2   1   3  372.63   33.97
  -3  -1  -3 4617.39  378.32
  -3  -1  -3 4707.03  378.22
  -4  -1  -3 7927.61  640.82
  -5  -1  -3   -3.30    2.89
  -5  -1  -3    2.69    3.82
   5   1   3    5.90    4.14
   5   1   3    0.19    3.04
  -6  -1  -3  417.21   41.97
  -6  -1  -3  337.82   39.94
   6   1   3  506.93   42.88
   6   1   3  472.92   41.33
   7   1   3   22.68   10.00
   7   1   3   47.48    9.51
   7   1   3   33.56    8.97
   8   1   3 1025.72   83.08
   8   1   3  893.08   84.35
   8   1   3  861.59   81.12
   9   1   3  413.33   43.29
   9   1   3  481.74   44.45
   9   1   3  412.05   46.62
   7  -2  -3  926.71   81.69
   6  -2  -3   -4.71    2.80
   5  -2  -3  784.43   66.70
  -5   2   3  727.43   62.20
  -5   2   3  782.28   66.87
   4  -2  -3 1159.85   95.44
  -4   2   3 1077.94   91.51
  -4   2   3 1157.92   95.11
   3  -2  -3   -0.76    2.49
   3  -2  -3    3.18    1.92
  -3   2   3    3.27    2.54
  -3   2   3    6.15    2.65
  -3   2   3    7.23    2.08
  -3  -2  -3 2030.98  167.99
  -3  -2  -3 1745.70  167.84
   3   2   3 2162.73  168.90
   3   2   3 2249.11  168.32
  -4  -2  -3  380.97   36.85
  -4  -2  -3  352.68   36.61
   4   2   3  431.13   37.59
   4   2   3  438.64   39.34
  -5  -2  -3    7.43    4.64
  -5  -2  -3    8.69    5.04
   5   2   3    6.79    5.01
   5   2   3    7.25    5.19
  -6  -2  -3 1707.73  171.39
  -6  -2  -3 1902.05  172.80
   6   2   3 2313.53  172.93
   6   2   3 2362.97  173.99
  -7  -2  -3  331.20   38.21
   7   2   3  445.73   41.39
   7   2   3  365.63   38.85
   7   2   3  461.18   40.19
   8   2   3   -0.49    5.98
   8   2   3   -3.61    5.09
   8   2   3    3.90    5.10
   9   2   3 1239.59  126.53
   9   2   3 1527.26  127.37
   9   2   3 1502.50  131.47
   9   2   3 1720.11  130.00
   7  -3  -3  235.87   24.75
   6  -3  -3   98.32   13.01
   6  -3  -3   92.19    9.70
  -6   3   3   98.58   15.15
   5  -3  -3 1075.33   91.47
  -5   3   3 1086.92   92.61
   4  -3  -3  563.47   51.15
   4  -3  -3  607.25   52.26
  -4   3   3  618.52   51.04
  -4   3   3  607.85   52.54
   3  -3  -3  561.12   52.73
   3  -3  -3  569.60   52.77
  -3   3   3  624.97   52.91
  -3   3   3  717.98   53.13
   2  -3  -3 4028.54  345.29
   2  -3  -3 4113.42  346.00
  -2   3   3 4678.55  345.01
   1  -3  -3 1340.52  127.96
   1  -3  -3 1476.71  129.78
   1  -3  -3 1514.89  128.90
  -1   3   3 1538.20  128.77
  -1   3   3 1769.92  129.92
  -1   3   3 1759.77  127.62
  -1   3   3 1627.36  128.02
  -1  -3  -3 2049.94  189.33
  -1  -3  -3 2035.64  188.69
  -1  -3  -3 2393.94  187.73
   1   3   3 2496.13  187.47
   1   3   3 2576.15  189.46
   1   3   3 2343.76  189.86
  -2  -3  -3 3341.68  273.44
  -2  -3  -3 3037.09  273.30
   2   3   3 3710.56  274.57
  -3  -3  -3    9.81    3.98
  -3  -3  -3   15.48    4.09
   3   3   3   18.49    5.36
  -4  -3  -3   58.59    9.62
  -4  -3  -3   63.63    9.90
   4   3   3   64.82    9.99
   4   3   3   77.81   10.52
   4   3   3   70.09   10.81
  -5  -3  -3  455.15   49.35
  -5  -3  -3  530.22   50.02
   5   3   3  528.45   50.63
   5   3   3  608.71   50.52
   5   3   3  630.85   51.07
  -6  -3  -3 1949.79  193.21
  -6  -3  -3 2228.86  194.43
   6   3   3 2660.24  194.88
   6   3   3 2698.22  195.26
   6   3   3 2152.09  193.55
   7   3   3  325.66   34.74
   7   3   3  387.35   35.79
   7   3   3  297.05   33.53
   8   3   3  266.53   27.36
   8   3   3  203.04   24.96
   8   3   3  201.43   26.63
   9   3   3  485.16   49.90
   9   3   3  597.98   53.46
   9   3   3  515.09   54.22
   7  -4  -3   13.65    3.90
   6  -4  -3  544.07   48.14
  -6   4   3  545.61   51.05
   5  -4  -3   17.07    5.85
   5  -4  -3   16.61    5.28
  -5   4   3   20.64    5.56
  -5   4   3   14.55    6.55
   4  -4  -3 4830.90  416.68
   4  -4  -3 4990.66  418.66
  -4   4   3 5339.65  418.51
  -4   4   3 5499.61  418.39
   3  -4  -3   12.45    3.93
   3  -4  -3   21.35    5.93
  -3   4   3   21.04    6.43
  -3   4   3   19.35    4.73
   2  -4  -3   54.40    9.93
  -2   4   3   53.22    6.71
  -2   4   3   50.30    6.17
  -2   4   3   53.41    9.78
   1  -4  -3 1223.23  105.48
  -1   4   3 1429.93  105.33
  -1   4   3 1121.06  102.35
  -2  -4  -3 1117.38   98.03
  -2  -4  -3 1040.33   98.65
   2   4   3 1174.17   99.66
   2   4   3 1241.30   96.86
   2   4   3 1314.68   99.40
  -4  -4  -3 2722.71  260.16
  -4  -4  -3 2953.62  259.28
   4   4   3 3500.46  259.98
   4   4   3 3231.13  260.90
   4   4   3 3478.96  261.00
  -5  -4  -3 2878.23  265.28
   5   4   3 3357.41  265.60
   5   4   3 3163.14  266.11
   5   4   3 3551.86  266.85
  -6  -4  -3 1019.02  103.54
  -6  -4  -3 1116.04  103.85
   6   4   3 1184.89  103.65
   6   4   3 1388.52  105.10
   6   4   3 1317.76  104.43
   7   4   3 1753.64  160.74
   7   4   3 1983.91  162.62
   7   4   3 2023.99  162.62
   8   4   3 1233.08  110.25
   8   4   3 1258.10  107.03
   8   4   3 1133.42  104.03
   9   4   3   22.61    8.97
   9   4   3    9.98   10.71
  -6   5   3  934.40   82.95
   5  -5  -3  698.03   63.11
  -5   5   3  742.92   62.86
  -5   5   3  668.64   61.82
   4  -5  -3 1473.24  132.65
  -4   5   3 1692.87  132.55
  -4   5   3 1554.34  130.77
   3  -5  -3  179.12   22.30
  -3   5   3  224.68   22.61
   2  -5  -3 1254.95  113.26
  -2   5   3 1290.18  107.97
  -2   5   3 1459.65  113.08
   1  -5  -3  893.26   81.85
  -1   5   3  967.81   77.79
  -1   5   3  852.16   76.94
  -1   5   3 1062.52   81.65
   0  -5  -3 1898.86  180.57
   0   5   3 2293.00  177.89
   0   5   3 2324.48  180.38
  -1  -5  -3 1036.82   86.41
  -1  -5  -3 1020.39   92.06
  -1  -5  -3  984.15   89.86
   1   5   3 1239.84   92.08
  -2  -5  -3 2780.75  243.98
  -2  -5  -3 2856.52  245.39
  -2  -5  -3 2940.24  242.23
   2   5   3 3340.78  245.40
  -3  -5  -3 1023.47   88.15
  -3  -5  -3  903.16   90.32
  -3  -5  -3  978.33   90.48
   3   5   3 1138.31   91.18
   3   5   3 1226.97   91.07
  -4  -5  -3 2968.86  258.77
   4   5   3 3371.57  261.15
  -5  -5  -3 1385.31  121.47
  -5  -5  -3 1226.82  122.21
   5   5   3 1637.63  123.22
   5   5   3 1428.52  122.20
   5   5   3 1490.93  121.13
  -6  -5  -3 2301.70  209.45
   6   5   3 2868.37  210.75
   6   5   3 2371.10  208.63
   7   5   3   34.17   10.47
   7   5   3   28.79    9.78
   8   5   3  279.35   31.02
   8   5   3  209.13   26.82
   9   5   3   23.83   12.91
   9   5   3   40.56   10.72
  -5   6   3 1287.64  110.66
   4  -6  -3  241.07   29.00
  -4   6   3  268.97   28.09
   3  -6  -3  106.69   16.78
  -3   6   3  133.77   18.15
  -3   6   3  111.09   11.52
   2  -6  -3  261.71   23.10
   2  -6  -3  241.66   28.23
   1  -6  -3   13.81    6.63
   1  -6  -3    1.81    3.73
  -1   6   3    7.98    4.52
  -1   6   3    8.78    5.91
  -1   6   3    8.23    2.16
   0  -6  -3 1689.43  148.57
   0  -6  -3 1459.98  144.19
   0   6   3 1953.51  147.88
   0   6   3 1906.63  144.54
  -1  -6  -3  448.43   47.79
  -1  -6  -3  531.19   51.17
   1   6   3  591.38   48.33
   1   6   3  578.57   50.45
  -2  -6  -3 2066.07  190.65
  -2  -6  -3 2024.94  188.68
   2   6   3 2577.64  188.97
   2   6   3 2443.71  190.31
  -3  -6  -3  179.80   19.18
  -3  -6  -3  175.13   24.36
  -3  -6  -3  159.88   21.88
   3   6   3  233.69   23.45
   3   6   3  228.81   23.93
  -4  -6  -3  691.26   73.96
  -4  -6  -3  761.46   74.93
  -4  -6  -3  818.63   72.50
   4   6   3 1000.29   75.85
   4   6   3  930.32   75.62
  -5  -6  -3   17.56    5.76
   5   6   3    4.29    7.08
   5   6   3   11.34    7.63
   6   6   3 1193.15  105.30
   6   6   3 1200.57  104.48
   7   6   3  929.74   83.85
   7   6   3  899.30   81.93
   8   6   3  496.00   49.11
   8   6   3  425.75   45.30
  -4   7   3 1410.62  122.10
  -3   7   3  545.66   52.71
  -2   7   3  947.89   84.94
   1  -7  -3  564.09   52.58
  -1   7   3  640.85   57.29
   0  -7  -3 3111.71  293.58
   0   7   3 3787.57  293.50
   0   7   3 3918.81  297.57
  -1  -7  -3    9.92    5.52
   1   7   3   30.71    9.79
   1   7   3   25.82    7.78
  -2  -7  -3  463.54   48.86
   2   7   3  538.13   50.39
   2   7   3  568.77   49.17
  -3  -7  -3    9.86    4.71
  -3  -7  -3    3.18    5.91
   3   7   3   20.08    9.34
   3   7   3   18.39    8.64
  -4  -7  -3  997.24   97.95
   4   7   3 1273.18  102.19
   4   7   3 1239.50  102.32
  -5  -7  -3  199.69   26.05
   5   7   3  303.66   30.81
   5   7   3  266.71   30.28
   6   7   3  234.41   27.90
   6   7   3  215.50   28.94
   7   7   3 1106.81  100.42
   7   7   3 1126.31   99.45
   8   7   3  132.85   21.30
   8   7   3  148.06   25.73
  -3   8   3   15.80    8.85
  -2   8   3  606.28   59.10
   1  -8  -3  174.76   21.08
  -1   8   3  222.08   27.25
   0  -8  -3  812.33   88.35
   0   8   3 1096.25   82.09
   0   8   3 1087.94   90.54
   0   8   3  959.42   85.37
  -1  -8  -3 1579.48  149.76
   1   8   3 1925.15  157.90
   1   8   3 1864.00  149.58
  -2  -8  -3  234.96   22.61
   2   8   3  231.06   31.92
   2   8   3  253.71   27.68
  -3  -8  -3  590.52   59.54
   3   8   3  745.05   64.61
   3   8   3  846.25   72.80
  -4  -8  -3  306.98   33.71
   4   8   3  437.91   40.94
   5   8   3 1216.79  109.41
   5   8   3 1246.75  109.44
   6   8   3  679.78   65.57
   6   8   3  676.95   65.46
   7   8   3  178.36   28.88
   7   8   3  190.39   27.01
  -1   9   3  333.68   38.89
   0  -9  -3    9.22    9.29
   0   9   3   12.48   11.18
   1   9   3  433.29   42.58
   1   9   3  420.61   46.87
   1   9   3  445.80   39.26
  -2  -9  -3    3.21    2.70
   2   9   3   -4.00   10.39
   2   9   3   10.46    7.64
  -3  -9  -3  800.59   70.41
   3   9   3  792.57   73.98
   3   9   3  822.73   76.88
  -4  -9  -3  928.83   90.55
   4   9   3 1068.94   95.67
   4   9   3 1253.72   99.32
  -5  -9  -3  420.41   49.84
   5   9   3  577.86   53.33
   5   9   3  547.63   54.42
   6   9   3  108.79   21.64
   6   9   3   93.26   22.21
   2   7  -4  165.72   26.23
   2   7  -4  171.31   23.08
  -2  -7   4  192.41   27.72
   1   7  -4  493.56   52.49
   1   7  -4  452.73   46.75
  -1  -7   4  496.19   52.18
   0   7  -4  111.32   15.50
   0   7  -4  112.45   22.86
   0  -7   4   92.51   19.84
   5   6  -4   -0.44    6.43
   5   6  -4   15.29   10.50
   4   6  -4   90.84   21.37
   4   6  -4   88.98   18.98
   3   6  -4  607.21   63.74
   3   6  -4  715.36   65.55
  -3  -6   4  699.47   67.90
   2   6  -4  176.10   24.15
   2   6  -4  215.49   27.27
  -2  -6   4  194.27   27.45
   1   6  -4  699.90   64.41
   1   6  -4  578.76   58.95
  -1  -6   4  641.04   64.19
   0   6  -4  220.42   25.22
   0   6  -4  224.00   30.13
   0  -6   4  229.01   29.73
  -1   6  -4  274.91   35.02
  -1   6  -4  293.05   30.14
   1  -6   4  303.32   34.89
  -2   6  -4  892.42   91.50
   2  -6   4 1056.53   90.89
  -3   6  -4  324.36   40.08
   3  -6   4  361.30   39.40
   6   5  -4   13.72    6.58
   6   5  -4   18.39   10.21
  -6  -5   4   16.12    6.34
   5   5  -4  231.80   30.15
   5   5  -4  215.44   24.37
  -5  -5   4  210.58   25.08
   4   5  -4  564.25   51.18
   4   5  -4  399.50   44.51
   3   5  -4  425.87   43.91
   3   5  -4  486.07   46.68
  -3  -5   4  388.12   49.15
   2   5  -4  154.37   23.18
   2   5  -4  188.61   23.86
  -2  -5   4  211.55   26.36
   1   5  -4  105.84   20.31
   1   5  -4  102.64   17.82
  -1  -5   4   95.43   18.97
   0   5  -4 1548.74  135.21
   0   5  -4 1523.89  131.26
   0  -5   4 1559.67  135.32
  -1   5  -4  762.85   70.53
  -1   5  -4  784.83   75.94
   1  -5   4  855.19   75.58
  -2   5  -4  262.12   34.21
   2  -5   4  313.36   34.14
   3  -5   4    9.84    7.52
   4  -5   4 1224.86  102.06
   5  -5   4  265.20   31.94
   5  -5   4  239.92   30.32
   6   4  -4  135.50   24.69
  -6  -4   4  134.56   15.96
   5   4  -4  602.61   55.84
   5   4  -4  485.95   47.90
  -5  -4   4  530.45   48.47
   4   4  -4 2772.81  220.65
   4   4  -4 2291.93  214.13
  -4  -4   4 2760.25  215.06
   3   4  -4  165.38   21.30
   3   4  -4  111.83   16.76
  -3  -4   4  141.98   18.51
   2   4  -4    2.97    5.99
   2   4  -4   11.88    6.77
  -2  -4   4    3.48    4.83
  -2  -4   4    4.28    7.50
   1   4  -4  286.48   33.32
   1   4  -4  297.92   32.58
  -1  -4   4  356.61   34.05
  -1  -4   4  324.57   35.66
   0   4  -4 2463.23  209.48
   0   4  -4 2547.38  212.08
   0  -4   4 2581.96  213.22
  -1   4  -4  199.40   25.73
  -1   4  -4  161.81   21.74
   1  -4   4  210.02   25.55
   1  -4   4  222.55   23.75
   1  -4   4  235.83   22.83
  -2   4  -4   22.48    8.83
   2  -4   4   28.63    9.49
   2  -4   4   36.27    8.56
   3  -4   4  225.54   28.43
   3  -4   4  246.59   23.71
   4  -4   4  921.52   82.70
   4  -4   4 1001.80   76.78
   4  -4   4  749.35   80.18
   5  -4   4  959.20   75.81
   5  -4   4  800.61   80.20
   6  -4   4  -11.45    6.24
   6  -4   4   -4.47    5.52
   7   3  -4   11.53   10.28
   6   3  -4 2854.23  212.76
  -6  -3   4 2171.21  203.32
   5   3  -4  886.86   86.30
  -5  -3   4  863.88   74.20
   4   3  -4 7765.46  630.42
  -4  -3   4 7701.42  624.38
   3   3  -4  919.89   77.22
   3   3  -4  688.18   71.30
  -3  -3   4  908.42   72.72
  -3  -3   4  847.67   74.08
   2   3  -4 1630.06  140.51
  -2  -3   4 1597.36  138.92
  -2  -3   4 1716.08  138.24
   1   3  -4 1523.78  153.50
   1   3  -4 1786.17  155.01
  -1  -3   4 2178.70  155.25
  -1  -3   4 1970.76  154.49
  -1  -3   4 1768.29  156.87
  -1  -3   4 1859.38  154.55
   0   3  -4 2349.08  210.84
   0   3  -4 2308.51  211.64
   0  -3   4 2614.92  214.02
   0  -3   4 2915.93  211.28
   0  -3   4 2608.44  214.23
  -1   3  -4 3770.93  336.12
  -1   3  -4 3543.89  337.31
   1  -3   4 4197.21  339.59
   1  -3   4 4506.02  337.84
   1  -3   4 4603.76  336.14
  -2   3  -4   64.44   13.75
   2  -3   4   78.11   13.99
   2  -3   4   76.72   14.82
   2  -3   4   87.77   11.48
  -3   3  -4  507.18   55.09
   3  -3   4  620.21   56.55
   3  -3   4  628.40   52.26
   4  -3   4   22.31    5.43
   4  -3   4    6.76    5.81
   4  -3   4   17.76    7.17
   5  -3   4 4089.20  303.73
   5  -3   4 3277.83  300.29
   5  -3   4 3601.58  297.29
   6  -3   4  709.16   62.08
   6  -3   4  638.29   64.64
   6  -3   4  785.86   68.89
   7  -3   4  919.35   75.44
   7  -3   4  975.52   82.89
   7  -3   4  723.15   76.78
   7   2  -4  154.01   23.42
   6   2  -4 1649.96  144.10
   5   2  -4    4.54    5.65
  -5  -2   4   -3.12    6.61
   4   2  -4  284.00   31.20
  -4  -2   4  268.20   29.22
   3   2  -4 3828.52  320.75
  -3  -2   4 3953.43  316.04
   2   2  -4  951.17   85.92
  -2  -2   4  932.87   84.14
  -2  -2   4 1049.10   83.37
   1   2  -4  879.15   82.01
  -1  -2   4 1059.61   82.10
  -1  -2   4  881.00   83.40
  -1  -2   4  957.48   80.81
   0   2  -4 1553.46  140.78
   0  -2   4 1599.91  140.55
   0  -2   4 1695.03  138.35
   0  -2   4 1769.81  138.38
  -1   2  -4 7775.41  650.11
   1  -2   4 8234.71  648.53
   1  -2   4 8047.08  650.53
  -2   2  -4 1509.71  129.57
   2  -2   4 1482.72  126.55
   2  -2   4 1511.42  129.56
   2  -2   4 1571.81  128.18
  -3   2  -4  256.51   28.46
   3  -2   4  254.34   26.89
   3  -2   4  272.40   28.43
   3  -2   4  249.50   25.31
  -4   2  -4  120.92   18.79
   4  -2   4  164.83   20.03
   4  -2   4  176.74   18.35
   4  -2   4  176.57   21.48
   4  -2   4  160.62   20.40
   5  -2   4  296.73   29.26
   5  -2   4  313.19   32.84
   5  -2   4  260.28   30.34
   6  -2   4  594.45   53.79
   6  -2   4  662.23   58.22
   6  -2   4  521.07   54.57
   7  -2   4   16.50    9.85
   7  -2   4   39.58    8.57
   7  -2   4   32.58    9.26
   7   1  -4  399.07   41.86
  -7  -1   4  368.13   40.88
   6   1  -4    1.76    5.21
  -6  -1   4    8.90    6.39
   5   1  -4  388.26   40.58
  -5  -1   4  392.03   37.77
   4   1  -4  802.90   74.42
  -4  -1   4  825.15   67.82
  -4  -1   4  837.61   71.88
   3   1  -4 2790.12  228.68
  -3  -1   4 2829.54  223.49
  -3  -1   4 2638.55  225.59
   2   1  -4   21.83    8.19
  -2  -1   4   30.25    7.16
  -2  -1   4   35.46    8.32
  -1   1  -4 6151.26  504.20
   1  -1   4 6154.21  502.28
   1  -1   4 6328.56  504.89
  -2   1  -4 2450.75  209.17
   2  -1   4 2445.26  207.88
   2  -1   4 2762.99  210.13
   2  -1   4 2463.95  207.29
  -3   1  -4 2040.31  176.52
   3  -1   4 2097.46  174.74
   3  -1   4 2257.80  177.32
   3  -1   4 2035.69  176.65
   3  -1   4 2146.38  175.79
  -4   1  -4  789.11   79.80
   4  -1   4  943.36   78.23
   4  -1   4  822.73   77.07
   4  -1   4  917.58   75.94
  -5   1  -4  418.38   43.66
   5  -1   4  457.15   44.25
   5  -1   4  462.56   43.41
   5  -1   4  435.86   41.87
   5  -1   4  436.20   42.73
   6  -1   4 1191.88  112.45
   6  -1   4 1449.82  115.72
   7  -1   4  337.42   37.51
   7  -1   4  431.17   41.56
   8  -1   4  168.99   23.07
   8  -1   4  212.28   27.58
   7   0  -4  404.61   41.93
  -7   0   4  385.15   37.37
   6   0  -4  496.28   49.67
  -6   0   4  508.72   45.97
   5   0  -4 1119.16  104.24
  -5   0   4 1270.33  101.54
   4   0  -4 2622.53  229.57
  -4   0   4 2910.19  226.92
   3   0  -4 2211.03  193.82
  -3   0   4 2208.46  191.05
  -3   0   4 2382.87  188.69
  -3   0   4 2537.99  193.44
   2   0  -4  279.49   29.67
  -2   0   4  342.19   29.48
  -2   0   4  281.53   27.05
   0   0  -4 1328.42  113.83
   0   0   4 1426.75  113.85
   0   0   4 1401.98  114.99
   0   0   4 1296.31  112.71
  -1   0  -4   -0.53    3.08
  -1   0  -4    3.13    2.79
   1   0   4   -0.92    1.80
   1   0   4    0.13    2.31
  -3   0  -4 2248.24  195.72
   3   0   4 2293.00  194.92
   3   0   4 2453.54  197.08
   3   0   4 2473.46  196.39
  -4   0  -4 4271.11  384.91
   4   0   4 5148.88  386.30
   4   0   4 4667.74  384.94
   4   0   4 4811.06  385.76
  -5   0  -4 2586.27  241.52
   5   0   4 3381.82  243.61
   5   0   4 2820.90  241.58
   5   0   4 2928.80  241.68
   6   0   4  337.32   33.30
   6   0   4  292.62   32.36
   6   0   4  321.76   34.35
   7   0   4  885.47   82.87
   7   0   4 1010.82   90.26
   8   0   4   -0.60    6.52
   8   0   4   -5.28    4.20
   7  -1  -4  558.86   54.55
   6  -1  -4 4153.15  331.86
  -6   1   4 3918.28  326.74
   5  -1  -4  442.01   44.38
  -5   1   4  467.21   43.79
  -5   1   4  474.67   40.96
   4  -1  -4 4802.18  423.08
  -4   1   4 5686.44  420.31
  -4   1   4 5088.26  422.13
   3  -1  -4   50.37    9.97
  -3   1   4   59.59    7.28
  -3   1   4   34.91    4.25
  -3   1   4   45.55    9.35
  -3   1   4   35.92    4.29
   1  -1  -4 3694.14  311.13
  -1   1   4 3953.30  310.87
   0  -1  -4  882.13   80.12
   0   1   4  963.50   80.33
   0   1   4 1000.05   80.92
  -2  -1  -4    0.10    3.34
   2   1   4    1.18    2.55
   2   1   4   -0.81    3.22
   2   1   4   10.62    4.42
  -4  -1  -4   33.73    8.74
  -4  -1  -4   47.13    9.71
   4   1   4   54.32   10.05
   4   1   4   59.80   10.89
  -5  -1  -4 7664.05  605.34
  -5  -1  -4 7253.24  604.73
  -6  -1  -4   50.91   12.71
   6   1   4   60.69   12.64
   6   1   4   47.62   11.22
   7   1   4 2427.88  201.01
   7   1   4 2449.50  199.53
   7   1   4 2273.65  199.31
   8   1   4 1357.97  121.21
   8   1   4 1381.98  118.98
   9   1   4  679.55   68.89
   9   1   4  735.01   66.72
   7  -2  -4   35.70   10.04
   6  -2  -4 1029.10   85.94
  -6   2   4  934.44   79.94
   5  -2  -4    5.36    5.75
  -5   2   4    5.12    2.42
  -5   2   4    3.50    4.70
   4  -2  -4 3938.50  360.42
  -4   2   4 4923.39  357.39
  -4   2   4 4398.25  360.02
   3  -2  -4 1547.05  144.89
  -3   2   4 1868.30  141.80
  -3   2   4 1686.27  142.92
  -3   2   4 1624.15  143.89
  -3   2   4 2008.19  145.50
   2  -2  -4 1676.89  145.87
  -2   2   4 1904.97  145.72
  -2   2   4 1709.42  143.60
   1  -2  -4 2833.44  237.80
  -1   2   4 2872.59  236.87
  -1   2   4 2858.92  237.46
  -1   2   4 3092.45  237.89
   0   2   4 3640.29  304.16
   0   2   4 3856.34  304.20
   0   2   4 3674.96  304.25
   0   2   4 3796.31  303.68
  -1  -2  -4   18.09    4.85
  -1  -2  -4   13.46    4.29
   1   2   4    7.48    3.92
   1   2   4   12.51    4.95
   1   2   4   13.46    4.07
  -4  -2  -4    1.70    2.69
  -4  -2  -4    1.78    3.60
   4   2   4    0.21    3.36
   4   2   4    6.69    3.67
  -5  -2  -4  187.44   24.34
  -5  -2  -4  166.81   21.73
   5   2   4  214.25   22.82
   5   2   4  237.67   23.51
  -6  -2  -4  104.61   19.76
  -6  -2  -4  112.13   16.87
   6   2   4  142.78   17.56
   6   2   4  157.33   19.06
   7   2   4  878.23   82.39
   7   2   4  990.81   84.46
   8   2   4 1425.72  125.21
   8   2   4 1588.42  127.99
   8   2   4 1353.27  125.87
   9   2   4    1.58    8.55
   9   2   4   -2.66    6.36
   9   2   4    9.66    7.54
   7  -3  -4  950.00   83.47
   6  -3  -4   21.09    7.07
   5  -3  -4   -2.63    3.79
   4  -3  -4  303.16   32.76
  -4   3   4  324.37   30.87
  -4   3   4  340.28   28.63
   3  -3  -4 2700.08  250.33
  -3   3   4 2776.27  247.10
  -3   3   4 3384.40  249.16
  -3   3   4 3086.87  249.75
  -3   3   4 3392.02  247.00
   2  -3  -4  874.46   83.83
  -2   3   4 1012.51   83.86
  -2   3   4  957.76   82.31
  -2   3   4 1108.07   83.58
  -2   3   4 1040.17   82.92
   0  -3  -4  264.37   27.65
   0   3   4  318.22   27.35
   0   3   4  308.85   28.81
   0   3   4  319.80   28.37
   0   3   4  316.73   28.91
  -1  -3  -4 1500.38  118.78
  -1  -3  -4 1210.54  119.03
   1   3   4 1446.61  120.68
   1   3   4 1493.81  120.42
   1   3   4 1447.85  119.99
   1   3   4 1549.93  118.65
  -3  -3  -4 1236.68  121.86
  -3  -3  -4 1374.28  121.44
   3   3   4 1587.22  121.81
   3   3   4 1596.55  123.44
   3   3   4 1524.92  124.16
  -4  -3  -4 2037.30  202.09
  -4  -3  -4 2356.67  202.16
   4   3   4 2833.97  202.91
   4   3   4 2420.08  204.20
   4   3   4 2645.56  203.72
  -5  -3  -4 1467.07  139.53
   5   3   4 1827.06  140.53
   5   3   4 1630.41  141.58
   5   3   4 1743.36  140.93
  -6  -3  -4  379.20   39.69
   6   3   4  448.47   40.61
   6   3   4  425.77   40.30
   6   3   4  358.94   40.09
   7   3   4  111.80   17.76
   7   3   4  144.72   19.31
   7   3   4  128.93   18.60
   8   3   4 1126.86  108.78
   8   3   4 1328.04  109.93
   8   3   4 1291.23  110.68
   9   3   4 1726.03  135.75
   9   3   4 1380.82  133.36
   9   3   4 1558.79  136.45
   6  -4  -4  331.94   31.52
  -6   4   4  308.58   33.55
   5  -4  -4   95.25   14.16
  -5   4   4   92.75   10.68
  -5   4   4   81.84   13.08
   4  -4  -4  153.93   17.45
   4  -4  -4  146.26   17.06
  -4   4   4  181.63   17.30
  -4   4   4  159.84   17.39
   3  -4  -4 8225.43  663.88
   2  -4  -4 3218.79  291.86
   2  -4  -4 3044.83  292.79
  -2   4   4 3989.94  293.16
  -2   4   4 3919.52  289.70
  -2   4   4 3682.45  290.90
  -2   4   4 3729.76  292.05
   1  -4  -4 4558.15  430.59
  -1   4   4 5182.76  429.48
  -1   4   4 5988.67  431.08
  -1   4   4 5540.47  428.17
   0  -4  -4  734.39   70.24
   0  -4  -4  719.36   71.58
   0   4   4  887.10   72.11
   0   4   4  934.76   70.82
   0   4   4  893.19   68.45
  -1  -4  -4 5009.26  360.20
  -1  -4  -4 4242.61  362.88
  -1  -4  -4 4119.96  361.62
  -2  -4  -4 6235.55  493.75
  -2  -4  -4 5955.08  494.15
  -3  -4  -4  128.07   17.28
  -3  -4  -4  168.88   17.13
   3   4   4  158.05   18.19
   3   4   4  185.15   17.00
   3   4   4  151.42   18.76
  -4  -4  -4 4292.22  371.33
  -4  -4  -4 3986.12  372.25
   4   4   4 5217.82  373.79
   4   4   4 4804.77  374.16
  -5  -4  -4 2001.82  179.32
  -5  -4  -4 1789.92  179.48
   5   4   4 2433.08  181.28
   5   4   4 2423.04  179.97
   5   4   4 2164.17  181.27
  -6  -4  -4  374.41   47.50
  -6  -4  -4  414.13   45.43
   6   4   4  531.22   47.17
   6   4   4  491.76   46.99
   6   4   4  579.52   47.12
   7   4   4  886.25   75.79
   7   4   4  775.26   74.75
   7   4   4  813.58   74.97
   8   4   4  343.96   42.46
   8   4   4  395.93   40.01
   8   4   4  365.41   38.78
   9   4   4 2370.29  178.79
   9   4   4 1787.29  175.05
   9   4   4 2099.80  178.64
   6  -5  -4 1553.80  123.93
   6  -5  -4 1360.12  124.52
  -6   5   4 1585.04  128.09
   5  -5  -4    2.01    4.17
  -5   5   4    2.40    3.63
  -5   5   4   -9.32    3.95
   4  -5  -4 1905.78  175.03
  -4   5   4 2319.33  175.13
   3  -5  -4   17.22    6.74
  -3   5   4   28.60    5.33
  -3   5   4   36.82    8.79
   2  -5  -4 2361.28  219.45
  -2   5   4 2755.98  214.49
  -2   5   4 2895.73  219.40
  -2   5   4 2631.41  214.86
   1  -5  -4 2230.45  205.00
  -1   5   4 2858.09  205.15
  -1   5   4 2365.07  201.84
   0  -5  -4 3775.89  348.59
   0   5   4 4772.38  348.79
  -1  -5  -4  346.21   38.18
  -1  -5  -4  351.03   36.71
  -1  -5  -4  406.94   33.80
   1   5   4  448.55   37.31
   1   5   4  482.08   39.42
  -2  -5  -4   13.04    5.69
  -2  -5  -4   11.41    5.13
  -2  -5  -4   11.56    4.10
   2   5   4   14.91    5.78
   2   5   4   11.82    5.42
   2   5   4   15.20    3.55
  -3  -5  -4 6929.83  561.42
  -3  -5  -4 6603.01  561.52
  -3  -5  -4 7225.54  558.92
  -4  -5  -4   35.13    8.66
  -4  -5  -4   46.41   11.99
   4   5   4   45.15   11.21
   4   5   4   80.31   11.76
  -5  -5  -4 3669.01  339.01
   5   5   4 4321.87  339.35
   5   5   4 4073.86  341.28
   5   5   4 4564.55  341.52
  -6  -5  -4   32.33   10.01
   6   5   4   45.04   11.30
   6   5   4   57.28   11.98
   6   5   4   37.88   10.86
   7   5   4 1179.14  103.54
   7   5   4 1282.52  104.86
   7   5   4 1081.49  103.24
   8   5   4  345.65   39.09
   8   5   4  400.22   41.03
   8   5   4  402.84   41.52
   9   5   4  455.21   48.40
   9   5   4  460.77   50.03
   9   5   4  548.91   52.03
   5  -6  -4    2.45    6.20
  -5   6   4    9.45    4.78
  -5   6   4   -4.80    4.09
   4  -6  -4 1063.33  101.73
  -4   6   4 1284.38  101.63
   3  -6  -4  145.47   20.00
  -3   6   4  167.47   20.39
  -3   6   4  163.61   14.58
   2  -6  -4   10.85    5.85
  -2   6   4    9.51    7.50
   1  -6  -4 2863.32  265.19
  -1   6   4 3281.54  260.38
  -1   6   4 3481.57  264.78
   0  -6  -4  179.37   20.15
   0  -6  -4  183.31   22.97
   0   6   4  247.97   24.03
  -1  -6  -4 2899.59  283.08
   1   6   4 3622.65  283.01
   1   6   4 3781.72  281.24
  -2  -6  -4  369.24   39.84
  -2  -6  -4  405.30   34.83
  -2  -6  -4  370.83   38.31
   2   6   4  462.49   40.50
  -3  -6  -4 1487.21  125.14
  -3  -6  -4 1380.97  131.07
  -3  -6  -4 1376.17  129.07
   3   6   4 1810.89  130.62
  -4  -6  -4  262.59   32.89
  -4  -6  -4  329.73   31.67
  -4  -6  -4  344.20   34.95
   4   6   4  400.02   36.09
  -5  -6  -4 1336.31  122.57
   5   6   4 1571.49  125.84
   6   6   4    0.56    6.12
   6   6   4    5.48    6.56
   7   6   4  824.40   77.85
   7   6   4  881.32   78.74
   8   6   4  390.27   42.41
   8   6   4  426.02   44.78
  -4   7   4   31.75    9.69
  -3   7   4  767.30   70.03
   2  -7  -4   91.64   13.80
  -2   7   4  129.81   18.43
  -1   7   4  977.19   84.25
  -1   7   4 1055.22   86.43
  -1   7   4 1087.50   91.60
   0  -7  -4   10.92    5.41
   0   7   4   15.81    7.17
   0   7   4   22.83    7.07
   0   7   4   20.27    9.95
   1   7   4 4028.95  332.51
   1   7   4 4064.96  329.81
  -2  -7  -4 1319.72  116.32
  -2  -7  -4 1211.88  120.97
   2   7   4 1564.59  123.71
   2   7   4 1652.53  121.77
  -3  -7  -4    3.30    3.83
  -3  -7  -4   -0.51    5.75
   3   7   4   16.20    8.01
   3   7   4   14.55    8.27
  -4  -7  -4  280.86   31.58
   4   7   4  379.10   35.75
   4   7   4  373.45   37.06
   5   7   4  581.36   57.41
   5   7   4  615.03   57.23
   6   7   4  255.37   30.24
   6   7   4  255.36   30.70
   7   7   4    7.99    8.35
   8   7   4  443.52   46.46
   8   7   4  372.42   42.35
  -3   8   4 1464.69  127.57
  -2   8   4   11.72   10.60
   1  -8  -4  491.64   50.14
  -1   8   4  679.16   56.90
   0  -8  -4  921.30   91.81
   0   8   4 1178.77   90.83
   0   8   4 1105.70   91.38
  -1  -8  -4 1453.38  142.64
   1   8   4 1936.69  142.98
   2   8   4 3489.66  286.87
   3   8   4   26.60   10.44
  -4  -8  -4  462.18   49.44
   4   8   4  641.67   56.68
   4   8   4  623.68   55.29
  -5  -8  -4  143.50   20.79
   5   8   4  243.84   28.28
   5   8   4  215.67   25.96
   6   8   4  883.50   84.33
   6   8   4  957.67   85.55
   7   8   4  738.97   70.43
   7   8   4  691.31   68.75
   1  -9  -4    7.63    6.82
  -1   9   4   10.34   10.59
   0  -9  -4  143.47   21.16
   0   9   4  197.83   16.45
   0   9   4  176.70   24.92
   0   9   4  175.11   15.77
   1   9   4   65.28   12.85
   1   9   4   62.96   15.66
   2   9   4  175.15   23.37
   2   9   4  168.32   24.27
  -3  -9  -4  226.39   28.56
   3   9   4  339.66   34.09
   3   9   4  351.31   37.23
  -4  -9  -4   18.28    7.17
   4   9   4   36.02   14.35
   4   9   4   36.08   11.86
   5   9   4 1535.73  140.79
   5   9   4 1677.73  140.73
   6   9   4   10.67   12.81
   6   9   4   21.69   11.94
   2  10   4   49.08   12.51
   2  10   4   50.22   17.51
  -3 -10  -4   20.79    3.84
   3  10   4   30.57   11.17
   3  10   4   20.36   15.54
   3   6  -5   45.67   13.67
   3   6  -5   32.00   11.19
  -3  -6   5   35.83   14.13
   2   6  -5  742.42   74.59
   2   6  -5  793.74   74.42
  -2  -6   5  828.39   78.50
   1   6  -5  166.51   25.01
  -1  -6   5  149.20   27.01
   0   6  -5  640.63   62.35
   0   6  -5  621.38   66.62
   0  -6   5  773.91   69.73
  -1   6  -5  331.86   40.19
  -1   6  -5  315.25   33.82
   1  -6   5  334.31   39.68
   5   5  -5  101.13   22.17
   4   5  -5   68.23   14.45
   4   5  -5   88.52   19.89
   3   5  -5  799.50   70.53
   3   5  -5  664.19   66.06
  -3  -5   5  672.77   70.09
   2   5  -5   -6.50    4.96
  -2  -5   5    1.56    6.38
   1   5  -5  125.71   19.24
   1   5  -5  153.71   21.61
  -1  -5   5  163.34   24.18
   0   5  -5  154.26   19.70
   0   5  -5  112.20   21.96
  -1   5  -5  856.88   74.84
  -1   5  -5  790.44   78.61
   2  -5   5    9.74    8.80
   3  -5   5  816.36   78.32
   4  -5   5   55.99   13.41
   4  -5   5   50.46   13.85
   4  -5   5   26.39   11.61
   6   4  -5  199.79   28.24
  -6  -4   5  188.00   21.07
   5   4  -5  226.25   30.36
   4   4  -5    5.19    8.56
  -4  -4   5   12.38    8.61
   3   4  -5 3993.85  347.55
  -3  -4   5 4520.11  354.41
   2   4  -5  349.20   39.55
   2   4  -5  440.72   43.12
  -2  -4   5  434.49   44.37
   1   4  -5  236.86   27.39
   1   4  -5  204.97   26.67
  -1  -4   5  275.11   30.62
   0   4  -5   -6.35    5.00
   0   4  -5   -1.39    5.45
   0  -4   5   10.33    7.82
   0  -4   5  -13.50    6.33
  -1   4  -5 2258.98  198.74
   1  -4   5 2532.01  203.91
   2  -4   5  104.29   15.07
   2  -4   5   97.13   19.31
   3  -4   5   37.30   11.75
   3  -4   5   32.38    7.81
   4  -4   5  791.93   71.48
   4  -4   5  678.26   69.03
   5  -4   5  171.01   24.32
   5  -4   5  164.49   24.87
   6   3  -5   70.93   18.07
  -6  -3   5   77.10   11.98
   5   3  -5 1740.29  147.45
  -5  -3   5 1613.39  138.25
   4   3  -5   82.00   17.64
  -4  -3   5   65.70   12.40
   3   3  -5 4996.18  415.41
  -3  -3   5 5086.82  410.20
   2   3  -5 1690.39  140.66
  -2  -3   5 1559.83  141.43
   1   3  -5    5.96    5.61
  -1  -3   5    6.66    7.49
  -1  -3   5   11.28    7.49
  -1  -3   5    9.69    7.84
   0   3  -5  984.87   92.74
   0  -3   5 1143.04   92.72
   0  -3   5 1020.56   95.68
   0  -3   5 1108.69   93.20
  -1   3  -5 2650.42  232.01
   1  -3   5 2779.92  235.74
   1  -3   5 2991.18  231.84
   2  -3   5 1271.60  115.18
   2  -3   5 1335.63  111.01
   3  -3   5 1033.46   88.87
   3  -3   5 1030.44   93.58
   4  -3   5 1073.38  105.64
   4  -3   5 1200.58  102.07
   4  -3   5 1338.68  108.45
   5  -3   5  116.32   18.65
   5  -3   5   96.62   19.23
   6  -3   5  393.70   42.30
   6  -3   5  414.50   44.65
   7   2  -5  350.72   41.49
   6   2  -5 1361.82  122.47
   5   2  -5 1622.95  141.95
  -5  -2   5 1615.26  132.86
   4   2  -5  172.36   24.51
  -4  -2   5  203.11   19.83
   3   2  -5  195.12   24.79
  -3  -2   5  166.21   21.67
  -3  -2   5  189.03   19.99
   2   2  -5 4887.83  432.06
  -2  -2   5 5193.33  430.10
  -2  -2   5 5640.95  431.30
  -2  -2   5 5408.88  428.84
   1   2  -5  932.52   90.66
  -1  -2   5 1128.36   89.68
  -1  -2   5 1133.45   90.60
  -1  -2   5  952.29   92.23
   0   2  -5 1608.53  152.67
   0  -2   5 1967.90  152.98
   0  -2   5 1964.07  153.01
   0  -2   5 1750.75  155.32
  -1   2  -5 2759.00  253.92
   1  -2   5 3318.84  254.39
   1  -2   5 3255.35  254.96
   1  -2   5 3036.28  257.10
  -2   2  -5  893.41   84.05
   2  -2   5  978.27   82.80
   2  -2   5  957.23   84.79
   2  -2   5  925.99   81.31
  -3   2  -5 5601.83  484.10
   3  -2   5 6315.71  485.27
   3  -2   5 5863.90  480.89
   4  -2   5   56.02   14.08
   4  -2   5   84.83   12.42
   4  -2   5   94.67   17.14
   5  -2   5 2210.98  192.55
   5  -2   5 2206.64  189.38
   5  -2   5 2430.75  194.26
   6  -2   5   -5.07    5.41
   6  -2   5    0.99    5.06
   7  -2   5  134.32   20.40
   7  -2   5  125.52   23.24
   7   1  -5    1.68    5.98
   6   1  -5 2289.09  195.69
   5   1  -5  317.98   36.31
  -5  -1   5  326.46   33.33
   4   1  -5   69.97   15.58
  -4  -1   5   90.22   14.13
   3   1  -5  592.16   55.84
  -3  -1   5  563.83   50.02
  -3  -1   5  594.93   54.15
   2   1  -5  204.06   24.76
  -2  -1   5  197.00   23.26
  -2  -1   5  225.24   21.12
  -2  -1   5  205.40   22.39
   1   1  -5  212.32   23.43
  -1  -1   5  199.92   20.56
  -1  -1   5  196.16   21.59
  -1  -1   5  190.97   23.57
   0   1  -5  342.55   34.30
   0  -1   5  379.90   33.67
   0  -1   5  314.92   35.13
   0  -1   5  354.88   33.89
  -1   1  -5 3690.42  307.61
  -1   1  -5 3727.94  309.48
   1  -1   5 3752.37  307.34
   1  -1   5 3818.38  307.39
   1  -1   5 3815.03  309.79
  -2   1  -5 2204.97  187.60
   2  -1   5 2296.34  188.06
   2  -1   5 2240.07  185.41
   2  -1   5 2213.18  185.94
  -3   1  -5  606.02   58.54
   3  -1   5  609.54   56.51
   3  -1   5  696.57   59.80
   3  -1   5  623.45   58.93
   3  -1   5  616.36   57.42
  -4   1  -5  100.00   17.92
   4  -1   5  106.46   15.18
   4  -1   5  123.64   16.40
   4  -1   5  111.46   16.93
   4  -1   5  100.94   18.02
   5  -1   5 2940.90  217.58
   5  -1   5 2329.50  214.90
   5  -1   5 2479.64  213.34
   6  -1   5  902.62   82.23
   6  -1   5  902.78   80.45
   7  -1   5   16.64   10.81
   7  -1   5   14.32    7.20
   8  -1   5    3.52    7.10
   8  -1   5    3.65    7.81
   7   0  -5   16.29    8.20
  -7   0   5  -12.14    4.89
   6   0  -5 1070.80   97.54
  -6   0   5 1089.75   93.13
   5   0  -5 2750.42  254.82
  -5   0   5 3356.94  251.96
   4   0  -5   12.93    6.45
  -4   0   5   10.17    2.22
  -4   0   5   12.72    6.38
   3   0  -5 3421.52  298.37
  -3   0   5 3848.99  297.50
  -3   0   5 3594.51  295.27
   2   0  -5  822.89   74.80
  -2   0   5  856.55   73.64
   1   0  -5 2025.94  172.30
  -1   0   5 1968.81  169.49
  -1   0   5 2282.17  172.00
  -1   0   5 1994.75  172.96
   0   0  -5   14.66    6.18
   0   0   5   27.42    7.73
   0   0   5   24.19    6.97
   0   0   5   16.67    5.28
  -1   0  -5 3592.85  306.77
  -1   0  -5 3834.52  308.37
   1   0   5 3929.66  307.15
   1   0   5 3466.24  306.06
   1   0   5 3981.29  308.69
  -2   0  -5  107.99   15.04
   2   0   5  102.76   14.90
   2   0   5   93.31   13.13
   2   0   5  108.84   14.09
   2   0   5  106.55   14.53
  -3   0  -5  197.84   23.37
   3   0   5  234.49   24.89
   3   0   5  214.10   24.78
   3   0   5  213.31   23.22
   3   0   5  200.32   23.22
  -4   0  -5   13.00    6.54
   4   0   5   31.51    8.75
   4   0   5   22.22    7.78
   4   0   5   16.71    7.43
   4   0   5   30.13    9.04
   5   0   5  265.99   30.36
   5   0   5  255.49   29.54
   5   0   5  306.31   30.88
   5   0   5  287.12   30.98
   6   0   5 4749.98  404.91
   6   0   5 5131.80  406.34
   7   0   5  142.90   20.52
   7   0   5  149.35   22.67
   8   0   5  124.00   19.09
   8   0   5  126.90   22.44
   7  -1  -5   19.14    6.60
  -7   1   5    4.69    5.17
   6  -1  -5  244.91   27.58
  -6   1   5  212.35   22.70
   5  -1  -5 8447.46  748.45
  -5   1   5 9999.00  744.85
   4  -1  -5   13.24    6.04
  -4   1   5   14.93    5.75
   3  -1  -5 6745.23  552.17
  -3   1   5 7086.97  548.79
  -3   1   5 6171.43  546.55
  -3   1   5 7810.25  551.69
  -3   1   5 6232.00  546.21
   2  -1  -5  678.29   64.68
  -2   1   5  773.22   64.19
   0   1   5 5344.33  423.45
   0   1   5 5067.45  422.41
  -1  -1  -5 1136.11  100.82
  -1  -1  -5 1163.57  101.20
   1   1   5 1192.31  101.32
   1   1   5 1218.64  100.98
   1   1   5 1221.45  102.45
  -2  -1  -5  206.08   22.85
   2   1   5  224.17   23.33
   2   1   5  212.38   24.19
  -3  -1  -5 1396.73  130.59
   3   1   5 1563.35  132.32
   3   1   5 1720.60  132.13
   3   1   5 1537.42  130.94
  -4  -1  -5  123.34   17.58
   4   1   5  168.39   19.17
   4   1   5  137.77   18.08
  -5  -1  -5  768.67   77.51
   5   1   5  954.61   79.15
   5   1   5  907.99   79.03
   6   1   5 6177.24  474.46
   6   1   5 5422.27  472.92
   7   1   5  509.53   49.37
   7   1   5  462.36   47.84
   8   1   5  121.11   21.74
   8   1   5  116.82   18.60
   7  -2  -5  186.63   23.19
   6  -2  -5  493.52   49.81
  -6   2   5  542.10   48.73
   5  -2  -5 1096.26   98.94
  -5   2   5 1181.41  101.23
   4  -2  -5 1984.32  170.08
  -4   2   5 2071.38  166.94
   3  -2  -5  555.32   54.89
  -3   2   5  616.75   50.98
  -3   2   5  675.51   55.24
  -3   2   5  589.44   51.91
   2  -2  -5 1709.59  150.03
  -2   2   5 1903.61  149.71
  -2   2   5 1781.69  147.47
   1  -2  -5   61.58    9.95
  -1   2   5   68.23   10.12
  -1   2   5   67.81   10.21
  -1   2   5   86.55   11.01
  -1   2   5   67.63    9.71
   0  -2  -5 6240.92  518.18
   0   2   5 6438.90  518.26
   0   2   5 6521.37  518.22
  -2  -2  -5 1375.60  123.33
   2   2   5 1511.24  124.38
   2   2   5 1436.36  125.12
   2   2   5 1569.01  124.02
  -3  -2  -5 2495.87  211.70
  -3  -2  -5 2264.12  211.56
   3   2   5 2842.48  212.49
   3   2   5 2675.70  213.32
  -4  -2  -5  302.33   31.05
  -4  -2  -5  272.07   30.98
   4   2   5  330.74   31.50
   4   2   5  330.49   32.64
  -5  -2  -5  989.44   91.45
  -5  -2  -5  900.76   90.95
   5   2   5 1211.04   92.81
   5   2   5 1109.91   92.79
  -6  -2  -5   70.46   14.70
   6   2   5  105.62   16.12
   6   2   5  122.18   17.19
   7   2   5  538.98   52.61
   8   2   5   16.12    9.32
   9   2   5  277.45   34.97
   9   2   5  269.70   32.47
   6  -3  -5  305.08   31.84
   5  -3  -5   -5.79    3.03
  -5   3   5   -4.23    4.20
   4  -3  -5   68.02   13.13
  -4   3   5   81.91    8.25
  -4   3   5   84.28   11.58
  -4   3   5   80.65    8.67
  -4   3   5   72.83    8.65
   3  -3  -5  129.32   17.42
  -3   3   5  151.24   16.61
  -3   3   5  184.59   18.65
  -3   3   5  177.67   15.93
  -3   3   5  138.12   15.59
   2  -3  -5 1102.01  102.04
  -2   3   5 1196.34  100.64
  -2   3   5 1239.11  101.56
  -2   3   5 1269.18  100.27
   1  -3  -5 4297.46  366.44
  -1   3   5 4467.07  365.77
  -1   3   5 4647.33  366.21
  -1   3   5 4538.71  366.34
  -1   3   5 4595.52  366.15
   0   3   5 6112.79  491.47
   0   3   5 6031.90  491.20
   0   3   5 5886.58  491.10
   0   3   5 6224.56  490.36
  -1  -3  -5 3466.83  331.21
   1   3   5 4227.54  332.80
   1   3   5 4244.70  333.52
   1   3   5 4240.65  331.27
   1   3   5 4221.14  332.76
  -2  -3  -5  561.71   49.20
  -2  -3  -5  477.49   49.18
   2   3   5  572.55   50.56
   2   3   5  563.82   50.58
   2   3   5  587.01   49.22
  -3  -3  -5 3194.65  280.14
   3   3   5 3368.71  281.81
   3   3   5 3551.00  283.44
   3   3   5 3610.58  280.56
  -4  -3  -5 4113.94  359.63
  -4  -3  -5 3792.85  359.82
   4   3   5 5027.90  360.69
   4   3   5 4736.03  361.77
  -5  -3  -5  653.00   67.78
  -5  -3  -5  777.94   68.39
   5   3   5  859.32   70.09
  -6  -3  -5  421.02   52.03
   6   3   5  512.32   52.44
   6   3   5  552.66   51.39
   6   3   5  640.85   52.02
   7   3   5  337.29   36.56
   7   3   5  349.85   36.87
   7   3   5  336.87   37.97
   8   3   5   17.78    9.02
   8   3   5   16.53    7.97
   9   3   5  124.55   19.94
   9   3   5  111.44   22.35
   9   3   5  116.00   20.77
   6  -4  -5  479.96   45.22
   5  -4  -5  595.88   55.60
  -5   4   5  650.47   56.02
  -5   4   5  607.29   51.77
   4  -4  -5    8.19    5.23
  -4   4   5    9.62    5.15
  -4   4   5   18.07    5.48
   3  -4  -5  473.59   50.12
  -3   4   5  541.09   48.88
  -3   4   5  616.62   49.66
  -3   4   5  603.40   50.49
  -3   4   5  577.56   45.88
   2  -4  -5  810.98   77.12
  -2   4   5  892.84   76.36
  -2   4   5  878.93   75.09
  -2   4   5  982.68   77.29
  -2   4   5  959.94   77.28
  -1   4   5 1083.92   88.75
  -1   4   5 1108.59   89.96
  -1   4   5 1023.39   89.39
  -1   4   5 1018.04   88.27
   0  -4  -5  122.85   15.48
   0   4   5  140.16   16.55
   0   4   5  168.34   16.67
   0   4   5  160.18   17.42
   0   4   5  153.58   15.10
  -1  -4  -5  648.58   57.17
   1   4   5  679.52   56.80
   1   4   5  693.41   59.50
   1   4   5  625.47   59.49
   1   4   5  685.57   59.01
   2   4   5  356.78   33.46
   2   4   5  402.65   38.78
   2   4   5  364.89   36.69
  -3  -4  -5 8522.68  654.64
  -3  -4  -5 7679.46  655.44
  -4  -4  -5  305.79   35.93
  -4  -4  -5  345.46   35.20
   4   4   5  385.86   38.58
   4   4   5  406.02   37.55
   4   4   5  405.03   35.56
  -5  -4  -5  140.73   21.33
   5   4   5  190.50   24.28
   5   4   5  216.85   22.62
   5   4   5  234.89   24.55
   6   4   5 2534.74  204.51
   6   4   5 2456.58  205.39
   6   4   5 2352.18  206.28
   7   4   5   22.21    8.55
   7   4   5    1.50    6.80
   7   4   5    2.44    6.15
   8   4   5  418.69   46.02
   8   4   5  460.21   46.88
   8   4   5  453.61   46.28
   9   4   5   -3.65    7.80
   9   4   5   13.67   10.27
  -5   5   5 1088.42   90.99
  -5   5   5 1073.69   92.81
   4  -5  -5    5.63    3.99
   4  -5  -5    7.31    4.39
   3  -5  -5 3813.96  369.36
  -3   5   5 5283.21  370.15
   2  -5  -5    0.75    3.12
  -2   5   5    1.90    1.81
  -2   5   5    2.55    2.19
  -2   5   5    5.52    5.26
  -2   5   5    0.43    3.03
  -2   5   5    3.53    2.54
  -1   5   5 3836.14  295.37
  -1   5   5 3675.78  292.45
  -1   5   5 3522.81  290.89
  -1   5   5 3626.19  290.42
  -1   5   5 3400.58  293.55
   0  -5  -5 1101.12  115.51
   0   5   5 1327.71  114.98
   0   5   5 1402.06  111.08
   0   5   5 1526.19  114.63
   0   5   5 1490.00  116.57
  -1  -5  -5  538.14   57.10
  -1  -5  -5  519.96   55.56
   1   5   5  735.35   57.11
   1   5   5  694.95   53.28
   1   5   5  712.22   58.45
   1   5   5  629.35   57.09
  -2  -5  -5  546.73   60.45
  -2  -5  -5  565.14   59.77
  -2  -5  -5  675.13   58.41
   2   5   5  766.44   62.91
   2   5   5  765.38   57.95
   2   5   5  780.23   61.49
  -3  -5  -5    3.92    3.19
  -3  -5  -5    6.13    3.53
   3   5   5    6.95    6.80
   3   5   5    1.26    3.91
   3   5   5    5.57    3.52
  -4  -5  -5 2204.72  218.22
   4   5   5 2971.44  219.13
   4   5   5 2606.80  222.20
   4   5   5 2881.10  221.68
  -5  -5  -5  243.94   29.38
   5   5   5  290.14   31.19
   5   5   5  341.87   30.63
   5   5   5  284.37   32.23
   6   5   5 3649.13  310.96
   6   5   5 3859.77  310.47
   6   5   5 3748.41  308.60
   7   5   5   93.14   18.37
   7   5   5   86.42   16.46
   8   5   5 1045.47   92.11
   8   5   5 1038.46   92.19
   8   5   5  947.41   91.61
   9   5   5  413.40   45.01
   9   5   5  365.04   43.93
   9   5   5  429.39   44.32
  -5   6   5  229.30   24.50
   4  -6  -5  146.71   20.26
  -4   6   5  151.87   18.61
   3  -6  -5 1995.58  196.49
  -3   6   5 2390.27  191.99
  -3   6   5 2722.74  197.38
  -3   6   5 2366.38  191.67
   2  -6  -5  303.67   35.88
  -2   6   5  395.88   37.04
  -2   6   5  381.15   30.78
   1  -6  -5  532.55   58.20
  -1   6   5  693.71   54.57
  -1   6   5  600.59   55.02
  -1   6   5  721.68   58.78
   0  -6  -5  152.34   17.85
   0  -6  -5  153.87   20.60
   0   6   5  217.45   21.98
   0   6   5  174.08   18.71
  -1  -6  -5   56.06   12.73
  -1  -6  -5   48.58   10.51
   1   6   5   82.30   11.70
   1   6   5   95.59   15.51
   1   6   5   88.87   11.82
  -2  -6  -5  194.56   19.03
  -2  -6  -5  154.29   22.23
   2   6   5  204.94   18.14
   2   6   5  241.54   22.84
   2   6   5  180.01   23.06
  -3  -6  -5 3194.69  286.43
  -3  -6  -5 2826.95  288.64
   3   6   5 3748.64  291.61
   3   6   5 3930.79  290.29
   3   6   5 3931.47  286.28
  -4  -6  -5  156.62   21.65
  -4  -6  -5  156.12   20.07
   4   6   5  224.07   24.26
   4   6   5  215.98   20.97
   4   6   5  220.71   24.47
  -5  -6  -5   25.25    8.35
   5   6   5   44.95   11.71
   5   6   5   36.89    8.88
   5   6   5   34.74    9.56
   6   6   5  205.89   27.39
   6   6   5  255.62   28.42
   6   6   5  241.59   26.70
   7   6   5  298.32   31.62
   7   6   5  250.28   31.80
   7   6   5  270.85   31.85
   8   6   5   89.57   17.77
   8   6   5   86.75   18.61
   8   6   5  106.63   20.61
  -4   7   5   14.18    7.78
  -3   7   5  279.35   31.11
  -2   7   5 1586.05  135.30
  -1   7   5  408.72   36.60
  -1   7   5  378.73   40.34
  -1   7   5  443.41   39.01
   0   7   5 1712.38  135.86
   0   7   5 1475.88  131.55
   1   7   5  248.36   25.84
   1   7   5  262.59   28.17
   1   7   5  229.95   25.49
  -2  -7  -5 1051.18   91.05
   2   7   5 1206.80   98.90
   3   7   5 3427.06  295.27
   3   7   5 3712.08  294.17
  -4  -7  -5    7.46    5.12
   4   7   5    3.09    7.38
   4   7   5   12.20    7.66
  -5  -7  -5   42.99   10.13
   5   7   5   42.31   12.76
   5   7   5   43.81   12.56
   6   7   5  918.09   83.94
   7   7   5  476.31   46.61
   7   7   5  391.97   45.22
   8   7   5   32.84   12.74
   8   7   5   44.62   13.63
  -3   8   5  149.08   22.73
  -2   8   5  939.01   85.07
   1  -8  -5  280.47   32.37
  -1   8   5  414.80   31.50
   0   8   5  306.83   28.93
   0   8   5  317.98   30.64
   1   8   5  484.64   47.14
   1   8   5  541.61   47.85
   2   8   5 1588.32  134.70
   3   8   5 1950.79  159.08
   3   8   5 1800.79  161.32
  -4  -8  -5   49.25    9.95
   4   8   5   68.57   15.24
   4   8   5   69.98   16.91
   5   8   5   82.26   18.54
   5   8   5   77.87   16.15
   6   8   5   -0.40    6.92
   6   8   5   -2.36    5.84
   7   8   5  143.67   25.64
   7   8   5  164.56   24.82
  -1   9   5  585.16   58.50
   0  -9  -5    0.58    4.82
   0   9   5   -7.22    8.27
   0   9   5   -0.33    5.00
   1   9   5  598.66   52.89
   1   9   5  581.15   54.36
   1   9   5  595.13   59.02
   2   9   5   41.40   15.07
   2   9   5   56.47   13.28
  -3  -9  -5   83.14   10.19
   3   9   5   85.53   18.25
   4   9   5  533.71   53.55
   4   9   5  533.24   55.31
   5   9   5   69.41   16.46
   5   9   5   38.21   14.67
   6   9   5  933.26   86.77
   6   9   5  909.71   87.18
   2  10   5  231.79   28.88
   2  10   5  282.70   35.33
   3  10   5  -12.71    6.77
   3  10   5    0.09    9.03
   4  10   5   -3.83    8.83
   3   5  -6   23.43   11.21
  -3  -5   6   10.45    7.97
   2   5  -6  185.09   25.01
  -2  -5   6  151.32   27.82
   1   5  -6   12.51    7.15
  -1  -5   6   10.23    8.18
   0   5  -6  596.85   60.76
   0  -5   6  683.89   66.26
  -1   5  -6  199.53   24.93
   1  -5   6  192.75   28.47
   2  -5   6  256.93   34.04
   4   4  -6  178.27   26.66
  -4  -4   6  150.71   28.37
   3   4  -6    0.58    4.88
  -3  -4   6  -10.89    6.07
   2   4  -6 1527.57  133.19
  -2  -4   6 1480.16  134.76
   1   4  -6   -0.90    5.31
  -1  -4   6    5.10    8.26
   0   4  -6  111.99   19.42
   0  -4   6   90.32   18.83
  -1   4  -6  102.38   18.03
   1  -4   6   94.50   19.72
   2  -4   6  344.02   40.34
   3  -4   6  148.63   25.95
   3  -4   6  161.04   18.76
   4  -4   6  102.40   20.55
   4  -4   6   72.17   17.10
   5   3  -6   64.76   17.23
  -5  -3   6   36.49    8.56
   4   3  -6  362.39   40.53
  -4  -3   6  332.41   36.78
   3   3  -6  495.10   55.40
  -3  -3   6  561.91   57.95
  -3  -3   6  582.73   51.75
   2   3  -6 3360.69  289.43
  -2  -3   6 3568.15  285.76
   1   3  -6  587.84   59.13
  -1  -3   6  649.88   61.87
   0   3  -6   43.78   12.03
   0  -3   6   35.26   11.42
  -1   3  -6 1448.18  134.27
   1  -3   6 1604.96  138.57
   1  -3   6 1672.41  134.10
   2  -3   6   29.05   10.95
   2  -3   6   41.93    9.43
   3  -3   6   53.37   10.64
   4  -3   6  674.52   60.10
   4  -3   6  632.80   64.66
   5  -3   6   72.31   16.49
   5  -3   6  109.85   21.13
   6   2  -6  492.50   53.47
   5   2  -6  891.02   85.15
   4   2  -6  375.41   41.99
  -4  -2   6  375.63   35.05
   3   2  -6 1827.93  161.61
  -3  -2   6 1900.49  155.44
   2   2  -6  153.84   22.94
  -2  -2   6  178.88   20.27
  -2  -2   6  168.70   23.48
   1   2  -6 1663.18  152.45
  -1  -2   6 2005.97  150.87
  -1  -2   6 1670.64  154.13
   0   2  -6  228.71   27.90
   0  -2   6  242.49   30.32
   0  -2   6  287.22   28.45
   0  -2   6  266.54   27.73
  -1   2  -6 2195.57  203.28
   1  -2   6 2702.71  203.97
   1  -2   6 2435.89  206.96
   2  -2   6  877.26   79.46
   2  -2   6  833.84   75.46
   3  -2   6    6.32    4.30
   3  -2   6    5.47    7.34
   4  -2   6 1930.06  158.25
   4  -2   6 1908.57  153.90
   4  -2   6 1622.70  156.35
   5  -2   6  278.81   27.99
   5  -2   6  261.29   31.32
   5  -2   6  212.79   29.77
   6  -2   6  127.09   22.96
   6   1  -6   91.29   19.50
   5   1  -6 1537.59  128.87
  -5  -1   6 1376.27  115.87
   4   1  -6   -1.49    4.03
   3   1  -6  631.72   59.71
  -3  -1   6  656.40   53.44
  -3  -1   6  520.24   57.02
   2   1  -6 2152.07  186.70
  -2  -1   6 2126.47  183.41
  -2  -1   6 2096.78  187.35
  -2  -1   6 2423.82  182.45
   1   1  -6   95.74   14.89
  -1  -1   6   99.20   15.04
  -1  -1   6   91.89   13.56
  -1  -1   6   94.91   17.00
   0   1  -6    5.17    6.02
   0  -1   6    8.13    5.03
   0  -1   6    4.29    4.66
   0  -1   6    5.89    5.10
  -1   1  -6  600.16   58.59
   1  -1   6  654.58   61.33
   1  -1   6  664.96   58.64
   1  -1   6  656.03   61.19
  -2   1  -6 3488.78  301.24
   2  -1   6 3698.43  299.66
   2  -1   6 3730.35  302.04
   3  -1   6  826.33   70.23
   3  -1   6  674.47   68.48
   3  -1   6  718.25   69.03
   4  -1   6   23.49    9.00
   4  -1   6   20.67    9.02
   4  -1   6   36.74    8.84
   5  -1   6   21.27    6.94
   5  -1   6    7.41    8.04
   5  -1   6    0.82    6.06
   6  -1   6  492.99   52.70
   6  -1   6  562.21   54.69
   7  -1   6   13.90    8.43
   7  -1   6   21.77   10.84
   6   0  -6   11.51    6.98
   5   0  -6 2454.78  220.08
  -5   0   6 2743.65  216.14
   4   0  -6  348.28   39.49
  -4   0   6  388.83   32.41
  -4   0   6  373.66   37.04
   3   0  -6  713.71   70.26
  -3   0   6  783.18   65.16
  -3   0   6  768.98   68.77
   2   0  -6 3815.98  320.86
  -2   0   6 3724.41  315.83
  -2   0   6 3813.80  321.66
  -2   0   6 4214.59  319.67
   1   0  -6  215.97   24.96
  -1   0   6  248.02   24.58
  -1   0   6  208.66   25.25
  -1   0   6  207.12   22.15
   0   0  -6   88.97   14.36
   0   0   6  103.38   15.40
   0   0   6  113.70   16.62
   0   0   6  102.83   13.29
  -1   0  -6  614.02   58.03
   1   0   6  596.90   57.11
   1   0   6  707.10   60.43
   1   0   6  654.36   58.21
  -2   0  -6 6436.75  549.51
   2   0   6 7000.03  548.56
   2   0   6 6908.94  550.21
   2   0   6 6656.92  550.81
  -3   0  -6  552.57   52.25
   3   0   6  527.10   50.97
   3   0   6  552.07   53.26
   3   0   6  535.67   52.03
   3   0   6  529.60   50.94
   4   0   6  362.93   39.85
   4   0   6  385.07   38.58
   4   0   6  401.70   40.21
   5   0   6   17.63    8.14
   5   0   6   22.45    8.64
   5   0   6   26.82    9.53
   6   0   6 1935.30  170.70
   6   0   6 2054.40  171.54
   7   0   6  429.06   47.42
   7   0   6  507.47   50.17
   8   0   6    8.69    9.35
   8   0   6    5.42    7.42
   6  -1  -6   82.63   17.07
  -6   1   6   83.49   13.51
   5  -1  -6  381.34   42.17
  -5   1   6  427.93   39.09
   4  -1  -6 3375.40  305.89
  -4   1   6 3770.87  297.25
  -4   1   6 3930.49  302.33
   3  -1  -6  188.79   23.48
  -3   1   6  198.97   20.83
  -3   1   6  218.01   24.18
  -3   1   6  200.52   18.64
  -3   1   6  183.74   19.13
   2  -1  -6  357.29   35.53
  -2   1   6  294.58   30.31
  -2   1   6  390.20   34.66
   1  -1  -6 1519.01  133.97
  -1   1   6 1562.19  134.65
  -1   1   6 1652.25  133.49
   0  -1  -6  615.53   58.93
   0   1   6  691.75   60.11
   0   1   6  649.42   58.72
  -1  -1  -6 1226.75  109.47
  -1  -1  -6 1278.29  110.48
   1   1   6 1320.07  110.72
   1   1   6 1288.99  109.77
   1   1   6 1302.54  111.82
  -2  -1  -6 1549.88  131.94
   2   1   6 1524.95  131.19
   2   1   6 1552.87  131.94
   2   1   6 1562.27  133.35
   3   1   6 1216.97  108.62
   3   1   6 1202.54  110.27
   3   1   6 1377.27  110.30
  -4  -1  -6 1186.93  109.73
   4   1   6 1258.13  109.60
   4   1   6 1343.58  110.81
   4   1   6 1275.55  111.24
   5   1   6   22.55    8.22
   5   1   6   18.36    8.04
   5   1   6   12.81    7.18
   6   1   6    5.79    4.79
   6   1   6    0.81    4.84
   7   1   6 1799.94  159.78
   7   1   6 1919.37  161.10
   8   1   6    1.92    8.75
   8   1   6   -7.28    6.08
   6  -2  -6  155.06   20.51
   5  -2  -6 1015.02  106.32
  -5   2   6 1403.70  103.03
   4  -2  -6 3914.32  341.75
  -4   2   6 4382.75  337.55
   3  -2  -6  806.42   77.06
  -3   2   6  959.52   77.19
  -3   2   6  840.70   72.35
  -3   2   6  869.48   73.70
   2  -2  -6 1468.97  126.57
  -2   2   6 1525.91  128.34
  -2   2   6 1461.95  123.44
   1  -2  -6 2106.19  189.30
  -1   2   6 2413.18  189.50
  -1   2   6 2320.36  190.10
   0  -2  -6  213.69   24.34
   0   2   6  234.61   25.67
   0   2   6  247.02   25.01
  -1  -2  -6  561.61   52.55
   1   2   6  586.29   53.98
   1   2   6  572.03   52.70
   1   2   6  574.38   52.90
  -2  -2  -6 1618.28  142.15
   2   2   6 1732.67  142.54
   2   2   6 1663.03  142.56
   2   2   6 1741.51  144.12
  -3  -2  -6 1282.22  117.22
   3   2   6 1453.01  118.15
   3   2   6 1392.86  119.26
   3   2   6 1376.26  118.01
  -4  -2  -6 2735.27  246.14
   4   2   6 3236.24  247.48
   4   2   6 2967.03  248.02
   5   2   6   19.98    7.76
   5   2   6   49.64   11.75
   6   2   6 1360.93  116.48
   6   2   6 1295.12  116.52
   7   2   6  847.25   72.18
   7   2   6  671.04   69.79
   8   2   6   89.78   18.16
   8   2   6  113.47   20.11
   6  -3  -6    4.80    5.34
   5  -3  -6 1550.81  132.27
  -5   3   6 1533.76  126.73
   4  -3  -6    5.33    5.11
  -4   3   6    9.48    4.51
  -4   3   6    1.42    5.20
  -4   3   6    6.61    3.18
   3  -3  -6   63.08   13.01
  -3   3   6   89.01    9.94
  -3   3   6   67.15    9.15
  -3   3   6   73.72   10.90
   2  -3  -6 1096.37   98.86
  -2   3   6 1152.56   96.47
  -2   3   6 1195.27   98.44
  -2   3   6 1146.42   97.87
   1  -3  -6  125.83   16.12
  -1   3   6  128.70   15.93
  -1   3   6  116.87   14.97
  -1   3   6  142.25   16.22
  -1   3   6  124.34   15.97
   0  -3  -6  441.45   42.91
   0   3   6  444.34   42.43
   0   3   6  470.10   43.96
   0   3   6  487.27   43.50
   0   3   6  458.33   43.52
  -1  -3  -6  307.40   31.20
   1   3   6  339.36   31.55
   1   3   6  307.11   32.96
   1   3   6  323.45   32.73
   1   3   6  323.11   32.18
  -2  -3  -6  123.75   15.91
   2   3   6  141.63   16.76
   2   3   6  146.16   18.08
   2   3   6  135.50   17.10
  -3  -3  -6  624.68   59.93
  -3  -3  -6  543.77   59.66
   3   3   6  747.41   60.84
   3   3   6  741.42   62.08
   3   3   6  709.37   62.37
  -4  -3  -6 1463.84  146.67
  -4  -3  -6 1689.14  147.14
   4   3   6 2006.14  148.18
   4   3   6 1841.07  149.27
  -5  -3  -6  478.20   47.36
  -5  -3  -6  441.56   47.22
   5   3   6  564.03   49.97
   6   3   6  157.61   21.43
   6   3   6  168.17   21.36
   7   3   6   -2.13    5.73
   7   3   6   -6.04    2.78
   8   3   6   70.91   15.63
   8   3   6   69.35   16.08
   9   3   6   95.84   19.49
   9   3   6   98.72   19.63
   9   3   6   80.73   18.57
   5  -4  -6  394.85   38.95
  -5   4   6  384.40   38.18
   4  -4  -6 1482.77  141.73
  -4   4   6 1913.47  138.74
  -4   4   6 1632.81  140.55
   3  -4  -6  224.75   28.63
  -3   4   6  284.46   27.54
  -3   4   6  277.60   26.15
  -3   4   6  338.53   27.92
  -3   4   6  319.05   30.11
   2  -4  -6   53.93   10.89
  -2   4   6   71.17   10.25
  -2   4   6   64.36    9.49
  -2   4   6   53.89   10.63
  -2   4   6   66.29    9.97
  -1   4   6 1265.71  108.67
  -1   4   6 1332.88  109.56
  -1   4   6 1271.03  108.45
   0   4   6 3326.38  267.16
   0   4   6 3314.39  265.72
   0   4   6 3261.54  267.53
   0   4   6 3113.48  267.05
  -1  -4  -6    4.53    3.72
  -1  -4  -6   -0.46    2.48
   1   4   6   -0.13    2.24
   1   4   6    0.24    3.38
   1   4   6    0.63    3.69
   1   4   6    0.19    3.12
  -2  -4  -6  171.03   18.42
  -2  -4  -6  123.06   18.02
   2   4   6  178.50   20.05
   2   4   6  173.42   21.10
   2   4   6  178.89   18.23
   2   4   6  158.11   19.65
  -3  -4  -6  957.00   99.73
  -3  -4  -6 1174.47   99.94
   3   4   6 1199.50  103.35
   3   4   6 1252.79  102.26
   3   4   6 1284.73  102.55
  -4  -4  -6 7494.49  662.88
   4   4   6 8416.56  665.43
   4   4   6 8679.76  667.58
  -5  -4  -6   -2.24    4.65
   5   4   6   -0.18    3.68
   5   4   6   -0.39    2.74
   5   4   6   -0.35    4.73
   6   4   6    9.64    7.12
   6   4   6   21.94    8.97
   6   4   6   13.91    9.40
   7   4   6 1259.09  113.70
   8   4   6  304.78   40.93
   8   4   6  303.41   35.73
   8   4   6  306.99   35.92
   9   4   6  208.46   29.60
   9   4   6  251.49   31.01
   9   4   6  246.91   30.54
   5  -5  -6   95.39   13.18
  -5   5   6   72.27   15.33
   4  -5  -6 1351.48  127.47
  -4   5   6 1731.12  128.47
  -4   5   6 1476.66  126.61
  -3   5   6   89.99   14.28
  -3   5   6   62.42    9.76
  -3   5   6   94.37   12.94
  -2   5   6 2921.89  241.78
  -2   5   6 3136.32  242.44
  -2   5   6 2852.40  239.24
  -2   5   6 2901.43  241.00
  -1   5   6  185.75   19.58
  -1   5   6  214.15   20.79
  -1   5   6  200.60   21.66
  -1   5   6  215.90   22.45
   0   5   6 2613.04  208.04
   0   5   6 2372.74  208.37
   0   5   6 2559.90  209.35
   0   5   6 2548.87  205.61
  -1  -5  -6   78.31   12.98
   1   5   6  118.77   12.27
   1   5   6  121.77   15.08
   1   5   6  106.61   15.43
   1   5   6  113.87   15.08
  -2  -5  -6  479.70   52.85
  -2  -5  -6  564.02   51.92
   2   5   6  623.18   51.50
   2   5   6  636.88   54.89
   2   5   6  614.39   55.29
   2   5   6  634.96   56.43
  -3  -5  -6  281.51   30.63
   3   5   6  358.42   30.82
   3   5   6  319.21   33.23
   3   5   6  306.33   34.59
  -4  -5  -6 2501.94  234.40
   4   5   6 2887.02  239.13
   4   5   6 3110.45  234.89
   4   5   6 2906.48  237.41
  -5  -5  -6  240.45   30.92
   5   5   6  347.25   32.50
   5   5   6  342.16   34.42
   5   5   6  331.45   35.71
   6   5   6  527.45   49.80
   6   5   6  524.21   51.88
   6   5   6  499.20   52.39
   7   5   6  531.33   51.82
   7   5   6  458.73   51.66
   7   5   6  515.10   53.23
   8   5   6   53.26   14.98
   8   5   6   48.82   12.84
   8   5   6   44.41   13.90
   9   5   6  336.10   40.24
  -4   6   6   63.63   10.56
  -4   6   6   92.30   13.28
   3  -6  -6  586.68   66.02
  -3   6   6  823.48   65.46
  -3   6   6  745.55   61.62
  -2   6   6 3843.54  297.08
  -2   6   6 3988.51  302.33
  -2   6   6 3292.58  296.88
  -2   6   6 3519.68  296.20
  -2   6   6 3808.47  299.99
  -1   6   6  590.53   58.18
  -1   6   6  697.26   57.26
  -1   6   6  713.44   60.81
   0  -6  -6  497.00   56.16
   0   6   6  695.01   55.07
   0   6   6  667.69   57.34
   0   6   6  605.09   55.56
  -1  -6  -6  930.93  101.98
   1   6   6 1189.48  103.25
   1   6   6 1300.08  101.89
   1   6   6 1292.28   96.92
   1   6   6 1187.60  102.40
  -2  -6  -6  322.38   29.90
  -2  -6  -6  255.57   31.57
   2   6   6  355.76   35.37
   2   6   6  347.01   29.17
   2   6   6  341.90   33.42
  -3  -6  -6  760.66   73.41
   3   6   6  928.51   77.29
   3   6   6  831.43   78.15
   3   6   6  905.29   73.03
  -4  -6  -6  121.46   17.77
   4   6   6  177.62   20.98
   4   6   6  144.13   21.85
   4   6   6  167.25   18.04
  -5  -6  -6  291.73   36.64
   5   6   6  423.40   37.79
   5   6   6  413.18   40.65
   5   6   6  407.08   41.92
   6   6   6  240.67   31.81
   6   6   6  221.05   26.16
   6   6   6  227.52   29.39
   7   6   6   29.64   12.44
   7   6   6   29.28   12.35
   7   6   6   35.14   12.80
   8   6   6  193.81   26.33
   8   6   6  200.86   27.70
   8   6   6  185.10   27.43
  -3   7   6   -6.54    7.63
  -2   7   6  993.09   87.79
  -1   7   6  278.26   28.98
  -1   7   6  310.24   33.15
  -1   7   6  334.07   28.79
   0   7   6  386.17   39.10
   0   7   6  399.36   41.96
   0   7   6  470.23   39.32
   1   7   6  270.59   29.49
   1   7   6  291.52   31.95
   1   7   6  301.20   29.94
  -2  -7  -6  367.20   33.99
   2   7   6  442.68   39.69
   2   7   6  395.24   40.73
  -3  -7  -6  590.38   58.14
   3   7   6  687.40   62.31
   3   7   6  701.57   64.13
   3   7   6  712.78   57.56
  -4  -7  -6 1410.40  140.81
   4   7   6 1718.04  146.90
   4   7   6 1839.49  145.44
   4   7   6 1815.57  140.90
   5   7   6  624.34   58.91
   5   7   6  542.81   62.06
   5   7   6  605.35   54.44
   6   7   6   64.20   13.65
   6   7   6   75.87   16.04
   6   7   6   70.72   17.65
   7   7   6  155.22   24.12
   7   7   6  160.24   23.49
   8   7   6   24.86   13.21
   8   7   6   15.98    9.95
   8   7   6   29.30   12.47
  -2   8   6    0.93    8.81
  -1   8   6  524.65   43.67
  -1   8   6  506.28   44.15
  -1   8   6  436.15   52.39
   0   8   6  356.31   32.92
   0   8   6  341.31   33.50
  -1  -8  -6   50.58   11.96
   1   8   6   79.10   13.44
   1   8   6   84.39   19.42
   1   8   6   62.57   12.22
   2   8   6  778.24   68.09
   2   8   6  714.97   70.80
  -3  -8  -6  351.76   34.40
   3   8   6  374.58   40.16
   3   8   6  386.69   38.92
  -4  -8  -6 2470.29  235.07
   4   8   6 3175.71  243.04
   4   8   6 3017.49  240.75
  -5  -8  -6    2.38    6.31
   5   8   6    4.11    6.72
   5   8   6    1.33    6.40
   6   8   6  481.39   50.02
   6   8   6  451.96   49.66
   7   8   6  208.38   29.97
   7   8   6  213.25   28.96
   1  -9  -6   29.07    8.46
  -1   9   6   58.18   15.93
   0   9   6  590.01   49.55
   0   9   6  580.37   57.11
   0   9   6  531.38   50.94
   1   9   6   33.09   10.48
   1   9   6   26.29   12.19
   2   9   6  358.49   37.35
   2   9   6  353.87   40.41
   3   9   6   -8.14    8.15
  -4  -9  -6  229.90   25.42
   4   9   6  253.45   30.20
   4   9   6  293.50   34.39
  -5  -9  -6  110.62   17.71
   5   9   6  180.65   26.71
   5   9   6  139.22   23.78
   6   9   6  440.38   50.62
   6   9   6  498.77   52.36
   2  10   6   -1.75    7.45
   3  10   6  112.19   20.15
   3  10   6   99.93   22.69
   3   4  -7  112.70   23.76
  -3  -4   7  107.58   24.01
   2   4  -7   -5.00    6.77
  -2  -4   7   -3.02    5.66
   1   4  -7  604.35   60.33
  -1  -4   7  590.15   62.28
   0   4  -7  756.34   73.87
   0  -4   7  825.46   78.70
  -1   4  -7   45.08   14.87
   1  -4   7   20.25   11.18
   2  -4   7    8.09    9.69
   3  -4   7  472.46   52.70
   4   3  -7   11.79    8.89
  -4  -3   7   10.72    9.30
   3   3  -7  591.01   61.30
  -3  -3   7  600.47   62.65
   2   3  -7  250.20   32.89
  -2  -3   7  301.19   36.35
   1   3  -7 2126.84  191.11
  -1  -3   7 2364.92  194.82
   0   3  -7 1127.08  102.53
   0  -3   7 1164.22  105.84
  -1   3  -7  125.27   18.49
   1  -3   7  104.40   21.64
   2  -3   7  631.49   64.53
   3  -3   7 1203.46  110.95
   4  -3   7  792.97   85.60
   4  -3   7 1085.74   90.52
   5   2  -7    3.18    8.01
   4   2  -7   60.09   16.80
  -4  -2   7   27.35    9.84
   3   2  -7  128.62   23.21
  -3  -2   7  105.29   22.33
  -3  -2   7  106.86   17.04
   2   2  -7 1674.07  152.97
  -2  -2   7 1907.35  148.72
  -2  -2   7 1660.86  154.05
   1   2  -7  994.48   91.25
   0   2  -7  553.54   55.17
   0  -2   7  578.22   57.60
  -1   2  -7  496.36   51.90
   1  -2   7  592.46   56.10
   2  -2   7  224.34   32.31
   3  -2   7   -2.38    5.40
   4  -2   7  177.16   24.82
   4  -2   7  151.90   23.51
   5  -2   7 1112.22  108.81
   5  -2   7 1300.56  111.03
   6  -2   7    2.93    9.58
   6  -2   7    3.94    6.35
   5   1  -7  209.12   29.57
   4   1  -7  928.35   88.12
   3   1  -7   -3.42    6.33
  -3  -1   7    2.04    6.18
  -3  -1   7   -7.76    4.55
   2   1  -7  602.16   62.39
  -2  -1   7  674.43   57.82
  -2  -1   7  629.61   63.21
   1   1  -7  238.24   29.82
  -1  -1   7  265.03   31.59
  -1  -1   7  275.26   27.65
   0   1  -7   14.60    7.11
   0  -1   7   28.05   10.90
   0  -1   7   36.35    8.75
  -1   1  -7   66.98   13.73
   1  -1   7   58.96   14.34
   2  -1   7   -0.10    5.11
   3  -1   7  531.34   51.13
   3  -1   7  452.26   50.26
   4  -1   7    8.78    6.88
   4  -1   7   -1.01    6.03
   5  -1   7 1820.53  149.71
   5  -1   7 1579.31  148.70
   6  -1   7   56.30   14.87
   6  -1   7   42.07   12.95
   5   0  -7   98.03   20.13
   4   0  -7  983.49   91.51
   3   0  -7   42.72   12.75
  -3   0   7   46.45    8.38
   2   0  -7   57.77   14.06
  -2   0   7   73.51   10.83
  -2   0   7   67.00   16.07
   1   0  -7 2046.74  174.06
  -1   0   7 2050.94  174.90
  -1   0   7 2039.97  170.00
   0   0  -7 1174.45  109.40
   0   0   7 1350.92  113.04
   0   0   7 1261.00  111.17
  -1   0  -7   13.32    7.57
   1   0   7    8.54    6.33
   1   0   7   10.76    5.38
   1   0   7    8.73    7.26
   2   0   7   10.44    6.46
   2   0   7    9.39    7.26
   2   0   7   24.18    6.54
   2   0   7    2.76    4.65
   3   0   7  362.69   39.13
   3   0   7  429.12   42.51
   3   0   7  400.21   42.81
   4   0   7   -1.09    5.93
   5   0   7 1286.19  114.01
   5   0   7 1255.10  114.10
   6   0   7   27.28   11.02
   6   0   7   22.51   11.52
   7   0   7  313.29   38.36
   7   0   7  347.12   39.54
   6  -1  -7   67.16   15.09
  -6   1   7   27.73   10.84
   5  -1  -7  572.74   59.01
  -5   1   7  613.70   54.92
  -4   1   7  525.86   47.45
  -4   1   7  495.16   42.68
  -4   1   7  496.49   42.53
   3  -1  -7  985.20   93.07
  -3   1   7 1178.91   89.96
  -3   1   7  957.43   87.53
  -3   1   7 1023.72   86.56
   2  -1  -7 1247.99  107.46
  -2   1   7 1181.32  101.71
  -2   1   7 1214.02  107.70
   1  -1  -7 6105.98  494.73
  -1   1   7 6109.12  495.31
  -1   1   7 6536.24  494.38
  -1   1   7 5502.75  490.30
   0  -1  -7 1758.90  157.54
   0   1   7 1980.84  157.84
   0   1   7 1848.27  158.61
  -1  -1  -7 2610.92  232.74
   1   1   7 2838.31  233.26
   1   1   7 2843.47  234.35
   1   1   7 2941.02  236.11
  -2  -1  -7 1800.37  158.61
   2   1   7 1826.09  157.82
   2   1   7 1889.80  160.54
   2   1   7 1945.60  159.35
  -3  -1  -7  318.40   36.13
   3   1   7  351.69   38.00
   3   1   7  345.17   36.57
   3   1   7  358.99   36.15
   4   1   7   80.90   16.68
   4   1   7   79.24   15.99
   5   1   7  282.92   34.53
   5   1   7  326.67   35.41
   6   1   7 1256.66  105.56
   6   1   7 1062.50  104.63
   7   1   7   63.68   16.21
   7   1   7   58.72   14.98
   8   1   7  396.34   46.65
   8   1   7  490.70   49.85
   5  -2  -7  478.78   49.47
  -5   2   7  493.49   44.99
   4  -2  -7  788.46   79.68
  -4   2   7  955.62   71.88
  -4   2   7  849.41   71.61
  -4   2   7  879.14   75.88
   3  -2  -7  261.66   30.32
  -3   2   7  257.89   28.14
  -3   2   7  266.91   25.61
  -3   2   7  286.14   27.16
   2  -2  -7  412.42   44.18
  -2   2   7  493.26   47.31
  -2   2   7  462.76   45.54
  -2   2   7  444.60   41.87
   1  -2  -7 2156.98  193.39
  -1   2   7 2303.34  194.13
  -1   2   7 2374.58  193.19
  -1   2   7 2409.70  194.60
   0  -2  -7 4857.32  426.09
   0   2   7 5214.92  426.30
   0   2   7 5462.11  428.29
   0   2   7 5354.77  427.02
   1   2   7 2265.72  187.93
   1   2   7 2231.34  189.42
   1   2   7 2221.90  187.64
  -2  -2  -7 2441.84  215.83
   2   2   7 2644.73  213.06
   2   2   7 2546.24  214.58
   2   2   7 2550.28  212.81
  -3  -2  -7  620.96   60.74
   3   2   7  673.46   63.23
   3   2   7  653.26   61.20
   3   2   7  672.17   61.43
  -4  -2  -7   47.01   13.23
   4   2   7   79.60   14.55
   4   2   7   68.45   15.01
   4   2   7   87.20   17.89
   5   2   7    3.55    4.73
   5   2   7    0.07    4.09
   6   2   7  545.12   55.02
   7   2   7  803.76   73.16
   7   2   7  715.13   72.41
   8   2   7   19.74    9.73
   8   2   7   23.27   10.83
   5  -3  -7   74.05   14.66
  -5   3   7   55.36    9.30
  -5   3   7   74.33   10.95
   4  -3  -7 2423.40  239.07
  -4   3   7 3101.13  235.19
  -4   3   7 3061.03  232.85
   3  -3  -7   -5.53    5.14
  -3   3   7    0.07    3.57
   2  -3  -7 1047.25  105.11
  -2   3   7 1225.55  103.13
  -2   3   7 1282.72  105.51
  -2   3   7 1297.77  106.87
  -2   3   7 1246.52  105.35
   1  -3  -7   61.20   13.29
  -1   3   7   93.70   12.75
  -1   3   7   58.26   12.22
  -1   3   7   66.18   12.80
  -1   3   7   60.10   12.03
   0  -3  -7 2760.83  242.74
   0   3   7 2961.43  243.14
   0   3   7 2970.46  243.63
   0   3   7 3084.38  244.40
   0   3   7 2900.73  242.62
   1   3   7 2731.69  227.86
   1   3   7 2884.90  230.13
   1   3   7 2639.93  228.39
  -2  -3  -7 1180.21  104.81
   2   3   7 1187.40  105.60
   2   3   7 1269.52  105.22
   2   3   7 1213.43  106.74
  -3  -3  -7  741.08   70.07
   3   3   7  742.76   70.81
   3   3   7  828.17   70.66
   3   3   7  799.02   72.61
  -4  -3  -7   -4.58    3.90
   4   3   7   10.64    6.83
   4   3   7   -0.45    3.85
   4   3   7    9.30    6.45
   5   3   7  953.29   83.54
   5   3   7  888.39   84.40
   6   3   7   94.34   18.69
   6   3   7   99.94   18.08
   7   3   7 3327.85  264.58
   7   3   7 2972.88  264.13
   8   3   7   40.37   11.99
   8   3   7   57.76   15.19
   5  -4  -7  223.66   26.37
   4  -4  -7 2710.97  250.17
  -4   4   7 3320.83  245.43
  -4   4   7 2991.29  245.58
  -4   4   7 3026.36  248.50
   3  -4  -7  227.93   29.42
  -3   4   7  291.60   30.65
  -3   4   7  302.60   27.64
  -3   4   7  279.20   27.85
  -3   4   7  317.74   31.09
   2  -4  -7  138.28   19.27
  -2   4   7  163.48   18.54
  -2   4   7  180.94   19.84
  -2   4   7  167.04   18.91
  -2   4   7  148.25   19.44
   1  -4  -7 1212.90  111.76
  -1   4   7 1358.95  115.15
  -1   4   7 1331.97  112.42
  -1   4   7 1322.16  111.32
  -1   4   7 1300.45  111.61
   0   4   7 1255.69  106.42
   0   4   7 1179.35  107.44
   0   4   7 1307.17  108.10
   1   4   7 4004.80  319.18
   1   4   7 3974.89  321.98
   1   4   7 3760.02  324.21
   1   4   7 3851.52  320.99
  -2  -4  -7  471.10   45.76
   2   4   7  493.23   47.76
   2   4   7  512.21   49.42
   2   4   7  461.70   47.23
   2   4   7  502.83   45.80
  -3  -4  -7 1036.99  107.69
  -3  -4  -7 1252.82  108.27
   3   4   7 1378.10  108.49
   3   4   7 1335.39  110.91
   3   4   7 1359.28  112.64
   3   4   7 1202.56  109.49
  -4  -4  -7   11.90    6.59
   4   4   7   16.21    9.59
   4   4   7   14.69    6.37
   4   4   7   19.91    8.26
   5   4   7 4052.23  335.49
   5   4   7 3986.52  333.32
   5   4   7 4026.34  331.12
   6   4   7   68.95   18.21
   6   4   7  104.82   17.58
   6   4   7   99.11   18.61
   7   4   7 1804.88  165.54
   7   4   7 1946.73  162.87
   7   4   7 1916.04  164.02
   8   4   7  718.24   79.21
   8   4   7  907.41   79.92
   8   4   7  845.19   78.43
   4  -5  -7  831.91   76.17
  -4   5   7  877.00   74.44
   3  -5  -7 1933.41  183.78
  -3   5   7 2499.75  184.72
  -3   5   7 2097.56  179.37
  -3   5   7 2426.92  182.70
  -3   5   7 2099.26  183.83
  -3   5   7 2203.81  181.61
  -2   5   7   30.11    7.99
  -2   5   7   15.95    6.15
  -2   5   7   12.57    5.08
  -1   5   7  268.82   27.42
  -1   5   7  258.76   28.00
  -1   5   7  254.39   26.42
  -1   5   7  288.00   28.72
   0   5   7  781.26   71.57
   0   5   7  802.76   68.89
   0   5   7  782.26   71.57
   0   5   7  813.01   70.88
   1   5   7 6477.36  528.34
   1   5   7 6515.40  532.49
   1   5   7 6600.39  531.35
  -2  -5  -7 1285.29  115.63
   2   5   7 1249.60  117.99
   2   5   7 1488.95  115.81
   2   5   7 1438.26  120.38
   2   5   7 1387.25  118.53
  -3  -5  -7  154.46   22.49
  -3  -5  -7  207.65   23.24
   3   5   7  236.40   23.23
   3   5   7  242.35   26.31
   3   5   7  212.75   25.01
   3   5   7  191.12   26.28
  -4  -5  -7  685.12   68.39
   4   5   7  825.59   72.05
   4   5   7  726.78   72.86
   4   5   7  826.11   68.84
  -5  -5  -7  232.18   29.63
   5   5   7  279.68   33.82
   5   5   7  284.65   32.68
   5   5   7  325.11   30.99
   6   5   7  337.01   41.63
   6   5   7  354.20   36.06
   6   5   7  321.84   38.72
   7   5   7   14.12    8.52
   7   5   7    3.69    7.28
   7   5   7    5.18    9.45
   8   5   7 2333.43  219.78
   8   5   7 2708.56  218.66
   8   5   7 2666.50  219.77
  -4   6   7  128.33   17.27
  -3   6   7 2195.04  176.27
  -3   6   7 1904.36  174.13
  -3   6   7 2108.91  173.28
  -3   6   7 2263.92  176.26
  -2   6   7  595.03   60.52
  -2   6   7  740.80   60.69
  -2   6   7  771.21   64.16
  -2   6   7  807.68   65.44
  -2   6   7  707.09   61.33
  -1   6   7 2943.26  244.02
  -1   6   7 3134.51  246.19
  -1   6   7 3047.13  248.75
  -1   6   7 2909.33  247.65
   0   6   7  362.00   34.99
   0   6   7  381.60   36.46
   0   6   7  326.40   33.71
   0   6   7  331.10   30.54
  -1  -6  -7  100.06   16.20
   1   6   7  167.28   21.42
   1   6   7  156.50   20.49
   1   6   7  138.08   14.38
   1   6   7  137.60   18.03
  -2  -6  -7 1453.87  129.85
   2   6   7 1621.22  135.58
   2   6   7 1672.82  129.46
   2   6   7 1481.18  133.82
   2   6   7 1564.49  133.40
  -3  -6  -7   23.17    7.18
  -3  -6  -7    8.61    6.89
   3   6   7   29.02   11.21
   3   6   7   16.82    6.02
   3   6   7   26.63    9.34
  -4  -6  -7 1139.68  109.80
   4   6   7 1245.46  114.79
   4   6   7 1437.15  110.03
   4   6   7 1318.56  113.26
  -5  -6  -7  204.40   27.87
   5   6   7  277.25   33.59
   5   6   7  288.09   28.85
   5   6   7  290.06   31.62
   6   6   7    1.85    6.08
   6   6   7   14.37    9.23
   6   6   7   10.64    7.94
   7   6   7   77.00   19.02
   7   6   7   84.91   18.48
   7   6   7  101.22   18.17
   8   6   7 1216.76  118.14
   8   6   7 1316.57  117.84
   8   6   7 1355.51  116.18
  -3   7   7   69.74   15.66
  -2   7   7  519.99   45.23
  -2   7   7  547.66   51.48
  -2   7   7  554.68   48.68
  -1   7   7  994.92   88.97
  -1   7   7 1065.34   87.52
  -1   7   7 1049.64   91.77
   0   7   7  264.63   28.80
   0   7   7  251.74   26.15
   0   7   7  220.68   25.09
  -1  -7  -7   95.16   19.20
   1   7   7  137.60   20.39
   1   7   7  148.77   18.28
   1   7   7  164.35   19.30
   2   7   7 1599.47  130.21
   2   7   7 1575.80  124.26
   2   7   7 1400.73  130.34
   2   7   7 1463.45  131.84
  -3  -7  -7    2.93    4.52
   3   7   7   15.33    8.90
   3   7   7    2.15    4.06
   3   7   7    4.31    5.66
  -4  -7  -7  160.27   20.09
   4   7   7  179.86   19.86
   4   7   7  182.31   23.31
   5   7   7 2259.95  183.46
   5   7   7 2042.47  188.77
   5   7   7 2281.09  187.83
   6   7   7  204.15   28.77
   6   7   7  198.84   25.14
   6   7   7  198.64   27.82
   7   7   7   63.38   17.04
   7   7   7   69.34   14.80
   7   7   7   63.08   17.50
   8   7   7  262.94   34.80
   8   7   7  288.17   34.71
   8   7   7  247.15   31.90
  -2   8   7 1217.85  107.30
  -1   8   7   -8.93    4.25
  -1   8   7   -5.01    8.10
   0  -8  -7  162.85   22.77
   0   8   7  256.54   28.42
   0   8   7  219.19   23.17
   0   8   7  234.61   23.86
   1   8   7  528.08   51.89
   1   8   7  542.55   48.64
   1   8   7  463.56   48.10
   2   8   7 1216.76   99.98
   2   8   7 1067.33  100.15
   2   8   7 1116.51  102.17
   3   8   7 1755.80  155.87
   3   8   7 1832.92  153.62
  -4  -8  -7  337.68   37.34
   4   8   7  416.74   44.49
   4   8   7  443.85   43.13
  -5  -8  -7 2738.65  267.42
   5   8   7 3482.79  270.30
   5   8   7 3356.18  264.60
   5   8   7 3287.35  271.95
   6   8   7   59.31   13.20
   6   8   7   55.77   15.62
   6   8   7   56.48   15.01
   7   8   7  189.44   27.92
   7   8   7  218.87   30.29
   7   8   7  171.29   24.66
   0  -9  -7   81.38   22.05
   0   9   7   95.38   15.38
   0   9   7  125.69   21.80
   1   9   7  589.57   59.84
   1   9   7  608.93   55.53
   1   9   7  595.97   55.09
   2   9   7   23.86   10.41
   2   9   7   13.30    8.85
   3   9   7 1305.80  111.63
   3   9   7 1219.71  114.00
  -4  -9  -7  268.62   31.04
   4   9   7  367.22   38.51
   4   9   7  401.85   40.77
  -5  -9  -7  183.01   26.18
   5   9   7  279.33   34.08
   5   9   7  279.91   31.61
   6   9   7  272.31   34.77
   6   9   7  290.95   37.51
   2   3  -8  211.39   30.05
  -2  -3   8  217.65   31.85
   1   3  -8    4.30    8.54
  -1  -3   8   -0.37    5.65
   0   3  -8  940.58   88.11
   0  -3   8  947.00   91.21
  -1   3  -8  959.28   92.95
   1  -3   8 1102.71   98.68
   2  -3   8   46.52   14.15
   3  -3   8  663.05   68.94
   3   2  -8 1596.94  138.02
  -3  -2   8 1435.10  137.36
   2   2  -8   40.15   13.75
  -2  -2   8   44.99   14.46
   1   2  -8 1817.61  158.32
  -1  -2   8 1798.55  159.92
   0   2  -8  203.88   28.48
   0  -2   8  253.33   31.36
  -1   2  -8  972.96   94.51
   1  -2   8 1136.91   99.31
   2  -2   8  366.25   43.41
   3  -2   8 2177.62  183.79
   3  -2   8 2026.99  183.11
   4  -2   8  236.73   32.89
   4  -2   8  248.49   33.51
   4   1  -8   45.73   13.25
  -4  -1   8   16.22    9.73
  -4  -1   8   10.64    8.90
   3   1  -8 2202.64  189.34
  -3  -1   8 2142.65  189.85
   2   1  -8  842.35   82.03
  -2  -1   8  840.11   82.99
  -2  -1   8  889.86   76.30
   1   1  -8  547.67   56.51
  -1  -1   8  569.35   57.85
   0  -1   8   20.02    9.87
  -1   1  -8    1.00    7.19
   1  -1   8    5.27    5.61
   2  -1   8  927.09   87.34
   3  -1   8 1064.51  103.53
   3  -1   8 1181.70  104.11
   4  -1   8  993.46   91.37
   4  -1   8  926.00   90.92
   5  -1   8  259.86   33.55
   5  -1   8  239.42   33.35
   6  -1   8  189.26   27.33
   6  -1   8  165.81   30.14
   4   0  -8   26.72   11.22
  -4   0   8   18.99    9.23
   3   0  -8 2219.41  194.95
  -3   0   8 2418.38  186.93
  -3   0   8 2106.20  195.08
   2   0  -8 2206.16  189.04
  -2   0   8 1961.58  193.40
  -2   0   8 2361.65  183.21
   1   0  -8  538.06   56.90
  -1   0   8  521.93   53.19
  -1   0   8  491.18   47.62
   0   0  -8  365.44   40.86
   0   0   8  434.49   42.32
   0   0   8  376.00   42.00
  -1   0  -8   34.71   11.94
   1   0   8   56.46   13.15
   2   0   8  113.61   22.40
   2   0   8  133.39   20.02
   3   0   8  347.07   45.69
   3   0   8  391.68   45.31
   4   0   8 2307.85  189.44
   4   0   8 2084.78  189.34
   5   0   8 1076.72  110.03
   5   0   8 1373.30  112.42
   6   0   8  138.29   23.91
   6   0   8  108.09   21.50
   5  -1  -8  152.97   23.91
   4  -1  -8  361.56   39.47
  -4   1   8  287.47   31.99
  -4   1   8  349.55   29.92
   3  -1  -8 2260.53  195.41
  -3   1   8 2296.66  187.34
   2  -1  -8 2729.11  232.71
  -2   1   8 2730.52  232.74
  -2   1   8 2774.52  225.88
   1  -1  -8 2296.61  196.88
  -1   1   8 2207.81  192.38
  -1   1   8 2474.25  198.28
   0  -1  -8 1800.42  155.32
   0   1   8 1872.57  156.55
   0   1   8 1763.80  152.25
  -1  -1  -8  108.50   19.03
   1   1   8  104.27   19.67
   1   1   8   97.05   13.99
   1   1   8  110.17   19.64
   2   1   8  468.13   49.54
   2   1   8  472.71   48.43
   3   1   8 4611.83  386.17
   3   1   8 4693.73  384.49
   4   1   8  917.38   84.79
   4   1   8  905.78   86.28
   5   1   8 2291.00  185.77
   5   1   8 2016.34  185.39
   6   1   8   26.65   11.64
   6   1   8   11.78    8.18
   7   1   8  163.55   25.23
   7   1   8  148.93   26.90
   5  -2  -8  113.70   20.10
  -5   2   8   79.55   15.76
   4  -2  -8  157.37   23.69
  -4   2   8  154.28   20.71
  -4   2   8  175.88   16.03
  -3   2   8  282.35   26.71
  -3   2   8  312.88   29.65
  -3   2   8  253.58   27.71
  -3   2   8  309.18   34.64
   2  -2  -8  864.99   81.91
  -2   2   8  978.13   83.70
  -2   2   8  850.14   78.15
   1  -2  -8 6890.25  588.60
  -1   2   8 7215.28  589.30
  -1   2   8 7555.84  589.73
   0  -2  -8  549.90   54.92
   0   2   8  566.99   55.34
   0   2   8  591.92   56.75
   1   2   8  863.54   79.01
   1   2   8  866.89   80.66
  -2  -2  -8   99.14   17.88
   2   2   8   95.96   18.04
   2   2   8  113.21   20.39
   3   2   8 1604.92  135.02
   3   2   8 1493.94  136.37
   4   2   8 1968.89  164.05
   4   2   8 1840.63  165.19
   6   2   8 1155.99  106.46
   6   2   8 1157.36  105.05
   7   2   8   35.90   13.65
   7   2   8   31.48   12.91
   5  -3  -8  628.69   59.06
  -5   3   8  598.30   53.33
  -5   3   8  566.16   54.29
   4  -3  -8    5.71    6.74
  -4   3   8  -11.03    4.95
  -4   3   8   -3.28    3.16
  -4   3   8    1.85    4.83
   3  -3  -8 2680.80  247.78
  -3   3   8 2941.54  246.43
  -3   3   8 2936.82  249.26
  -3   3   8 3275.96  243.15
   2  -3  -8    2.67    5.69
  -2   3   8   -1.21    4.51
  -2   3   8    1.59    4.96
  -2   3   8    2.19    3.91
   1  -3  -8 1304.09  126.06
  -1   3   8 1514.66  127.51
  -1   3   8 1480.57  125.66
  -1   3   8 1564.32  127.48
   0  -3  -8   48.64   12.75
   0   3   8   65.01   13.51
   0   3   8   79.67   15.49
   0   3   8   63.35   14.06
   1   3   8 2022.68  172.51
   1   3   8 2059.19  174.58
  -2  -3  -8   -7.41    3.48
   2   3   8    2.55    5.21
   2   3   8    2.66    3.98
  -3  -3  -8  309.20   36.65
   3   3   8  394.79   38.56
   3   3   8  375.55   39.78
   4   3   8 1570.69  139.65
   4   3   8 1603.11  137.52
   5   3   8   30.17   11.45
   5   3   8   39.29   12.42
   6   3   8 2043.52  184.31
   6   3   8 2234.90  183.82
   7   3   8  419.54   49.06
   7   3   8  501.32   50.18
   8   3   8  603.73   64.03
   8   3   8  651.09   64.11
   4  -4  -8   63.22   15.39
  -4   4   8   38.25    7.57
  -4   4   8   47.78   12.18
  -4   4   8   38.48    9.07
  -4   4   8   44.29    8.83
   3  -4  -8 1484.16  134.61
  -3   4   8 1606.03  132.45
  -3   4   8 1587.58  135.33
   2  -4  -8  670.39   63.54
  -2   4   8  700.84   60.72
  -2   4   8  695.78   62.35
  -2   4   8  626.39   62.44
   1  -4  -8  147.78   20.88
  -1   4   8  165.26   21.46
  -1   4   8  193.86   21.86
  -1   4   8  140.80   19.35
   0   4   8 1250.76  110.78
   0   4   8 1314.48  112.64
   0   4   8 1287.06  112.32
   1   4   8  457.19   42.40
   1   4   8  402.04   43.71
   1   4   8  415.81   43.85
  -2  -4  -8  336.58   33.68
   2   4   8  304.85   36.11
   2   4   8  304.55   35.18
   2   4   8  316.19   33.15
  -3  -4  -8   66.13   13.62
   3   4   8   77.98   17.38
   3   4   8   61.89   13.10
   3   4   8   59.02   14.37
  -4  -4  -8  372.29   42.35
   4   4   8  406.81   44.95
   4   4   8  458.91   43.63
   4   4   8  466.49   47.88
   5   4   8  175.70   25.99
   5   4   8  194.10   24.77
   5   4   8  206.43   29.00
   6   4   8 2432.13  201.97
   6   4   8 2250.83  198.47
   6   4   8 2273.43  200.86
   7   4   8  664.52   71.31
   7   4   8  825.72   72.58
   7   4   8  741.43   75.00
   8   4   8   17.95   11.53
   8   4   8   22.37   11.98
   8   4   8   21.89   12.21
   4  -5  -8  647.01   59.84
  -4   5   8  724.06   58.26
  -4   5   8  709.90   60.86
  -4   5   8  534.11   52.05
   3  -5  -8  568.06   57.55
  -3   5   8  598.51   53.96
  -3   5   8  703.04   55.78
  -3   5   8  590.57   54.86
  -3   5   8  605.26   57.50
  -2   5   8 1758.16  152.78
  -2   5   8 1861.00  152.06
  -1   5   8  372.22   37.26
  -1   5   8  419.12   41.79
  -1   5   8  345.28   36.35
  -1   5   8  362.64   37.12
   0   5   8 4360.60  351.60
   0   5   8 3981.67  351.66
   0   5   8 4484.73  352.41
   1   5   8 4861.36  381.38
   1   5   8 4462.50  376.10
   1   5   8 4609.56  373.62
   1   5   8 4391.81  376.94
  -2  -5  -8 3330.64  302.48
   2   5   8 3802.59  302.83
   2   5   8 3796.32  306.10
   2   5   8 3833.40  307.82
  -3  -5  -8  144.33   20.05
   3   5   8  156.07   22.95
   3   5   8  171.31   22.29
   3   5   8  159.11   20.05
  -4  -5  -8  297.04   36.14
   4   5   8  376.06   40.18
   4   5   8  402.95   37.60
   4   5   8  373.11   41.61
   5   5   8 2254.20  190.05
   6   5   8  756.31   67.79
   6   5   8  688.06   71.41
   6   5   8  685.56   69.17
   7   5   8 1248.63  104.04
   7   5   8 1066.63  106.56
   7   5   8 1114.78  105.18
   8   5   8   92.99   20.56
   8   5   8  108.29   21.23
   8   5   8  125.45   25.32
  -3   6   8  348.88   30.79
  -3   6   8  390.66   36.96
  -2   6   8  243.26   27.03
  -2   6   8  222.65   23.06
  -2   6   8  248.02   24.26
  -2   6   8  256.45   26.46
  -1   6   8  772.68   71.16
  -1   6   8  762.81   70.58
  -1   6   8  818.41   69.69
   0   6   8 1777.19  142.89
   0   6   8 1546.92  142.59
   0   6   8 1635.63  143.77
   0   6   8 1748.52  139.77
   1   6   8 7160.89  564.16
   1   6   8 6101.91  571.02
   1   6   8 7366.40  568.48
   1   6   8 7239.31  569.99
  -2  -6  -8  200.07   30.21
   2   6   8  304.92   33.52
   2   6   8  292.29   27.80
   2   6   8  278.24   31.24
  -3  -6  -8  267.92   30.08
   3   6   8  308.35   33.80
   3   6   8  263.24   34.19
   3   6   8  318.99   30.23
  -4  -6  -8   85.95   16.69
   4   6   8   93.37   18.70
   4   6   8  116.03   26.16
   4   6   8  117.69   15.97
   5   6   8 1400.09  129.79
   5   6   8 1459.99  123.82
   5   6   8 1447.55  127.66
   6   6   8  215.29   28.09
   6   6   8  205.70   30.64
   6   6   8  203.82   25.88
   7   6   8   -0.43    5.48
   7   6   8   10.29    8.53
   7   6   8  -10.03    6.49
   8   6   8  512.44   53.71
   8   6   8  549.29   58.83
   8   6   8  511.84   56.14
  -2   7   8   -2.22    7.23
  -2   7   8   15.74    5.64
  -2   7   8   -6.88    3.62
  -1   7   8  372.18   35.83
  -1   7   8  336.40   38.73
  -1   7   8  427.44   37.64
   0   7   8  227.90   23.62
   0   7   8  175.33   22.22
   0   7   8  228.25   26.04
   0   7   8  185.27   17.07
   1   7   8 2835.24  240.39
   1   7   8 2890.86  238.07
   2   7   8 2317.61  198.32
   2   7   8 2403.71  206.01
  -3  -7  -8  127.13   18.07
   3   7   8  157.69   23.16
   3   7   8  176.41   22.63
  -4  -7  -8    1.79    5.80
   4   7   8    3.36    5.58
   4   7   8  -14.40    5.92
  -5  -7  -8  340.67   40.89
   5   7   8  448.00   40.70
   5   7   8  453.50   45.47
   5   7   8  379.72   45.57
   6   7   8 2657.82  228.76
   6   7   8 2631.72  231.16
   6   7   8 2771.65  225.07
   7   7   8  139.83   27.01
   7   7   8  134.79   21.02
   7   7   8  137.60   25.69
  -1   8   8  759.77   71.13
   0   8   8  297.71   31.34
   0   8   8  258.85   34.00
   0   8   8  359.10   31.34
  -1  -8  -8   53.74   13.44
   1   8   8   47.54   14.33
   1   8   8   63.04   12.76
   2   8   8 2042.15  172.70
   2   8   8 1952.39  169.11
  -3  -8  -8   -1.67    3.93
   3   8   8    6.64    8.22
   3   8   8    1.39    6.30
   3   8   8   -1.56    3.94
  -4  -8  -8  110.47   18.14
   4   8   8  159.81   23.39
   4   8   8  166.13   25.04
   4   8   8  164.47   18.03
  -5  -8  -8   25.90    9.65
   5   8   8   36.96   14.08
   5   8   8   36.84   12.07
   5   8   8   27.84    9.64
   6   8   8 1931.12  179.22
   6   8   8 2105.13  172.98
   6   8   8 2093.30  178.03
   1   9   8  435.71   47.71
   1   9   8  441.49   43.65
   2   9   8 1539.64  144.34
   2   9   8 1740.54  141.66
   3   9   8  418.54   47.72
   3   9   8  427.08   44.93
   4   9   8   75.81   20.14
   4   9   8   83.50   18.13
   5   9   8  478.31   50.79
   5   9   8  440.36   51.94
   1   2  -9   10.06    9.58
  -1  -2   9    3.91    9.41
   0   2  -9 1691.92  148.52
   0  -2   9 1657.79  150.74
  -1   2  -9   44.24   13.03
   1  -2   9   34.35   13.60
   2  -2   9 1089.63  103.75
   3  -2   9  362.49   45.77
   3  -2   9  412.73   46.38
   3   1  -9  667.02   71.69
  -3  -1   9  730.02   72.99
   2   1  -9  395.12   45.61
  -2  -1   9  375.43   45.79
   1   1  -9  529.03   56.61
  -1  -1   9  552.40   58.02
   0   1  -9  448.73   48.13
   0  -1   9  448.46   49.95
  -1   1  -9  554.33   57.02
   1  -1   9  579.71   59.76
   2  -1   9  216.79   31.31
   2  -1   9  246.01   32.42
   3  -1   9  597.47   63.16
   3  -1   9  622.04   64.56
   4  -1   9   77.45   19.33
   4  -1   9   96.92   21.70
   3   0  -9 1215.37  118.60
  -3   0   9 1426.64  113.25
  -3   0   9 1212.22  119.42
   2   0  -9  585.96   62.43
  -2   0   9  570.51   62.33
  -2   0   9  643.14   56.32
   1   0  -9  798.91   79.69
  -1   0   9  870.91   81.53
   0   0  -9   85.85   18.22
   0   0   9   77.94   18.04
  -1   0  -9  721.86   69.90
   1   0   9  725.21   71.21
   2   0   9  760.03   72.68
   2   0   9  665.33   69.61
   3   0   9  304.20   35.70
   3   0   9  263.65   35.18
   4   0   9   13.20   10.84
   4   0   9    5.62    8.20
   5   0   9   32.03   12.71
   5   0   9   41.51   13.30
   4  -1  -9  111.31   23.01
  -4   1   9   91.35   13.84
  -4   1   9  130.84   13.68
  -4   1   9  109.08   23.14
   3  -1  -9 1262.58  114.83
  -3   1   9 1182.20  114.82
  -3   1   9 1358.39  106.25
  -3   1   9 1186.87  107.35
   2  -1  -9  251.20   34.13
  -2   1   9  313.76   28.87
  -2   1   9  246.66   34.03
   1  -1  -9  559.74   59.59
  -1   1   9  636.87   61.19
  -1   1   9  589.88   54.63
   0  -1  -9  703.92   68.39
  -1  -1  -9  708.44   67.59
   1   1   9  700.99   72.64
   2   1   9 1905.55  183.99
   2   1   9 2248.29  183.01
   3   1   9    0.62    6.99
   3   1   9   -4.17    6.12
   4   1   9  913.26   93.32
   4   1   9 1067.28   93.23
   5   1   9    9.42    8.30
   5   1   9   15.01    9.53
   6   1   9  130.73   25.25
   6   1   9  177.49   25.57
   4  -2  -9  849.96   79.74
  -4   2   9  696.62   78.40
  -4   2   9  871.64   69.31
   3  -2  -9  281.01   34.27
  -3   2   9  278.05   34.85
  -3   2   9  292.63   29.03
   2  -2  -9 1503.58  136.87
  -2   2   9 1536.15  132.93
  -2   2   9 1555.32  131.03
  -2   2   9 1706.11  143.85
  -2   2   9 1505.03  135.60
   1  -2  -9  124.88   20.25
  -1   2   9  175.79   23.17
  -1   2   9  130.26   20.97
  -1   2   9  143.12   17.08
   0   2   9 2887.59  246.54
   0   2   9 2944.94  245.82
   1   2   9  647.09   67.39
   1   2   9  728.35   67.03
   2   2   9 3496.19  291.20
   2   2   9 3472.96  293.41
   3   2   9 1828.32  168.00
   3   2   9 1851.00  159.69
   4   2   9 2416.44  203.41
   4   2   9 2276.17  200.13
   5   2   9  391.11   42.05
   5   2   9  333.05   41.49
   6   2   9  100.76   21.65
   6   2   9   86.23   18.72
   7   2   9  298.94   36.34
   7   2   9  270.37   36.97
   4  -3  -9  363.74   42.69
  -4   3   9  464.81   35.45
  -4   3   9  396.40   44.51
  -4   3   9  372.67   38.94
  -4   3   9  349.25   40.03
   3  -3  -9  360.73   41.33
  -3   3   9  373.22   42.45
  -3   3   9  387.83   34.75
  -3   3   9  376.60   39.40
   2  -3  -9 1505.16  142.03
  -2   3   9 1784.35  144.09
  -2   3   9 1573.81  141.12
  -2   3   9 1677.85  138.93
  -1   3   9 1960.04  168.43
  -1   3   9 1907.68  169.96
  -1   3   9 2089.25  170.91
   0   3   9    3.25    5.70
   0   3   9   -2.82    5.15
   0   3   9    0.72    4.91
   1   3   9   48.31   13.64
   1   3   9   26.20    9.61
   2   3   9  875.25   79.77
   2   3   9  843.42   81.70
   3   3   9 2928.16  247.56
   3   3   9 2898.20  244.64
   4   3   9    7.77    9.08
   4   3   9   15.27    9.40
   5   3   9  238.25   32.89
   5   3   9  246.96   30.20
   6   3   9    2.56    6.64
   6   3   9   -6.21    6.13
   7   3   9   64.66   18.63
   7   3   9   79.55   20.11
   3  -4  -9  821.63   77.49
  -3   4   9  804.08   77.39
  -3   4   9  851.35   75.18
   2  -4  -9 1129.72  118.06
  -2   4   9 1345.89  114.97
  -2   4   9 1351.41  111.51
  -2   4   9 1320.49  113.73
  -1   4   9 2642.80  222.60
  -1   4   9 2639.07  222.41
  -1   4   9 2654.20  221.29
   0   4   9  433.57   44.15
   0   4   9  454.91   43.54
   0   4   9  366.14   43.04
   1   4   9   60.87   15.65
   1   4   9   77.39   16.56
   1   4   9   54.27   12.92
   2   4   9  298.45   34.21
   2   4   9  270.97   31.41
   2   4   9  278.84   34.66
   3   4   9 1425.85  125.04
   3   4   9 1363.45  125.16
   3   4   9 1383.72  121.66
   4   4   9 2412.85  199.62
   4   4   9 2343.42  195.12
   4   4   9 2137.05  198.00
   5   4   9  543.11   57.45
   6   4   9   64.87   18.08
   6   4   9   81.28   16.83
   6   4   9   59.04   16.43
   7   4   9  418.13   43.99
   7   4   9  378.13   45.72
   7   4   9  359.41   45.43
   3  -5  -9 1132.02  103.90
  -3   5   9 1139.59  103.59
  -3   5   9 1234.59  104.12
  -2   5   9  406.11   38.44
  -2   5   9  385.94   38.86
  -2   5   9  354.86   39.18
  -1   5   9  941.73   81.98
  -1   5   9  870.33   81.32
  -1   5   9  910.29   82.35
   0   5   9  722.37   66.76
   0   5   9  665.11   66.07
   0   5   9  711.33   64.68
   1   5   9  176.32   24.15
   1   5   9  146.15   20.84
   1   5   9  179.40   23.87
   2   5   9  375.23   41.44
   2   5   9  368.26   38.33
   2   5   9  383.85   42.78
  -3  -5  -9  697.64   66.11
   3   5   9  700.34   68.84
   3   5   9  722.83   65.74
   3   5   9  696.42   69.86
   4   5   9 1957.44  168.43
   4   5   9 1954.64  164.89
   4   5   9 1882.15  169.69
   5   5   9  214.90   26.89
   5   5   9  178.26   30.07
   5   5   9  244.10   30.57
   6   5   9  548.42   55.20
   6   5   9  529.01   57.36
   6   5   9  571.68   60.82
   7   5   9   86.18   20.56
   7   5   9  102.04   19.83
   7   5   9   93.86   20.78
  -2   6   9 1525.89  125.35
  -2   6   9 1397.10  123.19
  -1   6   9  183.88   22.91
  -1   6   9  200.51   22.34
  -1   6   9  185.76   23.38
   0   6   9 2097.58  176.05
   0   6   9 2222.63  179.26
   0   6   9 2012.15  179.29
   1   6   9  108.34   19.81
   1   6   9   98.57   14.30
   1   6   9   77.93   16.49
   2   6   9 1953.07  166.32
   2   6   9 1842.63  163.86
   2   6   9 1921.13  160.18
  -3  -6  -9   71.68   15.11
   3   6   9   93.38   13.93
   3   6   9   59.79   17.34
   3   6   9   84.03   18.22
  -4  -6  -9  579.78   62.40
   4   6   9  690.61   66.19
   4   6   9  702.38   62.18
   4   6   9  682.67   67.87
   5   6   9 1817.29  152.50
   5   6   9 1739.04  158.41
   5   6   9 1766.44  156.34
   6   6   9  705.48   71.34
   6   6   9  746.78   68.68
   6   6   9  703.64   74.25
   7   6   9  124.26   22.47
   7   6   9  142.77   26.03
   7   6   9  147.85   27.58
  -1   7   9  342.50   36.62
  -1   7   9  342.14   34.27
   0   7   9  462.97   45.43
   1   7   9   -4.49    5.53
   1   7   9   -5.73    3.46
   1   7   9    3.90    6.82
   2   7   9 1263.94  108.01
   2   7   9 1141.37  108.97
   3   7   9    4.09    7.60
   3   7   9    0.22    4.27
  -4  -7  -9   18.71    8.81
   4   7   9   31.63   12.58
   4   7   9   38.93   10.12
   4   7   9   39.07   14.07
   5   7   9  291.02   37.83
   5   7   9  289.58   31.29
   5   7   9  268.93   34.99
   6   7   9    3.06    6.14
   6   7   9    8.06    9.70
   0   8   9  426.45   41.71
   0   8   9  419.44   44.98
   1   8   9   38.06   13.31
   1   8   9   34.65   10.95
   2   8   9   -3.27    3.19
   2   8   9    5.41    6.41
   2   8   9    1.95    8.40
   3   8   9  261.28   34.41
   3   8   9  252.51   31.71
  -4  -8  -9   37.83   12.13
   4   8   9   63.38   11.60
   4   8   9  101.21   19.55
   4   8   9   73.59   18.61
   5   8   9  430.04   41.81
   5   8   9  419.51   49.03
   5   8   9  412.28   47.02
   6   8   9  176.75   27.79
   6   8   9  154.01   21.98
   6   8   9  134.59   27.37
   2   9   9  827.12   83.12
   2   9   9  896.81   80.01
   3   9   9  528.20   58.97
   3   9   9  602.43   57.79
  -4  -9  -9    3.38    6.98
   4   9   9    2.40   10.65
   4   9   9    8.73   10.33
  -1   1 -10   41.19   12.34
   1  -1  10   66.24   16.73
   1   0 -10   48.57   15.16
  -1   0  10   56.75   16.74
   0   0 -10 1405.28  130.50
   0   0  10 1502.61  132.93
   1   0  10  213.23   30.15
   1   0  10  183.05   29.50
   2   0  10    2.86    5.54
   2   0  10    2.46    7.84
   3   0  10  130.69   26.23
   3   0  10  125.11   24.47
   4   0  10   77.24   19.28
   4   0  10   51.04   16.89
   2  -1 -10  652.18   67.35
  -2   1  10  646.22   67.74
   1  -1 -10  398.27   44.97
  -1   1  10  381.65   44.84
   0  -1 -10  430.03   46.77
   0   1  10  368.77   45.47
   0   1  10  443.51   48.20
   1   1  10 1132.95  109.37
   1   1  10 1216.07  108.82
   2   1  10   -1.60    4.49
   2   1  10   10.90    8.42
   3   1  10  738.84   80.17
   3   1  10  895.84   80.78
   4   1  10   64.44   16.88
   4   1  10   10.44   10.34
   5   1  10  428.08   46.73
   5   1  10  362.92   46.44
   2  -2 -10  785.81   76.86
  -2   2  10  750.11   71.91
  -2   2  10  826.60   69.99
  -2   2  10  701.24   74.11
  -2   2  10  879.83   79.06
   1  -2 -10    7.33    7.94
  -1   2  10   -2.98    5.10
  -1   2  10    8.36    6.44
   0  -2 -10    3.65    7.63
   0   2  10    7.61    8.67
   0   2  10    8.25    9.04
   1   2  10 1443.61  134.09
   1   2  10 1585.22  137.15
   2   2  10   25.65   11.29
   2   2  10   14.14    8.91
   3   2  10  327.86   38.39
   3   2  10  327.34   41.26
   4   2  10  261.00   33.62
   4   2  10  271.67   36.02
   5   2  10  444.82   49.52
   5   2  10  439.53   50.95
   2  -3 -10   49.77   14.59
  -2   3  10   44.45   10.89
  -2   3  10   51.50   13.18
  -2   3  10   39.95   13.06
   1  -3 -10  861.75   87.43
  -1   3  10  960.16   86.04
  -1   3  10  978.47   94.32
  -1   3  10  970.83   89.07
   0   3  10 1495.12  131.47
   0   3  10 1453.67  129.95
   1   3  10   17.24    9.40
   1   3  10   32.21   12.08
   2   3  10   79.68   18.36
   3   3  10   47.34   14.95
   3   3  10   70.19   16.92
   4   3  10  676.33   69.55
   4   3  10  672.76   66.77
   5   3  10   80.76   20.23
   5   3  10   89.71   19.07
   6   3  10   38.91   13.82
   6   3  10   48.88   14.11
   2  -4 -10  478.44   54.29
  -2   4  10  572.39   56.05
  -2   4  10  563.47   54.72
  -2   4  10  565.82   52.35
  -1   4  10 1461.14  129.51
  -1   4  10 1471.50  127.84
  -1   4  10 1464.42  129.58
   0   4  10 1471.97  123.37
   0   4  10 1410.80  123.21
   0   4  10 1280.83  122.98
   1   4  10   19.97    8.72
   1   4  10   15.26    9.14
   1   4  10   16.29    8.69
   2   4  10    5.18    7.25
   2   4  10    5.43    7.49
   2   4  10    2.82    6.73
   3   4  10   13.90   10.18
   3   4  10   15.66    7.78
   3   4  10   16.79    8.98
   4   4  10  208.04   29.99
   4   4  10  198.92   27.43
   5   4  10    1.35    7.73
   5   4  10   -5.36    6.76
   6   4  10   61.96   16.32
   6   4  10   61.87   17.77
  -2   5  10  943.25   84.21
  -2   5  10  929.73   86.74
  -2   5  10  967.94   86.22
  -1   5  10  362.06   39.81
  -1   5  10  362.01   38.48
  -1   5  10  364.44   38.96
   0   5  10 1085.08  100.04
   0   5  10 1062.52   98.50
   0   5  10 1165.14  101.26
   1   5  10  471.41   50.25
   1   5  10  436.74   47.13
   1   5  10  519.07   52.02
   2   5  10  202.10   28.71
   2   5  10  211.13   32.27
   2   5  10  181.09   25.14
   3   5  10  948.23   97.24
   3   5  10 1072.90   94.06
   3   5  10 1080.99   97.71
   4   5  10   81.71   19.09
   4   5  10   75.13   19.73
   4   5  10   66.98   14.98
   5   5  10  294.16   39.07
   5   5  10  338.66   36.39
   5   5  10  289.53   37.65
   6   5  10   22.65   10.04
   6   5  10   17.69   11.52
   6   5  10   14.22    9.97
  -1   6  10  204.11   25.82
  -1   6  10  176.00   24.30
  -1   6  10  248.86   27.74
   0   6  10  320.73   36.85
   0   6  10  333.90   34.80
   0   6  10  323.77   40.13
   1   6  10  611.65   57.58
   1   6  10  629.34   61.29
   1   6  10  588.34   61.35
   2   6  10  201.20   30.59
   2   6  10  178.48   22.80
   2   6  10  156.87   25.41
   3   6  10 2374.54  203.17
   3   6  10 2516.25  208.32
   3   6  10 2361.40  209.41
   4   6  10  555.76   53.77
   4   6  10  536.80   57.12
   4   6  10  529.91   59.19
   5   6  10  383.49   43.39
   5   6  10  333.82   41.34
   5   6  10  309.16   42.46
   6   6  10   -4.87    6.40
   6   6  10   12.89   10.79
   6   6  10   -1.03    7.99
   0   7  10  139.18   21.11
   0   7  10  115.71   20.26
   1   7  10  118.87   15.90
   1   7  10  107.15   21.97
   1   7  10  115.75   20.73
   2   7  10   46.76   13.84
   2   7  10   30.92    9.31
   2   7  10   76.06   17.69
   3   7  10  936.32   88.87
   3   7  10  899.19   85.79
   3   7  10  885.40   80.43
   4   7  10  562.60   52.23
   4   7  10  519.53   58.35
   4   7  10  521.39   56.80
   5   7  10   54.93   16.73
   5   7  10   62.80   14.24
   5   7  10   67.68   19.46
   2   8  10   17.74    8.96
   2   8  10   15.13   11.89
   3   8  10  104.67   22.28
   3   8  10   84.86   18.50
   3   8  10   65.74   12.62
  -4  -8 -10  317.37   37.29
   4   8  10  384.77   42.67
   4   8  10  346.10   35.52
   4   8  10  374.79   45.48
   1   1  11 1330.24  126.16
   1   1  11 1379.88  125.38
   2   1  11  147.28   26.54
   2   1  11  111.31   24.80
   0   2  11   54.03   16.19
   0   2  11   56.14   15.81
   1   2  11   54.25   16.11
   1   2  11   50.08   16.47
   2   2  11 1260.96  118.39
   2   2  11 1320.68  121.59
   3   2  11    9.69    8.37
   3   2  11   15.10   11.04
   4   2  11  584.71   64.61
  -1   3  11    7.98    7.79
   0   3  11   15.02   10.34
   0   3  11    6.17    9.17
   0   3  11    9.61    6.69
   1   3  11 1821.54  160.03
   1   3  11 1813.59  161.79
   2   3  11  265.84   32.94
   2   3  11  227.02   33.53
   3   3  11   89.68   20.33
   3   3  11  101.54   23.27
   4   3  11  502.29   57.94
   4   3  11  537.43   56.09
   0   4  11    8.85    6.78
   0   4  11   11.97    8.90
   0   4  11   11.51    8.08
   1   4  11 1263.93  115.31
   1   4  11 1167.74  113.25
   1   4  11 1316.63  113.83
   2   4  11  100.70   20.59
   2   4  11   79.12   18.10
   2   4  11   86.49   20.68
   3   4  11   13.95    9.06
   3   4  11   24.01   10.81
   3   4  11   34.13   13.67
   4   4  11   22.44   10.91
   4   4  11   23.93   11.47
   5   4  11  497.77   51.84
   5   4  11  446.36   54.40
   0   5  11  478.30   50.15
   0   5  11  444.34   50.03
   0   5  11  506.98   50.30
   1   5  11  458.56   52.12
   1   5  11  512.76   53.02
   1   5  11  491.65   50.75
   2   5  11  204.16   30.35
   2   5  11  226.95   31.92
   2   5  11  228.03   30.22
   3   5  11  446.51   51.10
   3   5  11  429.36   51.14
   3   5  11  492.03   49.66
   4   5  11  489.60   50.48
   4   5  11  448.41   52.64
   4   5  11  478.59   54.22
   5   5  11  275.47   33.83
   5   5  11  253.26   36.16
   5   5  11  253.56   36.46
   1   6  11   66.15   15.32
   1   6  11   55.87   16.36
   1   6  11   70.41   18.12
   2   6  11  210.47   29.66
   2   6  11  182.23   25.64
   2   6  11  204.22   28.72
   3   6  11   10.85   10.59
   3   6  11   23.26   11.53
   3   6  11   27.79   11.34
   4   6  11 1302.68  122.95
   4   6  11 1326.77  125.24
   4   6  11 1368.29  119.18
   2   7  11  117.04   22.58
   3   7  11   88.64   19.90
   3   7  11   84.50   16.68
   3   7  11   85.45   21.43
   0   0   0    0.00    0.00


 _exptl_absorpt_process_details
)
 SADABS 2016/2: Krause, L., Herbst-Irmer, R., Sheldrick G.M. & Stalke D.,
 J. Appl. Cryst. 48 (2015) 3-10
)
 _exptl_absorpt_correction_type   multi-scan
 _exptl_absorpt_correction_T_max  0.7452
 _exptl_absorpt_correction_T_min  0.5480
 _exptl_special_details
)
 The following wavelength and cell were deduced by SADABS from the
 direction cosines etc. They are given here for emergency use only:
 CELL 0.71090    7.906    8.378    9.691   65.039   76.342   73.412
)

_computing_structure_solution     'SHELXT 2014/5 (Sheldrick, 2014)'
;
_shelx_hkl_checksum              14266
loop_
_space_group_symop_operation_xyz
'x, y, z'
'-x, -y, -z'
loop_
_atom_site_label
_atom_site_type_symbol
_atom_site_fract_x
_atom_site_fract_y
_atom_site_fract_z
_atom_site_U_iso_or_equiv
_atom_site_adp_type
_atom_site_occupancy
_atom_site_site_symmetry_order
_atom_site_calc_flag
_atom_site_refinement_flags_posn
_atom_site_refinement_flags_adp
_atom_site_refinement_flags_occupancy
_atom_site_disorder_assembly
_atom_site_disorder_group
Sc01 Sc 0.72100(6) 0.38901(6) 0.25022(5) 0.0187(2) Uani 1 1 d . . . . .
O002 O 1.0014(3) 0.7102(3) -0.1464(2) 0.0249(5) Uani 1 1 d . . . . .
O003 O 0.8113(3) 0.6261(3) 0.0706(2) 0.0266(5) Uani 1 1 d . . . . .
O004 O 0.5278(3) 0.3048(3) 0.4675(2) 0.0243(5) Uani 1 1 d . . . . .
O005 O 0.3590(3) 0.3906(3) 0.6565(2) 0.0256(5) Uani 1 1 d . . . . .
O006 O 0.2888(3) 0.6339(3) -0.0166(2) 0.0311(5) Uani 1 1 d . . . . .
O007 O 0.4560(3) 0.5260(3) 0.1744(2) 0.0283(5) Uani 1 1 d . . . . .
O008 O 0.7086(3) 0.1158(3) 0.3061(2) 0.0317(5) Uani 1 1 d . . . . .
H00A H 0.7430 0.0477 0.3948 0.047 Uiso 1 1 d R U . . .
H00B H 0.7854 0.0737 0.2437 0.047 Uiso 1 1 d R U . . .
O009 O 0.7252(3) 0.8504(3) 0.5954(3) 0.0406(6) Uani 1 1 d G . . . .
H00E H 0.6848 0.8813 0.6721 0.061 Uiso 1 1 d G U . . .
H00F H 0.6481 0.7986 0.5933 0.061 Uiso 1 1 d G U . . .
O00A O 0.9029(3) 0.2938(4) 0.4193(3) 0.0426(6) Uani 1 1 d . . . . .
H00C H 1.0098 0.2894 0.3742 0.064 Uiso 1 1 d R U . . .
H00D H 0.8997 0.1847 0.4781 0.064 Uiso 1 1 d R U . . .
C00B C 0.9467(3) 0.5970(4) -0.0227(3) 0.0206(6) Uani 1 1 d . . . . .
C00C C 0.4252(4) 0.5472(4) 0.0450(3) 0.0236(6) Uani 1 1 d . . . . .
C00D C 0.4665(3) 0.4115(3) 0.5364(3) 0.0192(6) Uani 1 1 d . . . . .
O00E O 0.8916(5) -0.0896(4) 0.1417(3) 0.0684(9) Uani 1 1 d G . . . .
H00G H 0.9352 -0.1850 0.1231 0.103 Uiso 1 1 d G U . . .
H00H H 0.7850 -0.0484 0.1207 0.103 Uiso 1 1 d G U . . .
O00F O 0.8016(4) 0.2323(4) 0.7185(3) 0.0702(10) Uani 1 1 d G . . . .
H00I H 0.8369 0.3309 0.6822 0.105 Uiso 1 1 d G U . . .
H00J H 0.8878 0.1531 0.7621 0.105 Uiso 1 1 d G U . . .
O00G O 0.6015(5) -0.0429(5) 0.8542(3) 0.1031(14) Uani 1 1 d G . . . .
H00K H 0.6883 0.0095 0.8289 0.155 Uiso 1 1 d G U . . .
H00L H 0.5098 0.0370 0.8638 0.155 Uiso 1 1 d G U . . .
loop_
_atom_site_aniso_label
_atom_site_aniso_U_11
_atom_site_aniso_U_22
_atom_site_aniso_U_33
_atom_site_aniso_U_23
_atom_site_aniso_U_13
_atom_site_aniso_U_12
Sc01 0.0170(3) 0.0244(3) 0.0154(3) -0.0104(2) 0.0034(2) -0.0053(2)
O002 0.0208(10) 0.0289(10) 0.0192(10) -0.0076(8) 0.0044(8) -0.0048(8)
O003 0.0241(10) 0.0266(10) 0.0238(10) -0.0117(8) 0.0093(8) -0.0043(8)
O004 0.0277(10) 0.0276(10) 0.0220(10) -0.0150(8) 0.0056(8) -0.0107(8)
O005 0.0281(11) 0.0311(11) 0.0203(10) -0.0142(8) 0.0098(8) -0.0140(8)
O006 0.0261(11) 0.0412(12) 0.0287(11) -0.0190(9) -0.0074(9) 0.0009(9)
O007 0.0224(10) 0.0449(12) 0.0216(10) -0.0192(9) -0.0012(8) -0.0042(9)
O008 0.0407(13) 0.0278(10) 0.0254(11) -0.0136(9) 0.0061(9) -0.0086(9)
O009 0.0325(12) 0.0444(14) 0.0448(14) -0.0137(11) -0.0009(10) -0.0164(10)
O00A 0.0250(11) 0.0722(17) 0.0292(12) -0.0264(12) -0.0047(9) 0.0041(11)
C00B 0.0177(12) 0.0297(15) 0.0169(13) -0.0123(11) 0.0026(10) -0.0071(11)
C00C 0.0215(14) 0.0305(14) 0.0220(14) -0.0125(12) 0.0023(11) -0.0105(11)
C00D 0.0186(13) 0.0248(13) 0.0167(13) -0.0110(10) 0.0000(10) -0.0053(10)
O00E 0.083(2) 0.0577(18) 0.081(2) -0.0498(17) -0.0168(18) 0.0017(16)
O00F 0.066(2) 0.094(2) 0.0545(18) -0.0463(18) -0.0137(16) 0.0108(18)
O00G 0.090(3) 0.103(3) 0.105(3) -0.044(3) -0.002(3) -0.006(2)
loop_
_atom_type_symbol
_atom_type_description
_atom_type_scat_dispersion_real
_atom_type_scat_dispersion_imag
_atom_type_scat_source
C C 0.0033 0.0016 'International Tables Vol C Tables 4.2.6.8 and 6.1.1.4'
O O 0.0106 0.0060 'International Tables Vol C Tables 4.2.6.8 and 6.1.1.4'
Sc Sc 0.2519 0.3716 'International Tables Vol C Tables 4.2.6.8 and 6.1.1.4'
H H 0.0000 0.0000 'International Tables Vol C Tables 4.2.6.8 and 6.1.1.4'
loop_
_geom_angle_atom_site_label_1
_geom_angle_atom_site_label_2
_geom_angle_atom_site_label_3
_geom_angle
_geom_angle_site_symmetry_1
_geom_angle_site_symmetry_3
_geom_angle_publ_flag
O008 Sc01 O00A 89.52(10) . . ?
O008 Sc01 O003 144.38(8) . . ?
O00A Sc01 O003 103.51(10) . . ?
O008 Sc01 O007 99.27(9) . . ?
O00A Sc01 O007 150.76(8) . . ?
O003 Sc01 O007 85.41(8) . . ?
O008 Sc01 O005 142.95(8) . 2_666 ?
O00A Sc01 O005 77.86(9) . 2_666 ?
O003 Sc01 O005 72.67(7) . 2_666 ?
O007 Sc01 O005 78.45(8) . 2_666 ?
O008 Sc01 O004 72.16(7) . . ?
O00A Sc01 O004 80.61(8) . . ?
O003 Sc01 O004 142.08(7) . . ?
O007 Sc01 O004 75.78(8) . . ?
O005 Sc01 O004 71.48(7) 2_666 . ?
O008 Sc01 O002 80.35(8) . 2_765 ?
O00A Sc01 O002 71.09(8) . 2_765 ?
O003 Sc01 O002 73.12(7) . 2_765 ?
O007 Sc01 O002 137.73(7) . 2_765 ?
O005 Sc01 O002 125.97(7) 2_666 2_765 ?
O004 Sc01 O002 140.43(8) . 2_765 ?
O008 Sc01 O006 73.35(8) . 2_665 ?
O00A Sc01 O006 138.97(8) . 2_665 ?
O003 Sc01 O006 75.29(8) . 2_665 ?
O007 Sc01 O006 70.07(7) . 2_665 ?
O005 Sc01 O006 136.32(8) 2_666 2_665 ?
O004 Sc01 O006 125.80(7) . 2_665 ?
O002 Sc01 O006 69.44(7) 2_765 2_665 ?
C00B O002 Sc01 114.10(17) . 2_765 ?
C00B O003 Sc01 116.60(17) . . ?
C00D O004 Sc01 118.09(17) . . ?
C00D O005 Sc01 118.30(17) . 2_666 ?
C00C O006 Sc01 115.76(18) . 2_665 ?
C00C O007 Sc01 121.21(18) . . ?
O002 C00B O003 126.6(3) . . ?
O002 C00B C00B 117.2(3) . 2_765 ?
O003 C00B C00B 116.1(3) . 2_765 ?
O006 C00C O007 127.7(3) . . ?
O006 C00C C00C 116.7(3) . 2_665 ?
O007 C00C C00C 115.5(3) . 2_665 ?
O005 C00D O004 127.9(2) . . ?
O005 C00D C00D 116.4(3) . 2_666 ?
O004 C00D C00D 115.7(3) . 2_666 ?
loop_
_geom_bond_atom_site_label_1
_geom_bond_atom_site_label_2
_geom_bond_distance
_geom_bond_site_symmetry_2
_geom_bond_publ_flag
Sc01 O008 2.140(2) . ?
Sc01 O00A 2.172(2) . ?
Sc01 O003 2.186(2) . ?
Sc01 O007 2.206(2) . ?
Sc01 O005 2.2531(19) 2_666 ?
Sc01 O004 2.2567(19) . ?
Sc01 O002 2.2631(19) 2_765 ?
Sc01 O006 2.366(2) 2_665 ?
O002 C00B 1.245(3) . ?
O002 Sc01 2.2632(19) 2_765 ?
O003 C00B 1.264(3) . ?
O004 C00D 1.255(3) . ?
O005 C00D 1.244(3) . ?
O005 Sc01 2.2531(19) 2_666 ?
O006 C00C 1.236(4) . ?
O006 Sc01 2.366(2) 2_665 ?
O007 C00C 1.260(3) . ?
C00B C00B 1.525(5) 2_765 ?
C00C C00C 1.528(5) 2_665 ?
C00D C00D 1.536(5) 2_666 ?
