#------------------------------------------------------------------------------
#$Date: 2021-11-06 21:56:19 +0200 (Sat, 06 Nov 2021) $
#$Revision: 270440 $
#$URL: file:///home/coder/svn-repositories/cod/cif/7/24/35/7243564.cif $
#------------------------------------------------------------------------------
#
# This file is available in the Crystallography Open Database (COD),
# http://www.crystallography.net/
#
# All data on this site have been placed in the public domain by the
# contributors.
#
data_7243564
loop_
_publ_author_name
'Qiu, Qi-Ming'
'Sun, Ke-Ning'
'Yang, Guo-Yu'
_publ_section_title
;
 Five new rubidium borates with 0D clusters, 1D chains, 2D layers and 3D
 frameworks
;
_journal_issue                   40
_journal_name_full               CrystEngComm
_journal_page_first              7081
_journal_page_last               7089
_journal_paper_doi               10.1039/D1CE00944C
_journal_volume                  23
_journal_year                    2021
_chemical_formula_sum            'B5 H O9 Rb2'
_chemical_formula_weight         370.00
_space_group_crystal_system      orthorhombic
_space_group_IT_number           29
_space_group_name_Hall           'P 2c -2ac'
_space_group_name_H-M_alt        'P c a 21'
_atom_sites_solution_hydrogens   difmap
_audit_creation_method           SHELXL-2018/3
_audit_update_record
;
2021-06-02 deposited with the CCDC.	2021-09-01 downloaded from the CCDC.
;
_cell_angle_alpha                90
_cell_angle_beta                 90
_cell_angle_gamma                90
_cell_formula_units_Z            4
_cell_length_a                   8.5942(9)
_cell_length_b                   7.6284(8)
_cell_length_c                   13.1321(14)
_cell_measurement_reflns_used    5085
_cell_measurement_temperature    296(2)
_cell_measurement_theta_max      30.83
_cell_measurement_theta_min      2.67
_cell_volume                     860.94(16)
_computing_cell_refinement       'Bruker SAINT'
_computing_data_collection       'Bruker APEX2'
_computing_data_reduction        'Bruker SAINT'
_computing_molecular_graphics    'Bruker SHELXTL'
_computing_publication_material  'Bruker SHELXTL'
_computing_structure_refinement  'SHELXL-2018/3 (Sheldrick, 2018)'
_computing_structure_solution    'SHELXL-2018/3 (Sheldrick, 2018)'
_diffrn_ambient_temperature      296(2)
_diffrn_measured_fraction_theta_full 1.000
_diffrn_measured_fraction_theta_max 0.955
_diffrn_measurement_device_type  'CCD area detector'
_diffrn_measurement_method       'phi and omega scans'
_diffrn_radiation_type           MoK\a
_diffrn_radiation_wavelength     0.71073
_diffrn_reflns_av_R_equivalents  0.0360
_diffrn_reflns_av_unetI/netI     0.0478
_diffrn_reflns_Laue_measured_fraction_full 1.000
_diffrn_reflns_Laue_measured_fraction_max 0.955
_diffrn_reflns_limit_h_max       11
_diffrn_reflns_limit_h_min       -12
_diffrn_reflns_limit_k_max       11
_diffrn_reflns_limit_k_min       -11
_diffrn_reflns_limit_l_max       18
_diffrn_reflns_limit_l_min       -19
_diffrn_reflns_number            11051
_diffrn_reflns_point_group_measured_fraction_full 0.994
_diffrn_reflns_point_group_measured_fraction_max 0.923
_diffrn_reflns_theta_full        25.242
_diffrn_reflns_theta_max         31.544
_diffrn_reflns_theta_min         2.670
_diffrn_source                   'fine-focus sealed tube'
_exptl_absorpt_coefficient_mu    11.395
_exptl_absorpt_correction_type   multi-scan
_exptl_absorpt_process_details   sadabs
_exptl_crystal_colour            colorless
_exptl_crystal_density_diffrn    2.855
_exptl_crystal_description       block
_exptl_crystal_F_000             688
_exptl_crystal_size_max          0.040
_exptl_crystal_size_mid          0.030
_exptl_crystal_size_min          0.030
_exptl_transmission_factor_max   0.746
_exptl_transmission_factor_min   0.419
_refine_diff_density_max         0.780
_refine_diff_density_min         -0.940
_refine_diff_density_rms         0.100
_refine_ls_abs_structure_details
;
 Flack x determined using 1062 quotients [(I+)-(I-)]/[(I+)+(I-)]
 (Parsons, Flack and Wagner, Acta Cryst. B69 (2013) 249-259).
;
_refine_ls_abs_structure_Flack   0.014(5)
_refine_ls_extinction_coef       0.0094(5)
_refine_ls_extinction_expression Fc^*^=kFc[1+0.001xFc^2^\l^3^/sin(2\q)]^-1/4^
_refine_ls_extinction_method     'SHELXL-2018/3 (Sheldrick 2018)'
_refine_ls_goodness_of_fit_ref   0.927
_refine_ls_hydrogen_treatment    refall
_refine_ls_matrix_type           full
_refine_ls_number_parameters     150
_refine_ls_number_reflns         2665
_refine_ls_number_restraints     2
_refine_ls_restrained_S_all      0.927
_refine_ls_R_factor_all          0.0267
_refine_ls_R_factor_gt           0.0223
_refine_ls_shift/su_max          0.001
_refine_ls_shift/su_mean         0.000
_refine_ls_structure_factor_coef Fsqd
_refine_ls_weighting_details     'w=1/[\s^2^(Fo^2^)] where P=(Fo^2^+2Fc^2^)/3'
_refine_ls_weighting_scheme      calc
_refine_ls_wR_factor_gt          0.0439
_refine_ls_wR_factor_ref         0.0449
_reflns_Friedel_coverage         0.858
_reflns_Friedel_fraction_full    0.988
_reflns_Friedel_fraction_max     0.889
_reflns_number_gt                2442
_reflns_number_total             2665
_reflns_threshold_expression     'I > 2\s(I)'
_cod_data_source_file            d1ce00944c2.cif
_cod_data_source_block           1_a
_cod_depositor_comments
'Adding full bibliography for 7243561--7243565.cif.'
_cod_database_code               7243564
_shelx_shelxl_version_number     2018/3
_shelx_space_group_comment
;
The symmetry employed for this shelxl refinement is uniquely defined
by the following loop, which should always be used as a source of
symmetry information in preference to the above space-group names.
They are only intended as comments.
;
_shelx_estimated_absorpt_t_min   0.659
_shelx_estimated_absorpt_t_max   0.726
_shelx_res_file
;
TITL 1_a.res in Pca2(1)
    1_a.res
    created by SHELXL-2018/3 at 16:57:35 on 08-Oct-2020
CELL  0.71073   8.5942   7.6284  13.1321   90.000   90.000   90.000
ZERR    4.000   0.0009   0.0008   0.0014    0.000    0.000    0.000
LATT -1
SYMM -X, -Y, 1/2+Z
SYMM 1/2+X, -Y, Z
SYMM 1/2-X, Y, 1/2+Z
SFAC H  B  O  Rb
UNIT 4  20  36  8
L.S. 20
ACTA
BOND $H
FMAP 2
PLAN 5
htab
size 0.04 0.03 0.03
DFIX 0.82 0.01 O9 H9
TEMP 23.000
WGHT    0.000000
EXTI    0.009352
FVAR       0.47013
O8    3    0.684334    0.495460    0.094206    11.00000    0.02686    0.00899 =
         0.01475    0.00141    0.00844    0.00202
B4    2    0.689329    0.673057    0.065311    11.00000    0.00773    0.01066 =
         0.01262    0.00148   -0.00078   -0.00022
O7    3    0.570787    0.574537    0.253871    11.00000    0.01977    0.00974 =
         0.01288   -0.00188    0.00487   -0.00384
O6    3    0.652418    0.797088    0.135106    11.00000    0.01818    0.00758 =
         0.00872   -0.00071   -0.00129    0.00074
RB2   4    0.803367    0.366589    0.383473    11.00000    0.02751    0.01406 =
         0.01949   -0.00309    0.00383    0.00035
RB1   4    0.659709    1.084809    0.616113    11.00000    0.02114    0.02803 =
         0.01959   -0.00222    0.00243    0.01050
O4    3    0.773877    0.703123    0.467674    11.00000    0.01421    0.01165 =
         0.01055    0.00297   -0.00164   -0.00596
O2    3    0.727575    0.995445    0.405382    11.00000    0.00823    0.00969 =
         0.01723   -0.00407   -0.00291    0.00003
O3    3    0.533097    0.878693    0.295094    11.00000    0.00961    0.01087 =
         0.01128   -0.00419   -0.00149    0.00152
O1    3    0.486517    1.124611    0.406798    11.00000    0.00790    0.01048 =
         0.01457   -0.00331   -0.00063    0.00052
O5    3    0.795501    0.762237    0.290137    11.00000    0.01012    0.01451 =
         0.00833   -0.00253    0.00046    0.00220
O9    3    0.551644    0.284745    0.186600    11.00000    0.02893    0.01275 =
         0.02338   -0.00346    0.01359   -0.00495
H9    1    0.476637    0.272438    0.224241    11.00000    0.05381
B1    2    0.579162    0.997294    0.366451    11.00000    0.01072    0.00721 =
         0.00760    0.00178   -0.00019   -0.00174
B5    2    0.598475    0.454485    0.180831    11.00000    0.01519    0.01178 =
         0.01182    0.00198    0.00144    0.00276
B2    2    0.821507    0.836816    0.390849    11.00000    0.00870    0.00596 =
         0.01061    0.00201    0.00124   -0.00199
B3    2    0.643252    0.754984    0.246223    11.00000    0.01334    0.01036 =
         0.00828   -0.00134    0.00132    0.00036
HKLF 4




REM  1_a.res in Pca2(1)
REM wR2 = 0.0449, GooF = S = 0.927, Restrained GooF = 0.927 for all data
REM R1 = 0.0223 for 2442 Fo > 4sig(Fo) and 0.0267 for all 2665 data
REM 150 parameters refined using 2 restraints

END

WGHT      0.0000      0.0000

REM Instructions for potential hydrogen bonds
EQIV $8 x, y-1, z
HTAB O9 O1_$8
EQIV $6 x-1/2, -y+1, z
HTAB O9 O5_$6

REM Highest difference peak  0.780,  deepest hole -0.940,  1-sigma level  0.100
Q1    1   0.6084  1.0060  0.6105  11.00000  0.05    0.78
Q2    1   0.6669  1.0874  0.6786  11.00000  0.05    0.56
Q3    1   0.6775  1.0927  0.5600  11.00000  0.05    0.48
Q4    1   0.8079  0.3604  0.3223  11.00000  0.05    0.43
Q5    1   0.8831  0.3725  0.4179  11.00000  0.05    0.42
;
_shelx_res_checksum              242
_shelx_hkl_file
;
   0  -1   0  321.47   24.40
   0   1   0  343.17   23.60
   0   1   0  356.66   23.60
   0   1   0  350.36   24.50
   0  -1   0  360.76   23.60
   0  -1   0  356.46   23.60
   0   2   0   67.79    5.90
   0   2   0   77.59    7.90
   0  -2   0   64.29    5.80
   0  -2   0   64.49    5.70
   0  -2   0   64.89    8.00
   0   2   0   64.69    5.90
   0  -3   0  764.72   60.69
   0  -3   0  929.81   58.29
   0   3   0  841.02   58.19
   0  -3   0  840.42   58.19
   0   3   0  882.51   58.29
   0  -4   0 1607.24  118.59
   0   4   0 1703.73  115.29
   0   4   0 1715.23  115.39
   0  -4   0 1781.82  115.29
   0   5   0  315.57   23.00
   0   5   0  289.57   22.50
   0  -5   0  267.87   27.30
   0   6   0  140.59   13.90
   0  -6   0  141.29   19.90
   0   6   0  139.49   14.20
   0   7   0  934.61   68.59
   0   7   0 1004.80   69.49
   0  -7   0 1003.10   74.89
   0   8   0  508.25   42.10
   0  -8   0  620.24   49.30
   0  -9   0   29.60   17.40
   0   9   0    3.20   11.70
   0  10   0   18.20   14.40
   0 -10   0   24.60   17.10
   0  11   0  490.05   44.70
   1   1   0  225.88   15.50
   1   1   0  225.68   15.90
  -1   1   0  213.88   16.50
  -1   1   0  218.08   15.30
  -1   1   0  223.08   15.20
   1  -1   0  212.38   16.30
  -1  -1   0  213.08   15.50
   1   1   0  246.58   15.50
   1  -1   0  221.38   15.20
  -1  -1   0  213.88   15.80
  -1   1   0  206.18   15.60
   1   2   0  327.07   22.20
   1   2   0  322.27   22.80
  -1  -2   0  307.17   22.00
  -1  -2   0  297.27   23.20
   1   2   0  314.67   22.50
   1  -2   0  324.97   22.20
  -1   2   0  320.17   22.10
   1  -2   0  272.87   23.80
  -1  -2   0  335.07   22.40
   1  -2   0  314.67   21.80
  -1   2   0  304.87   21.80
   1   3   0 6452.15  444.26
   1   3   0 6725.43  445.46
   1   3   0 6489.75  444.16
   1  -3   0 6785.62  443.76
  -1   3   0 6355.16  443.76
   1  -3   0 7034.50  444.16
  -1  -3   0 6752.62  444.26
  -1   3   0 6708.63  444.06
   1   4   0 1558.64  105.69
  -1   4   0 1623.44  105.49
   1  -4   0 1690.13  105.69
   1   4   0 1491.75  105.69
  -1   4   0 1601.04  105.29
  -1  -4   0 1562.74  105.49
   1  -4   0 1439.16  108.79
  -1  -4   0 1457.75  108.39
  -1   5   0  407.56   31.40
   1   5   0  435.76   31.90
  -1  -5   0  434.36   36.10
   1   5   0  437.46   31.70
   1  -5   0  437.36   36.40
  -1   5   0  428.06   31.10
  -1  -6   0  581.44   47.80
  -1   6   0  585.74   42.30
   1  -6   0  567.14   47.90
   1   6   0  615.24   43.40
   1   6   0  572.14   42.80
  -1   6   0  596.34   42.50
   1   7   0  481.05   38.00
   1   7   0  502.15   38.30
   1  -7   0  521.45   44.20
  -1  -7   0  503.75   43.60
  -1   7   0  512.15   37.60
  -1   7   0  485.55   37.20
  -1  -8   0  595.94   52.49
   1  -8   0  674.23   54.99
   1   8   0  623.44   48.30
  -1   8   0  616.34   47.30
  -1   9   0   86.29   15.40
  -1  -9   0  106.09   21.70
   1  -9   0   95.59   21.00
   1   9   0   83.99   15.50
  -1 -10   0  955.10   73.09
   1  10   0  843.42   67.19
  -1  10   0  773.82   65.69
   1 -10   0  959.20   73.19
  -1  11   0    3.40   14.80
   1  11   0   25.20   14.60
  -2   0   0 5273.57  348.27
   2   0   0 4729.23  348.17
  -2   0   0 5405.86  349.57
   2   0   0 5316.07  347.67
   2   0   0 5391.36  348.17
  -2  -1   0  296.47   20.20
  -2   1   0  276.77   19.80
  -2   1   0  285.97   20.60
  -2  -1   0  310.47   21.30
  -2  -1   0  288.97   19.70
   2  -1   0  271.57   20.80
   2   1   0  289.07   21.10
  -2   1   0  295.27   21.40
   2  -1   0  277.27   20.40
  -2  -1   0  287.17   19.50
  -2  -1   0  271.87   20.30
   2  -1   0  292.67   20.00
  -2   2   0   11.20    2.60
   2   2   0    6.70    2.90
  -2  -2   0    7.20    3.10
   2  -2   0    8.20    4.30
   2   2   0    7.00    3.60
  -2   2   0    6.30    4.90
   2  -2   0    9.50    2.40
  -2   2   0   13.40    3.60
   2   2   0    7.90    2.50
  -2  -2   0   10.30    3.70
  -2   2   0    8.40    2.70
   2   3   0 1636.24  114.69
   2  -3   0 1724.43  113.49
  -2   3   0 1617.34  113.39
   2   3   0 1760.62  114.49
   2   3   0 1716.63  114.19
  -2   3   0 1742.13  113.69
  -2  -3   0 1814.32  114.79
   2  -3   0 1545.65  115.99
  -2  -3   0 1579.44  115.19
  -2   3   0 1714.43  114.19
   2   4   0  167.78   14.90
   2   4   0  158.38   14.40
  -2  -4   0  159.08   17.10
   2  -4   0  150.68   17.60
  -2   4   0  160.58   13.50
  -2   4   0  166.68   13.80
  -2   5   0   76.29    9.30
   2  -5   0   78.19   13.90
   2   5   0   76.09    9.90
   2   5   0   69.79    9.80
  -2  -5   0   93.09   14.10
  -2   5   0   69.69    8.40
  -2   6   0   62.19    8.90
   2  -6   0   69.19   14.90
   2   6   0   58.29   10.00
  -2   6   0   46.20    8.60
  -2  -6   0   75.39   15.10
   2   6   0   57.79   10.60
   2   7   0 1408.96   95.69
   2  -7   0 1298.37   99.69
  -2   7   0 1334.67   94.49
  -2  -7   0 1448.16  100.49
  -2   7   0 1357.16   94.39
   2   7   0 1345.07   95.69
  -2   8   0  173.78   19.20
  -2  -8   0  240.68   28.30
   2   8   0  206.78   26.90
   2   8   0  175.28   20.80
   2  -8   0  206.48   28.20
  -2  -9   0   31.20   15.20
   2  -9   0   42.10   19.00
   2   9   0   42.20   14.20
  -2   9   0   19.30   11.50
  -2  10   0   -0.90   10.50
  -2 -10   0   11.90   16.20
   2  10   0   -8.50   12.00
   2 -10   0    8.80   17.10
  -2 -11   0  227.28   32.20
  -3   0   0   -0.60    2.20
   3   0   0   -0.50    1.70
   3   0   0    1.50    3.30
   3   0   0    1.20    2.30
  -3  -1   0   23.20    4.10
  -3   1   0   25.00    3.60
  -3   1   0   27.70    4.70
   3  -1   0   24.10    4.30
   3   1   0   22.30    5.10
   3  -1   0   26.40    3.60
   3   1   0   25.20    2.70
   3   1   0   25.70    4.40
  -3   1   0   27.30    5.20
  -3  -1   0   22.10    2.60
   3  -1   0   21.00    4.20
   3  -2   0  313.87   25.20
  -3  -2   0  335.57   23.70
  -3  -2   0  322.07   22.80
  -3   2   0  322.17   23.40
   3  -2   0  348.27   23.50
   3  -2   0  313.97   24.00
   3   2   0  331.97   25.40
  -3   2   0  345.67   25.20
  -3  -2   0  332.97   24.50
   3   3   0  875.81   64.59
  -3  -3   0  925.11   64.29
   3   3   0  954.20   62.99
   3  -3   0  868.91   65.29
  -3   3   0  959.50   64.19
  -3   3   0  934.51   62.89
  -3  -3   0  917.61   64.09
   3   4   0  224.18   20.10
  -3   4   0  239.28   18.00
  -3  -4   0  223.28   20.50
   3  -4   0  221.78   22.30
  -3   4   0  233.58   19.00
   3   4   0  224.58   18.90
  -3   5   0  651.93   46.60
   3   5   0  644.74   47.00
  -3   5   0  629.44   45.80
  -3  -5   0  673.93   49.99
   3  -5   0  678.23   50.49
   3   5   0  626.34   47.70
   3  -6   0  292.17   29.10
   3   6   0  291.57   25.50
  -3  -6   0  314.37   29.20
   3   6   0  288.27   25.40
  -3   6   0  279.47   24.00
  -3   6   0  285.77   23.30
   3  -7   0  174.08   23.90
   3   7   0  175.68   19.10
  -3  -7   0  217.28   24.60
  -3   7   0  148.19   16.20
   3   7   0  150.58   18.70
  -3   7   0  160.98   17.40
   3   8   0   53.39   13.60
  -3   8   0   36.60   10.10
   3   8   0   38.20   12.20
  -3  -8   0   54.49   16.20
   3  -8   0   45.20   16.10
  -3   9   0  124.89   16.90
   3  -9   0  128.59   24.10
   3   9   0  123.49   19.30
  -3  -9   0  139.09   23.00
  -3  10   0    2.40   13.30
  -3 -10   0   20.60   16.40
   3 -10   0   -0.50   19.60
  -4   0   0    9.00    3.60
   4   0   0    5.30    2.20
   4   0   0    7.10    4.80
  -4   0   0    4.70    3.00
  -4   1   0  227.78   17.40
   4   1   0  227.38   16.20
  -4  -1   0  232.78   17.80
   4  -1   0  219.78   18.50
  -4  -1   0  240.38   16.40
  -4   1   0  260.27   19.50
   4  -1   0  229.78   17.60
  -4  -2   0  273.07   18.80
   4   2   0  267.07   22.40
   4  -2   0  254.47   21.40
  -4  -2   0  279.27   19.60
  -4   2   0  266.07   19.80
   4  -2   0  265.77   20.90
  -4  -3   0  228.88   20.30
   4  -3   0  229.88   20.80
  -4  -3   0  241.78   17.50
  -4  -3   0  257.47   19.50
   4   3   0  237.58   21.60
  -4   3   0  246.28   18.30
  -4   3   0  242.68   20.60
   4   4   0   35.00    9.00
  -4  -4   0   22.70    7.30
  -4   4   0   32.30    7.40
  -4   4   0   25.90    5.40
  -4  -4   0   23.50    7.30
   4  -4   0   23.60    8.50
   4   5   0   60.29   11.10
  -4   5   0   45.50    7.50
   4  -5   0   57.29   12.80
  -4  -5   0   45.40   10.90
  -4   5   0   51.99    9.10
  -4  -5   0   39.70    9.70
  -4   6   0  390.26   31.00
   4  -6   0  389.36   35.10
  -4  -6   0  413.76   34.80
  -4   6   0  372.36   29.50
   4   6   0  403.16   32.80
  -4  -6   0  358.56   32.00
  -4   7   0  258.97   22.80
   4  -7   0  260.87   29.20
  -4   7   0  248.28   23.70
   4   7   0  272.97   26.60
  -4  -7   0  275.27   29.10
   4   8   0  313.17   29.70
  -4   8   0  284.57   26.60
  -4  -8   0  300.07   31.10
   4  -8   0  303.17   34.30
  -4  -8   0  345.27   32.60
   4  -9   0   13.10   18.20
  -4  -9   0    0.00   11.70
  -4   9   0   -0.10   10.20
  -4 -10   0   -0.90   13.40
   5   0   0    4.30    2.50
  -5   0   0    0.00    3.50
   5   0   0    1.20    5.50
  -5   0   0   -0.40    3.50
   5   1   0  302.77   26.50
  -5   1   0  312.27   24.10
   5  -1   0  333.47   24.00
   5  -1   0  316.07   25.70
  -5  -1   0  341.77   23.10
   5   1   0  335.47   22.60
  -5  -2   0  745.43   48.90
   5  -2   0  719.13   51.19
  -5  -2   0  718.23   51.19
  -5   2   0  726.63   50.09
   5  -2   0  720.83   51.39
   5   2   0  672.23   52.79
  -5  -2   0  737.53   49.40
   5   3   0 2547.15  175.98
  -5   3   0 2569.84  173.08
   5  -3   0 2554.84  175.08
  -5  -3   0 2532.25  174.48
  -5  -3   0 2611.64  173.38
  -5  -3   0 2619.84  171.98
   5  -4   0  767.32   56.29
  -5  -4   0  707.73   51.89
  -5   4   0  738.83   52.79
  -5   4   0  765.42   55.29
  -5  -4   0  791.02   54.49
   5   4   0  808.82   56.69
  -5  -4   0  759.12   54.99
  -5   5   0   57.99   11.10
  -5   5   0   66.49    9.00
   5   5   0   74.29   13.10
  -5  -5   0   63.69   11.70
  -5  -5   0   74.09   12.60
   5  -5   0   67.29   13.10
  -5  -6   0   32.60   11.10
  -5   6   0   40.20    8.30
   5   6   0   28.60   11.40
   5  -6   0   37.00   12.60
  -5  -6   0   47.80   11.70
  -5   6   0   29.70    9.80
   5  -7   0  198.38   25.60
  -5  -7   0  166.68   21.10
   5   7   0  186.38   22.40
  -5   7   0  195.48   18.70
  -5  -7   0  180.48   22.10
  -5   7   0  182.28   20.60
   5   8   0  132.99   19.50
  -5   8   0  128.39   16.00
   5  -8   0  130.49   22.80
  -5  -8   0  125.29   19.20
  -5  -9   0   70.89   17.40
   5  -9   0   86.39   21.80
  -6   0   0 2698.33  175.18
  -6   0   0 2518.95  174.48
   6   0   0 2503.45  176.58
   6   0   0 2633.14  173.38
  -6   1   0  516.45   37.80
  -6  -1   0  547.55   36.90
   6  -1   0  506.55   39.70
  -6  -1   0  489.85   38.10
   6   1   0  509.55   40.80
   6   1   0  544.45   36.00
   6  -1   0  550.24   37.40
  -6  -2   0    3.90    5.90
   6  -2   0    2.70    6.10
   6   2   0   -6.50    7.40
   6  -2   0    4.30    5.40
  -6  -2   0    8.30    2.70
  -6   2   0    6.70    4.40
  -6  -2   0    3.00    2.90
   6   3   0  121.49   16.30
  -6  -3   0  117.89   13.70
  -6  -3   0  114.09   10.70
  -6  -3   0  109.59    9.00
   6  -3   0  116.29   13.70
  -6   3   0   98.59   11.10
   6  -3   0  114.69   13.70
  -6  -4   0 1151.98   80.89
   6   4   0 1214.28   84.39
   6  -4   0 1207.58   83.59
  -6  -4   0 1217.48   82.79
  -6   4   0 1089.39   80.29
  -6   4   0 1162.68   83.09
  -6   5   0  446.66   34.80
   6   5   0  444.56   38.80
   6  -5   0  487.65   39.60
  -6  -5   0  466.55   37.90
  -6   5   0  487.95   38.00
  -6  -5   0  496.75   37.90
   6   6   0  203.08   23.60
  -6   6   0  193.38   17.60
   6  -6   0  168.58   22.10
  -6   6   0  183.88   20.30
  -6  -6   0  159.98   20.50
   6  -7   0 1004.20   73.49
   6   7   0 1006.40   72.39
  -6  -7   0  907.71   70.79
  -6   7   0  907.91   67.49
   6   8   0   20.40   14.40
  -6  -8   0   28.70   13.90
   6  -8   0   22.60   17.10
  -6  -9   0    7.10   15.90
   6  -9   0    3.90   16.30
   7   0   0    2.30    8.10
  -7   0   0    1.40    5.20
   7   0   0    1.30    3.50
  -7   0   0    2.90    5.80
   7  -1   0  257.67   19.90
   7   1   0  256.87   18.20
   7   1   0  246.58   24.60
  -7   1   0  261.37   21.00
   7  -1   0  256.07   23.60
  -7  -1   0  236.38   21.10
  -7  -2   0  126.89   14.00
   7   2   0  120.69   16.70
  -7   2   0   89.09   11.20
  -7  -2   0  111.09    9.00
   7  -2   0  112.09   13.00
   7  -2   0   97.19   13.80
   7  -3   0  440.96   34.10
  -7   3   0  428.76   32.50
   7  -3   0  432.36   34.40
  -7  -3   0  440.36   34.50
   7   3   0  429.36   37.00
   7  -4   0  484.15   38.30
  -7   4   0  458.05   35.50
  -7  -4   0  496.35   39.00
  -7   4   0  479.25   39.70
   7   4   0  482.75   40.40
  -7  -5   0   26.80   11.20
   7   5   0   18.80   11.90
   7  -5   0   10.30    9.40
  -7   5   0   13.20    7.20
  -7   5   0    5.80   10.00
   7  -6   0   99.19   16.80
   7   6   0   73.89   16.40
  -7   6   0  103.19   12.50
  -7   6   0  106.89   16.10
  -7  -6   0   69.59   15.40
   7   7   0  199.08   25.20
   7  -7   0  206.38   26.30
  -7   7   0  179.68   19.90
  -7  -7   0  174.28   23.60
   7   8   0  134.09   21.80
  -7  -8   0  105.79   20.10
   7  -8   0  109.79   22.40
   8   0   0 1091.09   81.69
  -8   0   0 1142.69   78.79
   8   0   0 1143.29   76.79
  -8   1   0  295.37   24.90
   8  -1   0  323.97   23.90
   8  -1   0  339.77   29.10
   8   1   0  300.27   29.60
  -8  -1   0  297.57   25.60
  -8   2   0    8.40    6.30
  -8  -2   0   10.80    9.00
   8  -2   0    1.40    8.90
   8   2   0    4.20   10.50
   8  -2   0    4.40    6.50
   8   3   0  123.59   19.50
  -8  -3   0  119.99   15.90
   8  -3   0  128.39   15.80
   8  -3   0  146.49   18.10
  -8   3   0  136.19   15.10
  -8   4   0  408.56   35.30
  -8  -4   0  390.46   34.80
   8  -4   0  375.46   32.90
   8   4   0  430.36   36.80
  -8   4   0  379.86   30.90
  -8  -5   0   -2.40   10.90
  -8   5   0    8.90   11.70
  -8   5   0   10.90    7.80
   8  -5   0   19.40   10.10
   8   5   0   13.40   13.20
   8   6   0   25.30   14.90
   8  -6   0   18.20   11.80
  -8  -6   0   26.50   13.20
  -8   6   0   16.30   12.30
  -8   6   0   22.10    9.00
   8   7   0  173.08   24.70
  -8  -7   0  116.19   21.20
   8  -7   0  163.78   22.60
   8  -8   0  128.09   23.40
  -9   0   0  -13.40    8.10
   9   0   0    0.70   10.80
  -9   1   0  134.89   15.00
   9  -1   0  149.59   19.70
  -9  -1   0  121.49   15.30
   9   1   0  131.39   19.90
  -9   2   0  269.57   23.30
   9   2   0  277.47   30.90
   9  -2   0  257.37   27.20
  -9  -2   0  284.87   25.30
   9  -3   0   26.50    9.50
   9   3   0   13.90   13.00
  -9   3   0   36.90    9.50
   9  -3   0   23.10   11.80
  -9  -3   0   13.60   10.30
  -9   4   0   19.40    9.00
  -9  -4   0   28.40   12.20
   9   4   0   25.90   15.50
  -9   4   0   32.80   13.60
   9  -4   0   21.80   10.60
  -9  -5   0  372.66   35.00
  -9   5   0  336.57   28.60
   9   5   0  339.37   35.00
   9  -5   0  346.57   32.00
  -9   5   0  334.57   34.90
  -9   6   0   35.70   14.90
   9  -6   0   47.80   14.70
   9   6   0   29.20   15.20
  -9  -6   0   12.00   14.00
   9  -7   0  100.09   18.60
   9   7   0   94.09   21.00
 -10   0   0    9.10   10.40
  10   0   0    5.70   14.80
  10  -1   0  622.44   52.39
 -10  -1   0  637.94   49.50
 -10   1   0  672.73   49.10
  10   1   0  639.54   53.69
  10  -2   0   21.00   13.30
  10   2   0   32.10   15.60
 -10   2   0   19.50    9.10
 -10  -2   0   13.10   10.30
 -10   3   0   78.29   13.10
  10   3   0   68.69   18.00
 -10  -3   0   62.59   15.20
  10   4   0   70.69   18.80
 -10   4   0   83.39   13.50
 -10  -4   0   70.29   17.40
 -10   4   0   70.19   18.20
 -10  -5   0  164.88   24.30
 -10   5   0  162.78   25.10
  10   5   0  168.98   26.50
  10   6   0  231.18   30.90
 -11   0   0   -1.50   11.20
  11   0   0    2.00   14.40
 -11  -1   0    3.30   12.00
  11  -1   0   14.30   15.00
  11   1   0   18.50   15.80
 -11   1   0    7.00   11.30
 -11   2   0  709.63   55.59
 -11  -2   0  730.43   57.39
  11   2   0  773.02   63.39
  11  -2   0  759.82   60.29
  11   3   0   56.19   18.70
 -11  -3   0   39.50   15.40
 -11   3   0   69.59   14.00
 -11   3   0   62.29   20.20
 -11   4   0  181.58   28.20
 -11  -4   0  179.08   24.30
  11   4   0  189.08   30.90
 -11   5   0  113.19   23.60
 -12   0   0   22.60   12.50
 -12  -1   0  176.58   23.30
 -12   1   0  188.38   21.90
 -12  -2   0   66.89   17.50
   0   0  -1    0.30    0.60
   0   0   1    0.10    0.50
   0   1  -1    1.90    1.40
   0  -1  -1    1.90    1.80
   0   1  -1   -0.20    0.90
   0   1   1    2.00    1.20
   0  -1   1    1.70    1.60
   0   1   1    0.10    0.80
   0  -1   1    1.00    1.30
   0   1  -1   -0.10    1.30
   0  -2   1    1.10    2.10
   0   2   1    0.70    1.30
   0  -2   1    1.30    3.10
   0   2   1    0.00    1.90
   0   2  -1   -1.90    2.80
   0   2   1    5.80    3.40
   0  -2  -1    3.70    3.40
   0  -2  -1    0.30    1.70
   0   2  -1    0.50    1.80
   0  -2   1    0.00    1.60
   0   2  -1   -0.60    1.90
   0  -2  -1    1.60    1.20
   0   3  -1    3.00    2.50
   0  -3   1   -0.10    2.40
   0   3  -1   -2.20    2.90
   0   3   1    0.70    2.00
   0  -3  -1    2.10    4.80
   0   3   1   -0.70    2.70
   0  -3   1    3.40    2.40
   0  -3  -1    0.30    1.80
   0  -3   1   -1.10    4.60
   0  -4   1   -4.90    5.90
   0   4  -1   -4.50    3.10
   0  -4  -1   -0.90    2.50
   0   4   1   -2.60    2.80
   0   4  -1    1.50    3.80
   0  -4  -1   -1.20    6.10
   0   4   1   16.80    4.40
   0  -5  -1   -1.70    7.80
   0  -5   1   -2.40    7.70
   0  -5  -1   -1.50    3.30
   0   5  -1    0.40    4.60
   0   5  -1   -1.70    4.30
   0   5   1   -0.70    4.40
   0   5   1   -2.40    3.60
   0   6   1    0.20    6.40
   0   6   1    3.00    4.50
   0  -6   1    7.20    9.80
   0   6  -1    1.50    5.80
   0  -6  -1    6.30   10.30
   0   6  -1   -5.90    5.10
   0   7  -1    4.30    7.60
   0   7   1    1.10    5.80
   0   7   1   -6.40    7.70
   0   7  -1    3.20    6.80
   0  -7  -1   11.80   13.70
   0  -7   1   -4.40   10.50
   0  -8   1   15.70   13.40
   0   8  -1   -0.50    8.20
   0   8  -1    5.20    8.20
   0  -8  -1   11.70   15.40
   0   8   1   -3.40    9.40
   0   9   1    6.60   10.30
   0  -9  -1   11.80   14.80
   0   9  -1    6.70   11.40
   0  -9   1   11.70   16.50
   0 -10   1    4.00   15.80
   0 -10  -1    9.70   15.80
   0  10  -1    4.00   13.30
   0  10   1   -2.00   12.90
   0  11  -1   -4.00   14.60
   0  11   1   11.00   15.90
  -1   0  -1    0.90    1.00
  -1   0  -1    3.00    1.00
   1   0   1    2.90    1.50
  -1   0  -1    1.80    1.30
   1   0   1    1.30    1.00
  -1   0   1    0.90    1.10
  -1  -1   1  621.34   42.30
  -1   1  -1  647.84   41.30
  -1  -1   1  573.54   41.60
   1  -1  -1  610.14   42.60
  -1   1  -1  678.93   42.30
   1  -1  -1  677.13   41.80
   1   1   1  569.84   41.90
  -1   1  -1  646.44   42.30
  -1  -1   1  547.45   41.70
   1  -1  -1  624.74   41.50
  -1   1   1  552.74   42.50
   1   1  -1  620.14   42.20
  -1  -1  -1  655.53   42.00
  -1  -1  -1  657.43   41.80
   1  -1   1  582.74   42.10
   1  -1   1  635.34   42.30
   1   1  -1  661.93   41.90
   1  -1   1  562.04   41.30
  -1   1   1  609.54   41.70
  -1  -1  -1  660.73   41.90
  -1   1   1  565.44   41.70
  -1  -1  -1  616.94   41.70
   1   1  -1  605.94   41.80
   1  -2  -1 1987.60  134.09
  -1   2  -1 2076.29  134.69
   1   2   1 2123.39  134.99
  -1   2  -1 2120.09  133.89
   1   2   1 2042.70  134.29
   1  -2  -1 1846.62  135.79
   1   2   1 1957.40  134.39
  -1  -2   1 2126.39  134.19
  -1  -2   1 1688.73  134.89
  -1  -2   1 2114.09  134.79
  -1   2   1 2038.70  134.19
   1   2  -1 1986.70  134.69
  -1   2   1 2054.59  133.79
   1  -2   1 2042.30  133.79
   1  -2   1 1806.82  135.29
  -1  -2  -1 1861.41  134.99
   1   2  -1 2028.20  134.99
  -1   2   1 2118.99  133.99
   1   2  -1 1928.61  134.19
  -1   2   1 2055.79  136.19
  -1  -2  -1 2151.78  134.39
   1  -2   1 1900.01  134.59
   1  -3  -1 1685.43  106.69
   1  -3  -1 1395.26  109.09
  -1   3  -1 1595.84  107.29
  -1  -3   1 1453.15  108.79
  -1  -3   1 1642.64  107.39
   1   3   1 1546.25  106.99
  -1   3  -1 1617.54  106.59
   1   3   1 1583.04  107.09
   1   3  -1 1521.55  107.39
  -1  -3  -1 1659.63  106.89
   1   3  -1 1582.84  106.99
   1   3  -1 1638.34  108.49
   1  -3   1 1620.94  107.39
  -1   3   1 1699.23  106.49
  -1   3   1 1652.43  106.89
   1  -3   1 1634.84  106.49
  -1  -3  -1 1473.05  108.49
   1  -3   1 1479.45  108.89
  -1   4  -1  122.49   10.50
  -1  -4   1   85.89   13.10
   1  -4  -1   99.09   13.60
   1   4   1   77.49    9.70
   1   4   1   82.89    9.60
  -1   4  -1  115.89    9.60
   1  -4  -1  118.89    9.30
  -1  -4  -1  120.49   13.50
   1  -4   1   68.19   12.10
  -1   4   1   85.29    9.80
  -1   4   1   74.79    8.50
   1   4  -1  119.19   10.80
   1   4  -1  120.89   10.30
  -1  -4  -1  116.49    9.30
   1  -5  -1   88.39    8.80
   1   5   1   66.09    8.90
  -1  -5   1   72.79   13.30
   1  -5  -1   82.59   14.30
  -1   5  -1   88.19    9.20
   1   5   1   79.99    9.80
  -1   5  -1   70.19    9.20
   1   5  -1   96.89   10.40
  -1   5   1   67.39    8.30
  -1  -5  -1   75.69   13.20
   1  -5   1   58.79   12.50
  -1  -5  -1   80.89    9.20
   1   5  -1   88.09   10.40
  -1   5   1   68.59    8.80
  -1   6  -1  214.58   18.10
  -1   6  -1  216.38   17.90
   1   6   1  179.08   17.50
  -1  -6   1  195.68   22.70
   1   6   1  196.08   18.30
   1  -6  -1  191.38   25.00
   1   6  -1  218.58   18.50
  -1  -6  -1  250.67   25.60
   1  -6   1  184.58   23.10
  -1   6   1  186.48   18.10
   1   6  -1  230.08   18.60
  -1   6   1  178.68   16.40
  -1  -7   1   94.19   17.20
   1  -7  -1  114.29   19.90
  -1   7  -1   89.09   12.50
   1   7   1   93.39   13.00
  -1   7  -1   99.29   12.50
   1   7   1  105.39   12.90
  -1   7   1  115.49   12.10
  -1  -7  -1   97.49   18.40
  -1   7   1   88.19   12.20
   1  -7   1  115.39   18.90
   1   7  -1  109.39   14.00
   1   7  -1   89.39   13.10
  -1  -8   1  116.09   21.20
  -1   8  -1  115.49   15.50
   1  -8  -1  115.09   21.40
  -1   8  -1  122.59   15.10
   1   8   1  117.09   16.60
   1   8  -1  120.59   16.70
  -1  -8  -1  132.39   22.50
   1  -8   1  117.09   21.30
  -1   8   1  126.89   15.30
   1   8  -1  106.99   15.40
   1   9   1  160.68   20.50
  -1   9  -1  135.89   18.50
   1  -9  -1  106.59   23.20
  -1  -9   1  166.98   24.30
   1  -9   1  186.98   27.60
  -1  -9  -1  145.89   25.50
   1   9  -1  130.59   19.70
  -1   9   1  167.18   19.90
  -1  10  -1    5.10   12.50
  -1 -10   1   16.30   15.90
   1  10   1   26.40   15.10
   1 -10  -1    6.20   18.50
  -1 -10  -1   17.20   17.60
  -1  10   1   12.70   11.80
   1 -10   1   21.00   17.90
   1  10  -1   -5.00   13.30
  -1 -11   1    8.00   22.20
  -1  11   1   14.40   15.30
   1  11  -1   19.70   16.10
   2   0   1  778.42   50.99
   2   0   1  713.23   51.59
  -2   0   1  742.33   51.09
   2   0   1  740.43   50.89
  -2   0   1  709.13   51.09
  -2   0   1  822.02   52.29
  -2  -1   1 4114.39  284.07
   2   1   1 4241.38  285.47
  -2   1  -1 4301.77  284.87
   2   1   1 4009.40  285.07
  -2  -1   1 4360.16  284.67
  -2   1  -1 4324.87  284.87
  -2  -1   1 4536.35  285.67
   2  -1  -1 4540.65  284.47
   2  -1  -1 4025.80  284.57
  -2   1  -1 4237.58  284.47
   2  -1  -1 3773.42  285.17
  -2   1   1 4085.99  285.67
  -2   1   1 4580.94  284.47
   2  -1   1 4354.06  284.87
   2   1  -1 4045.40  285.37
   2  -1   1 4412.36  284.47
  -2   1   1 4636.14  285.07
  -2  -1  -1 4243.38  285.07
  -2  -1  -1 4227.78  284.97
   2  -1   1 4383.76  284.77
  -2  -1  -1 4175.48  284.47
   2   2   1 1041.50   74.99
   2  -2  -1 1217.88   74.89
  -2   2  -1 1154.68   74.39
  -2  -2   1 1086.29   74.99
   2  -2  -1 1178.18   74.69
  -2   2  -1 1107.99   75.09
  -2  -2   1 1086.69   75.89
   2  -2  -1 1121.39   76.79
  -2   2  -1 1151.28   75.69
   2   2   1  962.20   75.39
  -2  -2   1  998.40   75.09
   2   2   1 1070.29   74.89
  -2   2  -1 1231.08   76.79
  -2  -2  -1 1205.88   75.59
  -2   2   1 1040.50   74.79
   2  -2   1 1010.10   75.99
   2   2  -1 1167.08   75.99
  -2  -2  -1 1200.68   75.79
   2  -2   1 1079.49   74.29
   2   2  -1 1156.38   74.79
  -2   2   1 1045.30   77.09
  -2   2   1  998.80   74.59
  -2  -2  -1 1142.09   75.39
   2  -3  -1  427.76   31.30
   2   3   1  342.37   28.00
   2   3   1  391.26   28.50
  -2   3  -1  437.36   28.90
   2   3   1  347.47   28.60
  -2   3  -1  439.36   27.50
   2  -3   1  348.47   27.20
   2  -3   1  315.27   29.60
  -2   3   1  349.87   27.40
   2  -3   1  384.76   28.70
  -2   3   1  321.97   27.60
   2   3  -1  458.55   29.50
   2   3  -1  448.96   28.40
   2   3  -1  450.45   28.90
  -2  -3  -1  475.35   30.00
  -2   3   1  372.36   27.80
   2   4   1 1371.06   95.59
  -2   4  -1 1496.15   96.09
  -2   4  -1 1461.85   94.79
   2  -4  -1 1358.26   98.89
  -2  -4   1 1291.57   97.59
   2   4   1 1382.86   95.99
  -2   4   1 1485.35   94.69
  -2   4   1 1394.56   95.09
   2  -4   1 1317.87   97.89
   2   4  -1 1450.05   95.69
  -2   4   1 1366.46   94.99
  -2  -4  -1 1386.76   97.59
   2   4  -1 1408.76   96.29
  -2   5  -1  538.05   41.70
   2  -5  -1  537.65   45.90
   2   5   1  619.64   42.20
   2   5   1  573.34   42.20
  -2   5  -1  581.44   40.90
  -2  -5   1  594.94   45.40
   2  -5   1  574.44   45.90
   2   5  -1  531.85   41.80
   2   5  -1  523.55   42.30
  -2   5   1  610.54   41.00
  -2  -5  -1  537.65   44.50
  -2   5   1  604.44   41.30
  -2   5   1  643.74   40.60
   2  -6  -1  838.92   63.69
   2   6   1  773.32   58.49
  -2   6  -1  866.51   58.69
   2   6   1  797.62   58.49
  -2   6  -1  865.81   57.69
  -2  -6   1  807.92   61.99
  -2   6   1  800.72   57.19
   2  -6   1  775.52   62.49
  -2   6   1  782.32   57.89
  -2  -6  -1  867.41   62.79
   2   6  -1  894.71   59.39
   2   6  -1  782.42   58.99
  -2  -7   1  727.73   55.09
   2  -7  -1  625.84   55.39
  -2   7  -1  613.34   49.60
   2   7   1  767.92   50.79
   2   7   1  670.33   50.49
  -2   7  -1  616.34   49.10
  -2   7   1  673.83   49.40
  -2  -7  -1  699.03   56.19
   2   7  -1  669.13   50.69
   2   7  -1  663.03   50.39
  -2   7   1  724.53   48.80
   2  -7   1  724.13   55.79
   2   8   1  136.89   18.20
   2  -8  -1  155.28   24.10
  -2  -8   1  144.09   22.80
  -2   8  -1  138.09   16.70
   2   8  -1  170.68   19.90
  -2   8   1  129.19   16.30
  -2  -8  -1  175.88   24.90
   2   8  -1  159.58   19.10
   2  -8   1  174.08   25.80
   2  -9  -1   99.69   23.00
   2   9   1   88.79   16.20
  -2  -9   1   78.49   19.80
  -2   9  -1   84.39   14.90
  -2  -9  -1  105.09   22.00
  -2   9   1   86.29   15.10
   2  -9   1   81.89   20.80
   2   9  -1   84.69   16.60
   2  10   1   45.40   15.90
  -2 -10   1   80.79   20.90
  -2  10  -1   77.89   16.80
   2 -10  -1   97.59   24.40
   2 -10   1   70.59   23.80
  -2  10   1   67.99   16.30
  -2 -10  -1  121.79   23.30
   2  10  -1   73.79   17.50
  -2 -11   1   99.59   23.20
  -2 -11  -1  106.59   27.30
  -2  11   1   54.89   17.40
   3   0  -1    0.30    1.60
  -3   0  -1   -0.60    0.50
  -3   0  -1    0.40    1.90
  -3   0  -1    1.50    1.80
  -3   0   1    3.60    2.60
   3   0  -1   -0.50    3.30
   3   0   1    8.30    2.40
  -3   0   1   -0.40    2.10
   3   0  -1   -1.40    2.00
   3   0   1    1.20    1.80
   3   0   1   -3.60    3.00
  -3   0   1    1.50    3.40
   3  -1  -1 1843.32  129.09
  -3  -1   1 1789.92  128.79
   3   1   1 1772.12  127.99
   3  -1  -1 2067.09  128.69
   3  -1  -1 2054.39  129.29
  -3   1  -1 2079.99  128.29
   3   1   1 1747.93  129.69
  -3   1  -1 2123.19  129.39
   3  -1   1 1898.81  128.39
   3  -1   1 1807.32  128.79
  -3  -1  -1 2083.59  128.79
  -3   1   1 1878.21  129.69
  -3  -1  -1 2075.19  128.19
   3  -1   1 1729.63  129.09
   3   1  -1 1927.81  130.09
  -3  -1  -1 2006.70  128.89
  -3   1   1 1782.72  129.99
  -3   1   1 1811.62  128.49
   3  -2  -1 2797.02  191.18
  -3  -2   1 2732.23  191.58
   3  -2  -1 2652.03  192.58
  -3   2  -1 3042.50  192.58
  -3   2  -1 2882.11  190.68
   3   2   1 2729.23  192.38
  -3  -2  -1 2835.12  191.08
  -3   2   1 2865.41  191.08
  -3   2   1 3003.90  191.88
   3  -2   1 2984.70  190.78
   3   2  -1 2767.12  192.58
   3  -2   1 2780.02  192.18
  -3  -2  -1 2917.01  191.78
  -3  -2  -1 2953.00  190.58
  -3   3  -1 1001.70   72.69
   3   3   1 1150.98   73.99
   3   3   1 1118.89   74.99
  -3  -3   1 1171.28   74.39
  -3   3  -1 1009.60   74.39
  -3  -3   1 1012.10   74.29
   3  -3  -1  986.50   75.79
   3   3  -1  972.20   72.99
   3  -3   1 1130.79   75.69
  -3   3   1 1214.18   74.19
  -3   3   1 1161.68   73.29
   3  -3   1 1210.18   72.99
  -3  -3  -1  983.50   72.89
  -3  -3  -1  969.90   73.99
   3   3  -1  932.91   74.59
  -3   3   1 1190.68   73.79
   3   4   1 1185.08   79.59
   3   4   1 1164.98   80.39
  -3   4  -1 1099.59   79.79
  -3  -4   1 1161.98   80.99
   3  -4  -1 1143.09   82.49
  -3   4  -1 1119.69   78.19
  -3  -4   1 1118.59   79.79
  -3   4   1 1121.29   78.59
  -3  -4  -1 1149.08   80.69
   3   4  -1 1175.38   80.79
  -3   4   1 1216.38   79.29
   3  -4   1 1154.78   81.69
   3   5   1  826.62   56.59
  -3   5  -1  760.72   56.29
   3   5   1  786.12   56.99
  -3  -5   1  832.12   58.99
   3  -5  -1  793.52   59.99
  -3   5  -1  788.02   54.99
   3  -5   1  802.42   59.39
  -3  -5  -1  761.62   58.49
  -3   5   1  797.32   55.49
  -3   5   1  779.32   55.39
   3   5  -1  771.02   57.29
  -3   6  -1  616.84   44.10
   3  -6  -1  616.04   48.50
  -3  -6   1  559.84   46.80
   3   6   1  554.44   44.10
  -3   6  -1  615.94   42.50
   3   6   1  576.74   44.00
  -3  -6  -1  608.54   47.40
   3  -6   1  558.04   47.50
  -3   6   1  569.34   42.80
  -3   6   1  552.34   42.40
   3   6  -1  588.84   43.70
   3   6  -1  643.74   45.30
   3  -7  -1  151.68   23.00
  -3   7  -1  142.39   17.20
   3   7   1  223.28   20.20
  -3  -7   1  234.48   24.20
   3   7   1  197.28   20.30
  -3   7  -1  162.18   18.90
  -3  -7  -1  193.88   24.40
   3   7  -1  128.29   17.90
   3  -7   1  223.98   25.90
  -3   7   1  225.08   21.20
   3   7  -1  145.29   19.30
  -3   7   1  207.18   17.90
  -3   8  -1  317.17   26.20
  -3  -8   1  305.57   31.80
   3   8   1  274.67   27.60
   3  -8  -1  301.97   33.70
   3  -8   1  303.27   33.70
  -3  -8  -1  316.17   33.90
   3   8  -1  264.57   27.50
  -3   8   1  281.97   26.40
  -3   9  -1  681.33   53.99
   3   9   1  737.63   56.59
  -3  -9   1  755.82   59.19
   3  -9  -1  701.43   61.09
   3  -9   1  710.73   61.29
  -3   9   1  684.43   53.99
  -3  -9  -1  737.53   60.29
   3  10   1  202.68   26.20
  -3 -10   1  174.08   25.00
   3 -10  -1  237.48   33.80
   3 -10   1  236.88   33.10
  -3 -10  -1  235.18   30.00
  -3  10   1  216.88   24.10
  -4   0   1 5681.93  375.56
   4   0  -1 5599.24  374.36
   4   0  -1 5329.07  376.46
  -4   0  -1 5695.93  375.06
  -4   0  -1 5833.52  375.06
   4   0   1 5381.36  376.36
  -4   0   1 5597.34  375.16
   4   0   1 5856.21  374.66
  -4   1  -1 2492.05  163.68
   4   1   1 2287.77  163.18
  -4   1  -1 2768.32  165.88
  -4  -1   1 2231.98  162.78
   4   1   1 2330.57  165.58
  -4  -1   1 2424.16  164.28
   4  -1  -1 2524.25  164.98
   4  -1  -1 2346.27  164.08
  -4  -1  -1 2490.65  164.28
  -4   1   1 2604.64  165.98
  -4   1   1 2439.76  163.88
  -4  -1  -1 2553.74  163.38
   4  -1   1 2467.55  164.08
   4   1  -1 2300.37  165.58
   4  -1   1 2429.36  164.98
  -4  -2   1  322.27   26.20
   4   2   1  305.07   27.40
  -4  -2   1  295.77   24.30
   4  -2  -1  373.16   27.10
   4  -2  -1  391.36   26.50
  -4   2  -1  377.26   25.10
  -4  -2   1  341.17   23.80
  -4  -2  -1  412.56   25.30
   4  -2   1  335.87   26.30
  -4  -2  -1  375.16   26.40
   4  -2   1  320.37   26.30
   4   2  -1  390.06   28.20
  -4  -2  -1  386.56   24.70
  -4   2   1  321.37   25.40
  -4   3  -1  721.23   49.00
  -4  -3   1  698.13   50.49
   4   3   1  693.13   51.59
  -4  -3   1  638.04   49.60
  -4  -3   1  694.13   48.20
   4  -3  -1  746.53   49.90
  -4   3  -1  776.12   51.69
   4  -3  -1  723.03   51.69
   4   3  -1  725.93   51.79
  -4  -3  -1  729.23   50.79
  -4  -3  -1  705.23   48.70
  -4   3   1  676.23   49.30
   4  -3   1  683.53   51.29
  -4  -3  -1  757.02   50.19
  -4   4  -1 1287.47   88.89
   4   4   1 1208.68   88.99
  -4  -4   1 1166.08   88.19
   4  -4  -1 1298.67   90.39
  -4  -4   1 1231.38   88.39
  -4   4  -1 1319.57   86.69
   4   4  -1 1470.05   86.89
  -4  -4  -1 1315.17   88.79
  -4   4   1 1230.08   86.99
  -4   4   1 1264.07   87.99
   4  -4   1 1190.78   89.69
   4   4  -1 1273.77   89.39
   4  -5  -1  545.55   44.20
   4   5   1  548.45   42.50
   4   5   1  525.25   41.10
  -4  -5   1  535.35   42.00
  -4   5  -1  562.24   41.60
  -4   5  -1  566.04   39.70
  -4  -5   1  586.24   42.80
  -4   5   1  538.65   40.00
  -4   5   1  570.14   40.90
   4  -5   1  578.34   44.30
   4   5  -1  537.25   42.40
  -4  -5  -1  578.64   43.20
   4   6   1 1033.10   73.09
   4  -6  -1  986.00   75.79
  -4   6  -1 1000.30   70.39
  -4   6  -1  954.10   72.09
  -4  -6   1  973.50   72.49
   4   6   1 1067.59   72.39
  -4  -6   1 1069.79   73.89
  -4   6   1 1021.10   71.09
   4   6  -1  906.71   72.49
  -4  -6  -1 1037.50   74.69
   4  -6   1 1040.40   75.99
  -4   6   1 1052.89   70.79
   4   7   1  303.17   24.40
  -4   7  -1  191.18   21.70
  -4  -7   1  247.98   23.90
   4   7   1  299.87   23.60
  -4   7  -1  208.98   20.20
   4  -7  -1  206.18   26.80
  -4  -7  -1  210.78   26.40
   4   7  -1  178.78   23.10
   4   8   1  277.27   28.50
  -4  -8   1  345.77   32.40
   4  -8  -1  336.87   34.80
  -4   8  -1  288.47   26.90
  -4  -8   1  258.57   30.40
   4   8  -1  285.07   29.60
  -4  -8  -1  354.56   34.00
  -4   8   1  314.37   27.30
   4  -8   1  335.67   35.10
  -4  -9   1   40.90   14.80
   4  -9  -1   60.89   19.60
  -4  -9  -1   49.30   17.00
  -4   9   1   69.59   13.50
   4  -9   1   66.59   20.20
  -4 -10   1   64.89   17.60
  -4 -10  -1   90.99   21.60
  -5   0  -1   -0.10    3.30
  -5   0  -1   -0.80    3.80
   5   0  -1    7.50    5.90
   5   0   1    2.20    2.80
  -5   0   1   -0.60    3.80
   5   0  -1   -0.70    2.20
  -5   0   1    2.50    3.90
   5   0   1    5.30    5.60
  -5  -1   1  144.09   10.80
   5   1   1  139.89   15.20
  -5  -1   1  140.79   13.40
   5   1   1  134.59   11.00
  -5   1   1  162.38   12.90
   5  -1   1  139.99   12.30
  -5   1   1  161.48   14.90
   5  -1   1  133.99   14.10
   5   2   1 1466.65  104.19
  -5   2  -1 1537.85  101.19
   5  -2  -1 1500.85  102.49
  -5  -2   1 1492.55  102.39
   5  -2  -1 1501.95  102.49
   5  -2   1 1472.05  102.29
   5   2  -1 1485.35  104.09
  -5   2   1 1524.25  101.59
   5  -2   1 1474.85  102.79
  -5  -2  -1 1448.36  100.49
  -5  -2  -1 1557.94  102.39
  -5  -2  -1 1489.35  100.89
   5  -3  -1  675.93   48.20
  -5  -3   1  665.73   44.50
  -5  -3   1  684.43   45.40
   5  -3  -1  630.44   46.80
  -5  -3   1  611.04   47.60
  -5   3  -1  664.63   45.90
  -5   3  -1  699.43   49.10
   5   3   1  643.04   49.30
  -5  -3  -1  686.73   46.60
   5  -3   1  619.64   47.90
  -5  -3  -1  656.83   47.70
  -5   3   1  659.03   46.40
   5   3  -1  657.23   49.20
  -5  -3  -1  659.93   45.30
   5  -4  -1  164.68   18.10
  -5  -4   1  133.89   13.80
  -5  -4   1  133.49   11.40
   5   4   1  143.79   16.90
  -5  -4   1  128.09   15.90
  -5   4  -1  160.78   13.10
  -5   4  -1  157.18   17.10
   5  -4   1  140.89   17.00
  -5   4   1  140.49   15.50
  -5  -4  -1  166.78   15.20
  -5   4   1  133.39   13.60
  -5  -4  -1  141.79   16.10
   5   4  -1  164.58   18.50
  -5   5  -1  592.74   40.00
  -5   5  -1  534.35   42.70
   5   5   1  546.75   43.90
   5  -5  -1  579.64   44.40
  -5  -5   1  547.05   41.40
  -5  -5   1  505.85   42.30
   5  -5   1  517.65   43.90
  -5   5   1  530.55   41.70
   5   5  -1  586.94   43.80
  -5  -5  -1  584.24   42.90
  -5   5   1  532.85   40.40
  -5  -5  -1  621.14   43.30
  -5   6  -1  775.62   58.69
  -5  -6   1  816.52   59.39
   5  -6  -1  776.12   61.29
   5   6   1  830.22   60.49
  -5   6  -1  731.73   56.19
  -5  -6   1  853.61   58.79
   5  -6   1  913.01   63.09
  -5   6   1  800.02   56.89
   5   6  -1  760.42   60.19
  -5  -6  -1  815.52   60.39
  -5  -6  -1  731.53   59.49
  -5   6   1  815.72   58.09
  -5  -7   1   57.79   13.50
  -5   7  -1   61.89   13.10
   5   7   1   66.89   14.10
   5  -7  -1   36.20   14.60
  -5   7  -1   49.99    9.80
  -5  -7  -1   50.79   14.60
   5   7  -1   55.99   14.00
  -5  -7  -1   52.49   13.30
   5  -7   1   91.09   17.70
  -5   7   1   67.19   11.10
  -5   8  -1  128.79   15.80
   5  -8  -1  131.69   22.40
  -5  -8   1  118.99   18.70
   5   8  -1  123.79   19.50
  -5   8   1  143.59   16.40
  -5  -8  -1  100.19   18.20
   5  -8   1  126.29   22.50
  -5  -9   1  257.97   30.10
   5  -9  -1  309.07   35.90
   5  -9   1  331.27   36.50
  -5   9   1  273.57   26.70
  -5  -9  -1  234.68   29.10
   6   0   1 1495.35  101.29
   6   0   1 1474.85   97.89
  -6   0   1 1423.56   98.99
  -6   0  -1 1345.27   98.59
  -6   0   1 1605.24   99.49
   6   0  -1 1420.46  101.09
   6   0  -1 1393.06   97.39
   6  -1  -1  577.24   42.00
  -6   1  -1  570.64   42.20
   6   1   1  614.44   45.70
  -6  -1   1  629.04   43.20
   6  -1  -1  564.04   44.70
   6   1   1  635.84   41.30
  -6   1   1  612.74   42.90
   6   1  -1  568.84   45.80
   6  -1   1  664.33   42.50
   6   1  -1  558.04   40.30
   6  -1   1  624.64   44.90
  -6  -1  -1  577.94   43.10
  -6  -1  -1  610.74   41.90
  -6   2  -1  282.57   22.80
   6  -2  -1  292.87   24.90
  -6  -2   1  320.37   24.70
   6  -2  -1  305.17   24.30
   6  -2   1  327.57   25.50
  -6   2   1  318.07   23.70
  -6  -2  -1  302.67   22.10
   6   2  -1  283.67   26.80
  -6  -2  -1  269.17   24.00
  -6  -2  -1  313.27   22.00
   6  -2   1  330.77   24.30
   6   3   1  403.16   31.60
  -6   3  -1  318.27   30.80
  -6   3  -1  344.67   26.70
   6  -3  -1  333.67   28.40
  -6  -3   1  382.26   29.50
   6  -3  -1  352.56   29.00
  -6   3   1  380.86   27.60
  -6  -3  -1  375.46   29.10
   6  -3   1  372.96   29.30
  -6  -3  -1  361.96   25.60
  -6  -3  -1  347.67   26.80
   6   3  -1  373.46   31.20
  -6   4  -1  434.06   33.60
   6   4   1  506.35   39.30
   6  -4  -1  445.96   36.50
  -6   4  -1  447.36   37.50
  -6  -4   1  513.25   32.50
  -6  -4   1  481.35   36.70
  -6   4   1  456.35   36.70
  -6  -4  -1  432.26   36.20
  -6   4   1  481.45   34.30
   6   4  -1  409.66   37.30
  -6  -4  -1  444.66   34.70
   6  -4   1  472.25   37.30
  -6   5  -1  256.77   24.10
   6   5   1  219.78   25.20
   6  -5  -1  275.87   25.50
  -6  -5   1  178.78   22.10
  -6   5  -1  289.77   19.80
  -6   5   1  182.68   21.60
  -6  -5  -1  293.97   22.80
  -6   5   1  186.98   19.70
   6  -5   1  189.48   23.20
   6   5  -1  229.68   23.70
  -6  -5  -1  248.18   23.50
  -6   6  -1    5.20    6.80
  -6   6  -1    6.30    9.60
  -6  -6   1   18.80   11.10
   6  -6  -1    7.30   12.00
   6   6   1   25.70   12.20
  -6  -6  -1    3.40    9.60
   6   6  -1   16.80   11.40
   6  -6   1   15.30   11.80
  -6   6   1   20.20    9.20
  -6   6   1   15.40    7.90
   6   7   1  425.76   38.90
   6  -7  -1  464.65   40.30
  -6   7  -1  466.45   34.10
  -6   7  -1  453.05   36.70
  -6  -7   1  423.96   38.90
   6  -7   1  437.46   40.20
  -6  -7  -1  427.36   37.80
  -6   7   1  381.36   33.80
   6   7  -1  410.66   38.10
   6  -8  -1  193.28   26.20
  -6  -8   1  160.98   22.70
  -6  -8  -1  166.98   22.60
   6   8  -1  186.18   24.00
  -6   8   1  156.08   18.60
   6  -8   1  180.78   26.00
  -6  -9   1   67.39   19.10
   6  -9  -1   62.19   19.90
   6  -9   1   76.79   21.00
  -6  -9  -1   71.89   18.20
  -7   0  -1   -2.00    5.50
   7   0   1   -0.50    3.70
   7   0   1    1.80    8.30
  -7   0   1   -4.40    5.80
  -7   0   1    6.30    5.90
   7   0  -1    1.00    8.00
   7   0  -1   -0.70    2.90
  -7   1  -1  333.57   28.50
   7  -1  -1  329.47   30.90
   7   1   1  419.26   27.00
   7   1   1  423.06   33.10
   7  -1  -1  336.97   27.60
  -7  -1   1  392.36   29.50
  -7  -1  -1  326.67   28.90
  -7   1   1  409.86   29.40
   7  -1   1  453.25   32.30
   7   1  -1  310.97   32.70
   7  -1   1  437.16   28.30
   7   2   1  644.34   55.19
  -7   2  -1  775.42   50.99
   7  -2  -1  768.32   51.59
  -7  -2   1  660.43   52.39
   7  -2  -1  769.32   53.29
  -7  -2  -1  757.02   49.80
  -7  -2  -1  768.32   52.39
   7  -2   1  709.93   53.29
   7  -2   1  671.73   51.59
   7   2  -1  711.73   54.99
  -7   2   1  671.63   51.19
  -7   3  -1  793.62   56.39
   7  -3  -1  779.82   53.39
  -7  -3   1  609.14   52.79
   7  -3  -1  795.92   53.19
   7   3   1  591.84   54.99
  -7   3  -1  796.42   51.59
  -7  -3  -1  845.22   51.29
  -7  -3  -1  779.22   53.79
   7   3  -1  843.12   56.79
  -7   3   1  594.04   51.49
   7  -3   1  591.54   52.39
  -7   4  -1  162.68   20.30
  -7  -4   1  152.88   18.20
   7   4   1  210.88   23.10
  -7   4  -1  147.99   15.20
   7  -4  -1  159.18   19.10
   7   4  -1  150.68   20.20
  -7  -4  -1  126.49   17.70
   7  -4   1  175.78   19.50
  -7   4   1  165.88   20.30
  -7   4   1  181.78   16.70
  -7  -5   1  422.16   36.00
  -7   5  -1  443.76   37.20
  -7   5  -1  436.56   32.20
   7  -5  -1  444.96   36.20
   7   5   1  456.65   39.00
  -7  -5  -1  405.76   35.80
   7   5  -1  404.96   37.20
  -7   5   1  437.06   36.10
  -7   5   1  413.06   33.00
   7  -5   1  407.76   35.80
   7   6   1  232.88   26.10
  -7  -6   1  189.68   22.80
  -7   6  -1  169.08   21.40
  -7   6  -1  159.48   17.80
   7  -6  -1  175.48   22.90
   7  -6   1  182.78   22.90
   7   6  -1  160.98   22.30
  -7  -6  -1  174.68   22.50
  -7   6   1  187.68   18.50
  -7   6   1  170.48   20.90
   7   7   1   77.79   17.60
   7  -7  -1   66.19   16.50
  -7  -7   1   46.40   15.50
  -7   7  -1   43.40   15.10
  -7  -7  -1   58.29   15.50
  -7   7   1   60.89   11.50
   7  -7   1   68.09   17.70
   7   7  -1   51.89   16.30
  -7  -8   1  121.59   20.10
   7  -8  -1   81.89   21.70
   7   8  -1   83.89   19.20
  -7  -8  -1   92.09   20.60
   7  -8   1  139.59   22.30
   8   0   1  458.55   40.10
   8   0  -1  527.15   40.50
  -8   0  -1  485.15   36.40
   8   0   1  482.05   34.70
  -8   0   1  493.75   37.00
   8  -1  -1  265.67   27.80
   8   1   1  344.37   30.10
  -8   1  -1  276.37   24.80
  -8  -1   1  351.86   26.80
   8  -1  -1  277.17   23.20
   8  -1   1  364.26   29.20
   8  -1   1  349.47   24.20
  -8   1   1  337.97   25.40
  -8  -1  -1  270.47   25.70
   8   1  -1  282.47   29.00
   8  -2  -1  432.86   35.10
   8   2   1  467.15   40.20
  -8   2  -1  427.76   35.00
   8  -2  -1  442.46   37.70
  -8  -2   1  535.55   37.80
   8   2  -1  427.46   39.80
   8  -2   1  519.75   38.90
  -8   2   1  535.25   35.90
  -8  -2  -1  431.06   36.40
   8  -2   1  513.95   35.80
  -8   3  -1   33.40    8.30
  -8  -3   1   37.00   10.80
   8  -3  -1   29.40    9.10
   8  -3  -1   39.40   10.70
   8   3   1   53.59   14.20
  -8  -3  -1   38.30   10.60
  -8   3   1   49.30    9.70
   8  -3   1   43.40   10.40
   8   3  -1   37.10   13.20
  -8  -4   1  258.37   26.90
  -8   4  -1  257.77   28.40
   8   4   1  255.07   27.80
   8  -4  -1  264.87   24.70
  -8   4  -1  243.28   22.20
  -8   4   1  251.07   27.60
   8   4  -1  258.17   28.00
  -8  -4  -1  263.17   26.60
  -8   4   1  263.97   23.10
   8  -4   1  253.37   24.80
  -8  -5   1  295.67   31.50
   8  -5  -1  392.16   31.90
  -8   5  -1  377.56   27.70
  -8   5  -1  399.06   34.10
   8   5   1  328.77   33.40
  -8  -5  -1  411.16   33.90
   8   5  -1  392.36   34.50
  -8   5   1  285.97   27.80
   8  -5   1  290.67   31.10
  -8   5   1  295.27   31.40
  -8  -6   1  203.58   25.20
   8  -6  -1  289.77   28.30
  -8   6  -1  278.27   27.90
   8   6   1  234.58   28.00
   8   6  -1  257.37   28.40
  -8   6   1  204.58   22.20
  -8   6   1  197.28   25.40
   8  -6   1  215.88   25.60
  -8  -6  -1  293.37   30.00
  -8  -7   1  134.69   22.40
   8  -7  -1  205.08   24.80
   8   7   1  190.38   26.00
  -8  -7  -1  179.28   24.30
   8  -7   1  159.48   23.90
   8   7  -1  217.58   27.10
   8  -8  -1  105.59   21.70
   8   8  -1   94.59   20.90
   8  -8   1   80.49   19.60
  -9   0  -1    1.90    8.30
   9   0  -1    7.20   11.30
  -9   0   1    9.00    8.20
   9   0   1    4.10   11.50
   9  -1  -1  136.19   20.20
  -9  -1   1  139.09   16.50
  -9   1  -1  123.89   15.30
   9   1   1  142.39   21.10
  -9   1   1  180.38   18.20
  -9  -1  -1  127.19   16.00
   9   1  -1  134.79   20.30
   9  -1   1  164.88   20.60
  -9   2  -1  325.07   26.50
   9  -2  -1  330.27   30.00
   9   2   1  296.77   33.50
  -9  -2   1  308.27   27.90
  -9   2   1  313.97   27.30
  -9  -2  -1  293.87   27.40
   9  -2   1  335.87   30.80
   9   2  -1  315.57   31.90
   9  -2   1  324.27   25.80
   9  -3  -1  414.26   35.90
  -9   3  -1  383.96   31.80
   9   3   1  419.96   38.10
  -9  -3   1  404.56   34.40
  -9   3  -1  410.76   40.00
   9  -3  -1  383.06   32.30
   9  -3   1  429.96   33.00
  -9   3   1  393.36   32.70
  -9  -3  -1  410.06   35.40
   9   3  -1  411.16   38.10
  -9   4  -1   73.99   11.10
   9   4   1   65.99   18.00
   9  -4  -1   45.20   12.10
  -9   4  -1   58.99   16.00
  -9  -4   1   47.10   13.80
  -9  -4  -1   49.20   14.70
  -9   4   1   62.39   15.40
   9  -4   1   56.79   13.30
  -9   4   1   59.09   11.90
   9   4  -1   56.09   16.40
  -9  -5   1   49.10   14.70
   9  -5  -1   37.80   12.60
   9   5   1   83.99   17.90
  -9   5  -1   32.80   14.00
   9  -5   1   47.70   13.60
   9   5  -1   52.59   17.40
  -9   5   1   34.30   14.20
  -9   5   1   51.89   11.10
  -9  -5  -1   33.30   15.40
   9  -6  -1   20.80   13.50
  -9  -6   1   22.10   16.10
  -9   6  -1   12.80   14.30
   9   6   1   40.40   16.00
   9  -6   1   30.90   13.00
   9   6  -1   26.30   16.30
  -9  -6  -1   21.70   14.10
   9  -7  -1   47.90   16.60
   9   7   1   82.49   20.60
   9  -7   1   84.09   18.70
   9   7  -1   63.59   18.10
  10   0   1   78.29   19.20
 -10   0  -1   62.49   12.10
  10   0  -1   64.59   16.60
 -10   0   1   86.09   14.20
  10   1   1  138.19   22.10
 -10   1  -1  136.49   17.00
  10  -1  -1  144.99   22.30
 -10  -1   1  161.98   19.00
 -10   1   1  148.19   17.90
 -10  -1  -1  133.69   17.20
  10   1  -1  120.59   21.10
  10  -1   1  146.39   21.70
  10   2   1    0.70   15.40
 -10   2  -1   -2.80    8.10
 -10  -2   1    3.50   11.40
  10  -2  -1    5.40   13.40
 -10   2   1   -6.20    9.40
  10  -2   1    0.40   14.10
 -10  -2  -1   -0.40   10.40
  10   2  -1   -9.60   13.10
  10   3   1   22.00   14.60
 -10  -3   1   26.90   11.90
 -10   3  -1   11.60   14.80
  10  -3  -1   -3.20   11.50
 -10   3  -1   21.80    9.70
  10   3  -1    2.40   13.60
 -10  -3  -1   12.30   12.50
 -10   3   1    9.70   10.30
  10   4   1  105.59   20.50
 -10   4  -1   87.89   19.60
 -10  -4   1  100.79   18.60
 -10   4   1   79.79   14.50
 -10   4   1   83.19   20.00
  10   4  -1   93.59   19.80
 -10  -4  -1   80.69   16.70
 -10   5  -1  136.09   23.50
 -10  -5   1  128.09   22.20
  10   5   1  112.49   22.30
 -10   5   1  115.89   21.80
 -10  -5  -1  165.48   21.80
  10   5  -1  156.48   23.60
  10   6   1   85.29   20.40
 -10   6  -1  107.69   21.30
  10   6  -1  101.49   23.50
  10  -6   1   88.09   19.00
  11   0  -1    4.30   16.50
  11   0   1    0.20   14.70
 -11   0   1   13.00   10.70
 -11   0  -1    2.50   11.20
  11  -1  -1    8.50   13.90
  11   1   1   -4.20   14.90
 -11  -1   1    4.70   12.20
 -11   1  -1  -12.20    9.40
  11   1  -1    6.80   15.10
  11  -1   1   11.80   15.20
 -11   1   1    2.10   11.10
 -11  -1  -1  -12.50   10.90
 -11  -2   1  128.89   18.80
  11  -2  -1  134.39   21.50
 -11   2  -1  132.59   16.90
  11   2   1   90.59   21.80
 -11   2   1  116.69   17.40
  11   2  -1  155.48   24.00
  11  -2   1  127.89   22.70
 -11  -2  -1  136.09   19.10
 -11   3  -1    3.30   18.40
  11  -3  -1   10.90   16.40
  11   3   1  -15.10   15.00
 -11  -3   1   10.60   12.60
 -11   3   1   -3.10   10.60
  11   3  -1   -1.00   14.80
 -11  -3  -1  -11.50   13.00
 -11   4  -1   27.20   19.20
  11   4   1   27.70   17.80
 -11  -4   1    9.20   15.10
 -11  -4  -1   34.10   14.60
 -11   4   1   31.40   16.70
 -11   5  -1   38.20   19.40
 -11   5   1   39.80   18.30
 -12   0   1  229.68   26.80
 -12   0  -1  263.67   27.70
 -12  -1   1    8.10   12.50
 -12   1   1    5.80   13.20
 -12  -1  -1   20.50   13.80
 -12  -2  -1  110.79   17.80
 -12   2   1   84.49   15.70
   0   0  -2  463.85   30.80
   0   0   2  397.56   30.80
   0   0   2  445.96   31.20
   0   0  -2  483.45   31.00
   0   0  -2  476.05   31.20
   0   0   2  403.66   31.00
   0  -1  -2 1557.24  101.39
   0   1  -2 1672.23  101.59
   0  -1  -2 1543.05  101.89
   0   1  -2 1576.74  101.89
   0   1   2 1427.26  100.99
   0  -1  -2 1613.44  100.99
   0   1   2 1324.67  101.29
   0   1  -2 1639.64  101.09
   0  -1   2 1266.77  101.39
   0  -2   2  590.34   44.10
   0   2  -2  707.23   45.30
   0   2   2  579.44   43.60
   0  -2   2  607.14   45.10
   0   2  -2  735.03   44.50
   0  -2   2  597.14   45.30
   0  -2  -2  725.03   46.20
   0   2  -2  750.02   45.60
   0   2   2  600.84   44.60
   0   3  -2 2954.10  203.98
   0   3   2 3132.19  203.48
   0   3   2 3283.97  204.38
   0  -3   2 2897.41  205.68
   0  -3  -2 2836.22  206.08
   0  -3   2 3282.97  203.78
   0  -3  -2 2902.31  203.18
   0  -3   2 3286.87  204.98
   0   3  -2 2872.81  204.58
   0   4  -2 1257.97   84.19
   0  -4  -2 1284.37   83.29
   0   4  -2 1251.37   84.99
   0   4   2 1255.47   83.49
   0   4   2 1234.38   84.39
   0  -4  -2 1229.48   87.39
   0  -4   2 1127.79   86.69
   0   5  -2 3225.48  209.68
   0  -5   2 2903.11  212.68
   0   5   2 3089.69  208.88
   0   5   2 3013.60  209.68
   0   5  -2 3280.77  210.58
   0  -5  -2 3180.18  208.58
   0  -5  -2 3120.59  213.58
   0  -6   2 2026.00  130.99
   0   6   2 2089.99  126.79
   0   6  -2 1677.53  126.59
   0   6   2 2113.79  125.59
   0   6  -2 1601.14  125.89
   0  -6  -2 1780.12  131.19
   0  -6  -2 1705.63  124.89
   0   7  -2  113.69   14.50
   0  -7  -2  121.49   21.50
   0   7  -2  120.09   15.40
   0  -7   2  210.28   23.00
   0   8  -2 1765.02  122.39
   0  -8  -2 1827.12  129.39
   0   8  -2 1746.13  122.79
   0   8   2 1667.03  122.19
   0  -8   2 1834.02  128.09
   0  -9   2   23.70   18.00
   0   9   2   27.90   11.70
   0   9  -2   11.40   12.10
   0  -9  -2   13.80   17.20
   0  10  -2  341.47   32.80
   0 -10  -2  369.46   41.30
   0  10   2  271.87   32.80
   0 -10   2  338.87   40.90
   1   0   2    4.40    1.80
   1   1   2  172.38   11.70
  -1   1  -2  144.69   12.30
   1  -1  -2  145.39   11.40
  -1  -1   2  177.78   11.30
   1  -1  -2  132.19   12.30
   1   1   2  183.28   11.80
  -1  -1   2  179.38   11.70
  -1  -1  -2  153.18   11.60
  -1   1   2  178.78   12.60
   1   1  -2  143.09   11.30
   1   1  -2  135.89   12.20
  -1   1   2  188.18   11.80
  -1  -1  -2  149.59   11.50
  -1  -1  -2  146.29   11.60
   1   1  -2  140.79   11.50
   1  -1   2  171.68   12.50
   1  -1   2  177.68   12.00
  -1  -2   2 6423.06  444.66
   1  -2  -2 5726.03  445.56
  -1   2  -2 7075.39  445.26
   1   2   2 6692.53  445.06
   1   2   2 6501.35  444.46
  -1   2  -2 7085.59  444.36
  -1  -2   2 7101.79  445.26
   1  -2  -2 7037.90  444.56
  -1  -2   2 6076.89  444.36
  -1  -2   2 6816.42  444.36
   1   2   2 6567.24  445.96
   1  -2   2 6252.27  445.26
  -1  -2  -2 6897.91  445.06
  -1   2   2 6524.25  444.96
  -1   2   2 6930.21  444.46
   1  -2   2 6537.25  445.26
  -1  -2  -2 6927.81  444.56
  -1  -2  -2 6679.63  445.26
   1  -2   2 6841.52  445.16
   1   2  -2 6473.85  445.06
   1   2  -2 6624.84  444.96
  -1   2   2 6444.75  446.06
  -1   2   2 7192.98  445.26
  -1   3  -2  255.27   18.20
   1   3   2  268.17   19.00
   1   3   2  264.17   19.10
   1  -3  -2  237.68   21.40
  -1  -3   2  278.57   20.70
  -1   3  -2  259.67   19.90
  -1  -3  -2  240.78   20.60
   1   3  -2  239.08   18.80
  -1   3   2  258.97   17.70
   1   3  -2  241.08   20.20
  -1   3   2  264.37   17.80
  -1  -3  -2  256.77   18.50
   1  -3   2  243.38   21.00
  -1   3   2  262.17   19.00
   1   3  -2  227.78   19.50
   1  -3   2  273.47   18.10
  -1  -4   2  635.54   46.00
   1  -4  -2  514.75   46.10
   1   4   2  683.63   43.50
   1   4   2  699.33   43.80
  -1   4  -2  565.54   42.70
  -1   4  -2  515.45   43.80
  -1  -4  -2  589.54   42.60
   1   4  -2  572.94   43.50
  -1   4   2  718.73   43.90
  -1  -4  -2  547.75   45.90
   1   4  -2  537.85   44.00
   1  -4   2  666.93   46.60
  -1   4   2  713.63   42.20
  -1   4   2  661.43   42.20
  -1   5  -2 2198.88  146.19
   1   5   2 2142.99  145.39
  -1  -5   2 1964.80  148.09
   1  -5  -2 2103.19  149.69
   1   5   2 1983.20  145.49
  -1   5  -2 2341.77  145.29
   1  -5   2 1983.30  148.59
  -1   5   2 2120.29  145.49
   1   5  -2 2324.27  146.09
  -1   5   2 2056.59  144.19
  -1  -5  -2 2191.28  149.19
   1   5  -2 2279.97  146.59
  -1  -5  -2 2249.97  144.69
   1   6   2 1627.64  107.29
  -1   6  -2 1548.84  106.49
   1  -6  -2 1449.15  111.89
  -1  -6   2 1576.34  110.59
   1   6   2 1670.83  106.69
  -1   6  -2 1476.65  107.29
   1   6  -2 1531.45  107.69
   1   6  -2 1440.56  106.89
  -1  -6  -2 1454.45  106.09
  -1   6   2 1651.23  105.49
  -1  -6  -2 1545.35  111.49
   1  -6   2 1637.14  111.49
  -1   6   2 1615.74  106.99
  -1   7  -2  138.99   15.80
   1  -7  -2  107.69   20.70
   1   7   2  108.59   14.60
  -1   7  -2  119.39   14.10
   1   7   2  140.39   14.70
  -1  -7   2  131.89   19.40
   1   7  -2  130.19   15.20
   1  -7   2  132.29   21.50
   1   7  -2  130.19   15.80
  -1   7   2  138.99   15.40
  -1  -7  -2  145.69   21.90
  -1  -8   2   39.70   14.80
  -1   8  -2   39.70   10.70
   1   8   2   32.20   10.90
  -1   8  -2   60.39   11.70
   1  -8  -2   51.69   19.10
  -1  -8  -2   54.19   18.20
   1   8  -2   52.89   12.40
  -1   8   2   36.50   10.40
   1  -8   2   56.89   18.10
   1   8  -2   52.59   11.80
  -1   9  -2  692.73   55.49
  -1  -9   2  810.42   61.79
   1   9   2  771.12   57.19
   1  -9  -2  684.23   62.09
  -1   9   2  720.33   55.89
   1  -9   2  841.52   64.69
  -1  -9  -2  693.83   61.59
   1   9  -2  688.43   56.19
   1  10   2    9.10   13.30
  -1 -10   2    8.20   16.20
  -1  10  -2   26.00   14.40
   1 -10  -2   31.70   18.50
   1  10  -2   18.50   14.20
   1 -10   2   22.60   18.70
  -1  10   2   22.50   13.90
  -1 -10  -2   27.00   18.80
  -1 -11   2   68.39   26.10
   2   0  -2 1659.53  123.49
  -2   0  -2 1748.82  123.39
  -2   0   2 2015.10  124.99
  -2   0  -2 1700.13  123.99
   2   0   2 1976.10  123.69
  -2   0   2 2140.59  123.49
  -2   0   2 2002.60  123.79
  -2   0  -2 1732.53  123.39
   2   0   2 1908.81  124.19
   2   0  -2 1602.64  124.29
  -2   0  -2 1832.42  123.69
   2  -1  -2 2164.88  144.09
  -2   1  -2 2050.19  144.39
   2   1   2 2209.68  143.89
   2   1   2 2244.88  144.09
  -2   1  -2 2114.59  145.09
   2   1   2 2090.79  144.49
   2  -1  -2 2068.99  144.19
  -2   1  -2 2089.19  143.29
   2  -1  -2 1956.70  144.59
  -2  -1   2 2187.08  144.09
  -2  -1   2 2238.68  143.19
  -2   1  -2 2158.08  144.29
  -2   1   2 2389.66  144.89
   2  -1   2 2236.88  144.29
  -2  -1  -2 2067.59  143.89
  -2  -1  -2 2010.00  144.29
  -2   1   2 2210.28  144.99
   2   1  -2 2098.39  143.29
   2   1  -2 2179.68  144.09
   2  -1   2 2321.37  143.39
  -2   1   2 2275.47  144.09
   2   1  -2 2053.39  144.99
  -2  -1  -2 2060.29  143.79
  -2  -2   2  573.64   39.60
   2  -2  -2  577.54   41.10
  -2  -2   2  578.64   38.90
  -2   2  -2  587.34   38.50
   2  -2  -2  571.54   38.80
  -2   2  -2  567.34   40.40
  -2  -2   2  534.55   39.40
   2   2   2  556.44   39.40
   2   2   2  540.65   39.80
  -2  -2  -2  594.04   39.80
   2   2  -2  542.45   40.30
   2   2  -2  582.94   39.30
  -2  -2  -2  603.54   39.30
   2  -2   2  582.94   40.50
  -2   2   2  564.04   41.40
  -2   2   2  602.34   39.50
   2  -2   2  559.14   38.40
  -2  -2  -2  585.54   39.70
   2  -2   2  543.05   40.20
  -2   2   2  513.05   39.10
   2   3   2 2966.50  197.28
   2   3   2 2921.01  197.68
  -2   3  -2 2921.11  196.28
   2  -3  -2 2642.74  199.28
  -2  -3   2 2836.22  197.58
  -2  -3   2 2898.51  197.48
  -2   3  -2 2785.02  197.98
   2  -3   2 3211.88  196.38
   2   3  -2 3005.60  197.78
   2   3  -2 2693.33  197.98
  -2   3   2 3107.79  196.78
  -2   3   2 3006.10  197.08
  -2   3   2 3163.28  196.78
  -2  -3  -2 3002.20  197.48
  -2  -3  -2 2856.31  198.18
   2  -3   2 2982.10  199.08
   2  -4  -2   36.40    9.90
  -2  -4   2   67.79    9.70
  -2   4  -2   43.10    6.00
  -2   4  -2   41.30    8.10
   2   4   2   85.69    8.70
  -2  -4  -2   39.10    8.50
  -2  -4  -2   49.70    6.90
   2  -4   2   75.69   11.30
   2   4  -2   45.30    8.00
  -2   4   2   77.49    7.90
   2  -5  -2 1345.17   93.39
  -2   5  -2 1370.46   87.99
   2   5   2 1254.87   89.09
  -2  -5   2 1136.79   90.59
  -2   5  -2 1351.06   89.69
   2   5   2 1270.07   88.89
  -2   5   2 1255.07   87.49
  -2  -5  -2 1348.07   91.89
   2   5  -2 1362.96   89.09
   2  -5   2 1200.88   91.79
   2   5  -2 1329.27   89.99
  -2   5   2 1306.77   87.39
  -2   5   2 1242.48   88.49
   2  -6  -2  303.27   31.20
   2   6   2  348.67   26.10
  -2   6  -2  282.37   24.20
   2   6   2  334.27   25.90
  -2  -6   2  386.06   30.30
  -2   6  -2  277.07   25.70
  -2   6   2  298.37   24.80
  -2  -6  -2  327.07   30.60
  -2   6   2  327.07   23.40
   2  -6   2  337.47   30.70
   2   6  -2  293.57   26.60
   2   6  -2  268.37   25.70
  -2   7  -2  131.49   15.60
   2  -7  -2  114.09   20.50
   2   7   2   86.99   14.80
  -2   7  -2  157.08   14.80
  -2  -7   2   85.19   17.60
   2  -7   2   60.29   17.60
   2   7  -2  137.69   16.30
  -2  -7  -2  162.58   22.20
   2   7  -2  134.09   15.10
  -2   8  -2  249.08   23.10
  -2  -8   2  231.18   28.60
  -2   8  -2  261.47   22.60
   2  -8  -2  238.98   30.90
   2   8   2  166.18   22.20
  -2  -8  -2  230.88   29.90
   2   8  -2  252.37   24.40
   2   8  -2  251.37   23.30
   2  -8   2  207.68   28.90
  -2   8   2  195.08   22.60
  -2   9  -2   95.89   15.70
   2   9   2  107.79   17.50
   2  -9  -2  103.49   22.60
  -2  -9   2  142.69   22.60
   2  -9   2  119.99   23.60
  -2   9   2   91.29   15.20
  -2  -9  -2  119.39   23.60
  -2 -10   2  115.49   21.60
  -2 -10   2  160.48   27.10
   2 -10  -2  220.08   32.10
   2  10   2  192.38   24.90
  -2  10   2  144.29   21.60
  -2 -10  -2  226.88   30.60
   2 -10   2  216.58   32.40
  -3   0  -2    2.20    2.30
  -3   0   2   -2.30    4.20
   3   0  -2    7.20    2.50
   3   0   2    0.00    3.50
   3   0   2   -0.60    2.30
   3   0  -2    1.40    3.70
  -3   0  -2   -1.70    2.10
  -3   0   2   -1.00    1.90
  -3   0   2    2.30    2.70
   3  -1  -2  631.44   40.80
  -3  -1   2  533.25   39.90
  -3   1  -2  641.04   39.20
  -3   1  -2  643.74   40.40
   3   1   2  555.54   40.80
   3  -1  -2  602.24   40.50
   3   1   2  516.65   39.30
  -3  -1  -2  614.04   39.90
   3   1  -2  603.04   41.50
  -3  -1  -2  595.34   40.00
  -3   1   2  597.44   41.40
   3  -1   2  572.34   39.30
   3  -1   2  528.45   40.50
  -3   1   2  503.75   39.60
  -3   1   2  539.85   40.90
  -3  -1  -2  575.24   39.40
   3  -1   2  552.94   39.90
  -3   2  -2  481.85   33.40
   3  -2  -2  455.25   33.50
  -3  -2   2  426.06   30.30
   3   2   2  411.76   32.90
   3   2   2  413.56   31.70
   3  -2  -2  444.46   31.60
  -3   2  -2  445.06   30.70
  -3  -2   2  420.36   32.00
  -3   2   2  463.65   32.60
   3   2  -2  482.45   33.70
  -3  -2  -2  483.25   31.30
   3  -2   2  435.16   32.70
   3  -2   2  430.26   30.70
  -3   2   2  405.26   31.50
   3   2  -2  478.05   30.60
  -3  -2  -2  479.15   31.70
   3  -3  -2  777.62   52.09
   3   3   2  742.03   52.89
  -3  -3   2  684.33   52.89
   3  -3  -2  806.72   55.49
  -3   3  -2  804.02   51.69
   3   3   2  694.63   53.59
  -3   3  -2  776.42   54.09
  -3  -3   2  707.63   52.19
   3  -3   2  765.92   51.59
  -3   3   2  793.12   52.99
  -3  -3  -2  807.42   53.49
   3   3  -2  831.92   52.39
   3   3  -2  777.22   54.39
  -3   3   2  686.93   52.19
   3  -3   2  711.03   54.19
   3  -4  -2  103.89   15.20
  -3  -4   2  106.69   12.80
  -3  -4   2  121.39   13.30
  -3   4  -2  139.09   14.10
  -3   4  -2  138.79   10.80
   3   4   2  118.59   13.50
   3   4   2  106.59   12.60
   3  -4   2  118.69   15.10
  -3   4   2  114.99   12.10
  -3   4   2  130.99   11.80
   3   4  -2  109.99   13.40
  -3  -4  -2  131.59   14.10
  -3   4   2  133.29   11.80
  -3   5  -2  152.58   13.30
   3  -5  -2  156.08   20.00
  -3  -5   2  146.99   16.40
   3   5   2  151.18   15.40
  -3   5  -2  149.09   15.20
  -3  -5   2  135.29   16.10
   3   5   2  145.89   16.20
   3   5  -2  154.58   16.90
  -3  -5  -2  148.39   17.70
   3  -5   2  143.99   19.40
  -3   5   2  140.09   13.70
  -3   5   2  133.99   13.00
  -3   5   2  168.78   14.70
   3   6   2  156.48   16.50
  -3   6  -2  111.49   15.60
   3   6   2  158.58   16.80
   3  -6  -2  113.69   19.40
  -3  -6   2  148.39   18.10
  -3   6  -2  118.19   13.90
  -3  -6   2  171.38   18.00
   3  -6   2  149.88   20.20
  -3   6   2  163.48   15.60
   3   6  -2  102.69   15.50
  -3  -6  -2  116.39   17.30
  -3   6   2  161.48   13.40
   3   7   2   31.00    9.70
  -3  -7   2   36.80   12.50
  -3  -7   2   22.00    9.90
   3  -7  -2   10.60   12.90
  -3   7  -2   29.40   10.10
  -3   7  -2   37.60    8.40
   3   7   2   21.20    9.80
   3   7  -2   34.90   10.00
  -3   7   2   26.10    8.20
  -3  -7  -2   25.60   13.00
   3  -7   2   25.90   13.80
   3  -8  -2   38.50   16.70
  -3  -8   2   80.09   16.30
  -3   8  -2   45.90   11.90
   3   8   2   40.60   12.60
  -3   8  -2   39.60   10.30
  -3  -8   2   53.79   14.20
   3  -8   2   66.69   18.10
   3   8  -2   32.80   12.30
  -3  -8  -2   50.99   17.20
  -3   8   2   55.19   11.70
  -3  -9   2  103.59   19.10
   3   9   2  120.09   19.90
  -3  -9   2  141.39   22.40
   3  -9  -2  125.39   23.80
  -3  -9  -2  119.19   23.20
  -3   9   2  109.99   17.30
   3  -9   2  127.99   24.70
   3  10   2  108.39   19.80
  -3 -10   2  114.69   19.40
   3 -10  -2   91.49   23.40
   3 -10   2  150.08   29.00
  -3  10   2  129.69   18.80
  -3 -10  -2   89.79   22.40
  -4   0  -2 4227.38  281.57
   4   0   2 4229.88  281.37
  -4   0   2 4274.87  281.77
  -4   0  -2 4235.28  281.47
   4   0   2 4238.88  282.97
   4   0  -2 3979.70  282.97
  -4   0   2 4300.47  281.47
   4   0  -2 4226.78  280.87
  -4  -1   2  924.71   63.59
   4   1   2  912.01   62.69
   4  -1  -2  888.01   63.59
  -4   1  -2  926.41   62.59
   4   1   2  893.51   64.89
   4   1  -2  955.40   65.39
  -4  -1  -2  925.01   63.49
  -4   1   2  968.80   64.79
   4  -1   2  969.10   62.99
   4  -1   2  901.31   64.29
   4  -1   2  946.51   63.39
  -4  -1  -2  927.11   62.69
  -4   1   2  885.91   63.29
   4  -2  -2  175.28   15.40
  -4   2  -2  191.08   14.10
  -4  -2   2  187.38   15.80
  -4   2  -2  193.98   17.60
   4   2   2  192.08   17.40
   4  -2  -2  203.28   17.10
  -4  -2  -2  187.48   16.20
  -4   2   2  172.78   14.80
   4   2  -2  175.48   17.40
   4  -2   2  177.28   16.20
  -4  -2  -2  190.58   14.30
   4  -2   2  199.18   14.30
  -4  -2  -2  191.68   14.80
   4  -3  -2   22.40    4.90
  -4  -3   2   32.80    7.00
   4   3   2   44.30    8.30
  -4   3  -2   44.70    8.40
  -4   3  -2   20.00    4.10
   4  -3  -2   25.50    8.20
   4  -3   2   42.90    8.10
   4   3  -2   16.20    7.20
  -4  -3  -2   20.40    5.50
  -4   3   2   41.10    6.40
   4   3  -2   26.20    3.60
  -4  -4   2  274.47   23.80
  -4  -4   2  261.57   22.20
  -4   4  -2  311.37   21.60
   4   4   2  274.37   25.20
   4   4   2  276.27   23.40
  -4   4  -2  320.97   25.00
   4  -4  -2  313.27   26.80
   4  -4   2  270.37   25.50
  -4   4   2  270.47   22.40
  -4  -4  -2  294.67   24.30
  -4   4   2  291.27   22.90
   4   4  -2  295.97   25.20
   4   4  -2  318.17   21.90
  -4   5  -2  125.79   15.00
   4  -5  -2  121.49   17.90
  -4  -5   2  107.69   13.90
  -4   5  -2  125.79   11.40
   4   5   2  125.99   15.50
  -4  -5   2  118.29   13.70
   4   5   2  102.69   13.30
  -4  -5  -2  118.09   15.10
   4   5  -2  111.69   15.60
   4  -5   2   95.09   16.00
  -4   5   2   94.69   12.10
  -4   5   2  139.39   13.10
   4   6   2  124.59   15.70
   4  -6  -2  122.69   19.60
  -4  -6   2  132.49   16.60
   4   6   2  137.19   17.10
  -4   6  -2  144.39   14.10
  -4  -6   2  127.59   16.20
  -4   6  -2  130.49   16.50
  -4  -6  -2  156.78   19.00
  -4   6   2  125.99   14.40
   4  -6   2  170.88   21.10
   4   6  -2  126.49   16.80
  -4   6   2  140.89   14.40
  -4  -7   2  196.58   23.50
  -4   7  -2  245.18   21.30
   4  -7  -2  237.98   28.50
  -4   7  -2  276.87   24.30
   4   7   2  236.28   24.50
  -4  -7   2  208.48   23.90
   4   7   2  209.28   23.70
  -4  -7  -2  261.17   27.50
  -4   7   2  217.58   22.00
   4   7  -2  265.37   25.50
   4  -7   2  250.17   28.90
  -4  -8   2   10.20   11.30
   4  -8  -2    8.50   14.00
  -4  -8   2   15.20   12.20
  -4   8  -2   11.20    8.40
   4   8   2    4.90   10.50
   4  -8   2   -1.90   15.80
   4   8  -2    6.40   11.50
  -4   8   2   15.30    9.70
  -4  -8  -2   10.50   13.80
   4   9   2    9.80   12.20
   4  -9  -2   18.20   16.40
  -4  -9   2   40.20   13.80
  -4  -9  -2   30.40   16.90
  -4   9   2   19.50   11.30
   4  -9   2    0.50   16.30
  -4 -10   2   13.10   15.60
  -4  10   2   16.60   12.50
  -5   0  -2    1.70    3.50
   5   0   2    2.60    3.10
  -5   0   2    0.10    3.10
   5   0  -2    4.80    2.30
   5   0   2   -1.60    5.50
  -5   0   2    3.60    4.70
   5   0  -2    4.70    6.10
   5   1   2   48.50    5.80
  -5  -1   2   34.40    6.50
   5   1   2   50.79    9.70
   5  -1   2   43.70    6.50
   5  -1   2   38.60    7.80
  -5   1   2   46.30    8.40
  -5   1   2   40.10    6.30
  -5   2  -2  841.02   57.49
   5  -2  -2  812.72   59.09
   5   2   2  821.22   60.99
  -5  -2   2  828.72   58.99
   5  -2  -2  849.32   59.19
  -5   2   2  819.22   58.29
   5   2  -2  821.12   60.79
  -5  -2  -2  835.62   58.89
  -5  -2  -2  875.41   57.49
   5  -2   2  887.31   59.09
   5  -3  -2 1065.69   78.49
   5   3   2 1275.17   81.99
  -5  -3   2 1265.37   79.69
  -5   3  -2 1109.29   77.49
   5  -3  -2 1057.79   79.89
  -5   3  -2 1073.39   80.79
  -5  -3  -2 1070.19   78.29
  -5  -3  -2 1053.19   79.19
   5   3  -2 1128.79   80.99
  -5   3   2 1230.18   78.49
   5  -3   2 1249.18   80.19
  -5  -4   2  546.05   39.10
  -5  -4   2  527.05   42.50
   5  -4  -2  626.34   43.90
  -5  -4   2  523.95   38.50
  -5   4  -2  616.74   39.70
  -5   4  -2  556.34   43.10
   5   4   2  532.55   43.80
   5  -4   2  503.75   42.80
   5   4  -2  620.04   44.10
  -5  -4  -2  613.44   42.00
  -5   4   2  550.54   41.70
  -5   4   2  512.85   40.30
  -5  -4  -2  646.74   43.00
   5   5   2  205.48   22.10
  -5   5  -2  244.48   21.80
  -5  -5   2  191.08   17.30
   5  -5  -2  236.98   23.90
  -5   5  -2  223.68   17.00
  -5  -5   2  180.58   20.00
  -5  -5  -2  199.68   20.60
  -5   5   2  169.38   17.30
  -5  -5  -2  224.58   20.80
   5  -5   2  159.68   21.40
  -5   5   2  187.78   18.40
   5   5  -2  191.48   21.00
  -5  -6   2    2.20   10.40
   5  -6  -2    1.10   10.20
  -5   6  -2   -3.90    5.50
  -5   6  -2    2.70    8.70
  -5  -6   2   -1.30    6.90
   5   6   2    2.60    9.50
   5   6  -2   -3.70    8.80
   5  -6   2    1.50   10.90
  -5   6   2    8.60    7.20
  -5   6   2   -0.10    7.30
  -5  -6  -2   -1.70    8.60
  -5  -6  -2    2.60    9.10
  -5   7  -2   54.79   13.00
  -5   7  -2   53.19    9.80
  -5  -7   2   40.90   12.70
   5   7   2   59.59   13.70
   5  -7  -2   38.20   14.90
  -5   7   2   42.50    9.90
   5  -7   2   54.19   16.10
   5   7  -2   40.90   13.80
  -5  -7  -2   64.29   13.60
  -5  -7  -2   51.99   14.80
   5  -8  -2  112.49   21.90
  -5  -8   2  127.89   18.90
   5   8  -2  131.09   19.20
  -5  -8  -2  162.98   35.10
  -5  -8  -2   93.99   18.10
  -5   8   2  124.69   16.10
   5  -8   2  157.58   23.80
  -5  -9   2  129.39   21.60
   5  -9  -2  117.49   23.60
  -5  -9  -2  108.09   20.00
  -5   9   2  125.89   17.70
   5  -9   2  137.99   25.10
  -6   0  -2  758.72   52.99
   6   0   2  710.53   55.49
   6   0  -2  861.01   56.29
   6   0   2  741.03   52.49
  -6   0   2  768.22   52.69
   6   0  -2  772.32   51.59
  -6   0   2  728.83   53.49
   6  -1  -2 1226.28   90.09
  -6   1  -2 1152.68   87.79
   6   1   2 1342.87   91.59
  -6  -1   2 1351.96   88.99
   6  -1  -2 1245.28   87.79
   6   1   2 1402.06   87.59
   6  -1   2 1366.96   88.29
  -6   1   2 1368.66   88.69
  -6  -1  -2 1219.68   88.49
   6  -1   2 1370.66   90.59
   6   1  -2 1160.88   90.69
  -6   2  -2  492.65   34.40
   6   2   2  474.35   38.50
   6  -2  -2  499.15   35.90
  -6  -2   2  449.86   36.00
   6  -2  -2  537.75   36.80
   6  -2   2  473.25   35.90
  -6  -2  -2  527.65   36.20
   6   2  -2  476.05   38.40
   6  -2   2  452.45   37.00
  -6   2   2  450.35   35.40
   6   3   2   26.50    9.70
  -6   3  -2   34.60   10.20
   6  -3  -2   33.40    8.30
  -6   3  -2   24.50    5.60
  -6  -3   2   14.70    7.30
   6  -3  -2   29.70    7.80
   6  -3   2    9.50    7.10
   6   3  -2   36.20   10.00
  -6  -3  -2   32.30    6.40
  -6  -3  -2   28.80    8.30
  -6   3   2    7.80    6.00
  -6   4  -2  141.09   12.90
  -6   4  -2  168.78   18.20
   6   4   2  136.89   18.60
   6  -4  -2  137.99   16.50
  -6  -4   2  118.49   15.50
  -6  -4  -2  156.28   17.00
   6  -4   2  116.09   15.90
  -6   4   2  124.49   13.70
  -6  -4  -2  159.98   15.50
   6   4  -2  141.49   18.60
  -6   5  -2  401.06   29.50
   6  -5  -2  410.46   34.20
  -6  -5   2  376.86   34.20
  -6   5  -2  433.46   35.00
   6   5   2  404.26   34.70
   6  -5   2  411.96   34.50
   6   5  -2  381.46   34.40
  -6   5   2  397.46   31.00
  -6   5   2  375.56   32.10
  -6  -5  -2  394.26   33.30
  -6  -5  -2  394.86   32.60
  -6   6  -2  265.87   21.50
  -6  -6   2  272.87   26.20
  -6   6  -2  232.38   24.70
   6   6   2  274.47   27.80
   6  -6  -2  245.28   26.90
  -6   6   2  245.18   22.00
  -6  -6  -2  237.88   25.70
  -6  -6  -2  287.07   26.00
  -6   6   2  262.87   24.00
   6   6  -2  237.68   27.40
   6  -6   2  237.78   27.00
  -6   7  -2   66.99   14.60
   6   7   2  104.79   17.60
   6  -7  -2   84.19   17.60
  -6  -7   2   98.89   17.60
  -6  -7  -2   70.99   16.60
   6   7  -2   61.09   15.10
  -6   7   2   78.19   12.50
   6  -7   2   92.49   18.00
   6  -8  -2  122.19   21.50
  -6  -8   2  111.29   19.70
  -6  -8  -2   91.99   18.30
  -6   8   2   79.69   14.40
   6   8  -2   99.59   19.10
   6  -8   2  104.89   22.00
   6  -9  -2   54.09   21.00
  -6  -9   2   43.80   17.90
  -6   9   2   41.80   12.70
   6  -9   2   51.09   22.00
   7   0   2    4.90    4.40
   7   0   2    0.90    8.40
  -7   0   2    5.80    6.20
   7   0  -2   24.70    9.50
   7   0  -2    1.90    2.70
  -7   0  -2    0.60    4.70
  -7   1  -2   29.90    6.60
   7   1   2   33.30    5.40
   7   1   2   39.80   11.20
  -7  -1   2   31.90    8.50
   7  -1  -2   28.30    5.70
   7  -1  -2   37.80    9.80
   7   1  -2   25.70   11.20
  -7  -1  -2   18.20    7.30
   7  -1   2   35.40    6.80
  -7   1   2   32.50    7.90
   7  -1   2   32.20    9.90
  -7   2  -2 1860.11  122.39
   7   2   2 1769.72  126.49
  -7  -2   2 1763.92  123.99
   7  -2  -2 1823.82  122.99
   7  -2  -2 1846.22  124.79
   7  -2   2 1904.11  125.49
  -7  -2  -2 1762.52  123.79
  -7  -2  -2 1800.12  122.09
   7  -2   2 1786.82  123.29
  -7   2   2 1725.63  122.99
   7   2  -2 1810.82  126.49
  -7   3  -2  106.79   11.10
   7  -3  -2   93.39   12.60
   7   3   2   99.79   17.10
  -7  -3   2   86.69   13.00
  -7   3  -2   97.29   16.00
   7  -3  -2  100.79   12.90
   7   3  -2   94.79   15.50
  -7   3   2   83.89   11.30
   7  -3   2   89.09   13.00
  -7  -3  -2   94.29   11.40
  -7  -3  -2   94.69   13.20
  -7  -4   2   70.09   12.40
   7  -4  -2   54.49   11.80
   7   4   2   59.69   13.90
  -7   4  -2   46.80   13.80
  -7   4  -2   59.99    8.40
   7   4  -2   53.39   13.30
  -7  -4  -2   53.49   11.80
   7  -4   2   58.39   11.60
  -7   4   2   68.39   10.50
   7   5   2  136.69   19.90
   7  -5  -2  169.48   19.30
  -7   5  -2  164.38   20.40
  -7  -5   2  137.99   18.30
  -7   5  -2  152.58   14.80
  -7   5   2  112.59   14.50
  -7  -5  -2  177.38   20.10
  -7   5   2  135.99   17.20
   7  -5   2  122.19   17.90
   7   5  -2  152.58   20.10
   7   6   2  435.16   38.70
  -7   6  -2  406.06   36.60
   7  -6  -2  480.15   38.50
  -7  -6   2  342.57   35.40
  -7   6   2  397.76   32.90
   7   6  -2  428.76   37.10
   7  -6   2  380.36   37.40
  -7  -6  -2  421.66   36.40
  -7   6   2  409.36   42.50
   7   7   2   89.79   18.10
   7  -7  -2   90.89   19.30
  -7  -7   2   81.59   17.10
  -7   7  -2   71.99   15.90
  -7   7   2   69.99   12.70
   7  -7   2   62.09   16.80
  -7  -7  -2   86.69   17.00
   7   7  -2   73.89   16.50
   7  -8  -2    7.20   14.70
  -7  -8   2   26.40   15.00
   7   8  -2   20.40   13.30
   7  -8   2    6.40   14.60
  -7  -8  -2   10.30   15.80
  -7   8   2   14.10   11.40
   8   0   2  114.79   12.40
  -8   0  -2  164.58   15.00
  -8   0   2  114.09   14.30
   8   0  -2  182.78   19.90
   8   0   2  103.69   17.20
   8  -1  -2  192.48   16.10
  -8  -1   2  180.98   18.30
   8   1   2  193.68   15.20
   8   1   2  171.48   21.70
  -8   1  -2  179.88   17.10
   8  -1  -2  153.78   20.00
   8  -1   2  173.98   21.20
  -8   1   2  190.38   18.80
  -8  -1  -2  177.68   18.10
   8  -1   2  179.08   16.60
   8   1  -2  159.68   21.30
  -8   2  -2   22.60    6.70
  -8  -2   2   17.10    9.50
   8  -2  -2   18.60   10.40
   8  -2  -2   16.70    6.70
   8   2   2   13.50   11.50
   8   2  -2   23.00   11.80
   8  -2   2   11.70    7.00
  -8   2   2   12.60    7.30
  -8  -2  -2   17.40    9.00
   8  -2   2   16.70   10.60
  -8  -3   2  261.27   25.40
  -8   3  -2  282.27   29.10
   8   3   2  266.77   28.80
   8  -3  -2  282.67   25.20
   8  -3  -2  278.17   24.40
  -8   3  -2  293.07   22.70
  -8  -3  -2  283.27   26.30
  -8   3   2  259.27   24.10
   8  -3   2  253.27   24.60
   8   3  -2  303.77   29.20
   8  -4  -2  138.99   16.70
  -8  -4   2  140.49   17.70
  -8   4  -2  120.59   19.10
   8   4   2  124.69   19.80
  -8   4  -2  138.59   14.00
  -8  -4  -2  125.29   16.90
  -8   4   2  105.59   14.80
   8   4  -2  121.19   19.60
   8  -4   2  128.39   16.90
  -8   5  -2  443.56   39.40
  -8  -5   2  416.26   37.00
   8  -5  -2  428.06   36.90
   8   5   2  449.46   40.50
  -8  -5  -2  436.96   38.40
  -8   5   2  429.56   37.00
   8  -5   2  388.86   36.70
   8   5  -2  416.46   39.80
  -8   5   2  435.86   34.10
   8   6   2   96.09   19.00
  -8  -6   2   61.39   15.90
   8  -6  -2   45.10   14.80
  -8   6  -2   35.90   13.90
  -8   6   2   90.39   13.00
  -8  -6  -2   48.90   16.10
   8   6  -2   49.50   15.70
   8  -6   2   86.49   17.00
  -8  -7   2  202.08   24.10
   8  -7  -2  148.89   22.60
   8   7   2  186.38   25.60
  -8   7  -2  148.79   22.10
  -8  -7  -2  141.59   22.30
   8   7  -2  146.79   23.70
  -8   7   2  168.68   18.80
   8  -7   2  169.98   24.30
   8  -8  -2   33.10   17.50
   8   8  -2   33.10   16.70
  -9   0  -2    3.50    7.70
   9   0  -2   -0.90   10.40
   9   0   2    1.10   11.50
  -9   0   2   -8.00    9.20
  -9  -1   2  270.87   24.40
   9   1   2  252.17   28.70
   9  -1  -2  304.17   29.20
  -9   1  -2  255.17   22.80
   9   1  -2  259.47   28.10
   9  -1   2  273.87   27.90
  -9  -1  -2  246.18   22.90
  -9   1   2  240.08   24.50
   9  -2  -2  182.78   21.00
  -9   2  -2  147.29   17.00
   9   2   2  160.68   22.70
  -9  -2   2  133.59   18.40
  -9   2   2  183.78   19.20
   9  -2   2  149.09   20.90
   9  -2   2  190.68   17.80
  -9  -2  -2  131.69   17.20
   9   2  -2  152.18   21.90
  -9   3  -2  427.36   32.20
  -9   3  -2  401.56   39.10
   9   3   2  423.96   39.10
   9  -3  -2  437.26   35.40
  -9  -3   2  421.86   35.20
  -9  -3  -2  406.26   35.40
  -9   3   2  408.86   33.80
   9   3  -2  418.26   39.70
   9  -3   2  382.06   33.40
   9   4   2  265.97   31.10
  -9  -4   2  271.37   27.90
  -9   4  -2  308.37   32.70
   9  -4  -2  279.57   25.80
  -9   4   2  257.87   25.70
  -9  -4  -2  269.27   28.80
   9  -4   2  273.37   26.70
   9   4  -2  293.37   30.90
  -9   5  -2  128.79   21.80
   9  -5  -2  124.69   17.60
  -9  -5   2  118.09   19.10
   9   5   2  143.09   23.00
   9  -5   2  117.09   18.50
   9   5  -2  123.09   22.10
  -9   5   2   91.79   15.00
  -9  -5  -2  150.18   19.70
  -9   5   2  120.29   19.20
  -9   6  -2  150.08   23.00
   9  -6  -2  151.98   20.80
   9   6   2  178.48   25.40
  -9  -6   2  113.79   20.60
  -9   6   2  109.39   16.40
   9   6  -2  146.69   22.90
   9  -6   2  145.39   21.10
  -9  -6  -2  136.09   22.00
   9   7   2   61.19   18.70
   9  -7  -2   49.00   16.60
   9  -7   2   31.30   16.80
   9   7  -2   43.00   16.60
 -10   0   2 1118.19   77.59
  10   0  -2 1087.49   80.59
  10   0   2 1084.79   81.19
 -10   0  -2 1005.10   76.19
 -10   1  -2   41.80   10.60
 -10  -1   2   62.59   13.20
  10   1   2   55.09   17.00
  10  -1  -2   46.50   15.20
  10   1  -2   28.10   14.70
 -10  -1  -2   54.49   12.10
  10  -1   2   50.49   16.30
 -10   1   2   58.69   12.70
 -10  -2   2    4.50   11.60
 -10   2  -2   22.90    9.20
  10   2   2    2.60   14.00
  10  -2  -2   22.20   14.10
 -10  -2  -2   17.70   10.90
 -10   2   2   -7.50    8.70
  10   2  -2    7.90   15.30
 -10  -3   2   84.69   16.00
  10  -3  -2   94.49   18.10
 -10   3  -2  106.09   23.00
  10   3   2  121.09   22.80
 -10   3   2  101.79   15.70
  10   3  -2  113.89   20.50
 -10  -3  -2   91.09   16.70
  10   4   2  334.67   35.30
 -10  -4   2  285.47   31.00
 -10   4  -2  288.97   36.10
  10   4  -2  329.17   34.80
 -10  -4  -2  284.87   32.10
 -10   4   2  321.27   35.10
 -10   4   2  334.97   29.50
 -10   5  -2    2.30   13.70
 -10  -5   2   13.30   13.70
  10   5   2   27.60   16.00
  10   5  -2   14.30   15.40
 -10   5   2    3.10   14.20
 -10  -5  -2  -15.20   14.10
  10  -5   2    2.70   12.00
 -10   5   2    1.30   10.10
 -10   6  -2   69.39   20.20
  10   6   2   68.39   19.30
  10  -6   2   61.59   16.90
 -11   0   2   10.10   10.90
  11   0  -2   -2.10   15.90
  11   0   2   11.20   16.00
 -11   0  -2    2.50   10.70
  11   1   2  133.79   25.30
 -11   1  -2  134.99   17.70
  11  -1  -2  141.29   22.50
 -11  -1   2  150.78   20.10
  11   1  -2  134.89   24.40
 -11  -1  -2  121.99   18.00
 -11   1   2  132.19   18.70
  11  -1   2  130.49   24.50
 -11  -2   2    8.00   13.20
 -11   2  -2   -9.00   16.80
  11   2   2   10.10   16.70
  11  -2  -2    4.40   14.90
  11   2  -2    5.10   15.10
 -11   2   2   10.70   11.50
 -11  -2  -2    4.60   10.40
  11   3   2  361.36   39.30
 -11  -3   2  316.37   35.10
  11  -3  -2  364.76   35.30
 -11   3  -2  410.66   43.30
 -11  -3  -2  337.07   34.10
 -11   3   2  336.47   32.80
  11   3  -2  371.46   40.00
  11   4   2  226.48   31.10
 -11   4  -2  247.88   32.60
 -11   4   2  227.48   30.00
 -11  -4  -2  226.88   26.50
 -11   4   2  231.98   26.20
 -12   0  -2  306.87   40.30
 -12   0   2  289.77   31.70
 -12  -1   2   24.90   17.10
 -12  -1  -2   41.50   14.80
 -12   1   2   17.00   13.80
 -12  -2  -2   11.50   14.00
 -12   2   2    8.30   13.00
 -12   3   2   23.40   14.10
   0   0   3    3.50    1.60
   0   0  -3   -0.10    2.10
   0  -1  -3    1.20    1.80
   0   1  -3    0.90    1.60
   0   1  -3    0.30    2.40
   0  -1   3    7.30    1.30
   0  -1  -3   -1.30    0.80
   0  -1  -3    0.60    1.30
   0   1   3    0.60    1.70
   0  -1   3   -0.90    0.50
   0   1   3    0.20    1.40
   0  -1   3    0.40    1.70
   0  -1  -3    5.50    2.50
   0   1  -3    1.70    1.20
   0  -2  -3    6.00    2.50
   0  -2  -3    1.70    3.40
   0  -2   3   -0.90    2.50
   0   2  -3   -0.20    2.30
   0   2  -3    1.10    3.00
   0  -2   3    0.60    1.50
   0  -2   3   -0.80    1.80
   0  -2   3    0.00    2.60
   0  -2  -3    2.60    0.80
   0   2   3    0.50    2.30
   0   2   3   -1.70    0.50
   0   3  -3   -0.60    2.60
   0   3  -3    1.80    3.60
   0  -3   3    0.00    4.60
   0   3   3    0.60    3.20
   0  -3  -3    1.50    4.90
   0  -3   3   -0.10    2.10
   0  -4  -3   -2.00    6.80
   0   4   3   -1.70    4.30
   0   4  -3   -2.90    5.00
   0  -4   3   -0.40    5.70
   0   4   3   -1.50    1.70
   0   4  -3   -0.20    3.50
   0  -4  -3    0.50    1.40
   0   5  -3    0.40    5.30
   0   5   3    3.90    5.30
   0   5   3    1.10    2.90
   0  -5   3    1.80    7.70
   0  -5  -3   -0.70    7.60
   0   5  -3    9.10    5.10
   0  -5  -3   -0.70    2.20
   0  -6   3    7.80   10.90
   0  -6  -3    1.50    2.90
   0  -6  -3    5.60    9.80
   0   6   3    2.00    3.90
   0   6  -3    9.30    6.50
   0   6   3   -0.10    6.00
   0   6  -3    5.80    7.40
   0  -7   3   -6.30   12.40
   0   7  -3   11.70    8.00
   0   7  -3   -2.60    7.60
   0  -7  -3   17.10   12.40
   0   7   3   -5.30    7.10
   0   8  -3    4.00    9.50
   0  -8  -3   -1.50   13.60
   0  -8   3    3.20   13.10
   0   8   3   -5.40    8.60
   0   8  -3    6.70    9.50
   0  -9   3    9.40   17.00
   0   9  -3    0.20   10.70
   0   9   3    3.00   12.20
   0  -9  -3   -6.80   14.60
   0 -10   3   -1.40   18.40
   0  10  -3    0.10   16.90
   0 -10  -3   14.60   17.30
   0  10   3   -9.50   13.30
   1   0   3    1.40    2.50
  -1   0   3   -0.20    1.60
  -1   0  -3    1.50    2.40
   1   0  -3   -0.50    2.20
   1   0   3    0.60    1.10
   1   0  -3   -0.10    1.40
  -1   0  -3    1.50    1.10
  -1   0   3    1.10    1.60
  -1   0   3   -1.00    1.80
   1   0  -3    0.40    1.60
  -1   0  -3    0.00    1.50
   1   0   3    3.80    2.20
   1  -1  -3  273.57   18.00
   1  -1  -3  272.27   17.90
  -1  -1   3  187.48   17.30
  -1   1  -3  271.07   18.90
   1  -1  -3  270.77   18.70
   1   1  -3  273.07   17.60
  -1  -1  -3  276.07   18.10
   1   1  -3  252.57   18.60
  -1  -1  -3  264.07   17.70
   1   1  -3  253.77   17.60
  -1  -1  -3  259.77   18.30
  -1   1   3  182.78   18.00
   1   2   3  973.30   63.49
   1   2   3  949.31   62.99
  -1  -2   3  996.40   63.49
  -1   2  -3  857.01   64.29
   1  -2  -3  834.32   62.39
  -1  -2   3 1045.60   65.29
  -1  -2   3  991.80   63.49
  -1   2  -3  856.71   62.49
   1  -2  -3  830.72   64.59
  -1  -2   3  977.80   63.19
  -1   2   3  971.50   62.59
  -1   2   3 1029.30   65.89
  -1  -2  -3  905.01   63.49
  -1  -2  -3  886.71   63.79
   1  -2   3 1005.20   64.19
   1   2  -3  858.91   64.19
   1  -2   3 1044.00   64.69
   1   2  -3  882.91   63.49
  -1  -2  -3  876.61   62.99
   1  -2   3 1028.70   62.49
  -1  -2  -3  830.32   63.99
  -1  -3   3   57.29    7.30
   1  -3  -3   25.30    7.50
   1   3   3   57.69    5.60
  -1  -3   3   64.79    6.10
  -1  -3   3   50.19    6.30
   1   3   3   58.89    6.40
   1   3  -3   30.70    6.50
   1   3  -3   33.00    7.30
   1  -3   3   49.20    7.80
  -1  -3  -3   25.70    6.80
  -1   3   3   57.29    6.40
   1  -3   3   57.69    4.80
  -1   4  -3  656.93   40.80
  -1   4  -3  654.03   42.90
   1  -4  -3  640.14   45.00
   1   4   3  505.45   41.10
  -1  -4   3  532.75   42.70
   1   4   3  564.04   40.60
  -1  -4  -3  622.74   44.30
   1  -4   3  552.44   40.10
   1  -4   3  512.65   43.50
   1   4  -3  609.64   42.40
  -1   4   3  519.35   41.30
  -1  -4  -3  646.64   40.20
   1   5   3   84.79    9.40
   1  -5  -3   87.79   14.30
  -1   5  -3   79.79   10.80
  -1   5  -3   92.29   10.00
  -1  -5   3   63.79   11.90
   1   5   3   60.49    9.40
   1  -5   3   62.29   13.00
  -1   5   3   76.99    6.70
   1   5  -3  112.39   11.90
  -1   5   3   82.09   10.20
  -1   5   3   82.69    6.90
  -1  -5  -3  103.59    8.10
  -1  -5  -3   89.89   13.50
   1   5  -3  102.39   10.70
   1   6   3  422.46   26.00
   1  -6  -3  297.87   32.90
  -1   6  -3  298.17   27.60
  -1  -6   3  355.86   31.70
   1   6   3  385.46   27.40
  -1   6  -3  322.77   26.30
  -1   6   3  351.26   26.80
   1   6  -3  298.27   26.60
  -1  -6  -3  292.87   30.60
   1  -6   3  338.67   31.80
   1   6  -3  286.97   27.60
  -1  -7   3    4.80   12.40
   1  -7  -3   -2.30   11.90
  -1   7  -3   -2.50    8.30
  -1   7  -3   -1.80    7.40
   1   7   3    4.30    7.80
   1   7  -3   -1.50    8.30
  -1   7   3    3.70    7.40
  -1  -7  -3   -2.40   10.60
   1  -7   3    4.50   13.60
   1   7  -3    6.20    8.10
   1   8   3  163.98   19.50
  -1  -8   3  218.08   26.30
  -1   8  -3  124.99   18.40
   1  -8  -3  169.58   27.00
  -1   8  -3  181.18   18.70
  -1   8   3  133.09   18.00
   1   8  -3  154.78   18.70
   1  -8   3  174.58   26.30
  -1  -8  -3  175.78   25.30
   1   8  -3  161.48   19.60
   1   9   3   90.99   16.30
  -1  -9   3   92.89   20.70
  -1   9  -3  111.49   17.00
   1  -9  -3  120.09   25.20
  -1   9   3   86.59   16.20
  -1  -9  -3   94.49   22.10
   1  -9   3  101.69   23.70
   1 -10  -3  193.38   30.00
  -1 -10   3  166.28   22.90
   1  10   3  156.68   23.80
  -1 -10   3  184.68   29.10
   1 -10   3  256.17   33.20
  -1 -10  -3  199.38   29.90
  -1  10   3  140.19   21.40
  -1 -11   3   18.80   29.50
   2   0   3 3844.72  274.97
  -2   0   3 3841.42  274.97
   2   0  -3 4486.05  274.67
   2   0  -3 4164.58  274.87
  -2   0  -3 4319.07  274.57
  -2   0   3 3952.20  275.97
   2   0   3 3729.43  274.47
  -2   0  -3 4165.28  276.27
  -2   0  -3 4446.26  275.17
   2   0  -3 4073.59  275.87
   2   0  -3 4222.38  275.07
  -2   0  -3 4226.78  275.47
  -2   1  -3 1905.21  133.59
  -2  -1   3 1977.90  134.59
   2  -1  -3 1875.01  135.19
   2  -1  -3 1963.20  134.89
  -2   1  -3 1947.71  133.69
   2   1   3 1886.81  134.79
   2   1   3 2044.80  134.39
  -2   1  -3 1968.80  135.89
  -2  -1   3 2048.20  133.89
  -2   1  -3 2087.39  134.89
   2   1  -3 2059.39  134.59
  -2   1   3 2077.39  134.69
  -2   1   3 2050.79  135.19
  -2  -1  -3 2024.20  134.59
  -2  -1  -3 2109.69  134.49
  -2  -1  -3 1870.31  134.69
   2  -1   3 2065.09  134.89
  -2   1   3 2146.49  135.39
   2   1  -3 2050.79  133.89
   2   1  -3 1987.10  135.59
  -2  -2   3  933.51   57.79
   2  -2  -3  785.52   57.69
   2  -2  -3  814.12   59.89
  -2   2  -3  841.32   57.09
   2   2   3  893.41   58.69
  -2  -2   3  916.21   58.49
  -2   2  -3  787.62   59.49
   2   2   3  905.31   58.39
  -2  -2  -3  810.52   58.29
  -2   2   3  899.61   58.59
  -2  -2  -3  744.53   58.59
   2   2  -3  771.32   59.29
   2  -2   3  931.41   57.19
   2   2  -3  801.92   57.99
  -2  -2  -3  837.42   58.89
   2  -2   3  935.41   59.29
  -2   2   3  887.71   58.49
   2  -3  -3  225.08   23.70
  -2  -3   3  337.47   21.60
   2   3   3  340.57   22.00
  -2   3  -3  236.28   20.00
  -2   3  -3  231.48   22.60
   2   3   3  341.27   21.80
  -2  -3   3  307.17   21.80
  -2  -3  -3  243.38   21.10
   2  -3   3  321.17   20.10
  -2   3   3  336.97   20.60
   2  -3   3  319.87   23.50
   2   3  -3  229.48   22.20
  -2  -3  -3  230.18   22.10
  -2   3   3  303.27   21.50
   2   4   3 2243.18  144.69
  -2   4  -3 2123.79  143.29
  -2   4  -3 2086.79  145.49
   2  -4  -3 1932.91  147.09
   2   4   3 2146.19  144.39
  -2  -4   3 2188.38  145.19
  -2  -4   3 2161.18  144.79
   2   4  -3 1990.00  145.29
  -2  -4  -3 1963.60  145.79
  -2   4   3 2128.69  144.19
   2  -4   3 2093.39  146.69
  -2  -4  -3 2201.38  143.99
  -2   4   3 2351.26  143.39
   2  -4   3 2170.38  142.99
  -2   4   3 2190.18  142.99
   2   5   3  698.13   49.90
  -2   5  -3  681.73   50.69
   2   5   3  735.73   49.99
  -2  -5   3  690.03   50.09
  -2   5  -3  711.23   48.60
   2  -5  -3  691.73   54.59
  -2  -5   3  649.93   51.39
   2  -5   3  706.73   53.49
  -2   5   3  707.13   49.60
  -2   5   3  684.23   47.50
  -2   5   3  766.02   48.10
  -2  -5  -3  699.53   48.80
   2   5  -3  634.94   50.59
  -2  -5  -3  688.83   52.79
   2   6   3  731.43   56.19
  -2   6  -3  907.21   55.69
  -2  -6   3  663.63   56.59
   2  -6  -3  897.81   63.09
  -2  -6   3  751.02   58.89
   2   6   3  813.32   56.19
  -2   6  -3  850.71   57.79
   2  -6   3  704.63   60.19
   2   6  -3  809.52   57.49
  -2   6   3  748.43   55.89
  -2   6   3  751.92   53.49
  -2  -6  -3  835.52   60.79
  -2  -7   3  262.17   25.70
   2  -7  -3  331.37   33.60
  -2   7  -3  326.77   25.10
  -2   7  -3  329.87   26.90
   2   7   3  247.28   26.20
  -2  -7   3  291.67   29.90
   2   7  -3  295.47   27.40
  -2  -7  -3  307.77   31.80
   2  -7   3  287.07   33.40
  -2   7   3  264.67   25.50
  -2   8  -3   97.59   13.60
  -2   8  -3   83.19   14.50
   2  -8  -3  105.19   22.70
  -2  -8   3   76.79   14.20
   2   8   3   76.59   15.50
  -2  -8   3   92.69   18.40
  -2  -8  -3  105.69   20.30
  -2   8   3   79.89   14.00
   2  -8   3   87.69   20.10
   2   8  -3   92.49   15.90
  -2  -9   3   48.20   17.80
   2   9   3   19.20   12.50
   2  -9  -3   36.60   18.00
  -2  -9   3   30.50   13.70
  -2  -9  -3   56.69   19.80
   2  -9   3   53.09   19.60
  -2   9   3   34.10   12.80
  -2 -10   3  128.19   23.20
  -2 -10   3  105.99   19.00
   2 -10  -3   95.49   23.50
   2  10   3   92.19   20.00
  -2  10   3   87.49   17.70
  -2 -10  -3   69.09   22.80
   2 -10   3  111.69   27.10
   3   0  -3   -0.20    2.30
   3   0   3    0.40    2.40
  -3   0  -3   -0.20    2.20
  -3   0   3   -1.90    2.80
  -3   0  -3    5.40    2.80
   3   0   3   -1.50    3.40
  -3   0  -3    0.40    2.10
   3   0  -3   -2.50    3.60
   3   0  -3    2.70    1.80
  -3  -1   3 3449.55  219.68
   3  -1  -3 2981.40  219.88
   3  -1  -3 2980.60  219.98
   3   1   3 3228.48  220.38
  -3   1  -3 3124.79  218.58
   3   1   3 3185.88  219.18
  -3   1  -3 3267.27  221.28
   3   1  -3 2984.10  218.18
   3  -1   3 3682.03  218.98
  -3   1   3 3702.43  220.48
  -3  -1  -3 3125.99  219.38
   3   1  -3 3045.90  218.38
   3   1  -3 3098.29  220.88
  -3   1   3 3738.93  221.48
  -3  -1  -3 3240.88  219.28
   3  -1   3 3511.75  219.78
  -3   1   3 3482.15  219.68
   3  -2  -3 3173.48  205.58
   3   2   3 2963.40  205.68
   3  -2  -3 2971.50  207.08
  -3  -2   3 2902.31  205.78
  -3   2  -3 3161.78  207.48
  -3   2  -3 3323.47  204.58
   3   2   3 2868.91  206.38
  -3  -2   3 3035.70  204.28
   3   2  -3 3051.09  204.78
  -3  -2  -3 3179.68  205.98
  -3   2   3 3315.57  206.88
   3   2  -3 3043.80  207.18
   3  -2   3 2970.10  206.28
   3  -2   3 3179.08  204.58
  -3   2   3 2874.31  205.58
  -3  -3   3 2995.70  205.88
   3  -3  -3 3132.29  206.08
   3   3   3 2895.41  207.58
  -3  -3   3 2986.70  207.18
   3   3   3 2965.80  206.88
   3  -3  -3 3090.69  209.38
  -3   3  -3 3228.68  205.58
  -3   3  -3 3299.67  208.68
  -3  -3  -3 3047.40  207.48
   3   3  -3 3017.30  208.38
  -3   3   3 3303.77  207.48
   3  -3   3 3100.99  205.58
   3  -3   3 2929.31  208.08
  -3   3   3 2932.61  206.68
   3   3  -3 3272.77  206.68
  -3   4  -3  895.31   58.49
   3  -4  -3  859.61   60.79
   3   4   3  798.62   56.99
   3   4   3  791.12   57.69
  -3   4  -3  901.21   55.39
  -3  -4   3  789.72   56.59
  -3  -4   3  784.62   57.19
  -3   4   3  777.32   55.79
  -3   4   3  836.82   56.59
  -3  -4  -3  822.32   58.09
   3  -4   3  765.82   58.89
   3  -4   3  790.12   55.09
   3   4  -3  803.12   58.39
  -3   4   3  733.43   56.29
  -3  -5   3  708.93   51.89
  -3  -5   3  720.23   51.89
   3   5   3  752.72   52.19
   3  -5  -3  664.73   54.99
  -3   5  -3  720.93   49.60
   3   5   3  702.43   51.29
  -3   5  -3  648.34   51.99
  -3  -5  -3  671.13   52.89
  -3   5   3  716.93   50.59
  -3   5   3  740.73   49.50
   3   5  -3  655.73   52.69
  -3   5   3  822.72   50.49
   3  -5   3  688.73   54.29
  -3   6  -3  392.46   33.00
  -3   6  -3  385.46   29.80
   3   6   3  402.76   32.00
   3  -6  -3  410.76   38.70
   3   6   3  433.96   32.60
  -3  -6   3  393.66   33.00
  -3  -6   3  394.26   33.20
   3   6  -3  352.86   32.60
  -3  -6  -3  392.36   35.20
  -3   6   3  409.46   31.00
  -3   6   3  422.16   29.10
   3  -6   3  409.16   36.50
   3   7   3  418.26   33.20
  -3  -7   3  408.06   33.40
   3  -7  -3  378.26   38.80
  -3   7  -3  385.76   33.40
  -3  -7   3  425.46   35.20
  -3   7  -3  391.96   30.90
   3   7  -3  363.06   34.00
   3  -7   3  432.96   40.10
  -3   7   3  390.96   31.50
  -3  -7  -3  374.46   36.80
  -3   8  -3  579.34   43.50
  -3   8  -3  567.24   45.60
   3   8   3  576.54   45.50
  -3  -8   3  628.94   48.20
   3  -8  -3  608.14   52.09
  -3  -8   3  523.75   45.10
  -3  -8  -3  617.74   49.80
  -3   8   3  531.15   44.00
   3  -8   3  573.64   51.09
   3   8  -3  524.45   45.40
   3  -9  -3  305.07   36.10
  -3  -9   3  245.98   29.10
   3   9   3  298.77   31.70
  -3  -9   3  321.17   34.00
   3  -9   3  273.27   34.90
  -3  -9  -3  297.17   36.10
  -3   9   3  266.87   27.70
   3   9  -3  270.17   32.10
   3 -10  -3   89.99   26.00
  -3 -10   3   71.89   18.00
   3  10   3   60.09   17.20
  -3 -10  -3   95.79   22.90
  -3  10   3   68.89   16.40
   3 -10   3   64.59   22.20
  -4   0  -3  984.80   58.99
  -4   0   3  754.42   59.29
  -4   0   3  776.92   58.29
   4   0   3  761.92   58.99
   4   0  -3  944.51   61.19
   4   0  -3  968.20   58.99
  -4   0  -3  991.40   59.19
   4   0   3  742.73   60.29
   4  -1  -3  609.04   37.50
   4   1   3  468.75   37.70
   4   1   3  475.25   35.90
  -4  -1   3  444.96   36.30
   4  -1  -3  628.84   38.10
  -4   1   3  467.15   36.30
   4  -1   3  514.55   35.80
   4  -1   3  451.95   36.30
  -4   1   3  484.75   37.10
  -4  -1  -3  607.64   36.70
   4   1  -3  571.44   38.80
   4   2   3   91.79   10.40
   4  -2  -3   47.70    7.20
   4  -2  -3   50.59    8.80
  -4  -2   3   68.19    7.90
  -4   2  -3   51.49    5.60
  -4   2  -3   44.20    9.10
   4  -2   3   82.59    9.00
   4   2  -3   35.50    8.60
  -4  -2  -3   51.99    7.50
  -4  -3   3  890.41   53.19
  -4   3  -3  682.13   56.79
   4  -3  -3  696.23   54.39
   4  -3  -3  702.03   57.09
  -4   3  -3  742.33   53.59
   4   3   3  881.01   57.39
   4   3   3  860.01   55.49
  -4  -3   3  817.02   55.69
  -4   3   3  863.11   55.19
  -4  -3  -3  720.33   55.19
   4  -3   3  888.41   53.79
   4  -3   3  877.41   57.09
   4   3  -3  718.43   53.39
   4   3  -3  699.43   56.89
   4  -4  -3 1840.32  128.29
   4   4   3 1853.41  126.89
  -4  -4   3 1818.82  125.69
   4   4   3 1841.52  125.29
  -4   4  -3 1926.11  123.59
  -4  -4   3 1848.02  123.79
  -4   4  -3 1700.53  126.49
  -4  -4  -3 1777.32  125.89
  -4   4   3 1983.80  124.99
   4  -4   3 1782.32  127.19
   4   4  -3 1800.92  127.19
   4   4  -3 1860.11  124.09
  -4   4   3 1812.92  124.79
   4  -5  -3  839.52   67.09
  -4  -5   3  945.31   62.89
  -4   5  -3  893.51   61.49
   4   5   3  949.80   65.19
  -4   5  -3  863.41   64.89
   4   5   3  903.41   63.69
  -4  -5   3  897.31   64.09
  -4  -5  -3  832.82   64.69
  -4   5   3  966.70   62.49
   4  -5   3  856.41   65.99
  -4   5   3  915.91   62.89
   4   5  -3  808.82   65.09
  -4  -6   3  343.37   26.30
  -4  -6   3  302.57   27.50
  -4   6  -3  303.07   23.30
  -4   6  -3  267.77   27.10
   4   6   3  318.47   27.70
   4   6   3  315.47   27.30
   4  -6  -3  291.17   31.00
   4  -6   3  258.27   29.20
  -4   6   3  301.07   23.30
  -4   6   3  277.97   24.90
  -4  -6  -3  292.67   28.30
   4   6  -3  267.47   28.00
  -4   7  -3  814.52   51.89
  -4  -7   3  723.73   54.39
   4  -7  -3  789.22   59.79
  -4  -7   3  615.14   53.69
   4   7   3  661.03   53.69
  -4   7  -3  701.13   54.69
   4   7   3  724.03   54.79
  -4   7   3  670.63   52.19
   4  -7   3  682.63   57.79
   4   7  -3  749.13   56.29
  -4  -7  -3  761.12   57.39
  -4   8  -3  432.66   36.90
   4   8   3  377.16   36.20
  -4  -8   3  449.66   38.30
   4  -8  -3  456.65   44.50
   4  -8   3  438.06   42.00
  -4  -8  -3  483.75   41.70
  -4   8   3  369.96   34.00
   4   8  -3  450.45   38.80
   4   9   3   43.00   14.60
  -4  -9   3   48.80   16.30
   4  -9  -3   38.80   19.40
   4  -9   3   73.09   20.60
   4   9  -3   29.80   14.60
  -4  -9  -3   54.19   18.50
  -4   9   3   47.30   13.50
  -4 -10   3   61.29   18.60
  -4  10   3   71.09   15.10
  -5   0   3    4.90    4.60
   5   0  -3   -0.50    2.40
   5   0   3   -1.70    3.50
  -5   0  -3   -0.60    3.40
   5   0   3   -3.80    5.50
  -5   0   3    0.30    2.40
   5   0  -3   -4.40    6.20
  -5  -1   3  741.63   54.09
  -5   1  -3  765.62   52.99
   5  -1  -3  742.23   53.79
   5   1   3  813.02   56.49
   5   1   3  808.02   53.39
  -5  -1  -3  777.72   53.89
   5  -1   3  770.82   53.89
   5   1  -3  731.23   56.09
  -5   1   3  795.82   54.19
  -5   1   3  809.42   54.99
   5  -1   3  770.02   55.59
   5  -2  -3 1591.04  116.29
   5   2   3 1759.82  117.79
  -5   2  -3 1648.14  114.19
   5   2   3 1690.23  114.69
  -5   2  -3 1706.03  118.39
   5  -2  -3 1659.83  115.99
  -5  -2   3 1803.62  116.09
   5  -2   3 1872.71  116.29
  -5  -2  -3 1628.54  115.69
   5   2  -3 1657.53  117.79
  -5   2   3 1681.73  115.39
  -5  -3   3  278.47   24.70
   5   3   3  312.37   26.70
   5  -3  -3  299.77   23.80
  -5   3  -3  337.17   22.40
   5  -3  -3  318.57   26.70
  -5   3  -3  320.07   27.30
  -5  -3  -3  316.87   23.90
   5   3  -3  314.97   27.10
   5  -3   3  278.87   25.10
  -5   3   3  289.37   23.80
  -5  -3  -3  315.27   25.40
   5  -4  -3  155.98   18.70
   5   4   3  124.19   16.70
  -5   4  -3  154.28   17.70
  -5  -4   3  128.29   10.40
  -5  -4   3  120.09   10.10
  -5  -4   3  113.39   14.60
  -5   4  -3  170.98   12.10
  -5  -4  -3  156.98   16.00
   5  -4   3  119.29   15.90
  -5   4   3  113.19   13.10
   5   4  -3  168.58   17.70
  -5  -4  -3  158.88   15.70
  -5   5  -3  601.84   41.80
  -5   5  -3  581.74   36.60
  -5  -5   3  461.75   40.00
  -5  -5   3  461.85   36.10
   5   5   3  472.45   40.90
   5  -5  -3  592.54   42.90
  -5  -5  -3  582.14   40.30
  -5   5   3  457.65   37.70
   5  -5   3  432.26   41.40
  -5   5   3  442.56   37.70
   5   5  -3  563.84   41.50
  -5   6  -3  633.14   46.20
   5  -6  -3  587.84   51.99
  -5  -6   3  692.73   49.99
   5   6   3  701.53   49.10
   5   6   3  738.23   51.99
  -5   6  -3  582.84   49.99
  -5  -6  -3  589.64   49.99
   5  -6   3  720.83   53.49
  -5   6   3  685.33   47.70
   5   6  -3  596.24   50.39
   5   7   3  161.88   20.60
  -5  -7   3  143.09   19.00
   5  -7  -3  146.99   22.40
   5   7   3  131.59   17.30
  -5   7  -3  125.49   18.60
  -5   7   3  124.39   15.50
   5  -7   3  162.88   23.50
   5   7  -3  144.29   19.80
  -5  -7  -3  138.19   20.10
  -5   8  -3  156.68   22.00
  -5  -8   3  199.08   23.40
   5  -8  -3  197.68   28.30
   5   8  -3  175.78   24.10
  -5  -8  -3  207.58   26.40
   5  -8   3  215.08   27.90
  -5   8   3  194.38   20.40
   5  -9  -3   96.99   24.30
  -5  -9   3  124.69   21.10
  -5   9   3  120.09   16.80
   5   9  -3  103.79   20.50
   5  -9   3  148.59   26.80
  -5  10   3   70.29   15.80
   6   0   3  532.15   40.20
  -6   0  -3  524.55   37.10
   6   0  -3  526.55   35.50
  -6   0   3  503.85   35.80
   6   0   3  526.35   37.00
  -6   0   3  533.75   38.10
   6   0  -3  494.95   40.00
   6  -1  -3  490.65   36.10
  -6  -1   3  426.16   34.50
   6   1   3  439.16   33.10
   6  -1  -3  484.55   33.50
   6   1   3  469.15   37.00
  -6   1  -3  511.25   33.20
  -6   1   3  448.66   34.20
   6  -1   3  444.16   33.80
   6   1  -3  454.35   36.90
  -6  -1  -3  499.55   34.10
   6  -1   3  439.16   36.10
  -6   2  -3  128.99   10.70
   6  -2  -3  123.09   13.00
   6  -2  -3  130.39   14.20
   6   2   3   95.59   10.60
  -6   2  -3  137.99   17.20
   6   2   3  103.39   15.10
  -6  -2  -3  110.59   12.60
   6  -2   3  101.99   12.30
   6   2  -3  106.99   14.90
  -6   2   3  106.29   12.40
   6  -3  -3  291.47   24.40
  -6   3  -3  287.37   21.20
  -6   3  -3  336.17   27.40
  -6  -3   3  249.28   23.80
   6   3   3  260.77   26.20
   6  -3  -3  301.97   23.60
   6  -3   3  247.98   23.80
  -6  -3  -3  296.37   22.60
  -6   3   3  245.58   22.50
  -6  -3  -3  309.77   24.20
   6   3  -3  283.37   26.40
  -6   4  -3 1013.80   71.69
   6  -4  -3 1016.90   75.29
   6   4   3 1129.89   77.39
  -6  -4   3 1144.49   75.09
   6  -4  -3 1026.10   73.09
  -6   4  -3  969.50   76.39
   6   4  -3  999.60   76.19
  -6  -4  -3 1032.10   74.89
  -6   4   3 1081.19   73.19
  -6  -4  -3 1019.40   73.69
   6  -4   3 1112.29   75.69
  -6   5  -3   86.69    9.40
   6   5   3   59.99   14.50
  -6  -5   3   71.49   13.40
  -6   5  -3   87.29   15.50
   6  -5  -3   95.49   14.80
  -6   5   3   65.29   11.50
  -6   5   3   66.99   11.30
   6   5  -3   83.79   14.90
  -6  -5  -3   81.99   13.70
  -6  -5  -3   99.69   13.70
   6  -5   3   70.39   15.00
   6   6   3   40.00   13.70
  -6   6  -3   31.20   12.50
   6  -6  -3   47.60   14.90
  -6  -6   3   58.49   14.30
  -6   6   3   51.29    9.70
  -6  -6  -3   41.80   11.90
   6   6  -3   34.70   12.60
   6  -6   3   55.09   14.60
  -6  -6  -3   36.80   12.30
  -6   7  -3  181.58   22.40
   6  -7  -3  241.98   27.40
   6   7   3  173.88   22.90
  -6  -7   3  132.19   21.80
   6  -7   3  159.68   24.40
  -6  -7  -3  219.88   24.20
   6   7  -3  184.78   23.80
  -6   7   3  158.98   18.80
   6  -8  -3  183.38   25.50
  -6  -8   3  137.49   21.50
  -6   8   3  143.89   18.10
   6  -8   3  164.98   26.00
  -6  -8  -3  158.48   22.10
   6   8  -3  190.58   23.70
   6  -9  -3   72.39   32.30
  -6  -9   3   86.39   20.00
  -6   9   3   96.59   16.30
   6   9  -3   67.09   21.80
  -7   0   3   -2.00    6.30
   7   0  -3    2.10    2.30
  -7   0  -3   -5.00    5.00
   7   0  -3    3.20    8.20
   7   0   3    2.60    8.80
   7   0   3    0.40    4.60
   7  -1  -3  459.55   37.60
   7  -1  -3  481.05   33.60
   7   1   3  467.45   33.70
  -7  -1   3  484.55   35.60
   7   1   3  489.05   39.70
  -7   1  -3  460.65   34.10
  -7  -1  -3  442.36   34.60
   7  -1   3  451.75   37.60
   7  -1   3  497.15   34.80
  -7   1   3  472.65   35.70
   7   1  -3  446.16   38.30
   7   2   3  465.45   40.50
  -7  -2   3  452.75   36.50
  -7   2  -3  500.15   41.10
  -7   2  -3  486.45   34.40
   7  -2  -3  500.85   37.80
   7  -2  -3  516.95   35.80
   7   2   3  469.15   34.30
  -7   2   3  468.55   35.80
   7  -2   3  467.95   35.70
  -7  -2  -3  449.26   36.30
   7   2  -3  489.45   39.60
  -7   3  -3  400.46   28.00
  -7   3  -3  398.36   34.30
   7  -3  -3  384.86   30.50
   7  -3  -3  375.26   30.50
  -7  -3   3  355.16   30.70
   7   3   3  349.67   33.30
   7   3  -3  402.56   34.50
  -7  -3  -3  402.16   31.50
  -7  -3  -3  385.26   28.80
  -7   3   3  351.56   29.80
   7  -3   3  321.27   29.90
  -7  -4   3  168.58   19.40
  -7   4  -3  156.38   14.60
   7   4   3  179.08   22.50
   7  -4  -3  152.98   19.10
  -7   4  -3  165.38   20.90
   7  -4  -3  163.78   17.50
  -7  -4  -3  162.38   16.80
   7  -4   3  179.78   20.60
  -7  -4  -3  159.28   19.00
   7   4  -3  152.88   21.00
  -7   4   3  199.58   18.20
  -7  -5   3  320.47   29.20
  -7   5  -3  288.07   29.90
   7   5   3  336.57   32.30
   7  -5  -3  332.07   30.00
   7   5  -3  309.57   31.60
  -7   5   3  313.27   26.70
  -7   5   3  294.77   28.20
   7  -5   3  302.67   29.00
  -7  -5  -3  312.17   29.00
   7  -6  -3   93.79   17.30
  -7  -6   3  106.59   16.50
  -7   6  -3   93.39   17.20
   7   6   3  101.89   19.10
  -7   6   3  108.19   14.00
  -7  -6  -3   71.89   15.60
   7   6  -3   55.79   15.70
   7  -6   3   92.09   17.00
   7   7   3   32.70   14.80
  -7  -7   3   39.70   14.10
   7  -7  -3   17.70   14.80
  -7   7  -3    7.70   13.00
  -7   7   3   40.70   11.50
   7   7  -3   13.10   14.40
  -7  -7  -3   13.70   13.10
   7  -7   3   34.40   14.90
  -7  -8   3   26.70   14.90
   7  -8  -3   23.60   17.00
   7  -8   3   31.60   17.90
   7   8  -3   39.80   14.70
  -7   8   3   23.30   11.50
  -7  -8  -3   13.80   14.40
  -8   0  -3  780.62   51.29
   8   0  -3  772.12   55.39
   8   0   3  687.03   54.99
  -8   0   3  670.63   52.39
   8   0   3  673.73   50.39
   8   1   3  999.70   76.99
  -8   1  -3 1108.79   72.59
   8  -1  -3 1108.09   75.99
  -8  -1   3  958.70   73.59
   8   1   3 1036.80   71.69
   8  -1   3 1039.50   76.39
   8   1  -3 1079.79   77.09
   8  -1   3 1004.70   72.49
  -8  -1  -3 1095.89   73.39
  -8   1   3  993.60   73.39
  -8   2  -3  204.08   26.20
  -8  -2   3  221.78   21.20
  -8   2  -3  219.38   18.70
   8   2   3  207.58   25.00
   8  -2  -3  214.68   18.90
   8  -2  -3  200.48   21.70
  -8  -2  -3  202.98   20.20
  -8   2   3  231.58   20.40
   8   2  -3  200.58   24.60
   8  -2   3  238.98   20.50
   8   3   3   40.00   13.80
   8  -3  -3   21.60   10.10
  -8   3  -3   24.40   14.30
  -8   3  -3   22.60    7.20
  -8  -3   3   40.50   11.70
   8  -3  -3   27.70    8.70
   8   3  -3   14.80   13.20
  -8   3   3   36.20    9.20
  -8  -3  -3   19.50    9.40
   8  -3   3   52.89   11.10
   8  -4  -3  242.38   22.90
  -8  -4   3  221.48   23.90
  -8   4  -3  200.58   25.80
   8   4   3  249.58   28.90
   8  -4  -3  209.98   22.40
  -8   4   3  227.18   21.30
   8  -4   3  249.48   24.30
   8   4  -3  202.58   25.80
  -8  -4  -3  211.98   23.50
  -8   5  -3  238.08   28.60
   8  -5  -3  272.27   27.30
   8   5   3  316.37   30.80
  -8  -5   3  284.77   28.00
  -8   5   3  251.27   23.80
  -8  -5  -3  278.17   29.00
   8  -5   3  290.37   27.60
  -8   5   3  283.67   27.30
   8   5  -3  229.28   28.60
   8   6   3  346.27   33.30
  -8  -6   3  306.37   31.20
  -8   6  -3  275.37   30.80
   8  -6  -3  298.07   31.50
   8   6  -3  280.47   31.70
   8  -6   3  343.67   32.70
  -8  -6  -3  279.77   30.60
  -8   6   3  315.67   27.80
   8  -7  -3  119.79   21.00
  -8  -7   3  143.69   22.10
  -8   7  -3  135.79   21.70
   8   7   3  180.48   28.70
  -8  -7  -3  121.59   22.20
   8   7  -3  118.69   22.40
   8  -7   3  174.48   23.40
  -8   7   3  158.88   18.50
   8  -8  -3   41.70   16.40
  -8   8   3   -6.70   12.20
   8   8  -3   35.90   17.40
   9   0  -3   13.20   11.80
  -9   0  -3   -5.20    7.10
  -9   0   3   -3.10    9.30
   9   0   3   -4.80   11.40
   9  -1  -3  134.59   18.80
   9   1   3  127.19   20.40
  -9   1  -3  123.69   14.10
  -9  -1   3  152.18   17.90
  -9   1   3  121.99   15.60
   9   1  -3  129.79   21.00
   9  -1   3  123.89   14.90
  -9  -1  -3  141.59   15.40
   9  -1   3  124.69   20.10
   9   2   3  259.67   32.70
   9  -2  -3  279.77   29.00
  -9   2  -3  299.07   24.00
  -9  -2   3  255.97   26.20
  -9   2  -3  309.77   35.20
  -9  -2  -3  304.67   26.50
   9  -2   3  293.77   24.90
  -9   2   3  246.78   25.00
   9   2  -3  309.87   30.60
  -9  -3   3  230.68   26.90
  -9   3  -3  251.57   30.50
   9  -3  -3  254.57   26.60
   9   3   3  288.87   32.40
  -9   3   3  269.27   24.10
   9  -3   3  249.78   24.80
  -9  -3  -3  251.97   24.80
   9   3  -3  255.77   29.10
   9  -4  -3  267.47   25.40
   9   4   3  254.27   29.40
  -9   4  -3  215.18   28.60
  -9  -4   3  195.38   24.00
   9  -4   3  198.08   24.20
  -9   4   3  189.78   22.10
   9   4  -3  256.57   28.50
  -9  -4  -3  255.87   25.10
   9  -5  -3    8.40   10.60
  -9   5  -3    9.70   13.50
  -9  -5   3   -0.90   14.00
   9   5   3    8.40   15.80
   9   5  -3   -1.80   13.20
  -9  -5  -3    6.10   11.90
  -9   5   3   23.90   13.20
  -9   5   3    2.30    8.70
   9  -5   3   -1.30   12.00
  -9   6  -3   45.60   15.80
   9   6   3   41.90   18.30
   9  -6  -3   33.20   14.00
  -9  -6   3   48.90   16.30
  -9   6   3   33.90   12.10
   9  -6   3   30.00   15.30
  -9  -6  -3   25.60   14.80
   9   6  -3   57.99   17.10
  -9   7  -3   39.40   17.30
   9  -7  -3   54.39   16.80
   9  -7   3   31.10   17.00
  -9   7   3   24.60   12.10
   9   7  -3   54.29   19.50
  10   0   3   80.89   18.20
 -10   0  -3   80.09   13.00
  10   0  -3   71.79   17.40
 -10   0   3   75.69   14.10
  10  -1  -3   60.79   16.10
  10   1   3   65.09   19.70
 -10   1  -3   64.49   11.10
 -10  -1   3   65.69   14.00
  10   1  -3   60.69   16.70
  10  -1   3   53.99   17.10
 -10   1   3   65.49   12.90
 -10  -1  -3   41.90   11.60
 -10  -2   3   40.40   14.00
  10   2   3   52.19   17.70
 -10   2  -3   55.39   19.00
  10  -2  -3   43.00   15.40
 -10   2   3   47.90   11.80
 -10  -2  -3   39.30   12.20
  10   2  -3   27.70   15.00
  10  -3  -3    2.60   12.70
 -10  -3   3    5.90   12.80
 -10   3  -3   -5.10   14.90
  10   3   3   -0.80   14.60
 -10   3   3    5.60    9.80
  10   3  -3    1.10   15.70
 -10  -3  -3    6.80   11.80
 -10   4  -3   46.60   19.90
  10   4   3   23.90   16.60
 -10  -4   3   41.80   14.60
 -10   4   3   26.30   11.60
  10  -4   3   37.80   12.60
  10   4  -3   60.29   17.70
 -10  -4  -3   70.99   16.30
 -10  -5   3   24.00   14.70
  10   5   3   46.00   17.70
 -10   5  -3   -5.90   14.40
  10  -5   3   16.00   13.60
 -10   5   3   29.90   12.30
  10   5  -3   21.80   15.70
 -10  -5  -3   -2.30   14.30
 -10   6  -3   50.59   19.60
  10   6   3   85.89   22.00
  10  -6   3   49.70   16.30
 -10   6   3   49.99   14.10
  11   0   3  -20.40   15.10
 -11   0  -3    0.70   10.40
 -11   0   3   -0.90   12.60
  11   0  -3   -2.70   13.90
  11  -1  -3   41.80   16.10
 -11  -1   3   46.70   15.30
  11   1   3   25.70   17.30
 -11   1   3   57.59   13.60
 -11  -1  -3   26.20   12.20
  11   1  -3   34.20   16.60
 -11   2  -3   96.79   23.60
  11   2   3   99.19   24.10
 -11  -2   3   89.29   17.30
  11  -2  -3   67.49   17.60
 -11  -2  -3   81.99   15.60
  11   2  -3  100.79   20.80
 -11   2   3  109.69   16.20
  11  -3  -3   22.10   14.10
  11   3   3   17.60   18.70
 -11   3  -3    8.60   20.50
 -11  -3   3   -0.60   14.30
 -11  -3  -3   16.80   12.00
 -11   3   3  -10.00   10.60
  11   3  -3   15.40   15.80
  11   4   3   10.80   21.90
 -11   4  -3   17.60   22.00
 -11  -4  -3    2.00   14.10
 -11   4   3   11.60   13.10
 -11   5   3   23.40   11.90
 -12   0   3  116.89   21.30
 -12   1   3    4.00   13.90
 -12  -2  -3  -14.80   12.30
 -12   2   3   13.70   15.60
   0   0  -4 8706.23  595.34
   0   0   4 8943.91  594.14
   0   0  -4 8428.46  595.34
   0   0   4 8533.55  595.14
   0   0  -4 9999.00  596.04
   0  -1  -4 1219.08   87.09
   0  -1   4 1371.46   87.09
   0  -1  -4 1209.28   86.79
   0   1   4 1447.36   86.99
   0   1  -4 1228.38   86.29
   0   1   4 1385.66   86.89
   0  -1   4 1444.36   87.99
   0   1   4 1368.06   87.29
   0   1  -4 1195.48   86.89
   0  -1   4 1330.87   86.39
   0   1  -4 1162.58   87.59
   0  -1  -4 1132.69   86.69
   0  -2  -4 1572.14  106.99
   0  -2   4 1579.94  107.19
   0   2   4 1596.84  107.89
   0   2  -4 1659.03  108.89
   0   2  -4 1535.65  108.79
   0  -2  -4 1557.44  108.89
   0  -2   4 1611.54  108.19
   0  -2  -4 1596.74  106.89
   0  -2   4 1685.93  107.29
   0  -3   4 1288.57   82.89
   0  -3  -4 1023.20   85.09
   0  -3   4 1279.07   83.29
   0  -3   4 1273.27   84.49
   0   3   4 1271.67   83.79
   0   4  -4 2678.43  176.88
   0   4   4 2628.14  175.68
   0  -4  -4 2603.54  178.08
   0  -4   4 2518.95  177.08
   0  -5  -4  152.48   17.20
   0   5  -4  110.49   11.30
   0   5  -4  126.19   13.60
   0  -5   4   94.89   14.50
   0   5   4   86.79   11.70
   0  -6  -4  189.28   22.60
   0   6  -4  186.58   18.60
   0   6  -4  180.58   17.10
   0   7  -4 2197.68  138.99
   0  -7  -4 2284.77  145.59
   0   7  -4 2084.49  140.49
   0   7   4 1758.52  138.49
   0  -7   4 1842.92  142.49
   0   8  -4  383.76   32.10
   0   8   4  301.07   29.30
   0  -8  -4  386.86   37.50
   0   8  -4  364.16   29.80
   0  -8   4  281.17   36.40
   0  -9   4   41.80   17.50
   0   9  -4   43.10   14.20
   0  -9  -4   50.69   20.50
   0   9   4   27.00   12.20
   0  10   4   40.00   15.70
   0 -10   4   42.20   20.80
   0 -10  -4   21.40   20.80
   1   0   4   -1.70    2.30
   1   0  -4    0.30    2.80
  -1   0   4   -1.30    2.00
   1   0   4    9.80    3.20
   1   0  -4    1.70    1.90
  -1   0  -4    1.00    3.10
   1   0  -4    1.80    1.90
   1   0   4   -0.70    1.40
  -1   0   4    1.50    2.30
  -1   0  -4    1.70    1.50
  -1   0   4    1.40    2.10
   1  -1  -4 3684.43  258.37
  -1  -1   4 3898.71  258.77
  -1  -1   4 3904.51  257.67
   1   1   4 3924.51  257.67
  -1   1  -4 3826.92  257.07
   1  -1  -4 3954.50  257.97
   1   1   4 3785.72  258.07
  -1  -1   4 3678.63  257.57
   1  -1  -4 4139.19  258.27
  -1   1  -4 3817.42  258.87
   1  -1  -4 3802.82  257.97
  -1  -1  -4 3879.71  257.87
  -1   1   4 3879.81  257.77
   1   1  -4 3717.53  258.67
  -1  -1  -4 3940.61  258.17
   1  -1   4 3889.61  257.27
  -1   1   4 3921.11  257.97
   1   1  -4 3867.31  257.67
   1   1  -4 3823.02  257.67
   1  -1   4 3856.01  258.17
  -1  -1  -4 3771.12  258.27
  -1  -1  -4 4055.49  257.77
   1   2   4  976.50   70.89
  -1  -2   4  974.30   70.89
   1  -2  -4 1069.99   72.59
  -1  -2   4 1013.40   70.79
  -1   2  -4 1094.09   72.49
   1  -2  -4 1069.19   70.29
   1  -2   4  984.20   69.79
   1   2  -4 1119.89   70.89
  -1  -2  -4 1079.69   70.59
   1   2  -4 1153.38   71.19
  -1  -2  -4 1085.19   71.99
   1  -2   4 1042.90   69.89
   1  -2   4  998.90   71.59
   1   2  -4 1061.99   72.19
  -1   2   4 1014.40   70.19
  -1  -2  -4 1087.49   70.99
  -1   2   4  972.70   71.09
   1   3   4 3011.20  203.78
   1  -3  -4 3021.60  205.98
  -1   3  -4 3076.09  205.18
  -1  -3   4 3057.59  204.08
  -1  -3   4 3036.10  203.68
  -1  -3  -4 3073.79  205.38
   1   3  -4 2924.81  204.88
   1  -3   4 2951.80  202.58
  -1   3   4 3019.80  203.88
   1  -3   4 2943.71  204.78
  -1  -3  -4 3310.47  202.98
  -1  -4   4 1544.95  105.49
   1  -4  -4 1502.15  107.29
   1   4   4 1574.34  102.89
  -1  -4   4 1518.85  104.49
  -1   4  -4 1598.84  103.59
  -1   4  -4 1619.04  106.09
   1   4   4 1494.65  104.39
   1  -4   4 1473.95  102.99
   1   4  -4 1583.34  105.79
  -1  -4  -4 1461.25  106.49
  -1   4   4 1505.75  104.49
  -1  -4  -4 1581.84  102.89
   1  -4   4 1479.15  106.29
   1  -5  -4   93.29   15.00
  -1  -5   4   81.79   12.90
  -1   5  -4   87.29    9.50
  -1  -5   4   92.69   10.90
   1   5   4   92.89    7.80
  -1   5  -4   67.49   10.80
   1   5   4   79.29   10.20
   1  -5   4   84.69   13.90
  -1  -5  -4   78.29    7.10
   1   5  -4   70.79   11.70
  -1  -5  -4  103.49   14.50
  -1   5   4   87.89   10.40
  -1   6  -4  394.56   32.20
   1  -6  -4  375.16   36.00
  -1  -6   4  397.66   34.90
   1   6   4  399.36   31.60
   1   6   4  429.46   28.10
  -1  -6   4  405.86   31.50
  -1   6  -4  402.56   30.30
  -1   6   4  391.86   30.90
   1  -6   4  366.66   35.10
  -1  -6  -4  373.76   35.00
   1   6  -4  397.36   32.30
  -1  -7   4  686.23   52.79
  -1  -7   4  642.24   49.10
   1   7   4  670.43   49.00
  -1   7  -4  657.23   48.20
   1  -7  -4  636.24   54.59
  -1   7  -4  666.33   50.29
  -1   7   4  651.13   48.70
   1   7  -4  627.24   50.49
   1  -7   4  712.73   55.39
  -1  -7  -4  628.14   53.49
  -1  -8   4  561.34   46.70
  -1   8  -4  446.56   41.40
  -1   8  -4  497.75   39.80
   1   8   4  552.54   41.90
   1  -8  -4  528.15   48.20
  -1  -8   4  471.05   40.70
  -1   8   4  517.15   40.30
   1   8  -4  485.15   42.10
  -1  -8  -4  520.75   47.90
   1  -8   4  572.74   48.80
  -1   9  -4  156.58   22.20
  -1  -9   4  142.09   19.10
   1  -9  -4  139.89   25.80
  -1  -9   4  119.29   22.40
   1   9   4  111.79   18.00
   1  -9   4  146.59   25.10
  -1  -9  -4  146.79   26.50
   1   9  -4  129.59   20.10
  -1   9   4  110.69   17.30
   1  10   4  342.57   36.00
  -1 -10   4  414.76   43.30
   1 -10  -4  443.66   47.30
   1 -10   4  410.46   43.20
  -1  10   4  340.87   36.30
  -1 -10  -4  417.16   43.60
  -2   0  -4 4344.37  271.47
   2   0  -4 4062.09  271.07
   2   0   4 3840.22  270.27
   2   0  -4 3664.23  269.97
  -2   0  -4 3951.10  271.47
  -2   0   4 3923.01  270.17
  -2   0   4 4078.99  271.17
  -2   0  -4 4378.56  269.67
   2   0  -4 4186.58  269.87
   2   0   4 4040.60  269.57
   2   1   4  176.38   15.90
   2  -1  -4  227.68   17.20
   2   1   4  176.18   16.40
  -2   1  -4  250.47   18.40
  -2   1  -4  250.57   14.90
  -2   1  -4  238.18   14.90
   2  -1  -4  239.98   17.00
  -2   1   4  177.28   16.40
   2   1  -4  242.68   15.70
  -2  -1  -4  260.17   16.20
   2  -1   4  170.28   16.40
   2   1  -4  231.78   17.70
  -2   1   4  176.68   16.50
  -2  -1  -4  240.88   18.00
  -2  -1  -4  233.88   16.50
   2   2   4  595.24   42.60
  -2  -2   4  648.64   42.00
  -2  -2   4  630.24   42.70
  -2   2  -4  590.24   44.10
   2   2   4  595.24   42.40
   2  -2  -4  595.34   44.10
   2  -2  -4  600.94   42.10
  -2  -2  -4  598.84   43.30
  -2  -2  -4  593.94   42.40
  -2   2   4  668.43   42.50
   2   2  -4  629.64   42.20
   2  -2   4  630.34   43.30
  -2   2   4  625.14   42.70
   2   2  -4  573.84   43.80
   2  -3  -4  479.05   35.00
  -2  -3   4  565.54   36.40
  -2   3  -4  492.05   35.00
   2   3   4  548.75   36.50
  -2   3  -4  450.05   37.80
  -2  -3   4  529.55   36.80
   2  -3  -4  434.86   38.50
   2   3   4  553.64   36.70
   2  -3   4  550.04   38.10
   2   3  -4  504.95   36.80
  -2   3   4  564.74   36.90
   2  -3   4  560.74   34.90
  -2  -3  -4  448.26   37.30
   2   3  -4  472.55   37.80
  -2   3   4  571.54   35.60
  -2  -3  -4  486.95   36.10
   2   4   4 1419.96   95.69
  -2  -4   4 1431.36   95.89
  -2   4  -4 1396.56   97.29
   2  -4  -4 1275.27   98.39
  -2   4  -4 1297.77   94.19
   2   4   4 1414.56   95.19
  -2  -4   4 1450.75   95.99
  -2  -4  -4 1447.46   95.09
   2  -4   4 1437.76   93.99
  -2   4   4 1421.16   93.59
  -2  -4  -4 1426.46   97.69
  -2   4   4 1393.06   95.69
  -2   4   4 1432.46   93.69
   2  -4   4 1407.26   97.99
   2   4  -4 1318.57   96.89
  -2  -5   4  186.78   17.70
  -2   5  -4  192.58   19.10
  -2  -5   4  176.28   18.80
  -2   5  -4  216.88   16.30
   2   5   4  195.98   16.80
   2  -5  -4  206.58   22.50
   2   5   4  178.38   18.30
  -2   5   4  184.08   17.40
   2  -5   4  182.78   21.20
  -2  -5  -4  226.88   16.10
  -2  -5  -4  217.08   21.70
   2   5  -4  204.68   19.40
  -2  -6   4   49.30   12.00
  -2   6  -4   72.39   11.90
  -2   6  -4   86.99    9.80
  -2  -6   4   52.79   10.80
   2   6   4   64.19    8.90
   2  -6  -4   81.49   17.20
   2   6   4   60.39   11.20
   2   6  -4   78.09   13.00
  -2   6   4   53.69   10.50
   2  -6   4   45.10   13.70
  -2  -6  -4   67.59   14.50
  -2  -7   4  633.04   51.79
  -2   7  -4  742.73   48.30
  -2   7  -4  717.53   50.79
  -2  -7   4  608.54   49.50
   2   7   4  603.84   48.90
   2  -7  -4  689.53   55.69
  -2   7   4  566.64   48.10
  -2  -7  -4  675.43   54.19
   2  -7   4  652.53   54.19
   2   7  -4  694.13   50.69
  -2  -8   4  158.68   20.90
  -2  -8   4  190.08   24.10
  -2   8  -4  185.18   20.30
   2  -8  -4  178.98   27.50
  -2   8  -4  187.68   22.50
   2   8   4  176.08   21.10
   2   8  -4  192.68   22.80
  -2   8   4  195.08   20.30
  -2  -8  -4  164.68   24.90
   2  -8   4  164.28   25.70
  -2  -9   4   22.10   15.70
  -2  -9   4   13.30   13.00
   2  -9  -4   10.10   17.50
   2   9   4   13.00   12.40
  -2  -9  -4   26.00   17.60
  -2   9   4   12.50   12.20
   2  -9   4   28.60   17.70
   2   9  -4   16.10   13.60
  -2 -10   4   10.90   16.00
   2  10   4   -5.80   13.20
  -2 -10   4    7.40   14.20
   2 -10  -4   -5.80   19.30
  -2 -10  -4   10.80   19.00
   2 -10   4   -0.40   19.90
  -2  10   4   -5.90   11.30
  -3   0  -4   -2.90    2.20
   3   0   4   -0.70    2.90
  -3   0  -4   -1.10    2.00
  -3   0  -4    4.90    5.20
   3   0  -4   -1.50    1.80
   3   0  -4   -2.70    4.00
   3   0  -4    3.20    2.90
  -3   0   4    0.10    3.10
  -3   1  -4  399.86   25.60
   3   1   4  321.07   26.60
   3  -1  -4  412.36   27.90
   3   1   4  338.77   26.40
  -3  -1   4  315.67   26.70
  -3   1  -4  389.76   25.80
   3   1   4  335.47   27.70
  -3   1  -4  406.86   29.50
   3  -1  -4  407.56   27.90
  -3   1   4  373.96   27.30
  -3  -1  -4  432.96   26.90
   3  -1   4  332.87   27.00
   3   1  -4  416.76   25.70
  -3   1   4  348.67   27.00
   3   1  -4  404.26   28.90
  -3  -2   4  481.45   33.90
   3   2   4  466.35   36.00
  -3   2  -4  484.95   37.40
   3   2   4  463.75   35.20
   3   2   4  461.65   35.20
  -3   2  -4  555.14   33.60
   3  -2  -4  526.35   35.40
   3  -2  -4  503.65   37.00
   3   2  -4  567.64   37.60
  -3   2   4  476.85   36.30
   3  -2   4  464.65   36.00
  -3   2   4  468.35   35.30
   3   2  -4  544.75   34.40
   3  -2   4  495.75   33.70
  -3   3  -4   38.80    4.10
   3   3   4   28.60    6.10
   3  -3  -4   28.50    4.50
   3  -3  -4   24.90    7.90
  -3  -3   4   36.70    6.50
  -3   3  -4   26.00    8.00
  -3  -3   4   37.70    4.60
   3   3   4   37.60    6.90
  -3  -3  -4   27.70    6.60
   3  -3   4   35.20    3.80
  -3   3   4   40.50    6.70
   3   3  -4   25.40    7.60
   3  -3   4   35.40    7.60
  -3   3   4   53.79    7.30
   3   3  -4   30.10    5.50
   3  -4  -4   40.90   10.50
   3   4   4   31.00    7.30
   3   4   4   42.60    8.10
  -3   4  -4   53.79    5.80
  -3  -4   4   41.10    6.50
  -3   4  -4   47.10    9.40
  -3  -4   4   36.20    8.10
   3  -4   4   46.60   10.70
   3   4  -4   56.09    9.90
  -3  -4  -4   53.69    9.60
   3  -4   4   38.60    4.70
  -3   4   4   36.50    7.20
  -3   4   4   56.09    7.60
  -3   4   4   42.70    5.60
   3  -5  -4  419.56   38.40
  -3  -5   4  463.95   34.90
  -3   5  -4  434.76   36.40
  -3   5  -4  487.25   32.40
  -3  -5   4  445.16   34.30
   3   5   4  419.16   34.40
   3   5   4  483.95   35.00
  -3   5   4  484.95   31.90
  -3  -5  -4  425.26   36.50
   3   5  -4  397.96   35.70
  -3   5   4  502.05   37.10
   3  -5   4  439.46   38.30
  -3   5   4  455.45   34.20
  -3   6  -4  263.67   27.90
   3  -6  -4  239.18   30.40
  -3  -6   4  323.77   26.90
   3   6   4  368.26   27.80
  -3  -6   4  349.77   27.30
  -3   6  -4  290.17   24.30
   3   6   4  368.16   26.80
   3  -6   4  324.27   32.10
   3   6  -4  273.27   27.60
  -3   6   4  347.67   26.00
  -3  -6  -4  285.57   29.50
   3  -7  -4   26.90   15.00
   3   7   4   40.80   11.80
  -3   7  -4   37.70   11.90
  -3  -7   4   34.80   11.70
  -3   7  -4   38.60    8.70
  -3  -7   4   38.90   11.80
   3   7  -4   24.30   10.80
  -3  -7  -4   28.20   12.30
  -3   7   4   40.40    9.90
   3  -7   4   37.30   16.20
  -3  -8   4   56.29   15.40
  -3   8  -4   55.59   13.70
   3   8   4   61.59   13.80
   3  -8  -4   38.80   18.00
  -3  -8   4   63.89   13.70
   3   8  -4   66.29   15.00
   3  -8   4   58.49   18.20
  -3   8   4   54.39   11.80
  -3  -8  -4   57.79   17.20
   3   9   4  124.19   19.50
  -3  -9   4  113.69   18.90
   3  -9  -4  137.59   25.40
  -3  -9  -4  116.89   23.70
   3   9  -4   84.19   19.00
  -3   9   4  131.19   18.10
   3  -9   4  140.69   27.00
  -3 -10   4   53.99   17.30
  -3 -10  -4   65.69   21.20
  -3  10   4   48.90   14.20
   4   0   4  479.15   36.40
  -4   0  -4  542.45   36.00
  -4   0   4  473.65   36.80
   4   0  -4  518.75   38.50
  -4   0  -4  524.05   36.00
   4   0  -4  548.95   36.20
   4   0  -4  536.95   35.30
   4   0   4  488.75   37.90
   4   1   4  669.13   50.69
   4   1   4  665.63   49.00
  -4   1  -4  727.33   48.40
   4  -1  -4  723.83   49.99
   4  -1  -4  712.13   50.19
  -4  -1   4  637.84   49.20
  -4   1  -4  691.43   48.00
  -4   1  -4  756.62   52.49
  -4   1   4  709.13   49.60
   4   1  -4  688.43   51.19
  -4  -1  -4  708.63   49.10
   4   1  -4  766.12   47.50
   4   1  -4  789.02   47.80
  -4   1   4  674.33   49.30
   4  -1   4  670.43   49.50
   4  -2  -4   62.39    9.00
  -4   2  -4   85.49   11.30
   4   2   4   32.00    5.80
  -4  -2   4   32.30    6.40
   4   2   4   29.50    5.70
   4  -2  -4   47.80    6.70
   4   2   4   37.80    8.20
  -4   2   4   29.80    6.20
   4  -2   4   39.20    4.60
   4   2  -4   65.19   10.00
   4  -2   4   28.10    6.70
   4  -3  -4  165.08   14.50
   4   3   4  182.58   15.90
  -4  -3   4  196.48   16.40
  -4   3  -4  157.28   18.20
   4   3   4  175.88   17.80
  -4   3  -4  163.08   13.20
  -4  -3   4  194.08   13.00
   4  -3  -4  158.08   18.50
   4  -3   4  207.88   13.50
  -4  -3  -4  170.78   16.00
   4  -3   4  197.18   17.60
   4   3  -4  169.48   13.60
  -4   3   4  192.18   15.80
   4   3  -4  151.18   17.90
  -4   4  -4    0.80    3.20
   4   4   4    2.40    6.60
   4   4   4    3.70    7.30
   4  -4  -4   14.20    9.40
  -4   4  -4    1.50    7.20
  -4  -4   4    3.20    3.50
  -4  -4   4    5.30    6.30
  -4   4   4    2.00    5.60
   4  -4   4    8.30    7.80
   4  -4   4    0.70    2.80
   4   4  -4    1.20    4.00
  -4  -4  -4    6.70    6.50
   4   4  -4   13.10    8.80
  -4  -5   4  276.17   25.60
  -4   5  -4  334.27   22.70
   4   5   4  269.67   25.20
   4  -5  -4  344.87   31.40
  -4  -5   4  297.57   23.50
  -4   5  -4  313.77   27.10
   4   5   4  283.67   26.50
   4  -5   4  271.27   27.80
  -4  -5  -4  303.57   27.00
  -4   5   4  304.47   23.30
  -4   5   4  294.57   24.40
   4   5  -4  310.87   27.40
   4   6   4  228.68   21.70
  -4  -6   4  208.68   21.00
  -4  -6   4  218.98   19.40
   4   6   4  211.98   20.90
   4  -6  -4  179.88   25.60
  -4   6  -4  194.68   22.70
  -4   6  -4  183.88   17.10
  -4  -6  -4  169.28   22.40
  -4   6   4  217.48   20.00
   4  -6   4  220.28   25.00
   4   6  -4  174.58   22.10
  -4  -7   4  102.39   14.30
  -4   7  -4   70.99   14.90
   4  -7  -4   68.89   20.00
   4   7   4  102.99   15.90
  -4  -7   4  100.49   15.20
   4   7  -4   78.39   16.20
  -4   7   4   95.59   13.70
  -4  -7  -4   60.79   15.60
   4  -7   4  101.79   20.50
   4   8   4  241.18   26.10
  -4   8  -4  231.68   26.60
  -4  -8   4  238.58   25.90
   4  -8  -4  217.18   31.90
   4   8  -4  240.58   28.60
  -4  -8  -4  238.38   29.80
   4  -8   4  270.97   33.00
  -4   8   4  238.08   24.50
   4   9   4   11.80   14.50
   4  -9  -4    5.10   16.10
  -4  -9   4   12.00   14.40
  -4   9   4   14.70   12.20
   4   9  -4    1.10   13.30
  -4  -9  -4   20.00   16.60
   4  -9   4    6.30   16.60
  -4 -10   4   77.49   18.50
  -4  10   4   41.20   15.10
   5   0   4   -1.20    6.10
   5   0  -4    4.00    2.40
   5   0   4    1.80    4.10
  -5   0   4   -0.70    5.40
   5   0  -4    2.30    6.10
   5   0  -4    2.40    3.00
  -5   0  -4   -0.10    3.30
   5   1   4  133.89   14.90
   5   1   4  125.29   11.70
  -5  -1   4  120.29   12.50
   5  -1   4  120.09   12.10
  -5   1   4  147.09   12.90
  -5   1   4  134.79   12.30
   5  -2  -4  777.02   54.89
   5   2   4  714.33   55.49
  -5   2  -4  796.32   51.79
   5  -2  -4  812.82   54.29
   5   2   4  708.03   52.69
  -5   2  -4  791.12   56.89
  -5  -2  -4  765.32   53.79
   5  -2   4  720.73   53.89
   5   2  -4  775.42   56.39
  -5   2   4  713.63   53.29
   5  -2   4  795.72   52.49
  -5   3  -4  917.11   65.59
   5  -3  -4  846.32   61.59
  -5  -3   4  861.81   62.59
   5   3   4  891.81   64.39
   5  -3  -4  892.11   64.49
  -5   3  -4  870.01   60.09
  -5   3   4  857.41   61.99
   5   3  -4  839.12   64.49
   5  -3   4  966.10   60.59
  -5  -3  -4  912.41   63.09
  -5  -3  -4  866.51   62.09
   5  -3   4  902.01   63.49
   5  -4  -4  838.42   62.49
  -5  -4   4  822.92   59.79
   5   4   4  841.22   59.29
  -5  -4   4  888.91   55.99
   5   4   4  872.51   61.69
   5  -4  -4  777.92   57.79
  -5   4  -4  851.41   56.79
  -5   4  -4  781.92   61.49
   5  -4   4  808.42   60.79
  -5   4   4  837.92   58.69
  -5  -4  -4  826.12   59.69
   5   4  -4  786.12   61.79
   5   5   4  117.69   14.60
   5  -5  -4  140.29   20.00
  -5   5  -4  125.79   17.60
  -5  -5   4  130.19   16.60
   5   5   4  124.19   17.20
  -5   5  -4  136.09   12.10
  -5  -5   4  139.39   12.10
   5   5  -4  130.69   18.40
  -5   5   4  139.19   13.90
   5  -5   4  108.69   17.00
  -5   5   4  112.59   14.20
  -5  -5  -4  117.89   15.70
  -5   6  -4   20.90   10.40
   5  -6  -4   10.50   12.30
   5   6   4   11.20    9.30
   5   6   4   22.70   11.20
  -5  -6   4   20.40   11.30
   5  -6   4   13.30   12.00
   5   6  -4   16.70   11.10
  -5  -6  -4   15.60   10.00
  -5   6   4   25.20    9.40
  -5   7  -4  194.78   22.70
   5   7   4  165.78   19.80
   5  -7  -4  197.58   26.60
  -5  -7   4  171.38   20.90
   5  -7   4  148.19   23.40
   5   7  -4  151.68   21.50
  -5   7   4  173.68   18.60
  -5  -7  -4  177.28   22.50
   5   8   4  173.38   21.80
   5  -8  -4  196.88   27.70
  -5  -8   4  169.58   22.70
  -5   8  -4  190.28   23.50
  -5   8   4  204.08   22.50
   5   8  -4  180.28   24.80
   5  -8   4  201.78   27.80
  -5  -8  -4  176.48   25.20
   5  -9  -4   16.50   17.20
   5   9   4   18.50   15.10
  -5  -9   4    2.60   13.10
   5  -9   4   23.00   18.00
   5   9  -4   16.30   14.10
  -5   9   4   12.20   10.90
   6   0  -4 3129.29  194.78
   6   0   4 2829.92  196.18
  -6   0   4 2786.72  196.88
   6   0   4 2665.03  198.68
   6   0  -4 2850.01  198.68
   6   0  -4 3081.99  194.88
  -6   0  -4 3031.20  196.08
   6   1   4  114.09   14.40
  -6   1  -4   83.79    9.20
   6   1   4  107.59   10.20
   6  -1  -4   70.99   11.80
   6  -1  -4   82.39    9.90
  -6  -1   4  100.09   11.30
  -6   1  -4   99.79   16.00
   6   1  -4   78.89   13.00
  -6  -1  -4   73.89    9.90
   6  -1   4  109.49   11.40
  -6   1   4   90.39   10.90
  -6   2  -4   85.29    7.90
   6   2   4   54.89    8.00
  -6  -2   4   58.19    9.80
   6  -2  -4   94.09   11.00
  -6   2  -4   90.29   14.90
   6  -2  -4   85.89   11.00
   6   2   4   52.49   12.80
  -6   2   4   51.59    9.20
   6   2  -4   81.59   13.20
  -6  -2  -4   89.29   10.30
   6  -2   4   59.49    9.50
   6  -3  -4   22.60    7.50
  -6   3  -4   29.40   11.00
   6   3   4   29.90   11.60
  -6   3  -4   21.90    4.90
  -6  -3   4   20.60    8.20
   6  -3  -4   16.90    8.30
   6   3  -4   20.30    9.90
  -6  -3  -4   25.70    8.00
   6  -3   4   20.10    8.30
  -6   3   4   33.10    8.50
  -6  -3  -4   19.00    6.60
  -6   4  -4  867.21   67.59
   6  -4  -4  887.31   66.39
  -6  -4   4  934.11   65.29
  -6   4  -4  892.51   61.79
   6  -4  -4  891.71   63.39
   6   4   4  944.81   67.89
  -6  -4  -4  898.01   64.59
   6   4  -4  829.72   66.79
  -6   4   4  942.41   63.99
  -6  -4  -4  857.31   64.99
   6  -4   4  982.70   66.79
  -6   5  -4  397.96   36.30
  -6  -5   4  390.26   34.60
   6  -5  -4  443.06   35.90
   6   5   4  423.56   36.40
  -6   5   4  380.76   31.80
   6  -5   4  356.56   34.60
  -6  -5  -4  426.66   34.90
  -6  -5  -4  437.26   33.60
  -6   5   4  409.66   32.30
   6   5  -4  389.46   35.50
   6   6   4  308.57   28.90
  -6   6  -4  255.57   28.30
  -6  -6   4  270.47   27.70
   6  -6  -4  260.97   28.40
   6   6  -4  237.88   27.50
   6  -6   4  289.47   28.80
  -6   6   4  263.07   23.60
  -6  -6  -4  240.28   26.40
  -6  -6  -4  254.57   26.80
  -6  -7   4  358.06   33.20
   6  -7  -4  388.26   38.20
  -6   7  -4  341.87   33.50
   6   7  -4  351.66   36.10
   6  -7   4  372.96   36.30
  -6   7   4  359.86   31.00
  -6  -7  -4  357.56   33.80
  -6  -8   4   37.80   15.70
  -6   8  -4   26.70   14.70
   6  -8  -4   30.10   17.70
   6  -8   4   25.00   16.50
  -6  -8  -4   16.70   15.50
   6   8  -4   18.30   15.20
  -6   8   4   34.20   12.50
  -6  -9   4   11.30   16.00
  -6   9   4   16.60   12.50
   6   9  -4   20.40   16.40
   7   0   4   -3.20    5.10
   7   0  -4    6.30    8.80
  -7   0  -4    1.30    5.30
  -7   0   4   -0.10    6.60
   7   0   4    2.10    9.20
   7   1   4  459.35   31.80
  -7  -1   4  453.05   33.50
  -7   1  -4  388.56   31.30
   7   1   4  489.95   37.20
   7  -1  -4  425.06   35.50
   7  -1  -4  402.76   31.10
   7  -1   4  458.65   32.60
   7   1  -4  350.16   35.20
  -7   1   4  513.15   33.60
  -7  -1  -4  386.76   32.20
  -7   2  -4   87.69    9.30
  -7   2  -4   70.89   15.60
  -7  -2   4   56.49   10.80
   7   2   4   66.79   15.30
   7  -2  -4   79.99   12.40
   7   2   4   68.79    9.10
   7  -2  -4   78.69   10.20
   7   2  -4   76.59   14.10
   7  -2   4   70.29   10.40
  -7  -2  -4   74.99   10.50
  -7   2   4   78.89   10.90
   7   3   4  675.93   57.49
  -7   3  -4  764.82   51.49
  -7  -3   4  686.63   54.19
   7  -3  -4  790.92   54.29
  -7   3  -4  739.63   57.99
   7  -3  -4  767.82   54.19
  -7  -3  -4  748.93   54.09
   7  -3   4  713.73   54.59
  -7  -3  -4  758.82   52.99
   7   3  -4  769.32   57.09
  -7   3   4  690.83   53.69
  -7  -4   4  339.67   27.80
   7  -4  -4  285.87   25.10
  -7   4  -4  238.28   30.40
   7   4   4  367.26   31.10
   7  -4  -4  286.67   27.10
  -7  -4  -4  289.47   26.90
  -7   4   4  341.87   26.70
   7   4  -4  247.08   28.70
   7  -4   4  343.27   28.80
  -7  -4  -4  281.57   25.60
  -7  -5   4   79.09   14.10
   7  -5  -4   49.70   12.50
  -7   5  -4   59.19   14.80
   7   5   4   61.99   15.10
   7   5  -4   50.39   14.60
  -7   5   4   58.29   11.60
  -7  -5  -4   29.80   12.00
   7  -5   4   67.69   15.30
  -7   5   4   67.39   11.10
  -7  -6   4   45.60   14.30
  -7   6  -4   55.39   16.10
   7   6   4   73.59   17.20
   7  -6  -4   85.49   16.70
   7   6  -4   65.89   17.10
  -7   6   4   75.19   12.20
  -7  -6  -4   56.69   14.70
   7  -6   4   54.59   15.20
  -7   7  -4  250.97   29.00
   7  -7  -4  247.98   30.70
  -7  -7   4  239.38   27.30
  -7  -7  -4  234.98   27.10
   7  -7   4  266.27   29.60
  -7   7   4  230.68   24.20
   7   7  -4  193.18   27.90
  -7  -8   4  274.37   29.50
   7  -8  -4  245.38   30.10
   7  -8   4  242.38   30.30
   7   8  -4  220.98   29.30
  -7   8   4  203.38   23.30
  -7  -8  -4  205.68   27.00
  -7   9   4   13.80   13.10
  -8   0  -4  597.84   37.50
   8   0  -4  589.94   42.20
   8   0   4  436.86   36.90
  -8   0   4  465.65   38.50
   8   0   4  454.55   41.80
   8   1   4   93.29   17.20
  -8   1  -4  102.09   11.30
   8  -1  -4   89.59   14.90
  -8  -1   4  111.49   14.70
   8   1   4   92.29   11.60
   8  -1   4  108.49   12.40
  -8   1   4   83.69   12.70
  -8  -1  -4   99.39   12.30
   8   1  -4   95.89   16.50
  -8  -2   4    2.40    9.30
   8   2   4   11.40    6.10
  -8   2  -4   14.30    5.90
  -8   2  -4    6.00   12.60
   8  -2  -4   13.20    9.20
   8   2   4   16.30   12.20
   8   2  -4   10.70   11.20
  -8  -2  -4   13.40    8.50
  -8   2   4   19.70    8.20
   8  -2   4   11.90    8.20
   8   3   4  125.09   21.20
  -8   3  -4  122.99   15.30
   8  -3  -4  124.39   14.80
   8  -3  -4  122.29   16.30
  -8   3  -4  104.19   19.70
  -8  -3   4  107.59   15.70
  -8   3   4  120.79   14.90
   8   3  -4  136.99   19.70
   8  -3   4  131.89   15.90
  -8  -3  -4  110.09   15.60
  -8   4  -4  323.07   33.60
   8  -4  -4  284.77   26.70
  -8  -4   4  312.97   28.60
   8   4   4  332.27   33.70
   8  -4  -4  289.77   27.20
  -8  -4  -4  265.37   28.80
   8   4  -4  294.47   30.90
  -8   4   4  329.17   26.70
   8  -4   4  299.77   27.90
  -8  -5   4   29.80   14.10
   8   5   4   17.90   15.30
   8  -5  -4   13.70   11.00
  -8   5  -4    0.70   12.00
  -8   5   4   16.30   17.30
   8  -5   4   20.90   11.70
   8   5  -4    0.90   12.10
  -8   5   4   14.00    8.90
  -8  -5  -4    8.10   11.30
  -8   6  -4   26.90   14.20
   8  -6  -4   56.99   14.70
   8   6   4   31.30   16.10
  -8  -6   4   31.60   15.90
  -8   6   4   23.70   11.60
   8  -6   4   39.80   14.40
   8   6  -4   33.60   16.00
  -8  -6  -4   32.60   15.10
  -8   7  -4  146.09   23.40
  -8  -7   4  143.59   22.40
   8  -7  -4  195.68   25.00
   8  -7   4  140.69   23.90
   8   7  -4  141.29   23.80
  -8  -7  -4  159.68   23.60
  -8   7   4  151.18   19.20
  -8   8   4  165.88   20.70
   9   0  -4    6.60   11.30
   9   0   4    3.50   14.10
  -9   0  -4   -5.30    6.70
  -9   0   4   -4.90    9.60
  -9  -1   4  170.48   19.10
   9  -1  -4  146.69   20.40
   9   1   4  159.38   23.00
  -9   1  -4  148.49   16.10
  -9   1   4  169.68   18.90
  -9  -1  -4  152.38   17.60
   9  -1   4  189.28   17.30
   9   1  -4  137.39   21.30
  -9   2  -4  508.05   48.90
  -9  -2   4  578.14   43.80
   9  -2  -4  539.15   44.30
   9   2   4  605.74   48.60
  -9   2  -4  523.05   41.90
   9   2  -4  544.05   47.70
  -9   2   4  575.64   43.20
  -9  -2  -4  513.65   42.60
   9  -2   4  571.04   42.50
   9  -3  -4   38.60   12.60
  -9   3  -4   32.70   15.80
  -9  -3   4   27.60   11.50
   9   3   4   11.00   16.00
  -9  -3  -4   33.10   10.70
   9  -3   4   12.70   10.30
   9   3  -4   46.60   15.00
  -9   3   4   21.00   11.30
   9  -4  -4   50.19   12.90
  -9  -4   4   53.19   14.60
   9   4   4   58.79   17.60
  -9   4  -4   35.30   16.20
  -9   4   4   59.19   12.60
  -9  -4  -4   64.09   13.60
   9   4  -4   60.29   16.70
   9  -4   4   68.19   14.00
  -9   5  -4  259.27   32.10
  -9  -5   4  244.88   28.30
   9   5   4  268.27   32.80
   9  -5   4  264.47   29.20
   9   5  -4  317.27   32.30
  -9   5   4  223.18   25.90
  -9  -5  -4  306.57   29.00
   9   6   4  125.79   22.40
  -9   6  -4   92.59   20.20
  -9  -6   4  120.79   20.40
   9  -6  -4  114.39   19.20
  -9   6   4   98.59   16.20
   9   6  -4  106.39   22.10
  -9  -6  -4  112.29   19.60
   9  -6   4  103.49   20.10
   9  -7  -4   30.50   14.10
  -9   7  -4   32.90   15.90
  -9   7   4   24.40   12.90
 -10   0  -4   15.30    9.50
  10   0   4    7.90   15.70
 -10   0   4   16.10   12.30
  10   0  -4   33.20   14.50
  10  -1  -4  502.95   42.40
 -10  -1   4  477.25   40.10
 -10   1  -4  515.55   48.70
  10   1   4  481.35   45.00
 -10   1   4  450.75   39.10
  10   1  -4  502.05   45.10
 -10  -1  -4  481.95   38.20
 -10   2  -4   87.59   22.20
  10  -2  -4  113.49   17.90
  10   2   4   42.80   18.40
 -10  -2   4   74.89   15.60
 -10  -2  -4   91.49   14.10
  10   2  -4  108.99   19.70
 -10   2   4   86.39   15.30
 -10   3  -4  107.69   23.40
  10  -3  -4  103.89   17.60
 -10  -3   4   50.59   15.10
  10   3   4   77.99   21.90
  10   3  -4  102.39   20.30
 -10  -3  -4   95.29   16.60
 -10   3   4   78.09   15.70
 -10   4  -4  149.59   27.00
 -10  -4   4  146.79   21.10
  10   4   4  210.88   28.90
  10  -4  -4  161.68   21.40
  10   4  -4  152.18   25.30
  10  -4   4  152.88   20.20
 -10  -4  -4  152.88   21.40
 -10   4   4  163.38   20.00
 -10   5  -4  116.79   24.20
 -10  -5   4   89.29   21.60
  10   5   4  116.89   25.10
  10   5  -4  128.79   23.80
  10  -5   4   92.59   18.00
 -10  -5  -4  113.49   20.40
 -10   5   4  114.99   17.40
  10   6   4  137.89   26.20
 -10   6  -4  109.99   26.40
  10  -6   4  147.99   22.50
 -10   6   4  130.09   18.70
 -11   0   4   -3.50   11.50
  11   0   4   -9.20   16.60
  11   0  -4  -12.30   15.20
  11  -1  -4   39.80   15.90
 -11  -1   4   33.30   13.60
  11   1   4   49.60   20.00
 -11   1  -4   33.60   21.00
 -11   1   4   42.20   14.60
 -11  -1  -4   40.30   12.20
  11   1  -4   46.00   18.90
  11  -2  -4  350.86   37.30
 -11  -2   4  383.96   35.30
  11   2   4  378.76   40.70
 -11   2  -4  352.26   42.80
 -11  -2  -4  334.27   32.70
  11   2  -4  373.86   38.40
 -11   2   4  398.56   34.60
  11  -3  -4  130.99   20.20
 -11  -3   4  109.89   20.90
 -11   3  -4   94.99   26.30
  11   3   4  140.69   25.90
  11   3  -4  119.49   26.20
 -11   3   4  127.79   19.30
 -11  -3  -4  102.29   17.20
  11  -4  -4   60.29   20.00
 -11  -4  -4   82.89   16.70
 -11   4   4   77.89   15.90
   0   0   5    2.90    2.90
   0   0   5    1.60    2.30
   0   0  -5    0.60    2.00
   0   0  -5    0.10    2.80
   0   0   5    1.90    2.80
   0  -1  -5    0.50    2.50
   0   1   5   -0.60    2.80
   0  -1   5    2.00    2.70
   0  -1  -5   -0.50    2.30
   0   1   5    1.60    2.50
   0  -1   5    0.20    1.80
   0   1  -5   -0.40    1.50
   0   1  -5   -1.20    3.30
   0   1   5    1.30    2.30
   0  -2  -5   -0.90    1.80
   0   2   5   -2.00    2.80
   0   2  -5    0.80    4.10
   0  -2   5    3.20    3.10
   0   2   5   -0.50    2.10
   0  -2  -5    2.60    3.90
   0  -2   5    0.00    1.80
   0   2  -5    1.40    1.80
   0   3  -5    2.70    5.40
   0  -3   5    0.10    2.20
   0  -3   5    0.70    4.60
   0  -3  -5    3.00    5.30
   0   3   5    7.20    4.00
   0  -3   5    3.00    2.70
   0  -4   5   -3.00    3.70
   0  -4   5    4.60    5.70
   0   4  -5    3.90    6.00
   0  -4  -5   -2.90    6.70
   0   4   5    1.20    4.70
   0   5   5   12.50    6.40
   0  -5  -5   -4.40    8.10
   0  -5   5    1.00    7.50
   0   5  -5    1.90    6.70
   0  -5   5    1.10    4.90
   0   6   5   -0.70    6.70
   0  -6   5    1.70    6.20
   0  -6   5   -7.20   10.00
   0   6  -5    2.00    8.00
   0  -6  -5    3.60   10.20
   0  -7  -5    2.30   13.10
   0   7  -5   -5.10    9.40
   0  -7   5    1.80   11.10
   0  -7   5   14.70    8.60
   0   7   5   -0.40    8.90
   0  -8  -5    5.00   14.10
   0  -8   5    8.20   13.50
   0   8  -5    7.90   10.30
   0  -8   5    8.40    9.90
   0   8   5    5.00    9.70
   0  -9  -5    4.80   15.80
   0  -9   5   -7.00   16.40
   0   9   5    4.90   11.20
   0   9  -5   -2.10   13.10
   0 -10   5    6.40   19.20
   0  10   5    9.00   14.90
   0 -10  -5    0.10   17.00
   1   0  -5   -0.20    2.00
   1   0   5    0.80    3.20
  -1   0   5    3.70    2.90
   1   0  -5   -0.80    2.00
  -1   0   5   -0.20    2.50
  -1   0  -5    2.60    3.70
   1   0   5   -0.70    1.70
   1   0  -5   -0.80    3.10
  -1   0   5    1.10    2.60
  -1   0  -5    1.10    1.70
   1   0   5    2.30    2.90
   1   1   5  637.84   49.00
  -1  -1   5  664.73   48.70
   1  -1  -5  746.03   49.60
  -1  -1   5  663.43   48.50
  -1   1  -5  756.12   47.70
   1  -1  -5  777.22   49.10
   1   1   5  709.13   49.40
   1   1   5  650.03   48.50
  -1   1  -5  783.62   50.39
   1   1  -5  734.03   49.99
  -1  -1  -5  814.92   48.80
   1  -1   5  645.34   49.00
  -1   1   5  652.63   48.80
  -1   1   5  632.04   48.80
   1   1  -5  782.72   48.80
   1   1  -5  772.92   48.60
  -1  -1  -5  747.33   49.40
   1  -1   5  671.33   47.70
   1   2   5 2285.97  153.58
  -1  -2   5 2284.87  153.28
   1  -2  -5 2182.88  154.88
  -1   2  -5 2231.18  155.18
   1  -2  -5 2193.98  152.98
  -1  -2   5 2353.86  153.58
   1  -2   5 2326.87  154.18
  -1   2   5 2375.26  153.88
  -1   2   5 2494.35  153.08
  -1  -2  -5 2191.48  153.48
  -1  -2  -5 2178.38  154.48
  -1  -2  -5 2184.08  153.08
   1  -2   5 2439.96  152.28
   1   2  -5 2228.28  154.88
   1  -2   5 2346.07  152.28
   1   2  -5 2286.07  153.28
  -1   3  -5  541.55   37.80
  -1  -3   5  454.05   35.80
  -1  -3   5  462.55   35.30
   1  -3  -5  553.04   38.70
   1   3   5  443.36   35.60
   1  -3   5  471.05   34.10
  -1  -3  -5  573.54   35.00
  -1   3   5  452.25   36.00
  -1  -3  -5  577.04   34.70
   1  -3   5  481.65   34.40
   1   3  -5  544.05   37.60
   1  -3   5  451.85   36.60
  -1  -3  -5  578.04   37.90
   1  -4  -5  253.57   24.60
  -1  -4   5  281.77   22.50
  -1   4  -5  267.57   23.40
   1   4   5  275.27   21.60
  -1  -4   5  269.17   21.30
   1   4  -5  255.27   23.10
  -1  -4  -5  273.77   24.10
  -1  -4  -5  280.57   19.40
   1  -4   5  267.87   19.50
  -1   4   5  289.97   21.80
   1  -4   5  311.97   24.40
  -1  -4  -5  272.87   19.30
   1  -4   5  275.37   20.30
   1  -5  -5  159.78   18.50
   1   5   5   96.69   12.20
  -1   5  -5  131.89   14.90
  -1  -5   5  110.09   12.80
  -1  -5   5  103.19   14.20
  -1   5   5  100.99   12.40
   1  -5   5  103.69   15.30
  -1  -5  -5  144.99   17.00
   1   5  -5  161.28   16.60
   1  -6  -5  541.95   45.20
  -1   6  -5  506.25   38.70
   1   6   5  549.35   40.20
  -1  -6   5  545.85   40.60
  -1  -6   5  530.95   42.90
  -1   6  -5  540.05   42.30
  -1  -6  -5  528.45   44.70
   1   6  -5  549.45   42.00
  -1   6   5  546.15   40.10
   1  -6   5  519.25   43.90
  -1  -7   5   23.20    9.90
   1  -7  -5   31.20   14.60
  -1   7  -5   30.30   11.90
  -1  -7   5   28.80   13.50
   1   7   5   28.40   10.60
  -1   7  -5   25.40    8.10
   1  -7   5   23.60   15.00
   1   7  -5   34.60   11.10
  -1   7   5   22.90    9.20
  -1  -7  -5   30.90   13.30
  -1  -8   5   54.49   13.10
  -1   8  -5   54.49   14.60
   1   8   5   53.09   12.80
  -1  -8   5   57.89   17.60
   1  -8  -5   56.79   18.00
   1   8  -5   66.99   15.20
   1  -8   5   53.79   17.70
  -1  -8  -5   63.19   17.90
  -1   8   5   47.40   11.90
   1   9   5   99.59   17.10
  -1  -9   5   89.89   17.20
   1  -9  -5  113.59   24.30
  -1  -9   5  115.99   22.50
  -1   9  -5  103.79   18.80
   1   9  -5   92.39   18.80
  -1   9   5  115.79   17.10
   1  -9   5  102.29   22.70
  -1  -9  -5  107.89   24.00
   1 -10  -5   27.50   22.10
   1  10   5   29.50   14.90
  -1 -10   5   45.50   19.20
  -1 -10  -5   42.10   22.00
  -1  10   5   40.10   15.60
   1 -10   5   43.60   22.20
   2   0   5 1126.29   75.79
   2   0   5 1144.19   76.89
  -2   0   5 1104.09   76.59
  -2   0  -5 1191.78   75.89
   2   0  -5 1137.39   76.19
   2   0  -5 1097.99   77.39
  -2   0  -5 1084.79   77.99
  -2  -1   5 2281.07  161.58
  -2   1  -5 2556.64  160.18
  -2  -1   5 2252.37  161.08
   2   1   5 2284.07  161.18
   2   1   5 2331.37  161.88
  -2   1  -5 2474.05  163.38
  -2   1  -5 2528.45  160.28
   2  -1  -5 2371.36  162.08
   2  -1  -5 2421.56  162.38
   2   1  -5 2578.54  161.18
  -2  -1  -5 2418.06  162.78
   2  -1   5 2224.38  161.78
   2   1  -5 2528.15  162.98
  -2   1   5 2326.67  161.98
  -2  -1  -5 2658.33  161.48
  -2   1   5 2298.37  161.78
  -2  -2   5  473.85   30.50
  -2   2  -5  358.56   31.90
   2   2   5  455.35   30.20
  -2  -2   5  466.25   29.80
   2  -2  -5  389.46   29.80
   2  -2  -5  389.56   31.80
  -2  -2  -5  393.96   30.00
   2  -2   5  457.95   31.20
  -2   2   5  463.95   30.70
   2   2  -5  368.66   31.80
  -2   2   5  472.15   30.10
   2   2  -5  419.06   29.80
  -2  -2  -5  396.26   31.00
  -2  -3   5   76.09    8.10
   2   3   5   71.49    8.40
  -2  -3   5   77.09    8.60
   2  -3   5   84.19   10.50
  -2   3   5   74.69    6.70
  -2   3   5   75.29    8.80
   2   4   5  797.92   55.19
  -2   4  -5  677.23   53.19
  -2   4  -5  724.13   56.89
   2  -4  -5  726.33   58.09
   2   4   5  851.41   54.29
  -2  -4   5  771.02   55.29
  -2  -4   5  827.22   55.39
   2  -4   5  847.52   57.49
  -2   4   5  801.72   55.39
   2  -4   5  890.21   53.19
  -2  -4  -5  778.02   54.29
   2   4  -5  737.63   56.79
  -2  -4  -5  762.12   57.29
   2  -5  -5  653.33   54.89
   2   5   5  707.83   51.19
  -2  -5   5  734.03   51.99
   2   5   5  786.02   49.70
  -2   5  -5  669.33   52.89
  -2  -5   5  744.33   51.59
  -2   5  -5  683.23   49.50
  -2  -5  -5  681.63   53.99
  -2  -5  -5  711.23   49.40
   2   5  -5  669.53   52.89
   2  -5   5  760.12   48.90
   2  -5   5  737.43   54.39
  -2   5   5  703.43   51.09
   2   6   5 1076.19   74.59
  -2   6  -5 1103.79   73.19
  -2  -6   5 1061.69   74.89
  -2   6  -5 1107.29   76.79
   2  -6  -5 1055.69   79.49
  -2  -6   5 1059.19   75.89
   2  -6   5  995.40   77.99
   2   6  -5 1034.50   76.59
  -2  -6  -5 1053.29   77.89
  -2   6   5 1011.20   74.29
  -2   7  -5  169.48   18.30
  -2   7  -5  177.68   21.70
   2  -7  -5  173.68   26.30
  -2  -7   5  197.48   19.90
   2   7   5  206.58   20.60
  -2  -7   5  204.68   23.20
  -2  -7  -5  182.98   24.80
  -2   7   5  234.88   21.30
   2  -7   5  229.48   27.60
   2   7  -5  166.38   21.40
  -2  -8   5  248.38   26.90
  -2  -8   5  279.17   30.10
   2  -8  -5  287.07   34.80
  -2   8  -5  264.07   28.40
   2   8   5  282.17   26.70
  -2  -8  -5  297.07   33.60
   2   8  -5  266.47   29.40
  -2   8   5  251.87   26.60
   2  -8   5  297.77   35.80
   2  -9  -5   39.10   21.70
  -2  -9   5   56.99   17.90
  -2  -9   5   59.59   15.10
  -2   9  -5   40.80   15.30
   2   9   5   67.69   15.50
  -2   9   5   73.69   15.40
   2   9  -5   48.60   16.80
  -2  -9  -5   54.49   20.10
   2  -9   5   61.89   22.20
   2  10   5   49.90   18.60
  -2 -10  -5   96.69   24.30
  -2  10   5   59.79   16.60
   2 -10   5   80.69   23.60
  -3   0  -5    0.80    2.40
   3   0  -5    1.00    3.10
   3   0   5    2.00    3.50
   3   0  -5   -2.10    2.20
   3   0  -5    1.00    5.00
  -3   0  -5   -1.50    5.20
  -3   0   5   -1.30    3.30
  -3   1  -5 1270.07   80.39
  -3  -1   5 1232.08   81.89
  -3   1  -5 1175.98   80.29
  -3   1  -5 1160.78   83.99
   3   1   5 1237.18   81.89
  -3  -1   5 1250.07   80.89
   3   1   5 1306.27   81.49
   3  -1  -5 1135.69   82.49
   3  -1  -5 1106.59   82.39
   3   1  -5 1162.68   80.69
   3  -1   5 1240.88   82.19
  -3  -1  -5 1064.49   83.49
   3   1  -5 1184.58   83.39
  -3   1   5 1265.97   82.09
  -3   2  -5 2524.55  175.78
  -3  -2   5 2604.24  172.48
   3  -2  -5 2414.66  174.88
   3  -2  -5 2645.14  173.58
  -3  -2   5 2534.75  173.68
   3   2   5 2555.34  174.18
   3   2   5 2558.94  173.68
   3   2   5 2556.34  173.38
  -3   2   5 2777.62  174.48
   3   2  -5 2584.74  175.38
  -3   2   5 2614.14  173.88
   3   2  -5 2642.34  172.78
   3  -2   5 2533.65  174.18
   3  -3  -5  708.73   53.69
   3  -3  -5  708.63   50.09
  -3  -3   5  729.43   50.09
   3   3   5  730.03   51.19
  -3  -3   5  755.72   51.69
   3   3   5  674.03   51.49
  -3   3  -5  742.13   53.69
   3   3  -5  692.83   53.39
  -3   3   5  745.93   51.59
  -3   3   5  771.02   51.29
   3   3  -5  781.62   51.09
  -3  -3  -5  701.93   52.09
   3  -3   5  769.32   53.09
  -3  -4   5  243.78   22.40
  -3   4  -5  252.47   24.70
   3   4   5  268.17   22.50
  -3  -4   5  298.37   21.60
  -3   4  -5  286.97   19.90
   3  -4  -5  265.57   26.00
   3   4   5  289.07   22.70
   3  -4   5  273.47   24.90
   3   4  -5  290.47   24.90
  -3  -4  -5  268.87   24.00
  -3   4   5  282.77   23.10
   3  -4   5  284.27   19.60
  -3   4   5  294.97   21.20
  -3   4   5  303.07   20.70
  -3  -5   5  781.02   55.19
  -3   5  -5  782.52   53.49
  -3  -5   5  741.83   55.89
  -3   5  -5  685.93   57.19
   3   5   5  774.22   55.19
   3  -5  -5  777.62   59.89
   3   5   5  833.22   55.89
  -3   5   5  798.72   55.49
  -3   5   5  848.52   52.69
  -3  -5  -5  775.22   57.69
   3   5  -5  738.73   57.49
   3  -5   5  742.23   58.39
  -3   6  -5  343.47   28.90
  -3  -6   5  260.57   25.30
  -3  -6   5  248.28   24.80
  -3   6  -5  370.26   23.60
   3  -6  -5  346.77   33.40
   3   6   5  272.87   24.10
   3   6   5  267.97   25.90
  -3   6   5  260.47   24.50
   3  -6   5  248.68   29.30
   3   6  -5  317.67   27.90
  -3  -6  -5  347.17   30.00
   3  -7  -5   85.49   20.80
  -3  -7   5  135.09   16.70
  -3   7  -5   61.79   15.30
   3   7   5  118.49   15.50
  -3  -7   5  127.79   16.60
   3  -7   5  114.09   20.10
  -3  -7  -5   90.79   18.00
  -3   7   5  131.19   14.90
   3   7  -5   80.99   16.10
  -3  -8   5   99.39   17.40
   3   8   5   90.39   16.70
  -3   8  -5  112.79   17.60
   3  -8  -5  144.49   25.20
  -3  -8   5  141.09   19.40
  -3   8   5  112.69   15.80
  -3  -8  -5  110.99   21.50
   3  -8   5  105.99   22.10
   3   8  -5  128.09   20.20
   3  -9  -5  836.52   68.89
  -3   9  -5  708.13   64.39
  -3  -9   5  812.42   61.89
   3   9   5  833.52   62.49
   3  -9   5  865.81   68.09
   3   9  -5  772.32   63.39
  -3  -9  -5  720.63   64.79
  -3   9   5  805.32   59.79
  -3 -10   5  117.09   29.10
  -3 -10  -5  131.39   24.60
  -3  10   5   78.19   18.10
   4   0  -5 1040.50   69.19
   4   0   5 1038.10   69.49
  -4   0   5  960.90   69.49
  -4   0  -5  996.00   68.49
   4   0  -5 1010.60   70.99
  -4   0  -5 1026.20   68.69
   4   0  -5 1003.10   68.19
  -4   0  -5  992.90   72.39
  -4  -1   5 3099.09  211.88
   4  -1  -5 3093.09  212.78
  -4   1  -5 3188.18  210.38
  -4   1  -5 3154.08  210.58
   4  -1  -5 3110.69  212.38
  -4   1  -5 3131.59  214.58
   4   1   5 3165.88  211.68
   4   1  -5 3031.80  213.68
   4  -1   5 3176.18  212.08
  -4   1   5 3277.57  212.08
   4   1  -5 3162.68  210.68
   4   1  -5 3287.97  210.28
  -4  -1  -5 3110.39  211.58
  -4  -2   5  191.28   16.00
   4  -2  -5  176.58   17.10
   4   2   5  179.18   15.20
   4   2   5  189.48   17.30
   4  -2  -5  176.38   15.40
  -4  -2   5  200.58   12.80
  -4   2  -5  156.78   12.70
   4   2   5  186.28   14.90
  -4   2  -5  162.68   12.50
  -4   2  -5  170.48   18.70
   4  -2   5  199.68   16.20
   4   2  -5  156.48   17.60
  -4   2   5  181.58   15.70
   4   2  -5  170.08   13.00
  -4   3  -5  851.81   60.79
  -4   3  -5  947.21   55.09
  -4  -3   5  755.32   57.69
   4   3   5  735.33   58.39
   4  -3  -5  859.91   56.79
   4  -3  -5  861.21   60.29
  -4  -3   5  751.92   55.39
   4   3   5  750.62   57.29
   4   3  -5  901.91   56.39
  -4   3   5  736.93   57.29
   4   3  -5  835.62   59.99
   4  -3   5  831.92   55.19
  -4  -3  -5  838.42   58.19
   4  -3   5  768.72   58.59
  -4   4  -5  404.46   26.30
   4  -4  -5  360.46   33.10
   4  -4  -5  399.66   27.30
  -4  -4   5  326.17   29.30
  -4   4  -5  363.96   31.80
  -4  -4   5  367.16   26.90
   4   4   5  370.06   30.30
   4   4   5  353.86   29.60
   4  -4   5  341.17   31.10
   4   4  -5  365.76   31.70
   4  -4   5  371.86   26.30
  -4  -4  -5  405.46   30.90
  -4   4   5  366.16   29.10
   4   4  -5  437.56   28.70
   4  -5  -5  613.74   51.29
  -4   5  -5  539.35   48.00
   4   5   5  697.73   47.40
   4   5   5  641.14   47.40
  -4  -5   5  615.74   47.20
  -4  -5   5  663.63   44.80
  -4   5  -5  609.64   43.70
  -4  -5  -5  573.54   47.90
  -4   5   5  656.53   46.30
  -4   5   5  738.03   44.60
   4   5  -5  554.94   48.30
   4  -5   5  620.34   49.30
   4   6   5  808.02   61.29
  -4  -6   5  808.82   61.59
   4  -6  -5  968.40   68.19
   4   6   5  793.82   61.19
  -4  -6   5  820.22   59.69
  -4   6  -5  974.60   64.59
   4   6  -5  935.31   64.69
  -4  -6  -5  916.21   64.29
  -4   6   5  767.52   60.19
   4  -6   5  721.43   63.99
   4  -7  -5  292.37   34.50
   4   7   5  295.87   28.40
  -4  -7   5  329.87   30.00
  -4   7  -5  293.27   30.50
   4   7  -5  279.07   31.20
  -4   7   5  330.57   27.90
  -4  -7  -5  295.67   31.40
   4  -7   5  320.87   33.20
  -4  -8   5  208.78   26.90
   4  -8  -5  364.46   37.20
  -4   8  -5  276.27   28.40
   4   8   5  270.47   28.50
  -4  -8  -5  287.87   32.60
  -4   8   5  242.98   25.70
   4  -8   5  270.37   33.60
   4   8  -5  360.76   32.70
   4  -9  -5  209.58   31.00
   4   9   5  199.58   25.70
  -4  -9   5  184.88   24.10
   4   9  -5  160.38   25.70
  -4   9   5  213.28   23.10
   4  -9   5  229.38   31.50
  -4  -9  -5  196.08   29.20
  -4 -10   5  107.39   21.30
  -4 -10  -5  114.99   24.80
   5   0  -5    1.50    6.40
   5   0   5    2.00    4.30
  -5   0  -5   -3.50    8.00
  -5   0  -5   -0.20    3.40
   5   0  -5    1.40    2.50
  -5   0   5    9.90    5.30
   5   0  -5    4.00    3.80
   5  -1  -5  696.03   48.90
   5   1   5  623.24   47.00
  -5   1  -5  676.13   45.90
  -5  -1   5  582.34   47.50
   5  -1  -5  735.23   48.20
  -5   1  -5  686.73   51.59
   5   1   5  674.63   49.90
  -5   1  -5  667.23   46.30
  -5  -1  -5  684.93   47.10
  -5   1   5  615.04   47.50
   5   1  -5  704.03   50.09
   5   1  -5  683.03   44.90
   5  -1   5  615.14   47.50
   5   1  -5  730.53   45.20
   5   2   5 2189.58  146.19
  -5   2  -5 2206.18  149.99
   5  -2  -5 2261.27  147.09
  -5   2  -5 2124.49  144.49
  -5  -2   5 2068.19  146.59
  -5   2  -5 2189.48  144.89
   5   2   5 2152.48  148.49
   5  -2  -5 2148.58  147.79
  -5   2   5 2097.59  146.59
   5   2  -5 2090.19  148.79
   5  -2   5 2227.68  147.09
  -5  -2  -5 2182.78  146.59
   5   3   5  182.58   22.00
  -5   3  -5  275.87   17.00
   5  -3  -5  265.87   19.40
  -5   3  -5  252.97   24.00
  -5  -3   5  188.38   20.70
   5  -3  -5  251.67   22.80
  -5  -3  -5  233.18   20.10
   5  -3   5  203.28   21.80
  -5   3   5  176.58   19.40
   5  -3   5  232.28   18.00
   5   3  -5  248.38   23.30
   5   4   5   -3.50    6.10
   5  -4  -5    6.90    5.00
  -5  -4   5    2.40    2.50
   5  -4  -5  -10.90    8.70
  -5   4  -5    0.50    9.00
  -5  -4   5   -3.00    6.90
   5   4   5    2.80    7.60
  -5   4  -5   11.50    3.60
   5  -4   5    4.20    9.60
   5   4  -5   -3.10    8.60
  -5   4   5    0.30    6.20
  -5  -4  -5    1.20    7.00
   5  -5  -5   78.29   15.20
  -5  -5   5   69.19   12.10
   5   5   5   57.79   11.00
  -5   5  -5   77.29   14.30
   5   5   5   65.29   13.20
  -5   5   5   62.89   10.50
  -5  -5  -5   61.29   11.90
   5  -5   5   51.79   13.40
   5   5  -5   87.59   14.90
  -5   5   5   62.59    9.20
   5  -6  -5  666.03   53.59
  -5   6  -5  596.64   50.99
   5   6   5  649.64   48.50
   5   6   5  714.73   50.49
  -5  -6   5  606.94   49.30
  -5  -6  -5  621.84   50.19
   5  -6   5  641.54   51.69
  -5   6   5  675.83   48.20
   5   6  -5  568.94   50.49
   5   7   5   77.99   14.80
  -5  -7   5   69.29   14.70
   5  -7  -5  108.49   22.20
  -5   7  -5   91.49   16.60
  -5   7   5   92.09   14.20
   5   7  -5   84.49   17.10
  -5  -7  -5   87.29   16.70
   5  -7   5   55.99   17.60
  -5  -8   5   56.59   14.70
  -5   8  -5   34.80   15.40
   5   8   5   60.49   14.50
   5  -8  -5   57.29   20.10
   5   8  -5   46.10   16.70
  -5   8   5   45.60   13.60
  -5  -8  -5   46.50   16.30
   5  -8   5   79.59   19.70
   5   9   5  240.78   30.30
  -5  -9   5  227.68   28.50
   5  -9  -5  235.48   33.80
   5  -9   5  240.78   37.10
   5   9  -5  257.07   30.40
  -5   9   5  265.17   25.90
   6   0  -5  962.90   61.99
  -6   0   5  870.71   64.29
   6   0   5  908.21   63.79
   6   0  -5  890.81   66.09
  -6   0  -5  924.51   63.19
   6   0  -5  916.61   62.29
   6  -1  -5  271.17   24.60
   6  -1  -5  257.47   21.60
  -6  -1   5  270.27   22.60
   6   1   5  310.27   21.80
   6   1   5  281.17   25.50
  -6   1  -5  283.67   27.80
  -6   1  -5  247.88   20.00
  -6   1   5  278.47   23.00
   6   1  -5  268.87   25.20
  -6  -1  -5  254.67   21.40
   6  -1   5  273.67   22.30
   6  -2  -5  136.69   15.30
   6  -2  -5  128.49   14.30
   6   2   5  117.69   16.10
   6   2   5  107.19   12.40
  -6  -2   5  103.09   13.30
  -6   2  -5  122.39   18.20
  -6   2  -5  140.89   10.70
  -6   2   5  109.09   13.00
   6  -2   5  109.09   13.90
   6   2  -5  132.69   16.80
  -6  -2  -5  141.09   13.40
  -6  -3   5   56.79   11.30
   6  -3  -5   94.69   11.40
  -6   3  -5  104.09   16.50
   6   3   5   88.89   15.20
  -6   3  -5   97.59    8.50
   6  -3  -5   86.19   13.20
   6   3  -5   93.19   15.50
   6  -3   5   76.49   12.40
  -6   3   5   55.39   10.40
  -6  -3  -5   91.69   11.40
  -6  -3  -5   82.69   12.40
   6  -4  -5 1196.38   84.69
   6   4   5 1165.48   85.09
   6  -4  -5 1195.58   80.89
  -6   4  -5 1209.38   85.59
  -6  -4   5 1099.29   82.49
  -6  -4  -5 1186.78   82.89
   6  -4   5 1192.88   83.69
  -6   4   5 1141.99   81.39
  -6  -4  -5 1147.29   82.29
   6   4  -5 1125.19   84.69
  -6   5  -5  132.79   19.80
  -6  -5   5   91.79   15.40
   6   5   5   86.59   17.50
   6  -5  -5  171.78   21.00
  -6   5   5  107.19   18.50
   6   5  -5  149.59   19.50
   6  -5   5  108.99   17.70
  -6  -5  -5  127.79   17.30
  -6   5   5   98.09   13.90
  -6  -5  -5  132.49   16.10
  -6   6  -5   75.29   16.50
   6   6   5   72.89   15.70
  -6  -6   5   65.69   15.10
   6  -6  -5   67.49   17.10
   6  -6   5   78.59   17.70
  -6   6   5   61.79   11.70
  -6  -6  -5   58.39   13.60
  -6  -6  -5   65.59   13.90
   6   6  -5   41.90   14.40
  -6  -7   5  353.16   34.50
   6  -7  -5  389.36   39.80
  -6   7  -5  398.96   37.30
  -6  -7  -5  379.16   35.80
   6  -7   5  407.36   38.20
   6   7  -5  382.26   37.90
  -6   7   5  348.87   32.30
  -6  -8   5  108.29   19.30
   6  -8  -5  126.89   23.90
  -6   8  -5   90.59   19.70
  -6   8   5   97.09   15.70
   6  -8   5  124.49   23.70
  -6  -8  -5  105.19   19.90
   6   8  -5   99.99   21.50
  -6  -9   5   26.80   19.50
   6   9  -5   26.60   17.50
  -6   9   5   36.80   14.00
   7   0  -5    5.40    8.40
   7   0   5    0.70    5.90
  -7   0  -5   -3.90    4.80
  -7   0   5   -5.60    7.40
   7  -1  -5  640.44   48.60
  -7  -1   5  668.43   47.50
   7  -1  -5  651.03   45.20
   7   1   5  644.74   51.09
  -7   1  -5  584.04   51.89
   7   1   5  603.64   45.70
  -7   1  -5  648.14   44.90
  -7  -1  -5  669.33   46.10
   7   1  -5  625.44   49.60
   7  -1   5  640.14   46.60
  -7   1   5  646.84   47.00
   7  -2  -5  315.87   24.30
   7   2   5  257.97   22.90
  -7  -2   5  260.37   25.00
   7  -2  -5  328.47   26.60
   7   2   5  241.68   27.80
  -7   2  -5  326.37   30.90
  -7   2  -5  313.57   22.00
   7   2  -5  346.07   29.10
  -7  -2  -5  320.67   24.50
  -7   2   5  264.57   24.30
   7  -2   5  264.67   25.00
   7   3   5  586.14   46.30
   7  -3  -5  517.55   41.20
   7  -3  -5  556.44   41.90
  -7   3  -5  543.25   46.00
  -7  -3   5  573.44   42.70
  -7   3   5  592.84   41.40
   7   3  -5  521.05   44.40
   7  -3   5  600.54   42.10
  -7  -3  -5  475.95   40.20
  -7  -3  -5  509.95   41.10
   7  -4  -5  243.28   24.00
  -7   4  -5  227.28   27.10
   7  -4  -5  247.88   20.60
  -7  -4   5  197.48   22.70
   7   4   5  188.38   25.40
   7  -4   5  176.48   22.50
   7   4  -5  243.28   25.60
  -7  -4  -5  262.77   23.90
  -7   4   5  182.38   20.60
  -7  -4  -5  225.98   21.80
   7   5   5  115.39   19.80
   7  -5  -5  102.29   17.00
  -7   5  -5  105.29   18.40
  -7  -5   5  107.99   16.60
   7  -5   5   89.29   16.70
  -7   5   5  127.99   15.60
  -7  -5  -5   99.29   17.00
  -7  -5  -5  102.59   15.20
   7   5  -5  106.99   18.50
  -7  -6   5  172.48   22.20
   7   6   5  155.58   23.10
   7  -6  -5  166.38   22.20
  -7   6  -5  147.89   23.00
  -7   6   5  161.18   18.90
   7   6  -5  157.38   23.50
  -7  -6  -5  133.79   20.10
   7  -6   5  189.78   24.50
  -7  -7   5  105.69   18.60
   7  -7  -5  100.19   19.60
  -7   7  -5  106.79   20.40
  -7   7   5   76.39   14.30
  -7  -7  -5  107.09   19.90
   7  -7   5  113.29   22.30
   7   7  -5   89.99   20.30
  -7   8  -5  127.29   21.30
  -7  -8   5  110.69   20.50
   7  -8  -5  117.39   22.50
  -7   8   5   99.99   17.20
   7  -8   5  113.49   26.00
   7   8  -5  109.89   21.50
  -8   0   5  268.47   22.40
   8   0   5  249.68   20.50
   8   0  -5  170.48   24.10
  -8  -1   5  195.28   19.90
   8   1   5  213.78   17.20
   8  -1  -5  155.28   21.00
   8   1   5  203.98   24.40
  -8   1  -5  154.08   24.30
  -8   1  -5  140.29   16.00
   8  -1   5  209.98   18.50
  -8  -1  -5  163.48   17.70
  -8   1   5  204.78   19.30
   8   1  -5  169.48   21.80
  -8   2  -5   73.09    9.30
   8   2   5  104.69   18.10
   8   2   5   82.99   10.70
  -8   2  -5  104.59   19.40
  -8  -2   5   77.49   13.40
   8  -2  -5   99.69   15.00
   8  -2   5   77.29   12.30
  -8   2   5   77.89   12.20
  -8  -2  -5   76.99   11.40
   8   2  -5   67.99   15.70
  -8  -3   5   81.39   13.50
  -8   3  -5   33.50   15.60
   8  -3  -5   60.59   11.80
   8   3   5   87.29   17.60
   8  -3  -5   57.29   10.80
  -8  -3  -5   50.49   10.30
   8  -3   5   70.79   12.30
  -8   3   5   68.99   12.20
  -8  -3  -5   63.29   11.80
   8   3  -5   58.19   14.90
  -8  -4   5  232.58   26.10
   8  -4  -5  302.97   26.40
   8  -4  -5  281.47   25.40
   8   4   5  261.07   30.10
  -8   4  -5  263.17   30.70
   8  -4   5  229.18   25.70
  -8  -4  -5  280.07   25.90
   8   4  -5  288.07   29.30
  -8   4   5  253.37   25.70
  -8  -5   5  295.77   29.30
   8  -5  -5  262.37   26.80
  -8   5  -5  221.48   29.00
   8   5   5  276.27   32.50
   8  -5   5  238.18   27.00
   8   5  -5  256.87   30.20
  -8  -5  -5  245.78   28.10
  -8   5   5  252.77   25.40
  -8  -6   5  223.28   27.40
   8   6   5  268.97   32.00
  -8   6  -5  245.28   29.30
   8  -6  -5  258.57   28.50
   8   6  -5  233.08   29.20
  -8  -6  -5  253.77   27.60
   8  -6   5  224.38   28.00
  -8   6   5  225.48   23.90
  -8   7  -5  291.37   35.40
  -8  -7   5  328.57   34.00
   8  -7  -5  331.17   35.20
   8   7  -5  319.47   34.70
  -8  -7  -5  345.57   35.40
   8  -7   5  327.77   36.40
  -8   7   5  280.87   30.00
  -8   8   5   19.70   13.90
   9   0   5    6.20    7.60
  -9   0   5   -7.10   10.30
  -9   0  -5   -3.90    6.70
   9   0  -5    2.90   11.30
  -9   1  -5  290.47   33.50
  -9  -1   5  188.38   22.30
  -9   1  -5  241.68   20.20
   9   1   5  189.88   26.90
   9  -1  -5  224.88   25.00
  -9   1   5  197.28   22.10
   9   1  -5  246.68   27.00
  -9  -1  -5  250.67   21.30
   9  -1   5  198.18   21.50
   9   2   5  289.97   32.40
   9  -2  -5  297.67   28.10
  -9  -2   5  278.87   27.60
  -9   2  -5  272.57   33.90
  -9   2   5  308.57   27.70
   9   2  -5  275.27   30.90
   9  -2   5  325.17   26.70
  -9  -2  -5  247.18   25.90
   9  -3  -5  145.69   18.90
  -9  -3   5  158.98   19.80
   9   3   5  156.98   25.20
  -9   3  -5  142.29   24.50
   9   3  -5  139.89   22.20
  -9  -3  -5  130.09   17.50
  -9   3   5  175.08   19.10
   9  -3   5  168.38   19.50
  -9   4  -5  141.69   24.20
  -9  -4   5  131.39   19.70
   9  -4  -5  177.58   20.40
   9   4   5  151.68   25.60
  -9   4   5  151.28   19.10
   9   4  -5  183.88   25.50
  -9  -4  -5  149.09   19.10
   9  -4   5  139.09   19.90
   9   5   5   36.20   19.00
  -9   5  -5   10.40   17.20
  -9  -5   5   42.50   14.60
   9  -5   5   31.50   13.10
  -9  -5  -5   12.50   13.90
   9   5  -5   46.90   18.10
  -9   5   5   47.60   12.90
  -9  -6   5   -0.60   13.60
   9   6   5    5.00   17.20
  -9   6  -5   -4.60   14.40
  -9   6   5    6.10   10.50
   9  -6   5    4.00   12.90
   9   6  -5   14.00   15.00
  -9  -6  -5    5.40   15.00
  -9   7  -5   61.09   20.00
  -9   7   5   28.80   12.60
 -10   0   5   95.09   15.80
  10   0  -5   70.09   18.50
  10  -1  -5  148.99   21.40
 -10   1  -5  144.39   26.20
 -10  -1   5   95.69   16.90
  10   1   5  102.09   22.50
 -10   1   5   91.59   16.40
 -10  -1  -5  144.99   16.00
  10   1  -5  118.69   21.00
 -10  -2   5   -0.80   11.60
  10  -2  -5   12.20   13.40
 -10   2  -5   20.90   18.30
  10   2   5   -8.80   15.50
  10   2  -5    1.60   14.10
 -10  -2  -5   12.90   10.60
 -10   2   5   -3.80    9.90
  10   3   5   64.69   19.70
 -10  -3   5   50.99   14.60
 -10   3  -5   38.60   19.20
  10  -3  -5   52.29   14.60
  10  -3   5   44.90   13.40
  10   3  -5   36.80   16.50
 -10   3   5   50.29   14.70
 -10  -3  -5   44.60   13.70
 -10   4  -5  137.09   26.70
  10   4   5  161.28   26.70
 -10  -4   5  121.39   21.70
  10  -4  -5  169.28   22.00
  10   4  -5  164.78   25.00
 -10  -4  -5  125.09   20.10
 -10   4   5  138.59   19.80
  10  -4   5  154.98   20.80
 -10   5  -5  124.89   25.40
  10   5   5  227.48   30.70
 -10  -5  -5  143.79   22.00
  10  -5   5  165.68   21.70
 -10   5   5  152.08   20.40
  10   6   5   96.09   30.20
 -11   0   5   11.70   12.70
  11   0  -5   16.20   16.40
 -11   0  -5   16.50   21.00
  11  -1  -5    9.20   14.10
 -11  -1   5   -8.50   12.00
  11   1   5   -8.50   17.50
 -11   1  -5   -2.00   18.40
  11   1  -5   14.30   15.50
 -11   1   5   11.80   13.80
 -11   2  -5   27.60   20.50
  11  -2  -5   27.50   14.80
 -11  -2   5   40.50   15.10
  11   2   5   58.09   23.50
 -11   2   5   52.69   15.00
  11   2  -5   39.60   19.00
 -11  -2  -5   20.80   11.50
  11   3   5    1.10   18.30
  11  -3  -5   16.70   15.00
 -11   3   5   -3.80   11.70
 -11  -3  -5   10.00   11.20
 -11  -4  -5   28.30   13.70
 -11   4   5    4.20   19.70
   0   0  -6 3183.98  213.38
   0   0   6 3226.58  212.98
   0   0   6 3135.39  212.28
   0   0  -6 3156.08  212.18
   0   1   6 3784.52  234.08
   0   1   6 3533.95  234.08
   0  -1  -6 3378.46  233.78
   0  -1   6 3566.64  233.88
   0   1   6 3468.75  233.48
   0   1  -6 3488.05  234.78
   0   1  -6 3475.05  232.88
   0  -1   6 3255.17  232.88
   0  -2  -6  691.93   40.10
   0  -2  -6  699.33   42.40
   0   2  -6  699.83   42.60
   0   2   6  486.75   40.30
   0  -2   6  507.25   40.70
   0  -2   6  493.15   39.50
   0   2   6  534.75   40.10
   0   3   6 1988.20  139.39
   0  -3  -6 2163.18  137.79
   0  -3   6 1990.00  138.19
   0  -3  -6 2186.38  141.49
   0  -3  -6 2110.79  137.69
   0  -3   6 2038.80  138.39
   0  -3   6 1991.90  139.79
   0   3  -6 2041.60  140.89
   0   4  -6  646.14   49.50
   0  -4  -6  679.23   50.59
   0  -4   6  693.83   46.90
   0  -4   6  697.83   49.20
   0   4   6  648.24   48.00
   0   5  -6 1856.91  127.09
   0   5   6 1870.21  125.29
   0  -5  -6 1757.72  128.19
   0  -5   6 1838.52  126.89
   0  -5   6 1839.42  124.49
   0  -6  -6 1380.66  102.99
   0  -6   6 1387.36  101.39
   0   6  -6 1373.26  100.99
   0  -6   6 1450.45   98.59
   0   6   6 1546.95   99.59
   0  -7   6  182.68   23.10
   0  -7  -6  101.89   21.70
   0   7   6  179.98   18.30
   0  -7   6  183.18   18.10
   0   7  -6  116.79   18.60
   0  -8  -6  802.22   67.99
   0   8   6  841.22   61.19
   0   8  -6  758.42   62.69
   0  -8   6  890.21   66.79
   0  -9   6   49.30   20.30
   0   9   6   57.79   14.40
   0  -9  -6   71.69   22.80
   0   9  -6   93.99   18.80
   0 -10  -6  262.87   40.90
   0 -10   6  252.77   34.40
   0  10   6  212.38   28.70
   1   0  -6    0.20    3.30
   1   0   6   -0.30    3.30
  -1   0   6   -1.30    2.70
  -1   0   6   -0.90    2.80
  -1   0  -6    2.70    2.20
  -1   0  -6    7.10    4.80
   1   0   6    0.70    2.00
  -1  -1   6 1141.69   80.79
   1   1   6 1222.58   81.59
  -1   1  -6 1231.68   82.39
   1   1   6 1076.99   81.09
  -1  -1   6 1098.69   80.39
   1  -1  -6 1263.17   81.09
   1  -1  -6 1288.87   81.79
   1   1   6 1081.29   80.29
  -1   1  -6 1288.77   79.69
   1  -1   6 1125.69   79.59
   1   1  -6 1348.97   80.49
  -1   1   6 1064.49   80.69
   1  -1   6 1130.59   81.09
  -1   1   6 1165.78   80.99
   1   1  -6 1291.67   82.19
  -1  -1  -6 1253.47   81.49
   1  -2  -6 4180.58  286.77
  -1  -2   6 4126.69  285.07
  -1  -2   6 4119.59  285.47
   1   2   6 4052.49  285.27
   1  -2  -6 4279.97  285.07
  -1   2  -6 4390.66  287.37
  -1  -2  -6 4307.97  285.07
   1  -2   6 4480.55  284.07
   1   2  -6 4605.04  285.17
  -1  -2  -6 4251.77  285.47
   1  -2   6 4318.27  284.07
  -1   2   6 4519.65  285.17
  -1   2   6 4045.40  285.57
  -1  -2  -6 4240.08  286.67
   1   2  -6 4257.37  286.97
   1  -2   6 4138.49  285.97
   1   3   6  723.73   47.70
  -1  -3   6  691.33   47.70
   1  -3  -6  607.24   49.50
   1  -3  -6  627.64   45.70
  -1   3  -6  577.54   49.10
  -1  -3   6  734.53   47.20
  -1  -3  -6  594.74   48.90
  -1  -3  -6  597.74   46.50
  -1  -3  -6  630.34   46.30
   1  -3   6  734.43   45.90
  -1   3   6  781.32   45.90
   1  -3   6  740.63   45.80
   1  -3   6  744.63   48.80
   1   3  -6  601.64   49.20
  -1   3   6  755.22   48.10
   1   4   6  413.26   32.30
  -1  -4   6  416.86   32.60
  -1   4  -6  424.36   34.20
   1  -4  -6  440.16   35.30
  -1  -4   6  425.26   31.60
  -1  -4  -6  436.56   29.80
  -1   4   6  398.86   32.00
   1  -4   6  439.26   29.90
   1  -4   6  454.45   30.50
   1   4  -6  461.45   34.80
   1  -4   6  431.36   33.80
  -1  -4  -6  428.26   34.60
  -1  -4  -6  454.15   29.80
  -1  -5   6  773.42   56.89
   1   5   6  791.72   55.99
  -1  -5   6  869.01   55.99
  -1   5  -6  729.13   57.59
   1  -5  -6  774.82   59.79
  -1  -5  -6  712.23   58.99
   1  -5   6  828.32   58.49
   1  -5   6  847.32   54.79
  -1   5   6  778.52   56.09
   1   5  -6  740.63   57.69
   1  -6  -6  628.74   53.79
  -1  -6   6  653.83   50.89
  -1   6  -6  635.74   51.69
   1   6   6  753.62   49.90
  -1  -6   6  682.13   49.50
   1   6  -6  689.33   52.19
  -1   6   6  645.04   49.20
   1  -6   6  672.73   52.69
   1  -6   6  688.53   48.30
  -1  -6  -6  679.53   53.49
   1   7   6   36.50   11.30
  -1  -7   6   43.50   13.80
  -1  -7   6   35.50   10.10
   1  -7  -6   35.30   14.90
  -1   7  -6   41.20   12.30
  -1   7   6   28.80   10.40
  -1  -7  -6   60.49   15.40
   1   7  -6   41.10   13.50
   1  -7   6   32.30   15.40
   1  -7   6   43.00   10.80
  -1  -8   6   86.69   17.50
   1  -8  -6   84.49   20.50
  -1   8  -6   80.29   16.00
  -1  -8   6   75.29   14.60
   1   8   6   80.79   15.40
  -1   8   6   60.19   14.60
  -1  -8  -6   99.59   21.40
   1  -8   6   88.29   19.70
   1   8  -6   70.49   16.20
   1  -9  -6  644.74   56.99
  -1  -9   6  545.45   50.69
  -1   9  -6  560.34   48.80
   1   9   6  494.45   47.00
  -1   9   6  561.64   46.70
  -1  -9  -6  600.24   54.69
   1  -9   6  558.84   53.59
   1   9  -6  610.64   49.99
  -1 -10   6   92.69   23.00
  -1 -10  -6  104.69   26.00
   1 -10   6  109.09   26.60
  -1  10   6   92.59   20.90
   2   0   6  633.14   40.50
  -2   0   6  617.34   39.90
  -2   0  -6  477.95   41.00
   2   0   6  637.04   39.00
   2   0  -6  463.55   40.40
  -2   0  -6  526.95   39.00
  -2   0   6  628.44   40.10
  -2   1  -6  709.83   51.59
   2  -1  -6  735.13   49.99
  -2   1  -6  721.73   47.80
   2   1   6  694.73   48.90
  -2  -1   6  732.23   49.10
   2   1   6  745.63   50.09
  -2  -1   6  685.03   49.30
   2  -1  -6  729.73   50.29
  -2   1   6  695.23   49.60
   2  -1   6  720.63   47.90
   2   1  -6  716.23   50.89
   2   1  -6  727.63   49.00
  -2  -1  -6  699.63   50.79
  -2   1   6  724.23   50.39
   2  -1   6  679.33   49.80
  -2  -2   6   50.29    6.20
  -2   2  -6   84.89   10.40
   2  -2  -6   78.59    9.70
  -2  -2   6   55.09    6.80
   2   2   6   49.60    7.30
   2   2   6   53.89    6.70
   2   2  -6   70.19    9.30
  -2   2   6   49.40    6.40
  -2   2   6   54.39    7.30
  -2  -2  -6   82.09    8.70
   2  -2   6   45.40    7.50
   2  -3  -6  612.34   43.50
  -2  -3   6  690.63   44.80
  -2   3  -6  626.64   47.40
   2  -3  -6  591.34   47.60
  -2  -3   6  685.53   45.20
   2   3   6  708.83   45.30
  -2  -3  -6  564.84   46.10
  -2  -3  -6  608.44   44.40
   2   3  -6  567.84   46.60
  -2  -3  -6  539.95   44.90
  -2   3   6  692.23   45.60
  -2   3   6  713.33   43.80
   2  -3   6  698.13   46.60
  -2   4  -6 1130.09   72.19
   2  -4  -6 1076.69   72.59
  -2  -4   6  915.71   68.49
   2   4   6  872.51   68.59
  -2  -4   6  925.61   68.69
  -2  -4  -6 1155.48   68.09
   2  -4   6  987.40   66.59
   2   4  -6 1064.39   71.29
  -2  -4  -6 1061.69   68.39
  -2  -4  -6 1101.49   71.49
   2  -4   6  916.21   70.49
   2  -4   6  899.81   66.39
  -2   4   6  859.01   68.79
  -2  -5   6  597.44   45.10
  -2  -5   6  583.24   44.60
  -2   5  -6  620.54   47.20
   2   5   6  623.24   45.00
   2  -5  -6  575.34   48.50
  -2  -5  -6  652.03   47.70
   2  -5   6  634.24   42.70
  -2   5   6  593.24   44.60
   2  -5   6  627.44   47.60
  -2  -5  -6  587.94   42.80
   2   5  -6  647.24   47.20
   2   6   6  466.95   34.10
  -2  -6   6  467.65   35.20
  -2  -6   6  458.65   34.50
   2  -6  -6  410.26   38.90
  -2   6  -6  399.56   35.70
  -2  -6  -6  379.76   37.50
   2  -6   6  450.55   32.20
   2   6  -6  378.46   35.80
   2  -6   6  424.86   37.80
  -2   6   6  451.75   34.00
  -2   7  -6  156.48   20.70
  -2  -7   6  150.48   19.80
   2  -7  -6  179.88   25.90
   2   7   6  166.08   18.50
  -2  -7   6  164.08   19.00
  -2  -7  -6  147.89   21.70
  -2   7   6  147.39   17.80
   2   7  -6  162.68   21.70
   2  -7   6  187.28   24.50
   2  -8  -6  307.07   36.60
  -2   8  -6  321.77   32.40
   2   8   6  314.47   29.50
  -2  -8   6  349.57   30.40
  -2  -8   6  322.67   32.20
   2   8  -6  317.17   31.50
  -2   8   6  301.67   28.70
   2  -8   6  321.97   35.70
  -2  -8  -6  282.57   35.20
  -2   9  -6    8.60   12.70
   2  -9  -6    9.80   20.30
   2   9   6   -1.10   12.40
  -2  -9   6   16.10   14.90
   2  -9   6   31.70   20.50
  -2   9   6   14.40   11.80
   2   9  -6   14.10   14.80
  -2  -9  -6    9.30   15.30
  -2 -10  -6  141.89   28.40
   3   0  -6   -0.90    5.20
   3   0   6    0.30    4.00
  -3   0  -6    9.00    6.20
   3   0  -6    0.70    3.40
  -3   0   6   -2.70    4.10
  -3   0  -6    1.10    2.50
   3   0  -6    0.00    2.70
   3   0   6    1.60    2.50
  -3  -1   6  521.95   35.10
  -3  -1   6  527.15   34.00
  -3   1  -6  489.15   33.00
   3   1   6  518.35   35.20
   3  -1  -6  471.55   35.60
   3  -1  -6  454.85   35.60
   3   1   6  528.15   34.30
  -3   1  -6  452.25   37.20
  -3   1  -6  469.85   32.90
  -3   1   6  517.55   35.20
  -3  -1  -6  436.06   36.90
   3  -1   6  520.35   35.40
   3   1  -6  456.35   36.40
   3   1  -6  453.55   33.70
   3   2   6  655.43   43.40
  -3  -2   6  641.34   42.60
   3   2   6  618.04   43.90
   3  -2  -6  607.44   43.60
  -3  -2   6  630.64   43.60
  -3   2  -6  571.74   46.00
   3  -2  -6  599.04   45.40
   3  -2   6  618.24   44.40
   3   2  -6  626.54   42.60
   3   2  -6  585.94   45.50
  -3  -2  -6  571.44   45.30
  -3   2   6  663.03   44.20
   3   3   6   80.99    9.00
  -3   3  -6   52.79   10.90
   3  -3  -6   55.99    7.10
   3  -3  -6   43.00   10.00
  -3  -3   6   64.59    8.40
  -3  -3   6   76.99    7.50
  -3  -3  -6   45.70    9.50
   3  -3   6   76.59   10.80
  -3   3   6   84.09    8.30
  -3  -3  -6   50.99    9.00
   3   3  -6   47.10    9.80
  -3   3   6   71.19    9.00
  -3  -4   6  130.19   12.70
   3  -4  -6  150.08   11.00
  -3  -4   6  130.19   14.70
   3   4   6  136.99   14.80
  -3   4  -6  155.38   17.70
   3  -4  -6  155.88   19.00
  -3  -4  -6  145.59   16.10
  -3   4   6  125.19   14.30
  -3   4   6  141.99   11.50
   3  -4   6  145.79   17.30
   3   4  -6  140.19   16.60
  -3  -5   6   36.60    9.60
   3  -5  -6   62.29   13.90
  -3  -5   6   41.30    7.90
   3   5   6   48.70    8.00
  -3   5  -6   66.39   12.80
   3   5   6   43.30    9.10
   3   5  -6   67.99   12.30
   3  -5   6   41.40    7.60
  -3  -5  -6   69.59   12.30
   3  -5   6   48.90   12.50
  -3   5   6   47.80    9.20
   3  -6  -6  371.86   33.70
  -3   6  -6  363.86   30.30
   3   6   6  268.87   26.60
  -3  -6   6  295.87   26.30
  -3  -6   6  279.67   27.50
   3   6  -6  371.46   30.40
   3  -6   6  270.57   32.00
  -3  -6  -6  381.86   30.90
  -3   6   6  304.17   26.60
  -3  -7   6   37.80   10.90
   3   7   6   29.00   10.90
  -3  -7   6   27.70   11.80
   3  -7  -6   26.90   15.10
  -3   7  -6   37.90   13.80
  -3   7   6   32.50   11.40
   3   7  -6   31.50   13.70
   3  -7   6   30.10   15.10
  -3  -7  -6   34.20   14.40
  -3   8  -6    2.20   12.90
  -3  -8   6   15.10   11.30
   3   8   6   -6.40   10.80
  -3  -8   6    4.80   11.90
   3  -8  -6   20.00   16.70
  -3  -8  -6   17.20   15.40
   3   8  -6   10.10   14.90
  -3   8   6    2.00    9.80
   3  -8   6   14.70   16.10
  -3   9  -6   63.89   17.70
   3  -9  -6   79.09   22.70
   3   9   6   55.59   15.90
  -3  -9   6   41.60   15.40
   3   9  -6   57.29   18.60
  -3   9   6   35.90   13.20
  -3  -9  -6   73.79   20.90
   3  -9   6   68.29   23.70
  -3 -10  -6   55.09   21.90
   4   0  -6  615.84   42.50
  -4   0  -6  586.24   46.80
   4   0  -6  632.54   43.70
   4   0  -6  563.24   45.10
  -4   0  -6  634.54   42.80
   4   0   6  655.93   44.20
  -4   0   6  650.63   44.10
  -4   0  -6  590.64   42.60
   4   1   6  303.57   19.90
   4   1   6  305.87   20.90
  -4   1  -6  249.88   18.60
  -4   1  -6  242.08   18.30
  -4  -1   6  317.67   21.30
  -4   1  -6  252.87   24.10
   4  -1  -6  224.98   21.20
   4  -1  -6  247.08   21.40
  -4   1   6  314.07   21.30
   4   1  -6  231.78   23.20
   4   1  -6  247.18   19.30
  -4  -1  -6  231.68   24.30
   4   1  -6  230.08   18.50
   4  -1   6  308.67   21.30
   4   2   6  220.08   16.70
  -4  -2   6  216.98   17.40
  -4  -2   6  228.58   14.60
   4  -2  -6  179.08   18.60
   4  -2  -6  160.58   16.80
   4   2   6  210.08   16.80
  -4   2  -6  136.89   19.40
   4   2  -6  166.78   18.90
   4   2  -6  178.58   14.60
  -4  -2  -6  165.68   20.10
   4  -2   6  204.98   17.80
  -4   2   6  232.68   17.70
   4   3   6   37.00    8.70
  -4   3  -6   29.20   11.00
   4  -3  -6   43.30    6.60
  -4  -3   6   33.00    7.80
   4  -3  -6   31.40    9.60
   4   3   6   19.70    6.30
  -4  -3   6   26.90    4.30
   4   3  -6   42.20    6.00
   4   3  -6   29.80    9.50
  -4  -3  -6   42.00    8.50
   4  -3   6   22.80    8.20
  -4   3   6   18.50    7.00
  -4  -4   6  202.28   15.70
   4   4   6  198.58   18.90
  -4  -4   6  211.88   19.60
   4  -4  -6  175.48   21.30
   4  -4  -6  189.38   15.50
  -4   4  -6  175.58   21.80
   4   4   6  204.38   18.20
  -4   4   6  231.18   18.70
   4  -4   6  192.58   21.80
  -4  -4  -6  197.18   19.90
   4   4  -6  185.78   21.20
  -4  -5   6   52.89   11.60
  -4   5  -6   93.29   15.80
  -4  -5   6   58.89    8.40
   4   5   6   57.29   10.60
   4  -5  -6  111.49   18.00
   4   5   6   54.59   10.60
  -4  -5  -6   92.09   13.60
   4   5  -6  127.29   17.10
  -4   5   6   65.69   10.80
   4  -5   6   62.29   14.10
  -4  -6   6  157.58   16.30
  -4  -6   6  152.48   18.40
   4  -6  -6  194.08   24.60
  -4   6  -6  178.98   22.30
   4   6   6  158.58   18.20
   4   6  -6  187.28   22.00
  -4  -6  -6  184.28   20.90
   4  -6   6  150.38   22.90
  -4   6   6  156.18   17.90
  -4   7  -6  328.87   33.00
  -4  -7   6  314.77   30.30
   4  -7  -6  319.17   38.00
   4   7   6  328.77   29.60
  -4   7   6  322.67   28.30
   4  -7   6  313.87   34.30
   4   7  -6  345.47   33.80
  -4  -7  -6  312.37   31.80
  -4   8  -6   30.90   13.70
   4  -8  -6   45.50   19.20
   4   8   6   29.50   13.30
  -4  -8   6   36.00   14.10
   4  -8   6   25.00   17.40
   4   8  -6   26.70   16.00
  -4   8   6   36.00   13.10
  -4  -8  -6   29.90   15.90
   4  -9  -6   55.99   21.20
  -4  -9   6   24.10   14.90
  -4   9  -6   55.49   17.40
   4   9   6   25.00   14.70
  -4  -9  -6   56.29   18.90
  -4   9   6   15.30   12.20
   4   9  -6   44.30   16.40
   4  -9   6   18.90   18.90
  -4 -10  -6    5.60   17.40
   5   0  -6   -2.10    4.00
   5   0  -6   -5.20    6.20
  -5   0  -6    3.70    3.60
   5   0  -6    1.10    2.70
  -5   0   6    6.70    5.70
  -5   0  -6    8.50    9.00
   5   0   6   -0.20    4.90
  -5   1  -6  501.35   34.00
   5  -1  -6  455.75   37.10
   5  -1  -6  490.75   36.50
  -5   1  -6  494.95   40.50
  -5  -1   6  517.25   36.70
   5   1   6  485.75   35.80
  -5   1  -6  502.65   34.50
   5   1  -6  506.75   33.60
   5  -1   6  463.85   36.20
  -5  -1  -6  495.65   35.60
   5   1  -6  477.75   38.50
   5   1  -6  517.35   34.40
  -5  -1  -6  466.75   41.00
  -5   1   6  491.65   36.40
   5  -2  -6  685.63   49.30
  -5  -2   6  653.23   48.20
   5   2   6  670.63   49.90
  -5   2  -6  643.04   45.40
   5  -2  -6  659.63   48.40
  -5   2  -6  678.63   45.10
   5   2   6  658.33   47.50
  -5   2  -6  707.53   52.79
   5   2  -6  694.13   50.89
  -5  -2  -6  642.24   47.80
  -5   2   6  700.43   48.30
   5  -2   6  645.34   48.30
   5   3   6  832.22   59.09
  -5   3  -6  844.92   63.19
   5  -3  -6  901.91   62.19
   5   3   6  765.02   61.09
   5  -3  -6  866.71   58.89
  -5   3   6  819.02   59.59
   5   3  -6  874.71   62.99
   5  -3   6  782.72   60.59
  -5  -3  -6  852.71   59.99
   5  -4  -6  682.53   49.10
   5   4   6  717.93   52.79
  -5   4  -6  623.24   53.79
   5   4   6  709.83   50.69
  -5  -4   6  725.53   51.89
   5  -4  -6  721.43   54.69
   5   4  -6  658.83   53.59
  -5   4   6  717.43   50.79
   5  -4   6  753.32   53.29
  -5  -4  -6  687.43   51.89
  -5   5  -6  133.79   19.20
   5  -5  -6  157.68   20.80
   5   5   6  135.39   17.30
  -5  -5   6  141.29   17.30
   5   5   6  141.69   16.80
   5   5  -6  123.19   19.40
   5  -5   6  119.09   18.50
  -5  -5  -6  145.49   18.10
  -5   5   6  143.69   16.30
  -5  -6   6  105.39   16.70
   5  -6  -6  125.49   21.20
  -5   6  -6  135.99   19.20
   5   6   6   96.49   15.10
  -5   6   6  116.49   14.90
  -5  -6  -6  107.79   16.50
   5  -6   6   98.09   20.00
   5   6  -6  119.59   19.70
   5   7   6   51.89   13.80
   5  -7  -6   74.29   19.50
  -5   7  -6   73.29   17.80
  -5  -7   6   60.59   15.80
   5  -7   6   71.89   18.40
  -5  -7  -6   71.39   16.60
   5   7  -6   66.19   16.60
  -5   7   6   77.89   14.20
  -5   8  -6   64.39   16.10
   5   8   6   25.40   13.60
   5  -8  -6   43.00   20.50
  -5  -8   6   36.20   15.70
   5   8  -6   39.10   17.30
  -5  -8  -6   44.60   16.60
  -5   8   6   43.60   12.50
   5  -8   6   33.00   19.40
  -5  -9   6   86.39   18.30
   5   9  -6  134.09   22.30
  -5   9   6   77.99   16.00
  -6   0  -6  848.42   66.39
  -6   0  -6  910.81   59.99
   6   0  -6  893.41   59.89
   6   0  -6  895.51   63.89
   6   0   6  840.92   60.99
  -6   0   6  808.42   61.39
   6  -1  -6 1056.49   76.59
  -6   1  -6 1068.59   79.69
   6  -1  -6 1104.49   74.89
  -6  -1   6 1083.59   75.39
  -6   1  -6 1107.89   72.99
   6   1   6 1054.49   74.39
  -6  -1  -6  983.00   79.89
   6   1  -6 1068.79   77.79
  -6  -1  -6 1090.59   74.19
   6  -1   6 1083.49   74.99
  -6   1   6 1080.49   75.39
  -6   2  -6  289.27   20.70
  -6  -2   6  296.17   24.50
   6   2   6  302.57   23.60
   6  -2  -6  282.37   24.30
   6   2   6  302.37   27.40
   6  -2  -6  303.17   24.90
  -6   2  -6  270.37   28.90
  -6   2   6  297.67   24.30
  -6  -2  -6  275.57   23.80
   6   2  -6  256.77   26.80
   6  -2   6  301.77   24.70
   6  -3  -6  106.69   15.00
  -6  -3   6   73.49   13.10
   6  -3  -6  127.99   13.10
  -6   3  -6   89.89   16.60
   6   3   6   63.39   14.90
  -6  -3  -6  108.89   13.30
  -6  -3  -6  101.19   12.60
  -6   3   6   86.29   12.80
   6   3  -6  112.89   16.30
   6  -3   6   76.19   12.60
   6  -4  -6  113.49   17.10
   6  -4  -6  103.29   11.40
  -6   4  -6  114.39   18.70
   6   4   6   44.10   13.60
  -6  -4   6   60.69   12.40
   6   4  -6  110.59   17.50
  -6  -4  -6  100.79   13.50
  -6  -4  -6   96.69   13.50
  -6   4   6   55.99   11.90
   6  -5  -6  555.44   40.90
  -6   5  -6  512.25   40.30
   6   5   6  354.66   36.70
  -6  -5   6  379.56   35.90
   6  -5   6  315.67   36.10
  -6  -5  -6  513.05   36.70
  -6   5   6  368.76   33.50
   6   5  -6  476.25   39.70
  -6  -6   6  332.77   28.80
  -6   6  -6  266.17   31.40
   6  -6  -6  290.77   33.40
   6  -6   6  280.57   31.00
  -6  -6  -6  269.77   28.60
   6   6  -6  272.87   30.40
  -6   6   6  298.57   26.20
  -6   7  -6   76.59   17.50
  -6  -7   6   66.69   16.10
   6  -7  -6   97.39   21.30
  -6   7   6   88.99   14.50
   6   7  -6   85.19   19.90
  -6  -7  -6   86.89   17.70
   6  -7   6  103.99   20.80
  -6   8  -6   52.29   18.30
   6  -8  -6   71.39   21.70
  -6  -8   6   68.39   16.70
  -6   8   6   89.59   15.80
   6  -8   6   83.79   21.80
   6   8  -6   46.80   18.70
   6   9  -6   74.49   30.90
   7   0   6    4.60    6.60
  -7   0  -6    9.50   12.50
  -7   0  -6   -1.10    5.10
   7   0  -6    2.20    8.70
  -7   0   6    1.50    7.30
   7  -1  -6   27.60    6.50
  -7   1  -6   25.00    5.50
  -7   1  -6   28.40   14.80
  -7  -1   6   13.70    8.50
   7   1   6    7.70    6.70
   7  -1  -6   20.00    9.50
   7   1  -6   24.40   10.60
   7  -1   6   20.00    8.10
  -7   1   6   15.30    8.90
  -7  -1  -6   25.60    7.20
   7  -2  -6  613.94   44.70
   7  -2  -6  648.74   46.40
  -7   2  -6  670.23   51.39
   7   2   6  566.74   43.80
  -7  -2   6  577.84   45.20
   7   2   6  658.93   49.10
  -7   2  -6  571.94   42.40
  -7   2   6  579.24   44.60
   7  -2   6  615.04   45.40
   7   2  -6  576.04   47.90
  -7  -2  -6  584.74   44.30
  -7  -3   6  123.89   16.00
   7  -3  -6  144.69   16.20
   7  -3  -6  129.99   16.40
   7   3   6  116.49   18.90
  -7   3  -6  145.69   22.30
   7   3  -6  129.99   19.10
  -7  -3  -6  127.79   15.70
  -7  -3  -6  120.79   15.40
   7  -3   6  143.29   17.50
  -7   3   6  130.19   15.40
  -7   4  -6   50.19   15.50
  -7  -4   6   68.79   13.80
   7   4   6   61.79   15.00
   7  -4  -6   51.59   12.80
   7  -4  -6   57.49   10.20
  -7   4   6   76.19   13.00
   7   4  -6   43.10   14.00
   7  -4   6   66.39   14.30
  -7  -4  -6   50.69   11.70
  -7  -4  -6   42.10   11.20
  -7   5  -6  131.49   21.70
   7   5   6  132.09   21.50
  -7  -5   6  117.19   19.10
   7  -5  -6  161.18   21.30
   7  -5   6  140.69   21.20
  -7  -5  -6  155.88   19.90
   7   5  -6  160.48   21.90
  -7  -5  -6  160.68   19.10
  -7   5   6  151.28   18.00
  -7   6  -6  226.58   29.20
   7  -6  -6  260.57   29.90
  -7  -6   6  259.87   27.00
   7  -6   6  245.88   30.60
  -7  -6  -6  224.38   26.10
  -7   6   6  227.28   24.90
   7   6  -6  221.68   28.30
  -7  -7   6    9.40   14.90
   7  -7  -6    9.90   13.70
  -7   7  -6   18.60   15.90
   7  -7   6    7.20   16.50
   7   7  -6   12.40   16.30
  -7   7   6   16.80   11.70
  -7  -7  -6   22.30   14.00
  -7   8  -6   78.09   20.20
  -7  -8   6   48.60   18.20
   7  -8  -6   89.29   21.40
  -7   8   6   41.40   14.60
   7   8  -6   60.19   18.60
   8   0  -6  254.57   28.80
  -8   0  -6  274.37   22.70
   8   0   6  274.17   23.90
  -8   0  -6  306.07   33.80
  -8   0   6  314.07   26.90
  -8  -1   6  357.86   28.10
   8   1   6  340.67   25.90
  -8   1  -6  279.67   23.90
  -8   1  -6  320.17   35.10
   8  -1  -6  244.58   28.00
  -8   1   6  342.47   27.50
   8  -1   6  364.16   27.20
   8   1  -6  277.67   29.80
  -8  -1  -6  284.87   25.60
   8  -2  -6   18.90   10.90
  -8  -2   6   10.50   10.00
   8   2   6   16.90    7.30
  -8   2  -6   15.50   15.00
   8   2   6   12.00   13.30
  -8   2   6   22.90    9.50
  -8  -2  -6   17.10    8.10
   8  -2   6   17.40    9.20
   8   2  -6   11.40   11.60
   8  -3  -6  360.46   31.30
  -8   3  -6  421.66   39.90
  -8  -3   6  323.67   31.30
   8   3   6  341.57   35.90
   8  -3   6  343.67   32.10
   8   3  -6  348.57   34.40
  -8  -3  -6  408.36   30.80
  -8  -3  -6  368.26   30.60
  -8   3   6  355.16   31.70
  -8  -4   6  152.28   19.40
  -8   4  -6  144.59   23.60
   8   4   6  137.69   24.00
   8  -4  -6  154.18   18.80
   8  -4  -6  154.38   18.20
   8  -4   6  160.48   19.70
  -8   4   6  174.18   18.70
  -8  -4  -6  128.89   18.40
   8   4  -6  144.89   21.90
  -8  -5   6  104.19   18.90
  -8   5  -6  122.39   21.60
   8   5   6  145.29   23.80
   8  -5  -6  136.79   18.90
   8   5  -6  116.99   20.60
  -8   5   6  113.79   17.00
   8  -5   6  100.29   19.50
  -8  -5  -6  118.79   17.90
   8  -6  -6  108.19   19.40
  -8   6  -6  111.69   21.00
  -8  -6   6  122.89   20.50
  -8   6   6   89.59   16.40
   8  -6   6  115.99   21.30
  -8  -6  -6  108.19   19.60
   8   6  -6   87.79   20.30
   8  -7  -6   64.79   18.40
  -8  -7   6   71.39   17.90
  -8   7  -6   54.49   18.20
   8   7  -6   53.19   18.50
   8  -7   6   90.89   19.80
  -8   7   6   85.59   15.30
  -8  -7  -6   64.09   17.50
  -9   0  -6    1.40    6.90
   9   0  -6    0.30   11.10
   9   0   6   -2.10    7.70
  -9   0   6   -1.90    9.70
  -9   0  -6   11.30   16.90
  -9  -1   6  151.78   19.40
  -9   1  -6  180.18   28.90
   9  -1  -6  150.68   21.20
   9   1  -6  160.48   22.20
  -9  -1  -6  149.79   16.40
  -9   1   6  136.69   18.40
   9  -1   6  148.99   18.10
  -9  -2   6  159.88   20.60
  -9   2  -6  193.58   28.40
   9   2   6  175.48   26.10
   9  -2  -6  227.58   24.00
   9  -2   6  148.29   19.20
  -9   2   6  167.88   20.50
  -9  -2  -6  199.98   20.00
   9   2  -6  201.78   24.50
   9  -3  -6  206.98   22.30
  -9  -3   6  137.99   20.00
   9   3   6  167.48   25.90
  -9   3  -6  140.69   25.80
  -9   3   6  165.28   19.80
  -9  -3  -6  195.28   20.40
   9   3  -6  185.58   24.70
   9  -3   6  158.68   20.30
  -9   4  -6   40.50   17.90
  -9  -4   6   56.89   15.00
   9  -4  -6   58.09   22.50
   9   4   6   54.99   18.90
  -9   4   6   66.99   13.80
  -9  -4  -6   55.09   14.50
   9   4  -6   52.99   18.30
   9  -4   6   72.29   15.80
   9   5   6   34.60   17.50
  -9   5  -6   16.80   16.20
  -9  -5   6   34.00   15.80
  -9  -5  -6   12.70   12.50
   9  -5   6   24.60   14.80
  -9   5   6   36.30   13.40
   9   5  -6   43.80   18.00
  -9   6  -6  220.18   30.10
  -9  -6  -6  242.38   27.00
  -9   6   6  226.78   25.10
   9  -6   6  224.78   28.20
  10   0  -6  670.33   57.99
 -10   0   6  747.63   55.19
 -10   0  -6  713.23   64.29
 -10  -1   6   45.60   14.70
  10  -1  -6   53.99   16.60
 -10   1  -6   47.30   20.80
 -10   1   6   47.20   14.60
 -10  -1  -6   34.30   21.10
  10   1  -6   50.59   16.30
 -10   2  -6   44.60   21.10
 -10  -2   6   60.39   15.30
  10   2   6   60.79   23.00
  10  -2  -6   55.29   16.30
  10   2  -6   72.09   18.40
 -10  -2  -6   79.19   13.20
 -10   2   6   64.49   14.10
  10  -3  -6   90.39   16.90
 -10  -3   6   77.39   18.20
 -10   3  -6   87.49   24.40
  10   3   6   62.99   23.20
  10  -3   6   64.79   14.90
 -10  -3  -6   71.59   14.80
 -10   3   6   91.39   16.90
  10   3  -6   85.69   21.40
 -10  -4   6  373.56   38.20
  10   4   6  401.16   44.70
 -10   4  -6  356.26   41.80
 -10  -4  -6  387.86   35.60
 -10   4   6  409.06   34.70
  10  -4   6  345.37   35.80
  10   4  -6  397.76   39.60
  10   5   6   -5.00   19.50
 -10  -5  -6    0.10   13.40
 -10   5   6   10.50   11.80
  10  -5   6    0.80   14.10
 -11   0  -6   17.00   21.40
  11   0  -6    6.70   15.70
 -11   0   6   -6.60   11.90
 -11  -1   6  194.18   24.90
  11  -1  -6  188.48   25.80
 -11   1  -6  204.98   33.60
  11   1  -6  247.68   30.50
 -11   1   6  189.48   24.70
 -11  -1  -6  210.08   35.20
  11  -2  -6   87.69   19.30
 -11   2   6   72.09   16.50
  11  -3  -6  271.87   31.70
 -11  -3  -6  303.37   32.00
 -11  -4  -6  111.39   19.70
   0   0   7    1.80    2.80
   0   0   7   -0.60    3.60
   0   0  -7   -1.00    3.80
   0   0  -7   -0.80    2.50
   0   1  -7   -0.70    4.40
   0   1   7   -1.70    3.30
   0  -1  -7    2.00    3.50
   0  -1   7    0.90    2.50
   0   1   7   -0.10    4.30
   0  -1   7    4.80    4.40
   0   1  -7    1.30    2.10
   0  -2  -7    3.70    5.10
   0   2  -7    0.20    5.20
   0   2  -7    0.30    2.20
   0  -2   7   -2.90    2.40
   0   2   7    2.70    3.30
   0  -2   7   -1.90    4.30
   0   2   7    0.80    3.70
   0  -2  -7   -0.60    3.00
   0  -3   7    1.00    2.90
   0   3   7    2.70    4.60
   0  -3  -7   -1.30    5.80
   0   3  -7   -0.80    5.90
   0  -3  -7    0.30    2.40
   0  -3  -7    0.20    2.10
   0  -3   7    9.70    3.00
   0  -3   7    2.50    5.30
   0  -4   7   -1.20    3.70
   0  -4   7   -2.40    5.70
   0  -4  -7    6.80    8.00
   0   4   7    4.90    5.70
   0  -4   7   11.70    3.70
   0   4  -7   -3.00    6.90
   0   5   7   -1.60    7.10
   0  -5  -7   -4.20    8.40
   0  -5   7    2.90    5.10
   0   5  -7    0.70    8.30
   0  -5   7    2.80    8.40
   0   6  -7    4.40   10.60
   0   6   7    7.70    8.80
   0  -6   7   -2.90   10.00
   0  -6  -7    9.10   11.20
   0  -6   7   11.10    6.80
   0   7  -7    3.70   10.80
   0  -7  -7   -2.00   13.50
   0   7   7    6.20    9.10
   0  -7   7   -1.30   12.20
   0  -8  -7    0.40   15.90
   0  -8   7    2.30   14.60
   0   8   7   -6.10   10.00
   0   8  -7  -13.50   12.80
   0  -9   7   -7.20   16.50
   0  -9  -7   -4.40   16.20
   0   9   7   -4.50   11.30
   0   9  -7  -14.10   14.50
   0 -10   7    1.90   18.70
  -1   0   7    1.20    3.50
   1   0   7    1.20    3.70
   1   0   7    2.10    2.40
  -1   0  -7   -0.10    4.60
  -1   0   7    1.00    3.40
   1   0  -7    2.10    4.50
  -1   0  -7   -0.10    2.30
  -1  -1   7  732.83   51.69
   1   1   7  797.22   51.29
  -1  -1   7  742.23   51.29
  -1   1  -7  693.43   53.19
   1  -1  -7  743.23   51.99
  -1   1  -7  718.03   50.29
   1   1   7  791.52   52.49
  -1   1   7  741.03   51.59
   1  -1   7  779.82   50.39
   1   1  -7  730.13   52.99
   1  -1   7  774.52   52.29
  -1  -1  -7  708.93   52.29
   1   2   7  479.05   30.60
  -1  -2   7  499.35   31.00
   1  -2  -7  354.76   31.60
  -1  -2   7  479.65   30.20
  -1   2  -7  331.27   32.00
   1  -2  -7  373.96   30.00
  -1  -2  -7  393.76   29.90
   1  -2   7  473.05   31.50
  -1  -2  -7  373.56   31.70
   1   2  -7  344.27   31.90
  -1   2   7  477.45   31.20
   1  -2   7  465.25   28.70
  -1  -3   7  380.46   27.40
   1   3   7  363.16   27.90
  -1   3  -7  368.26   30.60
   1  -3  -7  383.56   30.70
   1  -3  -7  360.06   26.40
  -1  -3   7  383.06   28.20
   1  -3   7  386.56   25.90
   1   3  -7  372.56   30.40
   1  -3   7  383.76   25.80
  -1   3   7  372.36   28.40
  -1   3   7  432.56   26.60
   1  -3   7  368.86   28.90
  -1  -3  -7  372.86   26.70
  -1  -3  -7  380.16   30.50
  -1  -3  -7  368.06   27.10
   1  -4  -7  179.08   20.00
  -1   4  -7  189.48   19.50
  -1  -4   7  181.08   17.10
  -1  -4   7  195.88   16.00
   1   4   7  176.48   16.50
   1  -4   7  183.58   13.50
  -1  -4  -7  191.88   13.70
  -1  -4  -7  198.18   20.80
  -1  -4  -7  191.98   13.70
   1  -4   7  188.68   13.90
   1  -4   7  177.48   18.30
   1   4  -7  178.18   19.10
  -1   4   7  163.28   16.50
  -1  -5   7  137.09   17.70
   1  -5  -7  178.08   21.20
  -1   5  -7  214.28   21.20
   1   5   7  171.08   16.80
  -1  -5   7  169.58   16.40
   1  -5   7  167.58   14.40
  -1   5   7  153.38   16.80
   1  -5   7  151.88   19.10
  -1  -5  -7  220.68   21.30
   1   5  -7  195.48   21.30
  -1   6  -7   66.39   13.80
   1  -6  -7   66.69   15.70
  -1  -6   7   73.39   11.20
   1   6   7   50.59   11.30
  -1  -6   7   58.59   12.80
   1   6  -7   67.39   13.70
   1  -6   7   70.89   10.40
   1  -6   7   57.49   15.10
  -1   6   7   79.09   11.70
  -1  -6  -7   71.79   15.10
  -1   7  -7   22.40   12.10
  -1  -7   7   32.00   10.40
  -1  -7   7   32.50   13.30
   1  -7  -7   39.80   15.30
   1   7   7   35.70   11.60
  -1  -7  -7   34.90   14.10
  -1   7   7   29.30   10.50
   1   7  -7   33.20   12.80
   1  -7   7   14.70   13.10
   1  -8  -7   64.59   19.60
  -1  -8   7   74.29   16.50
   1   8   7   73.29   15.20
  -1   8  -7   50.09   16.50
   1   8  -7   80.79   17.10
  -1  -8  -7   54.39   19.10
  -1   8   7   73.19   15.30
   1  -8   7   57.89   17.90
  -1  -9   7   48.30   17.20
  -1   9  -7   66.19   18.00
   1   9   7   49.30   15.90
   1  -9  -7   78.89   22.70
   1   9  -7   83.79   19.70
  -1  -9  -7   52.89   21.50
   1  -9   7   38.20   18.80
  -1   9   7   40.30   15.60
  -1 -10   7   81.49   22.40
   1 -10   7   98.49   25.60
  -2   0  -7 2371.76  153.78
   2   0  -7 2283.67  155.78
  -2   0   7 2300.97  154.68
   2   0   7 2339.97  153.58
  -2   0   7 2284.77  154.58
  -2   0  -7 2186.38  156.18
   2   0   7 2304.47  155.08
   2  -1  -7  530.75   36.60
   2  -1  -7  523.75   36.10
  -2  -1   7  492.55   35.50
   2   1   7  464.15   36.00
  -2   1  -7  551.44   33.70
  -2  -1   7  463.25   35.10
   2   1   7  459.35   34.70
  -2   1  -7  542.35   38.10
  -2   1   7  472.85   35.70
  -2  -1  -7  540.55   37.30
   2  -1   7  484.25   33.70
   2  -1   7  465.85   36.00
   2   1  -7  527.45   37.30
  -2  -2   7  189.48   14.40
   2  -2  -7  175.18   14.60
   2  -2  -7  163.98   17.00
   2   2   7  189.88   14.50
  -2  -2   7  185.98   14.70
  -2   2  -7  150.98   17.20
   2  -2   7  171.18   15.60
  -2   2   7  187.68   15.20
  -2   2   7  189.98   14.40
   2   2  -7  144.79   16.50
  -2  -2  -7  141.29   15.40
   2  -3  -7  211.38   21.50
  -2   3  -7  197.18   21.40
   2   3   7  242.88   18.70
  -2  -3   7  264.57   18.70
   2  -3  -7  206.38   17.10
  -2  -3   7  255.17   18.70
  -2   3   7  247.48   20.00
  -2   3   7  264.57   17.50
  -2  -3  -7  247.08   21.40
  -2  -3  -7  200.58   18.70
   2  -3   7  245.68   20.30
   2   3  -7  198.08   20.90
   2   4   7 1529.95  111.49
  -2  -4   7 1643.84  111.69
  -2   4  -7 1643.34  114.49
   2  -4  -7 1639.44  115.09
  -2  -4   7 1563.34  111.39
  -2   4   7 1533.75  111.89
   2   4  -7 1708.63  114.39
  -2  -4  -7 1729.73  110.59
  -2  -4  -7 1701.43  114.09
   2  -4   7 1612.94  113.59
  -2  -4  -7 1688.63  111.09
  -2   5  -7  509.65   40.80
   2   5   7  478.55   37.60
   2  -5  -7  537.55   42.60
  -2  -5   7  491.35   37.70
  -2  -5   7  475.65   37.70
  -2   5   7  482.55   38.20
  -2  -5  -7  531.95   35.50
   2  -5   7  482.45   40.50
  -2  -5  -7  541.85   41.20
   2   5  -7  501.35   40.40
  -2   6  -7  180.78   22.00
  -2  -6   7  170.18   19.40
   2  -6  -7  170.78   23.60
   2   6   7  181.08   18.70
  -2  -6   7  161.48   18.50
   2   6  -7  197.78   22.30
  -2  -6  -7  188.48   22.60
  -2   6   7  177.98   18.70
   2  -6   7  181.58   22.80
  -2  -7   7  460.35   38.60
   2   7   7  487.25   38.70
  -2   7  -7  521.25   42.40
   2  -7  -7  555.44   47.20
  -2  -7   7  488.65   40.10
   2  -7   7  451.65   43.10
  -2   7   7  454.05   38.10
   2   7  -7  449.06   41.10
  -2  -7  -7  514.15   43.30
   2  -8  -7   32.80   17.30
  -2  -8   7   15.50   11.70
   2   8   7   11.60   11.50
  -2   8  -7    9.60   12.40
  -2  -8   7   14.60   12.90
   2  -8   7   27.00   18.50
  -2  -8  -7   24.00   16.40
  -2   8   7    9.80   10.70
   2   8  -7    9.50   14.80
  -2   9  -7   -0.70   14.80
   2   9   7   24.10   13.90
   2  -9  -7    8.00   17.80
  -2  -9   7   31.10   15.60
   2  -9   7   32.50   20.60
  -2   9   7   17.40   13.90
   2   9  -7    2.50   15.80
  -2  -9  -7   30.50   17.10
   3   0  -7   -0.70    3.80
   3   0   7    5.90    4.80
   3   0   7    0.90    2.70
   3   0  -7    0.50    5.90
  -3   0  -7    1.40    2.90
  -3   0  -7    2.90    6.30
  -3   0   7    3.40    5.00
  -3  -1   7 1937.01  135.49
   3   1   7 1965.10  136.49
   3   1   7 1996.00  135.39
  -3   1  -7 2187.58  134.39
  -3  -1   7 1917.21  136.19
   3  -1  -7 1996.80  137.09
  -3   1  -7 1998.80  138.69
   3  -1  -7 1962.20  136.99
  -3   1  -7 2100.39  134.29
   3   1  -7 2079.79  137.99
   3  -1   7 2077.09  136.89
  -3  -1  -7 1960.60  138.19
  -3   1   7 1987.20  136.49
  -3  -2   7  720.13   52.19
   3   2   7  726.93   51.69
   3  -2  -7  810.82   52.49
   3  -2  -7  834.22   54.49
  -3   2  -7  815.92   55.49
  -3  -2   7  685.93   51.09
   3   2   7  684.73   52.39
  -3  -2  -7  760.12   54.09
  -3   2   7  687.83   52.39
   3   2  -7  800.72   54.49
   3  -2   7  711.83   52.89
   3  -3  -7 1824.12  129.59
  -3  -3   7 1858.61  127.09
  -3   3  -7 1825.72  129.79
   3   3   7 1859.51  126.89
  -3  -3   7 1970.80  126.29
   3  -3  -7 1945.71  126.19
   3   3  -7 1837.32  129.29
  -3  -3  -7 1758.22  128.19
   3  -3   7 1861.21  128.29
  -3   3   7 1923.41  127.49
  -3  -3  -7 1773.92  128.19
  -3   3   7 1971.20  126.59
  -3   4  -7  799.12   58.19
   3  -4  -7  825.52   58.79
   3   4   7  717.13   54.49
  -3  -4   7  713.13   53.69
  -3  -4   7  718.13   54.89
   3  -4  -7  840.42   52.29
  -3   4   7  737.63   54.99
  -3  -4  -7  858.31   57.49
   3  -4   7  736.23   57.19
   3   4  -7  793.62   57.59
  -3  -4  -7  753.22   55.19
  -3  -5   7  174.48   16.60
   3  -5  -7  186.48   23.00
  -3   5  -7  181.18   21.50
  -3  -5   7  180.48   18.50
   3   5   7  183.58   17.90
  -3   5   7  186.08   18.20
  -3  -5  -7  187.78   17.30
  -3  -5  -7  190.48   22.10
   3  -5   7  175.48   21.40
   3   5  -7  160.38   20.50
  -3  -6   7  255.17   22.60
  -3  -6   7  246.28   23.70
  -3   6  -7  205.78   26.10
   3   6   7  257.57   24.10
   3  -6  -7  244.78   29.60
  -3  -6  -7  254.77   27.40
  -3   6   7  247.58   23.50
   3   6  -7  211.58   25.20
   3  -6   7  259.07   29.60
  -3   7  -7  436.26   38.80
   3  -7  -7  508.85   45.70
  -3  -7   7  422.96   36.30
  -3  -7   7  407.76   35.90
   3   7   7  457.15   36.40
   3  -7   7  392.46   42.70
  -3   7   7  416.86   36.50
   3   7  -7  492.95   41.20
  -3  -7  -7  458.25   40.30
   3  -8  -7  503.75   46.90
  -3   8  -7  413.26   40.20
  -3  -8   7  433.66   39.20
   3   8   7  481.85   39.10
  -3   8   7  454.75   38.90
   3  -8   7  423.86   44.60
   3   8  -7  516.95   44.30
  -3  -8  -7  441.76   44.00
   3  -9  -7  175.48   31.90
  -3   9  -7  180.48   25.70
   3   9   7  208.58   23.80
   3   9  -7  158.18   26.40
  -3   9   7  180.78   21.90
  -3  -9  -7  123.59   26.40
   3  -9   7  167.48   29.10
   3  10  -7  121.19   37.30
   4   0  -7 1579.94  113.79
  -4   0  -7 1723.93  111.09
  -4   0  -7 1580.94  115.19
   4   0   7 1651.43  112.49
  -4   0   7 1692.93  112.49
  -4   0  -7 1569.74  110.99
   4   0  -7 1726.13  112.29
   4   1   7  109.49   10.90
   4   1   7  107.39   12.10
  -4  -1   7  100.79   12.00
  -4   1  -7  130.09   17.20
  -4   1  -7  125.29    9.20
   4  -1  -7  131.39   13.20
   4  -1  -7  120.59   13.70
  -4   1  -7  117.99    8.90
   4   1  -7  112.09   10.70
   4   1  -7  124.79    9.90
  -4   1   7  117.89   13.10
   4  -1   7  104.19   12.50
  -4  -1  -7  104.59   14.90
   4   1  -7  126.99   14.90
   4  -2  -7  139.49   13.20
   4   2   7  106.39   13.10
  -4  -2   7   94.69   11.90
  -4  -2   7  104.19   10.00
   4  -2  -7  132.29   15.00
  -4   2  -7  134.79   16.90
   4   2   7  108.09   11.60
  -4  -2  -7  103.39   15.40
   4  -2   7  100.99   13.20
   4   2  -7  139.59   10.30
   4   2  -7  118.09   15.20
  -4   2   7  102.79   12.70
   4  -3  -7  624.34   41.10
   4   3   7  537.55   41.20
  -4  -3   7  565.24   39.80
   4  -3  -7  645.04   45.30
  -4  -3   7  526.85   41.90
  -4   3  -7  605.04   45.70
  -4  -3  -7  553.14   44.30
   4   3  -7  618.84   45.10
   4  -3   7  537.05   42.90
  -4   3   7  522.85   42.10
  -4  -3  -7  597.54   43.00
  -4   4  -7 1922.21  143.79
  -4  -4   7 2133.89  141.59
   4  -4  -7 2025.20  144.19
   4   4   7 2061.09  140.99
  -4  -4   7 2250.57  139.49
   4  -4  -7 2140.59  139.09
  -4   4   7 2167.88  141.39
  -4  -4  -7 2050.19  142.59
   4  -4   7 2153.38  143.29
   4   4  -7 2029.70  143.79
  -4  -4  -7 1761.72  142.29
  -4  -5   7  491.35   31.00
   4  -5  -7  350.16   36.50
  -4   5  -7  356.46   35.70
   4   5   7  444.96   33.60
  -4  -5   7  483.15   34.50
   4  -5   7  456.35   36.70
   4   5  -7  336.67   35.40
  -4  -5  -7  381.06   34.40
  -4   5   7  456.15   33.10
  -4  -5  -7  330.57   33.40
   4  -6  -7  221.48   27.80
  -4   6  -7  187.48   23.90
   4   6   7  211.38   21.10
  -4  -6   7  205.18   22.30
   4   6  -7  202.08   24.60
   4  -6   7  195.78   25.00
  -4   6   7  180.38   20.00
  -4  -6  -7  183.58   23.50
   4  -7  -7  538.35   52.19
  -4  -7   7  609.54   46.40
  -4   7  -7  518.35   47.40
   4   7   7  612.74   46.30
  -4   7   7  603.04   45.20
   4  -7   7  562.94   50.39
   4   7  -7  552.44   48.10
  -4  -7  -7  554.74   48.90
  -4  -8   7   84.29   16.60
   4  -8  -7  100.99   23.40
  -4   8  -7  111.29   20.70
   4   8   7   99.99   17.20
  -4   8   7   79.59   16.40
   4   8  -7  115.79   21.90
  -4  -8  -7  122.99   21.60
   4  -8   7   94.99   24.30
   4  -9  -7    4.50   20.50
  -4  -9   7   32.70   15.70
  -4   9  -7   31.50   16.80
  -4   9   7   -1.10   13.00
  -4  -9  -7    7.40   16.80
   4   9  -7   23.20   18.00
   4  -9   7   12.50   23.10
   5   0  -7   -0.10    4.70
   5   0   7    5.20    5.80
  -5   0  -7    2.20    3.70
   5   0  -7    0.90    6.80
  -5   0   7   -1.00    5.80
  -5   0  -7   -0.50    9.30
  -5  -1   7  541.75   45.70
   5   1   7  527.35   45.20
  -5   1  -7  705.63   43.60
   5  -1  -7  680.43   46.30
  -5   1  -7  620.64   50.59
   5  -1  -7  621.54   47.00
  -5   1  -7  662.63   43.10
  -5  -1  -7  672.23   44.90
   5   1  -7  667.43   48.30
   5  -1   7  567.24   45.80
   5   1  -7  700.93   44.10
   5   1  -7  685.13   44.30
  -5  -1  -7  583.24   49.50
  -5   1   7  543.85   45.40
   5   2   7  784.12   55.39
   5  -2  -7  791.42   55.79
   5  -2  -7  795.12   56.79
  -5  -2   7  761.42   55.49
  -5   2  -7  758.52   59.29
  -5   2   7  782.32   55.69
   5   2  -7  808.12   52.99
  -5  -2  -7  715.73   59.49
   5   2  -7  771.72   58.09
   5  -2   7  757.92   55.89
   5  -3  -7  136.29   17.50
  -5  -3   7  143.59   15.50
  -5   3  -7  110.19   18.40
   5  -3  -7  143.19   14.10
   5   3   7  161.08   14.50
   5   3  -7  123.09   17.80
  -5   3   7  165.98   15.80
  -5  -3  -7  125.19   15.30
   5  -3   7  153.78   17.10
  -5  -3  -7  131.89   19.40
  -5   4  -7  297.07   30.30
   5  -4  -7  310.07   29.50
   5  -4  -7  319.37   22.80
  -5  -4   7  274.67   25.90
   5   4   7  290.07   25.20
  -5   4   7  258.87   24.60
   5   4  -7  262.37   28.10
   5  -4   7  286.57   27.30
  -5  -4  -7  300.27   26.60
   5  -5  -7  403.76   36.00
  -5   5  -7  337.27   34.70
   5   5   7  394.76   31.50
   5   5   7  356.06   30.70
  -5  -5   7  325.47   30.20
   5   5  -7  333.07   33.20
  -5   5   7  354.76   30.40
  -5  -5  -7  365.16   32.40
   5  -5   7  353.36   34.50
   5  -6  -7  428.46   41.60
   5   6   7  468.25   35.40
  -5  -6   7  410.66   35.50
  -5   6  -7  402.86   38.20
   5   6  -7  410.96   38.40
  -5   6   7  416.56   34.30
   5  -6   7  403.46   40.40
  -5  -6  -7  400.46   37.30
  -5  -7   7  142.29   19.90
   5   7   7  160.48   20.70
  -5   7  -7  159.58   23.50
   5  -7  -7  165.88   26.10
  -5  -7  -7  157.88   22.20
   5   7  -7  181.38   24.60
   5  -7   7  137.49   24.00
  -5   7   7  141.69   18.30
   5   8   7  103.59   19.10
  -5  -8   7  124.69   20.30
  -5   8  -7  105.79   20.40
   5  -8  -7  130.99   25.10
   5  -8   7  100.29   23.20
   5   8  -7  136.49   22.60
  -5  -8  -7   83.59   20.20
  -5   8   7   94.89   17.30
  -5  -9   7   85.49   20.30
  -5   9  -7   97.19   20.70
   5   9  -7   88.89   22.80
  -5  -9  -7  100.59   22.60
   6   0  -7  211.78   22.10
  -6   0  -7  201.18   25.50
  -6   0  -7  211.88   17.50
   6   0  -7  222.08   18.30
  -6   0   7  257.07   20.80
   6   0   7  234.18   20.30
   6  -1  -7  221.98   22.40
  -6   1  -7  231.28   17.20
   6  -1  -7  235.08   20.50
  -6  -1   7  254.97   21.10
   6   1   7  242.88   19.80
  -6   1  -7  208.98   25.90
  -6  -1  -7  205.08   18.70
  -6   1   7  237.78   21.00
   6   1  -7  227.78   24.50
  -6  -1  -7  177.28   25.30
   6  -1   7  256.77   20.80
  -6  -2   7  320.07   26.50
   6  -2  -7  326.97   27.00
   6   2   7  314.07   25.70
  -6   2  -7  311.37   31.70
   6  -2  -7  315.97   27.30
   6  -2   7  334.97   27.30
   6   2  -7  292.47   29.00
  -6  -2  -7  286.17   32.90
  -6   2   7  336.77   26.60
  -6  -2  -7  291.47   25.40
   6  -3  -7  184.98   18.40
   6  -3  -7  206.88   22.00
  -6  -3   7  160.58   18.60
  -6   3  -7  201.38   24.40
  -6  -3  -7  194.28   19.50
   6   3  -7  168.68   21.80
  -6  -3  -7  200.58   19.50
  -6   3   7  186.18   18.90
   6  -3   7  167.68   19.70
   6  -4  -7  732.03   53.09
   6   4   7  650.93   52.29
  -6  -4   7  612.14   49.50
  -6   4  -7  664.53   53.79
   6  -4  -7  710.63   47.80
  -6  -4  -7  679.23   50.29
   6  -4   7  614.24   50.69
   6   4  -7  659.23   52.69
  -6   4   7  623.14   48.80
   6   5   7   77.29   16.40
  -6  -5   7   65.39   13.80
   6   5   7   92.39   13.80
   6  -5  -7   92.49   18.20
  -6   5  -7   79.39   17.30
   6  -5   7   95.09   17.20
  -6   5   7   80.39   13.10
  -6  -5  -7   83.49   15.30
   6   5  -7   83.69   17.10
  -6   6  -7   39.60   16.60
   6  -6  -7   50.59   17.70
  -6  -6   7   47.90   14.50
   6   6   7   35.80   11.30
   6   6  -7   38.10   15.30
   6  -6   7   36.70   16.70
  -6  -6  -7   52.49   14.00
  -6   6   7   48.60   12.80
   6   7   7   79.59   14.80
   6  -7  -7   62.49   20.20
  -6  -7   7   78.89   18.20
  -6   7  -7   60.99   17.20
   6   7  -7   54.39   17.60
   6  -7   7   87.39   20.10
  -6   7   7   92.39   15.70
  -6  -7  -7   61.39   17.10
  -6   8  -7  276.37   31.60
  -6  -8   7  202.08   28.60
   6   8   7  277.47   30.20
   6  -8  -7  332.67   36.20
   6  -8   7  258.87   34.70
   6   8  -7  249.28   31.80
  -6   8   7  242.38   26.40
  -7   0   7    3.80    7.80
   7   0  -7   -2.00    8.60
   7   0   7   -1.40    7.20
  -7   0  -7   -0.30   12.90
  -7   0  -7    2.00    5.00
   7   1   7  221.88   19.70
  -7  -1   7  212.18   20.60
  -7   1  -7  214.78   16.80
  -7   1  -7  200.48   27.90
   7  -1  -7  216.68   22.90
  -7  -1  -7  191.38   18.20
   7  -1   7  210.78   20.70
  -7   1   7  201.38   20.40
  -7  -1  -7  187.08   26.90
   7   1  -7  204.78   23.30
   7  -2  -7  883.01   62.29
   7  -2  -7  869.41   62.59
  -7   2  -7  842.42   67.59
   7   2   7  880.91   61.39
  -7  -2   7  864.01   63.09
   7   2  -7  881.81   65.89
  -7  -2  -7  774.02   68.39
  -7  -2  -7  816.72   60.99
   7  -2   7  862.41   62.49
  -7   2   7  886.11   62.69
  -7  -3   7   31.50   10.50
   7  -3  -7   38.40   11.10
   7  -3  -7   39.40    9.90
  -7   3  -7   33.50   14.90
   7   3  -7   42.20   13.60
   7  -3   7   41.30   12.20
  -7  -3  -7   23.50    9.30
  -7  -3  -7   48.40   10.50
  -7   3   7   20.30    9.80
  -7   4  -7   90.39   19.10
   7   4   7   65.99   16.30
   7  -4  -7  101.59   12.90
  -7  -4   7   77.69   15.30
   7  -4  -7  105.09   16.50
  -7  -4  -7  101.19   15.00
   7   4  -7   99.79   18.00
   7  -4   7   77.19   15.10
  -7   4   7   79.29   14.30
  -7  -4  -7  106.19   15.00
   7  -5  -7  294.67   30.60
  -7  -5   7  284.37   28.90
  -7   5  -7  268.27   31.00
   7   5   7  239.38   29.80
   7   5  -7  271.07   32.30
   7  -5   7  263.27   30.50
  -7   5   7  283.67   27.20
  -7  -5  -7  254.57   26.50
  -7  -5  -7  284.27   28.50
  -7   6  -7  147.49   23.60
   7  -6  -7  175.88   23.00
  -7  -6   7   85.69   17.80
   7  -6   7  112.09   22.00
   7   6  -7  138.49   23.10
  -7   6   7   98.59   16.30
  -7  -6  -7  130.19   19.80
  -7  -7   7   21.60   15.00
   7  -7  -7    2.40   15.30
  -7   7  -7   12.10   14.80
  -7  -7  -7   11.90   15.30
   7   7  -7   15.20   15.50
  -7   7   7    5.50   12.50
   7  -7   7   12.40   15.90
  -7   8  -7   91.79   21.10
  -8   0  -7  485.05   33.30
  -8   0  -7  542.35   45.90
   8   0   7  400.66   34.70
   8   0  -7  468.15   38.40
  -8   0   7  382.06   35.60
   8   1   7  682.13   49.60
  -8  -1   7  659.93   51.19
   8  -1  -7  726.73   52.99
  -8   1  -7  634.64   57.39
   8   1  -7  631.54   52.69
  -8  -1  -7  645.34   58.29
  -8  -1  -7  692.33   48.70
  -8   1   7  650.43   50.29
   8  -1   7  674.43   50.09
   8   2   7  164.28   17.20
  -8   2  -7  130.39   23.90
   8  -2  -7  148.99   19.30
  -8  -2   7  170.48   19.60
  -8   2   7  168.18   19.10
  -8  -2  -7  132.49   16.20
  -8  -2  -7  151.58   28.30
   8  -2   7  196.38   19.30
   8   2  -7  134.89   20.90
   8  -3  -7   56.09   12.10
  -8   3  -7   80.49   19.30
  -8  -3   7   29.30   12.00
  -8  -3  -7   46.80   11.60
  -8   3   7   25.10   10.70
   8  -3   7   38.80   11.60
   8   3  -7   51.79   15.20
  -8  -3  -7   56.59   12.00
   8   4   7   56.89   19.60
  -8   4  -7  103.19   22.10
  -8  -4   7   66.69   14.50
  -8  -4  -7   77.49   14.90
  -8   4   7   66.69   13.70
   8   4  -7   80.49   17.80
   8  -4   7   79.39   16.50
   8  -5  -7  331.47   31.40
  -8  -5   7  298.67   30.50
  -8   5  -7  296.57   35.90
   8   5   7  325.37   37.10
   8   5  -7  277.77   33.20
  -8   5   7  342.07   30.40
  -8  -5  -7  333.27   31.70
   8  -5   7  286.17   31.30
  -8  -6   7  122.49   20.00
   8  -6  -7  134.39   20.90
  -8   6  -7  115.29   23.60
   8   6  -7  109.29   22.80
   8  -6   7  101.69   20.20
  -8  -6  -7  130.49   20.60
  -8   6   7  106.49   17.00
   8  -7  -7   34.10   17.00
  -8   7  -7   19.70   18.40
  -8   7   7   39.80   13.60
   9   0   7   -4.90    8.30
  -9   0   7   -0.40   11.30
  -9   0  -7   -2.40   18.60
   9   0  -7   -3.00   12.80
   9   1   7  137.09   16.00
  -9   1  -7  109.69   26.20
  -9  -1   7  144.79   18.80
   9  -1  -7  128.79   20.10
  -9  -1  -7  116.59   27.10
  -9  -1  -7  122.19   16.40
   9   1  -7  116.49   21.00
  -9   1   7  129.29   17.40
   9  -1   7  143.19   17.10
  -9   2  -7  230.78   33.20
  -9  -2   7  314.87   29.50
   9  -2  -7  243.78   27.70
  -9  -2  -7  204.58   33.90
  -9  -2  -7  258.77   24.30
   9   2  -7  269.27   32.00
   9  -2   7  284.67   26.30
  -9   2   7  263.87   26.00
  -9   3  -7  202.98   30.20
   9  -3  -7  232.38   24.50
  -9  -3   7  198.38   23.90
  -9   3   7  192.48   22.60
   9  -3   7  207.58   24.70
  -9  -3  -7  222.08   23.00
   9   3  -7  208.38   26.90
  -9  -4   7   76.99   17.70
  -9   4  -7  104.89   22.80
   9   4   7   68.29   23.40
   9   4  -7   87.19   19.40
  -9   4   7   81.89   15.60
   9  -4   7  101.09   18.10
  -9  -4  -7   92.39   16.60
  -9   5  -7   38.60   18.20
   9   5   7   23.70   20.20
  -9  -5   7   25.50   14.60
   9  -5   7   38.00   16.20
   9   5  -7   21.60   15.80
  -9  -5  -7   30.10   14.50
  -9   5   7   34.30   12.60
   9  -6   7   16.70   16.50
  -9   6   7   21.10   14.20
  -9  -6  -7   14.50   13.80
  10   0  -7  178.08   25.80
 -10   0  -7  156.68   31.30
 -10   0   7  241.78   24.60
 -10  -1   7   56.29   15.50
  10  -1  -7   77.19   17.10
 -10   1  -7   89.49   26.40
  10   1  -7   82.69   18.40
 -10   1   7   74.49   15.60
 -10  -1  -7   72.59   27.00
 -10  -2   7   31.90   15.00
  10  -2  -7   34.60   14.60
 -10   2  -7   36.00   20.90
  10   2  -7   16.00   15.20
 -10   2   7   41.80   13.60
  10  -2   7   25.80   11.70
 -10  -2  -7   23.50   21.60
 -10   3  -7   21.30   19.90
 -10  -3   7   19.40   15.80
  10  -3  -7   25.80   13.50
 -10   3   7   16.10   12.50
  10   3  -7   15.70   16.10
  10  -3   7   13.90   12.60
 -10  -3  -7   32.50   12.20
 -10   4  -7   31.60   22.40
  10  -4   7   17.80   14.50
 -10   4   7   17.00   14.50
 -10  -4  -7   37.40   14.30
  10   5   7   15.00   23.40
  10  -5   7   29.40   16.60
 -10  -5  -7   36.50   15.70
  11   0  -7   13.90   16.70
  11  -1  -7   22.20   14.60
  11   1  -7   15.40   18.80
  11  -2  -7   42.30   15.50
   0   0   8 5164.18  337.27
   0   0   8 5330.17  338.27
   0   0  -8 4659.93  338.47
   0   1   8  176.48   15.20
   0   1   8  156.98   14.00
   0  -1   8  172.88   13.40
   0  -1   8  180.68   15.00
   0   2  -8  505.75   34.30
   0  -2   8  480.75   34.30
   0  -2  -8  487.25   37.10
   0   2  -8  493.15   37.60
   0   2   8  504.95   35.60
   0   2   8  536.35   35.80
   0  -2   8  482.55   35.90
   0  -2  -8  470.95   35.10
   0  -3   8  337.97   29.50
   0   3   8  350.66   29.10
   0  -3  -8  440.86   27.60
   0   3  -8  446.16   32.30
   0  -3  -8  422.26   31.80
   0  -3   8  351.86   27.60
   0  -3  -8  410.16   27.90
   0  -3   8  389.96   27.60
   0  -4   8 1735.03  114.09
   0  -4  -8 1578.84  115.69
   0  -4   8 1742.93  111.69
   0   4  -8 1514.15  115.19
   0   4   8 1675.03  113.29
   0   5   8  651.43   50.99
   0   5  -8  789.12   54.29
   0  -5  -8  800.92   55.19
   0  -5   8  633.34   52.09
   0  -5   8  674.43   49.10
   0  -6   8  271.37   27.20
   0   6  -8  258.37   29.40
   0  -6   8  325.07   25.50
   0   6   8  297.07   25.40
   0  -6  -8  268.77   31.00
   0   7  -8 1120.59   79.69
   0   7   8 1007.80   75.99
   0  -7  -8 1116.09   81.69
   0  -7   8 1013.60   79.19
   0   8   8  316.07   28.70
   0  -8   8  287.47   34.00
   0  -8  -8  287.17   34.80
   0   8  -8  260.87   30.80
   0  -9   8   43.60   18.50
   0   9  -8   71.69   20.20
   0  -9  -8  105.79   23.60
   0   9   8   72.79   16.10
   0  10  -8  119.89   25.20
   0 -10   8  115.89   24.50
  -1   0  -8   -4.20    4.80
  -1   0   8   -1.20    4.00
   1   0  -8    5.00    4.80
   1   0   8   -4.20    4.40
   1   0   8    1.30    2.80
  -1   0  -8    1.60    2.80
  -1   0   8    4.30    4.10
  -1   1  -8 1047.80   72.69
   1   1   8 1032.20   71.39
  -1   1  -8 1058.29   69.29
  -1  -1   8  978.10   70.19
  -1  -1   8 1045.90   70.99
   1  -1  -8 1076.49   71.29
   1   1   8  989.50   70.09
   1   1  -8 1050.59   72.29
   1  -1   8 1041.10   69.29
  -1  -1  -8 1103.29   71.79
  -1   1   8  952.10   70.49
   1  -1   8  988.80   71.19
  -1   2  -8 1289.67   92.09
   1  -2  -8 1288.37   91.09
  -1   2  -8 1359.46   87.99
  -1  -2   8 1291.27   89.89
   1  -2  -8 1306.97   89.39
  -1  -2   8 1284.77   89.09
   1   2   8 1321.77   89.49
   1  -2   8 1337.57   87.89
   1   2  -8 1310.17   91.59
   1  -2   8 1315.97   90.39
  -1   2   8 1208.48   89.69
  -1  -2  -8 1308.77   89.89
  -1   2   8 1427.16   89.79
  -1   3  -8 1784.12  126.29
   1  -3  -8 1761.52  125.99
  -1  -3   8 1761.72  123.79
  -1  -3   8 1848.42  123.19
   1  -3  -8 1838.82  122.59
   1   3   8 1767.82  123.69
  -1  -3  -8 1838.02  123.09
   1  -3   8 1792.52  124.59
   1   3  -8 1758.32  125.99
  -1   3   8 1758.12  123.99
  -1  -3  -8 1779.72  125.69
  -1  -3  -8 1832.32  122.69
  -1   3   8 2030.70  122.79
   1  -3   8 1895.11  121.69
   1  -3   8 1847.42  121.59
  -1   4  -8 1042.90   78.89
   1  -4  -8 1033.60   79.29
  -1  -4   8 1131.99   76.99
  -1  -4   8 1171.18   75.69
   1   4   8 1179.28   76.79
   1  -4   8 1129.09   77.89
   1  -4   8 1159.98   74.09
  -1  -4  -8 1011.70   74.19
  -1  -4  -8 1100.79   74.29
  -1   4   8 1122.89   76.79
  -1  -4  -8 1083.59   79.09
   1   4  -8 1029.00   78.69
  -1  -5   8  478.75   35.70
   1  -5  -8  519.25   41.80
  -1  -5   8  472.55   37.40
  -1   5  -8  475.15   39.40
   1   5   8  484.55   36.60
   1  -5   8  510.25   35.30
  -1   5   8  450.35   36.60
   1  -5   8  478.95   39.30
   1   5  -8  486.55   39.70
  -1  -5  -8  465.85   39.90
  -1  -6   8  399.36   31.60
  -1   6  -8  454.95   36.50
   1  -6  -8  500.05   39.20
  -1  -6   8  375.96   33.40
   1   6   8  376.56   32.30
   1  -6   8  371.26   36.40
  -1  -6  -8  424.16   37.10
  -1   6   8  340.57   32.80
   1   6  -8  464.05   37.50
   1   7   8  247.48   25.60
  -1   7  -8  272.17   30.60
   1  -7  -8  280.07   33.70
  -1  -7   8  246.78   28.30
   1   7  -8  321.47   30.00
   1  -7   8  230.88   30.00
  -1   7   8  277.87   25.70
  -1  -7  -8  315.87   31.90
  -1   8  -8  358.36   35.40
   1  -8  -8  388.16   38.30
  -1  -8   8  288.37   33.00
   1   8   8  290.17   29.60
  -1  -8  -8  323.87   36.10
   1   8  -8  365.56   36.10
  -1   8   8  277.97   29.50
   1  -8   8  285.07   36.90
   1   9   8   60.59   16.10
   1  -9  -8   86.09   23.30
  -1   9  -8   89.49   20.90
  -1  -9   8   74.79   19.50
  -1   9   8   53.99   15.20
  -1  -9  -8   68.79   22.50
   1   9  -8   91.59   21.10
   1  -9   8   63.89   20.90
   1  10  -8  181.88   28.60
  -2   0  -8 2095.49  124.89
   2   0   8 1789.12  124.49
  -2   0   8 1761.92  125.69
   2   0   8 1759.52  126.19
  -2   0  -8 1897.11  127.59
  -2   0   8 1775.02  125.69
   2   0  -8 1925.61  126.99
  -2   1  -8   30.50    9.00
  -2   1  -8   27.20    3.20
   2   1   8   33.30    6.80
  -2  -1   8   33.10    5.60
   2  -1  -8   29.20    6.30
   2   1   8   31.30    5.00
   2  -1  -8   14.50    5.70
  -2  -1   8   34.60    6.10
   2  -1   8   35.70    6.90
   2   1  -8   19.70    7.10
   2  -1   8   36.00    3.70
  -2   1   8   43.00    7.00
  -2  -1  -8   21.20    7.30
  -2  -2   8   10.80    4.80
  -2   2  -8   15.00    8.10
   2  -2  -8   22.00    7.00
   2  -2  -8   21.40    5.50
   2   2   8   10.00    4.60
   2   2   8    9.40    5.70
  -2  -2   8    9.10    4.80
   2   2  -8   16.10    7.40
  -2   2   8   11.40    5.70
   2  -2   8    8.70    5.90
  -2  -2  -8   21.60    6.40
  -2   3  -8  370.06   35.50
   2  -3  -8  393.36   35.20
  -2  -3   8  539.05   33.10
  -2  -3   8  502.25   32.90
   2  -3  -8  426.66   31.60
   2   3   8  474.55   32.70
   2   3  -8  415.26   35.30
  -2  -3  -8  393.26   32.80
  -2   3   8  496.15   33.70
  -2  -3  -8  385.16   34.30
   2  -3   8  492.85   34.60
  -2  -4   8  751.92   58.49
  -2  -4   8  770.52   58.29
   2  -4  -8  916.21   62.79
   2   4   8  725.03   58.39
  -2   4  -8  985.70   63.09
   2  -4   8  773.72   60.49
  -2  -4  -8  916.71   57.99
  -2   4   8  766.42   58.99
   2   4  -8  935.21   62.19
  -2  -4  -8  857.11   61.39
  -2  -5   8  691.23   47.90
   2   5   8  610.94   47.60
  -2   5  -8  632.94   50.99
  -2  -5   8  721.63   48.00
   2  -5  -8  589.04   51.59
  -2  -5  -8  652.73   51.69
   2  -5   8  682.53   50.89
   2   5  -8  615.54   50.49
  -2   5   8  667.03   48.50
  -2  -6   8   72.99   11.80
  -2   6  -8   65.29   15.30
   2   6   8   55.39   11.10
  -2  -6   8   67.79   12.00
   2  -6  -8   78.69   16.90
  -2  -6  -8   56.79   14.50
   2  -6   8   52.79   14.80
   2   6  -8   46.20   15.00
  -2   6   8   48.80   11.10
  -2   7  -8  381.56   35.40
   2   7   8  347.17   32.70
  -2  -7   8  372.96   33.10
  -2  -7   8  385.96   32.80
   2  -7  -8  388.06   38.70
   2   7  -8  377.16   37.20
  -2  -7  -8  419.06   39.00
  -2   7   8  357.26   32.60
   2  -7   8  337.97   38.20
   2   8   8  174.18   21.70
  -2  -8   8  204.38   24.50
  -2   8  -8  203.98   26.60
   2  -8  -8  185.98   29.80
  -2  -8  -8  180.58   26.50
   2  -8   8  156.88   26.70
   2   8  -8  201.48   27.10
  -2   8   8  157.68   20.90
   2   9   8   30.00   14.30
  -2   9  -8   36.60   18.20
   2  -9  -8   46.00   21.10
   2  -9   8   21.80   21.10
  -2  -9  -8   59.09   19.40
   2   9  -8   31.10   18.00
  -2   9   8   49.90   16.00
   3   0   8    1.60    2.80
   3   0  -8   -1.10    4.40
  -3   0   8    0.80    4.70
  -3   0  -8   -0.40    3.00
   3   0  -8   -2.30    6.20
   3   0   8   -2.90    5.10
  -3   0  -8    5.00    7.00
  -3  -1   8  602.54   42.80
  -3   1  -8  620.24   46.40
  -3   1  -8  644.64   41.00
   3  -1  -8  581.44   44.20
  -3  -1   8  592.64   43.40
   3   1   8  614.04   42.40
   3   1   8  599.34   44.20
   3  -1  -8  606.64   44.20
  -3   1  -8  627.64   41.10
  -3   1   8  616.14   43.80
  -3  -1  -8  586.54   45.40
   3  -1   8  596.74   44.00
   3   1  -8  598.34   45.40
  -3  -2   8  812.62   56.09
  -3  -2   8  817.32   56.89
  -3   2  -8  807.12   60.09
   3  -2  -8  825.72   58.89
   3   2   8  787.02   57.39
   3   2   8  787.42   56.19
   3  -2  -8  834.02   57.19
  -3   2   8  824.12   57.49
   3  -2   8  785.92   57.89
  -3  -2  -8  833.92   58.79
   3   2  -8  813.12   59.19
  -3  -3   8   74.49    9.80
   3  -3  -8   73.09    9.00
   3   3   8   85.59   10.00
  -3   3  -8   64.49   13.20
   3  -3  -8   78.39   13.30
  -3  -3   8   84.19    9.70
  -3   3   8   96.19   11.30
  -3  -3  -8   65.79   11.00
  -3   3   8   89.59   11.50
   3  -3   8   84.79   11.90
  -3  -3  -8   67.89   11.30
   3   3  -8   70.39   12.50
  -3   4  -8   65.39   13.80
  -3  -4   8   86.59    9.80
   3  -4  -8   60.09   13.20
   3  -4  -8   69.49    6.70
  -3  -4   8   73.79   10.50
   3   4   8   69.49   10.40
  -3   4   8   63.29   10.60
  -3  -4  -8   68.29   12.70
   3  -4   8   63.89   12.10
   3   4  -8   59.69   13.60
  -3  -4  -8   67.39   10.40
  -3  -5   8  103.09   13.00
   3   5   8  104.59   12.40
   3  -5  -8   62.79   15.70
  -3  -5   8  113.69   12.60
  -3   5  -8   70.49   16.10
  -3  -5  -8   68.49   14.00
   3   5  -8   35.40   13.00
   3  -5   8  116.59   16.60
  -3  -5  -8   60.39   10.80
  -3   5   8   93.69   12.50
   3  -6  -8   58.89   17.50
  -3   6  -8   40.60   14.10
   3   6   8   34.50   10.40
  -3  -6   8   32.50   10.90
  -3  -6   8   32.50    9.00
  -3  -6  -8   54.29   14.80
   3   6  -8   46.70   13.30
  -3   6   8   38.00   11.30
   3  -6   8   28.90   13.90
  -3   7  -8    9.20   12.50
  -3  -7   8   16.30   10.00
   3   7   8   10.70   10.40
  -3  -7   8    8.20   10.80
   3  -7  -8    6.30   14.40
  -3  -7  -8   16.20   14.60
   3  -7   8   26.70   15.60
   3   7  -8   16.70   13.40
  -3   7   8    3.60    9.60
   3   8   8    5.20   11.80
  -3   8  -8   -5.40   14.60
   3  -8  -8   16.90   16.80
  -3  -8   8   17.10   15.60
  -3  -8  -8   16.80   14.20
   3  -8   8   20.30   17.80
   3   8  -8   11.30   16.20
  -3   8   8   -2.40   10.70
  -3   9  -8   72.39   18.50
   3  -9  -8   70.59   28.30
   3   9   8   56.19   18.30
  -3   9   8   28.10   14.00
  -3  -9  -8   58.69   19.20
   3  -9   8   62.19   24.10
   3   9  -8   54.09   20.30
   4   0  -8  865.61   59.69
   4   0  -8  833.22   61.39
  -4   0  -8  937.41   58.39
  -4   0  -8  809.42   58.09
  -4   0  -8  821.22   62.99
   4   0   8  830.02   60.19
  -4   0   8  847.12   59.89
   4  -1  -8 1023.00   69.69
   4  -1  -8  990.30   69.89
   4   1   8  937.71   68.89
  -4   1  -8 1055.89   72.69
  -4   1  -8 1072.59   66.29
   4   1   8  942.51   67.49
  -4  -1   8  931.51   68.89
  -4   1  -8 1062.49   66.19
   4   1  -8 1011.40   67.99
  -4  -1  -8  970.10   71.79
  -4   1   8  887.51   68.79
   4   1  -8 1015.70   70.99
   4  -1   8  892.91   68.99
   4   2   8   95.19   11.30
  -4   2  -8  151.38   18.00
   4   2   8   90.99   12.10
  -4  -2   8  100.09   10.40
   4  -2  -8  149.99   15.80
  -4  -2   8  100.09   12.60
  -4   2   8  118.59   13.40
   4  -2   8   85.49   12.40
  -4  -2  -8  136.59   16.50
   4   2  -8  159.98   16.90
  -4   3  -8   32.10   11.40
   4   3   8   23.10    7.30
   4  -3  -8   30.20   10.70
  -4  -3   8   28.20    5.40
   4  -3  -8   34.30    6.80
  -4  -3   8   27.10    8.30
   4   3  -8   25.60   10.60
  -4   3   8   27.80    8.20
   4  -3   8   24.80    8.80
  -4  -3  -8   27.20    9.90
  -4  -3  -8   28.20    8.60
   4   4   8   37.80    8.50
  -4   4  -8   32.80   12.60
  -4  -4   8   43.70    7.10
   4  -4  -8   48.80    6.30
  -4  -4   8   31.30    8.70
   4  -4  -8   48.10   12.40
  -4  -4  -8   37.70   10.70
   4   4  -8   44.00   12.50
   4  -4   8   42.10   11.00
  -4  -4  -8   42.70   11.30
  -4   4   8   36.90    9.40
  -4  -5   8  117.69   15.90
   4  -5  -8  133.69   20.00
  -4   5  -8  116.79   18.90
   4   5   8  117.49   14.70
  -4  -5   8  118.79   13.40
   4   5  -8  125.89   19.80
  -4  -5  -8  135.89   16.40
   4  -5   8  126.79   18.70
  -4   5   8  128.69   15.40
  -4  -5  -8  132.09   17.80
  -4   6  -8  214.88   25.80
   4  -6  -8  206.28   27.70
  -4  -6   8  209.48   22.80
   4   6   8  198.98   21.20
  -4   6   8  192.38   22.20
   4  -6   8  200.18   25.50
   4   6  -8  203.28   26.20
  -4  -6  -8  171.18   22.90
  -4  -7   8   14.60   12.30
   4   7   8   36.70   13.30
   4  -7  -8   17.80   15.60
  -4   7  -8   18.50   15.70
   4  -7   8   41.70   17.10
  -4   7   8   24.40   12.20
  -4  -7  -8   17.70   12.90
   4   7  -8   23.10   14.40
   4   8   8  152.48   19.20
  -4   8  -8   79.99   19.70
  -4  -8   8  105.39   18.50
   4  -8  -8   76.39   22.30
  -4  -8  -8   73.49   20.20
  -4   8   8  123.59   17.50
   4   8  -8   69.99   19.70
   4  -8   8  104.79   23.70
  -4   9  -8   28.50   17.80
  -4  -9  -8   17.50   17.40
   4   9  -8    7.90   16.90
   5   0   8   -0.60    6.70
  -5   0  -8   -3.70   10.00
   5   0  -8   -2.20    5.40
   5   0  -8    0.20    7.40
  -5   0  -8    2.70    3.90
  -5   0   8    4.90    6.60
   5  -1  -8  156.08   16.20
  -5   1  -8  154.28   11.10
   5  -1  -8  172.08   17.50
  -5   1  -8  154.98   20.20
   5   1   8  122.09   14.60
  -5  -1   8  109.89   14.40
  -5  -1  -8  130.39   19.30
  -5  -1  -8  150.08   13.80
   5   1  -8  157.58   13.50
   5   1  -8  172.18   18.60
   5  -1   8  139.39   15.50
  -5   1   8  126.79   14.90
   5   2   8  132.09   13.60
  -5  -2   8  131.89   15.30
   5  -2  -8  173.88   18.30
   5  -2  -8  163.78   15.70
  -5   2  -8  162.78   20.80
   5   2   8  123.79   14.80
   5  -2   8  114.19   15.40
   5   2  -8  148.59   18.50
   5   2  -8  164.78   12.50
  -5   2   8  109.09   14.50
  -5  -2  -8  132.29   19.80
  -5  -3   8  710.33   50.49
   5   3   8  741.53   49.80
  -5   3  -8  606.94   53.99
   5  -3  -8  682.13   49.40
   5  -3  -8  687.13   52.29
   5   3  -8  658.33   53.19
  -5  -3  -8  579.94   53.19
  -5   3   8  759.22   50.79
  -5  -3  -8  670.13   51.49
   5  -3   8  746.93   51.89
  -5  -4   8  502.25   38.30
   5  -4  -8  505.35   41.80
   5   4   8  527.25   37.90
   5  -4  -8  498.15   36.10
  -5   4  -8  464.95   41.90
   5   4  -8  475.05   41.20
   5  -4   8  499.05   39.90
  -5   4   8  491.05   37.70
  -5  -4  -8  470.15   39.30
  -5  -4  -8  403.76   40.20
   5   5   8  115.79   15.50
  -5  -5   8  126.09   16.50
  -5   5  -8  125.29   20.30
   5  -5  -8  142.09   20.70
  -5  -5  -8  113.69   17.80
   5   5  -8  118.79   19.50
  -5  -5  -8  138.99   19.00
  -5   5   8  135.09   16.10
   5  -5   8  136.09   20.40
   5   6   8   12.90   10.10
   5  -6  -8   -4.50   14.00
  -5   6  -8    3.10   14.50
  -5  -6   8   10.10   10.10
   5   6  -8   -2.40   12.60
  -5   6   8   23.50   10.40
  -5  -6  -8   -1.20   11.40
   5  -6   8    2.50   13.70
   5   7   8   53.09   14.70
   5  -7  -8   14.10   17.60
  -5  -7   8   47.30   14.70
  -5   7  -8   14.70   14.70
   5   7  -8   25.80   17.20
  -5  -7  -8   35.20   15.70
   5  -7   8   53.79   18.10
  -5   7   8   35.50   12.20
   5  -8  -8   51.89   22.10
  -5   8  -8   59.79   19.00
  -5  -8   8   29.60   16.20
   5   8   8   43.60   14.80
   5  -8   8   28.10   19.00
  -5  -8  -8   23.20   16.60
   5   8  -8   45.80   17.80
  -5   8   8   33.20   13.20
  -5   9  -8  189.38   27.50
  -5  -9  -8  147.49   26.70
  -6   0   8 1055.19   70.59
   6   0   8 1050.09   70.19
  -6   0  -8  888.41   74.89
   6   0  -8  953.50   71.89
   6   0  -8 1016.40   69.09
  -6   0  -8  961.50   67.89
   6  -1  -8  151.08   19.60
   6  -1  -8  198.48   19.30
  -6  -1   8  216.08   20.80
   6   1   8  242.28   20.10
  -6   1  -8  166.18   24.40
   6  -1   8  258.17   20.40
  -6   1   8  250.47   21.20
  -6  -1  -8  165.98   24.70
  -6  -1  -8  194.98   17.80
   6   1  -8  195.58   22.30
  -6   2  -8  262.77   27.40
  -6  -2   8  158.38   19.80
   6  -2  -8  257.67   22.20
   6   2   8  162.58   19.50
   6  -2  -8  227.18   20.80
  -6  -2  -8  231.18   26.40
  -6  -2  -8  265.07   19.80
   6   2  -8  228.68   23.80
   6  -2   8  177.58   20.30
  -6   2   8  170.18   20.00
  -6   3  -8    2.40   12.20
   6  -3  -8    3.90    9.40
   6  -3  -8   15.10    7.80
  -6  -3   8   27.40    9.60
  -6   3   8   22.80   10.20
  -6  -3  -8    6.10    8.20
  -6  -3  -8    8.00    9.00
   6  -3   8   29.70   10.50
  -6  -3  -8    5.20   13.30
   6   3  -8    1.30   10.60
  -6  -4   8  266.57   24.80
  -6   4  -8  254.97   29.50
   6  -4  -8  239.48   27.60
   6   4  -8  235.08   28.00
  -6  -4  -8  229.18   25.40
  -6   4   8  330.97   25.90
   6  -4   8  290.27   28.50
  -6  -4  -8  233.88   29.70
   6   5   8  189.38   19.00
  -6  -5   8  153.98   19.70
  -6   5  -8  147.49   23.30
   6  -5  -8  151.48   22.40
  -6  -5  -8  161.18   23.60
   6   5  -8  157.98   24.30
  -6  -5  -8  174.38   21.70
   6  -5   8  175.38   22.40
  -6   5   8  186.58   20.00
  -6  -6   8  255.97   27.30
   6   6   8  253.87   24.10
  -6   6  -8  229.18   29.90
   6  -6  -8  223.88   30.30
  -6   6   8  223.98   23.80
   6  -6   8  207.08   28.00
   6   6  -8  225.48   28.60
  -6  -6  -8  222.38   27.10
  -6  -7   8  299.77   33.40
   6   7   8  293.37   30.10
  -6   7  -8  350.06   38.10
   6  -7  -8  395.76   38.60
  -6  -7  -8  318.47   34.30
  -6   7   8  302.57   29.80
   6   7  -8  360.56   36.40
   6  -7   8  285.57   36.20
  -6  -8   8   19.10   16.00
  -6   8  -8   11.50   17.70
   6  -8  -8    9.70   17.20
   6   8  -8   15.80   16.70
  -6   8   8    2.40   13.10
  -7   0   8    4.50    8.20
  -7   0  -8   11.70   14.50
   7   0  -8    0.30    9.90
  -7   0  -8   -4.60    4.90
   7   0   8   -2.70    7.90
  -7  -1   8  304.87   27.70
   7  -1  -8  396.66   29.80
  -7   1  -8  374.76   35.70
   7   1   8  291.07   27.00
  -7  -1  -8  317.27   36.80
  -7   1   8  280.77   27.30
   7  -1   8  264.17   26.80
  -7  -1  -8  350.96   25.30
   7   1  -8  361.16   31.00
  -7  -2   8  312.37   27.70
   7   2   8  295.47   26.20
  -7   2  -8  311.27   35.90
   7  -2  -8  285.97   32.50
   7  -2  -8  308.07   27.70
  -7  -2  -8  314.67   25.50
  -7  -2  -8  262.07   34.00
   7   2  -8  333.97   30.70
   7  -2   8  312.37   27.30
  -7   2   8  296.17   27.10
   7  -3  -8  608.44   45.60
  -7   3  -8  570.24   49.60
  -7  -3   8  540.75   43.90
   7  -3  -8  588.74   43.50
   7  -3   8  543.25   44.30
  -7  -3  -8  568.64   43.20
  -7  -3  -8  450.35   50.09
   7   3  -8  569.54   47.20
  -7   3   8  576.14   43.70
  -7  -3  -8  565.24   44.10
  -7  -4   8  146.19   19.40
   7  -4  -8  148.39   20.80
  -7   4  -8  143.09   23.30
   7   4  -8  140.79   21.70
   7  -4   8  134.69   19.30
  -7  -4  -8  108.19   23.60
  -7  -4  -8  126.79   17.00
  -7  -4  -8  146.59   18.70
  -7   4   8  145.79   17.40
  -7   5  -8   33.50   18.40
   7  -5  -8   69.19   17.00
  -7  -5   8   26.80   13.80
   7  -5   8   42.20   16.20
  -7  -5  -8   46.60   13.90
  -7  -5  -8   49.90   14.10
  -7   5   8   61.89   13.00
  -7  -5  -8   45.20   18.60
   7   5  -8   39.60   17.30
   7  -6  -8  129.99   21.60
  -7  -6   8  101.49   18.20
  -7   6  -8  101.49   21.60
   7  -6   8  131.99   21.50
  -7   6   8  141.99   18.00
  -7  -6  -8  110.59   19.30
   7   6  -8   96.89   22.40
  -7  -6  -8  107.09   19.60
   7  -7  -8  131.59   24.70
  -7   7  -8   97.99   23.40
  -7  -7   8   92.89   19.90
  -7   7   8  125.89   18.70
  -7  -7  -8  114.59   19.60
   7   7  -8   95.19   21.90
   7  -7   8   99.99   24.20
  -8   0  -8  266.57   34.70
   8   0  -8  301.97   28.70
  -8   0   8  274.57   26.20
   8   0   8  271.97   25.50
   8   1   8   88.49   12.90
   8  -1  -8   65.99   15.10
  -8  -1   8   84.29   14.60
  -8   1  -8  101.09   22.30
   8   1  -8   68.99   16.70
   8  -1   8   77.89   13.60
  -8   1   8   85.59   14.80
  -8  -1  -8   67.19   22.60
  -8  -1  -8   82.19   10.90
  -8  -2   8   86.19   15.60
  -8   2  -8  104.69   22.60
   8   2   8   93.29   13.40
   8  -2  -8   90.09   15.50
  -8  -2  -8   68.89   12.00
   8  -2   8  104.49   15.90
  -8  -2  -8   81.49   23.70
   8   2  -8   95.19   17.80
  -8   2   8   99.59   15.00
   8  -3  -8   68.49   13.40
  -8  -3   8   95.59   16.80
  -8   3  -8   58.09   19.60
  -8   3   8   98.59   14.90
  -8  -3  -8   51.29   22.10
   8  -3   8   80.69   14.60
  -8  -3  -8   70.09   13.70
  -8  -3  -8   68.49   13.10
   8   3  -8   63.59   17.00
  -8   4  -8  386.26   40.00
  -8  -4   8  386.26   35.70
   8   4  -8  380.86   37.50
  -8   4   8  366.36   32.70
  -8  -4  -8  300.27   40.70
   8  -4   8  374.06   34.70
  -8  -4  -8  421.26   34.10
  -8  -4  -8  347.07   33.30
  -8   5  -8   73.29   21.80
  -8  -5   8   70.89   16.20
  -8  -5  -8   71.39   22.50
   8   5  -8   78.19   20.70
   8  -5   8   54.09   17.70
  -8   5   8   67.39   15.40
  -8  -5  -8   64.19   16.00
   8  -6  -8    9.10   13.70
  -8  -6   8   -2.50   12.80
  -8   6  -8   -0.40   17.70
  -8   6   8    0.80   11.50
   8  -6   8   -1.40   14.30
   8   6  -8    8.60   15.60
  -8  -6  -8    5.70   14.20
   8  -7  -8   65.49   19.10
   9   0  -8    6.40   12.10
  -9   0  -8    7.80   18.20
  -9   0   8    1.60   10.50
   9   0   8    1.50    9.10
   9   1   8  140.49   17.10
  -9  -1   8  129.89   19.50
  -9   1  -8  142.19   27.40
   9  -1  -8  168.88   21.50
  -9   1   8  115.99   17.80
  -9  -1  -8  125.99   27.30
   9   1  -8  137.89   21.40
   9  -1   8  157.68   18.50
  -9   2  -8  348.07   40.60
   9  -2  -8  322.37   32.20
  -9  -2   8  317.27   31.30
   9   2  -8  363.16   34.80
  -9  -2  -8  366.06   44.10
   9  -2   8  320.27   30.00
  -9   2   8  321.27   31.10
   9  -3  -8  115.99   18.40
  -9   3  -8  136.49   26.40
  -9  -3   8  160.88   21.60
  -9  -3  -8  100.09   26.70
   9   3  -8  121.69   21.70
  -9  -3  -8  118.99   17.20
   9  -3   8  160.08   20.70
  -9   3   8  166.18   20.70
  -9   4  -8   47.00   21.20
  -9  -4   8   17.20   13.70
   9  -4   8   30.90   15.10
  -9  -4  -8   39.40   23.20
  -9   4   8   32.80   13.00
   9   4  -8   25.30   15.70
  -9  -4  -8   37.30   13.60
  -9  -5   8  212.08   25.80
  -9   5  -8  190.18   29.80
  -9  -5  -8  190.18   24.00
   9  -5   8  204.98   26.70
  -9  -5  -8  153.38   33.10
  -9   5   8  211.68   24.40
 -10   0   8  143.39   19.80
 -10   0  -8  102.59   28.60
  10   0  -8  143.59   22.80
 -10  -1   8  218.38   26.00
  10  -1  -8  225.08   27.40
 -10   1  -8  190.88   34.40
  10   1  -8  252.67   29.50
 -10   1   8  210.28   24.70
 -10  -1  -8  228.48   35.80
 -10   2  -8   12.10   20.20
 -10  -2   8   17.30   15.00
  10  -2  -8    9.40   13.70
  10   2  -8   21.40   15.70
  10  -2   8   22.20   13.00
 -10   2   8   26.40   13.70
 -10  -2  -8   22.30   23.60
 -10  -3   8   96.99   22.20
 -10   3  -8   90.49   28.00
  10  -3   8   62.99   16.40
 -10  -3  -8   69.39   25.90
 -10   3   8   64.39   16.30
  10   3  -8  105.49   21.40
 -10  -4  -8   76.09   26.00
  10  -4   8  102.69   19.40
 -10  -4  -8   88.49   18.40
 -10  -5  -8   80.09   24.50
  11   0  -8    4.40   17.50
  11  -1  -8   55.09   17.10
  11  -2  -8  221.18   27.60
   0   0   9   -1.10    3.50
   0   0   9    3.40    5.20
   0   0  -9    2.20    5.80
   0   1   9    4.10    5.80
   0   1  -9    0.70    5.80
   0   1   9   -0.10    4.10
   0  -1   9    1.00    5.00
   0  -1  -9    4.90    5.00
   0  -1   9   -0.10    3.20
   0  -2  -9   -4.00    4.30
   0   2  -9    3.90    6.90
   0  -2   9    0.30    3.30
   0   2   9    2.40    5.10
   0  -2   9   -7.20    5.00
   0   2  -9    3.00    3.10
   0  -2  -9    2.80    6.30
   0  -3  -9    6.50    7.60
   0  -3   9    1.40    5.70
   0  -3   9    0.10    3.10
   0  -3  -9    3.20    3.80
   0   3  -9   -3.60    7.20
   0  -3   9   -2.50    3.20
   0  -3  -9   -0.20    3.40
   0   3   9    3.30    6.10
   0   4  -9   -9.90    9.10
   0  -4   9    5.70    4.00
   0  -4  -9    7.10    9.90
   0  -4   9   -2.90    6.40
   0   4   9    1.10    6.30
   0  -5   9    2.60    5.10
   0   5  -9   -2.40    9.90
   0  -5   9   -2.10    7.70
   0  -5  -9    5.10   10.30
   0   5   9    8.80    7.60
   0  -6  -9    5.60   11.30
   0   6   9   -4.10    9.20
   0  -6   9    1.00    9.50
   0   6  -9    1.90   11.10
   0   7   9   -0.70    9.60
   0  -7   9   12.70   13.10
   0   7  -9    4.80   12.80
   0  -7  -9   18.40   14.70
   0   8   9   12.00   11.50
   0  -8  -9   10.00   17.30
   0   8  -9   19.00   16.60
   0  -8   9    1.60   15.30
   0   9   9    5.10   14.60
   0  -9  -9   -2.70   16.60
   0  -9   9    5.60   17.30
   0   9  -9   -2.60   17.20
   1   0   9    5.50    5.40
  -1   0   9    5.00    4.50
  -1   0   9    0.10    4.80
   1   0  -9    1.80    5.30
  -1   0  -9    3.10    6.20
   1   0   9   -0.10    3.10
   1   1   9  291.77   24.00
   1   1   9  311.87   22.40
  -1  -1   9  327.57   23.60
  -1   1  -9  293.17   21.20
   1  -1  -9  303.07   23.90
  -1   1  -9  289.57   25.90
  -1  -1   9  289.87   22.70
  -1  -1  -9  292.27   24.30
   1  -1   9  304.17   24.00
   1  -1   9  293.37   21.40
  -1   1   9  311.97   23.40
   1   1  -9  322.07   25.30
   1  -2  -9  739.93   51.39
  -1   2  -9  817.02   49.60
  -1  -2   9  753.32   51.99
  -1   2  -9  762.52   54.39
  -1  -2   9  710.03   50.79
   1  -2  -9  722.43   53.19
   1   2   9  684.03   51.09
   1   2  -9  718.63   53.69
  -1   2   9  686.03   51.49
   1  -2   9  722.43   49.50
  -1  -2  -9  747.43   51.79
   1  -2   9  704.33   52.39
  -1  -3   9   76.49   10.00
   1   3   9   74.99    9.90
   1  -3  -9   77.99   12.40
  -1  -3   9   73.09    8.70
   1  -3  -9   79.49    8.70
  -1   3  -9   77.19   13.10
   1  -3   9   84.29    6.50
  -1   3   9   72.89   10.20
  -1  -3  -9   73.39   12.10
  -1  -3  -9   72.89    8.90
   1  -3   9   82.49   11.60
   1   3  -9   81.69   13.00
  -1   3   9   83.79    9.70
   1  -3   9   84.29    6.50
  -1  -4   9   57.29    8.40
  -1   4  -9   89.59   14.80
   1   4   9   45.00    9.10
   1  -4  -9   87.19   14.10
  -1  -4   9   52.69   10.20
   1   4  -9   83.29   13.80
  -1   4   9   39.80    9.40
   1  -4   9   43.40   11.00
  -1  -4  -9   89.39   13.60
  -1  -4  -9   83.79    7.40
   1   5   9  328.37   25.10
   1  -5  -9  256.67   29.90
  -1  -5   9  309.77   26.00
  -1  -5   9  329.27   23.60
  -1   5  -9  254.07   27.70
   1  -5   9  292.67   26.50
  -1  -5  -9  287.97   28.70
  -1   5   9  275.77   24.90
   1   5  -9  239.28   27.70
  -1  -6   9   72.39   13.50
   1   6   9   78.59   12.50
  -1   6  -9   61.59   15.20
   1  -6  -9   74.29   17.00
   1   6  -9   72.99   16.60
  -1  -6  -9   79.39   17.50
   1  -6   9   63.39   14.80
  -1   6   9   84.79   13.00
  -1  -7   9    7.50   11.90
   1   7   9   13.50   10.50
  -1   7  -9   -9.90   13.70
   1  -7  -9    6.90   15.50
  -1   7   9    9.90   11.30
   1   7  -9   14.00   13.20
  -1  -7  -9   -5.50   14.30
   1  -7   9   -1.90   14.20
  -1  -8   9   -4.30   13.60
   1  -8  -9    5.00   16.20
   1   8   9    5.50   12.60
  -1   8  -9    8.60   14.10
   1   8  -9   15.10   15.10
  -1   8   9   19.80   13.30
  -1  -8  -9    0.90   16.80
   1  -8   9    3.40   15.10
  -1  -9   9   88.99   20.60
  -1   9  -9   94.99   22.40
   1   9   9   71.79   19.90
   1  -9  -9   69.39   26.80
   1   9  -9   81.79   20.90
   1  -9   9   89.09   23.50
  -1  -9  -9   82.99   22.40
  -1   9   9   85.49   18.60
  -2   0  -9  197.48   19.50
   2   0  -9  199.58   18.40
  -2   0   9  179.08   16.60
  -2   0  -9  231.58   15.70
  -2   0   9  201.28   16.80
   2   0   9  176.98   14.40
   2   0   9  172.98   17.20
  -2   1  -9 1432.96   95.99
  -2   1  -9 1489.85   91.19
   2   1   9 1279.27   93.59
   2   1   9 1274.97   91.99
  -2  -1   9 1293.27   92.79
  -2  -1   9 1332.27   92.99
   2  -1  -9 1395.46   94.19
   2  -1  -9 1425.66   93.89
  -2   1   9 1322.97   93.19
   2   1  -9 1408.06   95.09
  -2  -1  -9 1391.36   94.69
   2  -1   9 1339.27   93.79
   2  -1   9 1308.17   91.09
  -2   2  -9  477.95   39.40
  -2  -2   9  507.35   36.00
   2  -2  -9  471.65   36.20
  -2  -2   9  522.35   36.30
   2  -2  -9  474.15   38.20
   2   2   9  519.95   35.70
   2   2   9  519.65   37.30
   2   2  -9  494.65   38.70
  -2   2   9  524.05   36.70
   2  -2   9  505.05   37.30
  -2  -2  -9  441.06   36.80
   2  -3  -9  124.19   10.80
   2  -3  -9  133.89   15.80
  -2   3  -9  120.89   16.10
   2   3   9   93.29   11.20
  -2  -3   9   88.89   11.10
  -2  -3   9   83.49   10.90
   2   3  -9  109.39   14.90
  -2   3   9   92.39   12.30
   2  -3   9   74.99   12.20
  -2  -3  -9  125.69   12.30
  -2  -3  -9  115.69   14.20
   2  -4  -9   97.29   15.40
  -2  -4   9   90.69   11.30
   2   4   9   74.69   11.20
  -2  -4   9   84.29   10.90
  -2   4  -9   84.79   15.20
  -2  -4  -9  111.39   11.00
  -2   4   9   74.09   11.60
   2  -4   9   79.59   13.20
  -2  -4  -9   91.69   14.40
   2   4  -9  112.59   15.70
  -2   5  -9  796.92   69.39
  -2  -5   9 1002.10   66.39
  -2  -5   9 1006.70   65.89
   2   5   9  988.70   66.49
   2  -5  -9  837.22   69.59
  -2   5   9  965.00   66.49
   2  -5   9  978.40   68.59
  -2  -5  -9  839.32   69.49
   2   5  -9  882.31   69.09
   2  -6  -9  510.05   41.90
  -2  -6   9  404.76   35.10
   2   6   9  398.26   35.70
  -2  -6   9  410.26   35.40
  -2   6  -9  478.45   39.50
  -2   6   9  427.66   35.50
  -2  -6  -9  480.75   40.10
   2  -6   9  385.76   38.50
   2   6  -9  532.35   40.50
  -2   7  -9   34.30   16.30
   2   7   9   66.29   13.10
  -2  -7   9   60.39   13.20
   2  -7  -9   29.70   16.40
   2   7  -9   27.80   16.60
  -2  -7  -9   11.10   13.80
   2  -7   9   67.39   17.30
  -2   7   9   56.69   12.90
  -2   8  -9  281.67   34.40
   2   8   9  328.97   29.60
  -2  -8   9  277.87   30.80
   2  -8  -9  298.37   36.60
   2  -8   9  276.87   34.40
   2   8  -9  293.97   35.60
  -2  -8  -9  249.18   33.60
  -2   8   9  276.97   28.50
  -2   9  -9   80.69   20.60
   2  -9   9  110.19   24.70
   2   9  -9   89.99   23.10
  -2  -9  -9   85.09   22.60
  -3   0  -9    1.70    3.20
  -3   0   9   -3.50    4.90
   3   0   9    3.70    3.20
   3   0  -9    2.10    5.10
   3   0  -9    0.40    6.70
   3   0   9   -1.40    5.90
  -3   0  -9    4.40    7.40
   3  -1  -9  195.48   17.80
  -3  -1   9  163.58   15.40
  -3  -1   9  172.48   16.50
   3   1   9  181.48   14.80
  -3   1  -9  187.08   21.00
   3  -1  -9  172.88   17.40
  -3   1  -9  197.88   12.80
   3   1   9  164.18   17.00
   3   1  -9  178.38   18.30
   3  -1   9  175.78   17.20
  -3  -1  -9  176.88   19.40
  -3   1   9  177.38   16.50
   3   2   9 2984.20  194.38
  -3  -2   9 2994.80  195.18
  -3   2  -9 2729.93  197.98
   3  -2  -9 2840.92  195.28
   3  -2  -9 2876.61  196.88
  -3  -2   9 2863.61  194.38
   3   2   9 3005.50  195.98
   3  -2   9 2905.61  195.98
  -3  -2  -9 2804.22  196.58
   3   2  -9 2785.52  197.18
  -3   2   9 2990.70  195.48
  -3  -3   9  171.98   16.90
  -3   3  -9  169.48   20.90
   3   3   9  167.48   16.20
   3  -3  -9  167.08   19.40
   3  -3  -9  202.48   15.50
  -3  -3   9  156.98   15.50
  -3  -3  -9  177.38   18.10
  -3   3   9  152.78   17.00
   3   3  -9  189.98   20.30
   3  -3   9  155.08   18.10
  -3  -3  -9  201.48   19.20
  -3  -4   9   42.60    9.80
  -3  -4   9   56.29    9.40
   3  -4  -9  117.99   17.00
   3   4   9   61.99   10.40
  -3   4  -9  102.29   17.20
   3   4  -9   85.29   14.60
  -3  -4  -9   89.59   13.80
  -3   4   9   50.89   10.50
  -3  -4  -9  106.79   12.00
   3  -4   9   58.79   13.40
   3   5   9  856.91   58.29
  -3   5  -9  777.42   62.19
   3  -5  -9  774.72   62.49
  -3  -5   9  870.61   58.59
  -3  -5   9  807.62   57.39
   3   5  -9  728.53   61.29
  -3  -5  -9  767.42   61.19
  -3   5   9  807.12   58.49
   3  -5   9  821.82   61.59
  -3   6  -9  402.16   35.30
   3  -6  -9  359.16   36.10
  -3  -6   9  327.47   29.20
  -3  -6   9  315.37   30.20
   3   6   9  336.97   30.00
   3  -6   9  346.97   34.60
  -3   6   9  286.47   29.50
   3   6  -9  448.16   35.70
  -3  -6  -9  420.96   35.10
  -3   7  -9   54.39   16.20
   3   7   9   64.29   13.70
  -3  -7   9   53.89   14.20
   3  -7  -9   74.59   19.60
  -3   7   9   57.69   13.30
   3   7  -9   63.49   17.10
  -3  -7  -9   65.39   16.90
   3  -7   9   61.99   18.80
  -3   8  -9  108.09   20.80
   3  -8  -9   91.39   23.10
   3   8   9  113.89   18.70
   3  -8   9  113.29   23.80
  -3   8   9  131.69   18.80
   3   8  -9   76.89   21.70
  -3  -8  -9   55.29   18.90
  -3   9  -9  411.06   41.60
   3   9  -9  409.16   45.50
  -3  -9  -9  420.76   45.60
  -4   0  -9  538.75   45.20
   4   0  -9  510.15   41.00
   4   0  -9  523.25   43.00
  -4   0   9  607.04   41.60
   4   0   9  640.14   42.20
  -4   1  -9 1415.76   97.99
  -4   1  -9 1465.05   90.79
   4  -1  -9 1378.46   94.99
   4   1   9 1317.97   92.29
  -4  -1   9 1333.07   93.89
   4   1   9 1356.06   94.29
   4  -1  -9 1366.36   94.69
  -4  -1  -9 1313.37   96.89
   4   1  -9 1378.86   92.99
   4  -1   9 1273.47   94.09
   4   1  -9 1369.36   95.89
  -4   1   9 1306.87   94.09
  -4  -2   9  563.74   36.40
   4  -2  -9  476.35   39.30
  -4  -2   9  518.75   37.80
   4   2   9  549.35   38.90
   4   2   9  551.44   36.80
  -4   2  -9  404.06   41.00
   4  -2  -9  447.46   37.70
   4   2  -9  435.96   39.90
  -4   2   9  548.15   38.40
  -4  -2  -9  443.06   40.20
   4  -2   9  558.44   39.10
   4  -3  -9  354.16   23.60
  -4   3  -9  304.47   30.30
   4  -3  -9  353.66   28.50
   4   3   9  231.38   23.00
  -4  -3   9  254.67   24.50
  -4  -3   9  249.88   21.90
  -4   3   9  220.48   23.70
   4   3  -9  350.86   28.60
   4  -3   9  257.37   26.30
  -4  -3  -9  352.36   27.50
  -4  -3  -9  309.47   26.80
  -4  -4   9  152.38   14.20
   4  -4  -9  138.19   19.40
   4   4   9  143.59   15.50
  -4   4  -9  144.49   21.00
  -4  -4   9  134.39   16.20
   4  -4   9  139.29   19.00
  -4  -4  -9  156.38   19.00
  -4  -4  -9  168.18   18.80
  -4   4   9  124.79   16.00
   4   4  -9  144.79   19.60
   4   5   9  623.44   45.70
   4  -5  -9  617.84   50.59
  -4   5  -9  577.04   50.49
  -4  -5   9  579.84   46.20
  -4   5   9  597.84   46.10
  -4  -5  -9  639.44   49.10
   4   5  -9  603.54   49.80
   4  -5   9  620.14   49.10
   4  -6  -9  363.36   34.60
  -4   6  -9  370.56   35.30
  -4  -6   9  258.97   28.30
   4   6   9  288.57   27.30
  -4  -6  -9  326.67   31.40
   4   6  -9  360.66   33.30
  -4   6   9  258.77   27.20
   4  -6   9  257.87   31.80
   4  -7  -9   43.80   18.20
   4   7   9   77.39   14.70
  -4   7  -9   36.80   16.50
  -4  -7   9   74.49   15.40
  -4  -7  -9   54.29   17.40
   4  -7   9   98.69   22.60
   4   7  -9   57.99   18.30
  -4   7   9   68.29   14.00
   4  -8  -9  337.97   39.80
  -4   8  -9  302.17   36.50
   4   8   9  345.07   32.40
   4  -8   9  327.07   39.90
   4   8  -9  301.97   36.60
  -4  -8  -9  330.17   38.00
  -4   8   9  332.57   31.30
  -4   9  -9   56.59   23.60
  -4  -9  -9   67.99   34.20
   5   0  -9    0.70    5.90
   5   0  -9    1.20    7.70
  -5   0  -9   -0.90    3.70
   5   0   9   -3.70    6.50
  -5   0  -9    9.80   10.90
  -5   0   9   -6.10    7.80
   5   1   9  159.68   17.00
   5  -1  -9  150.28   17.40
  -5   1  -9  147.79   21.50
  -5  -1   9  161.38   17.00
   5  -1  -9  132.59   15.80
   5  -1   9  142.69   17.30
   5   1  -9  137.79   14.20
   5   1  -9  149.79   18.90
  -5  -1  -9  128.09   19.30
  -5  -1  -9  125.09   13.60
  -5   1   9  152.88   16.10
  -5  -2   9 1308.37   86.39
   5  -2  -9 1182.88   85.89
   5   2   9 1339.27   86.39
   5   2   9 1258.57   84.59
   5  -2  -9 1247.38   87.39
  -5   2  -9 1185.98   90.29
   5   2  -9 1181.08   88.49
   5   2  -9 1147.69   84.49
   5  -2   9 1306.37   86.89
  -5   2   9 1331.77   86.69
  -5  -2  -9 1013.90   88.39
   5  -3  -9  125.59   14.10
   5  -3  -9  110.29   16.40
  -5   3  -9  101.19   18.50
  -5  -3   9  118.69   15.40
   5   3   9  124.79   13.50
  -5  -3  -9   90.19   16.70
   5  -3   9  108.39   15.40
  -5  -3  -9   98.19   14.90
   5   3  -9  107.19   17.40
  -5   3   9  125.59   15.20
  -5  -4   9   17.90   10.20
   5  -4  -9   13.30   10.90
  -5   4  -9   20.30   14.80
   5   4   9   34.20    9.70
  -5  -4  -9   11.40    9.50
   5  -4   9   16.60   12.30
  -5   4   9   22.40    9.70
   5   4  -9   37.00   13.50
  -5  -4  -9    8.30   11.60
  -5   5  -9  339.27   34.00
   5  -5  -9  331.57   32.80
   5   5   9  300.17   27.30
  -5  -5   9  308.27   28.90
  -5  -5  -9  313.97   30.30
  -5   5   9  323.37   28.20
   5   5  -9  293.27   32.00
   5  -5   9  299.67   31.50
   5  -6  -9  440.36   39.30
  -5  -6   9  330.47   33.70
   5   6   9  338.97   33.30
  -5   6  -9  375.26   39.70
  -5   6   9  382.96   33.80
   5  -6   9  331.27   36.20
   5   6  -9  421.46   38.00
  -5  -6  -9  395.36   37.10
  -5  -7   9   77.69   17.10
   5   7   9   83.19   16.20
   5  -7  -9   94.39   23.40
  -5   7  -9   90.29   21.20
   5  -7   9   91.29   21.50
  -5  -7  -9   67.79   18.60
  -5   7   9   71.59   16.00
   5   7  -9   59.49   20.40
  -5  -8   9   52.29   16.90
   5   8   9   20.20   14.40
  -5   8  -9   33.00   19.00
   5  -8  -9   53.89   20.50
  -5  -8  -9   34.00   18.20
  -5   8   9   36.20   14.00
   5   8  -9   43.80   18.20
  -6   0   9  760.02   61.39
  -6   0  -9  878.01   67.69
  -6   0  -9  938.21   59.19
   6   0  -9  932.31   64.39
   6   0   9  774.22   61.29
   6  -1  -9   90.19   12.80
  -6  -1   9   91.59   13.30
   6  -1  -9   91.29   14.50
   6   1   9   90.99   12.70
  -6   1  -9   94.19   18.70
  -6  -1  -9   70.99   19.00
   6   1  -9   86.19   15.40
   6  -1   9  104.99   13.60
  -6  -1  -9   99.49   11.10
  -6   1   9  114.39   14.50
  -6   2  -9   30.10   14.50
   6  -2  -9   19.70   10.10
  -6  -2   9   35.50   10.70
   6  -2  -9   22.50    9.60
   6   2   9   33.00    9.80
  -6  -2  -9   26.60    8.40
  -6  -2  -9   29.90   15.70
   6   2  -9   22.60   11.70
   6  -2   9   44.20   11.60
  -6   2   9   41.20   10.30
   6  -3  -9  194.98   18.40
   6  -3  -9  205.28   22.00
  -6   3  -9  212.68   26.10
  -6  -3   9  132.39   18.10
   6   3  -9  188.18   22.90
   6  -3   9  143.19   19.20
  -6  -3  -9  187.98   21.30
  -6   3   9  127.19   17.50
  -6  -3  -9  148.29   24.00
  -6   4  -9  246.18   30.30
   6   4   9  219.68   21.80
   6  -4  -9  237.18   27.30
  -6  -4   9  256.77   25.20
  -6  -4  -9  215.08   28.10
   6   4  -9  196.28   26.50
  -6   4   9  240.68   23.20
   6  -4   9  260.97   28.00
  -6  -4  -9  215.78   25.00
   6   5   9   44.10   12.00
   6  -5  -9   41.10   14.40
  -6   5  -9   38.30   16.20
  -6  -5   9   53.39   14.20
  -6   5   9   69.59   12.90
  -6  -5  -9   30.50   13.90
   6   5  -9   22.50   15.20
   6  -5   9   45.00   15.30
   6  -6  -9   41.40   17.70
   6   6   9   15.00   12.20
  -6  -6   9   32.30   14.30
  -6   6  -9   44.10   18.80
   6   6  -9   57.89   17.90
  -6  -6  -9   21.70   14.60
  -6   6   9   29.50   13.10
   6  -6   9   28.80   15.80
   6   7   9  348.27   33.60
  -6  -7   9  343.87   35.00
   6  -7  -9  343.17   41.30
  -6   7  -9  324.87   39.70
  -6  -7  -9  356.46   36.40
   6   7  -9  324.77   40.10
  -6   7   9  357.16   33.50
   6  -7   9  329.57   38.00
  -6  -8   9   80.29   19.60
   7   0   9    0.40    7.80
   7   0  -9   -3.50    9.50
  -7   0  -9  -12.50   13.40
  -7   0   9    4.20    8.90
  -7  -1   9  360.46   29.20
   7  -1  -9  287.07   29.60
   7   1   9  353.76   28.00
  -7   1  -9  302.97   35.80
  -7  -1  -9  296.47   36.80
   7   1  -9  288.77   31.80
  -7  -1  -9  318.07   25.60
   7  -1   9  345.27   28.60
  -7   1   9  345.67   29.50
  -7   2  -9  149.49   26.10
   7  -2  -9  167.68   19.90
   7   2   9  162.68   18.90
  -7  -2   9  155.38   19.20
  -7  -2  -9  150.38   16.80
   7  -2   9  164.48   19.60
   7   2  -9  177.58   23.20
  -7  -2  -9  132.29   26.10
  -7   2   9  159.78   18.70
  -7  -3   9  486.15   40.90
   7  -3  -9  568.24   39.90
   7  -3  -9  502.75   41.50
  -7   3  -9  513.05   48.60
  -7  -3  -9  521.75   39.80
  -7  -3  -9  541.75   41.80
  -7   3   9  485.85   40.40
   7  -3   9  481.75   42.20
  -7  -3  -9  397.86   45.10
   7   3  -9  528.75   45.70
  -7   4  -9  258.17   31.70
  -7  -4   9  267.97   27.50
   7  -4  -9  236.78   27.80
  -7  -4  -9  266.87   24.50
  -7   4   9  254.07   24.90
  -7  -4  -9  220.58   31.30
   7  -4   9  256.07   29.20
  -7  -4  -9  228.58   26.30
   7   4  -9  235.08   29.30
  -7  -5   9   46.50   13.70
   7  -5  -9   27.00   15.40
  -7   5  -9   33.60   18.80
  -7  -5  -9   22.50   11.90
   7  -5   9   56.89   16.40
  -7   5   9   60.79   13.40
  -7  -5  -9   26.00   13.70
   7   5  -9   18.30   15.20
  -7   6  -9   65.59   20.40
   7  -6  -9   83.89   20.80
  -7  -6   9   91.19   18.70
   7  -6   9   94.09   20.50
  -7  -6  -9   89.79   17.10
  -7  -6  -9   89.29   18.70
   7   6  -9   85.59   20.20
  -7   6   9   90.49   17.20
   7  -7  -9   50.09   19.90
  -7   7  -9   34.50   22.20
  -7  -7   9   24.20   16.50
  -7  -7  -9   19.60   16.00
   8   0   9  437.96   37.80
   8   0  -9  531.45   41.70
  -8   0  -9  456.05   49.10
  -8   0   9  450.05   39.00
  -8  -1   9  154.88   20.20
   8  -1  -9  164.08   21.10
   8   1   9  149.49   17.80
  -8   1  -9  146.99   26.70
   8   1  -9  159.18   22.20
  -8   1   9  126.39   18.00
   8  -1   9  158.88   19.00
  -8  -1  -9  161.98   28.20
   8  -2  -9   50.79   13.40
  -8   2  -9   40.20   19.80
  -8  -2   9   74.79   15.30
   8   2   9   56.19   12.00
   8  -2   9   50.19   12.80
  -8  -2  -9   43.40   21.40
   8   2  -9   41.30   14.90
  -8   2   9   53.09   13.10
  -8  -2  -9   41.80   11.50
  -8   3  -9    5.80   17.50
  -8  -3   9   22.50   12.40
   8   3  -9   29.40   14.90
   8  -3   9   22.40   12.20
  -8  -3  -9   20.20   17.90
  -8  -3  -9   34.90   10.70
  -8  -3  -9   24.70   11.90
  -8   3   9   18.50   12.90
  -8  -4   9  209.98   24.00
  -8   4  -9  165.38   29.40
  -8   4   9  198.08   22.10
  -8  -4  -9  189.08   23.00
  -8  -4  -9  221.08   23.40
   8  -4   9  201.08   24.20
   8   4  -9  171.88   25.40
  -8  -4  -9  147.89   29.30
  -8  -5   9  170.68   23.10
  -8   5  -9  189.48   29.50
   8   5  -9  151.48   25.30
   8  -5   9  167.48   24.30
  -8  -5  -9  204.58   23.00
  -8   5   9  160.58   21.30
  -8  -6   9  198.88   24.80
  -8  -6  -9  151.08   22.90
   9   0  -9    1.00   12.00
  -9   0   9   -5.00   12.40
   9   0   9    1.20    9.90
  -9   0  -9   -7.80   17.80
   9  -1  -9   53.69   16.70
   9   1   9  104.49   15.10
  -9  -1   9  100.69   17.80
  -9   1  -9   72.59   24.30
   9   1  -9   87.99   18.30
   9  -1   9  102.59   16.30
  -9   1   9  100.19   17.20
  -9  -1  -9   77.59   25.00
  -9  -2   9  110.49   18.60
  -9   2  -9  118.69   27.10
   9  -2  -9  144.99   19.80
   9  -2   9  141.99   18.80
  -9  -2  -9  137.09   30.30
   9   2  -9  124.49   21.40
  -9   2   9  115.89   18.70
  -9  -3   9  119.39   19.60
  -9   3  -9  151.88   29.80
   9   3  -9  150.98   23.00
  -9  -3  -9  119.39   29.10
  -9   3   9  124.29   20.10
   9  -3   9  119.99   19.50
  -9   4  -9   73.19   23.30
  -9  -4   9   94.99   19.10
  -9  -4  -9  122.89   18.10
   9  -4   9   98.59   19.70
  -9  -4  -9   58.89   25.00
  -9   4   9  116.19   18.70
   9   4  -9   77.99   20.30
  -9  -5  -9   22.30   12.90
   9  -5   9   48.00   19.60
 -10   0   9   19.10   15.30
  10   0  -9   32.30   16.70
 -10   0  -9   23.40   22.60
 -10   1  -9   51.69   26.60
 -10  -1   9   29.20   14.40
  10  -1  -9   47.00   16.40
  10  -1   9   13.60   16.70
 -10  -1  -9   -6.50   21.00
  10   1  -9   32.80   16.00
 -10   1   9   24.70   13.50
  10  -2  -9    8.10   13.60
 -10  -2   9    6.30   23.40
  10  -2   9    5.80   13.20
  10   2  -9    0.20   16.80
 -10  -2  -9   23.60   21.70
 -10   2   9    7.70   17.10
 -10  -3  -9    1.20   20.70
  10  -3   9   27.50   15.10
 -10  -4  -9   19.40   23.20
  10  -4   9   27.10   22.40
  11  -1  -9    1.50   23.90
   0   0 -10 2500.15  158.68
   0   0  10 2183.28  156.18
   0   0  10 2299.17  157.68
   0  -1 -10 2665.93  171.38
   0  -1  10 2422.56  169.28
   0   1  10 2448.96  169.98
   0   1  10 2477.05  171.18
   0  -1  10 2551.14  171.08
   0   1 -10 2593.84  172.48
   0  -2  10  383.86   27.90
   0   2  10  372.36   29.40
   0  -2 -10  400.76   32.20
   0  -2  10  384.56   30.70
   0   2 -10  413.66   32.50
   0  -2 -10  401.86   29.60
   0   3  10  639.94   47.90
   0  -3  10  590.24   45.60
   0  -3 -10  742.13   51.19
   0  -3  10  614.04   48.40
   0   3 -10  712.93   51.19
   0  -3 -10  724.03   46.80
   0  -4  10  511.65   38.30
   0   4  10  505.55   38.00
   0  -4  10  506.65   35.10
   0   4 -10  488.45   41.60
   0  -4 -10  461.05   40.60
   0   5 -10  675.63   46.60
   0  -5  10  476.75   41.70
   0   5  10  488.75   40.10
   0  -6 -10  464.25   46.10
   0   6 -10  525.95   46.20
   0  -6  10  580.04   45.00
   0   6  10  605.14   43.50
   0  -7  10  207.58   24.40
   0  -7 -10  131.09   24.70
   0   7  10  228.28   24.10
   0   7 -10  163.78   24.80
   0   8  10  645.24   47.10
   0   8 -10  488.45   49.80
   0  -8 -10  488.85   51.79
   0  -8  10  649.14   51.19
   0  -9  10   29.50   17.00
   0   9 -10   15.30   19.50
   1   0  10   -5.50    5.70
  -1   0  10   -1.80    4.40
  -1   0  10   -5.20    5.00
   1   0  10   -0.10    3.60
  -1   0 -10    0.90    7.00
   1   0 -10   14.00    7.40
   1  -1 -10  463.55   37.10
  -1  -1  10  531.55   37.10
   1   1  10  527.25   35.80
   1   1  10  546.15   37.90
  -1  -1  10  494.85   35.90
  -1   1 -10  434.06   38.50
  -1   1 -10  456.35   34.60
   1  -1  10  520.05   37.60
  -1   1  10  526.55   36.40
   1  -1  10  545.25   34.90
  -1  -1 -10  477.45   37.80
   1   1 -10  482.15   38.40
  -1   2 -10 1702.93  112.69
  -1  -2  10 1793.92  115.19
   1   2  10 1727.53  114.29
   1  -2 -10 1536.45  115.99
  -1  -2  10 1651.53  113.79
  -1   2 -10 1595.84  117.19
   1  -2 -10 1601.14  114.49
   1  -2  10 1782.52  115.69
   1   2 -10 1576.24  116.69
  -1  -2 -10 1572.74  114.89
   1  -2  10 1822.22  112.59
  -1   2  10 1764.52  114.89
  -1   3 -10  384.36   31.70
  -1  -3  10  359.66   26.60
   1  -3 -10  364.16   26.60
   1   3  10  344.87   27.40
  -1  -3  10  345.37   28.50
   1  -3 -10  358.36   30.70
  -1   3  10  346.67   27.90
   1   3 -10  382.26   31.40
  -1  -3 -10  351.66   31.10
   1  -3  10  329.77   28.90
  -1  -3 -10  373.96   27.10
  -1   4 -10  449.36   41.10
   1   4  10  499.05   37.60
   1  -4 -10  494.75   41.10
  -1  -4  10  513.05   36.10
  -1  -4  10  520.55   37.90
   1   4 -10  496.35   40.90
  -1   4  10  513.55   37.70
  -1  -4 -10  470.75   40.40
   1  -4  10  484.75   39.30
  -1   5 -10  478.35   40.90
   1   5  10  484.25   37.60
  -1  -5  10  484.05   38.00
   1  -5 -10  525.05   42.00
  -1  -5  10  473.65   36.60
  -1   5  10  442.36   37.00
   1  -5  10  453.75   39.40
  -1  -5 -10  492.35   41.30
   1   5 -10  476.85   41.00
   1   6  10  442.16   37.20
  -1   6 -10  507.25   43.50
  -1  -6  10  462.15   38.80
   1  -6 -10  463.75   42.80
   1   6 -10  531.35   42.50
  -1   6  10  468.45   38.40
   1  -6  10  423.86   39.60
  -1  -6 -10  496.95   44.00
   1  -7 -10   27.90   16.10
  -1  -7  10   16.10   11.30
   1   7  10    4.70   10.60
  -1   7 -10   15.90   14.40
   1  -7  10   23.10   15.40
   1   7 -10   28.30   16.50
  -1  -7 -10   22.30   15.00
  -1   7  10   34.50   13.00
  -1  -8  10  118.89   20.80
   1   8  10  131.09   19.40
   1  -8 -10  168.88   27.40
  -1   8 -10  171.88   26.90
   1   8 -10  157.58   25.90
   1  -8  10  110.99   24.00
  -1  -8 -10  120.89   25.40
  -1   8  10  116.89   18.70
  -1  -9  10  338.17   38.90
  -1   9 -10  396.16   40.90
   1  -9  10  356.76   43.50
   1   9 -10  439.86   44.50
   2   0  10  478.05   35.90
  -2   0  10  477.65   35.10
  -2   0 -10  492.35   37.40
   2   0  10  466.05   33.10
   2   0 -10  497.15   36.90
  -2   0  10  450.55   35.00
   2  -1 -10  700.83   53.29
  -2   1 -10  687.53   54.69
  -2  -1  10  787.62   52.09
   2   1  10  740.63   50.99
   2   1  10  768.12   53.19
  -2   1 -10  708.83   49.80
  -2  -1  10  754.82   52.29
   2  -1 -10  707.53   52.79
  -2   1  10  733.43   52.29
   2   1 -10  682.03   54.09
   2  -1  10  789.82   49.90
  -2  -1 -10  726.73   53.89
   2  -1  10  742.33   52.99
  -2  -2  10  284.67   22.80
   2  -2 -10  304.37   23.20
   2  -2 -10  299.37   25.80
   2   2  10  277.77   24.00
  -2   2 -10  305.77   27.10
   2   2  10  285.27   22.10
  -2  -2  10  266.07   22.90
  -2   2  10  251.67   23.00
   2   2 -10  299.07   26.00
  -2  -2 -10  315.57   24.40
   2  -2  10  248.98   24.00
  -2   3 -10  335.77   30.50
  -2  -3  10  332.57   25.70
   2  -3 -10  318.57   25.10
   2   3  10  342.47   26.00
   2  -3 -10  316.07   29.10
  -2  -3  10  340.27   26.40
  -2   3  10  332.87   26.70
   2  -3  10  328.87   27.70
  -2  -3 -10  333.27   26.30
   2   3 -10  308.67   29.30
  -2  -3 -10  316.67   28.60
   2   4  10  151.48   15.90
   2  -4 -10  234.88   22.10
  -2  -4  10  154.08   16.60
  -2  -4  10  139.09   16.00
   2  -4  10  152.88   18.80
  -2   4  10  147.59   16.90
  -2  -5  10  273.37   24.80
   2   5  10  262.87   25.40
  -2  -5  10  304.47   24.30
  -2   5  10  281.67   25.30
   2  -5  10  296.67   28.10
  -2   6 -10  108.49   19.80
   2  -6 -10  126.59   21.90
  -2  -6  10  149.59   17.40
   2   6  10  132.79   16.30
  -2   6  10  136.89   17.60
   2   6 -10  104.89   21.10
  -2  -6 -10  117.39   21.20
   2  -6  10  141.39   20.30
   2  -7 -10  194.08   28.80
  -2   7 -10  172.18   25.30
  -2  -7  10  178.58   21.60
   2   7  10  194.48   21.60
  -2  -7 -10  207.68   28.00
  -2   7  10  172.88   21.50
   2  -7  10  169.68   26.30
   2   7 -10  195.38   26.50
   2  -8 -10  180.28   30.20
  -2   8 -10  164.38   25.50
   2   8  10  182.98   22.10
  -2  -8 -10  161.38   26.50
   2  -8  10  152.88   26.30
   2   8 -10  134.49   26.40
  -2   8  10  161.38   21.00
  -2   9 -10   33.40   20.40
   3   0 -10   -0.20    7.30
   3   0  10   -1.70    3.30
   3   0  10    0.30    6.50
   3   0 -10   -1.20    5.50
  -3   0  10    2.50    6.00
  -3   0 -10    5.40    8.20
  -3  -1  10    5.20    6.50
   3   1  10   -0.60    4.00
   3   1  10    6.20    6.90
   3  -1 -10    6.80    7.00
  -3  -1  10    1.20    5.30
  -3   1 -10    3.50    9.00
   3  -1 -10   10.90    7.50
   3  -1  10    6.90    2.20
   3  -1  10    1.70    7.00
   3   1 -10    3.20    7.60
  -3  -1 -10    4.10    8.60
  -3   1  10   -7.20    5.80
  -3  -2  10   85.89   11.10
  -3   2 -10   83.79   15.10
   3  -2 -10   84.39   13.30
   3  -2 -10   74.09   10.70
  -3  -2  10   75.49    9.80
   3   2  10   69.59    9.20
   3   2  10   78.79   12.10
  -3   2  10   70.49   10.70
  -3  -2 -10   75.59   12.30
   3   2 -10   86.59   14.40
   3  -2  10   77.89   11.80
   3  -3 -10  216.58   25.40
  -3  -3  10  272.57   22.30
  -3  -3  10  264.97   21.60
  -3   3 -10  245.48   26.80
   3   3  10  244.68   21.40
   3  -3 -10  264.27   20.90
  -3   3  10  276.97   22.90
   3   3 -10  249.78   25.50
  -3  -3 -10  238.68   23.10
  -3  -3 -10  272.77   24.80
   3  -3  10  254.97   23.80
  -3  -4  10   43.10    9.60
   3  -4 -10   12.70   10.90
  -3   4 -10   24.80   12.90
  -3  -4  10   46.50    8.70
   3   4  10   43.10    9.40
   3   4 -10   18.30   11.50
  -3  -4 -10   36.20   11.50
   3  -4  10   43.50   11.60
  -3  -4 -10   31.40    8.90
  -3   4  10   46.30   10.20
  -3   5 -10  293.87   32.20
   3  -5 -10  273.37   31.60
   3   5  10  310.07   27.00
  -3  -5  10  320.27   26.80
  -3  -5  10  332.67   27.70
  -3  -5 -10  331.07   32.70
   3   5 -10  322.27   31.90
  -3   5  10  360.46   29.10
   3  -5  10  310.97   30.70
   3  -6 -10  228.98   28.60
   3   6  10  214.28   23.80
  -3  -6  10  197.58   21.70
  -3   6 -10  243.78   28.40
  -3  -6  10  235.68   22.90
  -3  -6 -10  260.87   28.10
   3  -6  10  223.98   27.40
  -3   6  10  213.78   22.80
   3   6 -10  199.98   26.80
   3   7  10   19.00   11.70
  -3   7 -10   23.70   14.90
   3  -7 -10   15.10   17.80
  -3   7  10   28.10   13.50
   3  -7  10   17.00   15.80
  -3  -7 -10   18.30   14.60
   3   7 -10   35.60   16.00
   3  -8 -10   12.50   17.70
  -3   8 -10    9.30   17.70
   3   8  10   20.70   14.60
   3  -8  10   16.20   20.20
  -3  -8 -10   11.90   16.10
   3   8 -10   15.40   18.70
  -3   8  10   22.60   14.40
   4   0 -10  476.25   37.50
  -4   0  10  607.44   38.30
  -4   0 -10  459.85   41.60
   4   0 -10  460.75   39.50
  -4  -1  10  102.59   12.30
   4  -1 -10   47.50   10.50
   4   1  10   94.29   12.40
  -4   1 -10   67.69   14.60
   4  -1 -10   57.39   11.10
  -4  -1 -10   50.09   13.50
  -4   1  10   98.79   11.60
   4   1 -10   46.20   11.80
   4   1 -10   49.80    8.90
   4  -1  10   98.89   12.50
  -4  -2  10   26.60    9.20
  -4  -2  10   31.60    7.00
   4   2  10   30.10    9.10
  -4   2 -10   54.79   14.00
   4  -2 -10   67.69   11.20
   4   2  10   33.30    7.30
   4  -2 -10   67.39   10.30
  -4  -2 -10   78.09   12.70
   4  -2  10   30.70    9.60
  -4   2  10   30.20    9.10
   4   2 -10   64.49   13.70
  -4   3 -10   44.90   14.10
   4  -3 -10   52.09    8.40
   4  -3 -10   42.40   11.60
  -4  -3  10   42.80    7.80
   4   3  10   46.80    9.00
  -4  -3  10   55.59   10.80
   4  -3  10   47.00   11.30
  -4  -3 -10   48.60   11.60
  -4  -3 -10   40.80   11.80
   4   3 -10   45.40   12.80
  -4   3  10   46.20   11.00
  -4   4 -10   93.89   17.90
  -4  -4  10   84.59   10.50
   4  -4 -10   61.79   14.80
   4   4  10   63.99   11.50
  -4  -4  10   86.69   13.50
   4   4 -10   87.69   17.60
  -4  -4 -10   80.39   13.60
  -4  -4 -10   72.89   14.20
   4  -4  10   63.59   14.10
  -4   4  10   72.59   13.40
  -4   5 -10  143.99   22.20
  -4  -5  10  147.39   17.70
   4   5  10  137.89   16.30
   4  -5 -10  141.49   21.50
   4  -5  10  138.29   20.20
  -4  -5 -10  126.09   19.60
  -4   5  10  144.09   17.20
   4   5 -10  116.79   20.10
  -4  -6  10  119.99   17.20
   4   6  10  121.79   16.30
   4  -6 -10  108.49   22.50
  -4   6 -10   82.69   20.20
  -4   6  10  116.09   16.40
   4   6 -10  120.09   21.20
  -4  -6 -10  109.09   19.70
   4  -6  10  117.19   21.10
   4  -7 -10  174.18   28.80
   4   7  10  190.88   23.10
  -4   7 -10  177.48   26.50
   4  -7  10  182.78   27.40
  -4   7  10  191.68   22.60
   4   7 -10  180.28   28.30
  -4  -7 -10  181.68   26.40
   4  -8 -10  119.89   26.30
   4   8  10  131.89   19.70
  -4   8 -10  124.39   24.30
   4  -8  10  106.79   30.20
   4   8 -10  108.69   25.80
  -4   8  10  114.59   20.50
  -4  -8 -10  110.99   24.80
   5   0 -10   -3.00    6.40
   5   0 -10    7.60    8.70
  -5   0 -10    0.60    4.70
  -5   0  10    8.40    7.80
  -5   0 -10   -9.50   10.40
   5   0  10    3.60    7.60
   5  -1 -10  197.88   19.60
  -5  -1  10  150.38   17.70
   5   1  10  176.18   19.40
  -5   1 -10  177.58   23.40
   5  -1 -10  173.78   19.60
  -5   1  10  184.88   18.60
   5   1 -10  172.18   20.50
   5  -1  10  158.58   18.60
  -5  -1 -10  156.48   22.20
   5   1 -10  186.68   16.80
   5   2  10  491.25   39.40
   5  -2 -10  541.85   39.10
   5   2  10  476.95   36.60
   5  -2 -10  560.44   40.80
  -5  -2  10  475.15   39.20
  -5   2 -10  496.05   43.80
  -5  -2 -10  480.75   43.00
   5   2 -10  615.04   43.70
   5  -2  10  460.35   40.00
  -5   2  10  454.75   38.70
   5  -3 -10  485.55   35.80
   5  -3 -10  493.65   40.10
  -5  -3  10  493.35   37.20
  -5   3 -10  398.96   41.40
   5   3  10  451.25   35.60
  -5  -3 -10  440.26   40.10
  -5   3  10  473.45   37.10
   5  -3  10  484.65   38.60
  -5  -3 -10  454.05   38.50
   5   3 -10  481.15   41.70
   5  -4 -10  377.46   34.90
  -5  -4  10  356.56   31.40
  -5   4 -10  327.47   35.70
   5   4  10  348.17   29.50
   5   4 -10  305.07   33.70
  -5   4  10  361.26   30.50
   5  -4  10  380.56   33.10
  -5  -4 -10  320.17   32.80
  -5  -4 -10  378.56   33.30
   5  -5 -10   43.70   15.30
   5   5  10   33.80   11.90
  -5  -5  10   57.69   13.60
  -5   5 -10   37.00   16.20
  -5   5  10   47.90   12.20
   5  -5  10   63.39   17.50
  -5  -5 -10   49.40   14.10
   5   5 -10   62.39   16.70
   5   6  10   18.80   11.10
  -5  -6  10    5.00   10.70
  -5   6 -10   18.00   15.60
   5  -6 -10    8.50   14.30
  -5   6  10    7.70   10.90
   5   6 -10   23.50   15.60
   5  -6  10   -9.70   13.90
  -5  -6 -10   14.20   13.40
   5   7  10   89.29   17.20
  -5   7 -10   66.39   21.60
  -5  -7  10   62.09   16.40
   5  -7 -10   40.80   19.00
  -5  -7 -10   58.19   19.10
   5   7 -10   88.19   20.90
   5  -7  10   40.30   18.90
  -5   7  10   57.69   15.70
  -5  -8 -10  165.68   27.70
  -6   0 -10  653.83   59.89
   6   0  10  770.32   54.99
  -6   0  10  770.32   55.09
   6   0 -10  756.42   56.59
   6   1  10  465.15   36.40
  -6  -1  10  426.06   36.30
   6  -1 -10  458.85   37.80
   6  -1 -10  521.05   37.10
  -6   1 -10  436.06   43.90
  -6  -1 -10  451.65   34.00
  -6   1  10  480.05   37.60
   6  -1  10  490.05   37.80
  -6  -1 -10  415.26   41.70
   6   1 -10  410.66   38.40
   6  -2 -10  148.49   17.30
  -6   2 -10  151.88   23.60
   6   2  10  110.59   16.30
   6  -2 -10  145.89   17.80
  -6  -2  10  131.09   17.30
   6   2 -10  134.79   20.70
   6  -2  10  114.59   17.40
  -6  -2 -10  146.59   23.50
  -6   2  10  106.79   15.80
  -6  -2 -10  162.28   16.20
  -6   3 -10   64.79   17.90
   6  -3 -10   43.30   13.60
   6  -3 -10   64.79   12.50
  -6  -3  10   28.20   11.90
  -6  -3 -10   40.40   16.30
  -6   3  10   46.10   11.60
   6  -3  10   38.50   13.70
  -6  -3 -10   49.30   13.60
   6   3 -10   35.00   14.10
  -6  -4  10  270.77   27.20
  -6   4 -10  273.67   31.90
   6  -4 -10  270.77   29.40
   6   4  10  212.08   23.00
  -6  -4 -10  242.58   29.20
   6   4 -10  267.87   29.90
  -6  -4 -10  294.17   28.30
  -6   4  10  229.48   24.70
   6  -4  10  234.78   28.90
   6   5  10  229.28   23.70
  -6  -5  10  258.97   27.80
  -6   5 -10  276.27   32.80
   6  -5 -10  262.87   31.50
   6   5 -10  252.77   30.80
   6  -5  10  209.58   27.90
  -6  -5 -10  277.17   29.90
  -6   5  10  245.68   25.60
  -6  -6  10  240.48   27.40
   6   6  10  247.78   25.20
  -6   6 -10  245.38   31.90
   6  -6 -10  255.37   32.20
  -6   6  10  279.97   26.50
  -6  -6 -10  212.28   28.70
   6   6 -10  240.18   30.90
   6  -6  10  220.18   30.00
   6  -7 -10   30.10   19.00
   6   7  10    7.70   13.70
  -6   7 -10   21.00   17.60
  -6  -7  10   13.50   15.20
  -6  -7 -10   19.50   16.30
  -6   7  10   -9.80   19.30
  -6  -8 -10   58.09   25.20
   7   0  10    4.10    8.70
  -7   0 -10    6.00   16.80
  -7   0  10   -3.10    8.90
   7   0 -10   -4.40    9.80
  -7  -1  10   25.00   11.70
   7  -1 -10   41.00   12.30
  -7   1 -10   34.40   19.60
   7   1  10   27.70   11.10
   7   1 -10   33.60   12.90
  -7  -1 -10   29.70   17.10
   7  -1  10   31.40   10.60
  -7   1  10   19.50   11.60
   7   2  10  552.44   39.60
  -7   2 -10  386.76   45.00
  -7  -2  10  520.45   39.90
   7  -2 -10  452.25   39.20
   7  -2  10  544.45   40.30
   7   2 -10  445.96   42.00
  -7  -2 -10  371.66   44.30
  -7   2  10  571.94   40.80
  -7  -2 -10  455.65   37.20
  -7   3 -10   75.29   20.60
  -7  -3  10  106.09   16.20
   7  -3  10  107.19   18.00
  -7   3  10   95.69   15.30
  -7  -3 -10   84.29   20.60
   7   3 -10   80.39   18.10
  -7  -3 -10   85.19   16.10
  -7  -3 -10   84.49   13.90
   7  -4 -10   99.49   17.80
  -7   4 -10   58.99   19.80
  -7  -4  10   85.79   16.10
  -7  -4 -10  101.09   15.40
  -7  -4 -10   66.79   16.00
   7  -4  10   64.99   16.30
   7   4 -10   96.29   19.20
  -7  -4 -10   57.69   19.90
  -7   4  10   47.50   13.70
  -7   5 -10   85.79   23.00
   7  -5 -10  101.29   19.90
  -7  -5  10   90.69   18.10
  -7  -5 -10   86.39   16.90
  -7  -5 -10   83.69   18.50
   7  -5  10   73.49   18.50
   7   5 -10   80.39   20.20
  -7   5  10   70.19   15.50
   7  -6 -10  144.99   25.20
  -7  -6  10  147.39   21.30
  -7   6 -10   96.79   25.00
  -7  -6 -10  111.79   21.80
   7  -6  10  146.49   25.20
  -7  -6 -10  117.99   20.00
   7   6 -10   98.19   22.70
  -7   6  10  106.69   18.40
   7  -7 -10    6.10   17.60
  -7  -7  10    3.00   15.90
  -8   0 -10  363.46   41.90
   8   0  10  345.97   30.90
   8   0 -10  418.66   35.60
  -8   0  10  309.47   32.90
  -8   1 -10   83.09   24.20
   8   1  10  120.69   16.70
  -8  -1  10  116.59   17.50
   8  -1 -10  102.19   18.30
   8   1 -10  116.09   20.40
   8  -1  10  138.79   17.70
  -8  -1 -10   81.49   23.90
  -8   1  10  148.69   19.20
   8   2  10   64.39   13.40
  -8   2 -10   76.59   21.50
   8  -2 -10   71.19   14.90
  -8  -2  10   52.99   15.70
  -8  -2 -10   45.50   20.60
   8   2 -10   70.79   17.20
   8  -2  10   58.49   14.20
  -8   2  10   66.69   14.70
  -8   3 -10  122.89   26.00
  -8  -3  10  110.49   18.40
  -8   3  10  107.09   17.60
  -8  -3 -10  131.39   18.90
   8   3 -10  135.39   22.20
  -8  -3 -10  119.39   26.80
   8  -3  10  121.09   20.10
  -8   4 -10   69.39   21.30
  -8  -4  10   42.00   16.20
   8   4 -10   63.39   18.10
  -8   4  10   54.99   15.30
  -8  -4 -10   35.90   21.50
  -8  -4 -10   55.49   13.60
   8  -4  10   34.70   15.20
  -8  -4 -10   52.19   15.80
  -8   5 -10   84.89   23.30
  -8  -5  10   96.69   20.30
   8  -5  10   90.09   19.50
  -8  -5 -10   99.09   17.70
  -8   5  10   61.29   17.20
   8   5 -10   87.59   25.00
  -8  -6 -10   46.80   16.70
  -9   0 -10  -18.70   21.00
   9   0  10   -6.10   10.60
   9   0 -10    6.70   12.40
  -9   0  10    4.20   13.30
   9  -1 -10   27.00   14.60
  -9  -1  10   35.70   13.60
  -9   1 -10   32.90   22.50
   9   1  10   41.70   12.60
  -9  -1 -10   15.90   22.70
   9  -1  10   45.10   14.10
   9   1 -10   42.20   16.90
  -9   1  10   54.19   14.10
   9  -2 -10  153.88   21.60
  -9   2 -10  140.99   31.70
   9   2  10  154.88   19.90
  -9  -2  10  174.28   22.50
   9  -2  10  177.98   22.50
  -9  -2 -10  120.59   29.40
  -9   2  10  205.38   23.70
   9   2 -10  156.58   23.90
  -9  -3  10  251.17   26.90
  -9   3 -10  164.08   32.70
   9   3 -10  175.08   28.00
  -9   3  10  211.78   24.30
  -9  -3 -10  149.99   31.90
   9  -3  10  225.28   26.30
  -9  -4 -10   32.90   23.90
   9  -4  10   38.20   15.60
  10   0 -10  469.45   42.40
 -10   0 -10  416.56   68.79
  10  -1 -10   90.59   19.10
 -10  -1 -10   46.40   25.10
  10  -1  10   71.09   16.30
  10   1 -10   94.39   19.90
  10  -2  10   32.20   14.80
 -10  -2 -10   28.90   26.20
 -10  -3 -10   58.39   25.90
  10  -3  10   43.30   15.70
   0   0  11    8.80    7.50
   0   0  11   -1.20    4.60
   0   0 -11    7.40    7.80
   0   1 -11   -2.90    7.20
   0  -1  11   -1.80    6.20
   0  -1  11    3.80    4.20
   0   1  11    7.20    5.20
   0   1  11    4.90    7.40
   0  -1 -11    1.20    6.20
   0   2  11    3.70    5.30
   0   2 -11    0.10    8.40
   0  -2  11   -7.60    7.10
   0  -2  11   -0.30    3.70
   0  -2 -11   -1.90    5.70
   0  -2 -11   -0.90    7.50
   0  -3 -11    1.80    8.40
   0   3 -11    7.20    9.70
   0  -3 -11    0.20    5.10
   0   3  11   -2.60    6.10
   0  -3  11   -0.20    7.90
   0  -3  11    2.00    3.90
   0  -4 -11    4.20   11.30
   0   4 -11    6.90   10.40
   0  -4  11    0.90    7.70
   0   4  11    4.90    8.20
   0   5  11   -3.50    7.90
   0  -5 -11    0.00   12.60
   0  -5  11   -4.20    9.80
   0   5 -11   -6.10   11.40
   0  -6  11    4.60   11.70
   0  -6 -11   -7.40   12.60
   0   6 -11    2.60   13.20
   0   6  11    6.50    9.60
   0   7  11   -6.70   11.90
   0   7 -11   -4.90   13.90
   0  -7 -11   -5.10   14.10
   0  -7  11   -0.70   13.30
   0   8 -11   -1.50   17.90
   0  -8 -11   -3.00   18.40
   0  -8  11    4.10   14.00
   0   8  11   -1.80   12.20
   0  -9  11  -19.20   16.30
   1   0 -11   -0.50    7.50
  -1   0  11    0.00    5.10
  -1   0  11    2.50    7.10
   1   0  11   -3.10    6.70
   1   0  11   -0.40    4.00
  -1   0 -11    3.10    7.80
   1   1  11  142.29   11.90
  -1  -1  11  128.39   12.40
  -1   1 -11   78.39   14.20
   1   1  11  135.59   14.80
   1  -1 -11   85.09   12.90
  -1  -1  11  133.39   14.80
  -1   1  11  120.99   12.90
  -1  -1 -11   90.19   13.20
   1  -1  11  120.59   10.30
   1  -1  11  114.19   14.10
   1  -2 -11  118.49   14.70
  -1  -2  11  109.19   13.10
  -1  -2  11   96.79   10.90
  -1   2 -11  108.99   15.60
   1   2  11   88.19   11.20
   1  -2 -11  121.09   12.40
   1   2 -11  109.99   16.00
  -1  -2 -11  120.79   15.50
   1  -2  11   97.49    8.80
   1  -2  11  100.09   13.20
  -1   2  11   93.79   12.10
  -1  -2 -11  114.29   13.50
   1  -3 -11  540.25   39.60
  -1  -3  11  413.76   34.30
   1  -3 -11  499.15   34.90
   1   3  11  460.05   35.80
  -1  -3  11  446.56   36.80
  -1   3 -11  514.05   40.10
  -1  -3 -11  532.15   35.80
   1   3 -11  490.35   39.70
   1  -3  11  453.05   37.20
  -1  -3 -11  533.95   39.50
  -1   3  11  425.86   36.30
  -1   4 -11  202.88   24.10
   1   4  11  199.38   19.40
  -1  -4  11  209.58   21.20
   1  -4 -11  244.58   24.80
  -1  -4  11  200.28   17.80
   1  -4  11  220.38   21.70
  -1  -4 -11  205.68   25.00
   1   4 -11  234.08   24.70
  -1   4  11  197.28   21.00
   1  -5 -11   56.89   15.80
  -1  -5  11   77.49   13.60
   1   5  11   89.79   13.50
  -1   5 -11   71.99   16.60
  -1  -5 -11   73.49   16.40
   1   5 -11   70.29   16.30
   1  -5  11   87.19   14.90
  -1   5  11   68.69   12.50
  -1   6 -11   16.60   16.00
  -1  -6  11   42.80   13.00
   1  -6 -11   36.50   15.40
   1   6  11   34.20   10.90
  -1   6  11   17.70   10.70
  -1  -6 -11   19.00   14.10
   1  -6  11   18.70   14.10
   1   6 -11   18.20   15.60
   1  -7 -11   96.19   22.70
  -1   7 -11   92.79   20.10
   1   7  11   52.39   13.90
  -1  -7  11   52.09   15.50
  -1   7  11   71.29   14.80
   1   7 -11   79.99   20.00
   1  -7  11   64.19   18.60
  -1  -7 -11  100.59   20.90
   1   8  11   90.09   18.70
  -1   8 -11  103.79   22.30
  -1  -8  11   89.49   19.30
   1  -8 -11  101.19   25.20
   1  -8  11   87.79   22.30
   1   8 -11   85.39   22.00
  -1  -8 -11   82.69   22.00
  -1   8  11   91.39   18.40
  -2   0 -11 2516.35  175.38
   2   0  11 2553.04  173.78
   2   0  11 2642.74  171.28
   2   0 -11 2543.95  174.48
  -2   0  11 2481.15  172.68
  -2   0  11 2578.24  173.28
   2   1  11   25.40    8.40
   2  -1 -11   37.40    8.80
  -2   1 -11   45.80   11.40
   2  -1 -11   48.40   10.00
   2   1  11   33.20    6.30
  -2  -1  11   34.50    8.40
  -2  -1  11   34.30    7.90
  -2  -1 -11   43.40   10.10
   2   1 -11   46.10   10.50
   2  -1  11   31.50    4.30
   2  -1  11   30.00    8.90
  -2   1  11   23.10    7.10
   2  -2 -11  120.29   17.60
   2   2  11  186.48   15.40
  -2  -2  11  199.08   16.00
   2  -2 -11  118.39   15.80
   2   2  11  198.88   18.30
  -2  -2  11  217.78   17.30
  -2   2 -11  133.99   19.90
   2   2 -11  110.39   17.70
  -2   2  11  189.18   16.70
   2  -2  11  205.48   18.40
  -2  -2 -11  131.89   16.90
   2   3  11  158.88   15.80
  -2  -3  11  153.28   15.90
  -2  -3  11  152.88   16.50
   2  -3 -11  174.98   15.20
  -2   3 -11  156.78   20.70
   2  -3 -11  137.59   18.90
  -2   3  11  156.68   16.60
   2   3 -11  187.18   21.00
   2  -3  11  153.48   18.00
  -2  -3 -11  138.59   18.50
  -2  -3 -11  170.28   17.00
  -2  -4  11  524.45   39.60
  -2   4 -11  561.34   46.20
   2   4  11  509.95   40.00
   2  -4 -11  566.84   45.40
  -2  -4  11  517.45   40.30
  -2   4  11  498.65   40.40
  -2  -4 -11  562.54   44.80
   2   4 -11  542.85   44.40
   2  -4  11  530.25   42.80
   2   5  11  144.89   16.70
  -2   5 -11  110.69   19.90
  -2  -5  11  146.49   17.30
   2  -5 -11  112.09   21.00
  -2   5  11  137.19   17.20
   2   5 -11  108.49   19.50
  -2  -5 -11  136.29   21.30
   2  -5  11  155.68   19.70
  -2   6 -11  175.68   25.10
   2   6  11  204.38   21.40
   2  -6 -11  167.18   25.40
  -2  -6  11  175.38   21.00
  -2   6  11  188.48   21.50
   2   6 -11  201.78   27.20
  -2  -6 -11  174.38   24.80
   2  -6  11  180.88   23.90
   2  -7 -11  419.56   40.80
  -2  -7  11  362.06   33.70
   2   7  11  341.07   33.10
  -2   7 -11  437.86   41.80
   2   7 -11  414.06   40.10
   2  -7  11  318.77   39.20
  -2   7  11  351.06   33.20
  -2  -7 -11  396.76   39.60
   2   8  11    4.70   14.10
  -2   8 -11    7.00   18.90
   2  -8 -11   11.40   17.40
   2   8 -11    8.30   19.10
  -2  -8 -11    0.00   18.00
  -2   8  11   -1.30   13.80
   2  -8  11   -1.00   16.40
  -3   0 -11    0.70    9.60
   3   0 -11    0.60    8.00
   3   0 -11   -3.40    6.40
   3   0  11   -2.20    3.50
   3   0  11   -0.10    7.00
  -3   0  11   -0.20    6.10
  -3  -1  11  449.66   30.80
   3   1  11  471.15   29.30
  -3  -1  11  472.25   31.00
   3  -1 -11  309.27   31.40
   3   1  11  436.96   32.20
  -3   1 -11  288.27   33.30
   3  -1 -11  343.87   31.60
   3  -1  11  439.76   32.80
   3   1 -11  309.07   32.70
  -3  -1 -11  335.27   33.10
  -3   1  11  438.36   31.20
   3  -2 -11  143.49   15.90
  -3   2 -11  122.59   19.10
  -3  -2  11  161.68   15.10
  -3  -2  11  157.38   15.90
   3   2  11  146.29   14.40
   3  -2 -11  116.79   16.90
   3   2  11  149.29   17.00
   3   2 -11  124.29   17.70
  -3  -2 -11  117.59   16.70
   3  -2  11  151.48   17.40
  -3   2  11  166.28   16.20
   3   3  11 1435.46  100.49
  -3  -3  11 1517.65  101.49
   3  -3 -11 1399.46  103.79
   3  -3 -11 1531.65  100.59
  -3   3 -11 1450.15  105.59
  -3  -3  11 1498.35  100.89
  -3   3  11 1417.26  101.69
  -3  -3 -11 1478.85  103.69
  -3  -3 -11 1399.06  101.99
   3  -3  11 1503.35  102.89
   3   3 -11 1433.16  104.39
   3  -4 -11  422.56   36.20
   3   4  11  350.66   30.70
  -3  -4  11  381.26   31.60
  -3   4 -11  434.06   39.20
  -3  -4  11  395.46   31.40
   3  -4  11  391.66   35.30
   3   4 -11  410.16   36.40
  -3   4  11  374.46   32.20
  -3  -4 -11  430.66   35.60
  -3  -5  11   67.59   12.70
   3   5  11   58.29   12.20
   3  -5 -11   70.49   16.50
  -3  -5  11   64.79   11.30
  -3   5 -11   39.90   15.90
  -3  -5 -11   56.19   15.60
   3  -5  11   65.09   16.70
   3   5 -11   64.89   16.30
  -3   5  11   56.19   12.60
   3   6  11  242.98   24.20
  -3   6 -11  244.68   29.70
   3  -6 -11  229.08   29.90
   3   6 -11  227.28   28.60
   3  -6  11  244.88   29.20
  -3   6  11  254.07   24.80
  -3  -6 -11  222.48   28.70
  -3   7 -11  128.79   23.30
   3   7  11  170.18   20.80
   3  -7 -11  170.88   26.60
  -3  -7 -11  177.68   26.70
   3   7 -11  132.19   25.10
  -3   7  11  124.49   19.20
   3  -7  11  123.69   25.70
  -3   8 -11  207.28   30.60
   3   8  11  276.97   30.20
  -3  -8 -11  200.88   31.70
   3   8 -11  210.98   31.80
   3  -8  11  255.47   33.80
   4   0  11 2497.75  182.78
   4   0 -11 2828.52  184.38
  -4   0 -11 2724.33  185.98
   4   0 -11 2756.02  182.68
  -4   0  11 2634.94  182.68
  -4   1 -11   24.20   12.10
   4  -1 -11   41.90   10.20
   4  -1 -11   42.80   10.60
   4   1  11   22.40    5.90
  -4  -1  11   17.40    8.30
   4   1  11   20.60    9.10
  -4   1  11   14.90    9.30
   4   1 -11   49.30    8.70
  -4  -1 -11   43.80   12.20
   4  -1  11   22.30    9.20
   4   1 -11   36.80   11.30
  -4   2 -11   73.69   17.40
   4   2  11   75.89    9.60
  -4  -2  11   86.39   12.50
   4  -2 -11   51.79   10.60
  -4  -2  11   86.29   10.30
   4   2  11   75.29   13.00
   4  -2 -11   39.00   11.30
  -4   2  11   83.49   12.70
   4  -2  11   80.89   12.90
  -4  -2 -11   33.40   12.70
   4   2 -11   47.50   14.20
  -4   3 -11  349.57   35.60
   4  -3 -11  431.56   33.60
   4   3  11  354.56   28.90
  -4  -3  11  352.86   28.40
  -4  -3  11  379.16   31.00
  -4  -3 -11  366.56   32.20
   4  -3  11  342.27   31.80
  -4  -3 -11  398.06   34.00
   4   3 -11  360.36   33.80
  -4   3  11  354.76   30.60
  -4  -4  11  838.22   57.69
  -4   4 -11  702.33   61.89
   4   4  11  791.22   56.29
   4  -4 -11  701.13   59.79
   4  -4  11  813.42   60.19
  -4   4  11  836.42   57.69
  -4  -4 -11  768.52   60.19
   4   4 -11  723.73   60.49
  -4  -5  11  150.58   18.80
   4   5  11  109.19   16.30
  -4   5 -11  151.38   23.40
   4  -5 -11  142.69   22.00
  -4   5  11  140.59   18.70
  -4  -5 -11  143.19   22.00
   4   5 -11  142.79   21.90
   4  -5  11  135.69   20.90
  -4   6 -11   14.00   15.20
   4  -6 -11   20.60   17.10
  -4  -6  11   21.60   12.40
   4   6  11   14.00   10.50
  -4   6  11   14.00   11.50
  -4  -6 -11    6.10   13.70
   4   6 -11   29.70   17.70
   4  -6  11   18.10   17.40
  -4   7 -11  368.86   41.90
   4  -7 -11  347.87   45.10
   4   7  11  478.95   38.20
  -4   7  11  489.05   39.50
   4   7 -11  430.06   46.00
   4  -7  11  486.35   47.00
  -4  -7 -11  418.76   42.10
  -4  -8 -11  147.49   30.30
   5   0  11    5.90    8.60
  -5   0 -11   -3.10   12.90
  -5   0  11    6.50    8.20
   5   0 -11    0.70    7.60
   5   0 -11   -0.10   10.20
  -5   1 -11  177.18   25.20
   5   1  11  229.38   22.40
  -5  -1  11  215.88   20.80
   5  -1 -11  213.68   21.30
   5  -1 -11  203.58   21.90
   5   1 -11  189.98   20.30
  -5   1  11  213.08   21.90
   5   1 -11  211.28   23.20
   5  -1  11  203.98   21.30
  -5  -1 -11  180.78   24.40
   5  -2 -11  185.38   20.40
  -5   2 -11  172.78   25.60
  -5  -2  11  232.48   22.40
   5  -2 -11  189.88   22.60
   5   2  11  235.58   21.70
   5   2  11  232.58   18.80
  -5   2  11  228.58   21.60
   5  -2  11  227.78   22.40
   5   2 -11  193.88   24.00
  -5  -2 -11  137.99   22.50
   5  -3 -11  563.24   44.10
   5   3  11  487.05   39.00
  -5  -3  11  518.25   41.30
  -5   3 -11  529.15   47.00
  -5   3  11  520.05   41.30
   5  -3  11  516.65   42.30
  -5  -3 -11  463.15   43.30
  -5  -3 -11  559.54   43.10
   5   3 -11  527.85   44.50
   5  -4 -11   40.70   14.80
  -5  -4  11   61.39   13.70
  -5   4 -11   30.00   16.30
   5   4  11   50.89   11.10
   5   4 -11   40.10   15.60
  -5   4  11   63.29   13.90
   5  -4  11   54.19   14.50
  -5  -4 -11   46.90   13.30
   5   5  11  189.58   21.60
  -5  -5  11  248.98   25.80
  -5   5 -11  204.58   29.00
   5  -5 -11  253.97   29.60
  -5   5  11  195.98   22.70
   5  -5  11  198.98   26.80
  -5  -5 -11  204.48   26.40
   5   5 -11  192.88   26.90
   5   6  11  135.59   18.50
   5  -6 -11   92.39   21.50
  -5  -6  11  143.69   20.00
  -5   6 -11  106.69   22.90
   5  -6  11  131.59   23.10
  -5  -6 -11   81.09   19.40
   5   6 -11   99.39   21.60
  -5   6  11  130.59   19.30
   5   7  11  151.98   21.40
   5  -7 -11  161.38   27.50
  -5   7 -11  151.38   27.10
   5  -7  11  155.78   30.60
  -5   7  11  181.28   24.60
   5   7 -11  180.68   29.40
  -5  -7 -11  187.38   27.20
  -6   0  11  197.18   20.70
   6   0 -11  169.98   21.90
  -6   0 -11  185.88   27.70
   6   0  11  209.28   21.20
   6   1  11  419.16   34.30
  -6  -1  11  410.76   34.50
   6  -1 -11  393.76   34.70
  -6   1 -11  409.06   40.40
  -6   1  11  408.76   33.90
   6  -1  11  395.76   33.80
  -6  -1 -11  355.46   38.60
   6   1 -11  412.86   36.10
   6  -2 -11  111.69   16.70
   6  -2 -11  100.29   15.00
  -6   2 -11  101.59   21.10
  -6  -2  11  116.69   16.00
   6   2  11  102.19   14.90
  -6   2  11  104.19   15.40
  -6  -2 -11   99.29   13.20
   6  -2  11  104.59   16.30
  -6  -2 -11   73.89   19.90
   6   2 -11  107.89   19.80
   6  -3 -11  280.17   28.60
  -6   3 -11  239.48   31.70
  -6  -3  11  231.18   26.60
   6  -3  11  264.77   27.50
   6   3 -11  306.57   30.80
  -6  -3 -11  249.08   31.20
  -6  -3 -11  295.17   27.80
  -6   3  11  239.78   25.50
   6  -4 -11  178.38   24.30
   6   4  11  175.08   19.60
  -6   4 -11  177.98   29.00
  -6  -4  11  203.88   22.70
  -6  -4 -11  172.78   22.30
   6   4 -11  152.58   24.20
   6  -4  11  181.08   23.50
  -6   4  11  184.98   21.80
  -6   5 -11  135.09   26.50
   6  -5 -11  155.48   23.90
  -6  -5  11  145.39   21.30
   6   5  11  139.99   17.90
   6  -5  11  143.69   22.80
  -6   5  11  119.69   18.40
   6   5 -11  159.58   24.40
  -6  -5 -11  142.39   22.50
  -6   6 -11   47.80   20.40
   6  -6 -11   84.99   20.90
   6   6  11   55.49   14.80
  -6  -6  11   71.49   16.40
   6   6 -11   47.90   20.50
   6  -6  11   45.80   20.80
  -6   6  11   49.60   15.70
  -6  -6 -11   56.49   18.60
   6   7  11   38.90   15.60
   6  -7 -11   24.80   19.10
  -6  -7 -11   35.60   18.70
  -7   0  11   -0.50    9.80
  -7   0 -11   -2.40   15.60
   7   0 -11    8.70   12.20
   7   0  11    0.70   10.50
  -7   1 -11   33.50   18.10
  -7  -1  11    4.30   11.60
   7  -1 -11   25.40   11.60
   7   1  11    3.40    9.50
  -7   1  11    8.20   10.70
   7   1 -11    7.80   12.20
  -7  -1 -11   12.20   17.80
   7  -1  11   15.40   11.60
   7   2  11  362.86   32.00
  -7   2 -11  373.86   40.10
  -7  -2  11  351.66   32.00
   7  -2 -11  338.37   31.30
   7  -2  11  368.26   33.80
   7   2 -11  342.27   34.70
  -7   2  11  338.97   31.80
  -7  -2 -11  330.47   39.80
  -7  -3  11   45.50   13.40
  -7   3 -11   44.70   19.20
  -7  -3 -11   52.19   19.60
  -7   3  11   30.30   12.20
  -7  -3 -11   37.40   13.00
   7  -3  11   43.20   15.50
   7   3 -11   27.80   14.90
  -7  -4  11   60.59   16.60
  -7   4 -11   72.29   21.90
   7   4 -11   84.39   19.30
  -7  -4 -11   84.19   15.40
  -7  -4 -11   99.59   17.10
  -7   4  11   67.19   15.00
   7  -4  11   53.79   17.00
   7  -5 -11  267.47   44.40
  -7  -5  11  241.28   28.80
  -7   5 -11  242.88   33.50
  -7  -5 -11  236.58   26.00
   7  -5  11  258.77   30.40
  -7   5  11  246.88   26.90
  -7  -5 -11  216.18   28.60
   7   5 -11  241.58   30.70
   7  -6 -11  178.98   28.00
  -7  -6  11  159.68   25.00
  -7  -6 -11  154.68   25.90
  -7  -6 -11  211.18   24.80
  -8   0  11   80.19   15.20
  -8   0 -11   67.09   22.80
   8   0  11   92.09   16.00
   8   0 -11   57.09   15.10
  -8   1 -11  312.67   40.40
   8  -1 -11  295.37   30.50
   8   1  11  362.26   31.10
  -8  -1  11  344.97   31.20
  -8  -1 -11  202.08   37.40
  -8   1  11  332.57   31.20
   8  -1  11  346.97   32.10
   8   1 -11  316.67   34.70
  -8   2 -11   85.69   24.10
   8   2  11  101.79   16.40
  -8  -2  11   96.69   17.10
   8  -2 -11   96.19   18.80
  -8   2  11   77.89   16.20
   8  -2  11   87.59   16.60
  -8  -2 -11   65.99   22.70
   8   2 -11   97.69   19.40
  -8  -3  11   30.80   16.00
  -8   3 -11   93.49   24.20
   8  -3  11   44.30   15.30
   8   3 -11   66.49   18.30
  -8   3  11   46.70   14.60
  -8  -3 -11   69.99   16.60
  -8  -3 -11   36.40   22.60
  -8  -4  11   42.30   16.10
  -8   4 -11   -8.60   18.10
  -8   4  11   12.30   14.20
   8  -4  11   34.10   15.20
   8   4 -11   -7.00   14.70
  -8  -4 -11    7.10   13.60
  -8  -5  11  142.59   24.10
  -8  -5 -11  126.89   24.50
  -9   0  11   -4.30   11.80
   9   0 -11    4.70   12.70
  -9   0 -11   -2.70   23.70
   9   0  11    3.80   12.80
  -9   1 -11   51.19   24.00
   9   1  11   64.39   15.20
  -9  -1  11   58.39   16.10
   9  -1 -11   56.99   16.70
   9   1 -11   50.19   18.20
  -9   1  11   59.69   15.90
  -9  -1 -11   47.60   26.00
   9  -1  11   67.99   16.50
   9   2  11  174.78   20.90
  -9  -2  11  169.38   24.00
  -9   2 -11  157.38   32.00
   9   2 -11  162.58   24.90
  -9  -2 -11   94.99   28.90
   9  -2  11  181.88   23.10
  -9   2  11  166.28   23.10
   9  -3  11   77.09   19.10
  -9  -3 -11   69.69   27.10
  10   0 -11  196.38   26.50
  10  -1 -11   28.90   14.40
  10  -1  11   13.60   14.40
  10  -2  11   33.20   17.70
   0   0 -12 1787.02  131.29
   0   0  12 1971.00  128.69
   0   0  12 1933.51  130.69
   0  -1  12  471.45   35.20
   0   1  12  434.96   33.40
   0   1  12  461.65   35.90
   0  -1  12  437.16   32.30
   0   2  12  262.37   24.10
   0   2 -12  369.76   30.20
   0  -2 -12  387.26   29.40
   0  -2  12  282.37   26.30
   0  -2  12  273.97   22.30
   0  -3 -12  446.86   38.50
   0  -3  12  456.65   35.60
   0   3  12  440.96   34.20
   0  -3 -12  450.05   34.30
   0   3 -12  433.06   38.10
   0   4  12  902.31   62.09
   0  -4 -12  815.82   66.09
   0  -4  12  912.91   63.29
   0   4 -12  787.22   65.49
   0   5  12  334.17   28.90
   0  -5 -12  327.17   34.10
   0   5 -12  334.07   35.70
   0  -5  12  340.87   30.50
   0  -6  12  396.36   38.90
   0   6  12  452.65   37.80
   0   6 -12  443.76   43.80
   0  -6 -12  493.75   44.50
   0  -7 -12  488.65   47.70
   0   7 -12  532.15   47.50
   0   7  12  485.05   41.30
   0  -7  12  475.35   44.40
   0   8 -12  109.69   29.90
   0  -8  12  118.39   22.90
   1   0 -12    6.00    8.40
   1   0  12   -0.50    4.40
  -1   0 -12   -1.10    7.50
   1   0  12    1.50    7.30
  -1   0  12   -4.20    5.50
  -1   0  12    2.20    7.70
  -1  -1  12  214.38   19.80
  -1   1 -12  322.47   25.00
  -1  -1  12  245.68   21.70
   1   1  12  265.17   22.90
   1   1  12  236.48   19.60
   1  -1  12  223.58   22.20
   1  -1  12  238.58   18.40
  -1   1  12  236.48   20.80
  -1   2 -12  658.03   53.09
  -1  -2  12  692.73   50.69
   1   2  12  654.63   49.40
   1  -2 -12  711.63   52.99
  -1  -2  12  672.83   48.90
   1  -2 -12  721.43   50.49
  -1   2  12  664.83   49.80
   1   2 -12  698.83   53.29
  -1  -2 -12  724.53   53.19
   1  -2  12  696.33   51.29
  -1  -2 -12  719.63   50.69
   1   3  12 1007.00   68.99
  -1  -3  12 1013.70   70.39
  -1  -3  12  982.70   67.99
   1  -3 -12  920.01   72.09
  -1   3 -12  939.01   73.49
  -1  -3 -12  938.61   68.99
  -1  -3 -12  981.90   72.39
  -1   3  12 1042.30   69.69
   1   3 -12  958.20   72.99
   1  -3  12 1023.40   70.99
  -1   4 -12  245.88   29.40
  -1  -4  12  291.37   25.90
   1   4  12  296.47   24.90
   1  -4 -12  301.07   31.40
   1  -4  12  321.87   28.70
  -1   4  12  278.07   26.40
  -1  -4 -12  302.67   29.70
   1   4 -12  286.87   30.10
  -1  -5  12  217.68   23.80
   1   5  12  233.88   23.20
   1  -5 -12  201.48   26.50
  -1   5 -12  248.18   28.40
   1   5 -12  211.98   27.30
  -1   5  12  198.08   23.50
  -1  -5 -12  244.28   29.90
   1  -5  12  225.98   24.50
   1   6  12  403.16   33.80
  -1  -6  12  404.56   35.00
   1  -6 -12  353.76   38.40
  -1   6 -12  349.77   38.20
  -1  -6 -12  353.16   39.90
   1  -6  12  398.76   37.40
  -1   6  12  413.66   33.50
   1   6 -12  348.67   38.00
   1   7  12  169.48   21.10
   1  -7 -12  171.68   28.60
  -1  -7  12  196.98   23.10
  -1   7 -12  131.09   25.40
  -1   7  12  166.98   22.00
   1   7 -12  142.79   25.70
  -1  -7 -12  140.89   25.60
   1  -7  12  198.38   25.70
  -1  -8  12   72.29   19.20
   1  -8  12   64.39   21.20
   2   0 -12  965.80   74.79
   2   0  12 1078.09   74.49
  -2   0  12 1035.40   72.89
  -2   0 -12 1004.90   75.49
  -2   0  12 1103.49   73.89
   2   0  12 1052.09   71.09
  -2   1 -12  240.68   23.50
   2   1  12  208.48   17.40
  -2  -1  12  176.48   18.60
  -2  -1  12  187.38   19.70
   2  -1 -12  253.57   21.20
   2   1  12  197.28   20.80
   2  -1 -12  251.27   22.20
   2   1 -12  242.78   22.30
  -2   1  12  162.58   18.40
  -2  -1 -12  220.58   22.00
   2  -1  12  206.28   20.70
  -2  -2  12   91.89   12.30
   2  -2 -12  113.39   13.10
   2  -2 -12   94.89   14.40
  -2  -2  12   76.79   11.10
  -2   2 -12  131.59   18.00
   2   2  12   86.99   10.80
   2  -2  12   93.19   14.50
   2   2 -12  102.49   16.10
  -2  -2 -12  104.89   14.20
  -2   2  12   64.19   11.50
  -2   3 -12  455.95   39.80
  -2  -3  12  455.45   34.10
   2   3  12  481.15   34.40
   2  -3 -12  415.76   37.80
  -2  -3  12  494.55   35.60
  -2  -3 -12  397.86   38.20
  -2   3  12  472.55   35.20
   2   3 -12  383.06   38.00
  -2  -3 -12  412.66   34.80
   2  -3  12  488.45   37.10
  -2  -4  12  303.37   28.70
   2   4  12  316.37   28.30
  -2   4 -12  367.86   34.00
   2  -4 -12  387.16   34.90
  -2   4  12  325.27   29.70
   2   4 -12  359.96   33.70
   2  -4  12  326.77   30.80
  -2  -4 -12  381.76   33.30
  -2  -5  12  112.49   15.60
   2  -5 -12  124.49   21.30
  -2   5 -12  111.69   19.90
   2   5  12  103.49   15.00
   2   5 -12  111.19   20.00
  -2   5  12   97.09   15.00
  -2  -5 -12   97.79   18.90
   2  -5  12  101.39   17.60
   2  -6 -12  150.98   24.90
  -2  -6  12  167.78   20.20
  -2   6 -12  124.59   23.50
   2   6  12  176.38   20.30
   2   6 -12  157.28   25.20
   2  -6  12  193.08   24.40
  -2  -6 -12  170.78   25.30
  -2   6  12  173.18   20.30
  -2   7 -12  162.78   25.90
   2   7  12  120.09   18.90
   2  -7 -12  167.08   27.60
  -2   7  12  117.09   19.00
   2  -7  12  120.19   24.70
  -2  -7 -12  160.28   26.80
   2   7 -12  193.58   28.70
   2  -8  12    4.30   21.30
  -3   0  12    2.70    7.90
  -3   0 -12   -3.80   10.30
   3   0 -12   -3.10    8.60
   3   0 -12    1.10    7.70
   3   0  12   -2.30    7.90
   3  -1 -12   49.40   11.50
  -3  -1  12   60.29   10.50
   3   1  12   82.19    8.90
   3  -1 -12   48.10   11.50
  -3   1 -12   46.90   14.90
  -3  -1  12   80.49   11.10
   3   1  12   70.39   13.10
   3  -1  12  103.09   13.60
  -3   1  12   68.49   11.30
   3   1 -12   40.70   12.60
  -3  -1 -12   43.60   12.70
   3  -2 -12   74.69   11.60
   3  -2 -12   50.89   12.80
  -3  -2  12   68.59   11.10
   3   2  12   63.19    9.60
   3   2  12   71.99   12.50
  -3   2 -12   69.59   15.80
  -3  -2  12   73.19   10.90
   3   2 -12   89.89   16.10
  -3   2  12   74.29   12.50
  -3  -2 -12   71.89   13.80
   3  -2  12   72.29   13.00
  -3  -3  12   86.89   12.40
  -3   3 -12  100.49   18.20
  -3  -3  12   68.79   11.90
   3  -3 -12   86.59   15.50
   3   3  12   80.79   11.30
  -3  -3 -12   96.09   15.80
  -3   3  12   87.09   13.20
  -3  -3 -12   78.49   13.50
   3  -3  12   71.49   14.30
   3   3 -12  102.89   17.30
  -3  -4  12    3.90    8.50
  -3   4 -12    0.80   13.20
   3   4  12    1.70    8.10
   3  -4 -12    1.60   11.00
  -3  -4  12    7.40    8.20
   3   4 -12    6.70   13.90
  -3   4  12   -5.10    8.80
   3  -4  12    8.00   10.80
  -3  -4 -12   13.20   11.70
   3   5  12  150.68   18.10
  -3  -5  12  156.58   20.30
  -3   5 -12  162.88   25.70
   3  -5 -12  164.98   23.50
   3   5 -12  192.28   24.80
   3  -5  12  125.69   20.80
  -3   5  12  144.59   19.30
  -3  -5 -12  162.78   23.10
  -3   6 -12   79.39   21.00
   3   6  12   57.59   13.50
   3  -6 -12   75.49   20.70
   3   6 -12   87.89   19.90
   3  -6  12   75.39   18.90
  -3  -6 -12   84.19   19.60
  -3   6  12   78.69   16.20
   3   7  12   11.10   12.20
   3  -7 -12    2.50   18.50
  -3   7 -12   10.20   16.60
   3  -7  12    1.20   16.90
  -3   7  12   21.30   14.60
   3   7 -12    1.20   17.80
  -3  -7 -12   -4.90   14.50
  -4   0 -12  309.27   30.20
   4   0 -12  318.87   26.90
  -4   0  12  274.77   25.60
   4   0 -12  315.97   27.80
   4   0  12  281.17   26.70
   4  -1 -12  402.46   33.70
   4  -1 -12  391.06   33.40
  -4   1 -12  371.86   36.70
  -4  -1  12  393.66   32.70
   4   1  12  423.36   34.30
  -4  -1 -12  380.86   36.10
   4   1 -12  393.16   31.60
   4   1 -12  395.56   35.70
  -4   1  12  415.36   32.60
   4  -1  12  414.96   34.30
  -4  -2  12  190.68   19.60
  -4   2 -12  191.08   25.20
   4  -2 -12  180.78   19.80
   4  -2 -12  178.28   21.30
   4   2  12  190.18   17.70
   4   2  12  179.98   22.00
  -4   2  12  205.68   20.10
  -4  -2 -12  208.98   23.60
   4   2 -12  190.48   23.20
   4  -2  12  201.58   21.70
   4   3  12   38.80    8.90
  -4  -3  12   31.20   10.40
  -4  -3  12   23.60    9.40
  -4   3 -12   21.30   16.40
   4  -3 -12   19.10   12.40
  -4   3  12   14.30    9.90
  -4  -3 -12   22.00   11.10
  -4  -3 -12   27.90   13.30
   4   3 -12   21.10   12.90
   4  -3  12   24.00   12.70
  -4  -4  12   32.40   11.50
  -4   4 -12   38.70   16.50
   4  -4 -12   38.90   14.80
   4   4  12   30.00    9.80
  -4   4  12   42.50   12.00
   4  -4  12   21.40   14.20
  -4  -4 -12   21.20   13.50
   4   4 -12   15.60   15.60
   4   5  12   39.50   11.30
  -4   5 -12   53.69   19.10
  -4  -5  12   69.99   14.40
   4  -5 -12   69.19   18.90
   4  -5  12   23.60   16.30
  -4  -5 -12   94.89   18.10
  -4   5  12   48.80   13.30
   4   5 -12   82.09   18.60
  -4   6 -12   30.90   17.40
   4  -6 -12   23.90   16.40
   4   6  12   20.00   11.30
   4   6 -12   37.50   17.70
  -4   6  12   28.60   14.10
  -4  -6 -12   35.30   16.30
   4  -6  12   18.40   16.10
   4  -7 -12    2.60   16.30
  -4   7 -12    2.60   16.40
   4   7  12   -0.40   11.80
  -4  -7 -12  -12.00   14.60
   4   7 -12   -3.00   19.40
   4  -7  12    4.30   20.20
   5   0 -12    4.90    8.70
   5   0  12   -7.20    9.50
  -5   0 -12  -11.10   13.30
  -5   0  12   -0.70   10.00
   5   0 -12  -11.40   10.00
  -5  -1  12  119.39   15.70
   5  -1 -12  111.89   16.70
  -5   1 -12  108.39   20.70
   5  -1 -12  119.89   16.60
   5   1  12  120.39   17.10
   5  -1  12  116.49   16.40
  -5  -1 -12  119.89   19.80
  -5   1  12  119.39   16.00
   5   1 -12  124.89   18.30
   5  -2 -12  347.37   31.00
  -5  -2  12  379.36   32.30
  -5   2 -12  354.56   39.40
   5  -2 -12  383.86   33.60
   5  -2  12  347.67   33.60
  -5   2  12  377.86   31.60
   5   2 -12  397.86   35.20
  -5  -2 -12  373.46   36.00
  -5   3 -12  267.77   32.50
  -5  -3  12  227.38   24.90
   5  -3 -12  238.78   27.30
   5   3  12  228.98   22.20
   5  -3  12  210.78   25.70
  -5   3  12  213.08   23.70
  -5  -3 -12  296.17   27.30
  -5  -3 -12  204.48   26.40
   5   3 -12  267.97   30.60
  -5  -4  12  329.17   28.40
   5  -4 -12  223.18   28.70
   5   4  12  329.77   25.80
  -5   4 -12  215.38   31.60
   5  -4  12  276.17   31.40
  -5  -4 -12  232.98   28.50
   5   4 -12  222.18   29.70
  -5   4  12  315.17   27.20
   5   5  12   83.59   14.50
  -5   5 -12   41.90   21.20
   5  -5 -12   74.59   19.70
  -5  -5  12   45.80   15.00
   5  -5  12   70.79   19.10
  -5  -5 -12   74.39   18.90
  -5   5  12   56.39   14.10
   5   5 -12   56.69   18.50
  -5   6 -12   -5.40   16.90
   5   6  12    1.60   10.90
   5  -6 -12   13.40   17.10
   5  -6  12    9.10   16.40
  -5  -6 -12    4.40   14.60
  -5   6  12   25.70   14.20
   5   6 -12   -1.60   17.90
   5   7  12   59.69   16.70
   5  -7 -12   31.50   30.00
  -5  -7 -12   34.70   19.80
  -6   0  12  403.86   33.20
   6   0 -12  335.97   33.60
  -6   0 -12  299.07   39.50
   6   0  12  452.25   33.80
  -6   1 -12  202.48   28.20
  -6  -1  12  211.18   22.00
   6  -1 -12  183.58   22.20
   6   1  12  185.18   21.90
  -6  -1 -12  165.08   27.50
   6   1 -12  205.18   24.90
  -6   1  12  221.28   22.40
   6  -1  12  177.88   22.30
   6   2  12   99.69   15.70
  -6  -2  12  110.89   16.40
   6  -2 -12  112.69   15.90
  -6   2 -12  113.39   22.60
   6  -2  12   94.09   16.70
  -6   2  12   91.19   15.70
   6   2 -12  119.29   20.80
  -6  -2 -12  109.59   21.70
   6  -3 -12    1.10   12.30
  -6  -3  12   15.40   11.40
  -6   3 -12    3.20   16.30
  -6  -3 -12    8.70   11.90
  -6   3  12   11.30   12.10
   6   3 -12   -2.00   13.20
   6  -3  12   15.90   12.40
  -6  -3 -12   -7.40   13.50
  -6   4 -12  180.58   29.50
   6  -4 -12  202.08   26.50
   6   4  12  208.58   21.20
  -6  -4  12  203.48   23.20
  -6  -4 -12  160.68   23.50
   6   4 -12  201.48   27.10
  -6   4  12  198.88   22.80
   6  -4  12  206.88   26.10
   6   5  12  106.59   17.30
   6  -5 -12  161.38   24.70
  -6  -5  12  120.29   20.40
  -6   5 -12  152.08   26.90
   6  -5  12  115.69   23.90
   6   5 -12  197.58   26.90
  -6   5  12  107.09   18.70
  -6  -5 -12  163.98   24.30
  -6  -6  12  229.28   28.20
   6  -6 -12  217.98   31.20
   6   6  12  229.88   24.40
  -6  -6 -12  176.18   27.60
  -7   0 -12    3.50   16.80
   7   0  12    6.80   11.70
  -7   0  12    3.60   10.90
   7   0 -12   16.90   13.20
   7  -1 -12   95.59   16.60
   7   1  12   70.59   14.50
  -7   1 -12   91.79   23.30
  -7  -1  12   61.89   14.70
   7  -1  12   80.29   15.40
  -7  -1 -12   82.29   21.90
   7   1 -12  100.09   18.10
  -7   1  12   63.19   14.60
  -7   2 -12  249.78   34.70
   7   2  12  201.88   25.10
  -7  -2  12  228.58   25.60
   7   2 -12  215.58   27.30
  -7   2  12  233.48   25.20
  -7  -2 -12  174.58   30.60
   7  -2  12  235.48   25.90
  -7  -3  12  219.68   24.20
  -7   3 -12  210.08   30.90
  -7  -3 -12  128.19   26.90
  -7  -3 -12  182.38   23.90
   7   3 -12  206.68   27.00
   7  -3  12  179.48   23.70
  -7   3  12  200.58   22.80
  -7   4 -12   96.09   24.10
  -7  -4  12   83.69   18.40
  -7  -4 -12   69.89   17.80
  -7   4  12   68.49   15.80
   7   4 -12   74.69   19.90
   7  -4  12   57.79   17.70
  -7  -5  12   33.70   16.30
  -7  -5 -12    9.20   16.80
  -7  -5 -12   12.80   13.60
  -7  -6  12   83.39   21.20
  -7  -6 -12   93.19   19.00
  -7  -6 -12   64.89   19.50
   8   0  12  203.98   24.30
  -8   0  12  174.88   23.60
  -8   0 -12  221.28   33.90
   8   0 -12  250.97   27.50
   8  -1 -12   23.30   13.50
  -8  -1  12   59.49   16.30
   8   1  12   48.20   14.40
  -8   1 -12   35.90   21.80
  -8   1  12   43.50   14.40
  -8  -1 -12   33.50   23.20
   8   1 -12   17.90   14.20
   8  -1  12   40.50   13.80
   8   2  12    6.40   12.30
  -8   2 -12   19.40   22.60
  -8  -2  12    4.80   12.70
   8  -2  12   19.20   13.20
  -8  -2 -12    0.00   20.80
  -8   2  12    9.70   12.60
   8   2 -12    9.80   16.00
  -8  -3  12   89.29   18.10
  -8   3 -12  121.69   27.40
  -8  -3 -12   74.19   17.20
  -8  -3 -12   75.59   25.20
   8   3 -12  105.49   22.90
  -8   3  12   81.09   16.80
   8  -3  12   76.09   19.40
  -8  -4  12  178.78   24.50
  -8  -4 -12  121.49   22.70
   9   0  12   -9.20   13.20
   9   0 -12    1.10   14.50
  -9   0 -12   -5.20   20.90
   9  -1 -12   70.39   18.00
   9   1  12   95.99   18.00
   9   1 -12   98.09   19.90
   9  -1  12   94.19   18.90
  -9  -1 -12   36.90   24.50
   9   2  12  143.19   20.70
   9  -2  12  151.98   21.80
  -9  -2 -12  127.69   30.20
  -9  -3 -12   53.09   26.00
   0   0 -13    4.40    9.20
   0   0  13    5.50    5.80
   0   0  13    4.40    9.10
   0   1  13   -7.10    7.60
   0  -1  13   -3.60    8.80
   0   1  13    8.50    6.60
   0  -1 -13    3.70    8.20
   0   1 -13   -6.80   10.20
   0  -1  13    1.10    5.00
   0   2  13   -0.50    6.80
   0  -2 -13   10.60    9.70
   0  -2  13    2.70    9.30
   0  -2 -13   -2.60    7.60
   0   2 -13   -4.40   10.00
   0  -3 -13    1.10   10.30
   0  -3  13    9.00   10.00
   0   3 -13    0.10   11.00
   0   3  13    2.00    8.20
   0  -4  13    1.40   10.40
   0   4  13   -4.70    7.90
   0   4 -13   -3.90   12.60
   0  -4 -13   -6.40   11.50
   0  -5  13   -3.40   11.60
   0  -5 -13    4.00   13.30
   0   5 -13    1.10   14.00
   0   5  13    6.80   10.60
   0  -6 -13    7.90   14.90
   0   6  13   -6.40   11.60
   0  -6  13   -9.60   10.90
   0   6 -13    6.60   17.10
   0   7  13    8.80   12.30
   0   7 -13    9.10   16.90
   0  -7  13  -10.50   14.10
   0  -7 -13    3.70   15.90
   0  -8  13    0.90   16.90
   1   0 -13    2.60    8.00
   1   0  13   -2.30    4.90
  -1   0  13    3.50    6.50
  -1   0 -13    4.60    9.40
  -1   0  13    7.20    8.70
   1   0  13    0.60    9.30
  -1   1 -13   36.90   12.50
   1  -1 -13   38.20   11.10
  -1  -1  13   29.70   10.30
   1  -1 -13   34.00   10.30
  -1  -1  13   32.70    7.70
   1   1  13   36.10   10.50
   1   1  13   43.10    7.60
   1  -1  13   38.00   10.40
  -1   1  13   38.90    8.50
  -1  -1 -13   27.90   10.20
   1   1 -13   53.59   12.30
  -1  -2  13  387.36   26.90
  -1  -2  13  398.76   30.40
   1  -2 -13  283.37   30.30
   1   2  13  398.56   27.80
   1  -2 -13  310.77   28.30
  -1   2 -13  307.27   32.80
  -1   2  13  416.96   29.00
   1   2 -13  274.27   31.00
   1  -2  13  392.16   30.50
  -1  -2 -13  317.67   31.40
  -1  -2 -13  308.87   29.20
  -1  -3  13   79.99   13.20
   1   3  13   76.79   11.20
   1  -3 -13   68.99   14.80
  -1   3 -13   72.19   15.80
  -1  -3 -13   60.89   14.60
   1  -3  13   80.29   13.70
  -1   3  13   57.19   11.00
   1   3 -13   50.89   14.80
   1  -4 -13   34.50   13.90
   1   4  13   47.50   11.00
  -1   4 -13   34.00   14.90
  -1  -4  13   37.90   11.80
   1  -4  13   52.19   12.90
  -1  -4 -13   22.10   13.00
  -1   4  13   43.70   11.80
   1   4 -13   30.60   14.30
   1  -5 -13  123.49   20.90
  -1  -5  13   80.59   16.00
   1   5  13   85.19   15.30
  -1   5 -13  118.89   21.50
   1   5 -13  141.69   21.60
  -1   5  13  102.29   15.50
   1  -5  13   96.79   17.20
  -1  -5 -13  130.09   21.20
   1  -6 -13   -0.60   14.40
   1   6  13   29.50   12.80
  -1  -6  13   31.50   13.60
  -1   6 -13   11.10   16.10
  -1   6  13   27.80   13.60
  -1  -6 -13    7.10   17.00
   1  -6  13   34.70   16.20
   1   6 -13   28.70   17.20
   1  -7 -13   11.10   17.00
  -1  -7  13    5.40   13.80
   1   7  13   13.20   12.30
  -1   7 -13    6.10   17.10
   1  -7  13    6.40   16.50
  -1  -7 -13    5.50   18.40
  -1   7  13    0.60   13.40
   1   7 -13    3.80   17.10
  -2   0  13   25.00    8.30
   2   0 -13   11.90   10.30
  -2   0 -13   25.80   12.20
   2   0  13   34.90   10.50
   2  -1 -13  925.11   66.09
  -2  -1  13  837.62   64.19
   2   1  13  805.72   65.09
   2  -1 -13 1005.70   65.79
   2   1  13  846.32   62.19
  -2  -1  13  826.52   63.19
  -2   1 -13  982.50   68.09
   2  -1  13  827.52   64.99
  -2  -1 -13  977.40   66.89
  -2   1  13  852.31   63.79
   2   1 -13 1052.29   67.49
  -2  -2  13  185.98   17.60
  -2  -2  13  192.78   19.40
   2   2  13  175.88   16.70
   2  -2 -13  128.19   19.10
  -2   2 -13  168.98   22.40
   2  -2 -13  154.78   17.70
  -2  -2 -13  165.68   20.20
   2   2 -13  155.88   20.90
   2  -2  13  178.88   21.20
  -2   2  13  187.38   18.00
  -2  -3  13  119.79   14.20
   2  -3 -13   91.89   16.80
   2   3  13  107.89   12.90
  -2   3 -13   94.09   18.00
  -2  -3  13  104.09   14.50
  -2  -3 -13   76.59   16.20
   2  -3  13  112.29   17.20
  -2   3  13  102.79   14.70
   2   3 -13  107.89   19.30
   2   4  13   37.80   10.50
   2  -4 -13   22.10   14.90
  -2   4 -13   46.20   15.70
  -2  -4  13   45.40   11.50
   2  -4  13   37.60   13.10
  -2   4  13   35.70   10.80
  -2  -4 -13   34.40   14.10
   2   4 -13   36.50   14.90
   2  -5 -13  358.46   36.70
  -2  -5  13  380.76   32.10
   2   5  13  367.06   31.70
  -2   5 -13  343.27   36.90
  -2   5  13  352.36   32.90
  -2  -5 -13  378.46   37.20
   2   5 -13  339.17   36.70
   2  -5  13  349.07   36.00
   2  -6 -13  279.47   35.00
  -2   6 -13  256.37   34.70
   2   6  13  345.77   30.60
  -2  -6  13  353.76   31.60
  -2   6  13  345.37   31.90
   2  -6  13  349.57   35.80
   2   6 -13  266.27   34.80
  -2  -6 -13  259.17   34.20
   2  -7 -13    8.20   17.00
   2   7  13   21.30   14.50
  -2   7 -13   11.40   17.70
   2  -7  13   25.20   17.10
  -2  -7 -13   30.00   18.20
   2   7 -13   38.00   19.40
  -2   7  13   24.70   13.50
   3   0 -13   -1.80    8.10
   3   0  13   -6.30    8.80
  -3   0  13    6.70    8.60
  -3   0 -13   -5.40   11.30
   3   0 -13   -4.40    9.20
   3   1  13    6.80    9.30
   3  -1 -13   13.20   10.20
  -3   1 -13    2.60   11.30
   3  -1 -13   -3.60    8.60
  -3  -1  13    1.40    8.10
  -3  -1  13    9.40    8.10
   3  -1  13    1.50    9.30
  -3   1  13    7.40    8.90
  -3  -1 -13   14.60   11.40
   3   1 -13    7.80   11.10
   3   2  13 1477.45  104.19
   3  -2 -13 1582.04  108.39
  -3  -2  13 1422.16  105.29
  -3  -2  13 1508.15  105.69
   3  -2 -13 1521.35  106.09
   3   2  13 1492.65  106.89
  -3   2 -13 1578.54  110.49
  -3  -2 -13 1613.54  108.09
  -3   2  13 1483.45  105.79
   3   2 -13 1641.94  109.29
   3  -2  13 1449.65  106.89
  -3  -3  13  122.89   14.80
  -3  -3  13  108.19   14.50
   3  -3 -13   96.99   17.40
  -3   3 -13   70.89   18.60
   3   3  13  114.69   13.80
  -3  -3 -13   99.19   17.50
   3  -3  13  112.99   17.00
   3   3 -13  114.59   19.20
  -3   3  13  134.39   16.90
  -3   4 -13  138.29   24.60
   3  -4 -13  164.38   23.00
  -3  -4  13  132.99   16.70
   3   4  13  113.89   15.70
   3   4 -13  132.09   21.50
   3  -4  13  156.58   20.60
  -3  -4 -13  142.89   21.30
  -3   4  13  140.19   17.90
  -3   5 -13  316.67   37.20
   3   5  13  322.47   28.90
   3  -5 -13  322.47   35.60
  -3   5  13  286.47   28.80
  -3  -5 -13  343.77   36.70
   3   5 -13  305.37   34.40
   3  -5  13  289.77   34.40
  -3   6 -13  330.27   36.80
   3  -6 -13  312.87   38.30
   3   6  13  293.67   30.50
  -3  -6 -13  342.57   36.70
   3  -6  13  289.07   35.10
  -3   6  13  283.67   31.50
   3   6 -13  336.57   36.50
   3   7  13   71.49   16.90
   3  -7  13   40.70   23.70
   4   0  13   53.09   12.70
   4   0 -13   56.79   11.80
  -4   0  13   56.99   12.50
   4   0 -13   68.89   14.50
  -4   0 -13   64.49   16.80
  -4  -1  13  571.54   40.00
  -4   1 -13  425.66   44.00
   4  -1 -13  435.66   39.80
   4   1  13  580.54   41.60
   4  -1 -13  444.66   39.60
   4   1 -13  448.86   38.50
   4  -1  13  536.05   41.30
  -4  -1 -13  452.15   42.70
   4   1 -13  455.75   42.10
  -4   1  13  597.44   40.20
   4  -2 -13  108.49   16.70
  -4   2 -13  105.89   21.00
  -4  -2  13  156.68   17.30
   4   2  13  124.79   17.90
   4  -2 -13  109.59   17.80
   4  -2  13  123.89   17.50
  -4  -2 -13  110.89   18.90
  -4   2  13  140.59   17.30
   4   2 -13  123.59   20.20
  -4  -3  13  214.98   22.50
   4  -3 -13  189.08   23.90
   4   3  13  209.08   19.50
  -4   3 -13  165.88   26.30
   4  -3  13  219.28   24.40
  -4  -3 -13  206.38   25.20
   4   3 -13  159.78   24.30
  -4   3  13  217.48   22.50
  -4  -4  13  171.28   19.30
   4  -4 -13  101.99   21.10
   4   4  13  149.39   17.20
  -4   4 -13  131.89   24.30
  -4  -4 -13  110.99   20.50
   4   4 -13  138.99   23.00
  -4   4  13  177.68   19.60
   4  -4  13  169.78   22.20
   4   5  13  384.56   33.60
   4  -5 -13  369.06   40.50
  -4   5 -13  375.76   41.20
  -4  -5 -13  428.56   41.20
  -4   5  13  383.66   35.70
   4   5 -13  379.86   41.60
   4  -5  13  410.06   39.00
   4  -6 -13  270.97   33.80
   4   6  13  268.67   28.30
  -4   6 -13  285.67   35.10
   4  -6  13  243.78   32.10
  -4  -6 -13  271.47   33.30
  -4   6  13  244.48   28.00
   4   6 -13  285.27   35.10
  -5   0 -13   -3.70   14.30
   5   0  13    0.80   11.30
   5   0 -13    0.30   11.50
  -5   0  13   10.00   10.80
  -5  -1  13   80.99   14.60
   5   1  13  106.29   17.10
   5  -1 -13  110.79   16.50
  -5   1 -13  109.59   21.30
   5  -1 -13  113.09   16.50
   5   1 -13  106.99   18.80
  -5  -1 -13  131.39   22.00
   5  -1  13   88.89   15.80
  -5   1  13   98.99   16.40
   5  -2 -13  489.25   42.60
  -5  -2  13  558.34   41.10
  -5   2 -13  480.75   47.00
   5   2  13  524.05   42.50
  -5  -2 -13  434.06   43.10
   5   2 -13  502.35   44.20
  -5   2  13  527.85   41.80
   5  -2  13  528.55   42.30
   5  -3 -13  103.99   18.70
  -5   3 -13  101.09   21.70
  -5  -3  13   88.89   16.40
  -5   3  13   91.19   15.80
   5  -3  13   90.29   17.40
  -5  -3 -13   88.69   24.60
  -5  -3 -13   98.69   19.00
   5   3 -13  101.09   19.70
  -5  -4  13    3.90   12.30
   5   4  13   12.00   10.00
  -5   4 -13    6.50   16.60
   5  -4 -13   14.20   14.80
   5   4 -13   13.90   15.40
  -5  -4 -13    2.40   14.50
   5  -4  13   10.70   13.90
  -5   4  13    4.60   11.30
   5   5  13  210.08   24.00
   5  -5 -13  274.27   32.30
  -5   5 -13  231.78   32.70
   5  -5  13  180.88   28.20
   5   5 -13  261.27   32.00
  -5   5  13  236.68   26.50
  -5  -5 -13  277.17   31.70
   5  -6 -13  263.87   33.50
   5   6  13  281.07   28.80
  -5  -6 -13  217.88   31.40
   6   0  13  535.55   42.30
  -6   0  13  517.05   41.90
  -6   0 -13  465.55   47.20
   6   0 -13  508.45   42.90
   6  -1 -13   48.60   13.40
   6   1  13   40.40   12.90
  -6   1 -13   23.60   17.60
  -6  -1  13   49.99   13.00
   6   1 -13   45.70   16.10
  -6   1  13   47.20   13.20
  -6  -1 -13   55.29   17.70
   6  -1  13   52.29   13.70
   6   2  13   10.60   12.00
  -6   2 -13    3.00   16.40
  -6  -2  13    1.60   12.20
   6   2 -13   22.40   15.70
  -6  -2 -13    8.40   14.00
  -6   2  13    8.50   11.00
   6  -2  13    6.60   11.80
  -6   3 -13  207.38   32.30
  -6  -3  13  236.48   26.20
  -6  -3 -13  212.48   27.50
   6  -3  13  212.68   27.30
  -6   3  13  251.77   26.00
   6   3 -13  251.07   30.80
   6  -4 -13   81.69   19.70
  -6  -4  13  156.08   19.90
  -6   4 -13   61.89   22.20
   6  -4  13  158.08   23.50
  -6   4  13  114.59   18.00
  -6  -4 -13   85.59   19.90
   6   4 -13   58.39   19.30
  -6  -5  13   42.80   17.20
   6  -5 -13   68.19   19.90
  -6  -5 -13   45.50   18.80
   6  -6 -13   -1.00   16.10
   6   6  13   -3.30   12.40
  -7   0 -13   -3.20   19.20
   7   0  13    0.40   11.50
   7   0 -13   -8.10   12.40
  -7   0  13   -4.10   13.10
   7  -1 -13  108.79   18.80
   7   1  13  142.79   19.20
  -7  -1  13  137.29   19.40
  -7   1 -13   97.09   25.10
   7  -1  13  152.58   21.10
   7   1 -13   97.69   19.70
  -7  -1 -13   95.99   25.50
  -7   1  13  132.89   20.10
  -7   2 -13   14.80   19.70
   7   2  13   36.40   14.10
  -7  -2  13   31.00   13.90
   7   2 -13   29.30   15.50
   7  -2  13   31.90   14.00
  -7  -2 -13   19.00   17.60
  -7   2  13   24.20   14.80
  -7  -3  13  265.67   28.70
  -7   3 -13  227.88   36.40
   7   3 -13  176.58   28.50
   7  -3  13  265.37   29.80
  -7   3  13  272.97   27.60
  -7  -3 -13  260.07   29.10
  -7  -4  13  142.59   22.40
  -7  -4 -13  177.38   25.30
  -7  -5  13   -3.50   15.80
  -7  -5 -13   -4.50   16.50
  -8   0  13  581.64   49.60
   8   0 -13  607.34   49.00
   8   0  13  570.54   48.90
  -8   0 -13  543.05   59.49
   8   1  13   44.90   14.30
  -8   1 -13   54.19   23.90
  -8  -1  13   42.00   16.20
   8  -1  13   40.80   14.70
  -8   1  13   50.79   15.40
  -8  -1 -13   24.50   22.90
   8   1 -13   50.29   17.60
   8   2  13   29.00   14.10
  -8  -2  13   30.30   15.00
  -8   2 -13   21.40   24.90
   8  -2  13   25.90   14.20
  -8  -2 -13   30.70   22.70
   8   2 -13   19.80   17.50
  -8  -3  13   16.70   19.10
  -8  -3 -13   26.60   16.30
  -8  -4 -13  122.79   23.30
   9   0 -13   -6.10   12.90
   9   0  13    1.60   14.00
   9   1  13   34.20   15.90
   0   0  14 1393.36   94.89
   0   0 -14 1355.26   98.49
   0   0  14 1400.56   97.89
   0   1 -14  559.24   52.09
   0  -1 -14  606.64   50.89
   0   1  14  740.23   48.40
   0  -1  14  739.23   51.49
   0  -2 -14  114.09   17.60
   0   2  14   79.09   12.30
   0   2 -14   96.79   18.40
   0  -2  14   61.99   13.40
   0  -2 -14  129.59   14.90
   0   3  14  177.18   19.20
   0   3 -14  154.48   22.60
   0  -3  14  170.18   20.30
   0  -3 -14  160.88   22.70
   0  -4  14  356.76   32.50
   0   4 -14  328.37   35.10
   0  -4 -14  306.07   34.20
   0   4  14  357.76   30.10
   0  -5 -14  290.27   35.30
   0  -5  14  265.97   29.70
   0   5  14  254.67   26.00
   0   5 -14  304.57   33.70
   0   6  14  182.98   21.40
   0   6 -14  189.88   27.90
   0  -6 -14  134.09   25.70
   0  -6  14  181.38   24.50
   0  -7  14   69.79   19.50
  -1   0  14   -1.80    6.40
   1   0 -14    1.50    8.80
  -1   0 -14    6.80   10.90
   1   0  14    4.90   10.20
  -1   0  14   -1.60    9.40
  -1  -1  14  324.67   29.90
   1   1  14  351.56   31.30
   1  -1 -14  350.06   30.20
  -1  -1  14  331.07   26.70
  -1   1 -14  330.47   32.60
   1   1  14  319.17   26.50
   1  -1 -14  353.06   30.90
   1  -1  14  333.07   30.10
   1   1 -14  390.96   32.10
  -1  -1 -14  348.77   31.40
  -1   1  14  313.37   27.40
  -1   2 -14  638.94   53.19
   1  -2 -14  700.43   51.89
   1   2  14  674.63   48.30
   1  -2 -14  677.33   53.09
  -1  -2  14  671.63   50.49
  -1   2  14  648.34   49.10
  -1  -2 -14  670.63   50.59
  -1  -2 -14  689.13   53.59
   1   2 -14  612.24   52.69
   1  -2  14  663.13   51.09
  -1   3 -14  280.37   31.70
  -1  -3  14  327.27   29.00
   1   3  14  289.67   26.00
   1  -3 -14  319.97   31.00
  -1   3  14  294.07   27.00
  -1  -3 -14  319.37   31.20
   1  -3  14  304.57   29.70
   1   3 -14  277.27   32.80
   1  -4 -14  159.78   24.30
   1   4  14  174.58   19.10
  -1  -4  14  177.88   22.00
  -1   4 -14  161.68   24.50
  -1   4  14  160.28   19.60
   1   4 -14  163.38   24.20
   1  -4  14  164.98   21.20
  -1  -4 -14  172.58   23.80
  -1  -5  14  259.47   28.10
   1   5  14  257.77   25.40
   1  -5 -14  264.07   32.80
  -1   5 -14  250.87   32.10
   1  -5  14  231.58   30.20
  -1  -5 -14  283.07   33.50
   1   5 -14  308.77   33.50
  -1   5  14  280.67   28.00
  -1  -6  14  271.27   29.30
   1  -6 -14  250.87   32.60
  -1   6 -14  234.68   32.60
   1   6  14  237.28   26.00
   1   6 -14  249.78   32.90
   1  -6  14  285.67   30.50
  -1   6  14  257.07   28.40
  -1  -6 -14  233.58   32.10
   1  -7  14   48.30   19.90
   2   0 -14  310.37   28.50
   2   0  14  305.47   28.20
  -2   0  14  289.57   25.70
   2   0 -14  290.07   27.80
  -2   0 -14  314.97   30.70
   2   1  14  315.47   30.20
  -2   1 -14  335.57   33.60
   2  -1 -14  383.36   30.60
   2  -1 -14  342.67   30.40
  -2  -1  14  323.97   29.50
  -2  -1  14  297.27   27.10
   2  -1  14  340.07   30.10
   2   1 -14  340.27   31.60
  -2  -1 -14  384.36   32.00
  -2   1  14  320.37   28.20
  -2  -2  14   28.80    9.70
  -2  -2  14   37.20   10.40
   2  -2 -14   38.60   12.30
  -2   2 -14   47.10   14.70
   2   2  14   35.20    8.40
  -2  -2 -14   58.79   14.90
  -2  -2 -14   43.40   11.80
  -2   2  14   31.10   10.70
   2   2 -14   32.20   13.50
   2  -2  14   43.10   12.30
  -2   3 -14   62.09   17.10
   2   3  14  109.09   13.10
   2  -3 -14   61.89   16.00
  -2  -3  14  109.69   15.40
  -2  -3 -14   65.09   17.00
   2   3 -14   89.69   19.00
  -2   3  14   88.99   13.90
   2  -3  14  103.69   16.30
  -2  -4  14  221.48   24.20
   2  -4 -14  240.28   28.30
  -2   4 -14  200.68   28.20
   2   4  14  205.78   22.50
   2  -4  14  229.08   26.10
  -2  -4 -14  230.28   28.40
  -2   4  14  214.18   23.10
   2   4 -14  250.67   29.30
  -2  -5  14   32.70   12.80
  -2   5 -14   53.69   18.70
   2  -5 -14   30.60   16.10
   2   5  14   59.79   13.10
   2   5 -14   52.69   20.60
  -2   5  14   45.00   13.10
  -2  -5 -14   60.09   17.80
   2  -5  14   36.10   16.70
   2  -6 -14   23.60   17.20
   2   6  14   28.10   13.60
  -2   6 -14   16.10   17.80
   2   6 -14   28.10   20.60
  -2  -6 -14    9.30   17.10
  -2   6  14   28.70   14.90
   2  -6  14   32.60   16.10
   3   0  14   -3.80    9.60
  -3   0 -14    3.00   12.70
  -3   0  14   -1.30    7.60
   3   0 -14   -7.30   10.20
   3   0 -14  -12.00    8.30
   3  -1 -14   78.19   14.20
   3   1  14   68.99   14.30
  -3   1 -14   69.69   16.60
  -3  -1  14   71.39   12.70
   3  -1 -14   85.39   15.40
   3  -1  14   65.09   14.00
  -3   1  14   69.49   13.10
  -3  -1 -14   72.59   15.80
   3   1 -14   60.29   15.60
  -3   2 -14  118.69   21.70
   3  -2 -14  129.99   19.90
  -3  -2  14  154.68   18.30
  -3  -2  14  157.28   16.80
   3  -2  14  126.39   18.50
   3   2 -14  178.78   22.80
  -3  -2 -14  141.49   19.30
  -3   2  14  117.69   17.10
  -3  -3  14   33.70   10.80
   3  -3 -14   17.80   14.00
   3   3  14   36.30    9.30
  -3   3 -14   34.60   16.30
   3   3 -14   44.20   15.10
  -3   3  14   31.40   12.10
  -3  -3 -14   20.90   13.10
   3  -3  14   26.30   12.80
   3   4  14   35.30   10.80
   3  -4 -14   39.70   16.70
  -3   4 -14   61.99   18.80
   3  -4  14   52.49   16.30
  -3  -4 -14   62.29   18.40
   3   4 -14   47.70   18.50
  -3   4  14   41.10   12.30
  -3   5 -14   53.09   20.40
   3   5  14   46.70   12.90
   3  -5 -14   45.20   17.20
   3   5 -14   43.00   18.10
  -3  -5 -14   31.50   16.50
  -3   5  14   45.60   14.80
   3  -5  14   43.80   17.70
   3   6  14  111.19   17.90
  -3   6 -14   74.49   26.50
   3  -6 -14   78.79   23.10
   3  -6  14   84.19   22.60
  -3  -6 -14   64.39   22.70
   3   6 -14   84.79   25.70
  -3   6  14   97.39   18.40
   4   0 -14  128.49   18.60
  -4   0 -14  150.58   23.50
  -4   0  14  145.29   17.80
   4   0 -14  125.29   17.20
   4   0  14  125.49   18.20
  -4   1 -14   48.10   16.60
  -4  -1  14   38.70   12.40
   4   1  14   53.19   13.60
   4  -1 -14   49.99   13.00
   4  -1 -14   79.89   14.90
   4  -1  14   45.10   14.20
   4   1 -14   45.50   11.90
   4   1 -14   54.99   15.00
  -4   1  14   55.59   12.10
  -4  -1 -14   64.09   16.70
   4  -2 -14   48.60   14.30
  -4  -2  14   30.30   11.80
   4   2  14   26.30   11.70
  -4   2 -14   36.90   16.60
  -4  -2 -14   27.50   13.80
  -4   2  14   10.80   12.00
   4  -2  14   21.00   13.20
   4   2 -14   36.70   14.50
  -4  -3  14   23.70   11.30
   4  -3 -14   19.90   12.50
  -4   3 -14  -13.10   16.70
  -4   3  14   47.20   13.60
  -4  -3 -14    6.80   12.90
   4  -3  14   32.20   13.80
   4   3 -14   27.30   14.60
   4  -4 -14   71.39   18.70
   4   4  14   69.49   13.00
  -4   4 -14   71.89   20.90
   4  -4  14   70.79   17.20
   4   4 -14   59.89   20.20
  -4   4  14   64.79   15.70
  -4  -4 -14   70.89   19.30
   4   5  14   53.29   13.40
   4  -5 -14   59.49   18.30
  -4   5 -14   74.09   23.70
   4  -5  14   26.30   16.80
  -4  -5 -14   41.10   19.30
  -4   5  14   36.40   15.00
   4   5 -14   51.39   19.40
   4  -6 -14  150.38   27.40
   4   6  14  143.59   19.50
   5   0 -14   -7.70   11.70
  -5   0  14    0.80   10.30
   5   0  14  -10.20   12.00
  -5   0 -14   -4.80   15.80
   5  -1 -14   67.99   14.50
  -5   1 -14   64.69   19.10
   5   1  14   63.49   14.60
  -5  -1  14   56.29   13.60
  -5   1  14   58.09   13.30
   5   1 -14   55.19   16.90
   5  -1  14   66.09   15.10
  -5  -1 -14   64.89   19.10
  -5  -2  14  101.79   16.50
   5  -2 -14   64.69   16.20
   5   2  14   93.39   16.10
  -5   2 -14   62.09   20.50
  -5   2  14   84.49   15.10
   5  -2  14  110.59   18.80
  -5  -2 -14   55.49   17.80
   5   2 -14   73.09   17.90
  -5  -3  14  330.57   30.60
  -5   3 -14  282.27   36.60
   5  -3 -14  283.27   32.10
  -5  -3 -14  320.57   32.70
   5   3 -14  310.47   36.00
  -5   3  14  260.77   30.30
   5  -3  14  308.47   32.00
   5  -4 -14  128.89   23.40
  -5   4 -14  148.79   28.80
  -5  -4 -14  128.09   23.30
   5   4 -14  131.79   24.50
   5  -4  14  159.08   23.60
  -5   4  14  125.19   20.50
   5  -5 -14   37.60   17.30
  -5   5  14   52.49   18.40
  -5  -5 -14   37.00   19.40
   5   6  14   12.80   13.40
  -6   0  14  197.28   23.50
   6   0 -14  182.48   24.40
   6   0  14  195.58   24.00
  -6   0 -14  154.18   28.30
  -6   1 -14  351.86   39.70
  -6  -1  14  309.87   33.30
   6  -1 -14  360.76   33.80
   6   1  14  336.47   32.40
  -6   1  14  332.37   33.20
   6   1 -14  376.86   36.30
   6  -1  14  331.87   34.30
  -6  -1 -14  318.77   37.00
   6   2  14   32.50   14.30
  -6   2 -14   27.00   21.70
  -6  -2  14   28.10   14.30
  -6  -2 -14   22.80   17.60
   6   2 -14   41.60   17.70
  -6   2  14   13.40   13.60
   6  -2  14   28.20   14.00
  -6  -3  14   -0.30   14.00
  -6   3 -14   -4.50   20.40
   6  -3  14    6.50   13.90
  -6  -3 -14   18.30   14.50
  -6   3  14    4.70   14.30
   6   3 -14    5.00   16.70
  -6  -4  14  122.89   21.50
  -6   4  14  209.48   23.70
   6  -4  14  123.59   33.20
  -6  -4 -14  125.99   22.70
   6   4 -14  110.69   23.80
  -7   0  14    7.30   12.60
   7   0  14    0.40   12.30
   7   0 -14    2.80   13.60
  -7   0 -14   -1.30   18.30
  -7  -1  14  169.38   22.20
  -7   1 -14  141.59   29.90
   7   1  14  150.48   21.30
   7  -1  14  156.98   22.30
  -7  -1 -14   96.59   27.00
  -7   1  14  164.88   23.00
   7   1 -14  170.08   24.80
  -7  -2  14  166.98   22.90
   7   2  14  196.78   24.10
  -7   2 -14  171.18   31.40
   7   2 -14  147.79   26.20
  -7   2  14  187.08   22.90
  -7  -2 -14  137.59   28.70
   7  -2  14  197.88   24.90
  -7  -3  14   33.00   16.90
  -7  -3 -14   34.80   17.70
   7   3 -14   21.20   19.30
  -7  -4  14  109.99   22.10
   8   0  14   89.99   21.80
   8   0 -14  128.59   21.60
  -8   0 -14  132.39   30.20
   8   1  14   75.89   19.20
   8   1 -14   77.99   18.80
  -8  -1 -14   53.19   23.80
  -8  -2 -14    9.40   21.30
   0   0  15    3.60    9.60
   0   0 -15    7.30   11.50
   0  -1 -15   -3.60   10.40
   0   1  15    3.90    7.70
   0   1 -15   -8.10   12.10
   0  -1  15    5.60   10.10
   0   2  15   -5.80    7.70
   0   2 -15   -7.80   11.70
   0  -2  15    9.30   11.60
   0  -2 -15    3.10   11.30
   0  -3 -15   -8.00   13.30
   0   3 -15   -5.70   14.70
   0   3  15   -1.10    9.00
   0  -3  15    3.80   11.80
   0  -4 -15   11.20   14.20
   0  -4  15   -5.70   11.60
   0   4 -15    4.80   14.90
   0   4  15    1.90    9.00
   0   5  15  -11.00   11.30
   0   5 -15   14.30   16.90
   0  -5 -15   -9.10   17.00
   0  -5  15   13.50   13.80
   0   6  15   -5.20   11.60
   0  -6  15   -4.10   14.10
   0  -7  15   -1.40   17.50
   1   0 -15    6.90   11.40
   1   0  15   -3.70    9.90
  -1   0  15    7.40    7.10
  -1   0 -15   -3.60   10.10
  -1   0  15   20.90   11.40
   1   1  15  109.99   17.40
  -1  -1  15  119.29   17.20
  -1   1 -15   97.89   19.10
   1  -1 -15  103.59   18.00
   1  -1 -15  109.99   17.10
   1   1 -15  106.19   18.00
  -1   1  15   92.29   13.30
  -1  -1 -15  119.89   17.60
   1  -1  15  109.59   17.60
   1  -2 -15   57.79   14.60
  -1  -2  15   41.60   13.10
   1   2  15   50.99   10.00
  -1   2 -15   57.69   16.10
  -1  -2 -15   41.20   14.00
  -1   2  15   47.70   10.90
   1  -2  15   36.30   13.80
   1   2 -15   53.49   15.70
   1  -3 -15  155.48   23.40
  -1  -3  15  186.68   22.20
   1   3  15  184.88   19.70
  -1   3 -15  188.98   25.80
   1   3 -15  196.78   25.50
  -1   3  15  176.08   20.30
   1  -3  15  187.78   23.30
  -1  -3 -15  220.98   26.30
   1  -4 -15   57.09   17.60
  -1   4 -15   49.30   18.10
   1   4  15   55.39   12.30
  -1  -4  15   40.70   13.90
  -1   4  15   42.00   13.10
  -1  -4 -15   67.79   17.50
   1   4 -15   38.90   17.30
   1  -4  15   36.40   13.70
   1   5  15   11.20   10.30
   1  -5 -15    1.50   15.30
  -1  -5  15    7.20   12.60
  -1   5 -15   10.60   17.30
   1  -5  15    6.90   14.80
   1   5 -15   -5.40   17.70
  -1  -5 -15   16.90   16.30
  -1   5  15    4.30   11.00
   1   6  15   78.59   16.80
  -1  -6  15   82.39   18.50
  -1   6  15   52.69   16.70
   1  -6  15   73.79   20.30
   2   0  15  595.54   46.10
  -2   0 -15  565.14   47.70
  -2   0  15  529.95   42.90
   2   0 -15  556.84   46.50
   2   0 -15  620.54   47.50
  -2   1 -15   88.59   17.90
   2  -1 -15   90.69   16.50
   2   1  15  103.49   16.90
   2  -1 -15  103.29   16.60
  -2  -1  15  145.99   17.50
  -2   1  15  117.69   15.20
   2  -1  15  135.39   19.20
   2   1 -15  106.59   18.50
  -2  -1 -15  100.89   17.20
  -2   2 -15   79.79   18.70
  -2  -2  15  133.89   17.40
   2  -2 -15  104.39   18.20
  -2   2  15  105.49   15.50
   2  -2  15  141.49   18.80
   2   2 -15  108.49   19.40
  -2  -2 -15  103.09   20.20
   2  -3 -15   61.99   17.80
  -2   3 -15   60.79   17.80
   2   3  15   52.29   10.90
  -2  -3  15   50.49   13.30
  -2  -3 -15   56.49   16.40
   2  -3  15   50.19   14.40
   2   3 -15   52.59   18.50
  -2   3  15   52.19   13.20
   2   4  15  396.16   32.50
   2  -4 -15  365.26   38.20
  -2   4 -15  404.86   42.20
  -2  -4  15  385.36   34.30
  -2   4  15  350.16   32.70
   2  -4  15  365.26   37.50
  -2  -4 -15  385.46   38.60
   2   4 -15  382.56   39.40
  -2   5 -15   52.69   20.40
   2  -5 -15   48.70   18.10
   2   5  15   51.09   13.80
  -2  -5 -15   34.30   17.90
  -2   5  15   64.19   15.90
   2   5 -15   35.60   19.40
   2  -5  15   58.39   18.90
   2   6  15   -7.60   12.20
   2  -6  15    8.60   15.80
  -3   0  15    6.00    9.50
   3   0  15    2.30   11.00
   3   0 -15    5.60   12.20
  -3   0 -15   -4.10   11.60
   3   0 -15    0.00   10.10
  -3  -1  15  505.35   39.50
  -3   1 -15  475.65   46.00
   3   1  15  576.94   42.80
   3  -1 -15  473.25   41.60
   3  -1 -15  508.95   42.00
   3   1 -15  455.95   42.40
   3   1 -15  442.66   41.10
  -3  -1 -15  493.55   43.90
  -3   1  15  540.25   40.00
   3  -1  15  557.14   42.60
   3  -2 -15   14.10   13.40
  -3   2 -15   -1.70   13.60
  -3  -2  15   11.10   10.40
  -3   2  15   -7.20   10.50
   3  -2  15    3.40   11.40
   3   2 -15   -8.30   12.00
   3  -3 -15  339.77   36.60
  -3   3 -15  339.27   37.70
  -3   3  15  362.66   32.70
   3  -3  15  395.66   34.60
  -3  -3 -15  349.07   35.50
   3   3 -15  321.47   35.80
   3  -4 -15  311.67   33.30
   3   4  15  289.77   29.20
  -3   4 -15  269.77   35.40
  -3  -4 -15  324.17   36.40
   3  -4  15  289.37   32.00
   3   4 -15  291.77   34.30
  -3   4  15  260.27   29.60
   3  -5 -15   -0.50   16.70
  -3   5 -15   -7.30   19.20
   3   5  15    5.10   11.60
   3   5 -15   -3.10   16.10
  -3   5  15    1.30   13.40
   3  -5  15  -15.80   14.10
  -3  -5 -15   -9.30   15.60
   3   6  15  111.19   18.60
  -4   0 -15 1143.49   86.59
   4   0 -15 1153.38   82.39
  -4   0  15 1075.89   81.19
   4   0  15 1096.79   82.59
   4   0 -15 1184.68   84.09
   4   1  15   59.59   14.70
   4  -1 -15   53.39   17.60
   4  -1 -15   44.40   14.80
  -4  -1  15   59.39   13.50
  -4   1 -15   64.39   19.80
   4   1 -15   54.29   17.10
  -4  -1 -15   60.39   17.40
  -4   1  15   37.30   13.10
   4  -1  15   46.50   14.00
   4  -2 -15   64.89   16.90
  -4  -2  15   65.39   14.50
  -4   2 -15   57.09   19.60
   4  -2  15   71.99   16.30
  -4   2  15   91.09   15.90
   4   2 -15   61.19   17.30
  -4   3 -15  119.09   23.90
   4  -3 -15  107.89   20.50
   4   3 -15  113.49   21.60
   4  -3  15   81.19   18.00
  -4  -3 -15  107.99   20.20
  -4   3  15   85.99   17.20
   4  -4 -15  381.76   41.30
  -4   4 -15  426.86   46.90
  -4  -4 -15  447.86   43.30
   4   4 -15  418.46   43.90
  -4   4  15  388.66   36.10
   4  -4  15  402.46   39.80
   4  -5 -15   17.70   16.50
  -4   5  15   10.60   21.00
   4   6  15    6.40   12.90
   5   0 -15   -2.80   13.00
  -5   0 -15  -17.20   13.80
  -5   0  15   19.50   12.50
   5   0  15   -3.50   13.20
   5   1  15  219.08   26.50
  -5  -1  15  232.98   24.90
  -5   1 -15  221.68   32.50
  -5   1  15  217.18   25.00
   5  -1  15  239.78   27.40
   5   1 -15  220.98   27.30
  -5  -1 -15  219.58   29.90
  -5  -2  15  135.99   19.90
  -5   2 -15   72.09   22.80
   5  -2  15  151.08   21.10
  -5   2  15  128.19   18.80
   5   2 -15  128.89   23.40
  -5   3 -15  154.68   29.10
   5  -3 -15  140.09   22.80
   5  -3  15  106.29   20.90
   5   3 -15  174.38   26.00
  -5  -3 -15  143.29   23.10
  -5   3  15  137.59   20.90
   5  -4 -15   32.80   17.50
  -5   4  15   17.70   13.40
   5   4 -15   33.60   18.80
  -5  -4 -15   28.90   18.90
   5  -5 -15   74.39   21.80
   6   0 -15   76.79   18.30
  -6   0  15  105.79   18.70
  -6   0 -15   54.09   21.30
   6   0  15   96.69   17.90
  -6   1 -15  114.29   26.10
  -6  -1  15  128.19   19.60
   6   1  15  124.69   20.20
  -6  -1 -15  109.99   24.00
  -6   1  15  160.78   20.50
   6   1 -15  131.99   22.90
   6  -1  15  128.89   20.50
  -6  -2  15   -6.30   13.60
  -6   2 -15    1.70   21.00
   6   2  15    5.60   12.40
   6  -2  15   -1.30   14.90
  -6   2  15  -14.50   13.00
   6   2 -15   18.50   17.00
  -6  -3  15   81.39   18.30
  -6   3  15   33.50   17.40
   6   3 -15  102.19   23.20
  -6  -3 -15  102.79   24.40
  -7   0  15   -3.60   13.20
   7   0 -15   13.00   14.90
  -7   0 -15  -12.00   20.50
  -7  -1  15   28.20   16.40
  -7   1 -15   -5.50   25.10
  -7  -1 -15    2.30   19.80
   7   1 -15   -6.90   15.20
  -7  -2  15  358.96   36.40
   7   2 -15  293.47   41.00
  -7  -3  15   19.00   18.80
   0   0  16  510.85   43.20
   0   0 -16  514.25   44.50
   0  -1 -16  534.15   42.80
   0  -1 -16  492.75   44.80
   0   1 -16  505.05   45.30
   0  -1  16  489.75   42.80
   0  -2  16  108.59   17.60
   0  -2 -16  135.29   21.20
   0   2  16   88.89   19.90
   0   2 -16  117.49   20.90
   0   3  16  155.68   19.50
   0  -3  16  192.18   24.00
   0   3 -16  232.88   28.80
   0  -3 -16  211.18   26.90
   0  -4 -16  257.97   33.10
   0   4  16  259.57   26.00
   0  -4  16  243.28   29.70
   0   4 -16  243.48   32.40
   0   5  16  230.58   25.60
   0  -5  16  264.07   30.90
   0  -6  16  332.97   37.00
   1   0  16   -6.50   10.60
  -1   0 -16    1.30   12.50
   1   0 -16    2.10   12.50
   1  -1 -16  172.28   22.90
   1  -1 -16  200.68   31.50
  -1   1 -16  199.98   25.10
  -1  -1  16  178.68   22.10
  -1  -1 -16  192.68   23.50
   1  -1  16  159.88   21.70
   1   1 -16  209.08   26.10
  -1   2 -16  458.95   45.40
   1  -2 -16  477.55   42.80
  -1  -2  16  482.35   41.50
   1   2 -16  541.15   44.80
   1  -2  16  479.45   41.40
  -1   2  16  492.65   38.70
  -1  -2 -16  480.85   43.40
  -1   3 -16  205.78   28.10
  -1  -3  16  213.58   25.90
   1  -3 -16  180.38   25.60
  -1   3  16  213.78   22.30
   1   3 -16  197.58   27.50
  -1  -3 -16  191.28   26.40
   1  -3  16  189.58   25.00
   1   4  16  110.29   16.40
  -1   4 -16  114.49   23.70
  -1  -4  16  135.49   20.00
   1  -4 -16   87.59   22.50
  -1  -4 -16   72.49   20.30
  -1   4  16  116.69   17.60
   1   4 -16   98.89   24.00
   1  -4  16  102.79   19.60
  -1  -5  16   79.09   18.00
   1   5  16   79.89   16.00
   1  -5  16   96.89   20.30
  -1   5  16   84.39   17.20
   2   0 -16   93.99   18.00
   2   0 -16   85.19   18.00
  -2   0 -16   87.89   19.40
   2   0  16  168.88   20.20
   2   1  16   72.09   16.70
  -2   1 -16   57.49   18.00
   2  -1 -16   45.90   14.40
  -2  -1  16   51.99   13.70
  -2   1  16   63.59   12.70
   2  -1  16   58.89   15.00
  -2  -1 -16   56.29   15.80
   2   1 -16   54.59   17.10
  -2   2 -16    2.00   14.00
   2  -2 -16    3.80   13.80
  -2  -2  16    8.70   11.80
   2   2 -16   -3.60   15.30
   2  -2  16    0.10   11.80
  -2  -2 -16    7.00   13.80
  -2   2  16    2.80   10.10
  -2  -3  16   74.89   15.60
   2  -3 -16   44.10   18.00
  -2   3 -16   37.70   17.50
  -2  -3 -16   54.89   17.60
   2   3 -16   46.60   17.90
   2  -3  16   69.69   16.50
  -2   3  16   56.69   13.80
  -2   4 -16  392.66   44.90
  -2  -4  16  367.76   38.60
   2  -4 -16  366.46   42.10
   2   4 -16  404.26   44.40
  -2  -4 -16  434.76   41.70
  -2   4  16  409.06   36.60
   2  -4  16  428.66   38.80
   2   5  16   28.80   13.10
   2  -5  16   37.60   18.60
  -2   5  16   42.70   15.60
   3   0 -16   -7.10   11.40
   3   0  16   -2.30   11.70
   3   0 -16    5.40   12.70
  -3   0  16   -5.20    9.70
  -3   0 -16    5.10   14.50
   3  -1 -16   77.39   17.70
   3   1  16   90.99   17.90
  -3   1 -16   86.79   19.80
   3   1 -16   69.69   17.10
   3   1 -16   90.29   16.40
  -3   1  16   69.49   14.40
   3  -1  16   90.79   18.60
  -3  -1 -16   68.49   17.70
  -3   2 -16   96.29   21.10
   3  -2 -16   83.59   19.10
  -3  -2  16  115.69   17.00
   3  -2  16   99.49   19.50
  -3  -2 -16   96.99   20.20
   3   2 -16  101.09   20.10
  -3   2  16   94.69   16.30
   3  -3 -16   18.70   14.60
  -3   3 -16   28.00   17.60
  -3  -3 -16   17.50   15.00
   3   3 -16   24.50   17.90
   3  -3  16   21.00   14.30
  -3   3  16   19.90   13.20
  -3   4 -16   -1.50   17.00
   3  -4 -16    8.00   16.50
  -3   4  16   10.10   12.00
   3   4 -16    1.40   18.40
   3  -4  16   -7.30   13.80
  -3  -4 -16   -5.40   16.70
   4   0  16  275.67   29.00
   4   0 -16  172.18   24.80
  -4   0  16  244.48   24.50
  -4   0 -16  130.09   26.80
   4  -1 -16  126.09   20.40
   4   1  16  157.58   21.70
  -4   1 -16  119.59   23.40
  -4  -1  16  107.39   17.30
   4   1 -16  115.19   21.70
  -4  -1 -16   91.89   21.30
   4  -1  16  129.99   20.70
  -4   1  16  131.99   19.10
  -4   2 -16   39.10   21.10
   4  -2 -16   38.90   15.00
  -4  -2 -16   46.50   17.50
   4  -2  16   42.90   15.90
  -4   2  16   28.90   14.20
   4   2 -16   54.29   19.10
  -4   3 -16   28.00   19.30
   4  -3 -16   11.50   15.40
  -4  -3 -16   17.20   15.80
   4  -3  16   25.80   16.90
   4   3 -16   17.30   18.70
  -4   3  16   38.50   13.50
   4  -4 -16   16.40   17.80
  -4   4  16    2.70   12.50
   5   0  16    1.50   14.50
  -5   0 -16  -14.30   14.90
   5   0 -16    7.60   14.40
  -5   0  16    4.40   13.00
  -5  -1  16   74.99   16.30
  -5   1 -16   79.39   22.10
   5   1  16   45.60   17.10
  -5   1  16   53.29   15.50
   5  -1  16   61.39   16.90
  -5  -1 -16   58.09   20.10
   5   1 -16   91.69   19.80
  -5   2 -16  251.77   34.90
  -5   2  16  235.18   27.20
   5   2 -16  299.87   35.30
   5  -2  16  236.38   34.20
   5   3 -16  199.98   30.40
  -5   3  16  253.77   27.30
  -6   0  16   79.99   17.20
  -6   0 -16   50.49   21.40
  -6   1 -16   89.19   28.20
  -6  -1  16  166.88   23.30
  -6   1  16  146.59   21.90
   6   1 -16  137.29   22.80
  -6  -1 -16  116.79   26.20
  -6  -2  16   10.70   14.80
   6   2 -16   24.70   19.00
  -7  -1 -16   42.60   25.70
   0   0  17    4.20   11.40
   0   0 -17   -5.80   13.20
   0  -1 -17   -4.50   14.10
   0  -1  17    3.60   13.20
   0   1 -17   -9.50   14.50
   0  -2 -17    3.20   15.40
   0  -2  17  -15.10   11.10
   0   2 -17    0.40   14.70
   0   3 -17    8.10   18.10
   0  -3  17   -6.30   12.10
   0  -3 -17   -6.10   13.90
   0   4  17    6.80   11.60
   0  -4  17   -5.50   12.60
   0  -5  17    0.10   13.60
   0   5  17  -10.20   12.10
   1   0 -17    4.70   12.40
   1   0 -17    1.80   13.70
   1   0  17    5.80   12.10
  -1   0 -17    6.40   14.50
  -1  -1  17   14.20   11.90
   1  -1 -17   12.20   12.90
  -1   1 -17    9.20   14.00
   1  -1  17    3.10   13.80
   1   1 -17    7.40   13.40
  -1  -1 -17    1.70   15.80
  -1  -2  17  188.28   23.70
  -1   2 -17  164.88   26.10
   1  -2 -17  179.58   25.20
  -1  -2 -17  183.78   26.50
   1  -2  17  182.38   23.80
   1   2 -17  184.48   27.80
  -1   3 -17   15.00   19.00
  -1  -3  17   24.40   14.40
   1  -3 -17    7.80   16.80
   1   3 -17    8.50   18.60
  -1   3  17   21.30   12.00
   1  -3  17   15.20   15.10
  -1  -3 -17   11.90   15.70
  -1  -4  17   65.69   17.10
   1  -4  17   56.79   18.80
  -1   4  17   54.79   14.80
   1   5  17    0.70   18.00
   2   0 -17  282.97   30.60
  -2   0 -17  246.48   30.80
   2   0 -17  287.87   29.00
   2   0  17  222.38   28.30
   2  -1 -17  262.97   31.30
  -2   1 -17  258.87   31.40
   2   1 -17  262.87   31.30
   2  -1  17  258.37   29.40
  -2   2 -17   35.90   17.90
  -2  -2  17   86.29   16.60
   2  -2 -17   38.30   16.80
  -2  -2 -17   50.79   19.00
  -2   2  17   59.49   13.70
   2  -2  17   86.09   19.20
   2   2 -17   48.00   19.90
  -2  -3  17   60.59   15.40
   2  -3 -17   40.10   19.30
  -2   3 -17   54.59   20.10
  -2   3  17   38.40   13.80
   2  -3  17   52.09   16.70
  -2  -3 -17   79.69   22.70
   2   3 -17   60.69   21.90
  -2   4  17   23.70   14.10
  -3   0 -17    2.10   15.40
   3   0 -17    5.20   15.80
   3   0  17  -14.20   12.20
   3   0 -17    1.90   13.00
   3  -1 -17   16.20   15.10
  -3   1 -17    2.90   14.50
   3   1  17   19.10   13.70
   3   1 -17   27.00   16.80
   3  -1  17    7.30   13.50
  -3   1  17    5.50   11.80
   3  -2 -17  452.45   44.40
  -3   2 -17  456.85   48.70
  -3   2  17  488.15   41.70
   3   2 -17  521.95   47.50
   3  -2  17  525.05   44.50
  -3  -2 -17  522.25   48.00
   3  -3 -17  131.89   23.10
  -3   3 -17  150.58   30.40
  -3   3  17   84.79   17.90
   3   3 -17  151.48   24.70
   4   0  17   19.00   22.30
  -4   0 -17   12.40   17.60
  -4   1 -17  222.88   32.80
  -4   1  17  236.28   26.10
   4   1 -17  256.07   30.50
   4  -2 -17   45.70   22.50
  -4   2 -17   65.59   23.40
  -4   2  17  104.89   18.50
   4   2 -17   62.99   21.10
   4  -3 -17  178.88   27.40
  -4   3  17  184.88   24.40
  -5   0 -17   10.50   17.40
  -5   0  17   -4.20   13.20
  -5   1 -17   52.39   24.10
  -5   1  17   71.49   16.70
   5   1 -17   97.99   21.30
   5   2 -17  207.88   33.80
   0   1 -18  236.48   29.90
   0  -1 -18  219.08   30.00
   0  -1  18  257.47   28.40
   0  -2  18   36.00   15.20
   0   2 -18   55.49   18.90
   0  -3  18   60.09   18.40
  -1   0 -18  -11.70   23.60
   1   0  18    7.50   13.10
   1   0 -18  -11.30   14.50
   1  -1 -18  282.87   33.40
  -1   1 -18  356.06   35.80
  -1  -1  18  294.47   33.00
  -1  -1 -18  296.97   37.00
   1   1 -18  357.96   37.20
   1  -1  18  297.97   32.70
  -1  -2  18  156.18   22.00
  -1   2 -18  131.09   26.00
   1  -2 -18  115.09   22.80
   1  -2  18  137.89   21.70
   1   2 -18  110.49   23.40
  -1  -3  18  231.78   28.30
  -1  -4  18   77.89   20.60
  -2   0 -18  223.78   30.50
   2   0 -18  198.98   27.10
  -2   1 -18   74.79   21.80
   2  -1 -18   43.10   17.80
   2   1 -18   54.69   18.00
   2   1 -18   80.29   20.60
  -2   2 -18   12.10   17.00
   2  -2 -18    0.00   15.90
  -2  -2  18    4.90   13.40
   2   2 -18   12.40   18.50
  -3   0 -18    0.20   15.80
   3  -1 -18   47.80   16.30
  -3   1 -18   35.50   18.30
   3   1 -18   45.70   17.60
   3  -2 -18  130.09   24.90
   3   2 -18  156.08   27.20
  -4   0 -18   26.70   19.40
   4   1 -18   75.99   22.20
   0   1 -19   -6.80   17.70
  -1   1 -19   16.10   18.80
   1   1 -19   24.40   23.50

_computing_structure_solution     'SHELXT 2014/4 (Sheldrick, 2014)'
;
_shelx_hkl_checksum              58987
loop_
_space_group_symop_operation_xyz
'x, y, z'
'-x, -y, z+1/2'
'x+1/2, -y, z'
'-x+1/2, y, z+1/2'
loop_
_atom_site_label
_atom_site_type_symbol
_atom_site_fract_x
_atom_site_fract_y
_atom_site_fract_z
_atom_site_U_iso_or_equiv
_atom_site_adp_type
_atom_site_occupancy
_atom_site_site_symmetry_order
_atom_site_calc_flag
_atom_site_refinement_flags_posn
_atom_site_refinement_flags_adp
_atom_site_refinement_flags_occupancy
_atom_site_disorder_assembly
_atom_site_disorder_group
O8 O 0.6843(3) 0.4955(3) 0.0942(2) 0.0169(6) Uani 1 1 d . . . . .
B4 B 0.6893(4) 0.6731(5) 0.0653(3) 0.0103(7) Uani 1 1 d . . . . .
O7 O 0.5708(3) 0.5745(3) 0.25387(19) 0.0141(5) Uani 1 1 d . . . . .
O6 O 0.6524(3) 0.7971(3) 0.13511(18) 0.0115(5) Uani 1 1 d . . . . .
Rb2 Rb 0.80337(4) 0.36659(4) 0.38347(3) 0.02035(10) Uani 1 1 d . . . . .
Rb1 Rb 0.65971(4) 1.08481(6) 0.61611(3) 0.02292(10) Uani 1 1 d . . . . .
O4 O 0.7739(3) 0.7031(3) 0.46767(19) 0.0121(5) Uani 1 1 d . . . . .
O2 O 0.7276(3) 0.9954(3) 0.40538(18) 0.0117(5) Uani 1 1 d . . . . .
O3 O 0.5331(3) 0.8787(3) 0.29509(19) 0.0106(5) Uani 1 1 d . . . . .
O1 O 0.4865(3) 1.1246(3) 0.40680(18) 0.0110(5) Uani 1 1 d . . . . .
O5 O 0.7955(3) 0.7622(3) 0.29014(18) 0.0110(5) Uani 1 1 d . . . . .
O9 O 0.5516(3) 0.2847(3) 0.1866(2) 0.0217(6) Uani 1 1 d D . . . .
H9 H 0.477(4) 0.272(8) 0.224(4) 0.054(18) Uiso 1 1 d D . . . .
B1 B 0.5792(4) 0.9973(5) 0.3665(3) 0.0085(7) Uani 1 1 d . . . . .
B5 B 0.5985(5) 0.4545(5) 0.1808(3) 0.0129(8) Uani 1 1 d . . . . .
B2 B 0.8215(4) 0.8368(4) 0.3908(4) 0.0084(7) Uani 1 1 d . . . . .
B3 B 0.6433(4) 0.7550(5) 0.2462(3) 0.0107(7) Uani 1 1 d . . . . .
loop_
_atom_site_aniso_label
_atom_site_aniso_U_11
_atom_site_aniso_U_22
_atom_site_aniso_U_33
_atom_site_aniso_U_23
_atom_site_aniso_U_13
_atom_site_aniso_U_12
O8 0.0269(14) 0.0090(12) 0.0148(14) 0.0014(10) 0.0084(10) 0.0020(9)
B4 0.0077(16) 0.0107(18) 0.0126(18) 0.0015(14) -0.0008(14) -0.0002(13)
O7 0.0198(13) 0.0097(12) 0.0129(12) -0.0019(10) 0.0049(10) -0.0038(9)
O6 0.0182(11) 0.0076(11) 0.0087(13) -0.0007(9) -0.0013(9) 0.0007(9)
Rb2 0.02751(18) 0.01406(16) 0.01949(17) -0.00309(17) 0.00383(16) 0.00035(12)
Rb1 0.02114(17) 0.0280(2) 0.01959(18) -0.00222(18) 0.00243(17) 0.01050(14)
O4 0.0142(12) 0.0116(13) 0.0106(11) 0.0030(10) -0.0016(10) -0.0060(10)
O2 0.0082(11) 0.0097(11) 0.0172(14) -0.0041(9) -0.0029(9) 0.0000(8)
O3 0.0096(11) 0.0109(11) 0.0113(11) -0.0042(9) -0.0015(9) 0.0015(9)
O1 0.0079(11) 0.0105(11) 0.0146(13) -0.0033(9) -0.0006(9) 0.0005(9)
O5 0.0101(11) 0.0145(13) 0.0083(11) -0.0025(10) 0.0005(9) 0.0022(9)
O9 0.0289(16) 0.0127(13) 0.0234(15) -0.0035(11) 0.0136(12) -0.0049(11)
B1 0.0107(18) 0.0072(16) 0.0076(18) 0.0018(12) -0.0002(13) -0.0017(12)
B5 0.0152(19) 0.0118(18) 0.0118(18) 0.0020(14) 0.0014(15) 0.0028(15)
B2 0.0087(15) 0.0060(16) 0.0106(17) 0.0020(16) 0.0012(15) -0.0020(11)
B3 0.0133(19) 0.0104(19) 0.0083(16) -0.0013(14) 0.0013(14) 0.0004(14)
loop_
_atom_type_symbol
_atom_type_description
_atom_type_scat_dispersion_real
_atom_type_scat_dispersion_imag
_atom_type_scat_source
H H 0.0000 0.0000 'International Tables Vol C Tables 4.2.6.8 and 6.1.1.4'
B B 0.0013 0.0007 'International Tables Vol C Tables 4.2.6.8 and 6.1.1.4'
O O 0.0106 0.0060 'International Tables Vol C Tables 4.2.6.8 and 6.1.1.4'
Rb Rb -0.9393 2.9676 'International Tables Vol C Tables 4.2.6.8 and 6.1.1.4'
loop_
_geom_angle_atom_site_label_1
_geom_angle_atom_site_label_2
_geom_angle_atom_site_label_3
_geom_angle
_geom_angle_site_symmetry_1
_geom_angle_site_symmetry_3
_geom_angle_publ_flag
B5 O8 B4 116.9(3) . . ?
B5 O8 Rb2 135.5(2) . 4_654 ?
B4 O8 Rb2 93.8(2) . 4_654 ?
B5 O8 Rb1 86.2(2) . 4_644 ?
B4 O8 Rb1 153.2(2) . 4_644 ?
Rb2 O8 Rb1 76.03(6) 4_654 4_644 ?
O4 B4 O6 125.6(3) 4_654 . ?
O4 B4 O8 115.5(3) 4_654 . ?
O6 B4 O8 118.9(3) . . ?
O4 B4 Rb2 55.38(18) 4_654 4_654 ?
O6 B4 Rb2 167.4(2) . 4_654 ?
O8 B4 Rb2 61.31(18) . 4_654 ?
O4 B4 Rb1 86.6(2) 4_654 4_654 ?
O6 B4 Rb1 47.48(16) . 4_654 ?
O8 B4 Rb1 146.3(2) . 4_654 ?
Rb2 B4 Rb1 139.90(12) 4_654 4_654 ?
O4 B4 Rb1 106.7(2) 4_654 2_674 ?
O6 B4 Rb1 47.04(16) . 2_674 ?
O8 B4 Rb1 114.8(2) . 2_674 ?
Rb2 B4 Rb1 120.60(11) 4_654 2_674 ?
Rb1 B4 Rb1 79.07(8) 4_654 2_674 ?
B5 O7 B3 119.9(3) . . ?
B5 O7 Rb2 131.6(2) . 3_465 ?
B3 O7 Rb2 102.97(18) . 3_465 ?
B5 O7 Rb2 85.9(2) . . ?
B3 O7 Rb2 103.82(18) . . ?
Rb2 O7 Rb2 105.75(8) 3_465 . ?
B4 O6 B3 121.5(3) . . ?
B4 O6 Rb1 111.1(2) . 4_654 ?
B3 O6 Rb1 106.99(18) . 4_654 ?
B4 O6 Rb1 112.5(2) . 2_674 ?
B3 O6 Rb1 95.97(18) . 2_674 ?
Rb1 O6 Rb1 107.15(8) 4_654 2_674 ?
O4 Rb2 O7 99.29(7) . 3_565 ?
O4 Rb2 O2 145.90(7) . 1_545 ?
O7 Rb2 O2 112.68(7) 3_565 1_545 ?
O4 Rb2 O8 47.64(7) . 4_655 ?
O7 Rb2 O8 118.24(7) 3_565 4_655 ?
O2 Rb2 O8 103.87(7) 1_545 4_655 ?
O4 Rb2 O3 142.52(7) . 3_565 ?
O7 Rb2 O3 48.50(6) 3_565 3_565 ?
O2 Rb2 O3 64.79(7) 1_545 3_565 ?
O8 Rb2 O3 123.86(7) 4_655 3_565 ?
O4 Rb2 O7 71.74(7) . . ?
O7 Rb2 O7 96.37(6) 3_565 . ?
O2 Rb2 O7 114.26(7) 1_545 . ?
O8 Rb2 O7 111.90(7) 4_655 . ?
O3 Rb2 O7 122.99(7) 3_565 . ?
O4 Rb2 O5 45.50(6) . . ?
O7 Rb2 O5 69.61(6) 3_565 . ?
O2 Rb2 O5 158.56(6) 1_545 . ?
O8 Rb2 O5 92.59(7) 4_655 . ?
O3 Rb2 O5 116.89(6) 3_565 . ?
O7 Rb2 O5 45.47(6) . . ?
O4 Rb2 B5 94.86(9) . . ?
O7 Rb2 B5 85.24(9) 3_565 . ?
O2 Rb2 B5 99.17(9) 1_545 . ?
O8 Rb2 B5 135.99(9) 4_655 . ?
O3 Rb2 B5 99.81(9) 3_565 . ?
O7 Rb2 B5 24.34(8) . . ?
O5 Rb2 B5 59.42(8) . . ?
O4 Rb2 O1 113.58(6) . 1_545 ?
O7 Rb2 O1 142.70(7) 3_565 1_545 ?
O2 Rb2 O1 42.71(6) 1_545 1_545 ?
O8 Rb2 O1 97.42(7) 4_655 1_545 ?
O3 Rb2 O1 103.48(6) 3_565 1_545 ?
O7 Rb2 O1 78.66(6) . 1_545 ?
O5 Rb2 O1 122.36(6) . 1_545 ?
B5 Rb2 O1 75.25(8) . 1_545 ?
O4 Rb2 B4 23.14(9) . 4_655 ?
O7 Rb2 B4 107.25(8) 3_565 4_655 ?
O2 Rb2 B4 127.74(8) 1_545 4_655 ?
O8 Rb2 B4 24.85(8) 4_655 4_655 ?
O3 Rb2 B4 135.27(8) 3_565 4_655 ?
O7 Rb2 B4 92.69(8) . 4_655 ?
O5 Rb2 B4 67.74(8) . 4_655 ?
B5 Rb2 B4 116.70(10) . 4_655 ?
O1 Rb2 B4 109.88(8) 1_545 4_655 ?
O4 Rb2 B1 136.74(8) . 1_545 ?
O7 Rb2 B1 122.45(8) 3_565 1_545 ?
O2 Rb2 B1 23.36(8) 1_545 1_545 ?
O8 Rb2 B1 110.94(8) 4_655 1_545 ?
O3 Rb2 B1 80.17(8) 3_565 1_545 ?
O7 Rb2 B1 91.29(8) . 1_545 ?
O5 Rb2 B1 136.61(7) . 1_545 ?
B5 Rb2 B1 79.15(9) . 1_545 ?
O1 Rb2 B1 23.31(7) 1_545 1_545 ?
B4 Rb2 B1 129.30(9) 4_655 1_545 ?
O4 Rb2 O9 114.00(7) . . ?
O7 Rb2 O9 94.93(7) 3_565 . ?
O2 Rb2 O9 75.93(7) 1_545 . ?
O8 Rb2 O9 142.54(7) 4_655 . ?
O3 Rb2 O9 90.58(7) 3_565 . ?
O7 Rb2 O9 42.65(7) . . ?
O5 Rb2 O9 82.64(6) . . ?
B5 Rb2 O9 23.25(9) . . ?
O1 Rb2 O9 56.50(6) 1_545 . ?
B4 Rb2 O9 132.69(8) 4_655 . ?
B1 Rb2 O9 56.31(8) 1_545 . ?
O6 Rb1 O6 143.48(6) 4_655 2_675 ?
O6 Rb1 O3 109.97(7) 4_655 2_675 ?
O6 Rb1 O3 49.94(7) 2_675 2_675 ?
O6 Rb1 O2 77.32(7) 4_655 . ?
O6 Rb1 O2 110.31(7) 2_675 . ?
O3 Rb1 O2 155.70(7) 2_675 . ?
O6 Rb1 O9 83.90(7) 4_655 4_665 ?
O6 Rb1 O9 125.57(7) 2_675 4_665 ?
O3 Rb1 O9 99.85(8) 2_675 4_665 ?
O2 Rb1 O9 104.03(7) . 4_665 ?
O6 Rb1 O1 115.91(7) 4_655 . ?
O6 Rb1 O1 66.34(6) 2_675 . ?
O3 Rb1 O1 115.52(7) 2_675 . ?
O2 Rb1 O1 44.37(6) . . ?
O9 Rb1 O1 126.99(7) 4_665 . ?
O6 Rb1 B3 134.89(8) 4_655 2_675 ?
O6 Rb1 B3 26.41(8) 2_675 2_675 ?
O3 Rb1 B3 26.23(8) 2_675 2_675 ?
O2 Rb1 B3 136.68(8) . 2_675 ?
O9 Rb1 B3 107.14(9) 4_665 2_675 ?
O1 Rb1 B3 92.46(8) . 2_675 ?
O6 Rb1 O5 44.54(6) 4_655 4_655 ?
O6 Rb1 O5 106.20(6) 2_675 4_655 ?
O3 Rb1 O5 65.51(6) 2_675 4_655 ?
O2 Rb1 O5 116.73(6) . 4_655 ?
O9 Rb1 O5 93.79(7) 4_665 4_655 ?
O1 Rb1 O5 135.73(6) . 4_655 ?
B3 Rb1 O5 90.53(8) 2_675 4_655 ?
O6 Rb1 B1 92.88(8) 4_655 . ?
O6 Rb1 B1 87.42(8) 2_675 . ?
O3 Rb1 B1 133.10(8) 2_675 . ?
O2 Rb1 B1 23.37(8) . . ?
O9 Rb1 B1 123.55(8) 4_665 . ?
O1 Rb1 B1 23.51(7) . . ?
B3 Rb1 B1 113.81(9) 2_675 . ?
O5 Rb1 B1 121.98(7) 4_655 . ?
O6 Rb1 O8 120.75(7) 4_655 4_665 ?
O6 Rb1 O8 94.99(6) 2_675 4_665 ?
O3 Rb1 O8 101.83(7) 2_675 4_665 ?
O2 Rb1 O8 93.21(7) . 4_665 ?
O9 Rb1 O8 41.41(6) 4_665 4_665 ?
O1 Rb1 O8 91.35(6) . 4_665 ?
B3 Rb1 O8 90.77(8) 2_675 4_665 ?
O5 Rb1 O8 132.78(6) 4_655 4_665 ?
B1 Rb1 O8 100.24(7) . 4_665 ?
O6 Rb1 B4 21.41(8) 4_655 4_655 ?
O6 Rb1 B4 131.17(8) 2_675 4_655 ?
O3 Rb1 B4 117.32(8) 2_675 4_655 ?
O2 Rb1 B4 61.91(8) . 4_655 ?
O9 Rb1 B4 101.94(8) 4_665 4_655 ?
O1 Rb1 B4 95.54(8) . 4_655 ?
B3 Rb1 B4 136.16(9) 2_675 4_655 ?
O5 Rb1 B4 55.07(8) 4_655 4_655 ?
B1 Rb1 B4 73.37(9) . 4_655 ?
O8 Rb1 B4 131.90(8) 4_665 4_655 ?
O6 Rb1 O9 68.52(7) 4_655 2_665 ?
O6 Rb1 O9 74.97(7) 2_675 2_665 ?
O3 Rb1 O9 64.04(7) 2_675 2_665 ?
O2 Rb1 O9 99.67(7) . 2_665 ?
O9 Rb1 O9 138.39(9) 4_665 2_665 ?
O1 Rb1 O9 93.66(6) . 2_665 ?
B3 Rb1 O9 75.75(8) 2_675 2_665 ?
O5 Rb1 O9 44.74(6) 4_655 2_665 ?
B1 Rb1 O9 89.50(8) . 2_665 ?
O8 Rb1 O9 165.79(7) 4_665 2_665 ?
B4 Rb1 O9 60.79(8) 4_655 2_665 ?
B4 O4 B2 134.4(3) 4_655 . ?
B4 O4 Rb2 101.5(2) 4_655 . ?
B2 O4 Rb2 109.5(2) . . ?
B4 O4 Rb1 71.8(2) 4_655 . ?
B2 O4 Rb1 83.64(19) . . ?
Rb2 O4 Rb1 165.31(9) . . ?
B1 O2 B2 118.1(2) . . ?
B1 O2 Rb1 99.5(2) . . ?
B2 O2 Rb1 115.3(2) . . ?
B1 O2 Rb2 99.23(17) . 1_565 ?
B2 O2 Rb2 131.63(19) . 1_565 ?
Rb1 O2 Rb2 84.91(6) . 1_565 ?
B1 O3 B3 122.4(3) . . ?
B1 O3 Rb1 131.5(2) . 2_674 ?
B3 O3 Rb1 94.32(19) . 2_674 ?
B1 O3 Rb2 110.1(2) . 3_465 ?
B3 O3 Rb2 101.15(19) . 3_465 ?
Rb1 O3 Rb2 89.85(7) 2_674 3_465 ?
B1 O1 B2 130.8(3) . 3_475 ?
B1 O1 Rb1 89.68(19) . . ?
B2 O1 Rb1 127.2(2) 3_475 . ?
B1 O1 Rb2 83.14(18) . 1_565 ?
B2 O1 Rb2 132.30(18) 3_475 1_565 ?
Rb1 O1 Rb2 75.20(5) . 1_565 ?
B3 O5 B2 121.4(3) . . ?
B3 O5 Rb2 97.74(19) . . ?
B2 O5 Rb2 90.98(18) . . ?
B3 O5 Rb1 81.94(19) . 4_654 ?
B2 O5 Rb1 108.18(19) . 4_654 ?
Rb2 O5 Rb1 157.86(8) . 4_654 ?
B5 O9 Rb1 102.6(2) . 4_644 ?
B5 O9 Rb2 71.4(2) . . ?
Rb1 O9 Rb2 78.88(7) 4_644 . ?
B5 O9 Rb1 155.9(2) . 2_664 ?
Rb1 O9 Rb1 86.49(6) 4_644 2_664 ?
Rb2 O9 Rb1 132.66(9) . 2_664 ?
B5 O9 H9 112(4) . . ?
Rb1 O9 H9 140(4) 4_644 . ?
Rb2 O9 H9 94(4) . . ?
Rb1 O9 H9 70(4) 2_664 . ?
O3 B1 O1 124.8(3) . . ?
O3 B1 O2 121.3(3) . . ?
O1 B1 O2 113.9(3) . . ?
O3 B1 Rb1 148.1(2) . . ?
O1 B1 Rb1 66.80(18) . . ?
O2 B1 Rb1 57.11(17) . . ?
O3 B1 Rb2 139.1(2) . 1_565 ?
O1 B1 Rb2 73.55(17) . 1_565 ?
O2 B1 Rb2 57.40(14) . 1_565 ?
Rb1 B1 Rb2 70.26(7) . 1_565 ?
O3 B1 Rb2 49.39(16) . 3_465 ?
O1 B1 Rb2 97.96(19) . 3_465 ?
O2 B1 Rb2 124.8(2) . 3_465 ?
Rb1 B1 Rb2 102.77(9) . 3_465 ?
Rb2 B1 Rb2 170.51(12) 1_565 3_465 ?
O7 B5 O9 123.8(3) . . ?
O7 B5 O8 121.5(3) . . ?
O9 B5 O8 114.6(3) . . ?
O7 B5 Rb2 69.8(2) . . ?
O9 B5 Rb2 85.3(2) . . ?
O8 B5 Rb2 115.3(2) . . ?
O7 B5 Rb1 143.3(3) . 4_644 ?
O9 B5 Rb1 55.81(19) . 4_644 ?
O8 B5 Rb1 71.17(19) . 4_644 ?
Rb2 B5 Rb1 73.75(8) . 4_644 ?
O5 B2 O1 110.9(3) . 3_575 ?
O5 B2 O2 110.8(3) . . ?
O1 B2 O2 110.4(3) 3_575 . ?
O5 B2 O4 107.7(3) . . ?
O1 B2 O4 107.9(3) 3_575 . ?
O2 B2 O4 109.0(3) . . ?
O5 B2 Rb2 65.10(16) . . ?
O1 B2 Rb2 104.28(18) 3_575 . ?
O2 B2 Rb2 143.5(2) . . ?
O4 B2 Rb2 47.44(15) . . ?
O5 B2 Rb1 148.2(2) . . ?
O1 B2 Rb1 98.3(2) 3_575 . ?
O2 B2 Rb1 44.14(18) . . ?
O4 B2 Rb1 73.2(2) . . ?
Rb2 B2 Rb1 120.36(11) . . ?
O5 B3 O3 112.6(3) . . ?
O5 B3 O6 109.7(3) . . ?
O3 B3 O6 108.6(3) . . ?
O5 B3 O7 112.6(3) . . ?
O3 B3 O7 106.7(3) . . ?
O6 B3 O7 106.3(3) . . ?
O5 B3 Rb1 154.6(2) . 2_674 ?
O3 B3 Rb1 59.45(16) . 2_674 ?
O6 B3 Rb1 57.62(15) . 2_674 ?
O7 B3 Rb1 92.63(19) . 2_674 ?
O5 B3 Rb1 74.04(18) . 4_654 ?
O3 B3 Rb1 93.61(19) . 4_654 ?
O6 B3 Rb1 48.74(15) . 4_654 ?
O7 B3 Rb1 152.8(2) . 4_654 ?
Rb1 B3 Rb1 82.18(9) 2_674 4_654 ?
O5 B3 Rb2 123.8(2) . 3_465 ?
O3 B3 Rb2 54.70(15) . 3_465 ?
O6 B3 Rb2 126.4(2) . 3_465 ?
O7 B3 Rb2 52.51(15) . 3_465 ?
Rb1 B3 Rb2 73.43(7) 2_674 3_465 ?
Rb1 B3 Rb2 146.83(12) 4_654 3_465 ?
O5 B3 Rb2 59.92(17) . . ?
O3 B3 Rb2 122.1(2) . . ?
O6 B3 Rb2 128.5(2) . . ?
O7 B3 Rb2 52.97(15) . . ?
Rb1 B3 Rb2 145.47(12) 2_674 . ?
Rb1 B3 Rb2 129.17(11) 4_654 . ?
Rb2 B3 Rb2 81.43(8) 3_465 . ?
loop_
_geom_bond_atom_site_label_1
_geom_bond_atom_site_label_2
_geom_bond_distance
_geom_bond_site_symmetry_2
_geom_bond_publ_flag
O8 B5 1.391(5) . ?
O8 B4 1.408(5) . ?
O8 Rb2 2.939(3) 4_654 ?
O8 Rb1 3.419(3) 4_644 ?
B4 O4 1.340(5) 4_654 ?
B4 O6 1.355(5) . ?
B4 Rb2 3.342(4) 4_654 ?
B4 Rb1 3.463(4) 4_654 ?
B4 Rb1 3.585(4) 2_674 ?
O7 B5 1.347(5) . ?
O7 B3 1.514(4) . ?
O7 Rb2 2.895(2) 3_465 ?
O7 Rb2 3.067(3) . ?
O6 B3 1.496(5) . ?
O6 Rb1 2.736(2) 4_654 ?
O6 Rb1 2.841(2) 2_674 ?
Rb2 O4 2.807(3) . ?
Rb2 O2 2.919(2) 1_545 ?
Rb2 O3 2.957(3) 3_565 ?
Rb2 O5 3.258(3) . ?
Rb2 B5 3.261(4) . ?
Rb2 O1 3.304(2) 1_545 ?
Rb2 B1 3.420(3) 1_545 ?
Rb2 O9 3.428(3) . ?
Rb1 O3 2.889(3) 2_675 ?
Rb1 O2 2.909(2) . ?
Rb1 O9 3.056(3) 4_665 ?
Rb1 O1 3.141(2) . ?
Rb1 B3 3.345(4) 2_675 ?
Rb1 O5 3.380(3) 4_655 ?
Rb1 B1 3.417(4) . ?
Rb1 O9 3.479(3) 2_665 ?
O4 B2 1.492(5) . ?
O2 B1 1.374(5) . ?
O2 B2 1.467(4) . ?
O3 B1 1.361(4) . ?
O3 B3 1.483(4) . ?
O1 B1 1.363(4) . ?
O1 B2 1.463(4) 3_475 ?
O5 B3 1.431(4) . ?
O5 B2 1.457(5) . ?
O9 B5 1.358(5) . ?
O9 H9 0.818(14) . ?
