#------------------------------------------------------------------------------
#$Date: 2021-11-06 21:52:03 +0200 (Sat, 06 Nov 2021) $
#$Revision: 270431 $
#$URL: file:///home/coder/svn-repositories/cod/cif/7/24/35/7243514.cif $
#------------------------------------------------------------------------------
#
# This file is available in the Crystallography Open Database (COD),
# http://www.crystallography.net/
#
# All data on this site have been placed in the public domain by the
# contributors.
#
data_7243514
loop_
_publ_author_name
'Zou, Yan-Min'
'Lan, Xiao-Yun'
'Ma, Wen'
'Jin, Jian-Ce'
'Sun, Hai-Yan'
'Li, Ji-Long'
'Feng, Mei-Ling'
'Huang, Xiao-Ying'
_publ_section_title
;
 Towards new cesium containing manganese vanadates via a precursor method
;
_journal_issue                   39
_journal_name_full               CrystEngComm
_journal_page_first              6909
_journal_page_last               6914
_journal_paper_doi               10.1039/D1CE00921D
_journal_volume                  23
_journal_year                    2021
_chemical_formula_sum            'Cs H2 Mn O10 V3'
_chemical_formula_weight         502.69
_space_group_crystal_system      orthorhombic
_space_group_IT_number           57
_space_group_name_Hall           '-P 2c 2b'
_space_group_name_H-M_alt        'P b c m'
_atom_sites_solution_hydrogens   difmap
_audit_creation_method           SHELXL-2018/3
_audit_update_record
;
2021-07-13 deposited with the CCDC.	2021-08-19 downloaded from the CCDC.
;
_cell_angle_alpha                90
_cell_angle_beta                 90
_cell_angle_gamma                90
_cell_formula_units_Z            4
_cell_length_a                   6.869(3)
_cell_length_b                   9.873(4)
_cell_length_c                   15.041(6)
_cell_measurement_reflns_used    2384
_cell_measurement_temperature    293(2)
_cell_measurement_theta_max      27.5087
_cell_measurement_theta_min      2.2546
_cell_volume                     1020.0(7)
_computing_structure_refinement  'SHELXL-2018/3 (Sheldrick, 2018)'
_diffrn_ambient_temperature      293(2)
_diffrn_measured_fraction_theta_full 0.999
_diffrn_measured_fraction_theta_max 0.999
_diffrn_measurement_device_type  'Saturn724+ (2x2 bin mode)'
_diffrn_radiation_type           MoK\a
_diffrn_radiation_wavelength     0.71073
_diffrn_reflns_av_R_equivalents  0.0484
_diffrn_reflns_av_unetI/netI     0.0253
_diffrn_reflns_Laue_measured_fraction_full 0.999
_diffrn_reflns_Laue_measured_fraction_max 0.999
_diffrn_reflns_limit_h_max       8
_diffrn_reflns_limit_h_min       -8
_diffrn_reflns_limit_k_max       12
_diffrn_reflns_limit_k_min       -12
_diffrn_reflns_limit_l_max       19
_diffrn_reflns_limit_l_min       -19
_diffrn_reflns_number            7393
_diffrn_reflns_point_group_measured_fraction_full 0.999
_diffrn_reflns_point_group_measured_fraction_max 0.999
_diffrn_reflns_theta_full        25.242
_diffrn_reflns_theta_max         27.477
_diffrn_reflns_theta_min         2.708
_exptl_absorpt_coefficient_mu    7.422
_exptl_absorpt_correction_T_max  1.0000
_exptl_absorpt_correction_T_min  0.6092
_exptl_absorpt_correction_type   multi-scan
_exptl_crystal_colour            dark-red
_exptl_crystal_density_diffrn    3.273
_exptl_crystal_description       block
_exptl_crystal_F_000             924
_refine_diff_density_max         0.967
_refine_diff_density_min         -0.601
_refine_diff_density_rms         0.124
_refine_ls_extinction_method     none
_refine_ls_goodness_of_fit_ref   1.005
_refine_ls_hydrogen_treatment    refxyz
_refine_ls_matrix_type           full
_refine_ls_number_parameters     78
_refine_ls_number_reflns         1216
_refine_ls_number_restraints     1
_refine_ls_restrained_S_all      1.005
_refine_ls_R_factor_all          0.0219
_refine_ls_R_factor_gt           0.0191
_refine_ls_shift/su_max          0.000
_refine_ls_shift/su_mean         0.000
_refine_ls_structure_factor_coef Fsqd
_refine_ls_weighting_details
'w=1/[\s^2^(Fo^2^)+(0.0325P)^2^] where P=(Fo^2^+2Fc^2^)/3'
_refine_ls_weighting_scheme      calc
_refine_ls_wR_factor_gt          0.0501
_refine_ls_wR_factor_ref         0.0517
_reflns_Friedel_coverage         0.000
_reflns_number_gt                1161
_reflns_number_total             1216
_reflns_threshold_expression     'I > 2\s(I)'
_cod_data_source_file            d1ce00921d2.cif
_cod_data_source_block           x
_cod_depositor_comments
;
The following automatic conversions were performed:

data item '_exptl_absorpt_correction_type' value 'Multi-scan' was
changed to 'multi-scan' in accordance with the
/home/data/users/saulius/crontab/automatic-downloads/rss-feeds/RSC/lib/dictionaries/cif_core.dic
dictionary named 'cif_core.dic' version 2.4.2 last updated on
2011-04-26.

Automatic conversion script
Id: cif_fix_values 7556 2019-12-06 15:28:31Z antanas 

 Adding full bibliography for 7243514--7243515.cif.
;
_cod_database_code               7243514
_shelx_shelxl_version_number     2018/3
_shelx_space_group_comment
;
The symmetry employed for this shelxl refinement is uniquely defined
by the following loop, which should always be used as a source of
symmetry information in preference to the above space-group names.
They are only intended as comments.
;
_shelx_res_file
;
TITL x in Pca2(1)                           New:Pbcm
    x.res
    created by SHELXL-2018/3 at 13:47:08 on 22-Jan-2021
CELL  0.71073    6.8690    9.8730   15.0410    90.000    90.000    90.000
ZERR        4    0.0030    0.0040    0.0060     0.000     0.000     0.000
LATT   1
SYMM             - X ,            - Y ,    0.50000 + Z
SYMM               X ,    0.50000 - Y ,            - Z
SYMM             - X ,    0.50000 + Y ,    0.50000 - Z
SFAC   H Cs  Mn  O  V
UNIT     8 4 4 40 12
L.S. 45
FMAP 2
PLAN 10
ACTA
CONF
temp 20
BOND $H
dfix 0.82 0.01 o1w h1
htab

REM Instructions for potential hydrogen bonds
EQIV $15 -x, y+1/2, -z+1/2
HTAB O1W O2_$15
EQIV $6 x, y, -z+1/2
HTAB O1W O5_$6
WGHT    0.032500
FVAR       0.23349
MN1   3    0.500000    0.500000    0.000000    10.50000    0.00750    0.00575 =
         0.00788   -0.00007   -0.00072    0.00032
V1    5   -0.256046    0.240330    0.133310    11.00000    0.00645    0.00598 =
         0.00625    0.00014   -0.00014   -0.00014
V2    5    0.120445    0.250000    0.000000    10.50000    0.00655    0.00695 =
         0.00800    0.00121    0.00000    0.00000
O1    4   -0.027418    0.187391    0.090412    11.00000    0.00886    0.01194 =
         0.00997    0.00081    0.00139    0.00049
O2    4   -0.423483    0.123373    0.113975    11.00000    0.01137    0.01148 =
         0.01165   -0.00345    0.00050   -0.00334
O3    4   -0.230386    0.266449    0.250000    10.50000    0.01550    0.01415 =
         0.00651    0.00000    0.00000   -0.00279
O4    4   -0.318778    0.385180    0.087013    11.00000    0.01393    0.00959 =
         0.01153    0.00170   -0.00195    0.00264
O5    4    0.259671    0.373981    0.034873    11.00000    0.01268    0.01348 =
         0.01405    0.00093   -0.00278   -0.00405
CS1   2    0.223957    0.092459    0.250000    10.50000    0.01351    0.01136 =
         0.01087    0.00000    0.00000    0.00218
O1W   4    0.222159    0.412302    0.250000    10.50000    0.06369    0.02457 =
         0.02950    0.00000    0.00000   -0.01474
H1    1    0.273524    0.435632    0.296392    11.00000   -1.50000

HKLF 4 1 0.0000 1.0000 0.0000 -1.0000 0.0000 0.0000 0.0000 0.0000 1.0000




REM  x in Pca2(1)                           New:Pbcm
REM wR2 = 0.0517, GooF = S = 1.005, Restrained GooF = 1.005 for all data
REM R1 = 0.0191 for 1161 Fo > 4sig(Fo) and 0.0219 for all 1216 data
REM 78 parameters refined using 1 restraints

END

WGHT      0.0249      0.0000

REM Instructions for potential hydrogen bonds
HTAB O1W O2_$15
HTAB O1W O5_$6

REM Highest difference peak  0.967,  deepest hole -0.601,  1-sigma level  0.124
Q1    1   0.3307  0.0877  0.2500  10.50000  0.05    0.97
Q2    1   0.0898  0.0887  0.2500  10.50000  0.05    0.65
Q3    1   0.0000  0.5000  0.0000  10.50000  0.05    0.56
Q4    1  -0.1204  0.1989  0.0753  11.00000  0.05    0.49
Q5    1   0.5251  0.4192  0.2500  10.50000  0.05    0.47
Q6    1   0.4099  0.1586  0.2500  10.50000  0.05    0.45
Q7    1  -0.2200  0.2333  0.2500  10.50000  0.05    0.44
Q8    1   0.0433 -0.0250  0.2500  10.50000  0.05    0.43
Q9    1   0.2789  0.3439  0.0686  11.00000  0.05    0.42
Q10   1  -0.0047  0.1629  0.1102  11.00000  0.05    0.42
;
_shelx_res_checksum              6283
_shelx_hkl_file
;
   0   0   2    7.27    3.01
   0   0   2    5.67    1.41
   0   0   2    5.69    0.78
   0   0   3   -0.05    0.81
   0   0  -3    0.73    0.68
   0   0   3    0.71    1.19
   0   0  -3    1.88    1.18
   0   0   3    0.41    0.83
   0   0  -3    0.27    0.78
   0   0   4 1604.31   15.28
   0   0   4 1647.90   12.68
   0   0   5    1.60    1.32
   0   0   5    0.34    1.07
   0   0   5    0.09    1.03
   0   0   6  848.27   19.16
   0   0   6  855.97   13.03
   0   0   6  885.36   11.21
   0   0   7    2.83    2.31
   0   0   7    2.18    1.09
   0   0   7    0.19    1.07
   0   0   8 9378.53   44.44
   0   0   9    1.85    1.48
   0   0   9    2.34    2.10
   0   0  10  167.05    9.95
   0   0  10  170.82    7.21
   0   0  11    0.93    2.93
   0   0  11    0.54    0.81
   0   0  12 1431.53   28.92
   0   0  12 1409.07   23.75
   0   0  13    3.06    4.18
   0   0  13    1.07    1.56
   0   0  14   12.08    4.64
   0   0  14    8.09    4.22
   0   0  15   -0.22    3.43
   0   0  15    0.74    2.64
   0   0  16 1790.48   56.14
   0   0  16 1873.51   29.96
   0   0  17    0.74    1.71
   0   0  18  453.42   20.95
   1   0  19    1.39    2.61
   1   0  18    3.93    3.53
   1   0  17    0.84    1.97
   1   0  16    3.26    3.95
   1   0  15    1.13    2.08
   1   0  15    0.13    1.18
   1   0  14    0.72    2.91
   1   0  14    0.35    1.31
   1   0  13    1.42    1.93
   1   0  13    1.04    1.39
   1   0  12    1.45    4.37
   1   0  12    0.45    0.87
   1   0  11    1.58    4.22
   1   0  11    0.58    0.95
   1   0  10    1.72    3.02
   1   0  10    1.99    1.50
   1   0   9    1.39    1.47
   1   0   9    0.12    0.92
   1   0   7    2.01    2.98
   1   0   7    0.57    1.11
   1   0   6    1.85    2.83
   1   0   6    0.39    0.93
   1   0   5    1.85    1.91
   1   0   5    0.11    0.99
  -1   0  -5    0.21    0.59
   1   0   4    0.93    1.57
  -1   0  -4    0.25    0.56
   1   0   3    1.01    1.34
   1   0   3    0.90    0.81
  -1   0  -3    0.69    0.64
   1   0   2    1.27    0.93
  -1   0  -2    0.54    1.01
   1   0   1    0.02    0.72
  -1   0  -1    0.01    0.10
   1   0   0    3.62    0.58
  -1   0   0    0.21    0.37
   1   0  -1    1.21    1.04
  -1   0   1    0.00    0.62
   1   0  -2    0.68    1.53
  -1   0   2    0.14    1.18
   1   0  -2    0.39    0.75
  -1   0   2    0.57    0.96
   1   0  -3    2.55    1.93
  -1   0   3    1.34    1.71
  -1   0   3    1.34    0.86
   1   0  -3    1.28    0.68
  -1   0   4    4.20    2.44
  -1   0   4    2.32    2.18
  -1   0   4    1.53    1.17
   1   0  -4    0.83    0.73
  -1   0   5    1.26    1.04
  -1   0   5    0.29    1.72
  -1   0   5    1.47    1.01
  -1   0   6    1.21    1.00
  -1   0   6    0.81    1.21
  -1   0   6    0.55    1.28
  -1   0   7    0.48    1.98
  -1   0   7    1.18    1.90
  -1   0   7    0.88    1.88
  -1   0   8    0.28    1.71
  -1   0   8    0.79    1.14
  -1   0   9    2.47    2.41
  -1   0   9    1.18    2.16
  -1   0   9    1.42    2.07
  -1   0  10    1.48    1.62
  -1   0  10    0.89    1.59
  -1   0  10    0.45    0.98
  -1   0  11    1.19    2.15
  -1   0  11    1.56    1.72
  -1   0  12    1.16    2.48
  -1   0  12    0.34    1.12
  -1   0  12    0.67    1.63
  -1   0  13    1.88    2.53
  -1   0  13    0.78    1.84
  -1   0  14    3.00    2.64
  -1   0  14    1.92    2.64
  -1   0  15    1.20    2.15
   1   0 -16    3.99    3.87
  -1   0  16    0.78    1.78
   1   0 -17    2.65    3.44
  -1   0  17    1.25    1.55
   1   0 -18    2.76    4.73
   1   0 -19    1.90    3.58
   2   0  19  100.72   13.79
   2   0  18   41.90   23.78
   2   0  17  332.01   17.22
   2   0  16    9.92    4.60
   2   0  15  484.98   23.34
   2   0  14  340.60   17.32
   2   0  13  300.74   17.51
   2   0  13  287.94   10.96
   2   0  12  545.80   23.07
   2   0  12  547.33   12.84
   2   0  11  364.19   17.63
   2   0  11  381.43    9.18
   2   0  10    2.46    3.72
   2   0  10    0.51    1.19
   2   0   9  552.76   24.00
   2   0   9  672.20   11.78
   2   0   8   98.07    7.56
   2   0   8  103.81    5.21
   2   0   7 2054.07   13.31
  -2   0  -7 1987.26   12.49
   2   0   6  192.37    7.89
   2   0   6  180.57    4.88
  -2   0  -6  181.00    4.27
   2   0   5  126.78    5.91
   2   0   5  129.81    2.74
  -2   0  -5  134.08    2.32
   2   0   4 2653.25   20.43
   2   0   3  996.47   11.84
   2   0   2  150.06    4.39
   2   0   1 1832.18   13.37
   2   0   0  829.56    8.90
  -2   0   0  812.20    8.07
   2   0  -1 1828.42   13.56
  -2   0   1 1843.98   13.90
   2   0  -2  158.47    4.75
  -2   0   2  156.10    5.71
   2   0  -3  981.14   11.99
  -2   0   3 1023.24   13.05
   2   0  -4 2701.92   21.04
  -2   0   4 2762.92   17.74
   2   0  -5  128.81    5.99
  -2   0   5  143.78    6.13
  -2   0   5  123.69    5.67
   2   0  -6  193.46    7.86
  -2   0   6  194.42    7.71
  -2   0   6  195.57    6.40
   2   0  -7 2064.67   23.72
  -2   0   7 2161.48   23.52
  -2   0   7 2206.47   20.09
   2   0  -8  109.99    6.31
  -2   0   8  110.18   10.42
  -2   0   8  106.20    5.40
   2   0  -9  667.29   17.13
  -2   0   9  645.08   16.07
  -2   0   9  611.60   15.63
   2   0 -10    1.37    2.18
  -2   0  10    1.43    1.40
  -2   0  10    1.31    2.10
   2   0 -11  376.75   13.72
  -2   0  11  376.97   12.78
  -2   0  11  394.05   13.71
   2   0 -12  542.11   17.77
  -2   0  12  530.32   17.54
  -2   0  12  593.86   16.06
   2   0 -13  320.54   14.87
  -2   0  13  303.45   26.39
  -2   0  13  325.26   10.95
   2   0 -14  311.66   16.00
  -2   0  14  315.93   15.05
  -2   0  14  312.58   12.50
  -2   0  15  485.70   20.77
   2   0 -16    0.67    3.34
  -2   0  16    2.23    2.60
   2   0 -17  291.91   14.71
  -2   0  17  291.59   21.89
   2   0 -18   43.83    8.98
  -2   0  18   35.00   21.29
   2   0 -19  110.38   12.43
   3   0  18    2.13    3.03
   3   0  16    3.05    3.82
   3   0  15    1.77    4.68
   3   0  14    2.36    2.90
   3   0  13    3.27    2.74
   3   0  12    0.67    4.09
   3   0  12    0.35    0.83
   3   0  11    0.95    4.41
   3   0  11    0.21    0.48
   3   0  10    1.99    2.87
   3   0  10    0.19    0.42
   3   0   9    2.26    3.66
   3   0   9    0.26    0.46
   3   0   8    2.73    2.32
   3   0   8    0.42    0.39
   3   0   7    1.02    3.12
   3   0   6    2.46    2.75
   3   0   5    0.87    1.92
   3   0   4    1.28    1.95
   3   0   3    2.40    2.53
   3   0   3    1.22    0.75
   3   0   2    3.79    2.76
  -3   0  -2    0.31    0.64
   3   0   2    0.49    0.91
   3   0   1    1.46    1.96
  -3   0  -1    0.77    0.87
   3   0   0    1.76    2.92
  -3   0   0    0.93    0.92
   3   0  -1    1.79    2.47
  -3   0   1    0.43    1.44
   3   0  -2   -0.42    1.62
  -3   0   2   -0.29    1.87
   3   0  -3    0.52    2.24
  -3   0   3    0.66    1.52
   3   0  -4    0.81    1.68
  -3   0   4   -0.09    2.05
   3   0  -5    1.65    1.74
  -3   0   5    1.01    2.28
  -3   0   5    1.06    1.24
   3   0  -6    0.84    1.67
  -3   0   6    6.23    6.83
  -3   0   6    3.00    2.73
   3   0  -7    1.59    1.84
  -3   0   7    0.59    2.05
  -3   0   7    2.41    2.07
   3   0  -8    1.77    2.75
  -3   0   8    1.17    1.36
  -3   0   8    1.67    1.90
   3   0  -9    0.43    2.53
  -3   0   9    1.01    1.29
  -3   0   9    2.10    2.30
   3   0 -10    1.55    2.17
  -3   0  10    1.73    1.86
  -3   0  10    1.89    2.68
   3   0 -11    4.43    4.39
  -3   0  11    2.27    2.24
   3   0 -12    1.66    2.71
  -3   0  12    2.93    3.40
  -3   0  12   -0.16    1.70
   3   0 -13    1.20    3.21
  -3   0  13    2.79    3.43
  -3   0  13    1.11    2.78
   3   0 -14    3.77    4.98
  -3   0  14    0.96    1.89
  -3   0  14    2.02    2.03
   3   0 -15    4.80    4.64
  -3   0  15    1.28    2.61
   3   0 -16    4.30    5.32
  -3   0  16    1.10    2.14
   3   0 -17    5.74    4.42
  -3   0  17    0.72    2.88
   3   0 -18    0.03    4.09
  -3   0  18   -0.51    3.07
   4   0  18  198.69   24.49
   4   0  17  119.93   13.25
   4   0  16  261.48   24.46
   4   0  15  313.41   18.00
   4   0  14 2028.14   39.10
   4   0  13  243.74   15.94
   4   0  12   70.16   25.64
   4   0  11  363.59   15.67
   4   0  10  664.23   19.40
   4   0   9  540.36   28.59
   4   0   8  628.82   17.32
   4   0   7  197.78    8.94
   4   0   6 4634.93   47.16
   4   0   5  775.78   15.61
   4   0   4  144.12    6.77
   4   0   4  130.89    3.27
   4   0   3 1719.86   31.60
   4   0   3 1503.10   24.48
   4   0   2 1596.61   29.54
  -4   0  -2 1546.75   25.85
   4   0   1  204.21    6.75
  -4   0  -1  196.80    5.79
   4   0   0   63.65    4.20
  -4   0   0   60.94    5.60
   4   0  -1  195.52    6.75
  -4   0   1  191.13    7.65
   4   0  -2 1609.30   30.01
  -4   0   2 1581.86   29.85
   4   0  -3 1738.90   32.19
  -4   0   3 1765.26   22.42
   4   0  -4  148.37    6.92
  -4   0   4  150.32   11.58
   4   0  -5  713.81   14.98
  -4   0   5  777.05   21.11
   4   0  -6 4553.19   47.13
  -4   0   6 4454.44   48.51
  -4   0   6 4335.56   41.52
   4   0  -7  174.42    8.17
  -4   0   7  199.12   15.20
  -4   0   7  184.41    7.36
   4   0  -8  603.89   16.13
  -4   0   8  576.48   16.40
  -4   0   8  608.58   14.12
   4   0  -9  526.06   18.54
  -4   0   9  492.42   18.41
  -4   0   9  505.52   16.45
   4   0 -10  647.67   17.49
  -4   0  10  692.40   18.97
   4   0 -11  340.07   13.72
  -4   0  11  354.12   17.99
  -4   0  11  356.77   13.37
   4   0 -12   72.49    7.40
  -4   0  12   81.97   12.95
  -4   0  12   74.31    6.42
   4   0 -13  251.77   14.09
  -4   0  13  257.43   19.00
  -4   0  13  254.72   13.52
   4   0 -14 2165.22   34.59
  -4   0  14 1950.65   33.57
   4   0 -15  311.51   15.94
  -4   0  15  319.10   16.82
   4   0 -16  223.97   12.80
  -4   0  16  228.72   14.41
   4   0 -17  124.94   11.24
  -4   0  17  108.22   13.23
   4   0 -18  200.22   12.98
  -4   0  18  215.58   16.69
   5   0  17   -0.53    4.14
   5   0  15    1.17    4.92
   5   0  14    0.59    3.85
   5   0  13    1.39    2.89
   5   0  12    0.92    3.75
   5   0  11    4.17    3.70
   5   0  10    5.68    4.85
   5   0   9    4.31    3.28
   5   0   8    3.40    4.00
   5   0   7    1.59    3.59
   5   0   6    2.22    2.25
   5   0   5    1.25    2.39
   5   0   5    0.22    0.46
   5   0   4    1.77    2.17
  -5   0  -3    0.46    0.68
   5   0   2    1.33    2.14
  -5   0  -2    0.59    0.80
   5   0   1    0.90    1.10
  -5   0  -1    0.66    1.54
   5   0   0    0.73    1.74
  -5   0   0    1.60    1.11
   5   0  -2    2.09    2.69
  -5   0   2    0.93    2.23
   5   0  -3    4.50    3.25
  -5   0   3    0.82    1.01
   5   0  -4    4.49    3.40
  -5   0   4    1.27    1.10
   5   0  -5   -0.13    1.93
  -5   0   5    0.43    1.73
   5   0  -6   -0.05    2.14
  -5   0   6    1.36    1.97
  -5   0   7    1.40    2.53
  -5   0   7    1.75    2.58
   5   0  -8    2.76    2.66
  -5   0   8    1.56    3.77
  -5   0   8    1.09    1.94
   5   0  -9    1.96    2.49
  -5   0   9    1.91    3.21
  -5   0   9    3.52    2.91
   5   0 -10    2.10    2.88
  -5   0  10    1.50    2.23
  -5   0  10    1.67    2.15
   5   0 -11    4.65    4.59
  -5   0  11    3.00    2.38
  -5   0  11    3.11    2.46
   5   0 -12    0.58    2.71
  -5   0  12    1.47    1.63
  -5   0  12    1.61    2.57
   5   0 -13    2.23    5.07
  -5   0  13    1.57    1.03
  -5   0  13    1.18    2.06
   5   0 -14    1.92    3.19
  -5   0  14    1.53    2.58
   5   0 -15    3.77    5.10
  -5   0  15    1.48    2.17
   5   0 -16    5.95    5.55
  -5   0  16    2.41    3.17
   5   0 -17    4.50    6.10
  -5   0  17    1.53    2.99
   6   0  17    5.54    5.55
   6   0  16  705.18   32.39
   6   0  15  133.94   36.55
   6   0  14  135.57   11.98
   6   0  13   83.21   10.23
   6   0  12   74.10    8.95
   6   0  11   63.14    7.42
   6   0  10 1480.58   29.41
   6   0   9   48.14    5.73
   6   0   8 2206.96   37.37
   6   0   7  134.46    8.23
   6   0   6  702.24   23.45
   6   0   5   50.28    4.87
   6   0   4  120.60    6.86
   6   0   3  702.69   17.33
  -6   0  -3  714.44   13.92
   6   0   2 1706.76   30.21
  -6   0  -2 1722.93   26.32
   6   0   1    7.83    2.70
  -6   0  -1    8.71    3.15
   6   0   0 3162.38   46.10
  -6   0   0 3208.96   44.79
   6   0  -1    7.08    2.53
  -6   0   1   11.60    4.80
   6   0  -2 1843.18   31.59
  -6   0   2 1777.82   30.69
   6   0  -3  722.43   17.87
  -6   0   3  735.80   18.18
   6   0  -4  127.35    7.20
  -6   0   4  130.67   12.67
   6   0  -5   57.58    5.58
  -6   0   5   59.65   18.31
   6   0  -6  616.79   20.84
  -6   0   6  671.37   41.74
   6   0  -7  116.47    7.97
  -6   0   7  128.42   10.69
  -6   0   7  146.99    8.20
   6   0  -8 2113.31   36.12
  -6   0   8 2083.88   38.56
  -6   0   8 2075.27   32.82
   6   0  -9   48.61    6.41
  -6   0   9   52.01   17.77
  -6   0   9   50.90    5.81
   6   0 -10 1409.72   26.38
  -6   0  10 1399.01   31.99
  -6   0  10 1385.42   32.53
   6   0 -11   51.95    6.15
  -6   0  11   43.22   15.84
  -6   0  11   61.97    5.68
   6   0 -12   81.69    8.24
  -6   0  12   66.72   25.05
  -6   0  12   73.85    6.85
   6   0 -13   82.74    8.84
  -6   0  13   68.39   22.68
   6   0 -14  135.85   10.97
  -6   0  14  124.23   23.98
   6   0 -15  164.89   12.62
   6   0 -16  741.91   30.40
  -6   0  16  706.75   39.33
   6   0 -17    6.07    4.41
  -6   0  17    5.09    5.64
   7   0  15    0.36    4.05
   7   0  14    2.20    4.35
   7   0  13    0.21    3.67
   7   0  12    4.64    7.18
   7   0  11    3.95    5.76
   7   0  10    1.91    3.18
   7   0   9    0.82    2.79
   7   0   8    2.53    3.76
   7   0   7    4.35    3.85
   7   0   6    2.80    2.87
   7   0   5    2.98    3.65
   7   0   4    2.44    2.64
   7   0   3    4.50    3.94
  -7   0  -3    0.86    1.72
   7   0   2    2.73    3.37
  -7   0  -2    0.51    1.59
   7   0   1    2.81    3.80
  -7   0  -1    1.38    2.39
   7   0   0    3.55    4.10
  -7   0   0    0.35    1.89
   7   0  -1    2.78    3.03
  -7   0   1    1.58    1.85
   7   0  -2    4.02    4.30
  -7   0   2    1.06    2.55
  -7   0   3    1.14    1.71
   7   0  -4    6.64    5.40
  -7   0   4    1.62    2.37
   7   0  -5    3.99    3.08
  -7   0   5    1.90    2.82
   7   0  -6    1.35    2.85
  -7   0   6   -0.59    2.66
   7   0  -7    4.02    4.34
  -7   0   7    1.36    3.05
  -7   0   7    1.70    3.88
   7   0  -8    2.73    3.09
  -7   0   8    1.44    3.40
  -7   0   8    1.90    2.36
   7   0  -9   -0.49    2.65
  -7   0   9    4.12    3.11
  -7   0   9    1.63    3.31
   7   0 -10    1.36    4.16
  -7   0  10    4.39    6.06
  -7   0  10    1.04    2.81
   7   0 -11    2.05    3.75
  -7   0  11    1.02    3.93
  -7   0  11    3.01    2.83
   7   0 -12    3.62    3.64
  -7   0  12    1.91    2.10
  -7   0  12    0.57    2.21
   7   0 -13    5.32    5.98
  -7   0  13    0.58    2.41
  -7   0  13    2.54    4.16
   7   0 -14    3.05    3.28
  -7   0  14    2.86    2.84
  -7   0  15    2.05    3.80
   7   0 -16    4.31    5.55
  -7   0  16   -0.40    3.27
   8   0  15  242.02   20.22
   8   0  14  329.44   18.62
   8   0  13   72.05   11.68
   8   0  12    5.05    4.42
   8   0  10   90.14    9.57
   8   0   9  857.08   43.67
   8   0   8 1118.00   39.55
   8   0   7  537.73   22.97
   8   0   6  590.37   23.88
   8   0   5  149.32    9.35
   8   0   4    4.65    2.71
   8   0   3  345.87   13.96
   8   0   2  618.60   19.09
  -8   0  -2  634.36   17.39
   8   0   1  799.12   20.41
  -8   0  -1  833.76   20.38
   8   0   0 2263.72   37.66
  -8   0   0 2284.84   28.50
   8   0  -2  629.36   19.50
  -8   0   2  577.93   19.28
   8   0  -3  380.40   15.16
  -8   0   3  368.56   17.45
   8   0  -4    4.92    3.59
  -8   0   4    1.83    3.10
   8   0  -5  174.30   10.47
  -8   0   5  173.76   14.29
   8   0  -6  586.04   23.79
  -8   0   6  660.56   26.47
   8   0  -7  544.56   22.63
  -8   0   7  544.07   23.57
  -8   0   7  525.08   21.97
   8   0  -8 1176.03   41.12
  -8   0   8 1141.61   40.71
  -8   0   8 1123.15   38.47
   8   0  -9  848.28   42.89
  -8   0   9  838.12   52.78
  -8   0   9  863.82   42.76
   8   0 -10   85.10    8.64
  -8   0  10  118.37   30.12
  -8   0  10   90.66    7.41
   8   0 -11  242.56   14.12
  -8   0  11  241.67   22.59
  -8   0  11  233.11   12.74
   8   0 -12    1.67    3.45
  -8   0  12    2.18    1.83
  -8   0  12    2.19    3.04
   8   0 -13   51.07    8.57
  -8   0  13   52.29   22.36
  -8   0  13   61.20    9.47
   8   0 -14  335.23   16.54
  -8   0  14  344.01   31.21
   8   0 -15  258.30   18.93
  -8   0  15  232.95   27.97
   9   0  13    3.32    5.37
   9   0  12    3.48    4.57
   9   0  11   -0.46    3.82
   9   0  10    6.34    6.24
   9   0   9    4.29    5.76
   9   0   8    5.73    3.71
   9   0   7    3.64    4.20
   9   0   6    5.75    4.57
   9   0   5    4.30    3.61
   9   0   4    3.82    3.52
   9   0   3   -0.17    2.35
   9   0   2    4.95    2.92
  -9   0  -2    1.72    2.22
   9   0   1    3.35    2.80
  -9   0  -1    0.40    1.83
   9   0   0    4.62    4.35
  -9   0   0    0.06    1.85
   9   0  -1    1.45    3.10
  -9   0   1    1.39    1.77
   9   0  -2    2.74    4.31
  -9   0   2    0.04    2.77
   9   0  -3    1.40    2.94
  -9   0   3    1.70    2.80
   9   0  -4    3.69    4.36
  -9   0   4    0.22    3.28
   9   0  -5    0.40    3.01
  -9   0   5   -0.44    2.94
   9   0  -6    3.26    4.50
  -9   0   6    0.36    1.84
   9   0  -7    2.19    3.40
   9   0  -8    5.26    5.28
  -9   0   8    2.26    5.04
  -9   0   8    0.39    2.21
   9   0  -9    1.07    3.57
  -9   0   9    1.34    5.08
  -9   0   9    3.44    5.28
   9   0 -10    3.93    3.80
  -9   0  10    3.96    5.37
  -9   0  10    5.01    5.90
   9   0 -11    1.72    3.55
  -9   0  11    3.73    4.98
   9   0 -12    0.95    3.35
  -9   0  12    2.47    3.40
  -9   0  12    3.29    3.51
   9   0 -13    3.25    4.04
  -9   0  13    1.29    3.30
  10   0  12  689.59   39.50
  10   0  11  123.38   11.35
  10   0  10   41.92    8.51
  10   0   9    5.40    5.35
  10   0   8   37.03    6.43
  10   0   7   12.35    4.42
  10   0   6  596.34   25.28
  10   0   5  541.75   23.03
  10   0   4  837.91   32.80
  10   0   3  131.74   10.97
  10   0   2  238.95   14.77
  10   0   1   25.22    9.24
 -10   0  -1   18.07    9.43
  10   0   0  139.99   11.73
  10   0  -1   19.35    5.02
 -10   0   1   17.86   11.71
  10   0  -2  204.85   13.15
 -10   0   2  213.55   14.94
  10   0  -3  130.35   10.80
 -10   0   3  127.24   11.65
  10   0  -4  844.55   33.18
 -10   0   4  876.12   38.90
  10   0  -5  532.71   24.26
 -10   0   5  565.63   24.43
  10   0  -6  623.83   25.90
 -10   0   6  637.02   38.65
 -10   0   7   13.30    5.04
 -10   0   7    8.92    4.12
  10   0  -8   39.72    7.33
 -10   0   8   39.69   14.57
 -10   0   8   38.08    6.85
  10   0  -9    4.51    3.60
 -10   0   9    0.97    4.14
 -10   0   9    4.47    5.42
  10   0 -10   30.49    5.71
 -10   0  10   35.72   22.47
 -10   0  10   36.12    6.31
  10   0 -11  123.45   11.34
 -10   0  11  129.73   27.37
 -10   0  11  130.82   11.20
  10   0 -12  633.12   35.42
 -10   0  12  693.04   39.82
  11   0  10    1.61    4.13
  11   0   9    1.28    4.24
  11   0   8    1.48    3.99
  11   0   7    2.53    4.31
  11   0   6    2.41    4.18
  11   0   5    1.58    3.62
  11   0   4   -1.44    3.09
  11   0   3    3.95    4.59
  11   0   2    2.08    3.17
  11   0   1    2.27    3.10
  11   0   0    2.37    3.32
 -11   0   0    1.05    2.15
  11   0  -1    2.46    3.78
 -11   0   1   -0.25    2.21
  11   0  -2    2.63    5.31
 -11   0   2    0.95    2.33
  11   0  -3    3.46    5.04
 -11   0   3    0.36    3.62
  11   0  -4    4.68    4.78
 -11   0   4    1.57    2.90
  11   0  -5    1.24    4.51
 -11   0   5   -0.64    2.87
  11   0  -6    4.13    3.41
 -11   0   6    2.66    3.30
  11   0  -7    1.64    3.26
 -11   0   7    1.48    1.87
 -11   0   7    3.78    4.80
  11   0  -8    3.35    4.36
 -11   0   8   -1.22    3.19
 -11   0   8    1.93    4.05
  11   0  -9    4.13    3.74
 -11   0   9    2.81    3.16
 -11   0   9    3.58    4.35
  11   0 -10    2.16    3.97
 -11   0  10    2.91    5.78
  12   0   6   21.30    6.72
  12   0   5  329.17   16.84
  12   0   4  380.20   17.78
  12   0   3  222.45   13.65
  12   0   2   29.62    6.33
  12   0   1   30.90    7.20
  12   0   0 1056.77   39.79
  12   0  -1   25.76    5.87
 -12   0   1   30.19    5.57
  12   0  -2   24.18    5.95
 -12   0   2   10.66   12.70
  12   0  -3  264.91   15.10
 -12   0   3  221.39   16.37
  12   0  -4  410.21   18.39
 -12   0   4  412.86   18.17
  12   0  -5  351.67   17.64
 -12   0   5  331.93   17.12
  12   0  -6   23.66    6.74
 -12   0   6   16.11    7.51
  12  -1  -6   38.27    7.32
 -12   1   6   37.97    7.38
 -12   1   6   50.58    8.60
  12  -1  -5    9.34    5.54
 -12   1   5    6.36    6.61
  12  -1  -4    6.94    4.51
  12  -1  -3    3.87    3.60
  12  -1  -2   14.36   13.89
  12  -1  -1    7.21    5.26
  12  -1   0   11.13    4.86
  12  -1   1    6.22    4.18
  12  -1   2   15.96    6.06
  12  -1   3    7.44    5.55
  12  -1   4    5.47    4.27
  12  -1   5    6.72    6.68
  12  -1   6   49.17    9.49
  11  -1  -9  567.79   32.16
 -11   1   9  551.68   36.31
 -11   1   9  564.21   32.96
  11  -1  -8   37.99    6.45
 -11   1   8   28.76   17.09
 -11   1   8   46.51    8.28
  11  -1  -7  291.59   16.76
 -11   1   7  322.86   19.01
 -11   1   7  307.74   18.70
  11  -1  -6    3.02    3.51
 -11   1   6    1.27    2.73
 -11   1   6    0.77    4.23
  11  -1  -5   84.46   11.89
 -11   1   5   83.75   20.24
 -11   1   5   76.49   11.59
  11  -1  -4  101.83    9.98
 -11   1   4   89.93    8.74
  11  -1  -3   87.66    8.73
  11  -1  -1  573.16   28.61
  11  -1   0   42.65    6.73
  11  -1   1  543.91   20.10
  11  -1   2   59.09    8.48
  11  -1   3   80.76    8.41
  11  -1   4  109.36    9.59
  11  -1   5   90.71   12.86
  11  -1   6    6.71    6.92
  11  -1   7  290.77   18.08
  11  -1   8   45.91    7.76
  11  -1   9  586.12   34.38
  10  -1 -12   52.71   11.48
 -10   1  12   67.13   10.11
 -10   1  12   71.85   10.64
  10  -1 -11    2.37    3.68
 -10   1  11    0.68    3.14
 -10   1  11    2.11    4.41
  10  -1 -10  193.21   13.74
 -10   1  10  186.58   18.59
 -10   1  10  172.74   28.54
  10  -1  -9    5.06    3.42
 -10   1   9    2.79    4.00
 -10   1   9    5.69    6.36
  10  -1  -8  115.64    9.73
 -10   1   8   97.89   16.32
 -10   1   8  116.10   10.47
  10  -1  -7   23.27   10.80
 -10   1   7   23.35    9.61
 -10   1   7   31.36    8.37
  10  -1  -6  319.89   16.27
 -10   1   6  315.23   16.60
 -10   1   6  325.14   17.67
  10  -1  -5    2.97    3.42
 -10   1   5    1.55    4.24
 -10   1   5    1.87    3.51
  10  -1  -4  156.91   12.05
 -10   1   4  147.42   19.57
  10  -1  -3    2.33    3.33
  10  -1  -2  316.98   17.46
  10  -1  -1   28.47    6.69
  10  -1   0  121.31   10.35
  10  -1   1   15.76    4.94
  10  -1   2  277.67   16.22
  10  -1   3    5.69    3.90
  10  -1   4  125.27   11.99
  10  -1   5    3.11    4.92
  10  -1   6  319.55   16.74
  10  -1   7   22.09    6.21
  10  -1   8  107.20    9.91
  10  -1   9    2.69    4.40
  10  -1  10  177.44   15.64
  10  -1  11    1.30    4.57
  10  -1  12   62.21   10.43
   9  -1 -13  266.81   18.95
  -9   1  13  277.25   22.17
  -9   1  13  290.77   19.72
   9  -1 -12   17.80    5.63
  -9   1  12   18.02    5.52
   9  -1 -11  209.38   14.50
  -9   1  11  205.08   18.14
  -9   1  11  199.54   13.35
   9  -1 -10  814.42   23.37
  -9   1  10  825.23   26.25
  -9   1  10  781.48   23.05
   9  -1  -9    3.88    3.44
  -9   1   9    5.91    4.72
   9  -1  -8  801.53   30.43
  -9   1   8  738.57   29.78
  -9   1   8  758.30   29.55
   9  -1  -7  120.69   10.12
  -9   1   7  110.59   25.73
  -9   1   7  113.11   10.16
   9  -1  -6  566.20   30.50
  -9   1   6  550.07   30.64
  -9   1   6  538.12   29.68
   9  -1  -5  414.11   23.67
  -9   1   5  401.72   25.13
   9  -1  -4    6.27    4.54
  -9   1   4    1.16    1.65
   9  -1  -3  298.16   15.91
  -9   1   3  276.65   16.22
   9  -1  -2 1094.36   25.73
  -9   1   2 1042.69   35.88
   9  -1  -1   39.65    6.01
   9  -1   0  928.52   40.28
   9  -1   1   32.63    5.45
   9  -1   2 1090.87   25.11
   9  -1   3  259.43   14.35
   9  -1   4    2.23    2.94
   9  -1   5  366.68   21.86
   9  -1   6  594.27   32.60
   9  -1   7  137.81   12.69
   9  -1   8  806.59   31.48
   9  -1   9   11.65    4.46
   9  -1  10  739.25   24.19
   9  -1  11  197.76   16.66
   9  -1  12   11.29    5.89
   9  -1  13  287.34   21.43
   8  -1 -15    1.97    3.62
  -8   1  15    3.54    5.71
   8  -1 -14    4.88    5.86
  -8   1  14    4.44    4.93
  -8   1  14    1.82    4.74
   8  -1 -13   17.02    5.04
  -8   1  13    9.81    7.58
  -8   1  13    6.60    3.91
   8  -1 -12   16.36    5.03
  -8   1  12   29.94    8.61
  -8   1  12   16.14    4.61
   8  -1 -11   10.60    3.88
  -8   1  11   10.60    8.55
   8  -1 -10   60.34    7.29
  -8   1  10   50.14   17.91
  -8   1  10   53.70    6.75
   8  -1  -9    5.98    4.48
  -8   1   9    3.52    4.63
  -8   1   9    5.47    5.07
   8  -1  -8   31.58    5.52
  -8   1   8   37.80   13.23
  -8   1   8   32.65    6.45
   8  -1  -7    9.58    3.92
  -8   1   7   17.78    6.20
  -8   1   7   15.03    4.35
   8  -1  -6    8.09    3.30
  -8   1   6    9.18    4.01
  -8   1   6   11.10    4.27
   8  -1  -5   21.02    4.80
  -8   1   5   18.51   10.99
  -8   1   5   16.87    4.49
   8  -1  -4   12.43    4.03
  -8   1   4   11.85    6.33
   8  -1  -3   14.04    4.04
  -8   1   3    9.57    4.43
   8  -1  -2   49.99    5.74
  -8   1   2   38.50    9.24
   8  -1  -1   13.19    3.62
  -8   1   1   22.53    4.16
   8  -1   0  266.60   12.45
   8  -1   1   15.40    4.07
   8  -1   2   53.33    6.34
   8  -1   3    8.07    3.38
   8  -1   4   12.75    3.73
   8  -1   5   14.60    4.06
   8  -1   6   13.43    3.85
   8  -1   7   11.66    3.78
   8  -1   8   39.43    5.77
   8  -1   9    4.78    4.55
   8  -1  10   53.19    6.86
   8  -1  11    9.08    4.55
   8  -1  12   22.81    6.97
   8  -1  13   11.31    6.69
   8  -1  14    2.64    4.45
   8  -1  15    5.49    7.32
   7  -1 -16   60.58    8.95
  -7   1  16   45.01   17.40
   7  -1 -15  148.41   12.13
  -7   1  15  140.03   23.26
   7  -1 -14  367.66   19.12
  -7   1  14  358.07   26.26
  -7   1  14  397.79   21.81
   7  -1 -13  312.56   14.22
  -7   1  13  315.23   15.55
  -7   1  13  349.31   15.66
   7  -1 -12  876.99   31.61
  -7   1  12  836.42   31.96
  -7   1  12  844.60   30.28
   7  -1 -11  140.25   10.70
  -7   1  11  141.02   20.22
  -7   1  11  134.69   10.33
   7  -1 -10   54.61    7.31
  -7   1  10   67.04   23.51
  -7   1  10   56.97    6.75
   7  -1  -9  131.90   10.05
  -7   1   9  125.74   15.68
  -7   1   9  120.95   10.47
   7  -1  -8   76.41    6.96
  -7   1   8   80.03   12.38
  -7   1   8   77.60    7.17
   7  -1  -7   88.53    7.64
  -7   1   7   79.21   14.41
  -7   1   7   84.78    7.31
   7  -1  -6  221.41   10.86
  -7   1   6  217.85   21.27
  -7   1   6  213.52   11.22
   7  -1  -5  666.28   18.02
  -7   1   5  661.15   19.28
  -7   1   5  646.35   18.54
   7  -1  -3  430.78   14.16
  -7   1   3  396.73   13.19
   7  -1  -2  126.90    7.77
  -7   1   2  132.34   12.94
   7  -1  -1  131.25    7.85
  -7   1   1  121.77   12.81
   7  -1   0   58.13    5.53
   7  -1   1  124.83    7.84
   7  -1   2  113.66    7.70
   7  -1   3  397.51   13.91
   7  -1   4 2849.17   41.85
   7  -1   5  648.91   18.78
   7  -1   6  217.10   12.04
   7  -1   6  187.47    7.02
   7  -1   7   80.67    7.14
   7  -1   8   68.25    6.90
   7  -1   9  118.97   10.35
   7  -1  10   67.45    7.60
   7  -1  11  130.80   11.48
   7  -1  12  884.37   34.91
   7  -1  13  316.48   17.64
   7  -1  14  399.41   23.66
   7  -1  15  180.38   16.70
   7  -1  16   60.73   10.25
   6  -1 -16  253.33   13.67
  -6   1  16  250.78   24.70
   6  -1 -15    0.82    3.45
   6  -1 -14   92.36    8.44
  -6   1  14   81.80   29.38
  -6   1  14   80.29   21.88
   6  -1 -13    2.02    3.18
  -6   1  13    1.37    2.84
  -6   1  13    1.72    1.84
   6  -1 -12  281.90   17.60
  -6   1  12  274.25   35.17
  -6   1  12  281.21   17.96
   6  -1 -11   16.85    4.21
  -6   1  11   11.25    5.79
  -6   1  11   18.93    4.10
   6  -1 -10  106.59    8.62
  -6   1  10  107.46   14.11
  -6   1  10   94.90    7.55
   6  -1  -9    6.58    3.16
  -6   1   9    1.62    3.20
  -6   1   9    8.04    3.57
   6  -1  -8  534.07   17.26
  -6   1   8  534.18   21.24
   6  -1  -7   20.90    4.06
  -6   1   7   19.15    7.31
  -6   1   7   15.03    3.95
   6  -1  -6  404.91   13.35
  -6   1   6  420.39   20.47
  -6   1   6  410.55   13.50
   6  -1  -5   14.67    2.94
  -6   1   5   19.94    4.90
  -6   1   5   16.94    3.62
   6  -1  -4  774.07   23.51
   6  -1  -3   66.86    5.48
  -6   1   3   61.22    7.19
   6  -1  -2  235.56    9.61
  -6   1   2  210.04   12.15
   6  -1  -1   10.68    2.68
  -6   1   1   11.22    5.38
   6  -1   0  512.71   14.51
  -6   1   0  491.47   12.80
   6  -1   1    8.30    2.31
   6  -1   2  217.03    9.42
   6  -1   3   66.34    5.31
   6  -1   4  996.24   29.38
   6  -1   5   11.99    4.01
   6  -1   6  362.52   13.31
   6  -1   7   16.92    3.86
   6  -1   7   18.54    1.73
   6  -1   8  535.12   18.41
   6  -1   9   11.39    3.63
   6  -1  10  102.21    8.92
   6  -1  11   29.26    5.96
   6  -1  12  269.34   18.93
   6  -1  13    2.79    6.46
   6  -1  14  100.10   33.71
   6  -1  15    3.88    6.96
   6  -1  16  272.58   18.29
   6  -1  17    5.34    6.46
   5  -1 -17  418.48   17.67
  -5   1  17  424.68   19.28
   5  -1 -16    3.02    3.95
  -5   1  16    2.41    3.42
   5  -1 -15  167.38   10.63
  -5   1  15  157.97   15.58
   5  -1 -14   40.91    6.53
  -5   1  14   40.89   15.96
  -5   1  13  246.16   20.66
  -5   1  13  259.22   17.45
   5  -1 -12  712.53   26.54
  -5   1  12  736.34   28.60
  -5   1  12  738.01   29.88
   5  -1 -11  568.06   22.27
  -5   1  11  585.63   24.47
  -5   1  11  548.72   22.27
   5  -1 -10  246.05   11.05
  -5   1  10  259.92   25.23
  -5   1  10  240.73   10.87
   5  -1  -9  465.52   14.32
  -5   1   9  441.91   15.91
  -5   1   9  472.89   14.44
   5  -1  -8   31.67    4.19
  -5   1   8   30.53   10.08
  -5   1   8   33.08    4.46
   5  -1  -7 1146.78   31.97
  -5   1   7  978.93   30.18
  -5   1   7 1117.36   31.64
   5  -1  -6   85.71    5.76
  -5   1   6   78.30   10.46
  -5   1   6   81.83    5.68
   5  -1  -5  382.33   11.80
  -5   1   5  387.30   13.05
  -5   1   5  371.60   12.09
  -5   1   4  949.29   21.00
  -5   1   4  967.30   18.50
   5  -1  -3  350.84   10.19
  -5   1   3  432.49   11.87
   5  -1  -2    6.06    1.66
  -5   1   2   10.65    2.93
   5  -1  -1 1277.60   19.92
  -5   1   1 1259.11   19.09
   5  -1   0   99.52    5.49
  -5   1   0   83.73    4.63
   5  -1   1 1292.85   20.54
   5  -1   2    6.72    2.23
   5  -1   3  393.60   11.31
   5  -1   4  986.64   19.62
   5  -1   5  381.18   12.64
   5  -1   5  377.26    9.31
   5  -1   6   81.56    6.50
   5  -1   7 1080.62   31.77
   5  -1   8   31.05    5.06
   5  -1   8   18.92    2.47
   5  -1   8   30.79    1.59
   5  -1   9  481.57   16.99
   5  -1  10  269.96   13.54
   5  -1  11  631.43   26.49
   5  -1  12  748.18   30.60
   5  -1  13  274.19   19.46
   5  -1  14   55.36   24.09
   5  -1  15  162.91   13.66
   5  -1  16    4.11    3.30
   5  -1  17  439.88   22.89
  -4   1  18    0.25    3.33
   4  -1 -17    8.44    4.21
  -4   1  17    3.23    2.60
   4  -1 -16   25.30    6.05
  -4   1  16   21.18   10.44
   4  -1 -15   12.75    3.41
  -4   1  15   15.33   11.81
  -4   1  15   12.02    6.69
   4  -1 -14   19.37    4.60
  -4   1  14   17.24    6.33
  -4   1  14   18.47    7.26
  -4   1  13    0.97    2.99
  -4   1  13    1.28    3.32
   4  -1 -12   41.60    5.24
  -4   1  12   42.75   12.41
  -4   1  12   46.38   14.30
   4  -1 -11    9.11    3.24
  -4   1  11   10.48    4.16
   4  -1 -10   12.31    3.46
  -4   1  10   10.90    4.69
  -4   1  10    6.05    3.42
   4  -1  -9   62.19    5.27
  -4   1   9   59.10   12.03
  -4   1   9   57.73    6.23
   4  -1  -8   25.17    3.35
  -4   1   8   32.00   12.34
  -4   1   8   20.98    3.20
   4  -1  -7    2.38    2.17
  -4   1   7    2.07    2.05
  -4   1   7    1.86    2.55
   4  -1  -6   63.45    4.56
  -4   1   6   68.80    8.64
  -4   1   6   62.22   14.64
   4  -1  -5    3.79    1.80
  -4   1   5    3.44    2.61
  -4   1   5    2.91    1.72
   4  -1  -4  341.16   10.52
  -4   1   4  330.64   11.28
  -4   1   4  315.60   10.50
   4  -1  -3  154.66    6.81
  -4   1   3  150.71    7.43
  -4   1   3  160.01    7.18
   4  -1  -2    2.29    2.21
  -4   1   2    1.66    1.51
   4  -1  -1    1.05    1.58
  -4   1   1    0.57    0.95
   4  -1   0    8.66    2.45
   4  -1   1    1.09    1.74
   4  -1   2    2.49    2.51
   4  -1   3  127.15    6.29
   4  -1   4  321.04   10.84
   4  -1   5    5.99    2.28
   4  -1   5    2.59    1.13
   4  -1   6   61.81    4.97
   4  -1   6   68.02    2.84
   4  -1   7    1.29    2.02
   4  -1   8   22.51    4.37
   4  -1   8   20.60    1.56
   4  -1   9   63.41    6.27
   4  -1   9   54.08    2.35
   4  -1  10   10.23    4.07
   4  -1  10    5.30    2.79
   4  -1  11    8.17    3.64
   4  -1  12   55.35   15.72
   4  -1  13    2.37    3.14
   4  -1  14   14.10    6.89
   4  -1  16   19.59   15.60
   4  -1  17   12.77    6.41
   4  -1  18    2.38    2.95
   3  -1 -18 1023.35   24.53
  -3   1  18 1169.30   29.48
   3  -1 -17    8.23    5.29
  -3   1  17    5.40    5.18
   3  -1 -16  634.06   22.16
  -3   1  16  670.75   25.13
   3  -1 -15    4.04    3.63
  -3   1  15    1.09    2.61
   3  -1 -14  437.21   24.01
  -3   1  14  403.37   24.78
  -3   1  14  464.24   27.61
   3  -1 -13   59.45    6.10
  -3   1  13   53.10    6.63
  -3   1  13   52.52   18.37
   3  -1 -12    3.72    2.07
  -3   1  12    5.55    2.84
  -3   1  12    2.99    4.49
   3  -1 -11  100.34    6.61
  -3   1  11  113.07   14.12
  -3   1  11   94.08    7.38
   3  -1 -10 3251.79   41.24
  -3   1  10 3317.12   45.49
  -3   1  10 3154.49   43.81
   3  -1  -9   21.36    3.48
  -3   1   9   23.73    9.51
  -3   1   9   25.87   10.63
  -3   1   8 2224.53   35.54
   3  -1  -7   86.92    5.10
  -3   1   7   88.10    9.38
  -3   1   7   94.66    5.79
  -3   1   6 1231.22   18.93
   3  -1  -5   80.40    4.66
  -3   1   5   72.40    7.87
  -3   1   5   76.31    5.03
   3  -1  -4  349.58    9.70
  -3   1   4  369.18   11.64
  -3   1   4  358.75   10.38
   3  -1  -3  247.03    6.83
  -3   1   3  232.20    7.45
  -3   1   3  244.65    7.44
   3  -1  -2 4105.33   24.85
  -3   1   2 3986.32   27.11
  -3   1   2 4125.88   27.54
   3  -1  -1    3.63    1.57
  -3   1   1    4.10    1.73
   3  -1   0 5081.75   27.68
   3  -1   1    3.29    1.49
   3  -1   2 4034.44   26.44
   3  -1   3  170.56    6.31
   3  -1   4  338.08   10.28
   3  -1   4  332.99    8.55
   3  -1   5   72.66    4.89
   3  -1   5   77.98    3.43
   3  -1   6 1237.74   21.07
   3  -1   6 1196.23   13.25
   3  -1   7   89.94    6.11
   3  -1   7   83.31    3.16
   3  -1   8 2432.33   40.59
   3  -1   8 2404.91   30.70
   3  -1   9   29.01    4.96
   3  -1   9   21.42    1.86
   3  -1  10 3088.37   50.55
   3  -1  11   99.42   10.58
   3  -1  12    5.89    4.31
   3  -1  12    4.22    2.26
   3  -1  13   48.15   18.42
   3  -1  14  386.79   30.69
   3  -1  15    1.78    3.61
   3  -1  16  602.06   25.73
   3  -1  17    2.01    3.34
   3  -1  18 1112.68   41.92
   2  -1 -19   32.46    6.07
   2  -1 -18  127.49   10.67
  -2   1  18  131.47   12.43
   2  -1 -17   12.48    4.51
  -2   1  17    7.67    6.46
   2  -1 -16   90.26    8.25
  -2   1  16   94.52   11.94
   2  -1 -15    6.54    2.90
  -2   1  15    8.37    3.60
  -2   1  15    8.52    2.91
   2  -1 -14  258.98   14.01
  -2   1  14  249.91   13.73
  -2   1  14  277.57   13.74
   2  -1 -13   45.85    5.36
  -2   1  13   38.75   14.75
  -2   1  13   56.98    5.79
   2  -1 -12  382.50   13.28
  -2   1  12  390.87   14.45
  -2   1  12  396.52   15.77
   2  -1 -11   74.54    6.12
  -2   1  11   77.27    7.20
  -2   1  11   73.91   10.41
   2  -1 -10  691.78   21.26
  -2   1  10  738.07   25.95
  -2   1  10  653.60   24.00
   2  -1  -9    9.37    2.51
  -2   1   9   13.49    3.77
  -2   1   9   13.51    5.93
   2  -1  -8  407.31   10.54
  -2   1   8  427.65   12.00
  -2   1   8  409.06   14.24
   2  -1  -7   11.48    2.10
  -2   1   7   14.02    4.34
  -2   1   7   16.95    6.97
  -2   1   6  542.18   14.52
  -2   1   6  521.17   13.83
   2  -1  -5  188.33    6.43
  -2   1   5  185.07    6.88
  -2   1   5  176.93    6.81
  -2   1   4  565.44   10.65
  -2   1   4  547.40    9.90
   2  -1  -3    1.10    1.67
  -2   1   3    0.37    1.83
  -2   1   3    2.26    1.77
   2  -1  -2 1612.88   12.89
  -2   1   2 1633.72   15.75
  -2   1   2 1630.58   15.65
   2  -1  -1   34.04    2.24
  -2   1   1   33.95    3.02
   2  -1   0 1650.97   13.26
   2  -1   1   37.56    3.58
   2  -1   2 1574.68   15.00
   2  -1   3    1.74    2.59
   2  -1   3    1.20    1.16
   2  -1   4  553.31   10.98
   2  -1   4  563.47    7.73
   2  -1   5  194.55    8.02
   2  -1   5  175.38    5.15
   2  -1   6  506.57   14.37
   2  -1   6  492.44   10.49
   2  -1   7   13.51    2.86
   2  -1   7   13.62    1.76
   2  -1   8  412.22   13.93
   2  -1   8  385.63    7.93
   2  -1   9   13.47    5.73
   2  -1   9   11.63    1.70
   2  -1  10  658.43   23.40
   2  -1  10  682.99   18.74
   2  -1  11   76.54   13.64
   2  -1  11   76.33    4.86
   2  -1  12  354.32   22.32
   2  -1  12  385.99   11.21
   2  -1  13   46.19   18.77
   2  -1  13   43.91    7.63
   2  -1  14  241.53   14.82
   2  -1  14  233.64   12.46
   2  -1  15   10.05    7.36
   2  -1  16   84.47    9.91
   2  -1  17    9.76    4.21
   2  -1  18  135.04   13.04
   2  -1  19   42.23   20.80
   1  -1 -18   42.56    6.36
   1  -1 -17  243.67   13.10
  -1   1  17  251.89   14.57
   1  -1 -16   18.84    4.24
  -1   1  16   15.16    9.86
   1  -1 -15  188.51   13.14
  -1   1  15  192.69   16.04
   1  -1 -14  367.67   16.76
  -1   1  14  370.42   16.56
  -1   1  14  394.54   16.03
   1  -1 -13  470.13   16.32
  -1   1  13  452.65   20.71
  -1   1  13  493.49   15.51
   1  -1 -12  931.26   20.65
  -1   1  12  934.85   24.78
  -1   1  12  987.06   20.07
  -1   1  11  744.84   16.58
  -1   1  11  784.35   17.82
  -1   1  10    5.43    2.46
  -1   1  10    5.70    3.97
  -1   1   9  212.95    9.13
  -1   1   9  194.83    8.81
  -1   1   8    1.31    2.23
  -1   1   8    2.30    3.37
   1  -1  -7 1082.96   21.62
  -1   1   7 1103.49   22.51
  -1   1   7  997.23   22.36
   1  -1  -6   41.07    3.18
  -1   1   6   41.93    4.35
  -1   1   6   39.38    7.44
   1  -1  -5  820.22   10.52
  -1   1   5  831.51   12.08
  -1   1   5  788.22   13.67
   1  -1  -4 6269.61   24.28
  -1   1   4 6392.27  122.47
   1  -1  -3 1178.61    9.23
  -1   1   3 1197.85   12.70
  -1   1   3 1203.45   13.50
   1  -1  -2    2.22    0.74
  -1   1   2    2.16    1.21
   1  -1  -1  938.46    6.84
  -1   1   1  940.86    6.78
  -1   1   1  918.15    9.39
   1  -1   0   62.86    2.17
  -1   1   0   65.76    2.14
  -1   1   0   71.71    2.67
   1  -1   0   62.36    2.43
   1  -1   1  906.72    8.73
   1  -1   1  937.83   10.06
   1  -1   2    7.82    3.69
   1  -1   2    3.11    1.08
  -1   1  -2    2.71    1.14
   1  -1   3 1181.73   14.01
   1  -1   3 1172.44   10.74
   1  -1   4 6269.25   35.25
   1  -1   4 6240.23   24.99
   1  -1   5  802.58   14.59
   1  -1   5  783.14    9.83
   1  -1   6   34.30    4.36
   1  -1   6   39.90    2.78
   1  -1   7 1065.41   26.80
   1  -1   7 1041.13   19.86
   1  -1   8   -0.32    2.21
   1  -1   8    0.84    0.91
   1  -1   9  188.51   12.84
   1  -1   9  188.26    6.64
   1  -1  10    2.05    4.52
   1  -1  10    6.45    1.86
   1  -1  11  716.70   20.14
   1  -1  11  737.65   15.24
   1  -1  12  854.05   34.51
   1  -1  12  944.77   18.38
   1  -1  13  418.60   17.30
   1  -1  13  462.29   17.50
   1  -1  14  337.93   17.37
   1  -1  14  369.75   16.59
   1  -1  15  199.38   25.82
   1  -1  15  186.03   15.06
   1  -1  16   22.86    8.78
   1  -1  17  243.97   20.67
   1  -1  18   36.87   17.00
   1  -1  19  193.24   16.15
   0  -1 -18   60.49    8.01
   0   1  16    4.66    3.18
   0   1  16    3.10    2.81
   0   1  15    1.12    1.86
   0   1  15    1.25    1.79
   0   1  14   27.56    9.98
   0   1  14   28.16   12.95
   0   1  13    0.30    2.12
   0   1  13    0.88    1.33
   0   1  12   48.12   10.67
   0   1  12   51.18   13.73
   0   1  11    0.72    1.77
   0   1  11    0.68    1.38
   0   1  10  115.28    6.04
   0   1  10  101.39    5.23
   0   1  10   98.50    5.58
   0   1   9    1.30    1.73
   0   1   9    1.00    0.93
   0   1   9    0.23    1.80
   0   1   8   36.29    3.83
   0   1   8   34.76    5.15
   0   1   8   52.87   11.79
   0   1   7    1.31    1.13
   0   1   7    1.27    1.05
   0   1   7    1.88    3.02
   0   1   6  267.60    8.23
   0   1   6  267.99    9.32
   0   1   6  268.28    8.79
   0   1   5    1.11    0.91
   0   1   5    0.60    1.40
   0   1   5    0.34    1.40
   0   1   4   67.25    4.22
   0  -1  -4   61.49    3.21
   0   1   4   65.54    5.11
   0   1   3    1.15    0.94
   0  -1  -3    0.27    0.72
   0   1   3    2.49    2.58
   0  -1  -2  227.67    2.15
   0   1   2  243.58    6.20
   0   1   1    0.65    0.84
   0  -1  -1    0.09    0.82
   0  -1   0   22.99    1.65
   0  -1   0   21.22    1.89
   0   1   0   24.60    1.77
   0  -1   1    0.58    0.60
   0  -1   1    0.91    1.01
   0   1  -1    0.25    0.65
   0   1  -1    0.65    0.82
   0  -1   1   -0.01    0.44
   0  -1   2  241.54    5.67
   0  -1   2  243.07    4.87
   0   1  -2  243.01    3.22
   0  -1   3    0.07    2.25
   0  -1   3    2.24    2.18
   0  -1   4   73.63    6.60
   0  -1   4   68.60    3.41
   0  -1   5    0.36    2.26
   0  -1   5    0.47    1.61
   0  -1   6  261.35   12.40
   0  -1   6  251.16    7.74
   0   1  -6  275.93    5.22
   0  -1   7    1.38    1.69
   0  -1   7    1.89    2.36
   0   1  -7    0.80    0.64
   0  -1   8   44.39   14.74
   0  -1   8   31.92    3.29
   0   1  -8   32.95    1.62
   0  -1   9    0.12    2.12
   0  -1   9    0.52    1.36
   0   1  -9    0.37    0.61
   0  -1  10   86.88    6.70
   0  -1  10  101.96    8.44
   0  -1  11   -0.41    2.28
   0  -1  11    1.41    2.18
   0  -1  12   46.36   13.32
   0  -1  12   46.99   13.92
   0  -1  13    3.60    3.28
   0  -1  14   32.85   12.83
   0  -1  14   26.87   13.02
   0  -1  15    0.95    3.32
   0  -1  15    0.92    2.48
   0  -1  16    3.25    3.24
   0  -1  17   -0.44    2.99
   0  -1  18   64.84   26.39
   0  -1  19    5.37    4.76
   1   1  18   44.47    7.99
   1   1  17  235.14   11.58
   1   1  16   16.26    4.76
   1   1  15  191.59   13.15
   1   1  14  375.52   16.72
   1   1  13  490.67   16.88
   1   1  12  948.26   21.02
   1   1  12  965.22   17.57
   1   1  11  727.88   17.95
   1   1  11  774.27   14.53
   1   1  10    5.21    2.33
   1   1  10    2.59    1.29
   1   1   9  204.43    9.81
   1   1   9  209.70    6.71
   1   1   8    1.04    1.20
   1   1   7 1042.19   21.92
   1   1   6   36.44    3.47
   1   1   5  717.80   10.46
   1   1   3 1107.34    8.83
  -1  -1  -3 1101.53    7.87
   1   1   2    3.60    0.79
  -1  -1  -2    2.79    0.64
  -1  -1  -2    2.61    0.83
   1   1   1  899.05    6.44
  -1  -1  -1  933.41    6.58
  -1  -1  -1  925.68    8.45
   1   1   0   68.77    2.42
  -1  -1   0   66.18    2.28
  -1  -1   0   70.01    2.62
   1   1   0   65.32    2.42
   1   1  -1  897.77    8.33
   1   1  -1  910.49    9.52
  -1  -1   1  919.29    9.48
  -1  -1   2    4.19    1.30
  -1  -1   2    3.00    1.57
  -1  -1   3 1149.95   13.32
  -1  -1   3 1148.00   12.95
  -1  -1   4 6314.02  121.20
  -1  -1   4 6277.02   31.38
  -1  -1   5  822.22   14.18
  -1  -1   5  779.55   12.00
  -1  -1   5  816.30    6.30
  -1  -1   6   42.62    5.80
  -1  -1   6   38.24    3.30
  -1  -1   6   39.66    2.89
  -1  -1   7 1092.29   24.53
  -1  -1   7 1024.58   21.36
  -1  -1   7 1141.44   18.67
  -1  -1   8    2.26    1.83
  -1  -1   8    0.10    1.54
  -1  -1   9  195.51    8.98
  -1  -1   9  200.09    8.26
  -1  -1  10    5.24    3.30
  -1  -1  10    4.81    1.99
  -1  -1  11  754.57   19.18
  -1  -1  11  751.80   19.23
  -1  -1  12  929.49   22.48
  -1  -1  12  920.96   20.85
  -1  -1  13  449.59   17.27
  -1  -1  13  442.71   20.48
  -1  -1  14  359.26   18.08
  -1  -1  14  355.69   24.43
  -1  -1  15  181.33   13.60
  -1  -1  15  181.43   13.62
  -1  -1  16   17.60    5.16
  -1  -1  16   13.06    7.98
  -1  -1  17  254.51   13.40
   1   1 -18   43.54    8.17
   1   1 -19  165.10   15.21
   2   1  18  131.96   10.69
   2   1  17   10.68    7.29
   2   1  16   93.57   11.34
   2   1  15    9.75    7.59
   2   1  14  237.23   18.33
   2   1  13   50.34   11.68
   2   1  11   75.25    9.65
   2   1  10  678.72   22.92
   2   1   9    9.72    4.04
   2   1   8  361.17   10.77
   2   1   7    9.44    2.21
  -2  -1  -7    9.24    3.46
   2   1   6  488.94   12.71
  -2  -1  -6  454.06    9.31
   2   1   5  172.19    5.51
  -2  -1  -5  168.42    3.82
  -2  -1  -5  180.13    3.80
  -2  -1  -4  498.94    5.96
   2   1   3    1.54    0.65
  -2  -1  -3    1.12    0.56
   2   1   2 1563.61   12.13
  -2  -1  -2 1511.36    9.92
   2   1   2 1589.29   10.91
   2   1   1   34.40    2.19
  -2  -1  -1   37.73    3.15
   2   1   1   34.64    1.97
   2   1   0 1579.64   12.80
  -2  -1   0 1630.17   13.15
   2   1  -1   35.47    2.89
  -2  -1   1   37.07    2.69
   2   1  -2 1578.51   15.43
  -2  -1   2 1571.66   15.42
   2   1  -3    3.77    2.91
  -2  -1   3    4.44    3.64
   2   1  -4  508.44   11.17
  -2  -1   4  536.86   10.67
   2   1  -5  180.27    7.75
  -2  -1   5  176.06    6.96
   2   1  -6  479.62   14.01
  -2  -1   6  482.51   13.04
  -2  -1   6  478.96    9.69
   2   1  -7   12.95    2.72
  -2  -1   7   14.05    2.58
  -2  -1   7   14.11    1.59
   2   1  -8  421.72   13.34
  -2  -1   8  404.73   11.59
  -2  -1   8  360.03    8.20
   2   1  -9   12.92    3.10
  -2  -1   9   13.29    4.79
  -2  -1   9   12.72    4.58
  -2  -1  10  733.86   24.36
   2   1 -11   76.95    7.64
  -2  -1  11   80.48    8.98
  -2  -1  11   80.37    5.29
   2   1 -12  380.31   15.81
  -2  -1  12  365.21   19.16
   2   1 -13   48.79    7.17
  -2  -1  13   44.66   14.55
   2   1 -14  252.91   14.97
  -2  -1  14  262.39   18.68
   2   1 -15    9.53    5.84
  -2  -1  15    7.20    5.63
   2   1 -16   90.69    9.88
  -2  -1  16   92.99   11.19
   2   1 -17    7.48    3.77
  -2  -1  17   10.84    5.01
  -2  -1  18  124.08   12.55
   2   1 -19   41.55    7.41
  -2  -1  19   27.02   17.82
   3   1  18 1155.89   27.36
   3   1  17    7.36    5.13
   3   1  16  719.33   25.02
   3   1  15    3.12    3.26
   3   1  14  440.74   25.98
   3   1  13   54.98   21.18
   3   1  12    5.73    2.88
   3   1  11  105.18    7.68
   3   1  10 2930.77   41.22
   3   1   9   16.91    3.98
   3   1   8 2367.46   37.65
   3   1   7   78.01    5.21
  -3  -1  -7   80.63    1.55
  -3  -1  -7   82.04    1.61
   3   1   6 1209.58   18.52
  -3  -1  -6 1209.95    9.05
   3   1   5   86.89    4.89
  -3  -1  -5   75.93    2.13
   3   1   4  341.24    9.36
  -3  -1  -4  356.18    6.71
   3   1   3  247.61    6.58
  -3  -1  -3  239.15    4.29
   3   1   3  234.01    4.25
   3   1   2 3903.34   23.18
  -3  -1  -2 4045.57   18.97
   3   1   1    5.98    1.53
  -3  -1  -1    4.53    1.34
   3   1   0 4949.62   27.07
  -3  -1   0 4949.64   25.68
   3   1  -1    4.28    1.87
  -3  -1   1    4.73    1.48
   3   1  -2 4060.82   27.34
  -3  -1   2 3836.23   26.05
   3   1  -3  235.29    7.55
  -3  -1   3  227.36    7.31
   3   1  -5   67.26    4.97
  -3  -1   5   73.49    5.20
   3   1  -6 1231.41   20.82
  -3  -1   6 1184.66   19.98
   3   1  -7   81.08    5.95
  -3  -1   7   73.43    5.28
  -3  -1   7   81.79    3.83
   3   1  -8 2426.55   40.20
  -3  -1   8 2419.36   41.64
  -3  -1   8 2504.38   33.40
   3   1  -9   18.11    3.65
  -3  -1   9   22.54    6.65
  -3  -1   9   23.70    2.94
  -3  -1  10 2805.87   40.92
   3   1 -11   98.45    7.91
  -3  -1  11  107.85   15.80
  -3  -1  11  105.05    5.89
   3   1 -12    8.94    4.01
  -3  -1  12    8.31    3.30
  -3  -1  12    4.18    2.00
   3   1 -13   55.04    7.65
  -3  -1  13   58.95   18.83
   3   1 -14  430.22   25.75
  -3  -1  14  410.76   23.59
   3   1 -15    7.78    5.92
  -3  -1  15    3.60    4.36
   3   1 -16  651.48   25.52
  -3  -1  16  649.68   23.58
   3   1 -17    5.23    4.03
  -3  -1  17    6.82    6.52
   4   1  18    0.48    2.48
   4   1  17    9.90    6.83
   4   1  16   22.16   13.73
   4   1  15   14.58    9.05
   4   1  14   20.00    8.63
   4   1  13    4.72    4.00
   4   1  12   50.70   14.88
   4   1  11    7.26    3.40
   4   1  10    6.85    2.93
   4   1   9   58.54    5.49
   4   1   8   19.38    3.45
   4   1   7    5.10    2.97
   4   1   6   66.58    4.96
   4   1   5    4.50    1.64
  -4  -1  -5    2.42    0.74
   4   1   4  294.26    9.26
  -4  -1  -4  319.30    6.92
   4   1   3  153.39    7.14
  -4  -1  -3  148.72    4.50
   4   1   2    3.99    2.08
  -4  -1  -2    1.15    0.73
   4   1   1    3.48    2.38
  -4  -1  -1    1.20    2.19
   4   1   0    6.67    1.96
  -4  -1   0    4.76    1.42
   4   1  -1    3.57    2.94
  -4  -1   1    1.73    1.95
   4   1  -2    3.04    1.72
  -4  -1   2    1.94    2.12
   4   1  -3  157.29    7.04
  -4  -1   3  149.95    6.91
   4   1  -4  277.66   10.03
  -4  -1   4  317.08   10.92
   4   1  -5    5.16    2.69
  -4  -1   5    2.81    1.90
   4   1  -6   62.01    4.98
  -4  -1   6   67.62    8.69
   4   1  -7    2.74    3.28
  -4  -1   7    3.10    2.74
  -4  -1   7    1.90    1.36
   4   1  -8   19.16    3.86
  -4  -1   8   21.48    7.19
  -4  -1   8   21.88    2.66
   4   1  -9   58.11    5.81
  -4  -1   9   52.34    7.82
  -4  -1   9   61.14    4.21
   4   1 -10   17.84    5.00
  -4  -1  10    9.31    5.37
  -4  -1  10    9.71    2.35
   4   1 -11    5.36    3.27
  -4  -1  11    8.98    4.23
  -4  -1  11   10.57    2.51
   4   1 -12   42.05    5.79
  -4  -1  12   42.22   14.89
   4   1 -13    1.73    3.00
  -4  -1  13    2.75    2.31
   4   1 -14   11.27    4.21
  -4  -1  14    9.04    5.44
   4   1 -15   13.23    4.03
  -4  -1  15   19.10   10.37
   4   1 -16   19.78    5.74
  -4  -1  16   18.49   10.61
   4   1 -17    8.80    4.68
  -4  -1  17    2.99    3.86
   4   1 -18    3.16    4.32
   5   1  17  441.10   20.12
   5   1  16   -0.10    3.02
   5   1  15  158.76   12.98
   5   1  14   49.12   19.50
   5   1  13  243.55   18.38
   5   1  12  655.70   26.89
   5   1  11  543.85   19.78
   5   1  10  248.45   12.43
   5   1   9  441.23   14.94
   5   1   8   35.68    4.97
   5   1   7 1142.20   32.39
   5   1   6   91.44    5.96
   5   1   5  358.10   11.06
   5   1   4  972.62   17.39
  -5  -1  -4  960.38   11.36
   5   1   3  425.09   11.02
  -5  -1  -3  426.80    9.40
   5   1   2    9.93    2.60
  -5  -1  -2    7.50    2.87
   5   1   1 1228.95   19.05
  -5  -1  -1 1279.69   18.98
   5   1   0  108.26    5.87
  -5  -1   0  110.45   10.71
   5   1  -1 1245.42   19.94
  -5  -1   1 1264.58   21.83
   5   1  -2    8.25    2.27
  -5  -1   2    8.59    2.81
   5   1  -3  410.71   11.89
  -5  -1   3  441.78   24.36
   5   1  -4  908.79   18.39
  -5  -1   4  994.01   19.70
   5   1  -5  374.32   12.40
  -5  -1   5  362.68   12.51
   5   1  -6   79.70    6.47
  -5  -1   6   87.87   16.45
   5   1  -7 1060.36   31.35
  -5  -1   7  991.34   35.78
   5   1  -8   33.12    5.11
  -5  -1   8   27.62   14.63
  -5  -1   8   33.36    6.28
   5   1  -9  447.39   15.67
  -5  -1   9  437.12   21.22
  -5  -1   9  426.10   11.39
   5   1 -10  249.65   12.64
  -5  -1  10  234.64   17.55
  -5  -1  10  243.30    9.36
   5   1 -11  586.73   24.24
  -5  -1  11  549.63   23.49
  -5  -1  11  572.36   20.07
   5   1 -12  701.49   28.00
  -5  -1  12  681.24   27.49
  -5  -1  12  687.31   23.97
   5   1 -13  241.84   17.13
  -5  -1  13  253.19   24.38
   5   1 -14   40.52    6.33
  -5  -1  14   41.16   18.64
   5   1 -15  156.28   11.35
  -5  -1  15  151.27   14.95
   5   1 -16    3.35    4.78
  -5  -1  16   -0.55    3.01
   5   1 -17  408.97   18.54
  -5  -1  17  400.05   25.34
   6   1  16  265.76   16.47
   6   1  15    0.91    5.23
   6   1  14   92.16   14.42
   6   1  13    1.78    3.81
   6   1  12  245.19   16.94
   6   1  11   19.86    4.75
   6   1  10   93.58    7.95
   6   1   9    5.29    2.78
   6   1   8  570.92   18.36
   6   1   7   24.52    4.05
   6   1   6  377.38   12.83
   6   1   5   14.25    3.96
  -6  -1  -5   10.72    3.12
   6   1   5    9.94    1.40
   6   1   4 1015.56   29.09
  -6  -1  -4 1006.55   24.92
   6   1   3   61.23    5.33
  -6  -1  -3   61.21    6.28
   6   1   2  225.64    9.11
  -6  -1  -2  220.89    8.94
   6   1   1   10.70    2.76
  -6  -1  -1   10.97    3.04
   6   1   0  487.44   13.69
  -6  -1   0  491.83   14.32
   6   1  -1    9.04    2.43
  -6  -1   1    9.60    5.08
   6   1  -2  217.07    9.47
  -6  -1   2  234.65   17.80
   6   1  -3   62.46    5.63
  -6  -1   3   73.82   19.33
  -6  -1   4 1036.23   30.68
   6   1  -5   13.10    3.49
  -6  -1   5   13.13    4.73
   6   1  -6  364.25   13.59
  -6  -1   6  383.92   15.44
   6   1  -7   20.81    4.22
  -6  -1   7   19.56    7.84
   6   1  -8  525.33   18.09
  -6  -1   8  540.74   19.01
   6   1  -9    7.55    3.16
  -6  -1   9    8.32    4.58
  -6  -1   9    5.89    3.38
   6   1 -10  112.44   10.33
  -6  -1  10   79.75   11.14
  -6  -1  10   97.73    6.87
   6   1 -11   17.17    4.63
  -6  -1  11   26.94   10.60
  -6  -1  11   19.37    3.58
   6   1 -12  265.81   18.05
  -6  -1  12  283.96   26.68
  -6  -1  12  278.24   16.08
   6   1 -13    3.74    3.97
  -6  -1  13    1.61    4.09
   6   1 -14  102.58   11.19
  -6  -1  14   87.19   28.49
  -6  -1  15    1.34    3.46
   6   1 -16  275.39   15.52
  -6  -1  16  266.47   16.75
   6   1 -17    0.38    3.99
  -6  -1  17    4.14    4.79
   7   1  16   54.04   18.06
   7   1  15  145.12   12.67
   7   1  14  334.33   20.26
   7   1  13  276.52   15.18
   7   1  12  835.54   32.45
   7   1  11  128.94   11.28
   7   1  10   55.32    7.13
   7   1   9  129.94   10.02
   7   1   8   74.75    6.78
   7   1   7   82.41    6.94
   7   1   6  213.27   10.44
   7   1   5  624.37   16.99
  -7  -1  -5  597.85   10.72
   7   1   4 2905.94   40.43
  -7  -1  -4 2797.43   31.90
   7   1   3  402.53   13.25
  -7  -1  -3  406.23   12.33
   7   1   2  126.43    7.61
   7   1   1  110.66    7.29
  -7  -1  -1  119.28   16.39
   7   1   0   46.19    4.86
  -7  -1   0   58.00   13.23
   7   1  -1  117.82    7.98
  -7  -1   1  116.12   12.83
   7   1  -2  125.71    8.67
  -7  -1   2  123.85    8.72
   7   1  -3  400.65   13.84
  -7  -1   3  421.92   27.01
   7   1  -4 2853.04   42.19
  -7  -1   4 2883.47   48.29
   7   1  -5  648.37   18.94
  -7  -1   5  639.95   18.67
   7   1  -6  199.33   10.95
  -7  -1   6  212.34   15.60
   7   1  -7   82.19    7.89
  -7  -1   7   86.78   22.92
   7   1  -8   68.53    7.23
  -7  -1   8   84.78   20.33
   7   1  -9  114.11    9.56
  -7  -1   9  126.73   11.18
  -7  -1   9  101.18   10.23
   7   1 -10   53.09    6.80
  -7  -1  10   46.59   20.45
  -7  -1  10   54.23    5.61
   7   1 -11  135.04   11.61
  -7  -1  11  133.04   19.03
  -7  -1  11  118.41   10.80
   7   1 -12  837.89   31.59
  -7  -1  12  828.58   37.16
   7   1 -13  303.37   15.27
  -7  -1  13  302.52   22.68
   7   1 -14  382.22   20.93
   7   1 -15  144.96   11.88
  -7  -1  15  128.65   29.51
   7   1 -16   69.44   10.63
  -7  -1  16   45.15   28.34
   8   1  15    3.64    4.95
   8   1  13   10.21    4.92
   8   1  12   25.83    6.63
   8   1  11   10.89    4.15
   8   1  10   52.01    7.43
   8   1   9    5.74    5.27
   8   1   8   28.51    5.98
   8   1   7   16.28    4.33
   8   1   6    7.36    2.99
   8   1   5   22.16    4.01
   8   1   4    8.11    3.10
  -8  -1  -4    8.61    4.00
   8   1   3   10.63    3.23
  -8  -1  -3    9.41    4.65
   8   1   2   56.56    6.35
  -8  -1  -2   43.70   12.58
   8   1   1   14.48    3.51
  -8  -1  -1   15.32    7.23
   8   1   0  260.37   11.81
  -8  -1   0  259.31   20.30
   8   1  -1   15.86    4.81
  -8  -1   1   16.79    5.66
   8   1  -2   49.59    5.64
  -8  -1   2   52.16   12.67
   8   1  -3   11.01    3.68
  -8  -1   3   12.85    8.38
   8   1  -4   12.57    4.64
  -8  -1   4    7.99    2.90
   8   1  -5   18.36    4.58
  -8  -1   5   21.35    6.88
   8   1  -6   12.94    4.77
  -8  -1   6   10.62    6.58
   8   1  -7   12.99    3.96
  -8  -1   7   15.04    5.95
   8   1  -8   36.80    5.89
  -8  -1   8   34.14   10.22
   8   1  -9    5.03    5.11
  -8  -1   9    4.94    4.85
  -8  -1   9    3.06    3.22
   8   1 -10   65.79    8.69
  -8  -1  10   52.28   14.79
  -8  -1  10   58.31    6.27
   8   1 -11   13.83    5.15
  -8  -1  11   18.04   11.86
  -8  -1  11   13.94    3.99
   8   1 -12   24.60    6.20
  -8  -1  12   17.33    9.76
   8   1 -13    9.49    4.69
  -8  -1  13    7.99    8.25
   8   1 -14    7.77    5.96
  -8  -1  14    1.30    2.37
   8   1 -15    1.12    4.04
  -8  -1  15    4.22    3.09
   9   1  13  295.60   21.56
   9   1  12   18.27    7.32
   9   1  11  204.89   15.57
   9   1  10  738.42   23.72
   9   1   9    3.58    2.71
   9   1   8  783.29   30.26
   9   1   7  129.48   10.98
   9   1   6  464.08   25.76
   9   1   5  330.19   19.65
   9   1   4    3.84    3.81
   9   1   3  288.37   15.17
  -9  -1  -3  272.24   13.24
   9   1   2  982.47   34.75
  -9  -1  -2 1057.16   36.69
   9   1   1   42.18    6.05
  -9  -1  -1   40.56    9.87
   9   1   0  928.21   33.17
  -9  -1   0  933.04   32.96
   9   1  -1   50.46    5.90
   9   1  -2 1042.48   36.58
  -9  -1   2 1084.67   35.51
   9   1  -3  291.29   15.46
  -9  -1   3  287.93   19.77
   9   1  -4    4.07    3.45
  -9  -1   4    1.45    2.91
   9   1  -5  387.48   23.05
  -9  -1   5  377.27   34.97
   9   1  -6  549.25   30.32
  -9  -1   6  569.15   47.29
   9   1  -7  101.96   10.26
  -9  -1   7  119.46   12.04
  -9  -1   8  757.37   37.64
   9   1  -9   12.97    6.45
  -9  -1   9    1.72    3.87
  -9  -1   9    2.72    3.18
   9   1 -10  768.73   23.26
  -9  -1  10  781.40   25.25
  -9  -1  10  767.91   21.04
   9   1 -11  201.50   14.74
  -9  -1  11  190.66   17.41
  -9  -1  11  198.45   12.90
   9   1 -12   11.99    4.32
  -9  -1  12   10.83    7.53
   9   1 -13  290.94   20.19
  -9  -1  13  257.81   19.76
  10   1  12   55.38    8.83
  10   1  11    4.94    5.82
  10   1  10  190.85   14.35
  10   1   9    0.26    3.36
  10   1   8  105.17   11.13
  10   1   7   40.02    8.03
  10   1   6  293.27   15.51
  10   1   5    4.39    5.43
  10   1   4  144.67   10.57
  10   1   3    6.09    4.23
  10   1   2  309.10   16.35
 -10  -1  -2  285.83   13.70
  10   1   1   21.81    4.65
 -10  -1  -1   15.19    8.93
  10   1   0  102.82    9.36
 -10  -1   0  100.39   11.04
  10   1  -1   22.17    4.72
 -10  -1   1   16.51    5.83
  10   1  -2  301.59   16.46
 -10  -1   2  293.06   20.51
  10   1  -3    3.23    3.32
 -10  -1   3    2.37    3.27
  10   1  -4  154.81   11.74
 -10  -1   4  146.81   19.20
  10   1  -5    4.10    5.28
 -10  -1   5    1.40    3.83
  10   1  -6  301.26   16.11
 -10  -1   6  318.94   25.74
  10   1  -7   24.19    5.45
 -10  -1   7   21.72    7.78
  10   1  -8  106.05   10.46
 -10  -1   8   90.92   18.36
  10   1  -9    7.25    5.37
 -10  -1   9    1.06    3.73
 -10  -1   9    3.25    3.40
  10   1 -10  206.83   15.12
 -10  -1  10  195.07   31.96
 -10  -1  10  202.76   14.55
  10   1 -11    0.72    3.81
 -10  -1  11    1.06    3.61
 -10  -1  11    3.10    5.90
  10   1 -12   64.14   10.50
 -10  -1  12   72.29   12.65
  11   1   9  549.04   31.96
  11   1   8   38.55    7.26
  11   1   7  272.52   24.05
  11   1   6    2.00    4.43
  11   1   5   95.83   13.55
  11   1   4   87.22    9.96
  11   1   3  104.96   10.01
  11   1   2   69.24    8.06
  11   1   1  557.88   19.56
  11   1   0   51.44    8.02
 -11  -1   0   40.23   11.59
  11   1  -1  565.14   19.80
 -11  -1   1  551.23   30.89
  11   1  -2   65.41    7.43
 -11  -1   2   58.79   12.74
  11   1  -3   89.62    8.75
 -11  -1   3   87.17   18.56
  11   1  -4   90.06    8.86
 -11  -1   4   93.94   22.63
  11   1  -5   84.18   12.85
 -11  -1   5   75.02   18.44
  11   1  -6    1.28    3.52
 -11  -1   6    0.74    2.50
  11   1  -7  290.10   17.58
 -11  -1   7  281.51   47.20
  11   1  -8   40.87    6.88
 -11  -1   8   23.65   13.54
  11   1  -9  533.95   31.02
 -11  -1   9  580.66   41.04
 -11  -1   9  530.80   35.19
  12   1   6   37.30    9.19
  12   1   5    7.58    6.03
  12   1   4    1.23    3.94
  12   1   3    7.23    5.82
  12   1   2   14.37    5.91
  12   1   1   15.67    6.50
  12   1   0    5.69    4.22
  12   1  -1   10.21    5.91
 -12  -1   1    7.56    7.11
  12   1  -2   17.32    5.43
 -12  -1   2    8.29    9.39
  12   1  -3   10.07    5.72
 -12  -1   3    0.07    2.60
  12   1  -4    4.75    4.13
 -12  -1   4    1.23    3.30
  12   1  -5   11.04    6.46
 -12  -1   5    4.94    5.66
  12   1  -6   38.94    9.76
 -12  -1   6   35.23   22.32
  12  -2  -5  297.83   21.04
 -12   2   5  264.27   20.53
  12  -2  -4   22.11   20.49
 -12   2   4   38.00    7.79
  12  -2  -3  387.87   25.15
  12  -2  -2  599.86   22.49
 -12   2   2  574.40   23.28
  12  -2  -1    3.40    4.99
  12  -2   0  152.58   11.70
  12  -2   1    8.08    4.34
  12  -2   2  555.67   21.72
  12  -2   3  342.87   30.45
  12  -2   4   43.73    9.58
  12  -2   5  291.43   21.73
  11  -2  -9   17.34    5.49
 -11   2   9   28.97    8.30
  11  -2  -8   31.42    6.65
 -11   2   8   35.73    7.48
  11  -2  -7   10.01    4.28
 -11   2   7   11.38    5.29
  11  -2  -6   87.28    9.14
 -11   2   6   81.55    9.92
  11  -2  -5   33.48    6.57
 -11   2   5   31.81    7.21
  11  -2  -4   80.63   11.64
 -11   2   4   80.80   17.11
  11  -2  -3   49.64   13.24
 -11   2   3   65.65   10.76
  11  -2  -2   32.68    7.39
 -11   2   2   38.44    7.54
  11  -2  -1   18.14    6.27
  11  -2   0   17.94    5.18
  11  -2   1   15.86    4.79
  11  -2   2   32.91    6.85
  11  -2   3   68.55   11.13
  11  -2   4   67.52   25.99
  11  -2   5   31.57    6.72
  11  -2   6   78.34    9.30
  11  -2   7   13.06    5.46
  11  -2   8   33.90    7.25
  11  -2   9   22.07    7.21
  10  -2 -11   40.20    7.23
 -10   2  11   55.56    9.67
  10  -2 -10  273.64   15.07
 -10   2  10  265.88   16.38
  10  -2  -9    8.54    3.71
 -10   2   9    9.57    4.73
  10  -2  -8    7.75    2.85
 -10   2   8   13.92    5.57
  10  -2  -7   10.44    4.48
 -10   2   7   14.77    5.41
  10  -2  -6  762.65   22.58
 -10   2   6  746.04   23.66
  10  -2  -5  326.87   16.23
 -10   2   5  336.07   17.44
  10  -2  -4  481.49   21.50
 -10   2   4  433.45   21.72
  10  -2  -3  148.69   11.48
 -10   2   3  140.18   11.70
  10  -2  -2  575.99   24.50
  10  -2  -1   19.58    6.15
  10  -2   0   24.18    5.49
  10  -2   1   18.40    4.80
  10  -2   3  134.21   11.11
  10  -2   4  475.05   22.43
  10  -2   5  343.49   18.08
  10  -2   6  726.55   24.18
  10  -2   7   18.02    5.84
  10  -2   8   14.67    5.99
  10  -2   9   15.94    6.07
  10  -2  10  250.97   16.28
  10  -2  11   46.18    8.30
  -9   2  13    5.35    5.86
   9  -2 -12    2.45    3.34
  -9   2  12    2.11    4.37
  -9   2  12    8.04    6.23
   9  -2 -11    4.93    5.10
  -9   2  11    1.19    3.96
  -9   2  10  212.84   15.29
  -9   2  10  205.11   13.88
   9  -2  -9   37.98    6.04
  -9   2   9   28.85    6.09
  -9   2   9   39.56    8.57
   9  -2  -8    7.41    3.93
  -9   2   8    5.34    6.43
   9  -2  -7   19.87    6.16
  -9   2   7   17.61    5.61
   9  -2  -6  175.34   11.92
  -9   2   6  166.61   12.20
   9  -2  -5    2.13    4.63
  -9   2   5    6.09    5.09
   9  -2  -4    8.19    3.37
  -9   2   4   13.03    4.82
   9  -2  -3   18.11    5.33
  -9   2   3   10.86    4.14
   9  -2  -2  280.66   15.16
   9  -2  -1   25.30    5.71
   9  -2   0   28.40    5.46
   9  -2   1   20.49    5.20
   9  -2   2  260.21   14.56
   9  -2   3   14.22    4.43
   9  -2   4   10.85    4.69
   9  -2   5    2.66    3.97
   9  -2   6  136.80   11.21
   9  -2   7   12.66    3.86
   9  -2   8    5.36    4.00
   9  -2   9   40.38    7.52
   9  -2  10  207.03   15.23
   9  -2  11    2.86    3.72
   9  -2  12    7.10    7.20
   9  -2  13    0.83    4.93
   8  -2 -14    6.78    6.42
  -8   2  14    3.18    6.05
  -8   2  14    3.48    4.25
   8  -2 -13   61.67    7.63
  -8   2  13   73.73   10.21
  -8   2  13   61.15    8.47
   8  -2 -12  264.07   15.63
  -8   2  12  265.33   17.30
   8  -2 -11  219.82   11.61
  -8   2  11  226.54   14.26
  -8   2  11  211.54   12.33
   8  -2 -10  239.71   13.74
  -8   2  10  230.32   15.33
  -8   2  10  222.89   14.06
   8  -2  -9  684.31   25.65
  -8   2   9  705.71   29.27
  -8   2   9  651.88   26.52
   8  -2  -8    0.82    2.79
  -8   2   8    1.38    3.81
  -8   2   8   -0.14    3.24
   8  -2  -7  452.54   24.91
  -8   2   7  458.74   26.63
  -8   2   7  440.09   25.29
   8  -2  -6   75.54    7.34
  -8   2   6   96.20    9.03
   8  -2  -5  159.64   10.42
  -8   2   5  151.34   10.92
   8  -2  -4  715.99   26.92
  -8   2   4  735.24   28.69
   8  -2  -3  279.09   13.16
  -8   2   3  265.80   14.01
   8  -2  -2   39.56    5.63
   8  -2  -1  739.93   23.00
   8  -2   0  178.72   10.49
   8  -2   1  692.31   21.91
   8  -2   2   40.21    5.77
   8  -2   3  270.78   13.38
   8  -2   4  729.86   28.81
   8  -2   5  142.05   10.76
   8  -2   6   56.25    6.93
   8  -2   6   77.62    6.38
   8  -2   7  465.99   26.95
   8  -2   8    3.62    4.93
   8  -2   9  650.43   27.22
   8  -2  10  245.87   15.63
   8  -2  11  205.61   13.92
   8  -2  12  264.32   17.96
   8  -2  13   66.93    9.76
   8  -2  14    4.00    7.61
   7  -2 -15    4.31    3.65
  -7   2  15    4.80    4.18
  -7   2  15    2.17    2.42
   7  -2 -14    3.06    2.46
  -7   2  14    7.04    4.81
  -7   2  14    4.20    4.44
   7  -2 -13    3.29    3.60
  -7   2  13    4.81    5.33
  -7   2  13    6.68    6.34
   7  -2 -12  184.72   11.13
  -7   2  12  157.52   15.23
  -7   2  12  176.69   12.98
   7  -2 -11   41.31    5.96
  -7   2  11   32.82   17.10
  -7   2  11   48.34    6.34
  -7   2  10   42.45   18.78
  -7   2  10   33.32    5.60
   7  -2  -9   16.47    4.33
  -7   2   9   16.76   11.18
  -7   2   9   13.66    4.30
   7  -2  -8  281.30   14.14
  -7   2   8  294.09   18.11
  -7   2   8  271.54   14.44
   7  -2  -7   12.42    3.88
  -7   2   7   17.81    4.48
  -7   2   7   19.58    7.58
   7  -2  -6    4.08    2.85
  -7   2   6    4.87    4.43
  -7   2   6    2.89    3.26
   7  -2  -5   28.60    4.47
  -7   2   5   30.61    4.97
   7  -2  -4   82.20    6.21
  -7   2   4   92.24    7.99
   7  -2  -3   44.43    4.82
  -7   2   3   38.79    8.39
   7  -2  -2   36.28    4.64
  -7   2   2   35.68    5.13
   7  -2  -1   19.96    8.31
   7  -2   0  760.54   19.25
   7  -2   1   20.80    4.16
   7  -2   2   34.14    4.64
   7  -2   3   40.77    5.31
   7  -2   4   80.83    7.49
   7  -2   5   30.43    5.68
   7  -2   5   24.36    3.52
   7  -2   6    2.29    5.17
   7  -2   6    5.80    3.33
   7  -2   7   14.54    5.00
   7  -2   7   13.46    2.93
   7  -2   8  266.29   14.63
   7  -2   9   11.05    3.95
   7  -2  10   35.27    6.50
   7  -2  11   44.05    6.69
   7  -2  12  159.65   13.53
   7  -2  13    3.68    4.29
   7  -2  14   11.25    9.75
   7  -2  15    4.96    4.72
   6  -2 -15   15.58    4.65
  -6   2  15   17.23    5.61
  -6   2  15   24.50   12.46
   6  -2 -14    8.27    4.66
  -6   2  14   10.35    5.23
  -6   2  14    5.44    3.30
   6  -2 -13  155.79   10.30
  -6   2  13  144.97   18.47
  -6   2  13  144.00   11.16
   6  -2 -12  400.77   17.93
  -6   2  12  431.85   21.30
  -6   2  12  393.61   24.38
   6  -2 -11  171.87   12.10
  -6   2  11  155.64   22.77
  -6   2  11  176.47   13.33
   6  -2 -10  379.23   17.04
  -6   2  10  402.89   21.59
  -6   2  10  386.81   18.07
   6  -2  -9    3.81    3.57
  -6   2   9    1.48    2.02
  -6   2   9    3.20    2.91
   6  -2  -8 2836.59   33.32
  -6   2   8 2860.12   50.88
  -6   2   8 2721.40   52.05
   6  -2  -7   85.59    7.55
  -6   2   7   89.20    7.89
  -6   2   7   83.50    7.10
   6  -2  -6  246.46   10.09
  -6   2   6  250.49   12.02
  -6   2   6  245.95   15.77
   6  -2  -5  176.99   12.03
  -6   2   5  168.89    9.51
   6  -2  -4  344.55   13.38
  -6   2   4  366.56   15.69
   6  -2  -3  470.46   16.47
  -6   2   3  435.10   17.06
   6  -2  -2  371.12   14.07
  -6   2   2  333.79   14.35
   6  -2  -1    4.80    2.06
   6  -2   0 5352.04   43.97
   6  -2   1    2.77    1.88
   6  -2   2  352.12   14.16
   6  -2   3  489.73   17.95
   6  -2   4  349.54   14.73
   6  -2   5  169.05    9.58
   6  -2   6  240.32   11.52
   6  -2   6  244.79    9.01
   6  -2   7   76.76    7.17
   6  -2   7   79.21    4.86
   6  -2   8 2549.03   51.06
   6  -2   8 2619.29   42.51
   6  -2   9    7.86    4.69
   6  -2  10  372.76   19.09
   6  -2  11  162.32   13.31
   6  -2  12  388.80   20.81
   6  -2  13  164.08   16.10
   6  -2  14    3.81    5.96
   6  -2  15   27.36   19.85
   6  -2  16  888.56   32.09
   5  -2 -16   52.35    6.82
   5  -2 -15   55.04    6.98
  -5   2  15   68.11    8.76
  -5   2  15   45.01   29.39
   5  -2 -14   41.49    5.36
  -5   2  14   52.68    7.87
  -5   2  14   67.50   20.65
   5  -2 -13   35.85    5.58
  -5   2  13   29.77   15.73
  -5   2  13   43.01   14.33
   5  -2 -12   91.93    7.05
  -5   2  12   83.03   26.04
  -5   2  12   83.45   21.92
   5  -2 -11   14.23    3.76
  -5   2  11   18.55    7.34
  -5   2  11   16.17    5.22
   5  -2 -10   13.48    3.00
  -5   2  10   19.39    7.03
  -5   2  10   15.72    4.17
   5  -2  -9   93.66    6.49
  -5   2   9   93.68   27.15
  -5   2   9   87.41    7.11
   5  -2  -8  153.92    7.98
  -5   2   8  147.47   14.13
  -5   2   8  139.14    8.57
   5  -2  -7   94.78    6.39
  -5   2   7   82.25    6.99
  -5   2   7   81.67    6.50
   5  -2  -6  167.99    8.53
  -5   2   6  148.94    9.27
  -5   2   6  143.23    9.15
   5  -2  -5   44.55    4.16
  -5   2   5   43.37    5.69
   5  -2  -4  309.79   10.04
  -5   2   4  307.71   11.69
   5  -2  -3   64.72    4.67
  -5   2   3   60.23    5.79
   5  -2  -2   88.97    5.58
  -5   2   2   87.33    7.06
   5  -2  -1  114.03    6.79
  -5   2   1  109.12    6.54
   5  -2   0  151.58    6.95
   5  -2   1   97.06    5.89
   5  -2   2   85.66    5.66
   5  -2   3   66.98    5.57
   5  -2   4  295.89   11.16
   5  -2   4  304.80   10.14
   5  -2   5   51.94    5.39
   5  -2   5   45.30    4.23
   5  -2   6  151.31    9.47
   5  -2   6  124.99    6.10
   5  -2   7   77.78    7.20
   5  -2   7   94.07    5.04
   5  -2   8  132.50    9.15
   5  -2   8  148.53    5.84
   5  -2   9   91.50    7.97
   5  -2   9   90.64    4.57
   5  -2  10   14.63    3.96
   5  -2  11   15.75    5.21
   5  -2  12   80.47   11.44
   5  -2  13   30.68   18.80
   5  -2  14   57.76   22.61
   5  -2  16   54.32   38.14
   5  -2  17   15.50   11.99
   4  -2 -16   29.56    6.38
  -4   2  16   21.84   13.14
   4  -2 -15  135.80    9.10
  -4   2  15  120.79    9.75
   4  -2 -14  237.94   12.53
  -4   2  14  216.94   13.57
  -4   2  14  245.49   14.59
   4  -2 -13  501.21   26.20
  -4   2  13  489.49   27.13
  -4   2  13  499.69   29.16
   4  -2 -12 1520.26   46.89
  -4   2  12 1558.33   50.82
  -4   2  12 1605.53   36.94
   4  -2 -11  330.47   12.29
  -4   2  11  341.43   18.09
  -4   2  11  332.05   15.80
   4  -2 -10   12.19    2.85
  -4   2  10   14.30    8.02
  -4   2  10    9.16    3.99
   4  -2  -9  103.15    6.15
  -4   2   9  111.70   12.47
  -4   2   9  112.95    8.18
   4  -2  -8   38.48    4.01
  -4   2   8   45.30   14.43
  -4   2   8   40.14    4.96
   4  -2  -7  479.90   15.72
  -4   2   7  479.00   17.82
  -4   2   7  463.33   17.04
   4  -2  -6  170.68    7.11
  -4   2   6  139.69    7.50
  -4   2   6  157.73    7.88
   4  -2  -5  866.47   15.43
  -4   2   5  870.52   18.00
   4  -2  -4 4712.68   43.49
  -4   2   4 4712.50   48.97
   4  -2  -3  406.15    9.77
  -4   2   3  404.88   11.82
   4  -2  -2   67.10    4.42
  -4   2   2   51.03    4.96
   4  -2  -1  497.52   13.01
  -4   2   1  519.08   14.56
   4  -2   0  426.41   11.82
  -4   2   0  435.98   12.85
   4  -2   1  470.75   12.88
   4  -2   2   63.23    4.83
   4  -2   3  412.31   11.40
   4  -2   4 4585.36   48.90
   4  -2   4 4670.02   46.00
   4  -2   5  826.79   17.62
   4  -2   5  823.34   15.74
   4  -2   6  170.18    8.78
   4  -2   6  171.51    6.87
   4  -2   7  464.21   17.98
   4  -2   7  478.56   14.42
   4  -2   8   44.57    6.69
   4  -2   8   35.87    2.92
   4  -2   9  117.84    9.88
   4  -2   9  107.13    5.05
   4  -2  10   18.17    4.24
   4  -2  10   10.14    1.89
   4  -2  11  322.04   18.07
   4  -2  11  312.91    9.64
   4  -2  12 1566.20   44.26
   4  -2  13  500.96   30.68
   4  -2  14  224.77   15.50
   4  -2  15  141.68   37.70
   4  -2  16   25.91   18.88
   4  -2  17   70.22   12.85
   4  -2  18    3.97    6.49
   3  -2 -16    7.03    3.49
  -3   2  16    5.36    4.64
   3  -2 -15   15.42    3.63
  -3   2  15   19.27   10.84
  -3   2  14  262.61   15.59
   3  -2 -13    0.13    1.89
  -3   2  13    2.12    2.75
  -3   2  13    1.03    3.22
   3  -2 -12    3.85    1.89
  -3   2  12    7.62    3.64
  -3   2  12    1.86    1.73
   3  -2 -11    7.54    2.64
  -3   2  11    3.58    2.38
   3  -2 -10  215.16    8.56
  -3   2  10  211.66   10.39
  -3   2  10  206.19   18.38
   3  -2  -9   47.16    4.25
  -3   2   9   43.35    5.05
  -3   2   9   47.42    7.20
   3  -2  -8    3.18    2.67
  -3   2   8    1.73    2.20
  -3   2   8    2.17    8.99
   3  -2  -7    4.47    1.68
  -3   2   7    4.21    2.43
   3  -2  -6 1179.45   16.94
  -3   2   6 1196.44   21.21
   3  -2  -5    5.64    1.57
  -3   2   5    5.59    2.15
   3  -2  -4   68.88    3.99
  -3   2   4   57.88    4.75
   3  -2  -3   14.59    2.15
  -3   2   3   19.79    2.96
   3  -2  -2  699.57   14.80
  -3   2   2  689.15   17.17
   3  -2  -1    8.05    1.82
  -3   2   1    4.39    2.07
   3  -2   0  100.36    4.64
  -3   2   0  103.88    5.66
   3  -2   1    4.55    1.53
  -3   2  -1    7.65    2.34
   3  -2   2  704.25   16.23
   3  -2   3   17.04    2.83
   3  -2   3   18.30    3.22
   3  -2   4   65.62    4.90
   3  -2   4   66.40    4.93
   3  -2   5    4.16    2.03
   3  -2   5    4.39    1.88
   3  -2   6 1177.25   21.87
   3  -2   6 1177.77   17.30
   3  -2   7    2.84    3.24
   3  -2   7    3.31    1.49
   3  -2   8    3.63    3.31
   3  -2   8    0.66    1.22
   3  -2   9   40.72   16.80
   3  -2   9   41.01    3.38
   3  -2  10  206.59   12.42
   3  -2  10  217.47    7.67
   3  -2  11    3.78    3.18
   3  -2  11    3.31    1.44
   3  -2  12    5.93    4.78
   3  -2  12    3.45    1.73
   3  -2  13    2.97    2.25
   3  -2  13    1.24    1.96
   3  -2  14  343.48   19.83
   3  -2  15   25.66   15.58
   3  -2  16    3.80    5.49
   3  -2  18  106.50   15.41
   2  -2 -16  176.02   10.29
  -2   2  16  180.37   11.95
   2  -2 -15  315.76   14.36
  -2   2  15  331.93   22.46
  -2   2  14  731.52   39.08
   2  -2 -13  129.63    8.13
  -2   2  13  115.15   28.18
   2  -2 -12  257.77   10.18
  -2   2  12  188.66   18.79
   2  -2 -11  672.56   15.08
  -2   2  11  603.17   18.23
   2  -2 -10   40.28    4.20
  -2   2  10   40.07   16.51
  -2   2   9  772.86   26.73
   2  -2  -8  726.28   14.27
  -2   2   8  757.00   19.96
   2  -2  -7  561.56   10.54
  -2   2   7  577.13   15.30
   2  -2  -6 1667.47   18.80
  -2   2   6 1702.52   26.22
   2  -2  -5  219.82    6.32
  -2   2   5  221.36    9.05
   2  -2  -4  381.96    8.58
  -2   2   4  407.95   13.63
   2  -2  -3 2800.55   16.52
  -2   2   3 2814.42   25.56
   2  -2  -2  533.57    7.59
  -2   2   2  519.98   10.83
   2  -2  -1  314.15    6.08
  -2   2   1  329.51    8.17
  -2   2   0  868.32   12.53
   2  -2   1  313.15    7.28
  -2   2  -1  323.82    7.52
   2  -2   2  497.66    9.70
   2  -2   2  526.52   11.57
  -2   2  -2  536.47    9.33
   2  -2   3 2804.59   25.25
   2  -2   3 2688.25   25.14
  -2   2  -3 2795.97   19.78
   2  -2   4  372.06   11.45
   2  -2   4  380.96   10.98
   2  -2   5  206.77    9.11
   2  -2   5  211.43    7.65
   2  -2   6 1597.88   25.68
   2  -2   6 1538.98   19.87
   2  -2   7  528.96   26.86
   2  -2   7  540.32   11.37
   2  -2   8  679.05   28.48
   2  -2   8  700.16   14.74
   2  -2   9  799.35   27.80
   2  -2   9  754.73   21.46
   2  -2  10   44.64   15.96
   2  -2  10   38.63    3.88
   2  -2  11  654.14   24.16
   2  -2  11  631.34   14.25
   2  -2  12  252.87   13.93
   2  -2  12  246.96    9.57
   2  -2  13  119.16   10.44
   2  -2  13  123.29    7.46
   2  -2  14  703.43   46.59
   2  -2  14  661.14   32.18
   2  -2  15  309.13   17.93
   2  -2  16  150.52   13.42
   2  -2  17  343.72   21.01
   2  -2  18    5.18    6.70
   1  -2 -16  126.43    8.51
   1  -2 -15   78.27    6.61
  -1   2  15   93.43    9.02
   1  -2 -14   16.77    3.61
  -1   2  14   21.43    9.63
   1  -2 -13   17.00    3.40
  -1   2  13   16.61    5.51
   1  -2 -12  136.78    7.57
  -1   2  12  138.46   11.65
   1  -2 -11    6.83    2.00
  -1   2  11   12.02    5.30
  -1   2  10   64.53   16.31
   1  -2  -9  161.63    7.08
  -1   2   9  157.06    9.71
   1  -2  -8  486.80   10.57
  -1   2   8  448.49   21.99
   1  -2  -7   73.82    3.50
  -1   2   7   77.52    7.43
   1  -2  -6   28.17    2.17
  -1   2   6   32.43    9.42
   1  -2  -5   19.06    1.87
   1  -2  -5   22.74    1.67
  -1   2   5   32.97   10.70
   1  -2  -4  143.31    3.13
  -1   2   4  137.28    6.57
   1  -2  -3  125.74    3.52
  -1   2   3  126.75    3.64
  -1   2   3  139.93   16.06
   1  -2  -2  108.75    2.62
  -1   2   2  111.46    2.62
  -1   2   2  126.09    6.11
   1  -2  -1  110.76    3.06
  -1   2   1  116.48    3.80
  -1   2   1  121.10    5.68
   1  -2   0 1230.51   11.21
   1  -2   0 1253.91   15.77
  -1   2   0 1229.03   13.97
   1  -2   1  123.37    5.05
   1  -2   1  120.18    6.31
  -1   2  -1  121.36    4.94
   1  -2   2  118.70    5.58
   1  -2   2  112.82    5.86
  -1   2  -2  115.21    3.84
   1  -2   3  134.35    6.41
   1  -2   3  130.55    5.85
  -1   2  -3  132.58    3.75
   1  -2   4  137.95   10.16
   1  -2   4  146.36    5.82
  -1   2  -4  144.59    3.70
   1  -2   5   27.87    9.18
   1  -2   5   22.05    2.64
  -1   2  -5   24.87    1.71
   1  -2   6   32.15    9.39
   1  -2   6   24.25    2.87
  -1   2  -6   26.34    1.57
   1  -2   7   70.33   14.32
   1  -2   7   70.82    4.37
  -1   2  -7   69.68    2.05
   1  -2   8  459.21   27.49
   1  -2   8  465.90   11.92
  -1   2  -8  477.29    7.01
   1  -2   9  162.35   16.70
   1  -2   9  173.45    8.22
  -1   2  -9  159.80    4.27
   1  -2  10   63.21   13.10
   1  -2  10   60.62    4.55
   1  -2  11   10.35    5.92
   1  -2  11    8.30    2.22
   1  -2  12  159.00   10.77
   1  -2  12  134.76    7.22
   1  -2  13   14.17    6.41
   1  -2  13   14.81    3.15
   1  -2  14   12.19   11.38
   1  -2  14   17.73    6.37
   1  -2  15   75.76   11.04
   1  -2  15   82.41   10.28
   1  -2  16  133.83   18.09
   1  -2  17   12.28   10.74
   1  -2  18   12.59    9.35
   0  -2 -16  410.61   16.16
   0  -2 -15    2.13    3.86
   0  -2 -14  546.07   20.88
   0   2  13    3.25    2.52
   0   2  12    5.56    1.97
   0   2  12    5.25    3.51
   0   2  11   -0.31    2.75
   0   2  10 4060.92   95.30
   0   2  10 4148.62   43.04
   0   2   9    0.78    1.23
   0   2   9   -0.63    2.30
   0   2   8 1599.48   25.11
   0   2   8 1540.17   32.78
   0   2   7    2.68    1.15
   0   2   7    4.23    3.14
   0   2   6 1782.95   23.23
   0  -2  -5    0.43    0.67
   0  -2  -5    1.03    0.82
   0   2   5    2.32    1.36
   0  -2  -4  167.23    2.08
   0   2   4  164.16   14.11
   0   2   3    0.30    2.56
   0   2   2 4302.84   30.94
   0  -2  -1    0.20    0.48
   0   2   1    0.53    0.72
   0   2   1    0.53    2.34
   0  -2   1    0.87    0.91
   0  -2   1    0.33    2.45
   0   2  -1    1.15    1.46
   0   2  -2 4355.56   22.04
   0  -2   3    0.81    1.53
   0  -2   3    1.44    1.90
   0   2  -3   -0.03    0.59
   0  -2   3    0.61    0.66
   0  -2   4  175.81    7.36
   0  -2   4  157.23    6.01
   0   2  -4  146.20    3.28
   0  -2   4  161.44    2.95
   0  -2   5    2.90    3.26
   0  -2   5    1.31    2.06
   0  -2   6 1883.69   27.96
   0  -2   6 1782.61   19.78
   0  -2   7    0.89    1.96
   0  -2   7    1.40    1.72
   0  -2   8 1436.20   31.09
   0  -2   8 1558.96   26.36
   0  -2   9   -0.06    1.84
   0  -2   9    3.62    3.03
   0  -2  10 3726.54   92.18
   0  -2  10 3829.20   90.89
   0  -2  11    3.27    2.72
   0  -2  11    1.82    2.68
   0  -2  12    3.84    3.59
   0  -2  12    6.75    2.35
   0  -2  13    1.21    2.77
   0  -2  13    1.73    2.11
   0  -2  14  510.67   23.15
   0  -2  14  575.18   26.83
   0  -2  15    2.21    2.68
   0  -2  15    0.42    1.85
   0  -2  16  423.79   21.05
   0  -2  16  443.31   23.20
   0  -2  17    3.73    5.65
   0  -2  18 1471.12   33.97
   0  -2  19    0.26    3.90
   1   2  14   15.52    9.73
   1   2  13   19.65    9.12
   1   2  12  139.50   10.58
   1   2  11    7.88    3.15
   1   2  10   63.69    6.87
   1   2   9  163.82    8.65
   1   2   9  167.11    8.89
   1   2   8  487.06   11.91
   1   2   8  468.52   13.39
   1   2   7   74.88    3.94
   1   2   7   76.81    5.67
   1   2   6   24.77    4.62
   1   2   6   37.74   10.62
   1   2   5   20.86    2.27
  -1  -2  -5   22.68    1.52
   1   2   5   33.07    9.82
   1   2   4  124.50    3.69
  -1  -2  -4  141.95    2.70
   1   2   4  148.35    8.01
   1   2   3  125.81    3.36
  -1  -2  -3  130.25    2.39
  -1  -2  -3  129.99    5.29
   1   2   3  130.90    5.84
   1   2   2  113.21    2.38
  -1  -2  -2  117.36    3.43
  -1  -2  -2  112.16    5.05
   1   2   2  116.45    6.58
   1   2   1  115.42    4.16
   1   2   1  116.53    3.84
  -1  -2  -1  111.84    5.24
   1   2   1  115.27    4.76
   1   2   0 1186.39   11.60
  -1  -2   0 1203.24   14.77
   1   2   0 1157.84   12.94
  -1  -2   1  119.36    5.68
  -1  -2   2  108.63    4.94
  -1  -2   2  107.10    4.86
  -1  -2   3  125.59    6.06
  -1  -2   3  134.54    5.64
  -1  -2   3  134.80    5.44
  -1  -2   4  137.48    5.99
  -1  -2   4  146.89    6.16
  -1  -2   4  141.21    4.25
  -1  -2   5   27.63   10.12
  -1  -2   5   19.45    2.88
  -1  -2   6   30.40    9.20
  -1  -2   6   25.22    3.12
  -1  -2   7   60.30    9.41
  -1  -2   7   71.39    4.86
  -1  -2   8  438.02   19.13
  -1  -2   8  473.50   13.32
  -1  -2   9  149.06   12.34
  -1  -2   9  159.28    8.38
  -1  -2  10   60.95   12.94
  -1  -2  10   63.06    5.43
  -1  -2  11    9.97    4.88
  -1  -2  11    5.55    2.72
  -1  -2  12  120.12   18.52
  -1  -2  12  144.21    8.57
  -1  -2  13   16.39    9.95
  -1  -2  13   17.81    3.67
  -1  -2  14   24.72    9.32
  -1  -2  14   18.94    9.19
  -1  -2  15   75.93   11.52
  -1  -2  15   81.25   16.62
  -1  -2  16  126.18   14.58
  -1  -2  16  141.44   14.11
  -1  -2  17   20.14    6.43
  -1  -2  17   15.23    8.38
  -1  -2  18    9.95    5.37
   2   2  15  329.09   15.37
   2   2  14  723.43   35.22
   2   2  13  137.06   10.22
   2   2  12  261.34   11.17
   2   2  11  657.62   21.17
   2   2  10   38.07    9.76
   2   2   9  757.11   22.12
   2   2   8  681.88   16.56
   2   2   7  522.09   10.68
   2   2   6 1472.15   18.07
  -2  -2  -6 1531.81   18.68
   2   2   5  193.54    5.93
  -2  -2  -5  192.75    6.67
   2   2   4  377.63    8.50
  -2  -2  -4  354.16    9.46
   2   2   2  523.55    7.08
   2   2   1  315.78    6.11
  -2  -2  -1  309.83    7.25
   2   2   0  842.48   10.77
  -2  -2   0  801.54   11.54
   2   2  -1  311.05    7.46
  -2  -2   1  319.32    7.97
   2   2  -2  514.08   10.47
  -2  -2   2  493.50   10.08
   2   2  -3 2620.10   25.14
  -2  -2   3 2663.62   23.86
   2   2  -4  369.62   11.77
  -2  -2   4  368.03   11.10
   2   2  -5  200.35    9.10
  -2  -2   5  210.51    8.54
  -2  -2   6 1540.60   23.13
  -2  -2   7  530.01   13.40
  -2  -2   7  530.21    6.32
  -2  -2   8  667.21   17.86
  -2  -2   8  706.96   17.34
  -2  -2   8  700.38    9.08
  -2  -2   9  722.04   24.08
  -2  -2   9  715.79   22.56
  -2  -2  10   37.81    5.38
  -2  -2  10   38.72    5.10
  -2  -2  11  626.89   19.11
  -2  -2  11  597.33   16.87
  -2  -2  12  258.64   13.09
  -2  -2  12  241.93   11.83
  -2  -2  13  119.46   10.39
   2   2 -14  654.64   36.32
  -2  -2  14  735.86   37.71
   2   2 -15  318.85   19.05
  -2  -2  15  327.63   23.32
   2   2 -16  179.77   14.23
  -2  -2  16  173.85   14.76
   2   2 -17  313.37   19.82
  -2  -2  17  349.54   24.78
  -2  -2  18    1.62    3.97
   3   2  15   16.86    8.68
   3   2  14  285.63   17.25
   3   2  13    0.74    2.18
   3   2  12    6.25    4.48
   3   2  11    4.30    1.89
  -3  -2 -11    3.67    1.32
   3   2  10  206.07    9.03
  -3  -2 -10  205.05    6.39
   3   2   9   41.75    4.39
  -3  -2  -9   37.32    2.93
   3   2   8    0.66    1.83
  -3  -2  -8    1.41    1.28
   3   2   7    2.25    1.50
  -3  -2  -7    3.91    1.20
   3   2   6 1077.70   16.55
  -3  -2  -6 1058.95   13.47
   3   2   5    4.16    1.30
  -3  -2  -5    3.60    1.15
   3   2   4   62.57    3.71
  -3  -2  -4   67.59    3.49
   3   2   3   18.18    4.84
  -3  -2  -3   16.46    1.84
   3   2   2  647.56   13.55
  -3  -2  -2  651.12   13.78
   3   2   1    5.44    1.47
  -3  -2  -1    5.80    1.57
   3   2   0  103.12    4.97
  -3  -2   0  100.35    4.73
   3   2  -1    4.75    1.78
  -3  -2   1    4.75    1.60
   3   2  -2  644.27   15.44
  -3  -2   2  666.68   15.98
   3   2  -3   17.17    3.20
  -3  -2   3   17.67    2.85
   3   2  -4   57.09    5.01
  -3  -2   4   64.75    5.15
   3   2  -5    5.38    2.38
  -3  -2   5    5.22    2.10
   3   2  -6 1053.39   21.44
  -3  -2   6 1076.16   19.97
   3   2  -7    7.06    2.51
  -3  -2   7    3.88    2.12
   3   2  -8    2.83    4.48
  -3  -2   8    2.97    2.92
  -3  -2   8    1.54    1.05
   3   2  -9   42.13    6.24
  -3  -2   9   49.18    5.87
  -3  -2   9   43.22    2.46
   3   2 -10  207.55   11.81
  -3  -2  10  197.10    9.94
  -3  -2  10  191.02    6.17
   3   2 -11    0.22    4.07
  -3  -2  11    4.02    3.34
   3   2 -12    9.86    4.67
  -3  -2  12    6.19    4.10
   3   2 -13    3.95    5.66
  -3  -2  13    2.17    2.92
   3   2 -14  293.81   17.50
   3   2 -15   25.11    6.67
  -3  -2  15   18.01    8.09
   3   2 -16    2.86    4.19
  -3  -2  16    2.80    4.51
   3   2 -17    2.88    3.84
  -3  -2  17    0.92    3.21
   3   2 -18  107.79   13.16
  -3  -2  18  113.85   18.35
   4   2  15  130.74   10.00
   4   2  14  228.92   12.97
   4   2  13  507.62   28.59
   4   2  12 1582.01   32.69
   4   2  11  314.11   13.32
   4   2  10   11.70    3.00
   4   2   9   92.15    6.24
   4   2   8   31.11    3.61
  -4  -2  -8   33.73    1.76
   4   2   7  438.38   15.03
  -4  -2  -7  385.32   10.56
  -4  -2  -7  415.08   10.94
   4   2   6  177.45    7.52
  -4  -2  -6  161.24    4.16
   4   2   5  799.63   14.36
  -4  -2  -5  815.64   11.13
   4   2   4 4674.46   43.04
  -4  -2  -4 4519.20   37.70
   4   2   3  380.58    9.34
  -4  -2  -3  388.89    8.31
   4   2   2   58.20    4.12
  -4  -2  -2   58.68    3.87
   4   2   1  465.28   12.23
  -4  -2  -1  454.73   11.65
   4   2   0  393.73   11.22
  -4  -2   0  400.22   11.24
   4   2  -1  457.62   12.78
  -4  -2   1  466.11   12.83
   4   2  -2   61.65    4.56
  -4  -2   2   58.09    4.56
   4   2  -3  416.03   11.68
  -4  -2   3  402.90   11.22
   4   2  -4 4331.76   45.72
  -4  -2   4 4384.24   46.08
  -4  -2   5  804.59   17.29
   4   2  -6  154.56    8.49
  -4  -2   6  146.82    7.92
   4   2  -7  406.67   16.28
  -4  -2   7  422.48   16.26
   4   2  -8   36.79    6.32
  -4  -2   8   34.69    4.91
   4   2  -9   94.17    7.87
  -4  -2   9   91.82    7.21
  -4  -2   9  100.78    4.66
   4   2 -10   10.12    4.57
  -4  -2  10   11.21    3.76
  -4  -2  10    8.13    1.61
   4   2 -11  319.41   16.41
  -4  -2  11  294.30   23.86
  -4  -2  12 1510.17   49.72
   4   2 -13  454.22   26.81
  -4  -2  13  439.33   38.36
   4   2 -14  203.13   14.49
  -4  -2  14  217.69   19.87
   4   2 -15  117.80   10.76
  -4  -2  15  118.69   15.42
   4   2 -16   25.30    6.44
  -4  -2  16   17.49   12.50
   4   2 -17   71.64    8.89
  -4  -2  17   59.59   29.05
   4   2 -18   10.54    6.80
  -4  -2  18    8.12    6.84
   5   2  14   38.41   14.11
   5   2  13   36.19   18.58
   5   2  12   76.85    7.81
   5   2  11   10.03    3.07
   5   2  10   16.94    6.04
   5   2   9   85.48    6.83
   5   2   8  135.14    7.75
   5   2   7   88.60    6.06
  -5  -2  -7   78.79    2.34
   5   2   6  151.27    7.83
   5   2   5   37.30    3.87
  -5  -2  -5   44.07    2.75
   5   2   4  312.17   11.10
  -5  -2  -4  301.23    7.61
   5   2   3   59.16    4.62
  -5  -2  -3   53.47    3.35
   5   2   2   78.89    4.97
  -5  -2  -2   83.34    4.49
   5   2   1   99.73    5.50
  -5  -2  -1  102.54    5.33
   5   2   0  145.76    6.81
  -5  -2   0  155.37    6.66
   5   2  -1  113.21    6.66
  -5  -2   1  102.22    5.83
   5   2  -2   81.75    5.39
  -5  -2   2   73.00    5.21
   5   2  -3   64.27    5.46
  -5  -2   3   59.16    5.35
   5   2  -4  307.12   11.51
  -5  -2   4  290.73   10.93
   5   2  -5   43.17    4.88
  -5  -2   5   43.63    4.94
   5   2  -6  127.43    8.31
  -5  -2   6  119.06    7.85
   5   2  -7   79.20    6.89
  -5  -2   7   78.99    6.89
   5   2  -8  155.74   10.59
  -5  -2   8  139.31    9.30
   5   2  -9   76.07    7.78
  -5  -2   9   79.20   10.56
  -5  -2   9   88.33    5.05
   5   2 -10   19.27    6.00
  -5  -2  10   19.47    8.28
  -5  -2  10   14.48    2.34
   5   2 -11   14.10    4.95
  -5  -2  11   15.98    6.45
   5   2 -12   91.27    9.57
  -5  -2  12   68.82   23.01
   5   2 -13   40.71    8.17
  -5  -2  13   35.77   14.26
   5   2 -14   54.73    7.83
  -5  -2  14   55.00   19.00
   5   2 -15   61.56   10.73
  -5  -2  15   54.79   19.83
   5   2 -16   70.14    9.72
  -5  -2  16   59.15   20.48
   5   2 -17   12.23    5.67
  -5  -2  17   11.01    5.28
   6   2  15   17.73   11.26
   6   2  14    4.71    3.93
   6   2  13  136.96   10.58
   6   2  12  405.50   19.66
   6   2  11  140.33   11.61
   6   2  10  330.15   15.90
   6   2   9    3.19    2.74
   6   2   8 2697.65   50.57
   6   2   7   82.45    6.63
   6   2   6  231.07    9.88
  -6  -2  -6  221.96    5.74
   6   2   5  178.69    8.54
  -6  -2  -5  170.64    5.43
   6   2   4  337.42   14.31
   6   2   3  456.79   16.01
  -6  -2  -3  444.31   13.72
   6   2   2  329.07   12.78
  -6  -2  -2  355.11   12.25
   6   2   1    3.00    1.83
  -6  -2  -1    2.75    1.81
   6   2  -1    4.56    2.57
  -6  -2   1    3.10    2.83
   6   2  -2  361.64   14.59
  -6  -2   2  332.50   13.17
   6   2  -3  439.44   16.64
  -6  -2   3  473.67   17.19
   6   2  -4  341.26   14.67
  -6  -2   4  341.84   14.25
   6   2  -5  173.04    9.46
  -6  -2   5  185.08    9.88
   6   2  -6  221.30   10.88
  -6  -2   6  242.59   11.78
   6   2  -7   79.56    7.75
  -6  -2   7   85.13   19.45
   6   2  -9    3.14    5.43
  -6  -2   9    4.01    5.85
   6   2 -10  359.93   18.69
  -6  -2  10  376.65   24.34
  -6  -2  10  365.23   14.43
   6   2 -11  153.90   12.75
  -6  -2  11  159.27   15.18
   6   2 -12  404.79   21.04
  -6  -2  12  399.08   30.59
   6   2 -13  145.39   12.27
  -6  -2  13  118.02   29.49
   6   2 -14    2.16    3.76
  -6  -2  14    3.20    3.42
   6   2 -15   26.32    5.93
  -6  -2  15   19.78    9.15
   6   2 -16  838.47   26.59
  -6  -2  16  815.69   27.37
   7   2  14    7.36    5.74
   7   2  13    7.24    4.48
   7   2  12  144.64   11.73
   7   2  11   37.84    6.09
   7   2  10   35.79    6.23
   7   2   9   13.09    6.14
   7   2   8  274.31   14.06
   7   2   7   14.81    3.25
   7   2   6    3.11    2.37
   7   2   5   29.17    4.90
  -7  -2  -5   21.83    7.10
   7   2   4   78.99    6.86
  -7  -2  -4   80.53   13.52
   7   2   3   51.33    5.72
   7   2   2   40.78    5.01
  -7  -2  -2   38.97    6.21
   7   2   1   17.17    4.15
  -7  -2  -1   19.27    4.20
   7   2   0  714.95   17.71
  -7  -2   0  725.56   17.37
   7   2  -1   17.21    4.62
  -7  -2   1   18.11    7.11
   7   2  -2   38.60    5.08
  -7  -2   2   45.05   10.89
   7   2  -3   39.71    5.22
  -7  -2   3   50.86   12.51
   7   2  -4   74.47    6.79
  -7  -2   4   82.10   23.84
   7   2  -5   29.02    4.77
  -7  -2   5   30.15    9.01
   7   2  -6    5.07    4.71
  -7  -2   6    2.34    2.32
   7   2  -7   14.85    4.69
  -7  -2   7   16.49    5.63
   7   2  -8  243.37   15.80
  -7  -2   8  254.37   19.50
   7   2  -9   10.93    5.09
  -7  -2   9   17.37    7.46
   7   2 -10   37.09    6.55
  -7  -2  10   45.37   16.80
  -7  -2  10   29.12    9.98
   7   2 -11   33.06    7.00
  -7  -2  11   42.02   19.63
   7   2 -12  171.00   12.39
  -7  -2  12  166.40   13.52
   7   2 -13    3.43    2.93
  -7  -2  13    4.80    3.87
  -7  -2  14    3.33    3.78
  -7  -2  15    5.53    4.13
   8   2  14    0.40    3.91
   8   2  13   67.79    8.77
   8   2  12  218.54   14.68
   8   2  11  196.16   12.31
   8   2  10  187.91   12.19
   8   2   9  640.79   26.78
   8   2   8    2.85    3.14
   8   2   7  422.76   23.77
   8   2   6   83.29    7.26
   8   2   5  133.06    9.01
   8   2   4  663.03   20.89
  -8  -2  -4  585.53   15.56
  -8  -2  -3  266.66   13.47
   8   2   2   42.34    5.44
  -8  -2  -2   41.68   11.70
   8   2   1  683.49   20.85
  -8  -2  -1  691.86   22.22
   8   2   0  176.58    9.90
  -8  -2   0  167.20   18.10
   8   2  -1  688.43   21.43
  -8  -2   1  644.19   23.97
   8   2  -2   46.03   13.04
  -8  -2   2   46.72   11.52
   8   2  -3  277.57   13.30
  -8  -2   3  247.58   16.95
   8   2  -4  689.20   22.59
  -8  -2   4  688.20   28.10
   8   2  -5  150.23   10.97
  -8  -2   5  143.43   16.04
   8   2  -6   71.69    8.19
  -8  -2   6   83.06   14.22
   8   2  -7  453.93   26.03
  -8  -2   7  440.14   32.64
   8   2  -8   12.91    7.94
  -8  -2   8    0.91    2.63
   8   2  -9  638.55   26.59
  -8  -2   9  640.57   35.00
   8   2 -10  222.72   15.21
  -8  -2  10  212.12   18.22
  -8  -2  10  208.33   11.63
   8   2 -11  212.74   13.40
  -8  -2  11  202.49   18.02
   8   2 -12  249.80   16.36
  -8  -2  12  271.95   27.70
   8   2 -13   58.01    8.53
  -8  -2  13   50.92   23.51
   8   2 -14    3.26    4.14
   9   2  13    3.90    5.61
   9   2  12    0.60    4.05
   9   2  11    1.88    4.05
   9   2  10  187.60   13.78
   9   2   9   30.32    5.73
   9   2   8    9.98    4.25
   9   2   7   15.91    4.63
   9   2   6  134.58   10.52
   9   2   5    3.09    5.49
   9   2   4   10.83    3.96
   9   2   3   12.59    3.66
   9   2   2  258.43   13.98
  -9  -2  -2  251.87   17.88
   9   2   1   19.78    4.68
  -9  -2  -1   19.48    6.34
   9   2   0   26.56    4.45
   9   2  -1   18.93    4.19
  -9  -2   1   16.54    7.38
   9   2  -2  274.90   14.90
  -9  -2   2  255.09   23.72
   9   2  -3    6.99    3.19
  -9  -2   3   12.36    4.26
   9   2  -4   11.03    3.89
  -9  -2   4    9.80    5.51
   9   2  -5    5.18    3.82
  -9  -2   5    4.22    4.04
   9   2  -6  172.41   12.34
  -9  -2   6  176.67   32.74
   9   2  -7   16.07    5.37
  -9  -2   7   20.13    7.02
   9   2  -8   10.65    5.71
  -9  -2   8    8.76    4.02
   9   2  -9   39.06    8.20
  -9  -2   9   31.48   14.87
   9   2 -10  216.65   15.91
  -9  -2  10  178.90   32.45
   9   2 -11    5.23    3.92
  -9  -2  11    3.08    2.51
   9   2 -12    6.07    4.00
  -9  -2  12    3.47    5.23
   9   2 -13    3.28    5.91
  10   2  11   27.12    6.46
  10   2  10  243.84   15.44
  10   2   9   13.75    6.34
  10   2   8    5.65    4.44
  10   2   7   14.14    4.76
  10   2   6  705.51   21.14
  10   2   5  311.81   15.27
  10   2   2  606.75   24.95
  10   2   1   17.21    4.59
 -10  -2  -1   17.14    9.46
  10   2   0   22.20    4.78
 -10  -2   0   20.09    9.03
  10   2  -1   25.00    6.22
 -10  -2   1   16.55    7.30
  10   2  -2  622.74   25.00
 -10  -2   2  614.63   26.13
  10   2  -3  133.97   11.35
 -10  -2   3  128.56   19.06
  10   2  -4  471.47   21.61
 -10  -2   4  485.35   26.10
  10   2  -5  319.68   16.70
 -10  -2   5  344.11   18.85
  10   2  -6  687.89   22.27
 -10  -2   6  736.29   23.22
  10   2  -7   13.11    5.14
 -10  -2   7   12.78    9.77
  10   2  -8    7.73    4.43
  10   2  -9   12.97    5.23
 -10  -2   9   14.84    7.74
  10   2 -10  261.81   15.68
 -10  -2  10  274.95   25.70
  10   2 -11   35.65    7.34
 -10  -2  11   36.51   15.19
  11   2   9   13.94    5.77
  11   2   8   47.48    9.19
  11   2   7    9.16    4.55
  11   2   6   76.45   10.43
  11   2   5   29.98    5.71
  11   2   4   76.16   11.94
  11   2   3   54.77   10.59
  11   2   2   34.76    7.46
  11   2   1   14.10    4.97
  11   2   0    9.67    4.22
 -11  -2   0   12.79    7.69
  11   2  -1   11.02    4.43
 -11  -2   1   10.31    6.91
  11   2  -2   25.02    6.59
 -11  -2   2   18.39   12.92
 -11  -2   3   48.14   21.95
  11   2  -4   83.57   12.07
 -11  -2   4   64.63   22.07
  11   2  -5   38.84    7.83
 -11  -2   5   24.11    9.28
  11   2  -6   91.41   10.44
 -11  -2   6   66.30   20.60
  11   2  -7    4.70    4.06
 -11  -2   7    9.61    5.73
  11   2  -8   37.96    8.46
 -11  -2   8   41.69   23.30
 -11  -2   9   14.74    6.43
  12   2   5  239.97   17.90
  12   2   4   40.68    7.30
  12   2   3  351.24   23.69
  12   2   2  574.41   21.91
  12   2   1    8.19    6.22
  12   2   0  174.75   14.29
  12   2  -1    4.48    4.39
  12   2  -2  554.33   21.87
  12   2  -3  329.19   22.16
 -12  -2   3  324.78   28.92
  12   2  -4   34.07    7.21
 -12  -2   4   24.21   15.36
  12   2  -5  239.14   18.68
 -12  -2   5  282.01   27.69
  12  -3  -1   24.89    6.95
 -12   3   1   26.23    7.67
  12  -3   0  311.86   26.63
 -12   3   0  309.75   23.51
  12  -3   1   23.09    6.37
 -12   3  -1   20.34    6.31
  11  -3  -7  199.09   15.80
 -11   3   7  182.33   16.21
  11  -3  -6   20.91   17.89
 -11   3   6   29.51    7.02
  11  -3  -5   63.27    8.22
 -11   3   5   76.78   10.04
  11  -3  -4   10.14    4.20
 -11   3   4    8.90    5.00
  11  -3  -3   52.55    7.35
 -11   3   3   48.86    7.53
  11  -3  -2    8.10    3.97
 -11   3   2    7.00    6.29
  11  -3  -1  364.88   19.04
 -11   3   1  398.67   21.34
  11  -3   0  459.05   22.12
 -11   3   0  433.38   21.94
  11  -3   1  438.25   22.58
 -11   3  -1  374.69   20.62
  11  -3   2   12.53    4.71
 -11   3  -2    7.97    4.05
  11  -3   3   52.41    8.25
  11  -3   4   14.37    5.19
  11  -3   5   78.26    9.05
  11  -3   6   25.96    7.50
  11  -3   7  208.06   17.25
  10  -3 -10   29.19    6.39
 -10   3  10   46.70    8.00
  10  -3  -9   60.73    7.88
 -10   3   9   64.14    8.77
  10  -3  -8  125.01   11.33
 -10   3   8  145.40   13.03
  10  -3  -7    6.93    4.56
 -10   3   7    3.43    4.92
  10  -3  -6    5.87    5.06
  10  -3  -5    1.42    4.10
 -10   3   5    3.73    3.59
  10  -3  -4  149.89   10.93
 -10   3   4  139.62   11.23
  10  -3  -3   69.25    7.81
 -10   3   3   65.90    8.29
  10  -3  -2   34.22    6.20
 -10   3   2   38.44    6.77
  10  -3  -1    4.80    3.58
 -10   3   1   11.59    4.66
  10  -3   0   91.96    9.16
 -10   3   0   80.21   21.61
 -10   3  -1    7.22    5.89
  10  -3   2   37.92    6.41
 -10   3  -2   33.32    6.20
  10  -3   3   84.74    9.37
  10  -3   4  151.59   11.80
  10  -3   5    5.44    4.32
  10  -3   6    3.53    5.65
  10  -3   7    5.04    4.13
  10  -3   8  138.47   13.29
  10  -3   9   61.92    9.68
  10  -3  10   55.84    9.67
   9  -3 -12  144.88   12.56
  -9   3  12  178.86   16.68
  -9   3  11   83.79   11.48
   9  -3 -10  195.18   12.59
  -9   3  10  230.50   15.95
  -9   3   9    5.44    6.28
   9  -3  -8  988.31   23.73
  -9   3   8  978.32   27.66
   9  -3  -7  100.49   17.36
  -9   3   7  108.09   10.76
   9  -3  -6   64.63    7.12
  -9   3   6   63.46    8.09
   9  -3  -5  208.44   12.61
  -9   3   5  185.02   12.72
   9  -3  -4   86.11   16.10
  -9   3   4   88.01    8.76
   9  -3  -3  210.48   13.78
  -9   3   3  211.62   15.22
   9  -3  -2  235.41   14.04
  -9   3   2  248.84   15.58
   9  -3  -1   30.01    5.52
  -9   3   1   40.03   12.77
   9  -3   0 1302.44   28.11
  -9   3   0 1195.58   58.63
   9  -3   1   32.75    5.60
  -9   3  -1   35.96    7.41
   9  -3   2  245.19   15.59
   9  -3   3  226.02   15.14
   9  -3   4   97.58   10.27
   9  -3   5  198.64   13.62
   9  -3   7   95.50   10.34
   9  -3   8  995.61   28.07
   9  -3   9   -0.01    4.24
   9  -3  10  212.51   15.93
   9  -3  11   78.14   10.19
   9  -3  12  157.56   15.41
  -8   3  13   58.66   27.80
   8  -3 -12  132.24   10.17
  -8   3  12  132.00   13.94
   8  -3 -11   65.01   13.07
  -8   3  11   75.86   11.51
   8  -3 -10  236.44   11.91
  -8   3  10  248.10   15.19
   8  -3  -9   30.65    4.50
  -8   3   9   39.27    7.40
   8  -3  -8  131.44    9.35
  -8   3   8  153.44   12.13
   8  -3  -7  104.04    8.91
  -8   3   7  106.06    9.96
   8  -3  -6  226.53   15.04
  -8   3   6  228.64   16.43
   8  -3  -5  114.17    8.66
  -8   3   5  105.45    9.01
   8  -3  -4  226.26   13.70
  -8   3   4  221.58   14.27
   8  -3  -3   75.71    7.45
  -8   3   3   82.14    8.80
   8  -3  -2  276.27   14.53
  -8   3   2  293.79   16.74
   8  -3  -1  107.14    8.75
  -8   3   1  108.14    9.35
   8  -3   0  170.81   11.20
  -8   3   0  152.45   10.98
   8  -3   1   92.45    8.33
  -8   3  -1  122.75   10.26
   8  -3   2  281.75   19.91
   8  -3   3   85.79    9.13
   8  -3   4  235.59   14.32
   8  -3   4  226.10   12.39
   8  -3   5  115.56   10.68
   8  -3   5  109.38    7.73
   8  -3   6  206.59   15.13
   8  -3   6  216.23   13.93
   8  -3   7   98.20   10.10
   8  -3   8  143.57   12.03
   8  -3   9   43.08    9.47
   8  -3  10  243.34   15.55
   8  -3  11   77.78   11.86
   8  -3  12  154.99   13.88
  -7   3  14  785.67   29.21
  -7   3  13  244.43   16.49
   7  -3 -12  172.59   10.24
  -7   3  12  157.05   13.51
   7  -3 -11  163.03   10.07
  -7   3  11  159.68   13.12
   7  -3 -10  220.09   11.99
   7  -3  -9   42.88   10.85
  -7   3   9   44.85    6.38
   7  -3  -8    4.90    3.40
  -7   3   8    9.65    3.75
   7  -3  -7   24.72    4.22
  -7   3   7   27.02    5.15
   7  -3  -6  706.98   25.85
  -7   3   6  691.30   27.78
   7  -3  -5  558.54   17.97
  -7   3   5  562.15   20.92
   7  -3  -4  771.45   22.00
  -7   3   4  789.64   25.29
   7  -3  -3  342.93   13.46
  -7   3   3  325.02   14.91
   7  -3  -2  474.56   16.03
  -7   3   2  440.82   16.82
   7  -3  -1   46.69    5.43
  -7   3   1   44.04    5.77
   7  -3   0   20.87    4.10
  -7   3   0   23.86    7.15
   7  -3   1   40.16    5.14
  -7   3  -1   38.69    5.46
   7  -3   2  516.22   18.43
  -7   3  -2  467.96   16.73
   7  -3   3  343.48   14.74
   7  -3   4  794.53   24.78
   7  -3   4  775.53   22.67
   7  -3   5  551.36   20.45
   7  -3   5  540.22   18.29
   7  -3   6  690.38   25.24
   7  -3   7   18.21    5.18
   7  -3   7   22.07    4.00
   7  -3   8    5.55    4.10
   7  -3   9   40.35    8.78
   7  -3  10  214.39   15.27
   7  -3  11  125.46   11.51
   7  -3  12  180.73   14.02
   7  -3  13  262.82   18.20
   7  -3  14  634.63   25.59
  -6   3  15    4.06    6.19
  -6   3  14  192.43   15.33
   6  -3 -13   37.17    5.16
  -6   3  13   41.63   18.58
   6  -3 -12   70.05    6.45
  -6   3  12   68.87   19.51
   6  -3 -11    4.27    2.44
  -6   3  11   10.14    8.75
   6  -3 -10  173.96   11.79
  -6   3  10  176.64   13.92
   6  -3  -9    4.04    3.16
  -6   3   9    2.84    3.33
   6  -3  -8   34.81    8.70
  -6   3   8   33.84    5.79
   6  -3  -7   81.52    5.82
  -6   3   7   65.25    6.51
   6  -3  -6  410.69   13.50
  -6   3   6  378.96   15.86
   6  -3  -5   41.53    6.13
  -6   3   5   39.21    5.40
   6  -3  -4  105.43    6.70
  -6   3   4  103.17   16.15
   6  -3  -3   26.84    6.15
  -6   3   3   18.34    7.41
   6  -3  -2  345.69   11.68
  -6   3   2  340.47   13.93
   6  -3  -1   98.08    6.46
  -6   3   1  102.22    7.73
   6  -3   0   73.19    5.73
  -6   3   0   68.34    6.34
   6  -3   1  101.96    7.06
  -6   3  -1   96.88   10.98
   6  -3   2  344.98   12.99
  -6   3  -2  332.79   12.51
   6  -3   3   23.15    4.00
  -6   3  -3   18.56    3.80
   6  -3   4  114.75    8.55
   6  -3   4   99.17    6.93
   6  -3   5   46.07    6.33
   6  -3   5   45.35    4.89
   6  -3   6  374.24   15.59
   6  -3   6  415.02   14.56
   6  -3   7   67.91    7.56
   6  -3   7   57.68    5.16
   6  -3   8   41.17    7.78
   6  -3   8   33.28    4.15
   6  -3   9    0.75    4.04
   6  -3   9    0.45    2.25
   6  -3  10  163.50   13.77
   6  -3  11    6.92    4.49
   6  -3  12   66.60    8.94
   6  -3  13   43.35   19.46
   6  -3  14  181.09   18.92
   6  -3  15    1.81    5.35
  -5   3  16   64.67   23.94
  -5   3  15  232.70   20.05
  -5   3  14  195.67   14.05
  -5   3  13  103.82   38.42
   5  -3 -12  152.88    9.47
  -5   3  12  150.26   38.64
   5  -3 -11  247.93   14.44
  -5   3  11  253.35   17.74
   5  -3 -10    5.20    2.27
  -5   3  10    7.74    3.75
   5  -3  -9  576.45   16.67
  -5   3   9  579.09   21.25
   5  -3  -8  545.43   15.07
  -5   3   8  553.60   19.56
   5  -3  -7  860.41   17.42
  -5   3   7  872.41   22.70
   5  -3  -6  313.05   10.11
  -5   3   6  303.18   13.06
   5  -3  -5  119.66    6.33
  -5   3   5  114.21    8.14
   5  -3  -4  317.43   12.07
  -5   3   4  302.61   13.84
   5  -3  -3  343.58   12.71
  -5   3   3  324.44   14.40
   5  -3  -2  248.01   10.37
  -5   3   2  249.89   13.29
   5  -3  -1  885.99   25.40
  -5   3   1  910.34   27.87
   5  -3   0 1341.40   25.08
  -5   3   0 1358.60   27.38
   5  -3   1  936.77   27.53
  -5   3  -1  887.65   26.73
   5  -3   2  257.08   11.58
  -5   3  -2  260.35   11.71
   5  -3   3  361.93   14.65
   5  -3   3  348.22   14.08
  -5   3  -3  333.67   13.31
   5  -3   4  308.43   13.30
   5  -3   4  325.49   13.78
  -5   3  -4  316.21   12.71
   5  -3   5  105.45    7.33
   5  -3   5  120.63    7.53
   5  -3   6  289.31   12.71
   5  -3   7  834.76   23.20
   5  -3   7  784.31   18.47
   5  -3   8  496.13   18.66
   5  -3   8  558.09   15.99
   5  -3   9  504.69   20.43
   5  -3   9  552.98   16.00
   5  -3  10    4.93    4.40
   5  -3  10    5.62    1.90
   5  -3  11  246.39   29.91
   5  -3  12  149.20   19.39
   5  -3  13   87.75   35.49
   5  -3  14  179.02   13.76
   5  -3  15  287.13   19.46
   5  -3  16   91.87   39.76
  -4   3  17   21.63    7.86
  -4   3  16    6.13    3.97
  -4   3  15   15.74    8.39
  -4   3  14  346.82   18.28
   4  -3 -13   93.80    6.67
  -4   3  13   90.45   19.67
   4  -3 -12  162.71   10.49
  -4   3  12  165.19   20.26
   4  -3 -11   71.99    5.58
  -4   3  11   83.63   23.68
   4  -3 -10  739.91   19.17
  -4   3  10  711.72   24.32
   4  -3  -9   21.99    3.60
  -4   3   9   27.94   10.65
   4  -3  -8   33.94    3.62
  -4   3   8   51.61   11.73
   4  -3  -7  210.46    7.59
  -4   3   7  226.87   11.81
   4  -3  -6  573.16   16.99
  -4   3   6  509.60   19.50
   4  -3  -5  138.24    6.71
  -4   3   5  139.83    8.77
   4  -3  -4  181.48    6.96
  -4   3   4  181.80    9.33
   4  -3  -3    7.04    2.16
  -4   3   3    7.46    2.80
   4  -3  -2 1343.26   22.72
  -4   3   2 1386.09   26.82
   4  -3  -1  244.59    8.12
  -4   3   1  254.32   10.09
   4  -3   0  326.71   10.12
  -4   3   0  323.69   10.81
   4  -3   1  252.82    9.05
  -4   3  -1  253.80    9.55
   4  -3   2 1344.36   24.95
   4  -3   2 1357.09   26.20
  -4   3  -2 1386.18   25.35
   4  -3   3    9.33    2.79
   4  -3   3    9.36    2.69
  -4   3  -3    7.08    1.98
   4  -3   4  165.40    8.32
   4  -3   4  174.36    8.79
  -4   3  -4  163.72    7.32
   4  -3   5  136.25   11.19
   4  -3   5  137.11    8.18
  -4   3  -5  133.72   10.57
   4  -3   6  480.88   18.71
   4  -3   6  482.44   17.00
  -4   3  -6  531.27   16.74
   4  -3   7  200.14   10.73
   4  -3   7  195.31    8.62
  -4   3  -7  200.34    7.99
   4  -3   8   41.26    5.93
   4  -3   8   33.37    3.75
   4  -3   9   18.67    5.01
   4  -3   9   21.26    3.26
   4  -3  10  622.09   23.30
   4  -3  10  743.65   19.70
   4  -3  11   65.72   10.32
   4  -3  11   65.84    5.23
   4  -3  12  141.20   13.61
   4  -3  12  159.90   10.29
   4  -3  13   95.58   12.68
   4  -3  14  311.97   27.18
   4  -3  15   17.56    8.29
   4  -3  16    8.20    7.58
   4  -3  17   28.70   22.73
  -3   3  17    0.63    1.67
  -3   3  16  915.83   37.30
  -3   3  15    8.53    9.03
  -3   3  14   47.02   20.79
   3  -3 -13   58.74    5.01
  -3   3  13   72.50   23.36
   3  -3 -12  100.85    6.80
  -3   3  12  102.61   18.19
   3  -3 -11   16.85    2.97
  -3   3  11   30.18    9.82
   3  -3 -10  879.89   18.82
  -3   3  10  867.52   26.12
   3  -3  -9   18.78    2.72
  -3   3   9   26.16   11.81
   3  -3  -8 3705.21   39.38
  -3   3   8 3711.41   43.35
   3  -3  -7  208.30    7.78
  -3   3   7  184.87   11.98
   3  -3  -6  182.81    6.00
  -3   3   6  186.28    9.69
   3  -3  -5   20.33    2.20
  -3   3   5   25.72    3.96
   3  -3  -4  354.68    8.01
  -3   3   4  386.13   12.71
   3  -3  -3   10.12    1.76
  -3   3   3    9.23    2.64
   3  -3  -2  576.96   10.68
  -3   3   2  611.62   14.50
   3  -3  -1   62.99    4.02
  -3   3   1   77.48    5.70
   3  -3   0 6935.74   58.63
  -3   3   0 6993.88   43.87
   3  -3   1   61.60    4.42
   3  -3   1   59.83    5.07
  -3   3  -1   60.55    4.43
   3  -3   2  591.92   13.12
   3  -3   2  575.23   14.76
  -3   3  -2  606.30   13.42
   3  -3   3    9.48    2.27
   3  -3   3    9.99    2.44
  -3   3  -3    8.75    2.88
   3  -3   4  405.11   12.87
   3  -3   4  402.64   12.65
  -3   3  -4  364.97    9.61
   3  -3   5   17.46    3.12
   3  -3   5   20.71    3.23
  -3   3  -5   24.43    3.05
   3  -3   6  176.03    9.41
   3  -3   6  176.07    8.35
  -3   3  -6  175.99    6.66
   3  -3   7  166.78   10.14
   3  -3   7  201.18    9.46
  -3   3  -7  203.92    7.93
   3  -3   8 3440.78   51.07
   3  -3   8 3620.91   43.69
  -3   3  -8 3584.86   37.38
   3  -3   9   22.08    6.78
   3  -3   9   16.81    3.12
  -3   3  -9   18.89    2.70
   3  -3  10  833.36   20.17
  -3   3 -10  835.70   16.43
   3  -3  11   20.36    8.57
   3  -3  11   19.03    3.44
   3  -3  12  109.31   10.44
   3  -3  12   94.77    6.68
   3  -3  13   72.85   10.58
   3  -3  13   61.55    5.18
   3  -3  14   71.85   31.94
   3  -3  15   14.40    8.76
   3  -3  16 1060.87   36.10
   3  -3  17    1.74    3.76
  -2   3  17   33.24   26.10
  -2   3  16   27.04   16.38
  -2   3  15   47.74   21.41
  -2   3  14    1.99    2.56
  -2   3  13   92.60   12.19
   2  -3 -12   74.22    4.95
  -2   3  12   70.88   26.48
   2  -3 -11   98.12    5.04
  -2   3  11  113.89   31.01
   2  -3 -10    0.00    1.09
  -2   3  10    4.73    5.36
   2  -3  -9   99.00    4.47
  -2   3   9  101.08   12.95
   2  -3  -8  163.75    6.36
  -2   3   8  154.99   14.27
   2  -3  -7  163.35    4.81
  -2   3   7  147.65   10.60
   2  -3  -6    3.64    1.12
  -2   3   6    6.48    2.92
   2  -3  -5  224.42    5.26
  -2   3   5  237.39   10.20
   2  -3  -4   49.12    2.55
  -2   3   4   51.40    6.86
   2  -3  -3   88.00    4.67
  -2   3   3   87.12    9.91
   2  -3  -2    4.69    1.20
  -2   3   2    5.80    2.31
   2  -3  -1  256.37    7.31
  -2   3   1  266.78    9.69
   2  -3   0  447.69   11.12
   2  -3   0  467.11   14.13
  -2   3   0  457.14   13.49
   2  -3   1  264.47    8.76
   2  -3   1  268.41   10.56
  -2   3  -1  252.59    8.61
   2  -3   2    5.29    1.66
   2  -3   2    6.46    2.29
  -2   3  -2    6.73    1.96
   2  -3   3   80.25    6.58
   2  -3   3   85.17    6.08
   2  -3   4   48.06    4.60
   2  -3   4   40.55    4.53
  -2   3  -4   52.68    3.39
   2  -3   5  242.90   28.44
   2  -3   5  242.88    9.53
  -2   3  -5  235.65    6.51
   2  -3   6    5.48    2.74
   2  -3   6    1.29    2.04
  -2   3  -6    5.11    1.29
   2  -3   7  142.34   14.94
   2  -3   7  143.31    7.20
  -2   3  -7  149.94    4.75
   2  -3   8  150.68   10.95
   2  -3   8  154.22    8.21
  -2   3  -8  156.91    5.68
   2  -3   9   94.18   11.51
   2  -3   9   97.73    6.19
  -2   3  -9   88.92    3.27
   2  -3  10    2.51    4.61
   2  -3  10    4.72    3.82
  -2   3 -10    0.95    0.91
   2  -3  11  112.57   10.43
   2  -3  12   82.70   20.00
   2  -3  12   65.92    5.51
   2  -3  13  100.52   21.27
   2  -3  13   92.96    6.46
   2  -3  14    1.61    5.03
   2  -3  14    2.09    2.99
   2  -3  15   47.44   21.17
   2  -3  16   36.08   17.60
   2  -3  17   47.78   16.72
   2  -3  18    4.80    8.75
  -1   3  16   71.22    7.86
  -1   3  14  855.34   34.58
  -1   3  13  298.76   21.45
   1  -3 -12  218.27    9.38
  -1   3  12  206.26   15.32
   1  -3 -11  296.46    8.94
  -1   3  11  241.10   20.23
   1  -3 -10   54.74    3.48
  -1   3  10   64.33   17.41
   1  -3  -9  202.12    5.72
  -1   3   9  178.68   10.37
   1  -3  -8  209.37    6.67
  -1   3   8  216.82   18.54
  -1   3   7  988.93   24.98
   1  -3  -6 1160.23   10.61
  -1   3   6 1155.72   23.07
   1  -3  -5  304.80    4.35
   1  -3  -5  306.86    3.83
  -1   3   5  321.90   14.55
   1  -3  -4  653.63   10.70
   1  -3  -3  372.25    7.23
  -1   3   3  409.87   14.61
   1  -3  -2  226.29    5.67
  -1   3   2  216.79    5.28
  -1   3   2  254.58   10.85
   1  -3  -1  798.10   15.29
   1  -3  -1  822.54   19.94
  -1   3   1  819.15   19.44
   1  -3   0   84.92    8.52
   1  -3   0   84.26    6.01
  -1   3   0   81.28    7.25
   1  -3   1  792.54   17.04
   1  -3   1  830.14   20.49
  -1   3  -1  800.10   18.69
   1  -3   2  253.46    8.94
   1  -3   2  256.32   10.19
  -1   3  -2  239.49    8.51
   1  -3   3  384.96   12.28
   1  -3   3  365.73   12.26
  -1   3  -3  383.71   10.24
   1  -3   4  724.82   16.27
   1  -3   4  769.24   16.52
  -1   3  -4  773.94   12.71
   1  -3   5  344.08   11.95
   1  -3   5  349.14   10.72
  -1   3  -5  338.82    7.54
   1  -3   6 1203.66   23.57
   1  -3   6 1166.02   20.32
  -1   3  -6 1193.77   14.38
   1  -3   7 1019.69   25.63
   1  -3   7 1011.45   20.97
   1  -3   8  221.41   18.19
   1  -3   8  205.11   13.65
  -1   3  -8  185.94    5.16
   1  -3   9  189.25   10.73
   1  -3   9  187.24    8.76
   1  -3  10   65.56   21.83
   1  -3  10   56.70    5.22
   1  -3  11  298.58   15.12
   1  -3  11  278.01   11.43
   1  -3  12  202.45   19.41
   1  -3  12  208.70   11.10
   1  -3  13  337.24   18.14
   1  -3  13  322.17   14.89
   1  -3  14  909.70   58.63
   1  -3  14  913.82   20.36
   1  -3  15  220.85   14.91
   1  -3  15  206.68   11.19
   1  -3  16   60.34   10.07
   1  -3  16   81.52    7.40
   1  -3  17  136.78   13.03
   1  -3  18    3.31    3.34
   0   3  14    2.33    3.17
   0   3  13    2.96    3.39
   0   3  12  504.63   32.64
   0  -3 -11    2.28    1.70
   0   3  11    2.13    3.98
   0  -3 -10    0.38    0.89
   0   3  10    1.49    2.42
   0  -3  -9    1.69    1.22
   0   3   9    0.40    2.64
   0  -3  -8 1277.77   30.12
   0  -3  -8 1424.73   33.22
   0   3   8 1359.38   41.84
   0  -3  -7    0.59    0.60
   0   3   7    3.47    2.72
   0   3   6  258.88   11.26
   0   3   5    1.45    1.86
   0   3   4 2532.12   31.37
   0  -3  -3    2.46    2.83
   0   3   3    1.90    3.10
   0  -3  -2    9.21    2.02
   0   3   2    7.81    0.87
   0  -3  -2    9.80    2.64
   0   3   2   11.01    4.02
   0  -3  -1    0.76    0.79
   0  -3  -1    1.25    2.11
   0   3   1    1.48    2.17
   0  -3   0  647.60   14.87
   0  -3   0  718.31   18.48
   0   3   0  687.57   17.58
   0  -3   1    1.32    1.44
   0  -3   1    1.88    2.51
   0   3  -1    1.50    2.20
   0  -3   2   14.81    5.73
   0  -3   2    8.61    2.32
   0   3  -2   12.71    3.97
   0  -3   3   -0.05    1.83
   0  -3   3    2.37    2.78
   0   3  -3    0.36    1.05
   0  -3   4 3110.53   30.62
   0  -3   4 3130.67   29.70
   0  -3   5    2.53    2.98
   0   3  -5    0.80    1.05
   0  -3   6  264.90   12.14
   0  -3   6  271.65    9.80
   0  -3   7    1.94    2.85
   0  -3   7    1.84    2.09
   0  -3   8 1417.50   40.85
   0  -3   8 1351.38   36.66
   0  -3   9    0.38    1.72
   0  -3   9    1.07    2.32
   0  -3  10    6.88    3.65
   0  -3  10    3.32    3.58
   0  -3  11    3.57    4.78
   0  -3  11    1.86    2.53
   0  -3  12  586.07   25.34
   0  -3  12  553.90   21.36
   0  -3  13    3.17    4.29
   0  -3  13    3.70    4.58
   0  -3  14    5.15    4.95
   0  -3  14    3.70    2.37
   0  -3  15    0.56    2.71
   0  -3  15    1.94    2.62
   0  -3  16  608.39   26.03
   0  -3  16  662.08   25.65
   0  -3  17    1.69    2.40
   0  -3  17    0.23    1.41
   0  -3  18   35.86   20.85
   1   3  12  224.85    9.32
   1   3  11  295.66    8.61
   1   3  10   60.85    6.15
   1   3   9  157.05    9.43
   1   3   8  206.71    7.53
   1   3   8  193.94   15.45
   1   3   7 1003.53   14.01
   1   3   7  951.82   23.70
   1   3   6 1089.23   22.46
  -1  -3  -5  328.56   10.01
   1   3   5  328.64   11.58
  -1  -3  -4  743.74   18.34
   1   3   4  714.97   19.32
   1   3   3  366.50    6.43
  -1  -3  -3  368.04   11.72
   1   3   3  372.56   13.89
   1   3   2  229.58    5.66
   1   3   2  240.39    5.50
  -1  -3  -2  246.63    9.53
   1   3   2  227.86    9.35
   1   3   1  765.93   14.67
  -1  -3  -1  772.87   18.65
   1   3   1  770.21   20.28
   1   3   0   74.78    4.12
  -1  -3   0   81.80    5.53
   1   3   0   75.73    8.09
  -1  -3   1  701.66   14.97
  -1  -3   1  804.75   19.25
   1   3  -1  737.28   16.31
  -1  -3   2  208.16    9.33
  -1  -3   2  234.98    9.22
   1   3  -2  214.95    7.08
  -1  -3   3  366.31   13.23
  -1  -3   3  380.54   11.89
  -1  -3   4  694.98   15.19
  -1  -3   4  738.34   15.64
  -1  -3   5  329.39   10.66
  -1  -3   5  336.54   10.63
  -1  -3   6 1107.11   24.43
  -1  -3   6 1114.25   20.36
  -1  -3   7  967.89   23.72
  -1  -3   7  960.14   21.03
  -1  -3   8  209.51   12.30
  -1  -3   8  189.67    9.77
  -1  -3   9  185.26   11.15
  -1  -3   9  184.19    9.11
  -1  -3  10   71.22   22.25
  -1  -3  10   56.77    5.66
  -1  -3  11  274.80   14.14
  -1  -3  11  265.61   11.86
  -1  -3  12  198.18   13.09
  -1  -3  12  205.58   11.63
  -1  -3  13  312.03   16.73
  -1  -3  13  312.97   15.35
  -1  -3  14  824.12   34.96
  -1  -3  14  885.62   32.96
  -1  -3  15  173.39   15.55
  -1  -3  16   49.85   26.60
  -1  -3  16   68.12    7.40
  -1  -3  17  124.01   14.06
  -1  -3  17  128.26   20.29
  -1  -3  18    6.16    6.78
  -1  -3  18    1.92    2.48
   2   3  12   60.28   14.05
   2   3  11   95.42    4.97
   2   3  10    1.60    1.29
   2   3   9   91.30    7.20
  -2  -3  -9   93.13    5.77
   2   3   8  145.71    8.61
  -2  -3  -8  138.28    7.36
  -2  -3  -7  160.30    7.21
   2   3   6    4.83    1.13
  -2  -3  -6    3.42    0.81
  -2  -3  -6    6.29    2.08
   2   3   5  208.06    4.98
  -2  -3  -5  238.35    8.59
   2   3   4   46.56    2.22
  -2  -3  -4   45.47    2.25
  -2  -3  -4   45.65    4.16
   2   3   3   86.13    3.00
  -2  -3  -3   81.63    5.32
   2   3   2    6.02    1.28
  -2  -3  -2    6.00    2.01
   2   3   1  252.16    7.11
  -2  -3  -1  242.01    8.96
   2   3   0  426.15   10.82
  -2  -3   0  433.46   12.69
   2   3  -1  235.19    8.40
  -2  -3   1  237.15    8.86
   2   3  -2    6.80    2.20
  -2  -3   2    9.08    2.91
   2   3  -3   76.59    5.46
  -2  -3   3   90.34    5.64
   2   3  -4   44.42    4.33
  -2  -3   4   49.94    5.08
   2   3  -5  202.40    9.62
  -2  -3   5  216.58    8.81
  -2  -3   6    6.21    2.38
  -2  -3   6    5.37    2.48
  -2  -3   7  138.68    7.92
  -2  -3   7  149.84    8.01
  -2  -3   7  136.77    5.10
  -2  -3   8  145.43   27.62
  -2  -3   8  140.77    8.60
  -2  -3   9   83.63   18.75
  -2  -3   9   95.00    7.25
  -2  -3  10    1.33    2.15
  -2  -3  10    2.95    3.51
  -2  -3  11   92.91    8.69
  -2  -3  11   78.99    6.69
  -2  -3  12   61.99    7.47
  -2  -3  12   66.97    6.73
  -2  -3  13   96.02    8.87
  -2  -3  13   86.80    8.35
  -2  -3  14    3.55    3.96
   2   3 -15   51.37    9.69
  -2  -3  15   53.17    6.50
   2   3 -16   32.69    8.55
  -2  -3  16   31.03   19.08
   2   3 -17   60.54    9.74
  -2  -3  17   37.03   18.18
   2   3 -18    6.76    6.47
  -2  -3  18    5.42    3.37
   3   3  12   82.96    8.50
   3   3  11   14.69    6.33
  -3  -3 -11   14.90    2.62
   3   3  10  835.16   18.76
  -3  -3 -10  799.78   18.20
   3   3   9   15.19    4.78
  -3  -3  -9   19.89    2.90
   3   3   8 3547.25   38.57
  -3  -3  -8 3552.10   40.57
   3   3   7  176.12    7.19
  -3  -3  -7  181.76    7.95
   3   3   6  148.54    5.32
  -3  -3  -6  150.03    6.25
   3   3   5   20.72    2.61
  -3  -3  -5   24.35    2.94
   3   3   4  363.68    8.05
  -3  -3  -4  345.15    9.43
   3   3   3    9.57    1.70
  -3  -3  -3    7.00    2.20
   3   3   2  569.66   10.24
  -3  -3  -2  540.50   11.83
   3   3   1   59.58    3.70
  -3  -3  -1   61.32    4.27
   3   3   0 6503.04   55.18
  -3  -3   0 6447.05   58.40
   3   3  -1   63.10    4.54
  -3  -3   1   55.66    4.51
   3   3  -2  567.82   13.06
  -3  -3   2  536.74   13.05
   3   3  -3   11.58    2.78
  -3  -3   3   10.96    2.50
   3   3  -4  325.92   11.28
  -3  -3   4  340.42   11.21
   3   3  -5   22.19    3.99
  -3  -3   5   15.58    2.98
   3   3  -6  174.98    9.69
  -3  -3   6  156.48    8.28
   3   3  -7  209.31   11.91
  -3  -3   7  160.70    9.42
   3   3  -8 3153.50   47.86
  -3  -3   8 3163.78   44.04
   3   3  -9   14.69    4.83
  -3  -3   9   16.41    3.63
  -3  -3   9   16.65    1.30
   3   3 -10  759.50   24.88
  -3  -3  10  758.71   21.72
   3   3 -11   11.64    5.98
  -3  -3  11   20.34    4.38
   3   3 -12   88.61    9.75
  -3  -3  12  101.03    8.54
   3   3 -13   57.50   10.01
  -3  -3  13   67.35    7.09
   3   3 -14   58.04    9.90
  -3  -3  14   66.66    8.41
   3   3 -15   10.70    5.03
  -3  -3  15    9.65    3.84
   3   3 -16  978.35   42.03
  -3  -3  16 1015.79   27.33
   3   3 -17    5.86    4.69
  -3  -3  17    2.76    2.55
   4   3  12  144.71   13.61
   4   3  11   74.25    7.23
   4   3  10  692.97   18.91
  -4  -3  -9   20.23    2.54
   4   3   8   31.27    3.49
  -4  -3  -8   30.20    2.93
   4   3   7  172.75    7.18
  -4  -3  -7  179.63    6.27
   4   3   6  512.94   15.96
  -4  -3  -6  506.48   14.96
   4   3   5  128.96    5.68
  -4  -3  -5  120.18    5.25
   4   3   4  161.83    6.13
  -4  -3  -4  153.86    6.13
   4   3   3    9.33    2.19
  -4  -3  -3    7.12    2.13
   4   3   2 1287.09   21.55
  -4  -3  -2 1266.39   22.13
   4   3   1  237.45    8.02
  -4  -3  -1  215.35    7.85
   4   3   0  297.53    9.28
  -4  -3   0  284.57    9.27
   4   3  -1  239.23    8.67
  -4  -3   1  235.47    8.89
   4   3  -2 1303.41   24.62
  -4  -3   2 1254.06   24.02
   4   3  -3    6.74    2.21
  -4  -3   3    8.14    2.31
   4   3  -4  173.27    9.03
  -4  -3   4  165.51    8.24
   4   3  -5  121.69    7.43
  -4  -3   5  123.91    7.54
   4   3  -6  433.53   17.24
  -4  -3   6  499.31   18.57
   4   3  -7  179.20   11.07
  -4  -3   7  180.51    9.98
   4   3  -8   29.65    5.13
  -4  -3   8   30.98    5.01
   4   3  -9   16.55    4.65
  -4  -3   9   15.31    4.03
   4   3 -10  642.04   23.39
  -4  -3  10  658.69   21.98
   4   3 -11   61.10    8.01
  -4  -3  11   59.58    6.77
   4   3 -12  144.74   13.52
  -4  -3  12  157.82   12.70
   4   3 -13   92.42   10.58
  -4  -3  13   98.49    9.01
   4   3 -14  295.27   17.22
  -4  -3  14  295.73   19.40
   4   3 -15   14.45    6.09
  -4  -3  15   14.88    8.22
   4   3 -16    8.62    5.89
  -4  -3  16    8.81    3.64
   4   3 -17   25.40    7.31
  -4  -3  17   22.85   15.48
   5   3  12  155.51    9.87
   5   3  11  244.16   14.76
   5   3  10    6.72    2.59
   5   3   9  506.75   16.31
   5   3   8  452.31   14.12
  -5  -3  -8  467.19   10.66
   5   3   7  750.03   17.29
  -5  -3  -7  755.52   13.12
  -5  -3  -6  278.34    7.78
   5   3   5  103.35    6.01
  -5  -3  -5  102.91    5.12
   5   3   4  302.21   11.36
   5   3   3  321.66   11.67
  -5  -3  -3  323.40   11.70
   5   3   2  239.22    9.91
  -5  -3  -2  227.46    9.56
   5   3   1  837.91   18.09
  -5  -3  -1  792.48   17.24
   5   3   0 1302.87   24.52
  -5  -3   0 1250.37   23.64
   5   3  -1  857.69   25.39
  -5  -3   1  817.38   18.71
   5   3  -2  239.13   10.98
  -5  -3   2  235.80   10.81
   5   3  -3  318.92   13.45
  -5  -3   3  316.20   13.32
   5   3  -4  296.13   13.39
  -5  -3   4  286.84   12.93
   5   3  -5  106.43    7.97
  -5  -3   5  112.32    7.76
   5   3  -6  273.90   12.55
  -5  -3   6  274.83   12.02
   5   3  -7  763.83   21.17
  -5  -3   7  743.49   20.63
   5   3  -8  499.53   18.93
  -5  -3   8  432.23   16.72
   5   3  -9  469.71   19.23
  -5  -3   9  452.02   17.60
   5   3 -10    4.19    3.93
  -5  -3  10    4.88    3.27
   5   3 -11  204.47   16.03
  -5  -3  11  234.65   16.17
   5   3 -12  134.29   12.87
  -5  -3  12  139.18   11.03
   5   3 -13   88.79   10.07
  -5  -3  13   88.47   12.17
   5   3 -14  158.75   12.51
  -5  -3  14  178.62   21.76
   5   3 -15  245.22   16.82
  -5  -3  15  223.33   21.08
   5   3 -16   86.50   10.13
  -5  -3  16   77.90   19.34
   6   3  10  164.03   11.45
   6   3   9   -0.46    2.16
   6   3   8   30.44    4.64
   6   3   7   61.13    5.46
  -6  -3  -7   59.00    3.33
   6   3   6  336.45   12.06
  -6  -3  -6  368.51    9.91
   6   3   5   40.39    4.57
  -6  -3  -5   38.17    3.33
   6   3   4   94.62    6.13
  -6  -3  -4   98.44    5.54
   6   3   3   21.77    3.61
  -6  -3  -3   25.38    3.66
   6   3   2  334.09   11.09
  -6  -3  -2  340.53   10.59
   6   3   1   96.16    7.01
  -6  -3  -1   95.25    5.94
   6   3   0   78.45    6.84
  -6  -3   0   61.85    5.06
   6   3  -1   95.86    7.08
  -6  -3   1   95.98    6.23
   6   3  -2  329.92   12.34
  -6  -3   2  330.76   11.84
   6   3  -3   20.67    4.03
  -6  -3   3   20.55    3.91
   6   3  -4  100.06    7.90
  -6  -3   4   89.72    7.06
   6   3  -5   39.75    5.26
  -6  -3   5   36.83    5.27
   6   3  -6  376.65   15.48
  -6  -3   6  347.58   14.56
   6   3  -7   62.52    7.48
  -6  -3   7   63.50    6.82
   6   3  -8   27.10    5.53
  -6  -3   8   37.37    6.23
   6   3  -9    4.50    4.58
  -6  -3   9    2.31    3.71
   6   3 -10  169.38   14.26
  -6  -3  10  150.46   12.56
   6   3 -11   12.03    5.79
  -6  -3  11    5.40    4.32
   6   3 -12   61.36    9.56
  -6  -3  12   62.19   17.07
   6   3 -13   47.84    9.29
  -6  -3  13   35.73   10.86
   6   3 -14  154.81   13.21
  -6  -3  14  170.29   14.00
   6   3 -15    3.80    5.66
  -6  -3  15    1.95    3.14
   7   3  11  149.82   10.68
   7   3  10  198.18   11.73
   7   3   9   37.92    5.63
   7   3   7   17.94    3.94
   7   3   6  590.30   22.37
   7   3   5  509.28   16.95
  -7  -3  -5  503.30   13.54
   7   3   4  716.93   20.45
  -7  -3  -4  694.50   17.66
   7   3   3  290.71   11.75
  -7  -3  -3  321.62   10.76
   7   3   2  452.70   14.94
  -7  -3  -2  447.68   13.51
   7   3   1   46.63    5.34
  -7  -3  -1   45.31    4.45
   7   3   0   23.88    4.46
  -7  -3   0   17.95    3.37
   7   3  -1   48.23    6.07
  -7  -3   1   33.92    4.59
   7   3  -2  468.51   16.49
  -7  -3   2  428.43   15.34
   7   3  -3  317.41   13.62
  -7  -3   3  312.77   13.35
   7   3  -4  731.62   23.01
  -7  -3   4  714.75   22.57
   7   3  -5  523.77   19.60
  -7  -3   5  534.71   19.38
   7   3  -6  668.86   26.80
  -7  -3   6  680.32   26.93
   7   3  -7   25.32    5.31
  -7  -3   7   17.03    4.10
   7   3  -8   10.18    4.19
  -7  -3   8    8.37    4.62
   7   3  -9   48.83    6.84
  -7  -3   9   43.45   14.32
   7   3 -10  206.87   14.47
  -7  -3  10  198.36   19.09
   7   3 -11  167.43   13.98
  -7  -3  11  150.48   26.51
   7   3 -12  151.93   12.72
  -7  -3  12  152.47   23.90
   7   3 -13  239.14   16.58
  -7  -3  13  234.06   21.42
   7   3 -14  759.63   26.40
  -7  -3  14  738.93   25.60
   8   3  11   65.23    9.87
   8   3  10  191.96   11.52
   8   3   9   23.99    4.84
   8   3   8  132.63    9.98
   8   3   7   83.97    7.07
   8   3   6  191.91   13.30
   8   3   5  106.32    8.93
   8   3   4  183.17   13.05
  -8  -3  -4  185.25    9.53
   8   3   3   72.89    6.93
  -8  -3  -3   72.39    5.86
   8   3   2  249.00   13.21
  -8  -3  -2  271.20   12.30
   8   3   1   95.85    8.02
  -8  -3  -1  104.41    7.24
   8   3   0  171.94   10.99
  -8  -3   0  150.84    9.51
   8   3  -1   94.67    8.23
  -8  -3   1   94.14    7.87
   8   3  -2  288.66   14.80
  -8  -3   2  250.48   13.43
   8   3  -3   70.86    7.32
  -8  -3   3   63.20    6.96
   8   3  -4  203.62   12.86
  -8  -3   4  207.27   13.17
   8   3  -5  114.72   10.61
  -8  -3   5  110.83   10.31
   8   3  -6  228.53   16.30
  -8  -3   6  217.99   17.71
   8   3  -7   93.90    9.50
  -8  -3   7  104.73   18.04
   8   3  -8  133.73   10.88
  -8  -3   8  134.17   16.71
   8   3  -9   38.43    7.01
  -8  -3   9   43.56   17.87
   8   3 -10  239.38   14.63
  -8  -3  10  249.75   22.50
   8   3 -11   96.80   14.86
  -8  -3  11   69.19   27.00
   8   3 -12  131.45   12.28
  -8  -3  12  130.27   41.91
   8   3 -13   71.83   11.13
  -8  -3  13   60.72   20.37
   9   3  10  165.11   12.67
   9   3   9   -0.14    2.62
   9   3   8  851.78   24.06
   9   3   7   92.33    8.61
   9   3   5  191.64   12.33
   9   3   4   80.01    7.90
   9   3   3  201.90   12.40
  -9  -3  -3  176.88   12.03
   9   3   2  215.20   13.73
  -9  -3  -2  182.27   13.05
   9   3   1   26.23    5.64
  -9  -3  -1   25.54   12.88
   9   3   0 1179.64   56.88
  -9  -3   0 1283.27   31.37
   9   3  -1   30.42    6.54
  -9  -3   1   30.24   15.37
   9   3  -2  224.37   13.93
   9   3  -3  207.57   13.50
  -9  -3   3  187.52   23.83
   9   3  -4   91.54    9.13
  -9  -3   4   89.84   21.06
   9   3  -5  204.66   13.23
  -9  -3   5  188.50   24.39
   9   3  -6   52.67    7.96
  -9  -3   6   52.66   21.29
   9   3  -7  103.79   10.24
  -9  -3   7   98.66   29.62
   9   3  -8  962.72   27.01
  -9  -3   8  943.52   28.69
   9   3  -9    1.55    3.67
  -9  -3   9    3.13    5.06
   9   3 -10  205.91   14.93
  -9  -3  10  184.53   20.64
   9   3 -11   86.66   10.50
  -9  -3  11   62.05   26.64
   9   3 -12  175.17   18.17
  -9  -3  12  159.60   22.22
  10   3  10   35.30    7.94
  10   3   9   46.56    6.82
  10   3   8  103.91   10.04
  10   3   7    3.35    3.24
  10   3   5    5.08    5.39
  10   3   4  144.96   10.59
  10   3   3   84.69    8.67
  10   3   2   24.21    5.04
  10   3   1    7.07    4.11
 -10  -3  -1    7.78    4.38
  10   3   0   92.27   10.72
 -10  -3   0   72.13   13.92
  10   3  -1    4.44    4.05
 -10  -3   1    9.11    3.68
  10   3  -2   25.08    5.98
 -10  -3   2   24.79   10.75
  10   3  -3   72.95    8.05
 -10  -3   3   65.72   12.18
  10   3  -4  116.77    9.93
 -10  -3   4  139.73   13.04
  10   3  -5    7.09    4.09
 -10  -3   5    1.10    3.75
 -10  -3   6    0.91    3.21
 -10  -3   7    1.41    3.79
  10   3  -8  136.87   13.84
 -10  -3   8  123.98   33.24
  10   3  -9   71.99   11.55
 -10  -3   9   57.52   17.37
  10   3 -10   36.12    7.16
 -10  -3  10   32.30   25.81
  11   3   7  159.30   14.24
  11   3   6   30.32    6.97
  11   3   5   55.04    7.69
  11   3   4   14.72    5.53
  11   3   3   37.71    7.33
  11   3   2    9.20    4.38
  11   3   1  405.56   20.86
  11   3   0  463.99   22.55
 -11  -3   0  427.40   21.03
  11   3  -1  398.42   21.33
 -11  -3   1  368.19   19.00
  11   3  -2   11.14    5.45
 -11  -3   2    9.52    5.23
  11   3  -3   58.94    8.69
 -11  -3   3   42.52   22.43
  11   3  -4   18.43    6.17
 -11  -3   4   13.45    8.17
  11   3  -5   61.19    9.34
 -11  -3   5   58.46   26.82
  11   3  -6   23.53    7.12
 -11  -3   6   26.79   14.48
  11   3  -7  179.94   17.31
 -11  -3   7  183.98   18.40
  12   3   2   21.44    7.95
  12   3   1   22.45    5.88
  12   3   0  327.14   22.78
  12   3  -1   19.76    7.07
  12   3  -2   28.16    7.09
 -12  -3   2   14.46   10.09
  11  -4  -4    5.57    4.54
  11  -4  -3   50.76    8.31
 -11   4   3   53.47   11.74
  11  -4  -2    3.40    3.98
 -11   4   2    4.23    5.85
  11  -4  -1   78.63   13.82
 -11   4   1   91.13   10.33
  11  -4   0    5.01    5.84
 -11   4   0    2.27    3.70
  11  -4   1   98.34   10.94
 -11   4  -1   86.42    9.79
 -11   4  -2    7.49    4.92
  11  -4   3   39.14    7.32
 -11   4  -3   49.46    8.99
 -11   4  -4    8.63    6.47
  10  -4  -8  218.00   16.09
 -10   4   8  231.95   19.14
  10  -4  -7    5.50    5.13
 -10   4   7    5.08    6.55
  10  -4  -6    4.61    3.34
 -10   4   6    9.62    5.29
  10  -4  -5  240.16   14.99
 -10   4   5  222.59   15.68
  10  -4  -4 1372.68   46.10
 -10   4   4 1426.80   34.68
  10  -4  -3   64.70    9.66
 -10   4   3   46.24   17.96
  10  -4  -2   11.64    3.90
 -10   4   2   11.54    4.82
  10  -4  -1    3.34    4.33
 -10   4   1    9.34    5.09
  10  -4   0  315.13   18.39
 -10   4   0  282.90   17.67
  10  -4   1    5.89    3.63
 -10   4  -1    8.47    3.98
  10  -4   2   12.01    4.46
 -10   4  -2   16.79    6.04
  10  -4   3   68.84   10.91
  10  -4   3   55.87    9.06
 -10   4  -3   73.16   11.45
  10  -4   4 1411.44   33.45
 -10   4  -4 1368.92   47.40
  10  -4   5  217.68   15.02
 -10   4  -5  217.75   14.98
  10  -4   6   13.50    5.20
 -10   4  -6    5.49    4.29
  10  -4   7    3.96    4.53
 -10   4  -7    5.75    3.63
  10  -4   8  210.97   17.59
 -10   4  -8  205.66   36.21
  -9   4  10   44.78   11.12
   9  -4  -9   77.95    8.26
  -9   4   9   93.34   10.89
   9  -4  -8   95.29   17.69
  -9   4   8  113.62   11.88
  -9   4   7    5.08    5.75
   9  -4  -6  160.36   10.58
  -9   4   6  174.44   12.62
   9  -4  -5   16.44    3.88
  -9   4   5   19.18    5.90
   9  -4  -4  151.93   10.33
  -9   4   4  148.35   12.17
   9  -4  -3  108.31    9.17
  -9   4   3  111.51   10.63
   9  -4  -2   87.13    7.98
  -9   4   2   89.45    9.54
   9  -4  -1    5.99    3.26
  -9   4   1   13.45    4.60
   9  -4   0  211.43   13.99
  -9   4   0  195.97   14.06
   9  -4   1   12.77    4.35
  -9   4  -1   13.88    4.85
   9  -4   2   86.87    9.19
  -9   4  -2   87.89    9.14
   9  -4   3  117.08   10.99
   9  -4   3  100.79    9.22
  -9   4  -3  120.77   11.21
   9  -4   4  143.46   11.32
   9  -4   4  131.76   10.17
  -9   4  -4  128.50   10.38
   9  -4   5   15.88    6.38
   9  -4   5   17.74    5.54
  -9   4  -5   13.41    4.22
   9  -4   6  165.99   12.76
  -9   4  -6  152.95   16.88
   9  -4   7    7.58    6.41
  -9   4  -7    3.98    5.07
   9  -4   8  118.69   12.09
  -9   4  -8  107.26   20.25
   9  -4   9   94.92   10.68
  -9   4  -9   72.35    8.12
   9  -4  10   36.56    7.83
  -9   4 -10   27.68   15.48
  -8   4  12  123.01   13.44
  -8   4  11  110.31   12.54
  -8   4  10   88.77   11.46
   8  -4  -9  379.35   18.56
  -8   4   9  393.44   23.01
   8  -4  -8  141.61    9.07
  -8   4   8  143.17   11.70
   8  -4  -7  266.41   13.14
  -8   4   7  276.75   16.15
   8  -4  -6   88.04    7.76
  -8   4   6   81.44    9.10
   8  -4  -5   80.94    7.25
  -8   4   5   64.35    7.91
   8  -4  -4   51.38    6.22
  -8   4   4   53.18    9.11
  -8   4   3  136.73   12.03
   8  -4  -2    1.79    3.01
  -8   4   2    2.92    5.14
  -8   4   1  417.23   24.89
   8  -4   0  240.01   16.28
  -8   4   0  204.12   15.18
   8  -4   1  490.69   27.77
  -8   4  -1  444.36   26.16
   8  -4   2    3.11    3.89
  -8   4  -2    8.78    5.82
   8  -4   3  108.38    9.71
   8  -4   3  118.47   10.02
  -8   4  -3  122.91   10.54
   8  -4   4   67.82    8.59
   8  -4   4   53.57    6.74
  -8   4  -4   51.95    6.83
   8  -4   5   69.60    8.10
   8  -4   5   54.19    6.62
   8  -4   6   71.13    8.40
   8  -4   6   78.43    7.68
  -8   4  -6   64.31   26.20
   8  -4   7  281.69   16.75
  -8   4  -7  268.43   14.02
   8  -4   8  160.57   12.54
  -8   4  -8  148.48   10.15
   8  -4   9  385.49   22.19
  -8   4  -9  392.92   19.54
   8  -4  10   90.89   10.76
  -8   4 -10  100.34    8.97
   8  -4  11  116.34   11.89
   8  -4  12  131.63   14.56
  -7   4  13   38.01   20.70
  -7   4  12   46.77   18.84
  -7   4  11   38.53   13.53
  -7   4  10  115.35   10.83
   7  -4  -9   44.09    5.53
  -7   4   9   49.33    7.62
   7  -4  -8   66.34    6.44
  -7   4   8   55.37   15.68
   7  -4  -7  152.87   21.65
  -7   4   7  162.98   12.43
   7  -4  -6   99.37    7.45
  -7   4   6  115.15   11.65
   7  -4  -5   41.86    5.27
  -7   4   5   56.72    7.31
   7  -4  -4   71.98    6.97
  -7   4   4   66.18    8.64
   7  -4  -3   17.49    3.61
  -7   4   3   30.41    7.36
   7  -4  -2  154.13    9.85
   7  -4  -1  152.69   10.19
  -7   4   1  169.72   12.21
   7  -4   0  114.96    9.23
  -7   4   0  114.45    9.52
   7  -4   1  153.07   10.60
  -7   4  -1  142.53   10.25
   7  -4   2  155.74   10.73
  -7   4  -2  150.31   10.76
   7  -4   3   16.79    4.67
   7  -4   3   21.41    4.28
  -7   4  -3   20.78    4.33
   7  -4   4   75.28    8.42
   7  -4   4   63.96    7.24
  -7   4  -4   71.12    7.49
   7  -4   5   45.96    7.02
  -7   4  -5   47.89    6.55
   7  -4   6  115.39   11.35
   7  -4   6  117.92   10.26
  -7   4  -6  110.80    8.76
   7  -4   7  154.48   12.50
   7  -4   7  134.03   16.86
  -7   4  -7  173.91   11.31
   7  -4   8   62.21   16.83
   7  -4   8   48.59    5.84
  -7   4  -8   56.87    6.26
   7  -4   9   42.78    7.55
  -7   4  -9   48.50    6.22
   7  -4  10  115.27   10.81
  -7   4 -10  115.76    8.02
   7  -4  11   40.97    8.85
   7  -4  12   62.06   21.36
   7  -4  13   51.44   30.54
  -6   4  14  378.37   21.08
  -6   4  13   66.05   29.18
  -6   4  12  132.54   12.26
  -6   4  11   96.21   16.68
  -6   4  10 1848.43   38.05
   6  -4  -9    0.96    2.43
  -6   4   9    4.73    4.20
   6  -4  -8  233.77   13.95
  -6   4   8  243.66   17.40
   6  -4  -7   29.87    3.88
  -6   4   7   36.77    5.96
   6  -4  -6 1098.77   19.85
  -6   4   6 1033.67   38.23
   6  -4  -5  106.85    7.28
  -6   4   5  115.07   10.02
   6  -4  -4  226.59   10.15
  -6   4   4  241.82   13.62
   6  -4  -3  308.17   12.07
  -6   4   3  339.84   15.49
   6  -4  -2 2218.59   42.33
  -6   4   2 2174.62   45.92
   6  -4  -1   -0.32    2.23
  -6   4   1    2.77    4.51
   6  -4   0  272.02   11.88
  -6   4   0  269.67   13.39
   6  -4   1    3.50    2.81
  -6   4  -1    2.77    3.32
   6  -4   2 2144.51   43.45
   6  -4   2 2137.37   45.29
  -6   4  -2 2112.29   42.90
   6  -4   3  304.66   14.04
   6  -4   3  301.59   14.71
  -6   4  -3  298.33   13.01
   6  -4   4  220.86   12.25
   6  -4   4  202.84   11.53
  -6   4  -4  218.09   11.31
   6  -4   5  107.48    9.14
   6  -4   5   96.47    8.39
  -6   4  -5  101.00    7.86
   6  -4   6 1050.44   38.52
   6  -4   6  917.04   32.70
   6  -4   7   37.41    6.08
   6  -4   7   43.44    5.63
   6  -4   8  217.82   16.48
   6  -4   8  188.71   12.75
  -6   4  -8  230.60   14.39
   6  -4   9    3.50    4.09
   6  -4   9    2.49    3.07
  -6   4  -9    4.54    3.94
   6  -4  11  102.36   21.33
   6  -4  12  135.04   41.17
   6  -4  13   65.81   27.94
   6  -4  14  368.95   20.75
  -5   4  15  120.75   38.16
  -5   4  14   20.37   14.38
  -5   4  13   55.88   26.17
  -5   4  12    9.30    8.69
  -5   4  11  178.65   14.56
  -5   4  10   34.56   10.17
   5  -4  -9  285.41   12.29
  -5   4   9  265.61   24.09
  -5   4   8   69.28   20.87
   5  -4  -7   25.96    3.69
  -5   4   7   32.97   12.14
   5  -4  -6    3.54    2.66
  -5   4   6    7.11    4.21
   5  -4  -5  208.76    8.66
  -5   4   5  204.33   12.16
   5  -4  -4    1.27    1.82
  -5   4   4    1.49    3.68
   5  -4  -3  604.76   14.93
  -5   4   3  662.10   19.92
   5  -4  -2   31.41    5.49
  -5   4   2   36.22    5.16
   5  -4  -1   71.54    5.85
  -5   4   1   57.73    6.04
   5  -4   0   49.19    4.90
  -5   4   0   48.86    5.65
   5  -4   1   61.01    5.32
  -5   4  -1   60.62    5.93
   5  -4   2   32.75    4.58
   5  -4   2   26.29    5.26
  -5   4  -2   29.31    6.86
   5  -4   3  632.07   17.95
   5  -4   3  623.76   20.00
  -5   4  -3  597.75   18.40
   5  -4   4    5.45    4.51
   5  -4   4    4.27    4.73
  -5   4  -4    1.78    2.31
   5  -4   5  224.67   27.69
   5  -4   5  230.32   12.22
  -5   4  -5  192.96    9.37
   5  -4   6    2.33    4.88
   5  -4   6    3.82    2.94
  -5   4  -6    5.68    2.61
   5  -4   7   42.02    6.82
   5  -4   7   21.90    4.10
  -5   4  -7   32.65    4.52
   5  -4   8   54.68    7.35
   5  -4   8   50.85    5.64
  -5   4  -8   56.12    5.12
   5  -4   9  295.90   19.71
   5  -4   9  278.93   16.63
  -5   4  -9  270.08   15.12
   5  -4  10   40.51   12.39
   5  -4  10   35.01    4.73
   5  -4  11  161.77   13.42
   5  -4  12   16.69   10.13
   5  -4  13   60.58   21.13
   5  -4  14   19.44    8.53
   5  -4  15  110.64   25.32
  -4   4  16    5.58    7.25
  -4   4  15  134.54   12.75
  -4   4  14  438.36   28.18
  -4   4  13  149.77   12.62
  -4   4  11  194.65   18.02
  -4   4  10   64.79   24.45
   4  -4  -9  147.55    7.27
  -4   4   9  146.65   19.59
   4  -4  -8   50.93    3.82
  -4   4   8   56.46   21.43
   4  -4  -7   93.25    7.80
  -4   4   7   92.23   15.11
   4  -4  -6  372.54    9.85
  -4   4   6  358.83   16.17
   4  -4  -5  369.85    9.85
  -4   4   5  364.22   15.50
   4  -4  -4 1502.87   21.97
  -4   4   4 1583.57   32.05
   4  -4  -3  573.60   13.11
  -4   4   3  592.33   17.74
   4  -4  -2   93.60    5.78
  -4   4   2   81.77    7.27
   4  -4  -1   98.80    6.08
  -4   4   1   97.96    6.99
   4  -4   0   42.49    4.27
  -4   4   0   37.85    4.83
   4  -4   1   93.68    6.24
   4  -4   1  100.54    7.54
  -4   4  -1   96.54    6.79
   4  -4   2  101.66    6.73
   4  -4   2   91.47    7.58
  -4   4  -2  100.77    7.06
   4  -4   3  569.87   16.47
   4  -4   3  521.14   16.46
  -4   4  -3  570.75   15.25
   4  -4   4 1565.78   29.08
   4  -4   4 1632.16   31.36
  -4   4  -4 1548.15   25.41
   4  -4   5  356.15   14.08
   4  -4   5  361.17   14.18
  -4   4  -5  372.07   11.95
   4  -4   6  346.73   14.31
   4  -4   6  346.63   13.67
  -4   4  -6  343.15   10.90
   4  -4   7   98.39    8.76
   4  -4   7   78.29    6.82
  -4   4  -7   95.47    6.80
   4  -4   8   55.61   19.28
   4  -4   8   50.09    5.62
  -4   4  -8   49.51   11.54
   4  -4   9  156.38   39.63
   4  -4   9  143.82    9.39
  -4   4  -9  148.04    7.68
   4  -4  10   57.09   15.24
   4  -4  10   52.62    6.00
   4  -4  11  181.77   39.59
   4  -4  11  176.69   10.79
   4  -4  12  400.08   24.42
   4  -4  13  151.05   14.11
   4  -4  14  468.23   38.66
   4  -4  15  139.75   13.33
   4  -4  16   12.47    7.84
  -3   4  16   81.11   20.32
  -3   4  15    1.11    3.39
  -3   4  14  104.31   38.56
  -3   4  13    4.95    5.29
  -3   4  12  437.94   27.01
  -3   4  11   14.22    8.77
  -3   4  10  177.22   15.04
   3  -4  -9    9.31    1.78
  -3   4   9   10.48    4.06
   3  -4  -8  144.39    5.40
  -3   4   8  151.56   11.06
   3  -4  -7    1.40    1.61
  -3   4   7    1.79    2.85
   3  -4  -6  405.10    8.55
  -3   4   6  408.74   20.94
   3  -4  -5   20.85    2.35
  -3   4   5   20.79    7.32
   3  -4  -4  755.02   20.36
  -3   4   4  665.52   24.40
   3  -4  -3   29.18    3.91
  -3   4   3   30.34   13.41
   3  -4  -2  350.89    9.55
  -3   4   2  361.14   15.56
   3  -4  -1    3.29    2.15
   3  -4   0  326.25   10.44
   3  -4   0  301.35   12.47
  -3   4   0  315.72   11.75
   3  -4   1    2.97    1.87
   3  -4   1    3.67    3.51
  -3   4  -1    1.38    2.24
   3  -4   2  367.31   12.14
   3  -4   2  334.69   13.44
  -3   4  -2  354.78   11.50
   3  -4   3   27.96    4.00
   3  -4   3   26.54    4.97
  -3   4  -3   30.09    3.79
   3  -4   4  678.22   22.44
   3  -4   4  764.77   25.47
  -3   4  -4  699.06   21.04
   3  -4   5   29.36    4.94
   3  -4   5   22.45    4.84
  -3   4  -5   19.81    3.11
   3  -4   6  424.49   25.40
   3  -4   6  390.79   14.49
  -3   4  -6  424.35   11.11
   3  -4   7    3.82    3.82
   3  -4   7    2.51    2.93
  -3   4  -7    2.05    2.46
   3  -4   8  141.69   14.99
   3  -4   8  144.79    8.83
  -3   4  -8  138.64    6.02
   3  -4   9   19.76    6.06
   3  -4   9   12.05    3.46
  -3   4  -9   13.06    2.46
   3  -4  10  163.44   37.23
   3  -4  10  171.20   10.19
   3  -4  11   15.39    7.28
   3  -4  11   13.28    3.39
   3  -4  12  451.93   24.15
   3  -4  12  453.56   19.87
   3  -4  13   12.99    6.70
   3  -4  14  113.85   17.12
   3  -4  15    2.29    4.56
   3  -4  16   76.75   39.62
  -2   4  17  173.35   15.31
  -2   4  16   87.03   37.96
  -2   4  15   81.74   33.25
  -2   4  14    6.45    5.84
  -2   4  13  184.58   14.10
  -2   4  12 1209.32   59.51
  -2   4  11  323.01   23.09
  -2   4  10  447.06   21.15
  -2   4   9  155.32   19.74
   2  -4  -8   83.42    2.80
  -2   4   8   97.57   14.05
   2  -4  -7  600.27    8.05
  -2   4   7  640.81   20.48
   2  -4  -6  129.69    3.58
  -2   4   6  134.54   11.20
  -2   4   5  133.19    3.84
  -2   4   5  139.89   17.68
   2  -4  -4 3181.96   38.92
  -2   4   4 3458.21   45.57
   2  -4  -3  382.85    8.56
  -2   4   3  405.78   14.62
   2  -4  -2  368.10    8.78
   2  -4  -2  394.30   14.30
  -2   4   2  363.42   12.96
   2  -4  -1  506.31   11.52
   2  -4  -1  525.34   16.45
  -2   4   1  513.80   15.13
   2  -4   0   32.11    3.33
   2  -4   0   31.34    4.77
  -2   4   0   35.44   14.68
   2  -4   1  501.91   13.04
   2  -4   1  492.65   15.84
  -2   4  -1  510.35   14.16
   2  -4   2  379.91   12.61
   2  -4   2  419.80   15.29
  -2   4  -2  361.96   15.47
   2  -4   3  407.48   24.70
   2  -4   3  423.97   14.71
  -2   4  -3  387.88   12.36
   2  -4   4 3377.31   51.07
   2  -4   4 3428.77   38.10
  -2   4  -4 3372.46   46.82
   2  -4   5  221.82   21.48
   2  -4   5  194.99   10.80
  -2   4  -5  211.86   16.07
   2  -4   6  169.44   18.03
   2  -4   6  156.59    9.30
  -2   4  -6  169.81    6.63
   2  -4   7  673.04   28.52
   2  -4   7  631.17   17.51
  -2   4  -7  663.04   13.08
   2  -4   8   94.75   11.59
   2  -4   8   90.39    7.13
  -2   4  -8   82.61   11.82
   2  -4   9  151.47   17.83
   2  -4   9  152.28    9.13
   2  -4  10  425.93   23.20
   2  -4  10  404.60   17.81
   2  -4  11  353.35   19.16
   2  -4  11  357.05   16.66
   2  -4  12 1266.89   43.12
   2  -4  12 1198.68   56.94
   2  -4  13  182.94   13.92
   2  -4  13  182.27   11.07
   2  -4  14   -0.15    4.86
   2  -4  15   93.70   18.55
   2  -4  16   97.41   10.86
   2  -4  17  183.84   23.77
  -1   4  16    5.42    4.11
  -1   4  15   54.47   26.56
  -1   4  14    5.67    2.93
  -1   4  13   57.37   17.35
  -1   4  12   98.77   29.97
  -1   4  11  160.21   15.98
  -1   4  10   63.67   16.89
  -1   4   9  205.45   23.08
  -1   4   8   38.08   14.83
  -1   4   7   62.21   10.28
  -1   4   6  206.03   11.92
  -1   4   5  232.00   26.09
  -1   4   4    7.29    4.15
  -1   4   3  375.12    6.59
  -1   4   3  464.71   15.03
   1  -4  -2   84.21    7.85
   1  -4  -2   73.36    6.03
  -1   4   2   81.66   12.98
   1  -4  -1  121.08   10.69
   1  -4  -1  113.29    7.71
  -1   4   1  131.42   17.50
   1  -4   0  231.79   14.77
   1  -4   0  224.47   10.15
  -1   4   0  236.78   11.27
   1  -4   1  120.99   10.70
   1  -4   1  118.44    7.84
  -1   4  -1  115.02   14.53
   1  -4   2   94.85    9.37
   1  -4   2   82.86    6.46
  -1   4  -2   88.12   13.56
   1  -4   3  444.48   27.57
   1  -4   3  467.17   15.32
  -1   4  -3  480.32   15.38
   1  -4   4   10.35    2.92
   1  -4   4    8.48    3.31
  -1   4  -4    8.65    3.12
   1  -4   5  247.02   26.55
   1  -4   5  212.58   11.15
  -1   4  -5  248.09   10.00
   1  -4   6  214.03   18.59
   1  -4   6  214.40   11.23
  -1   4  -6  215.23    8.21
   1  -4   7   66.19   10.98
   1  -4   7   65.21    6.32
  -1   4  -7   53.28    4.79
   1  -4   8   45.29   14.06
   1  -4   8   27.57    4.78
  -1   4  -8   23.74    4.19
   1  -4   9  231.54   13.05
   1  -4   9  207.63   10.52
   1  -4  10   66.65   20.02
   1  -4  10   53.25    5.86
   1  -4  11  165.51   14.38
   1  -4  11  162.24   10.21
   1  -4  12   89.13   28.54
   1  -4  12   76.01    7.35
   1  -4  13   88.58   30.12
   1  -4  13   79.84    6.96
   1  -4  14    5.90    6.84
   1  -4  14    9.26    4.12
   1  -4  15   75.24   16.54
   1  -4  15   74.49   10.37
   1  -4  16    7.30    4.47
   1  -4  16    5.90    4.12
   0   4  14   75.68    9.20
   0   4  13    1.87    3.62
   0   4  12   52.50   21.29
   0   4  11    2.99    3.75
   0   4  10  938.79   28.21
   0   4   9    1.07    3.56
   0   4   8 1802.05   35.84
   0   4   7    2.16    2.73
   0   4   6  347.53   15.95
   0  -4  -5    2.90    3.64
   0   4   5    0.30    2.20
   0  -4  -4  107.24    7.35
   0   4   4  108.04   13.71
   0   4   3    0.31    0.26
   0  -4  -3    2.15    3.34
   0   4   3    0.76    2.05
   0   4   2  516.56    8.22
   0  -4  -2  539.86   15.27
   0   4   2  546.53   14.79
   0  -4  -1    4.07    1.44
   0  -4  -1    2.37    1.77
   0   4   1    1.19    1.97
   0  -4   0 4710.91   41.38
   0  -4   0 4811.20   52.69
   0   4   0 4700.44   49.00
   0  -4   1    0.33    1.10
   0  -4   1    1.07    2.67
   0   4  -1    2.15    1.68
   0  -4   2  565.91   13.40
   0  -4   2  546.18   15.70
   0   4  -2  592.41   13.56
   0  -4   3    0.62    1.42
   0  -4   3    2.72    3.62
   0   4  -3   -0.40    1.68
   0  -4   4  129.66   20.55
   0  -4   4  118.08    7.48
   0   4  -4  113.29    6.87
   0  -4   5    1.50    2.26
   0  -4   5    1.22    2.25
   0   4  -5    0.88    1.49
   0  -4   6  398.45   15.74
   0  -4   6  410.04   16.37
   0  -4   7    0.27    2.53
   0  -4   7    2.39    3.15
   0  -4   8 1876.60   43.16
   0  -4   8 1774.43   39.94
   0  -4   9    2.01    2.98
   0  -4   9    1.99    2.68
   0  -4  10 1014.26   30.56
   0  -4  10  932.79   26.29
   0  -4  11    4.94    5.82
   0  -4  11    2.14    4.49
   0  -4  12   67.00   22.19
   0  -4  12   43.40    5.81
   0  -4  13    1.54    2.66
   0  -4  13    0.87    2.64
   0  -4  14   81.37   32.40
   0  -4  15    1.72    3.35
   0  -4  15    0.03    2.99
   0  -4  16  452.61   26.02
   0  -4  16  425.54   20.37
   0  -4  17   -0.44    2.96
   1   4  11  133.79   10.11
   1   4  10   65.74    8.27
  -1  -4  -9  242.90   11.05
   1   4   9  203.56   11.78
  -1  -4  -8   31.69    4.30
   1   4   8   31.84   13.65
  -1  -4  -7   54.14    5.49
   1   4   7   60.23   21.69
  -1  -4  -6  210.77   10.77
   1   4   6  187.51   11.07
  -1  -4  -5  222.76   11.03
   1   4   5  231.42   12.04
  -1  -4  -4    6.62    2.65
   1   4   4    9.34    3.24
   1   4   3  403.68    6.22
  -1  -4  -3  476.72   15.15
   1   4   3  441.31   14.44
   1   4   2   75.06    3.08
  -1  -4  -2   94.94    6.61
   1   4   2   79.01   13.29
   1   4   1   93.60    4.28
  -1  -4  -1  119.27    7.10
   1   4   1  108.49    8.36
   1   4   0  201.01    6.85
  -1  -4   0  232.39    9.96
   1   4   0  218.48    8.74
  -1  -4   1  104.67    7.00
   1   4  -1  109.13   13.50
  -1  -4   2   77.09    9.45
  -1  -4   2   84.46    6.60
   1   4  -2   74.04    4.85
  -1  -4   3  399.77   16.59
  -1  -4   3  447.14   14.72
  -1  -4   4    9.28    2.79
  -1  -4   4    7.89    2.70
  -1  -4   5  236.26   10.94
  -1  -4   5  228.77   11.39
  -1  -4   6  220.86   10.98
  -1  -4   6  202.59   10.99
  -1  -4   7   66.60   15.84
  -1  -4   7   61.52    6.24
  -1  -4   8   34.54   10.44
  -1  -4   8   32.64    4.76
  -1  -4   9  214.83   29.51
  -1  -4   9  205.31   10.73
  -1  -4  10   54.86   20.43
  -1  -4  10   51.47    5.89
  -1  -4  11  182.81   25.26
  -1  -4  11  156.64   10.54
  -1  -4  12   81.71   28.33
  -1  -4  12   82.47    7.83
  -1  -4  13   73.22   24.47
  -1  -4  13   71.15    7.40
  -1  -4  14    7.85    5.47
  -1  -4  14    6.00    3.21
  -1  -4  15   65.64   33.45
  -1  -4  16    9.27    4.82
  -1  -4  17   65.43    8.66
  -2  -4 -12 1169.13   55.05
  -2  -4 -11  350.04   15.41
  -2  -4 -10  409.70   17.15
  -2  -4  -9  140.96    8.32
  -2  -4  -8   90.90    6.44
  -2  -4  -7  628.59   16.35
  -2  -4  -6  163.51    8.57
  -2  -4  -5  217.37   10.53
   2   4   4 2902.73   42.83
   2   4   4 2828.97   33.91
  -2  -4  -3  408.31   13.16
   2   4   2  340.40    7.91
  -2  -4  -2  355.19   12.35
   2   4   1  465.20   10.47
  -2  -4  -1  458.01   14.09
   2   4   0   25.50    3.22
  -2  -4   0   22.90    3.59
   2   4  -1  420.93   11.71
  -2  -4   1  475.45   14.56
   2   4  -2  334.46   11.17
  -2  -4   2  347.70   12.32
   2   4  -3  350.62   12.24
  -2  -4   3  377.79   13.30
   2   4  -5  199.23   10.90
  -2  -4   5  179.24   10.09
  -2  -4   6  156.82    9.02
  -2  -4   7  636.93   18.89
  -2  -4   7  565.13   16.98
  -2  -4   8   91.41    7.60
  -2  -4   8  101.20    7.96
  -2  -4   9  130.56    9.48
  -2  -4   9  136.19    9.33
  -2  -4  10  387.40   18.61
  -2  -4  10  399.58   18.31
  -2  -4  11  342.87   18.18
  -2  -4  11  309.12   15.49
  -2  -4  12 1177.01   58.43
  -2  -4  12 1091.23   53.20
  -2  -4  13  173.08   12.33
   2   4 -14    1.90    4.73
  -2  -4  14    1.13    3.87
   2   4 -15   84.15   13.08
  -2  -4  15   80.89   11.48
   2   4 -16  101.14   11.82
  -2  -4  16  102.39    9.29
   2   4 -17  161.04   16.53
  -2  -4  17  182.41   18.51
  -3  -4  -9   10.44    2.80
  -3  -4  -8  150.81    8.01
   3   4   7    1.44    1.12
  -3  -4  -7    3.48    3.25
   3   4   6  400.11    8.12
  -3  -4  -6  376.99   12.05
  -3  -4  -5   27.43    3.89
   3   4   4  601.47   16.22
  -3  -4  -4  617.62   19.99
   3   4   3   22.45    2.28
  -3  -4  -3   20.90    3.48
   3   4   2  349.12    9.01
  -3  -4  -2  322.57   11.25
   3   4   1    4.10    2.46
  -3  -4  -1    2.73    1.85
   3   4   0  268.89    9.22
  -3  -4   0  292.65   10.82
   3   4  -1    1.25    1.79
  -3  -4   1    5.96    3.56
   3   4  -2  302.04   10.77
  -3  -4   2  336.73   12.33
   3   4  -3   27.52    4.29
  -3  -4   3   25.90    4.29
   3   4  -4  608.34   21.07
  -3  -4   4  626.01   21.60
   3   4  -5   19.33    4.67
  -3  -4   5   17.17    3.65
   3   4  -6  353.86   14.08
  -3  -4   6  377.10   14.13
   3   4  -7    5.15    4.60
  -3  -4   7    1.07    2.85
   3   4  -8  136.50   10.16
  -3  -4   8  130.36    9.06
   3   4  -9    9.96    4.40
  -3  -4   9   16.16    4.25
   3   4 -10  160.23   12.35
  -3  -4  10  171.67   11.21
   3   4 -11   14.50    5.11
  -3  -4  11    7.76    3.51
   3   4 -12  399.05   21.74
  -3  -4  12  379.66   18.79
   3   4 -13    5.43    4.77
  -3  -4  13    4.44    3.53
   3   4 -14   97.47   11.48
  -3  -4  14  102.18    9.73
   3   4 -15    5.61    7.84
  -3  -4  15    2.71    3.35
   3   4 -16   67.82   10.49
  -3  -4  16   70.72    8.50
  -4  -4  -9  124.92    7.32
   4   4   8   45.59    3.82
  -4  -4  -8   45.30    4.50
   4   4   7   95.37    5.12
  -4  -4  -7   79.50    5.42
   4   4   6  293.08    8.70
  -4  -4  -6  295.89   10.27
   4   4   5  301.71    8.47
  -4  -4  -5  318.32   10.74
   4   4   4 1279.14   18.86
  -4  -4  -4 1294.99   22.34
   4   4   3  498.46   11.10
  -4  -4  -3  495.15   13.47
   4   4   2   77.99    4.77
  -4  -4  -2   81.73    5.77
   4   4   1   87.73    5.48
  -4  -4  -1   97.30    6.46
   4   4   0   33.52    4.17
  -4  -4   0   32.79    4.37
   4   4  -1   88.90    6.46
  -4  -4   1   87.63    6.18
   4   4  -2   88.99    7.18
  -4  -4   2   93.08    6.60
   4   4  -3  494.25   14.97
  -4  -4   3  540.38   16.12
   4   4  -4 1271.54   25.61
  -4  -4   4 1393.59   26.87
   4   4  -5  295.01   12.78
  -4  -4   5  301.67   12.52
   4   4  -6  298.68   13.07
  -4  -4   6  305.63   13.50
   4   4  -7   81.89    8.13
  -4  -4   7   88.75    7.93
   4   4  -8   38.22    5.92
  -4  -4   8   37.91    5.48
   4   4  -9  118.32   10.74
  -4  -4   9  131.13   10.09
   4   4 -10   46.55    6.74
  -4  -4  10   43.79    5.77
   4   4 -11  174.43   13.49
  -4  -4  11  155.43   11.20
   4   4 -12  319.04   18.67
  -4  -4  12  361.78   17.96
   4   4 -13  130.44   11.67
  -4  -4  13  137.54   10.86
   4   4 -14  403.88   23.31
  -4  -4  14  389.69   21.08
   4   4 -15  109.91   11.71
  -4  -4  15  117.84   10.83
   4   4 -16    7.66    6.06
  -4  -4  16    6.65    7.48
   5   4   8   52.98    4.60
  -5  -4  -8   50.65    4.05
  -5  -4  -7   28.47    3.33
   5   4   6    4.18    1.95
   5   4   5  177.97    8.08
  -5  -4  -5  196.80    8.49
   5   4   4    2.18    2.71
  -5  -4  -4    1.87    2.08
  -5  -4  -3  575.18   15.05
   5   4   2   32.45    4.02
  -5  -4  -2   28.31    3.90
   5   4   1   51.01    4.69
  -5  -4  -1   54.20    5.22
   5   4   0   38.44    4.59
  -5  -4   0   35.98    4.34
   5   4  -1   62.31    6.15
  -5  -4   1   43.03    4.91
   5   4  -2   27.40    4.41
  -5  -4   2   30.83    4.70
   5   4  -3  506.84   16.26
  -5  -4   3  543.80   16.41
   5   4  -4    2.50    2.82
  -5  -4   4    0.41    2.51
   5   4  -5  168.70   10.12
  -5  -4   5  191.52   10.77
   5   4  -6    3.04    2.80
  -5  -4   6    3.29    3.76
   5   4  -7   29.63    5.31
  -5  -4   7   22.91    4.68
   5   4  -8   43.91    6.84
  -5  -4   8   54.15    7.19
   5   4  -9  245.36   15.57
  -5  -4   9  251.02   16.69
   5   4 -10   23.38    6.17
  -5  -4  10   25.80    5.04
   5   4 -11  116.72   11.39
  -5  -4  11  139.34   10.68
   5   4 -12   11.10    5.33
  -5  -4  12   12.39    4.40
   5   4 -13   41.91    8.02
  -5  -4  13   44.71    7.90
   5   4 -14   14.34    5.57
  -5  -4  14   19.77    6.25
   5   4 -15   98.35   13.63
  -5  -4  15  102.28   12.02
   6   4   8  202.12   12.73
   6   4   7   23.37    8.87
  -6  -4  -7   28.84    3.09
   6   4   6  745.72   25.48
   6   4   5   83.69    6.12
  -6  -4  -5   92.24    6.39
   6   4   4  176.51    8.88
  -6  -4  -4  199.42    8.99
  -6  -4  -3  289.89   11.48
  -6  -4  -2 1914.51   37.16
   6   4   1    1.00    2.17
  -6  -4  -1    1.53    2.10
   6   4   0  238.82   10.86
  -6  -4   0  236.23   10.76
   6   4  -1    4.59    3.78
  -6  -4   1    2.72    2.58
   6   4  -2 1987.66   40.63
  -6  -4   2 1849.94   38.79
   6   4  -3  276.14   13.29
  -6  -4   3  275.36   12.99
   6   4  -4  197.26   11.30
  -6  -4   4  196.70   11.49
   6   4  -5   90.42    7.63
  -6  -4   5   79.95    7.81
   6   4  -6  861.17   32.09
  -6  -4   6  861.86   31.83
   6   4  -7   32.94    5.98
  -6  -4   7   35.10    6.00
   6   4  -8  197.79   14.96
  -6  -4   8  184.04   13.98
   6   4  -9    2.29    3.87
  -6  -4   9    4.89    5.28
   6   4 -10 1559.92   51.59
  -6  -4  10 1606.67   51.52
   6   4 -11   85.73    9.27
  -6  -4  11   98.10    9.56
   6   4 -12  110.25   15.33
  -6  -4  12  123.59   15.86
   6   4 -13   72.79    9.09
  -6  -4  13   61.58    8.67
   6   4 -14  357.35   19.95
  -6  -4  14  321.23   27.75
   7   4   6   74.21    6.48
   7   4   5   33.87    4.77
  -7  -4  -5   46.63    4.49
   7   4   4   59.68    5.54
  -7  -4  -4   67.75    5.84
   7   4   3   17.94    3.59
  -7  -4  -3   21.29    3.44
   7   4   2  138.30    8.89
  -7  -4  -2  129.13    8.16
   7   4   1  137.35    9.11
  -7  -4  -1  128.17    8.65
   7   4   0   95.69    7.80
  -7  -4   0   87.47    6.98
   7   4  -1  140.05   10.15
  -7  -4   1  144.83    9.83
   7   4  -2  132.26    9.87
  -7  -4   2  127.65    9.25
   7   4  -3   15.01    4.18
  -7  -4   3   17.92    4.57
   7   4  -4   57.92    6.50
  -7  -4   4   64.67    7.26
   7   4  -5   40.64    6.35
  -7  -4   5   42.98    6.20
   7   4  -6   90.72    8.39
  -7  -4   6  100.33    9.06
   7   4  -7  144.30   11.30
  -7  -4   7  146.54   11.49
   7   4  -8   64.56    8.50
  -7  -4   8   47.73    7.03
   7   4  -9   39.95    6.69
  -7  -4   9   38.05    6.38
   7   4 -10  123.39   11.42
  -7  -4  10  119.85   10.52
   7   4 -11   36.61    9.00
  -7  -4  11   15.04    4.84
   7   4 -12   70.57   10.67
  -7  -4  12   46.56   18.45
   7   4 -13   32.90    8.58
  -7  -4  13   26.31   17.59
   8   4   7  185.55   10.92
   8   4   6   51.30    5.88
   8   4   5   55.70    6.26
   8   4   4   43.61    6.07
  -8  -4  -4   47.79    4.50
   8   4   3   86.94    7.26
  -8  -4  -3   90.08    6.24
   8   4   2    1.87    2.95
  -8  -4  -2    0.63    2.08
   8   4   1  369.92   21.45
  -8  -4  -1  411.48   22.32
   8   4   0  202.40   14.14
  -8  -4   0  207.19   13.98
   8   4  -1  389.29   22.69
   8   4  -2    6.39    5.45
   8   4  -3  106.17   10.66
  -8  -4   3  114.92    9.53
   8   4  -4   62.96    9.12
  -8  -4   4   56.19    6.65
   8   4  -5   72.90    8.62
  -8  -4   5   62.80    7.52
   8   4  -6   87.71    9.55
  -8  -4   6   71.80    8.44
   8   4  -7  278.66   16.04
  -8  -4   7  245.99   14.91
   8   4  -8  132.86   11.31
  -8  -4   8  124.29   10.99
   8   4  -9  333.89   19.75
  -8  -4   9  348.28   19.88
   8   4 -10   79.92    9.34
  -8  -4  10   77.61   21.80
   8   4 -11  104.73   11.33
  -8  -4  11  119.24   18.98
   8   4 -12  119.93   13.72
  -8  -4  12  117.52   32.40
   9   4   7    2.44    3.76
   9   4   6  101.19    8.30
   9   4   5   11.98    5.06
   9   4   4  103.50    8.69
   9   4   2   78.92    7.53
  -9  -4  -2   76.06    6.36
   9   4   1   10.80    3.82
  -9  -4  -1   11.55    3.59
   9   4   0  205.88   12.87
  -9  -4   0  140.34    9.32
   9   4  -1   14.80    5.46
  -9  -4   1    7.33    3.07
   9   4  -2   73.44   19.64
  -9  -4   2   81.26    8.06
   9   4  -3  101.06   11.28
  -9  -4   3  104.28    8.98
   9   4  -4  141.27   13.11
  -9  -4   4  128.62   10.06
   9   4  -5   21.93    7.22
  -9  -4   5   20.11    4.85
   9   4  -6  147.80   11.97
  -9  -4   6  145.94   11.92
   9   4  -7    1.32    4.93
  -9  -4   7    2.87    4.16
   9   4  -8  108.40   12.28
  -9  -4   8   94.59   22.41
   9   4  -9   53.82    9.99
  -9  -4   9   66.75    9.66
   9   4 -10   37.79    7.60
  -9  -4  10   36.55   15.38
  10   4   7    3.94    4.22
  10   4   6    7.17    4.57
  10   4   5  154.23   11.60
  10   4   4 1127.08   39.21
  10   4   3   52.18    9.25
  10   4   2    9.85    4.65
  10   4   1    6.23    5.34
  10   4   0  257.06   16.75
 -10  -4   0  268.18   22.69
  10   4  -1    9.70    4.68
 -10  -4   1    7.40    3.44
  10   4  -2    9.73    3.91
 -10  -4   2    7.38    5.05
  10   4  -3   80.02   13.00
 -10  -4   3   46.81   19.28
  10   4  -4 1307.42   46.39
 -10  -4   4 1345.58   48.73
  10   4  -5  219.30   16.14
 -10  -4   5  195.24   25.36
  10   4  -6    8.57    7.25
 -10  -4   6    2.31    4.97
  10   4  -7   13.65    6.66
 -10  -4   7    6.07    4.33
  10   4  -8  206.53   17.51
 -10  -4   8  169.88   26.17
  11   4   4    4.51    4.20
  11   4   3   29.06   15.90
  11   4   2    4.38    5.99
  11   4   1   87.38   10.02
  11   4   0    2.61    5.40
  11   4  -1   88.27   10.80
  11   4  -2    4.42    6.19
 -11  -4   2    2.98    2.75
  11   4  -3   52.30    9.12
 -11  -4   3   35.58   11.50
  11   4  -4    8.59    4.89
 -11  -4   4    5.91    5.17
  10  -5  -5    8.57    4.06
 -10   5   5   14.86    6.59
  10  -5  -4   35.22    7.18
 -10   5   4   38.73    8.76
  10  -5  -3   46.96    7.67
 -10   5   3   63.69    9.15
  10  -5  -2  165.29   12.67
 -10   5   2  151.83   13.14
  10  -5  -1   31.44    6.51
 -10   5   1   33.95    6.32
  10  -5   0  118.81   11.57
 -10   5   0  126.99   12.02
  10  -5   1   19.30   17.77
 -10   5  -1   31.26    6.54
  10  -5   2  137.78   12.57
  10  -5   2  145.41   12.42
 -10   5  -2  129.09   11.50
  10  -5   3   50.77    8.17
  10  -5   3   60.38    9.47
 -10   5  -3   57.88    8.39
  10  -5   4   31.07    7.19
 -10   5  -4   27.34   16.90
  10  -5   5   24.56    6.76
 -10   5  -5   21.07    5.81
  -9   5   8  657.23   38.68
  -9   5   7    9.83    4.83
   9  -5  -6    2.93    3.88
  -9   5   6    4.61    4.64
   9  -5  -5  140.89   10.83
  -9   5   5  130.80   12.47
   9  -5  -4    0.79    3.36
  -9   5   4   12.43    5.88
   9  -5  -3  208.17   14.57
  -9   5   3  200.49   15.17
   9  -5  -2  133.14   10.81
  -9   5   2  108.40   15.08
   9  -5  -1    3.00    4.63
  -9   5   1    4.95    4.05
   9  -5   0  683.22   30.01
  -9   5   0  608.58   28.02
   9  -5   1    3.28    3.23
  -9   5  -1    1.38    3.47
   9  -5   2  128.31   16.32
   9  -5   2  113.38   15.52
  -9   5  -2  100.49   14.96
   9  -5   3  182.78   13.85
   9  -5   3  210.18   15.21
  -9   5  -3  189.75   13.73
   9  -5   4    4.30    3.57
   9  -5   4   12.25    5.87
  -9   5  -4    8.93    3.97
   9  -5   5  160.17   13.42
   9  -5   5  140.42   12.34
  -9   5  -5  146.62   12.55
   9  -5   6   10.13    4.81
  -9   5  -6    4.34    4.55
   9  -5   7   25.82    7.24
  -9   5  -7   14.25    4.51
   9  -5   8  637.45   37.57
  -9   5  -8  649.52   40.02
  -8   5  10  114.22   13.52
  -8   5   9   88.18   15.16
  -8   5   8  180.42   15.56
  -8   5   7  168.62   20.10
   8  -5  -6  105.47   13.32
  -8   5   6  102.37   15.37
   8  -5  -5  182.85   10.53
  -8   5   5  188.82   13.52
   8  -5  -4  169.94   14.26
  -8   5   4  174.57   14.49
   8  -5  -3  167.10   11.20
  -8   5   3  156.14   12.46
   8  -5  -2  230.51   13.02
  -8   5   2  247.70   15.96
   8  -5  -1  168.79   11.19
  -8   5   1  173.19   13.34
   8  -5   0  502.53   20.36
  -8   5   0  492.75   21.25
   8  -5   1  181.34   12.38
   8  -5   1  159.69   12.14
  -8   5  -1  184.05   12.76
   8  -5   2  236.19   13.88
   8  -5   2  227.23   14.42
  -8   5  -2  227.67   13.99
   8  -5   3  158.73   11.83
  -8   5  -3  150.77   11.16
   8  -5   4  177.36   12.67
   8  -5   4  157.17   11.59
  -8   5  -4  162.13   11.23
   8  -5   5  184.79   12.99
   8  -5   5  179.15   15.64
  -8   5  -5  154.99   15.09
   8  -5   6  114.08   20.45
   8  -5   6  116.20   14.77
  -8   5  -6  107.17   16.98
   8  -5   7  171.76   14.44
  -8   5  -7  173.93   12.35
   8  -5   8  188.83   14.85
  -8   5  -8  178.30   12.61
   8  -5   9   80.43    9.94
   8  -5  10  105.93   13.01
  -7   5  12  275.85   22.78
  -7   5  11   24.65   15.06
  -7   5  10   40.91   23.98
  -7   5   8   70.25   23.13
  -7   5   7   21.98    5.88
   7  -5  -6  456.76   16.82
  -7   5   6  526.10   23.89
   7  -5  -5  242.49   12.80
  -7   5   5  263.18   20.22
   7  -5  -4  456.59   19.38
  -7   5   4  455.96   22.65
   7  -5  -3  105.33    8.87
  -7   5   3  104.63   10.29
   7  -5  -2  132.87    9.74
  -7   5   2  132.16   11.28
   7  -5  -1   22.62    4.83
  -7   5   1   34.22    6.58
   7  -5   0   12.98    4.77
  -7   5   0   15.77    4.76
   7  -5   1   26.50    5.23
   7  -5   1   34.22    7.52
  -7   5  -1   23.99    6.26
   7  -5   2  131.98   10.70
   7  -5   2  117.91   10.80
  -7   5  -2  122.18   10.53
   7  -5   3  101.66    9.79
   7  -5   3   87.04    9.07
  -7   5  -3   95.88    8.85
   7  -5   4  452.51   21.96
   7  -5   4  430.59   20.61
  -7   5  -4  433.75   19.35
   7  -5   5  253.04   17.81
   7  -5   5  264.39   15.73
  -7   5  -5  231.64   13.19
   7  -5   6  516.80   22.99
   7  -5   6  504.73   21.09
  -7   5  -6  510.82   19.53
   7  -5   7   24.28    6.09
   7  -5   7   16.69    5.10
  -7   5  -7   23.19    5.29
   7  -5   8   74.55    9.28
   7  -5   8   71.54    7.76
  -7   5  -8   59.30   19.47
   7  -5   9   13.92    5.58
   7  -5  10   58.22    8.49
   7  -5  11   36.42   13.99
   7  -5  12  216.75   55.13
  -6   5  13   12.97    8.96
  -6   5  12  200.76   32.74
  -6   5  11   11.59    6.45
  -6   5  10  155.13   20.30
  -6   5   9   37.59   16.48
  -6   5   8  258.41   16.99
  -6   5   7   50.49   24.38
   6  -5  -6  152.21    9.18
  -6   5   6  167.17   13.45
   6  -5  -5   22.37    5.75
  -6   5   5   30.87    6.98
  -6   5   4  666.71   36.64
   6  -5  -3    1.35    2.09
  -6   5   3    2.13    3.80
  -6   5   2  271.68   16.65
  -6   5   1   77.15    8.81
   6  -5   0  245.14   13.26
   6  -5   0  222.78   14.37
  -6   5   0  223.73   13.56
   6  -5   1   79.70    7.59
   6  -5   1   71.51    8.36
  -6   5  -1   77.62    7.99
   6  -5   2  246.59   13.86
   6  -5   2  254.93   15.85
  -6   5  -2  228.70   13.63
   6  -5   3    1.18    3.50
   6  -5   3    1.63    3.59
  -6   5  -3    0.37    2.73
   6  -5   4  638.95   35.47
   6  -5   4  590.44   32.17
  -6   5  -4  619.61   32.31
   6  -5   5   29.51    6.40
   6  -5   5   23.99    4.98
  -6   5  -5   23.92    4.94
   6  -5   6  154.60   12.41
   6  -5   6  133.75   10.76
  -6   5  -6  141.62    9.98
   6  -5   7   46.94    7.57
   6  -5   7   52.44    6.72
  -6   5  -7   49.77    5.83
   6  -5   8  222.70   15.05
   6  -5   8  249.47   14.37
  -6   5  -8  237.51   12.57
   6  -5   9   24.21    9.05
   6  -5   9   26.08    5.58
   6  -5  10  146.93   21.18
   6  -5  11    2.35    3.43
   6  -5  12  198.24   22.29
   6  -5  13   16.23    7.30
  -5   5  14  195.53   17.92
  -5   5  13   42.31   22.04
  -5   5  12   84.31   39.27
  -5   5  11  137.12   30.60
  -5   5  10    8.77    4.35
  -5   5   9  207.43   15.40
  -5   5   8  251.14   17.29
  -5   5   7  307.42   20.87
   5  -5  -6  185.95    9.52
  -5   5   6  175.97   27.08
   5  -5  -5   65.95    5.34
  -5   5   5   54.03   17.46
   5  -5  -4   93.58    6.73
  -5   5   4  100.90   13.52
   5  -5  -3  205.75   10.71
  -5   5   3  203.89   14.05
   5  -5  -2   58.61    5.27
  -5   5   2   73.10   17.81
   5  -5  -1  331.20   12.84
  -5   5   1  325.55   17.01
   5  -5   0  493.71   16.67
   5  -5   0  484.82   19.74
  -5   5   0  497.10   19.50
   5  -5   1  329.48   14.11
   5  -5   1  312.07   15.75
  -5   5  -1  296.82   14.21
   5  -5   2   69.79    7.32
   5  -5   2   54.97    6.86
  -5   5  -2   53.04    6.08
   5  -5   3  191.79   12.18
   5  -5   3  189.28   12.55
  -5   5  -3  178.20   10.86
   5  -5   4   93.26    8.94
   5  -5   4  100.76    9.76
  -5   5  -4   84.37    7.37
   5  -5   5   67.27    8.00
   5  -5   5   72.51    8.22
  -5   5  -5   74.20    6.69
   5  -5   6  151.81   11.89
  -5   5  -6  175.56   10.36
   5  -5   7  292.05   19.88
   5  -5   7  287.95   18.66
   5  -5   8  236.86   31.50
   5  -5   8  214.67   13.41
  -5   5  -8  224.88   11.71
   5  -5   9  204.34   18.99
   5  -5   9  171.72   11.69
   5  -5  10   14.42    5.74
   5  -5  10    9.51    4.27
   5  -5  11  164.51   29.19
   5  -5  11  169.79   11.12
   5  -5  12   71.69   23.06
   5  -5  13   48.49   26.42
   5  -5  14  160.75   18.16
  -4   5  14   31.98   16.15
  -4   5  13   52.58   28.77
  -4   5  12  273.53   17.30
  -4   5  11  115.22   40.29
  -4   5  10   22.48    7.70
  -4   5   9  199.34   15.34
  -4   5   8 1152.53   62.23
  -4   5   7  134.86   32.79
  -4   5   6   76.04   27.32
   4  -5  -5  124.76    5.85
  -4   5   5  118.77   14.64
   4  -5  -4  598.29   15.80
  -4   5   4  599.47   22.49
   4  -5  -3  224.48    8.89
  -4   5   3  222.81   27.95
   4  -5  -2   18.16    3.39
  -4   5   2   18.10    6.52
   4  -5  -1  202.39    9.54
   4  -5  -1  182.54   11.99
  -4   5   1  187.05   20.81
   4  -5   0 1241.75   27.99
   4  -5   0 1100.75   30.40
  -4   5   0 1198.33   30.68
   4  -5   1  179.43    9.41
   4  -5   1  176.48   11.60
  -4   5  -1  167.42   10.27
   4  -5   2   18.70    3.72
   4  -5   2   17.79    4.77
  -4   5  -2   19.01    4.85
   4  -5   3  229.35   16.34
   4  -5   3  238.90   12.89
  -4   5  -3  178.30   12.35
   4  -5   4  590.26   20.87
  -4   5  -4  622.59   20.72
   4  -5   5  131.10   13.11
   4  -5   5  126.60    9.32
  -4   5  -5  130.28   10.93
   4  -5   6  100.95   28.69
   4  -5   6   84.37    8.13
  -4   5  -6   82.90   18.27
   4  -5   7  140.32   17.08
   4  -5   7  124.98    9.98
  -4   5  -7  120.87   12.79
   4  -5   8 1102.87   83.31
   4  -5   8  845.54   42.83
  -4   5  -8 1069.86   49.74
   4  -5   9  172.56   17.64
   4  -5   9  147.20   10.97
   4  -5  10   20.06    7.41
   4  -5  10   13.23    3.77
   4  -5  11  104.92   37.58
   4  -5  11  111.11    9.54
   4  -5  12  255.07   27.22
   4  -5  12  283.23   13.56
   4  -5  13   54.44   23.72
   4  -5  14   25.11   14.79
  -3   5  15    9.47    5.10
  -3   5  14   -0.09    3.84
  -3   5  13    1.54    3.97
  -3   5  12   67.29   23.21
  -3   5  11   37.47   10.93
  -3   5  10  386.40   27.35
  -3   5   9    4.41    6.30
  -3   5   8 1308.92   49.77
  -3   5   7    1.65    3.51
  -3   5   6   92.07   28.05
   3  -5  -5    8.34    2.88
  -3   5   5   15.65    6.43
   3  -5  -4   70.46    5.74
  -3   5   4   79.27   14.78
   3  -5  -3  229.43    7.57
   3  -5  -3  230.01   13.03
  -3   5   3  224.41   17.24
   3  -5  -2  135.49    6.29
   3  -5  -2  141.30   10.47
  -3   5   2  168.34   36.85
   3  -5  -1   13.12    2.79
   3  -5  -1   11.59    4.35
  -3   5   1   11.88    5.54
   3  -5   0 2797.16   29.89
   3  -5   0 2557.71   39.63
  -3   5   0 2693.38   37.61
   3  -5   1   12.22    3.20
   3  -5   1   17.43    5.16
  -3   5  -1   14.17    5.84
   3  -5   2  158.49   26.19
   3  -5   2  163.13   10.31
  -3   5  -2  136.55   21.71
   3  -5   3  208.89   28.13
   3  -5   3  214.81   11.52
  -3   5  -3  225.54   26.75
   3  -5   4   87.70   21.99
   3  -5   4   78.60    7.42
  -3   5  -4   70.59   12.65
   3  -5   5   13.57    5.16
   3  -5   5   12.56    3.69
  -3   5  -5   14.14    5.49
   3  -5   6   66.59    8.12
   3  -5   6   69.18    7.68
  -3   5  -6   81.06   17.45
   3  -5   7    0.16    3.89
   3  -5   7    5.51    5.64
  -3   5  -7    0.52    1.83
   3  -5   8 1251.89   48.16
   3  -5   8 1067.14   38.00
   3  -5   9    4.18    3.71
   3  -5   9    5.32    4.89
   3  -5  10  396.33   22.65
   3  -5  10  387.41   19.40
   3  -5  11   35.93   14.08
   3  -5  11   28.64    5.09
   3  -5  12   59.28   18.19
   3  -5  12   65.27    7.61
   3  -5  13    1.73    4.27
   3  -5  13    2.56    2.80
   3  -5  14    2.39    3.74
   3  -5  15    6.94    7.17
  -2   5  15   80.50   28.87
  -2   5  14   20.29    4.96
  -2   5  13  255.78   16.14
  -2   5  12    0.33    4.93
  -2   5  11  121.70   25.34
  -2   5  10  126.36   15.80
  -2   5   9  113.51   18.54
  -2   5   8   50.99   19.38
  -2   5   7  450.09   21.42
  -2   5   6   35.85   11.57
  -2   5   5  343.98   18.38
   2  -5  -4    1.38    1.07
   2  -5  -4    3.93    3.58
  -2   5   4    3.86    3.93
   2  -5  -3   32.17    6.28
   2  -5  -3   39.59    6.12
  -2   5   3   51.43   18.30
   2  -5  -2  137.20    8.26
   2  -5  -2  141.40   10.53
  -2   5   2  138.65   21.13
   2  -5  -1  519.17   13.11
   2  -5  -1  496.22   18.22
  -2   5   1  485.90   17.64
   2  -5   0   26.15    6.90
   2  -5   0   24.04    5.16
  -2   5   0   32.70    9.25
   2  -5   1  534.13   24.55
   2  -5   1  560.48   18.99
  -2   5  -1  540.02   16.35
   2  -5   2  158.77   11.24
   2  -5   2  149.85   10.07
  -2   5  -2  150.66   19.12
   2  -5   3   50.95   10.55
   2  -5   3   46.56    6.50
  -2   5  -3   55.41    9.85
   2  -5   4    3.48    3.70
  -2   5  -4    4.28    3.78
   2  -5   5  350.96   22.69
   2  -5   5  334.40   15.05
  -2   5  -5  364.33   14.33
   2  -5   6   40.64   14.87
   2  -5   6   32.81    5.31
   2  -5   7  424.22   32.01
  -2   5  -7  426.99   13.23
   2  -5   8   66.92   18.31
   2  -5   8   43.20    6.22
   2  -5   9  137.67   22.59
   2  -5   9  106.60    9.30
   2  -5  10  128.33   29.41
   2  -5  10  123.74   10.86
   2  -5  11  124.79   34.08
   2  -5  11  127.30   10.51
   2  -5  12    2.33    2.77
   2  -5  12    1.89    3.18
   2  -5  13  250.19   23.94
   2  -5  13  252.53   13.36
   2  -5  14   21.77    7.47
   2  -5  14   30.57    6.35
   2  -5  15   90.63   29.97
   2  -5  15   80.23    8.65
  -1   5  16   54.46   10.68
  -1   5  15   66.26   28.17
  -1   5  14  390.65   21.91
  -1   5  13   80.89    9.63
  -1   5  12  165.32   15.55
  -1   5  11  220.95   14.65
  -1   5  10   66.25   23.73
  -1   5   9  151.46   32.47
  -1   5   8  248.51   14.76
  -1   5   7  140.62   14.21
   1  -5  -6  292.25   14.40
  -1   5   6  282.59   14.42
   1  -5  -5  136.79    9.80
  -1   5   5  184.15   37.63
   1  -5  -4  801.72   23.22
  -1   5   4  823.67   22.82
   1  -5  -3  532.81    7.99
   1  -5  -3  542.36   18.87
  -1   5   3  599.15   18.48
   1  -5  -2  118.25    6.48
   1  -5  -2  104.84    8.14
  -1   5   2  117.44   15.92
   1  -5  -1   85.23    6.40
   1  -5  -1  103.07    8.81
  -1   5   1   97.76   13.39
   1  -5   0  411.49   11.07
   1  -5   0  365.43   15.27
  -1   5   0  423.70   14.26
   1  -5   1  100.54    8.80
   1  -5   1   90.31    7.77
  -1   5  -1   95.82   19.90
   1  -5   2  122.29   13.49
   1  -5   2  117.84    8.69
  -1   5  -2  127.14   13.61
   1  -5   3  577.19   18.31
   1  -5   3  596.73   19.14
  -1   5  -3  615.83   16.08
   1  -5   4  801.47   20.53
   1  -5   4  791.71   22.69
  -1   5  -4  825.12   21.76
   1  -5   5  161.58   23.39
   1  -5   5  152.95   10.14
  -1   5  -5  158.79   10.14
   1  -5   6  268.24   24.51
   1  -5   6  245.90   12.50
  -1   5  -6  282.62    9.88
   1  -5   7  163.99   30.03
   1  -5   7  133.89    9.44
  -1   5  -7  135.00    5.80
   1  -5   8  247.97   18.01
   1  -5   8  247.13   14.12
   1  -5   9  147.08   13.95
   1  -5   9  145.05   10.91
   1  -5  10   67.92   16.34
   1  -5  10   55.82    6.73
   1  -5  11  220.79   15.18
   1  -5  11  226.23   13.93
   1  -5  12  172.96   42.63
   1  -5  12  146.13   10.99
   1  -5  13   82.22    9.53
   1  -5  13   84.94    9.29
   1  -5  14  420.73   23.36
   1  -5  14  366.48   19.21
   1  -5  15  102.60   34.36
   1  -5  15   82.43    8.22
   1  -5  16   49.77   21.70
   1  -5  16   61.65    8.95
   0   5  14  882.94   38.10
   0   5  13    1.58    4.29
   0   5  12    3.84    2.98
   0   5  11    1.57    2.97
   0   5  10  858.25   44.87
   0  -5  -9    3.34    3.37
   0   5   9    2.70    3.48
   0  -5  -8    0.63    4.29
   0   5   8    2.38    4.21
   0  -5  -7    3.40    3.26
   0   5   7    3.79    6.71
   0  -5  -6 1830.71   41.11
   0   5   6 1858.24   41.75
   0  -5  -5    3.29    3.33
   0   5   5    1.99    3.76
   0  -5  -4    4.37    2.23
   0   5   4    2.91    4.24
   0   5   3    0.89    0.74
   0  -5  -3    6.00    4.80
   0   5   3    2.05    1.71
   0  -5  -2 2205.48   37.85
   0   5   2 2146.44   35.64
   0  -5  -1    0.73    1.02
   0  -5  -1    2.76    3.07
   0   5   1    1.99    2.34
   0  -5   0    0.78    1.38
   0  -5   0    1.74    2.93
   0   5   0    1.24    2.28
   0  -5   1    0.72    1.50
   0  -5   1    2.73    3.25
   0   5  -1    2.37    2.41
   0  -5   3    0.19    2.41
   0  -5   3    4.08    3.36
   0   5  -3    1.11    1.57
   0  -5   4    2.86    2.03
   0  -5   4    3.70    3.09
   0   5  -4    3.41    1.93
   0  -5   5    0.99    2.79
   0  -5   5    0.81    2.67
   0  -5   6 1404.11   31.49
   0  -5   6 1665.95   37.98
   0   5  -6 1552.68   28.31
   0  -5   7    0.68    1.79
   0  -5   7    3.09    3.89
   0  -5   8    8.81    4.44
   0  -5   8    6.16    3.01
   0  -5   9    1.53    4.03
   0  -5   9    2.33    2.82
   0  -5  10  970.67   53.45
   0  -5  10  880.08   44.68
   0  -5  11    1.50    4.00
   0  -5  11    4.06    3.91
   0  -5  12    1.00    4.48
   0  -5  12    4.60    3.18
   0  -5  13    2.51    4.02
   0  -5  13   -0.81    3.22
   0  -5  14  994.42   41.13
   0  -5  14  968.92   38.79
   0  -5  15    3.27    2.57
   0  -5  15    3.74    4.68
   0  -5  16    4.28    4.56
   0  -5  16    4.85    4.57
  -1  -5 -13   72.14    8.15
  -1  -5 -12  155.42   11.08
  -1  -5 -11  216.90   13.62
   1   5  11  182.71   13.67
  -1  -5 -10   60.82    7.45
   1   5  10   53.48    7.39
  -1  -5  -9  127.52    9.99
   1   5   9  134.93   20.08
  -1  -5  -8  256.54   14.33
   1   5   8  260.41   15.39
  -1  -5  -7  143.75    9.79
   1   5   7  134.96   23.84
  -1  -5  -6  277.63   13.18
   1   5   6  284.11   18.49
  -1  -5  -5  163.07   10.01
   1   5   5  162.95   10.51
  -1  -5  -4  822.21   21.81
   1   5   4  795.42   26.39
   1   5   2   94.82    3.95
  -1  -5  -2  131.07    8.50
   1   5   2  115.62    8.10
   1   5   1   91.05    4.65
  -1  -5  -1  101.85    7.79
   1   5   1  100.71    7.14
   1   5   0  392.74   10.69
  -1  -5   0  423.15   15.29
   1   5   0  399.80   13.55
   1   5  -1   89.37    5.79
  -1  -5   1   97.75    7.75
   1   5  -1   94.62    6.65
  -1  -5   2  100.46    8.19
   1   5  -2  116.64    7.03
  -1  -5   3  523.20   13.95
  -1  -5   3  470.13   16.84
  -1  -5   4  749.98   18.79
  -1  -5   4  698.48   21.03
  -1  -5   5  146.11    8.82
  -1  -5   5  140.23    9.97
  -1  -5   6  261.76   13.96
  -1  -5   6  264.30   13.67
  -1  -5   7  134.21   24.25
  -1  -5   7  137.26    9.87
  -1  -5   8  240.74   13.72
  -1  -5   8  250.65   14.44
  -1  -5   9  143.37   22.68
  -1  -5   9  147.54   10.92
  -1  -5  10   59.82   14.80
  -1  -5  10   52.91    6.84
  -1  -5  11  203.52   13.74
  -1  -5  11  197.81   13.36
  -1  -5  12  148.24   14.47
  -1  -5  12  134.85   11.39
  -1  -5  13   76.41    8.21
  -1  -5  14  380.30   22.13
  -1  -5  15   89.70   12.69
  -1  -5  15   84.84    8.93
  -1  -5  16   60.94   11.22
  -1  -5  16   54.94    8.13
  -2  -5 -12    3.16    2.70
  -2  -5 -11  104.05    8.84
  -2  -5 -10  131.66   10.85
  -2  -5  -8   49.59    5.85
  -2  -5  -7  416.17   16.21
  -2  -5  -6   32.55    5.04
  -2  -5  -5  311.53   13.60
   2   5   4    0.93    0.51
   2   5   3   25.45    2.73
  -2  -5  -3   47.96    5.65
   2   5   2  107.99    4.61
  -2  -5  -2  137.69    8.62
   2   5   1  457.00   10.66
  -2  -5  -1  511.59   16.33
   2   5   0   26.89    3.57
  -2  -5   0   23.69    4.72
   2   5  -1  493.94   13.20
  -2  -5   1  458.77   15.65
   2   5  -2  139.99    7.65
  -2  -5   2  126.03    8.86
   2   5  -3   42.95    4.91
  -2  -5   3   40.74    6.06
   2   5  -4    3.72    2.03
  -2  -5   4    5.97    3.83
   2   5  -5  308.28   14.13
  -2  -5   5  314.74   14.76
   2   5  -6   36.06    5.60
  -2  -5   6   31.69    5.15
   2   5  -7  395.60   17.09
  -2  -5   7  417.45   17.66
   2   5  -8   42.18    5.75
  -2  -5   8   42.78    5.85
  -2  -5   9   98.77    8.97
  -2  -5  10  117.95   10.46
  -2  -5  11  103.26    9.40
   2   5 -12    6.43    5.76
  -2  -5  12    8.18    5.53
   2   5 -13  246.73   16.15
  -2  -5  13  229.86   13.80
   2   5 -14   29.82    9.10
  -2  -5  14   24.11    5.43
   2   5 -15   80.17   10.70
  -2  -5  15   83.00    9.57
  -3  -5 -11   30.08    4.95
  -3  -5 -10  362.57   16.67
  -3  -5  -9    3.26    2.51
  -3  -5  -7    3.01    3.29
  -3  -5  -6   81.53    6.93
  -3  -5  -5   11.90    3.29
   3   5   4   52.01    2.99
  -3  -5  -4   70.54    6.39
   3   5   3  146.92    5.41
  -3  -5  -3  187.01    9.92
   3   5   2   91.48    4.73
  -3  -5  -2  137.77    8.72
   3   5   1    9.55    2.67
  -3  -5  -1   10.67    3.20
   3   5   0 2196.95   31.63
  -3  -5   0 2329.63   32.46
   3   5  -1   17.44    3.62
  -3  -5   1   10.78    3.42
   3   5  -2  138.80    8.42
  -3  -5   2  143.69    9.68
   3   5  -3  208.49   10.20
  -3  -5   3  203.56   11.92
   3   5  -4   70.52    6.64
  -3  -5   4   68.72    7.09
   3   5  -5   14.61    4.38
  -3  -5   5   16.01    4.37
   3   5  -6   73.36    7.60
  -3  -5   6   63.00    7.58
   3   5  -7    1.89    3.12
  -3  -5   7    0.92    3.18
   3   5  -8 1159.67   41.54
  -3  -5   8 1157.80   40.75
   3   5  -9    3.33    3.78
  -3  -5   9    3.11    3.21
   3   5 -10  351.48   20.10
  -3  -5  10  366.06   18.98
   3   5 -11   37.09    7.05
  -3  -5  11   33.68    5.93
   3   5 -12   59.78    8.35
  -3  -5  12   62.62    8.52
   3   5 -13    7.10    7.98
  -3  -5  13    3.67    4.19
   3   5 -14    0.51    4.74
  -3  -5  14    1.65    3.41
  -3  -5  15    8.67    5.84
  -4  -5  -9  149.79    9.37
  -4  -5  -7  115.57    8.04
  -4  -5  -6   73.88    5.94
  -4  -5  -5  104.98    7.07
   4   5   4  402.07   11.42
  -4  -5  -4  418.96   15.18
   4   5   3  144.73    6.22
  -4  -5  -3  183.37    9.84
   4   5   2   10.23    2.33
  -4  -5  -2   15.88    3.74
   4   5   1  125.97    6.85
  -4  -5  -1  147.16    9.18
   4   5   0  874.15   20.97
  -4  -5   0 1004.98   26.19
   4   5  -1  143.08    8.54
  -4  -5   1  174.39   10.35
   4   5  -2   15.37    3.76
  -4  -5   2   11.67    3.71
   4   5  -3  188.31   10.28
  -4  -5   3  197.28   11.00
   4   5  -4  494.82   17.93
  -4  -5   4  537.68   19.50
   4   5  -5  107.31    8.58
  -4  -5   5  100.28    8.78
   4   5  -6   59.74    6.87
  -4  -5   6   69.93    7.86
   4   5  -7  130.50   10.63
  -4  -5   7  107.09    9.98
   4   5  -8  944.51   47.75
  -4  -5   8  967.33   48.44
   4   5  -9  153.49   12.32
  -4  -5   9  179.17   12.77
   4   5 -10   18.19    5.69
  -4  -5  10   12.45    4.71
   4   5 -11   91.18   10.47
  -4  -5  11   92.67    9.17
   4   5 -12  266.71   16.35
  -4  -5  12  261.50   14.56
   4   5 -13   56.06    8.75
  -4  -5  13   51.18    7.57
   4   5 -14   25.15    8.67
  -5  -5  -8  182.60   10.18
  -5  -5  -7  243.08   14.39
  -5  -5  -5   60.06    5.64
  -5  -5  -4   78.93    6.50
   5   5   3  117.86    6.90
  -5  -5  -3  173.81   10.28
   5   5   2   37.96    4.08
  -5  -5  -2   54.88    5.97
   5   5   1  249.96   10.70
  -5  -5  -1  279.95   13.08
   5   5   0  370.84   13.61
  -5  -5   0  435.72   16.63
   5   5  -1  241.40   11.19
  -5  -5   1  283.11   13.46
   5   5  -2   51.37    5.95
  -5  -5   2   56.28    6.39
   5   5  -3  147.31    9.84
  -5  -5   3  162.72   11.11
   5   5  -4   70.33    7.25
  -5  -5   4   81.51    7.90
   5   5  -5   54.90    6.77
  -5  -5   5   58.82    7.17
   5   5  -6  155.51   11.94
  -5  -5   6  155.79   11.62
   5   5  -7  237.52   17.15
  -5  -5   7  254.06   17.56
   5   5  -8  210.84   14.20
  -5  -5   8  202.80   13.92
   5   5  -9  197.52   14.55
  -5  -5   9  192.90   13.40
   5   5 -10   15.10    5.30
  -5  -5  10    8.40    3.80
   5   5 -11  148.68   11.98
  -5  -5  11  149.23   10.76
   5   5 -12   68.91   12.20
  -5  -5  12   57.39    9.51
   5   5 -13   41.30    7.92
  -5  -5  13   40.47    7.61
   5   5 -14  164.26   16.90
  -5  -5  14  144.17   13.60
  -6  -5  -6  121.89    8.20
   6   5   5   15.12    3.03
  -6  -5  -5   19.85    4.12
   6   5   4  403.77   21.14
  -6  -5  -4  545.26   31.11
   6   5   3    3.75    2.52
  -6  -5  -3    2.92    3.22
   6   5   2  167.13    9.61
  -6  -5  -2  220.09   12.27
   6   5   1   64.05    6.29
  -6  -5  -1   71.73    6.94
   6   5   0  174.40   10.52
  -6  -5   0  176.90   11.40
   6   5  -1   58.68    6.60
  -6  -5   1   64.17    6.94
   6   5  -2  189.16   11.76
  -6  -5   2  217.74   12.90
   6   5  -3    2.28    4.32
  -6  -5   3    3.93    4.56
   6   5  -4  481.50   27.01
  -6  -5   4  510.59   28.44
   6   5  -5   20.39    5.85
  -6  -5   5   20.59    5.04
   6   5  -6  120.52   11.65
  -6  -5   6  127.98   10.69
  -6  -5   7   42.85    7.47
   6   5  -8  224.00   15.10
  -6  -5   8  223.64   14.58
   6   5  -9   26.52    7.38
  -6  -5   9   34.60    8.10
   6   5 -10  147.23   13.55
  -6  -5  10  110.89   14.74
   6   5 -11    8.49    5.62
  -6  -5  11    6.66    3.69
   6   5 -12  169.71   14.00
  -6  -5  12  165.16   12.58
   6   5 -13   12.92    6.28
  -6  -5  13   11.75    4.93
  -7  -5  -4  362.41   15.58
   7   5   3   62.75    5.99
  -7  -5  -3   84.07    6.85
   7   5   2   93.95    8.07
  -7  -5  -2  105.20    8.27
   7   5   1   24.42    4.94
  -7  -5  -1   26.88    4.91
   7   5   0    7.34    3.18
  -7  -5   0    9.34    3.55
   7   5  -1   20.80    5.00
  -7  -5   1   16.91    3.99
   7   5  -2   97.10    8.69
  -7  -5   2  114.38    9.58
   7   5  -3   71.48    7.99
  -7  -5   3   89.07    8.38
   7   5  -4  350.88   18.04
  -7  -5   4  371.36   18.34
   7   5  -5  203.71   13.74
  -7  -5   5  225.08   14.30
  -7  -5   6  409.26   18.81
   7   5  -7   15.36    6.22
  -7  -5   7   18.76    5.34
   7   5  -8   64.10    9.84
  -7  -5   8   72.84    8.81
   7   5  -9   12.34    5.85
  -7  -5   9   14.79    4.66
   7   5 -10   31.84    8.25
  -7  -5  10   27.19    5.97
   7   5 -11   23.15    6.91
  -7  -5  11   26.45    6.90
   7   5 -12  241.17   20.49
  -7  -5  12  210.86   17.18
   8   5   4  118.84    9.01
   8   5   3  106.47    8.79
  -8  -5  -3  129.12    8.60
   8   5   2  163.33   10.51
  -8  -5  -2  193.86   10.85
   8   5   1  121.29    9.62
  -8  -5  -1  145.64    9.60
   8   5   0  372.36   16.44
  -8  -5   0  417.62   17.13
  -8  -5   1  162.14   10.57
   8   5  -2  198.76   12.57
  -8  -5   2  202.18   12.04
   8   5  -3  120.89   10.33
  -8  -5   3  126.14    9.92
   8   5  -4  128.91   11.06
  -8  -5   4  138.48   10.74
   8   5  -5  152.26   11.36
  -8  -5   5  167.98   11.49
   8   5  -6   83.44   12.59
  -8  -5   6  104.03   14.18
   8   5  -7  143.54   12.73
  -8  -5   7  139.37   11.53
   8   5  -8  159.11   13.88
  -8  -5   8  164.77   12.54
   8   5  -9   65.48    9.25
  -8  -5   9   68.80    8.32
   8   5 -10   79.39   11.22
  -8  -5  10  110.30   12.22
   9   5   4    6.30    4.81
   9   5   3  138.68   10.70
   9   5   2   87.10   12.20
  -9  -5  -2   81.10   10.90
  -9  -5  -1    2.04    2.73
   9   5   0  449.27   22.07
  -9  -5   0  498.10   22.51
  -9  -5   1    0.94    2.60
  -9  -5   2   89.09   12.04
   9   5  -3  178.07   14.15
  -9  -5   3  175.87   12.38
   9   5  -4    7.33    3.65
  -9  -5   4    9.66    3.63
   9   5  -5  125.49   12.92
  -9  -5   5  125.19   10.64
   9   5  -6    6.75    4.30
  -9  -5   6    5.36    4.25
   9   5  -7    6.28    4.34
  -9  -5   7   18.99    5.54
   9   5  -8  554.72   33.05
  -9  -5   8  572.43   33.03
  10   5   3   36.36    6.43
  10   5   2   89.23    8.95
  10   5   1   19.01    5.56
 -10  -5   0   92.46    8.52
  10   5  -1   23.05    6.65
 -10  -5   1   23.62    5.68
  10   5  -2  124.38   11.88
 -10  -5   2  124.24   10.06
  10   5  -3   39.02    7.10
 -10  -5   3   47.40    6.77
  10   5  -4   21.74    5.92
 -10  -5   4   24.84    6.59
  10   5  -5   11.19    6.03
 -10  -5   5   16.77    5.45
  -9   6   4  608.63   41.05
  -9   6   3   31.14    7.66
  -9   6   2   37.62    7.37
   9  -6  -1   54.04    8.07
   9  -6  -1   76.89   12.72
  -9   6   1   56.68    8.42
   9  -6   0  224.26   14.68
   9  -6   0  237.87   16.65
  -9   6   0  232.14   15.00
   9  -6   1   58.34    9.22
   9  -6   1   60.02   10.07
  -9   6  -1   65.16    9.47
   9  -6   2   35.71    7.91
   9  -6   2   24.66    7.74
  -9   6  -2   34.06    7.39
   9  -6   3   36.39    8.39
   9  -6   3   26.58    6.88
  -9   6  -3   31.64    6.79
   9  -6   4  661.85   38.15
   9  -6   4  567.43   33.66
  -9   6  -4  587.22   33.55
  -8   6   7  136.99   20.25
  -8   6   6    9.50    7.98
  -8   6   5    9.50    5.34
  -8   6   4  339.66   21.80
  -8   6   3   17.21    6.10
   8  -6  -2   44.13    6.49
  -8   6   2   34.78    8.13
   8  -6  -1  215.56   14.42
   8  -6  -1  207.70   16.32
  -8   6   1  217.65   15.55
   8  -6   0  125.39   16.09
   8  -6   0  116.83   16.20
  -8   6   0  107.28   14.43
   8  -6   1  218.91   15.49
   8  -6   1  223.52   17.21
  -8   6  -1  195.51   14.47
   8  -6   2   50.15    8.90
   8  -6   2   42.29    8.73
  -8   6  -2   45.81    7.87
   8  -6   3   12.12    5.22
   8  -6   3   12.44    5.08
  -8   6  -3   16.60    4.78
   8  -6   4  365.96   21.38
   8  -6   4  305.63   18.67
  -8   6  -4  306.85   18.33
   8  -6   5   15.54    6.23
   8  -6   5    8.76    5.34
  -8   6  -5    9.03    4.86
   8  -6   6   11.46    7.23
   8  -6   6   10.11    5.14
  -8   6  -6    9.23    4.04
   8  -6   7  132.25   14.87
  -8   6  -7  129.61   12.27
  -7   6   8   37.70   15.12
  -7   6   7   85.68   22.62
  -7   6   6  454.70   25.89
  -7   6   5   50.69   25.80
  -7   6   4    7.19    5.97
  -7   6   3  124.92   11.95
   7  -6  -2  332.27   14.24
   7  -6  -2  334.20   18.86
  -7   6   2  367.73   19.31
   7  -6  -1   86.00    8.22
   7  -6  -1   87.96   11.16
  -7   6   1   95.39   10.33
   7  -6   0  137.17   10.32
   7  -6   0  124.23   12.85
  -7   6   0  125.12   18.00
   7  -6   1  120.25   12.36
   7  -6   1  107.33   11.68
  -7   6  -1   99.21    9.62
   7  -6   2  352.90   16.26
   7  -6   2  311.92   17.04
  -7   6  -2  346.68   16.17
   7  -6   3  119.93   10.55
   7  -6   3  119.46   11.23
  -7   6  -3  109.75    9.75
   7  -6   4    4.09    4.60
   7  -6   4    1.29    4.18
  -7   6  -4    4.45    4.83
   7  -6   5   75.57   11.72
   7  -6   5   48.34    8.79
  -7   6  -5   66.40   10.72
   7  -6   6  457.69   23.54
   7  -6   6  420.44   20.71
  -7   6  -6  407.10   20.51
   7  -6   7   94.03   10.59
   7  -6   7   77.78    9.00
  -7   6  -7   83.82    8.36
   7  -6   8   26.77   13.12
   7  -6   8   36.84    7.20
   7  -6   9   87.36   36.60
  -6   6  11   17.45    9.80
  -6   6  10   46.72   28.19
  -6   6   9   27.87   14.56
  -6   6   8 1020.98   43.01
  -6   6   7   87.52   21.59
  -6   6   6   12.98    5.17
  -6   6   5   45.87   14.52
  -6   6   4   39.31   13.49
  -6   6   3   24.77   11.15
   6  -6  -2    6.03    3.53
   6  -6  -2    5.23    3.99
  -6   6   2    9.80    4.85
   6  -6  -1   13.06    3.88
   6  -6  -1   20.74    5.50
  -6   6   1   17.02    6.18
   6  -6   0 1505.43   47.88
   6  -6   0 1326.48   47.19
  -6   6   0 1448.39   49.11
   6  -6   1   15.03    8.22
   6  -6   1   11.93    5.44
  -6   6  -1   19.69    5.32
   6  -6   2    9.47    3.77
  -6   6  -2    5.57    2.96
   6  -6   3   14.01    4.29
   6  -6   3   15.98    5.63
  -6   6  -3   13.07    6.59
   6  -6   4   34.89    6.01
   6  -6   4   48.23    7.36
  -6   6  -4   40.06    8.87
   6  -6   5   62.04    8.15
   6  -6   5   43.82    7.45
  -6   6  -5   44.82   16.26
   6  -6   6    7.28    4.04
   6  -6   6    9.94    5.12
  -6   6  -6    5.89    4.59
   6  -6   7  104.51   15.09
   6  -6   7   91.80   13.12
  -6   6  -7   76.74   22.61
   6  -6   8  979.11   41.69
   6  -6   8  916.28   37.20
   6  -6   9   21.24    9.91
   6  -6   9   19.12    6.03
   6  -6  10   54.90   18.31
   6  -6  11   18.77   14.28
  -5   6  12   28.92   12.75
  -5   6  11  146.02   30.53
  -5   6  10  129.42   38.38
  -5   6   9  196.18   52.27
  -5   6   8    3.50    4.07
  -5   6   7  296.87   69.06
  -5   6   6  107.77   36.02
  -5   6   5  266.70   17.71
  -5   6   4   50.57   14.60
   5  -6  -3  227.21   16.23
  -5   6   3  187.79   25.09
   5  -6  -2  132.02   10.23
   5  -6  -2  150.68   13.16
  -5   6   2  147.97   22.75
   5  -6  -1  279.38   16.76
   5  -6  -1  289.43   20.41
  -5   6   1  231.86   23.06
   5  -6   0    2.42    2.78
   5  -6   0    0.17    3.40
  -5   6   0    0.54    3.64
   5  -6   1  256.96   18.61
  -5   6  -1  283.94   19.11
   5  -6   2  132.81   10.17
   5  -6   2  124.23   11.31
  -5   6  -2  118.81   10.33
   5  -6   3  208.78   13.73
   5  -6   3  225.16   16.24
  -5   6  -3  203.19   13.11
   5  -6   4   39.72    7.08
   5  -6   4   48.73    8.53
  -5   6  -4   36.32   13.10
   5  -6   5  286.09   41.22
   5  -6   5  268.04   15.61
  -5   6  -5  271.75   14.54
   5  -6   6  117.64   30.06
   5  -6   6  107.33   10.06
  -5   6  -6   89.77   15.64
   5  -6   7  249.08   18.92
   5  -6   7  227.38   14.15
  -5   6  -7  217.31   17.78
   5  -6   8    3.17    2.74
   5  -6   8    1.45    3.95
   5  -6   9  121.56   40.31
   5  -6   9  146.60   11.66
   5  -6  10  149.62   14.92
   5  -6  10  106.50    9.88
   5  -6  11  136.59   19.77
   5  -6  11  112.61    9.91
   5  -6  12   27.20   14.12
  -4   6  13  103.24   18.74
  -4   6  12  295.35   18.78
  -4   6  11   57.42   24.62
  -4   6  10   36.40   12.54
  -4   6   9    4.40    2.68
  -4   6   8   17.96    7.91
  -4   6   7   79.88   26.75
  -4   6   6    5.62    3.94
  -4   6   5  148.96   26.11
   4  -6  -4 1080.97   56.02
  -4   6   4 1000.59   56.29
   4  -6  -3   81.92    9.72
  -4   6   3   77.47   21.85
   4  -6  -2   11.95    3.12
   4  -6  -2   16.64    4.85
  -4   6   2   17.96    7.51
   4  -6  -1   63.02    6.00
   4  -6  -1   56.06    8.14
  -4   6   1   49.34   18.00
   4  -6   0   12.85    3.37
   4  -6   0   13.03    4.75
  -4   6   0   10.62    4.14
   4  -6   1   48.97   10.02
   4  -6   1   61.73    7.67
  -4   6  -1   46.56   15.90
   4  -6   2   14.96    5.09
   4  -6   2   17.29    5.39
  -4   6  -2   14.91    6.80
   4  -6   3   82.96   11.96
   4  -6   3   76.41    8.60
  -4   6  -3   57.25   20.18
   4  -6   4  976.69   67.96
   4  -6   4 1010.54   50.91
  -4   6  -4  993.68   51.60
   4  -6   5  152.18   15.12
   4  -6   5  160.94   12.50
  -4   6  -5  149.79   17.86
   4  -6   6   13.54    5.00
   4  -6   6    9.38    4.84
  -4   6  -6    3.90    4.30
   4  -6   7   89.48   25.14
   4  -6   7   75.72    8.58
  -4   6  -7   51.68   11.99
   4  -6   8   12.12    6.23
   4  -6   8   10.63    4.78
   4  -6   9    8.36    7.14
   4  -6  10   39.50   13.02
   4  -6  10   15.64    5.47
   4  -6  11   54.51   23.08
   4  -6  11   46.04    7.85
   4  -6  12  284.74   24.62
   4  -6  12  245.10   18.86
   4  -6  13  122.09   21.72
  -3   6  13    2.74    5.69
  -3   6  12  725.19   34.35
  -3   6  10   39.87   12.48
  -3   6   9   52.78   25.26
  -3   6   8  536.73   28.13
  -3   6   7    3.52    4.53
   3  -6  -6  268.12   19.88
  -3   6   6  236.17   38.13
   3  -6  -5    1.13    4.17
  -3   6   5    4.16    5.91
   3  -6  -4  711.10   30.17
  -3   6   4  912.47   35.97
   3  -6  -3   33.18    7.65
  -3   6   3   30.40   11.76
   3  -6  -2  112.02    8.06
   3  -6  -2  135.01   12.53
  -3   6   2  124.23   25.07
   3  -6  -1    4.90    2.06
   3  -6  -1    5.42    3.62
  -3   6   1   13.01    5.09
   3  -6   0  856.08   33.29
   3  -6   0  832.01   33.49
  -3   6   0  856.59   33.07
   3  -6   1    8.09    3.56
   3  -6   1    1.94    3.48
  -3   6  -1    8.84    3.27
   3  -6   2  111.87   15.69
   3  -6   2  122.25   10.10
  -3   6  -2  130.31   19.88
   3  -6   3   41.96   13.49
   3  -6   3   30.27    5.29
  -3   6  -3   39.96    9.56
   3  -6   4  909.90   35.10
   3  -6   4  927.26   34.94
   3  -6   5    9.03    4.06
   3  -6   5    2.43    3.22
   3  -6   6  235.49   17.07
  -3   6  -6  255.12   16.89
   3  -6   7    2.18    3.96
   3  -6   8  554.56   28.14
   3  -6   8  456.66   21.54
   3  -6   9   67.06   23.64
   3  -6   9   36.46    6.41
   3  -6  10   35.03   12.11
   3  -6  10   25.68    6.71
   3  -6  11    9.32    5.11
   3  -6  11    4.30    5.14
   3  -6  13    0.48    2.55
  -2   6  14  344.89   28.75
  -2   6  13   49.72   30.00
  -2   6  12   43.69   22.06
  -2   6  11   73.21   27.22
  -2   6  10   16.88    8.28
   2  -6  -9   72.39    9.26
  -2   6   9   83.64   16.57
   2  -6  -8  491.68   25.24
  -2   6   8  428.12   24.45
   2  -6  -7  370.68   24.10
  -2   6   7  369.00   23.94
   2  -6  -6  431.02   26.79
  -2   6   6  416.77   25.59
   2  -6  -5   27.81    6.41
  -2   6   5   20.13   11.04
  -2   6   4   69.25   21.39
   2  -6  -3   52.25    7.54
  -2   6   3   62.55   15.55
   2  -6  -2  145.89   10.45
   2  -6  -2  151.67   11.79
  -2   6   2  172.30   14.02
   2  -6  -1  241.88   13.65
   2  -6  -1  204.85   13.55
   2  -6   0  599.34   21.42
   2  -6   0  648.69   24.59
  -2   6   0  601.22   21.27
   2  -6   1  267.79   16.29
   2  -6   1  252.07   13.89
  -2   6  -1  255.95   32.17
   2  -6   2  178.71   11.94
   2  -6   2  177.95   12.44
  -2   6  -2  181.94   25.69
   2  -6   3   57.01   10.29
   2  -6   3   52.78    6.87
  -2   6  -3   65.52   16.61
   2  -6   4   72.92   11.14
   2  -6   4   52.79    6.67
  -2   6  -4   57.18   10.67
   2  -6   5   31.91    9.55
   2  -6   5   28.36    5.59
  -2   6  -5   29.48    7.80
   2  -6   6  424.74   27.44
   2  -6   6  405.72   24.38
  -2   6  -6  423.91   22.67
   2  -6   7  335.93   37.22
   2  -6   7  320.14   21.22
   2  -6   8  437.00   23.18
   2  -6   8  358.26   20.04
   2  -6   9   66.13   25.30
   2  -6   9   55.73    7.57
   2  -6  10   12.04    5.18
   2  -6  10   18.12    5.51
   2  -6  11   54.65   19.90
   2  -6  11   71.63   11.83
   2  -6  12   33.39   18.68
   2  -6  12   35.56    7.06
   2  -6  13   41.08   20.48
   2  -6  13   55.18    8.40
   2  -6  14  333.54   38.52
   2  -6  14  340.50   22.72
   1  -6 -14   95.75   12.06
  -1   6  14   88.14   28.64
   1  -6 -13  106.84   11.31
  -1   6  13   93.02   42.14
   1  -6 -12    8.34    4.51
  -1   6  12    7.97    5.77
   1  -6 -11  123.98   10.87
  -1   6  11  129.44   11.46
   1  -6 -10  338.37   18.26
  -1   6  10  314.41   21.00
   1  -6  -9  300.57   18.57
  -1   6   9  270.85   31.49
   1  -6  -8   16.37    6.01
  -1   6   8   28.16   13.08
   1  -6  -7  161.82   14.29
  -1   6   7  143.05   21.09
   1  -6  -6  241.77   16.06
  -1   6   6  225.61   27.91
   1  -6  -5  225.04   14.95
  -1   6   5  196.59   23.74
   1  -6  -4   15.30    5.70
  -1   6   4   10.81    5.13
   1  -6  -3  304.18   17.19
  -1   6   3  292.51   19.79
   1  -6  -2  443.38   19.44
  -1   6   2  439.25   17.92
   1  -6  -1  223.26   10.67
   1  -6  -1  246.32   14.44
  -1   6   1  257.94   13.73
   1  -6   0    7.77    3.75
   1  -6   0   11.88    4.78
  -1   6   0    9.71    5.52
   1  -6   1  241.22   12.54
   1  -6   1  244.28   13.70
  -1   6  -1  241.13   12.19
   1  -6   2  445.31   16.36
   1  -6   2  446.18   18.91
  -1   6  -2  431.73   18.77
   1  -6   3  314.21   14.91
   1  -6   3  319.28   17.19
  -1   6  -3  318.76   14.56
   1  -6   4   13.49    6.23
   1  -6   4    9.90    3.79
  -1   6  -4   10.49    5.41
   1  -6   5  203.34   29.15
   1  -6   5  209.93   13.94
  -1   6  -5  214.83   10.97
   1  -6   6  225.70   20.67
   1  -6   6  221.54   13.99
  -1   6  -6  234.75   11.28
   1  -6   7  162.01   30.96
   1  -6   7  123.69   11.51
   1  -6   8   28.24   12.84
   1  -6   8   19.11    5.31
   1  -6   9  290.51   17.69
   1  -6  10  302.75   16.60
   1  -6  10  286.94   16.83
   1  -6  11  127.86   36.37
   1  -6  11  117.40   10.47
   1  -6  12   11.40    9.32
   1  -6  12    2.74    4.43
   1  -6  13  109.83   26.76
   1  -6  13  113.49   11.35
   1  -6  14   99.93   31.81
   1  -6  14   98.31   11.43
   0   6  14  126.51   14.17
   0  -6 -13    4.27    5.25
   0  -6 -12  186.35   14.78
   0   6  12  179.28   14.81
   0  -6 -11    2.91    5.11
   0   6  11    0.39    2.08
   0  -6 -10  895.48   26.76
   0   6  10  864.32   33.73
   0  -6  -9    4.40    3.73
   0   6   9    1.76    2.40
   0  -6  -8  533.61   25.62
   0   6   8  436.94   24.31
   0  -6  -7    2.62    5.88
   0   6   7    1.55    2.46
   0  -6  -6  150.95   11.99
   0   6   6  153.35   19.61
   0  -6  -5    3.74    4.30
   0   6   5    3.02    2.32
   0  -6  -4   94.11    9.35
   0   6   4   87.59   22.85
   0  -6  -3    3.56    3.93
   0   6   3    1.43    2.49
   0  -6  -2  600.14   22.14
   0   6   2  577.37   21.16
   0  -6  -1    0.52    3.27
   0   6   1    2.08    3.12
   0  -6   0  731.23   25.30
   0   6   0  780.03   23.99
   0  -6   1    1.52    2.12
   0  -6   1    3.08    5.52
   0   6  -1    3.24    3.00
   0  -6   2  566.30   17.31
   0  -6   2  604.32   22.99
   0   6  -2  625.66   19.69
   0  -6   3    3.63    3.45
   0  -6   3    1.61    3.55
   0   6  -3    2.59    2.79
   0  -6   4   79.88   12.53
   0  -6   4   77.38    8.17
   0   6  -4   76.78   12.86
   0  -6   5    1.20    2.23
   0  -6   5    4.39    4.09
   0   6  -5    1.21    1.68
   0  -6   6  151.95   21.53
   0  -6   6  127.82   10.63
   0  -6   7    1.19    2.12
   0  -6   7    2.67    3.39
   0  -6   8  552.82   29.56
   0  -6   8  474.23   23.40
   0  -6   9    3.95    3.76
   0  -6   9    1.34    4.07
   0  -6  10  848.03   30.22
   0  -6  11    2.08    3.12
   0  -6  11    0.02    3.93
   0  -6  12  185.66   27.27
   0  -6  12  169.47   13.74
   0  -6  13    0.45    3.03
   0  -6  13    0.54    3.75
   0  -6  14  133.15   14.81
  -1  -6 -13   88.31    9.29
  -1  -6 -12    3.83    2.83
  -1  -6 -11  106.51    9.64
  -1  -6 -10  274.38   15.02
   1   6  10  278.54   16.44
  -1  -6  -9  286.57   16.23
   1   6   9  262.57   16.61
  -1  -6  -8   18.61    5.04
   1   6   8   33.07   12.29
  -1  -6  -7  155.51   12.86
   1   6   7  154.21   13.23
  -1  -6  -6  228.37   14.68
   1   6   6  248.10   15.09
  -1  -6  -5  213.30   13.46
   1   6   5  211.91   17.10
  -1  -6  -4    7.78    4.98
   1   6   4    8.54    4.58
  -1  -6  -3  318.09   15.63
   1   6   3  304.34   15.14
  -1  -6  -2  442.14   18.37
   1   6   2  453.31   18.14
   1   6   1  220.21    8.16
   1   6   1  232.84   19.16
   1   6   0    5.87    2.36
  -1  -6   0    9.03    4.12
   1   6   0    8.04    3.94
   1   6  -1  244.49   10.36
  -1  -6   1  246.17   13.98
   1   6  -1  229.32   11.45
   1   6  -2  447.59   15.44
  -1  -6   2  419.55   18.04
   1   6  -2  403.82   14.82
   1   6  -3  283.87   13.99
  -1  -6   3  274.91   16.38
  -1  -6   4   10.63    2.83
  -1  -6   4   10.81    4.22
  -1  -6   5  197.25   13.94
  -1  -6   5  195.48   13.19
  -1  -6   6  230.34   12.54
  -1  -6   6  207.13   13.91
  -1  -6   7  141.69   17.55
  -1  -6   7  144.44   12.61
  -1  -6   8   20.30    9.19
  -1  -6   8   24.07    5.50
  -1  -6   9  270.70   16.14
  -1  -6   9  280.30   17.03
  -1  -6  10  301.60   21.76
  -1  -6  10  312.53   17.77
  -1  -6  11   87.02   26.03
  -1  -6  11  120.25   11.72
  -1  -6  12    5.84    5.51
  -1  -6  12    8.58    5.99
  -1  -6  13   79.03   30.21
  -1  -6  13  103.38   10.56
  -1  -6  14  108.69   12.49
  -1  -6  14  107.12   11.97
  -2  -6 -11   66.74   10.39
  -2  -6  -9   71.03    7.37
  -2  -6  -8  444.43   20.82
  -2  -6  -6  397.41   23.14
  -2  -6  -5   24.18    5.13
  -2  -6  -4   60.99    6.74
  -2  -6  -3   66.37    7.52
  -2  -6  -2  176.04   11.86
  -2  -6  -1  259.86   14.33
   2   6   0  596.27   16.62
  -2  -6   0  625.76   22.36
   2   6  -1  253.53   10.52
  -2  -6   1  237.40   13.64
   2   6  -2  172.43   10.02
  -2  -6   2  147.50   11.04
   2   6  -3   46.18    5.50
  -2  -6   3   55.06    7.18
   2   6  -4   58.46    6.88
  -2  -6   4   62.40    8.75
   2   6  -5   27.33    5.77
  -2  -6   5   20.82    5.58
   2   6  -6  415.73   24.35
  -2  -6   6  357.03   22.57
   2   6  -7  324.96   21.12
  -2  -6   7  331.29   21.58
   2   6  -8  417.27   21.90
  -2  -6   8  422.37   21.76
   2   6  -9   69.45    9.47
  -2  -6   9   64.45    7.85
   2   6 -10   15.40    5.81
  -2  -6  10   23.08    6.40
   2   6 -11   58.04   10.07
  -2  -6  11   66.55   11.12
   2   6 -12   26.87    8.24
  -2  -6  12   24.29    6.31
   2   6 -13   42.95    8.48
  -2  -6  13   42.33    7.14
   2   6 -14  332.67   25.02
  -2  -6  14  323.74   22.46
  -3  -6 -10   25.09    5.16
  -3  -6  -9   48.28    5.80
  -3  -6  -8  493.25   20.77
  -3  -6  -7    1.39    2.80
  -3  -6  -6  225.68   15.44
  -3  -6  -5    3.78    2.51
  -3  -6  -4  847.34   31.66
  -3  -6  -3   28.66    5.74
  -3  -6  -2  102.42    8.98
   3   6   1    5.19    2.14
  -3  -6  -1    4.54    3.64
   3   6   0  793.23   26.58
  -3  -6   0  703.18   28.12
   3   6  -1    3.24    2.93
  -3  -6   1    3.62    3.46
   3   6  -2  115.68    8.59
  -3  -6   2  100.16    9.43
   3   6  -3   35.20    4.87
  -3  -6   3   34.12    6.82
   3   6  -4  828.61   29.85
  -3  -6   4  819.66   32.67
   3   6  -5    5.62    3.72
  -3  -6   5    4.07    4.11
   3   6  -6  226.24   16.12
  -3  -6   6  176.91   14.83
   3   6  -7    7.18    6.30
  -3  -6   7    2.22    4.90
   3   6  -8  498.53   23.30
  -3  -6   8  478.07   22.78
   3   6  -9   46.38    7.40
  -3  -6   9   52.87    7.79
   3   6 -10   35.27    8.24
  -3  -6  10   30.13    6.40
   3   6 -11    1.42    5.36
  -3  -6  11   -0.37    3.76
   3   6 -12  679.94   31.62
  -3  -6  12  653.01   29.24
   3   6 -13    2.22    5.25
  -3  -6  13    2.09    4.60
  -4  -6  -9    2.12    3.33
  -4  -6  -8    9.39    3.36
  -4  -6  -7   71.11    7.25
  -4  -6  -6    5.49    2.92
  -4  -6  -5  132.91    9.86
  -4  -6  -3   51.26    6.77
  -4  -6  -2   12.84    4.16
   4   6   1   45.62    4.51
  -4  -6  -1   40.99    5.91
   4   6   0   13.08    3.10
  -4  -6   0   15.72    4.70
   4   6  -1   49.56    5.50
  -4  -6   1   57.31    7.69
   4   6  -2   15.10    4.21
  -4  -6   2   11.30    4.85
   4   6  -3   59.46    6.78
  -4  -6   3   60.97    7.77
   4   6  -4  939.48   46.04
  -4  -6   4  860.75   44.38
   4   6  -5  150.72   11.04
  -4  -6   5  127.14   11.06
   4   6  -6    6.87    3.62
  -4  -6   6    5.01    5.30
   4   6  -7   56.66    7.48
  -4  -6   7   71.39    9.62
   4   6  -8   13.38    4.38
  -4  -6   8    6.89    4.04
   4   6  -9    9.99    5.90
  -4  -6   9    8.28    3.91
   4   6 -10   27.66    6.56
  -4  -6  10   29.75    6.89
   4   6 -11   52.41    8.68
  -4  -6  11   41.97    7.47
   4   6 -12  278.14   17.33
  -4  -6  12  245.86   15.68
   4   6 -13  118.36   15.68
  -4  -6  13   97.31   11.33
  -5  -6  -7  172.74   10.35
  -5  -6  -6   81.27    7.56
  -5  -6  -5  219.44   12.50
  -5  -6  -4   32.84    5.38
  -5  -6  -3  175.76   11.99
  -5  -6  -2  117.01   10.18
   5   6   1  227.43   13.62
  -5  -6  -1  245.68   16.60
   5   6   0    2.73    2.86
  -5  -6   0    2.51    4.83
   5   6  -1  245.08   15.18
  -5  -6   1  214.51   15.88
   5   6  -2  118.18    9.18
  -5  -6   2  133.46   11.20
   5   6  -3  201.03   12.55
  -5  -6   3  193.73   13.71
   5   6  -4   43.15    6.23
  -5  -6   4   30.87    5.97
   5   6  -5  238.34   14.02
  -5  -6   5  251.33   16.13
   5   6  -6   89.53    9.59
  -5  -6   6   92.31    9.92
   5   6  -7  222.05   13.81
  -5  -6   7  203.75   14.02
   5   6  -8    4.28    4.72
  -5  -6   8    4.38    5.51
   5   6  -9  143.55   12.38
  -5  -6   9  132.95   11.38
   5   6 -10  124.78   12.54
  -5  -6  10  132.73   12.20
   5   6 -11  132.14   12.27
  -5  -6  11  114.43   11.34
   5   6 -12   30.85    8.28
  -5  -6  12   24.91    7.16
  -6  -6  -6    4.86    3.59
  -6  -6  -5   45.65    6.08
  -6  -6  -3   15.36    4.28
  -6  -6  -2    8.50    3.90
  -6  -6  -1   15.14    4.55
  -6  -6   0 1173.16   39.80
   6   6  -1   15.76    4.58
  -6  -6   1   14.80    4.91
  -6  -6   2    9.85    5.04
   6   6  -3   12.82    4.21
  -6  -6   3    5.85    3.77
  -6  -6   4   36.93    6.86
   6   6  -5   45.18    7.57
  -6  -6   5   48.09    7.46
   6   6  -6    8.15    5.35
  -6  -6   6    5.70    3.72
   6   6  -7   74.02   11.64
  -6  -6   7   90.77   13.71
   6   6  -8  853.34   36.21
  -6  -6   8  855.79   36.66
   6   6  -9   21.40    5.35
  -6  -6   9   19.40    5.63
   6   6 -10   29.62    7.16
  -6  -6  10   39.20    7.56
   6   6 -11   19.31    7.57
  -6  -6  11    8.06    5.41
  -7  -6  -4    5.48    4.50
  -7  -6  -3   92.61    8.27
  -7  -6  -2  290.71   13.71
   7   6   1   73.44    7.19
  -7  -6  -1   85.93    8.18
   7   6   0  111.68    8.66
  -7  -6   0  107.45    9.41
   7   6  -1   91.30    8.70
  -7  -6   1   80.18    7.94
  -7  -6   2  282.55   14.14
   7   6  -3  110.79    9.98
  -7  -6   3   97.97    9.63
   7   6  -4    5.60    6.56
  -7  -6   4    3.16    3.34
   7   6  -5   51.34    8.92
  -7  -6   5   55.42    9.53
   7   6  -6  396.36   21.60
  -7  -6   6  376.20   20.65
  -7  -6   7   72.12    9.51
   7   6  -8   32.89    9.21
  -7  -6   8   31.02    6.03
   7   6  -9   75.19   10.98
  -7  -6   9   70.84    9.92
  -8  -6  -3   11.31    3.69
  -8  -6  -2   29.02    5.89
  -8  -6  -1  179.12   12.90
   8   6   0  108.52   14.28
   8   6  -1  167.85   12.65
  -8  -6   1  177.44   12.99
   8   6  -2   36.93    5.88
  -8  -6   2   40.88    7.31
   8   6  -3   13.51    4.90
  -8  -6   3    9.52    4.48
   8   6  -4  291.85   16.93
  -8  -6   4  274.89   16.38
   8   6  -5    6.81    4.20
  -8  -6   5   13.16    4.97
   8   6  -6   14.51    5.65
  -8  -6   6   14.60    5.77
   8   6  -7  121.16   12.49
  -8  -6   7  123.16   12.39
  -9  -6   0  182.87   12.50
   9   6  -1   69.94    9.46
  -9  -6   1   41.95    5.91
   9   6  -2   26.69    5.88
  -9  -6   2   33.13    6.75
   9   6  -3   21.97    5.40
  -9  -6   3   17.63    5.70
   9   6  -4  498.76   29.60
  -9  -6   4  478.22   28.42
   7  -7  -5  111.02   14.96
  -7   7   5   82.58   42.24
   7  -7  -4  596.43   37.53
  -7   7   4  590.19   36.11
   7  -7  -3   19.00    7.87
  -7   7   3    8.50    5.61
   7  -7  -2    6.37    7.87
  -7   7   2    7.59    6.26
   7  -7  -1    5.23    5.48
  -7   7   1    4.26    3.25
   7  -7   0    3.87    4.88
  -7   7   0    3.39    6.75
   7  -7   1    1.64    3.40
   7  -7   1    5.99    6.46
  -7   7  -1    4.11    4.09
   7  -7   2    8.70    4.86
  -7   7  -2    7.99    5.18
   7  -7   3   15.51    5.70
   7  -7   3   25.20    6.91
  -7   7  -3   17.21    5.26
   7  -7   4  630.14   43.05
   7  -7   4  566.22   33.31
  -7   7  -4  577.93   33.57
   7  -7   5   75.00   27.61
   7  -7   5  102.86   11.47
  -7   7  -5   77.05    9.45
  -6   7   7   12.18    5.94
   6  -7  -6  885.48   33.52
  -6   7   6  833.52   31.16
   6  -7  -5   45.59    9.09
  -6   7   5   42.53   21.13
   6  -7  -4   58.52   10.57
  -6   7   4   75.71   28.45
   6  -7  -3   26.19    7.71
  -6   7   3   38.79   15.20
   6  -7  -2  761.69   36.03
  -6   7   2  722.25   32.21
   6  -7  -1   32.59   10.39
  -6   7   1   27.68   12.97
   6  -7   0    4.91    5.24
  -6   7   0    4.34    4.57
   6  -7   1   20.25    5.55
  -6   7  -1   26.57   13.11
   6  -7   2  735.24   46.62
   6  -7   2  765.91   34.02
  -6   7  -2  764.08   31.70
   6  -7   3   21.65   11.16
   6  -7   3   17.00    5.76
   6  -7   4   61.85   27.08
   6  -7   4   59.01    8.84
  -6   7  -4   45.88   25.57
   6  -7   5   39.82   25.87
   6  -7   5   52.11    7.88
  -6   7  -5   23.41   13.10
   6  -7   6  814.08   33.45
   6  -7   6  800.05   27.22
   6  -7   7    7.25    3.62
   6  -7   7    5.93    4.48
  -5   7   9  158.40   39.00
   5  -7  -8   19.10    7.23
  -5   7   8   14.45   10.52
   5  -7  -7   38.87    8.06
  -5   7   7   34.24   18.53
   5  -7  -6    8.52    6.18
  -5   7   6   10.99    6.59
   5  -7  -5    4.02    6.86
  -5   7   5    5.48    6.26
   5  -7  -4  390.80   24.12
  -5   7   4  391.23   71.71
   5  -7  -3  126.69   13.18
  -5   7   3  119.21   26.59
   5  -7  -2   17.91    6.61
  -5   7   2   17.09    8.14
   5  -7  -1   42.58    7.95
  -5   7   1   46.27   13.08
   5  -7   0  115.28   12.85
  -5   7   0  109.05   19.40
   5  -7   1   36.95   17.11
   5  -7   1   43.21    8.42
  -5   7  -1   37.99   18.39
   5  -7   2   15.82    7.71
   5  -7   2   16.65    6.40
  -5   7  -2   16.79    7.70
   5  -7   3  117.33   27.45
   5  -7   3  109.80   11.43
  -5   7  -3  107.64   25.66
   5  -7   4  397.15   29.20
   5  -7   4  373.57   21.25
  -5   7  -4  369.09   20.46
   5  -7   5    2.73    3.82
   5  -7   5    4.90    4.94
  -5   7  -5    2.73    5.71
   5  -7   6   15.75    7.42
   5  -7   6    9.54    6.40
   5  -7   7   27.70   15.00
   5  -7   7   38.33    6.77
   5  -7   8   10.48    8.47
   5  -7   8   16.07    5.67
   5  -7   9  143.71   14.98
   5  -7   9  150.36   14.16
   4  -7 -10  295.27   24.52
  -4   7  10  213.35   19.17
   4  -7  -9  148.88   14.43
  -4   7   9  105.05   25.95
   4  -7  -8   59.38   10.59
  -4   7   8   69.57   16.67
   4  -7  -7  197.44   16.99
  -4   7   7  171.56   26.19
   4  -7  -6  162.04   15.23
  -4   7   6  133.66   26.60
   4  -7  -5  156.84   14.61
  -4   7   5  139.37   12.41
   4  -7  -4   31.87    9.70
  -4   7   4   23.27   12.76
   4  -7  -3  100.85   11.80
  -4   7   3  124.21   30.65
   4  -7  -2  315.00   19.67
  -4   7   2  301.86   19.58
   4  -7  -1  208.63   15.26
  -4   7   1  192.71   28.93
   4  -7   0   40.80    7.71
  -4   7   0   43.12   21.34
   4  -7   1  186.26   22.78
   4  -7   1  210.56   14.90
  -4   7  -1  184.63   27.94
   4  -7   2  298.11   22.98
   4  -7   2  311.95   17.49
  -4   7  -2  270.95   18.67
   4  -7   3  117.53    9.60
   4  -7   3  108.99   10.75
  -4   7  -3   97.34   23.36
   4  -7   4   24.80   14.51
   4  -7   4   23.99    6.55
  -4   7  -4   27.69   11.64
   4  -7   5  132.39   22.51
   4  -7   5  141.21   12.46
  -4   7  -5  131.58    9.96
   4  -7   6  124.58   21.16
   4  -7   6  146.23   12.81
   4  -7   7  185.29   30.89
   4  -7   7  170.81   13.97
   4  -7   8   66.39   22.25
   4  -7   8   53.93    8.51
   4  -7   9   91.98   23.41
   4  -7   9  102.84   11.23
   4  -7  10  234.15   26.77
   4  -7  10  203.84   16.95
   3  -7 -11   10.96    6.24
  -3   7  11   10.93    6.15
   3  -7 -10  437.50   23.53
  -3   7  10  392.27   20.61
   3  -7  -9   10.42    6.65
  -3   7   9    4.72    4.85
   3  -7  -8  178.19   15.89
  -3   7   8  158.48   25.56
   3  -7  -7   12.38    5.85
  -3   7   7   17.85    9.26
   3  -7  -6  136.18   13.77
  -3   7   6  130.71   31.57
   3  -7  -5   12.61    6.67
  -3   7   5    6.83    3.93
   3  -7  -4  118.66   12.88
  -3   7   4  128.90   38.36
   3  -7  -3   17.67    6.47
  -3   7   3   18.74    8.58
   3  -7  -2  202.66   15.96
  -3   7   2  209.81   18.61
   3  -7  -1    3.55    6.11
  -3   7   1    1.69    3.83
   3  -7   0  397.91   21.69
  -3   7   0  372.06   31.51
   3  -7   1    1.27    1.50
   3  -7   1    3.00    5.01
  -3   7  -1    1.10    1.64
   3  -7   2  174.80   29.90
   3  -7   2  205.04   14.14
  -3   7  -2  199.56   24.31
   3  -7   3   13.44    6.25
   3  -7   3   21.02    5.60
  -3   7  -3   12.18    8.01
   3  -7   4  114.26   26.15
   3  -7   4  100.77    9.74
  -3   7  -4  100.45   17.43
   3  -7   5   11.00    5.46
   3  -7   5    4.67    4.67
  -3   7  -5   11.91    5.57
   3  -7   6  102.46   21.84
   3  -7   6  126.21   11.94
   3  -7   7   10.00    6.99
   3  -7   8  151.71   23.51
   3  -7   8  139.42   12.55
   3  -7   9    7.13    7.26
   3  -7   9   12.02    7.22
   3  -7  10  402.29   19.37
   3  -7  10  351.10   18.67
   3  -7  11    8.95    4.96
   3  -7  11   13.38    5.25
   2  -7 -11  228.41   20.07
   2  -7 -10   19.67    7.70
  -2   7  10   17.78   10.18
   2  -7  -9  222.64   17.51
  -2   7   9  184.78   15.18
   2  -7  -8  438.31   25.64
  -2   7   8  442.14   24.08
   2  -7  -7  108.40   12.22
  -2   7   7   96.60   13.99
   2  -7  -6   44.35    8.18
  -2   7   6   42.76   11.97
   2  -7  -5  335.05   19.55
  -2   7   5  316.80   19.65
   2  -7  -4  208.47   15.92
  -2   7   4  198.39   27.03
   2  -7  -3  356.23   26.32
  -2   7   3  373.82   19.58
   2  -7  -2   40.27    7.57
  -2   7   2   46.21   24.53
   2  -7  -1  212.76   15.44
  -2   7   1  181.42   17.06
   2  -7   0  634.41   28.70
   2  -7   1  201.24   14.34
  -2   7  -1  181.41   34.56
   2  -7   2   42.10   10.25
   2  -7   2   38.18    6.31
  -2   7  -2   45.03   20.26
   2  -7   3  347.62   16.77
   2  -7   3  362.69   19.28
  -2   7  -3  351.63   17.10
   2  -7   4  205.39   25.36
   2  -7   4  240.81   15.75
  -2   7  -4  185.80   29.97
   2  -7   5  320.54   19.03
   2  -7   5  349.64   18.15
  -2   7  -5  350.60   15.13
   2  -7   6   32.56   13.33
   2  -7   6   49.34    8.65
   2  -7   7   92.42   28.52
   2  -7   7  106.66   11.24
   2  -7   8  451.88   27.22
   2  -7   8  402.10   22.66
   2  -7   9  196.21   17.25
   2  -7   9  199.68   15.22
   2  -7  10   13.49    6.20
   2  -7  11  218.14   39.20
   2  -7  11  193.66   16.84
   1  -7 -12  433.61   29.04
  -1   7  12  433.63   28.48
   1  -7 -11   34.64    9.23
  -1   7  11   34.14   20.34
   1  -7 -10  126.54   12.93
  -1   7  10   97.11   14.37
   1  -7  -9   21.21    7.32
  -1   7   9   18.15   10.74
   1  -7  -8   21.20    5.76
  -1   7   8   26.47   11.65
   1  -7  -7   53.65    8.67
  -1   7   7   46.53   17.72
   1  -7  -6   32.80    7.90
  -1   7   6   33.22   13.47
   1  -7  -5   28.07    7.47
  -1   7   5   29.90   11.02
   1  -7  -4  614.94   28.73
  -1   7   4  563.05   25.18
   1  -7  -3  115.50   11.63
  -1   7   3  121.30   29.50
   1  -7  -2   86.82    9.63
  -1   7   2   70.48   14.76
   1  -7  -1   22.44    5.71
  -1   7   1   24.64   11.86
   1  -7   0    1.91    4.25
  -1   7   0    4.54    3.37
   1  -7   1   23.14    6.20
  -1   7  -1   32.50   14.78
   1  -7   2   64.87    9.96
   1  -7   2   73.64    8.68
  -1   7  -2   70.29   11.40
   1  -7   3  102.01    7.92
   1  -7   3  110.81   11.09
  -1   7  -3  110.02   13.35
   1  -7   4  567.06   21.94
   1  -7   4  547.31   24.83
  -1   7  -4  557.77   22.86
   1  -7   5   21.70   10.02
   1  -7   5   43.10    7.24
   1  -7   6   30.46   13.50
   1  -7   6   34.00    6.44
   1  -7   7   44.56   11.73
   1  -7   7   43.47    7.67
   1  -7   8   21.29   13.84
   1  -7   8   38.88    8.96
   1  -7   9   22.39   10.21
   1  -7   9   21.70    6.63
   1  -7  10  119.82   20.79
   1  -7  10   89.16   11.51
   1  -7  11   46.50   23.87
   1  -7  11   44.48    8.70
   1  -7  12  444.02   27.85
   1  -7  12  372.31   25.41
   0  -7 -12  491.50   30.49
   0   7  12  486.24   30.87
   0  -7 -11    3.04    4.25
   0   7  11    1.14    4.46
   0  -7 -10  177.47   15.04
   0   7  10  194.37   14.71
   0  -7  -9    1.53    4.47
   0   7   9    1.39    4.00
   0  -7  -8  291.77   16.64
   0   7   8  266.07   15.42
   0  -7  -7    5.97    5.30
   0   7   7    2.58    2.90
   0  -7  -6  205.45   14.49
   0   7   6  195.81   22.94
   0  -7  -5    7.79    6.62
   0   7   5    0.77    2.74
   0  -7  -4 1024.81   38.33
   0   7   4 1043.83   37.51
   0  -7  -3    3.87    5.28
   0   7   3    5.97    5.54
   0  -7  -2  344.46   19.33
   0   7   2  343.54   18.57
   0  -7  -1    3.36    3.75
   0   7   1    2.05    3.97
   0  -7   0  210.14   14.62
   0   7   0  165.04   27.47
   0  -7   1   -0.19    3.89
   0   7  -1    1.35    3.72
   0  -7   2  340.46   19.28
   0   7  -2  340.07   16.79
   0  -7   3    1.02    3.14
   0  -7   3    3.25    5.23
   0   7  -3    0.48    2.97
   0  -7   4  929.98   30.46
   0  -7   4  970.51   36.37
   0   7  -4  967.95   32.08
   0  -7   5   -0.11    2.45
   0  -7   5    4.04    4.64
   0  -7   6  185.27   13.51
   0  -7   6  177.27   13.21
   0  -7   7   -0.54    1.88
   0  -7   7    2.99    3.84
   0  -7   8  264.82   19.63
   0  -7   8  234.36   15.35
   0  -7   9    0.87    2.69
   0  -7   9    4.97    5.23
   0  -7  10  178.11   13.64
   0  -7  10  163.80   14.37
   0  -7  11    0.18    4.27
   0  -7  12  512.43   34.89
   0  -7  12  458.19   29.38
  -1  -7 -12  388.48   25.09
  -1  -7 -11   25.59    5.84
  -1  -7 -10  124.36   12.30
  -1  -7  -9   31.28    7.73
  -1  -7  -8   22.83    5.47
   1   7   8   22.37    5.94
  -1  -7  -7   44.57    7.04
  -1  -7  -6   31.96    6.72
   1   7   6   30.49    6.35
  -1  -7  -5   35.76    6.58
   1   7   5   31.15   18.61
  -1  -7  -4  560.70   24.73
   1   7   4  572.32   25.14
  -1  -7  -3  106.17   10.85
   1   7   3   93.24   28.58
  -1  -7  -2   67.79    8.33
   1   7   2   70.39    8.03
  -1  -7  -1   26.83    6.30
   1   7   1   21.04    5.01
  -1  -7   0    2.25    3.68
   1   7   0    6.75    4.86
  -1  -7   1   30.86    6.64
   1   7  -2   72.36    6.26
  -1  -7   2   68.37    8.85
   1   7  -3  102.45    8.51
  -1  -7   3  100.75   10.96
   1   7  -4  541.52   21.60
  -1  -7   4  521.42   24.18
   1   7  -5   26.75    5.49
  -1  -7   5   29.51    6.21
   1   7  -6   25.62    5.46
  -1  -7   6   30.51    7.03
   1   7  -7   37.11    6.14
  -1  -7   7   37.69    6.82
  -1  -7   8   17.90    5.64
  -1  -7   9   18.22    6.45
  -1  -7  10   91.86   11.52
  -1  -7  11   31.99    9.25
  -1  -7  12  370.84   25.95
  -2  -7 -10   19.73    6.47
  -2  -7  -9  209.41   14.74
  -2  -7  -8  426.46   21.97
  -2  -7  -7  103.07    9.15
  -2  -7  -6   40.14    6.85
  -2  -7  -5  360.80   17.78
  -2  -7  -4  221.69   14.61
  -2  -7  -3  356.78   19.08
  -2  -7  -2   45.72    7.84
  -2  -7  -1  185.70   13.76
  -2  -7   0  606.99   27.72
  -2  -7   1  180.47   13.67
   2   7  -2   37.36    4.82
  -2  -7   2   37.79    7.09
   2   7  -3  337.05   15.82
  -2  -7   3  347.73   19.30
   2   7  -4  212.46   12.18
  -2  -7   4  209.87   15.00
   2   7  -5  299.37   14.79
  -2  -7   5  261.13   16.73
   2   7  -6   43.95    7.10
  -2  -7   6   39.77    7.74
   2   7  -7   94.47    9.34
  -2  -7   7   80.42    9.16
  -2  -7   8  394.48   22.81
  -2  -7   9  173.38   14.76
   2   7 -10   28.09    8.45
  -2  -7  10   19.85    7.05
   2   7 -11  196.23   17.10
  -2  -7  11  207.22   18.02
  -3  -7  -9    5.42    3.24
  -3  -7  -8  164.69   12.73
  -3  -7  -7    7.31    4.15
  -3  -7  -6  118.62   10.00
  -3  -7  -5   12.93    4.67
  -3  -7  -4  122.15   10.38
  -3  -7  -3   12.71    4.37
  -3  -7  -2  200.41   13.80
  -3  -7  -1    7.93    5.55
  -3  -7   0  391.26   19.95
  -3  -7   1    3.35    3.94
  -3  -7   2  188.60   13.85
  -3  -7   3   18.40    6.80
   3   7  -4  108.44    9.80
  -3  -7   4  100.53   10.81
  -3  -7   5    8.10    4.85
   3   7  -6  100.53    9.72
  -3  -7   6   87.88    9.74
   3   7  -7   11.30    4.46
  -3  -7   7   10.31    5.79
   3   7  -8  135.75   11.91
  -3  -7   8  135.53   12.77
  -3  -7   9    8.67    6.16
   3   7 -10  376.41   18.45
  -3  -7  10  361.90   20.44
   3   7 -11    7.32    4.72
  -3  -7  11    4.27    4.77
  -4  -7  -8   45.00    6.33
  -4  -7  -7  161.20   12.29
  -4  -7  -6  140.63   11.42
  -4  -7  -5  118.46    9.34
  -4  -7  -4   17.50    4.94
  -4  -7  -3   98.16    8.82
  -4  -7  -2  250.65   14.38
  -4  -7  -1  171.67   12.51
  -4  -7   0   34.71    6.30
  -4  -7   1  168.67   13.09
   4   7  -2  276.28   12.93
  -4  -7   2  239.51   15.53
   4   7  -3  113.43    8.79
  -4  -7   3  111.62   11.28
   4   7  -4   25.28    5.89
  -4  -7   4   18.30    5.23
   4   7  -5  124.55    9.83
  -4  -7   5   95.81   10.33
   4   7  -6  134.06   11.08
  -4  -7   6  118.77   16.47
   4   7  -7  176.49   13.24
  -4  -7   7  142.99   13.92
   4   7  -8   48.35    7.99
  -4  -7   8   57.09    8.87
   4   7  -9   94.21    9.57
  -4  -7   9  106.36   11.75
   4   7 -10  208.84   16.85
  -4  -7  10  213.13   18.44
  -5  -7  -6    8.91    4.50
  -5  -7  -5    1.17    3.46
  -5  -7  -4  323.40   18.51
  -5  -7  -3   97.01    9.02
  -5  -7  -2   11.17    4.16
  -5  -7  -1   26.82    5.49
  -5  -7   0   98.65    9.86
  -5  -7   1   36.12    6.42
  -5  -7   2   24.04    6.51
   5   7  -3  104.90    8.59
  -5  -7   3  111.45   10.92
   5   7  -4  341.34   18.40
  -5  -7   4  290.83   18.68
   5   7  -5    1.12    3.50
  -5  -7   5    4.35    6.06
   5   7  -6   14.07    4.90
  -5  -7   6   13.34    5.30
   5   7  -7   33.63    6.28
  -5  -7   7   40.65    7.83
   5   7  -8   16.19    5.31
  -5  -7   8   12.23    5.50
   5   7  -9  116.78   12.31
  -5  -7   9  123.97   14.36
  -6  -7  -5   26.36    5.58
  -6  -7  -4   41.06    6.59
  -6  -7  -3   17.24    6.05
  -6  -7  -2  615.33   28.07
  -6  -7  -1   19.37    5.17
  -6  -7   0    3.81    3.62
  -6  -7   1   19.88    5.38
  -6  -7   2  634.51   29.58
   6   7  -3   27.68    6.06
  -6  -7   3   20.58    5.29
   6   7  -4   58.62    7.66
  -6  -7   4   60.45    8.90
   6   7  -5   70.82    9.49
  -6  -7   5   31.94    6.43
  -6  -7   6  649.88   24.13
   6   7  -7    6.32    4.10
  -6  -7   7    6.44    6.42
  -7  -7  -3   17.65    5.77
  -7  -7  -2    5.88    3.21
  -7  -7  -1    1.69    3.35
  -7  -7   0    2.27    3.87
  -7  -7   1    0.61    3.56
  -7  -7   2    2.14    3.69
   7   7  -3   13.28    4.77
   7   7  -4  290.44   19.09
   7   7  -5   78.09    9.50
  -7  -7   5   83.41   11.14
   5  -8  -4    6.41    6.09
  -5   8   4    4.19    7.75
   5  -8  -3  239.73   21.34
  -5   8   3  215.91   19.08
   5  -8  -2    5.76    5.54
  -5   8   2    4.87    5.50
   5  -8  -1  181.98   18.27
  -5   8   1  141.58   34.69
   5  -8   0   68.41   11.45
  -5   8   0   55.38   24.41
   5  -8   1  169.97   16.67
  -5   8  -1  180.71   16.03
   5  -8   2    2.22    5.25
  -5   8  -2    1.96    4.68
   5  -8   3  230.71   19.26
  -5   8  -3  204.54   19.95
   5  -8   4    9.35    5.08
   4  -8  -6  254.20   22.56
  -4   8   6  244.92   20.69
   4  -8  -5   31.34    8.87
  -4   8   5   30.45   14.88
   4  -8  -4   22.42    8.11
  -4   8   4   29.72   10.54
   4  -8  -3   31.76    9.42
  -4   8   3   21.33   12.25
   4  -8  -2  241.23   17.93
  -4   8   2  221.45   23.83
   4  -8  -1    2.44    5.12
  -4   8   1    1.11    3.62
   4  -8   0  658.48   26.98
  -4   8   0  674.73   24.84
   4  -8   1    3.85    5.15
  -4   8  -1    2.44    5.42
   4  -8   2  199.98   14.89
  -4   8  -2  191.68   26.52
   4  -8   3   16.92    6.95
  -4   8  -3   10.41    7.67
   4  -8   4   28.00    7.16
   4  -8   5   16.49   12.98
   4  -8   5   28.24    7.81
   4  -8   6  244.21   18.82
   4  -8   6  259.14   20.33
   3  -8  -7   22.57    8.19
  -3   8   7   15.85   14.79
   3  -8  -6  330.62   25.30
  -3   8   6  305.07   40.28
   3  -8  -5   13.94    6.18
   3  -8  -4  388.55   21.39
  -3   8   4  339.93   17.95
   3  -8  -3    6.08    5.22
  -3   8   3    2.47    5.96
  -3   8   2  241.61   15.71
   3  -8  -1   47.79    8.90
  -3   8   1   33.09   13.63
   3  -8   0  103.65   11.00
  -3   8   0   91.55   38.63
   3  -8   1   41.88    8.24
  -3   8  -1   31.21   19.05
   3  -8   2  401.45   22.40
  -3   8  -2  378.35   19.81
   3  -8   3    9.10    6.92
  -3   8  -3    2.85    3.95
   3  -8   4  352.75   19.13
   3  -8   5   10.69    6.29
   3  -8   6  330.02   23.08
   3  -8   7   21.67   11.91
   3  -8   7   22.91    6.19
   2  -8  -8  104.60   14.27
  -2   8   8   83.53   36.95
   2  -8  -7   29.58    8.45
  -2   8   7   34.34   16.88
   2  -8  -6   14.10    5.68
  -2   8   6    4.94    3.89
   2  -8  -5    8.74    4.97
  -2   8   5    7.10    3.18
   2  -8  -4  250.33   18.36
  -2   8   4  190.85   26.96
   2  -8  -3   15.26    6.54
  -2   8   3   11.47    4.63
   2  -8  -2    5.01    5.62
  -2   8   2    1.21    2.16
   2  -8  -1   16.60    5.90
  -2   8   1   12.93    9.99
   2  -8   0  159.87   14.55
  -2   8   0  140.87   18.07
   2  -8   1   21.96    6.09
  -2   8  -1   23.98   13.50
   2  -8   2    6.55    5.46
  -2   8  -2    1.60    2.57
   2  -8   3    8.39    4.54
  -2   8  -3   10.21    3.91
   2  -8   4  220.03   16.43
   2  -8   5    7.13    4.97
   2  -8   6    7.38    6.11
   2  -8   6   13.48    6.72
   2  -8   7   30.10   17.02
   2  -8   7   27.47    6.96
   2  -8   8   67.68   23.66
   2  -8   8   88.25   12.08
   1  -8  -8  204.20   18.80
  -1   8   8  139.18   31.88
  -1   8   7  209.55   14.47
   1  -8  -6   74.63   10.81
  -1   8   6   47.04   16.98
   1  -8  -5  197.80   15.83
  -1   8   5  175.29   15.41
   1  -8  -4    5.30    4.53
  -1   8   4   10.04    5.36
   1  -8  -3  115.50   16.04
  -1   8   3   98.51   20.38
   1  -8  -2   54.62   10.35
  -1   8   2   36.56   19.54
   1  -8  -1  259.08   17.55
  -1   8   1  256.56   24.42
   1  -8   0  262.94   17.95
  -1   8   0  264.13   16.78
   1  -8   1  214.09   16.34
  -1   8  -1  252.07   24.34
   1  -8   2   53.78    9.81
  -1   8  -2   40.11   11.16
   1  -8   3  109.04   15.16
  -1   8  -3   92.34   14.31
   1  -8   4   15.19    6.33
   1  -8   5  172.58   14.41
   1  -8   6   43.07   15.48
   1  -8   6   53.65    8.60
   1  -8   7  196.04   12.23
   1  -8   7  198.30   15.29
   1  -8   8  122.16   28.75
   1  -8   8  153.21   15.96
   0  -8  -8  794.72   44.18
   0   8   8  736.15   42.53
   0  -8  -7    2.04    4.20
   0   8   7    3.95    4.05
   0  -8  -6  305.95   19.15
   0   8   6  222.06   28.75
   0  -8  -5    4.46    5.09
   0   8   5    1.08    3.22
   0  -8  -4  124.17   12.19
   0   8   4  109.87   29.06
   0  -8  -3    1.58    3.95
   0   8   3    0.89    3.01
   0  -8  -2   82.49   13.30
   0   8   2   70.57   17.28
   0  -8  -1    8.55    7.31
   0   8   1    2.96    4.12
   0  -8   0 1022.64   29.82
   0   8   0 1004.11   39.46
   0  -8   1    2.54    3.81
   0   8  -1    2.60    2.35
   0  -8   2   74.40   12.35
   0   8  -2   78.93   11.44
   0  -8   3    3.66    3.97
   0  -8   4  105.94   10.80
   0  -8   5    4.12    6.00
   0  -8   6  232.94   16.09
   0  -8   7    0.36    3.30
   0  -8   7    1.89    4.65
   0  -8   8  725.53   38.29
   0  -8   8  733.91   41.83
  -1  -8  -8  159.94   14.74
  -1  -8  -7  190.86   14.31
  -1  -8  -6   63.62    9.53
  -1  -8  -5  208.24   15.46
  -1  -8  -4    6.91    4.05
  -1  -8  -3  123.95   16.60
  -1  -8  -2   56.01    9.87
  -1  -8  -1  261.77   17.22
  -1  -8   0  278.79   17.94
  -1  -8   1  268.44   17.75
  -1  -8   2   39.94    8.05
  -1  -8   3  103.31   14.53
  -1  -8   4    4.92    5.72
  -1  -8   5  184.17   15.21
   1   8  -6   52.47    7.38
  -1  -8   6   49.62    8.21
   1   8  -7  181.20   12.50
  -1  -8   7  173.46   14.70
   1   8  -8  157.26   14.10
  -1  -8   8  137.78   14.60
  -2  -8  -7   31.31    6.24
  -2  -8  -6    1.67    4.18
  -2  -8  -4  209.25   15.14
  -2  -8  -3    6.76    3.69
  -2  -8  -2    1.79    3.38
  -2  -8  -1   19.23    6.45
  -2  -8   0  152.69   12.74
  -2  -8   1   17.14    5.28
  -2  -8   2    3.64    4.03
  -2  -8   3   10.46    4.81
  -2  -8   4  194.68   15.33
  -2  -8   5    6.52    5.17
   2   8  -6    7.78    4.12
  -2  -8   6   15.80    6.69
   2   8  -7   31.64    7.02
  -2  -8   7   31.65    7.58
   2   8  -8   84.12   10.75
  -2  -8   8   82.42   11.69
  -3  -8  -7   20.87    5.91
  -3  -8  -6  320.34   21.58
  -3  -8  -4  351.65   18.02
  -3  -8  -3    4.88    4.87
  -3  -8  -2  378.33   20.43
  -3  -8  -1   25.79    5.67
  -3  -8   0  110.96   10.84
  -3  -8   1   29.60    6.48
  -3  -8   2  360.04   20.92
  -3  -8   3    4.22    4.23
  -3  -8   4  324.06   18.11
  -3  -8   5   16.49    6.62
  -3  -8   6  303.62   23.13
  -3  -8   7   19.11    8.20
  -4  -8  -6  221.48   17.29
  -4  -8  -5   25.51    5.71
  -4  -8  -4   27.92    7.23
  -4  -8  -3   17.17    6.16
  -4  -8  -2  197.28   13.97
  -4  -8   0  602.36   22.66
  -4  -8   1    1.99    3.75
  -4  -8   2  201.64   13.93
  -4  -8   3   15.61    5.66
  -4  -8   4   32.30    7.47
  -4  -8   5   21.98    7.17
  -4  -8   6  222.05   19.69
  -5  -8  -3  214.51   16.98
  -5  -8  -2    4.27    5.63
  -5  -8  -1  147.04   14.35
  -5  -8   0   42.98    7.62
  -5  -8   1  152.45   15.11
  -5  -8   3  190.94   17.10
  -5  -8   4   11.31    6.40
   0   0   0    0.00    0.00
;
_shelx_hkl_checksum              50001
loop_
_space_group_symop_operation_xyz
'x, y, z'
'-x, -y, z+1/2'
'x, -y+1/2, -z'
'-x, y+1/2, -z+1/2'
'-x, -y, -z'
'x, y, -z-1/2'
'-x, y-1/2, z'
'x, -y-1/2, z-1/2'
loop_
_atom_site_label
_atom_site_type_symbol
_atom_site_fract_x
_atom_site_fract_y
_atom_site_fract_z
_atom_site_U_iso_or_equiv
_atom_site_adp_type
_atom_site_occupancy
_atom_site_site_symmetry_order
_atom_site_calc_flag
_atom_site_refinement_flags_posn
_atom_site_refinement_flags_adp
_atom_site_refinement_flags_occupancy
_atom_site_disorder_assembly
_atom_site_disorder_group
Mn1 Mn 0.500000 0.500000 0.000000 0.00704(13) Uani 1 2 d S . P . .
V1 V -0.25605(6) 0.24033(4) 0.13331(3) 0.00623(12) Uani 1 1 d . . . . .
V2 V 0.12044(9) 0.250000 0.000000 0.00716(15) Uani 1 2 d S T P . .
O1 O -0.0274(2) 0.18739(18) 0.09041(12) 0.0103(4) Uani 1 1 d . . . . .
O2 O -0.4235(3) 0.12337(19) 0.11397(12) 0.0115(4) Uani 1 1 d . . . . .
O3 O -0.2304(4) 0.2664(3) 0.250000 0.0121(6) Uani 1 2 d S T P . .
O4 O -0.3188(3) 0.38518(18) 0.08701(13) 0.0117(4) Uani 1 1 d . . . . .
O5 O 0.2597(3) 0.3740(2) 0.03487(14) 0.0134(4) Uani 1 1 d . . . . .
Cs1 Cs 0.22396(3) 0.09246(2) 0.250000 0.01192(9) Uani 1 2 d S T P . .
O1W O 0.2222(7) 0.4123(4) 0.250000 0.0393(11) Uani 1 2 d DS T P . .
H1 H 0.274(6) 0.436(4) 0.2964(17) 0.059 Uiso 1 1 d D U . . .
loop_
_atom_site_aniso_label
_atom_site_aniso_U_11
_atom_site_aniso_U_22
_atom_site_aniso_U_33
_atom_site_aniso_U_23
_atom_site_aniso_U_13
_atom_site_aniso_U_12
Mn1 0.0075(3) 0.0057(3) 0.0079(3) -0.00007(19) -0.0007(2) 0.0003(2)
V1 0.0064(2) 0.0060(2) 0.0063(2) 0.00014(16) -0.00014(16) -0.00014(14)
V2 0.0065(3) 0.0069(3) 0.0080(3) 0.0012(2) 0.000 0.000
O1 0.0089(9) 0.0119(9) 0.0100(9) 0.0008(7) 0.0014(7) 0.0005(7)
O2 0.0114(9) 0.0115(9) 0.0117(9) -0.0035(7) 0.0005(8) -0.0033(7)
O3 0.0155(14) 0.0141(14) 0.0065(14) 0.000 0.000 -0.0028(10)
O4 0.0139(10) 0.0096(9) 0.0115(10) 0.0017(7) -0.0019(8) 0.0026(7)
O5 0.0127(9) 0.0135(10) 0.0141(11) 0.0009(8) -0.0028(8) -0.0041(7)
Cs1 0.01351(14) 0.01136(14) 0.01087(15) 0.000 0.000 0.00218(8)
O1W 0.064(3) 0.025(2) 0.029(2) 0.000 0.000 -0.0147(17)
loop_
_atom_type_symbol
_atom_type_description
_atom_type_scat_dispersion_real
_atom_type_scat_dispersion_imag
_atom_type_scat_source
H H 0.0000 0.0000 'International Tables Vol C Tables 4.2.6.8 and 6.1.1.4'
Cs Cs -0.3680 2.1192 'International Tables Vol C Tables 4.2.6.8 and 6.1.1.4'
Mn Mn 0.3368 0.7283 'International Tables Vol C Tables 4.2.6.8 and 6.1.1.4'
O O 0.0106 0.0060 'International Tables Vol C Tables 4.2.6.8 and 6.1.1.4'
V V 0.3005 0.5294 'International Tables Vol C Tables 4.2.6.8 and 6.1.1.4'
loop_
_geom_angle_atom_site_label_1
_geom_angle_atom_site_label_2
_geom_angle_atom_site_label_3
_geom_angle
_geom_angle_site_symmetry_1
_geom_angle_site_symmetry_3
_geom_angle_publ_flag
O4 Mn1 O4 180.00(11) 5_565 1_655 ?
O4 Mn1 O5 90.53(8) 5_565 . ?
O4 Mn1 O5 89.47(8) 1_655 . ?
O4 Mn1 O5 89.47(8) 5_565 5_665 ?
O4 Mn1 O5 90.53(8) 1_655 5_665 ?
O5 Mn1 O5 180.0 . 5_665 ?
O4 Mn1 O2 87.41(7) 5_565 3_655 ?
O4 Mn1 O2 92.59(7) 1_655 3_655 ?
O5 Mn1 O2 93.12(8) . 3_655 ?
O5 Mn1 O2 86.88(8) 5_665 3_655 ?
O4 Mn1 O2 92.59(7) 5_565 7_565 ?
O4 Mn1 O2 87.41(7) 1_655 7_565 ?
O5 Mn1 O2 86.88(8) . 7_565 ?
O5 Mn1 O2 93.12(8) 5_665 7_565 ?
O2 Mn1 O2 180.00(6) 3_655 7_565 ?
O4 Mn1 Cs1 132.83(5) 5_565 7_665 ?
O4 Mn1 Cs1 47.17(5) 1_655 7_665 ?
O5 Mn1 Cs1 104.45(6) . 7_665 ?
O5 Mn1 Cs1 75.55(6) 5_665 7_665 ?
O2 Mn1 Cs1 134.63(5) 3_655 7_665 ?
O2 Mn1 Cs1 45.37(5) 7_565 7_665 ?
O4 Mn1 Cs1 47.17(5) 5_565 3 ?
O4 Mn1 Cs1 132.83(5) 1_655 3 ?
O5 Mn1 Cs1 75.55(6) . 3 ?
O5 Mn1 Cs1 104.45(6) 5_665 3 ?
O2 Mn1 Cs1 45.37(5) 3_655 3 ?
O2 Mn1 Cs1 134.63(5) 7_565 3 ?
Cs1 Mn1 Cs1 180.0 7_665 3 ?
O4 V1 O2 110.45(10) . . ?
O4 V1 O1 109.45(9) . . ?
O2 V1 O1 110.19(9) . . ?
O4 V1 O3 108.44(11) . . ?
O2 V1 O3 110.03(11) . . ?
O1 V1 O3 108.22(11) . . ?
O4 V1 Cs1 55.35(7) . 7_565 ?
O2 V1 Cs1 137.73(7) . 7_565 ?
O1 V1 Cs1 112.07(6) . 7_565 ?
O3 V1 Cs1 54.72(9) . 7_565 ?
O4 V1 Cs1 135.71(7) . . ?
O2 V1 Cs1 113.21(7) . . ?
O1 V1 Cs1 47.55(6) . . ?
O3 V1 Cs1 62.64(9) . . ?
Cs1 V1 Cs1 94.65(2) 7_565 . ?
O4 V1 Cs1 104.68(7) . 1_455 ?
O2 V1 Cs1 41.16(7) . 1_455 ?
O1 V1 Cs1 142.55(6) . 1_455 ?
O3 V1 Cs1 74.07(8) . 1_455 ?
Cs1 V1 Cs1 99.687(18) 7_565 1_455 ?
Cs1 V1 Cs1 112.72(3) . 1_455 ?
O5 V2 O5 108.63(14) . 3 ?
O5 V2 O1 108.26(9) . 3 ?
O5 V2 O1 110.04(9) 3 3 ?
O5 V2 O1 110.04(9) . . ?
O5 V2 O1 108.26(9) 3 . ?
O1 V2 O1 111.57(12) 3 . ?
O5 V2 Cs1 83.66(8) . . ?
O5 V2 Cs1 84.82(7) 3 . ?
O1 V2 Cs1 155.63(6) 3 . ?
O1 V2 Cs1 44.16(6) . . ?
O5 V2 Cs1 84.82(7) . 3 ?
O5 V2 Cs1 83.66(7) 3 3 ?
O1 V2 Cs1 44.16(6) 3 3 ?
O1 V2 Cs1 155.63(6) . 3 ?
Cs1 V2 Cs1 160.18(2) . 3 ?
V1 O1 V2 132.05(11) . . ?
V1 O1 Cs1 107.45(8) . . ?
V2 O1 Cs1 111.90(8) . . ?
V1 O2 Mn1 134.37(10) . 3_455 ?
V1 O2 Cs1 118.83(9) . 1_455 ?
Mn1 O2 Cs1 105.65(7) 3_455 1_455 ?
V1 O3 V1 159.82(17) . 6_556 ?
V1 O3 Cs1 98.39(9) . 7_565 ?
V1 O3 Cs1 98.39(9) 6_556 7_565 ?
V1 O3 Cs1 90.97(9) . . ?
V1 O3 Cs1 90.97(9) 6_556 . ?
Cs1 O3 Cs1 118.04(8) 7_565 . ?
V1 O4 Mn1 150.84(12) . 1_455 ?
V1 O4 Cs1 100.07(9) . 7_565 ?
Mn1 O4 Cs1 104.15(7) 1_455 7_565 ?
V2 O5 Mn1 143.94(12) . . ?
O1 Cs1 O1 101.40(7) . 6_556 ?
O1 Cs1 O1W 72.28(6) . . ?
O1 Cs1 O1W 72.28(6) 6_556 . ?
O1 Cs1 O2 153.05(5) . 6_656 ?
O1 Cs1 O2 84.10(6) 6_556 6_656 ?
O1W Cs1 O2 84.67(7) . 6_656 ?
O1 Cs1 O2 84.10(6) . 1_655 ?
O1 Cs1 O2 153.05(5) 6_556 1_655 ?
O1W Cs1 O2 84.67(7) . 1_655 ?
O2 Cs1 O2 79.94(7) 6_656 1_655 ?
O1 Cs1 O3 108.05(4) . 7 ?
O1 Cs1 O3 108.04(4) 6_556 7 ?
O1W Cs1 O3 179.44(10) . 7 ?
O2 Cs1 O3 94.90(5) 6_656 7 ?
O2 Cs1 O3 94.90(5) 1_655 7 ?
O1 Cs1 O4 73.67(5) . 7 ?
O1 Cs1 O4 152.01(5) 6_556 7 ?
O1W Cs1 O4 128.95(4) . 7 ?
O2 Cs1 O4 113.04(5) 6_656 7 ?
O2 Cs1 O4 54.90(5) 1_655 7 ?
O3 Cs1 O4 50.91(4) 7 7 ?
O1 Cs1 O4 152.01(5) . 4_545 ?
O1 Cs1 O4 73.67(5) 6_556 4_545 ?
O1W Cs1 O4 128.95(4) . 4_545 ?
O2 Cs1 O4 54.90(5) 6_656 4_545 ?
O2 Cs1 O4 113.04(5) 1_655 4_545 ?
O3 Cs1 O4 50.91(4) 7 4_545 ?
O4 Cs1 O4 97.56(7) 7 4_545 ?
O1 Cs1 O1W 70.75(5) . 7 ?
O1 Cs1 O1W 70.75(5) 6_556 7 ?
O1W Cs1 O1W 119.91(8) . 7 ?
O2 Cs1 O1W 134.89(4) 6_656 7 ?
O2 Cs1 O1W 134.89(4) 1_655 7 ?
O3 Cs1 O1W 60.65(8) 7 7 ?
O4 Cs1 O1W 81.81(5) 7 7 ?
O4 Cs1 O1W 81.81(5) 4_545 7 ?
O1 Cs1 O3 50.70(4) . . ?
O1 Cs1 O3 50.70(4) 6_556 . ?
O1W Cs1 O3 60.95(10) . . ?
O2 Cs1 O3 128.31(5) 6_656 . ?
O2 Cs1 O3 128.31(5) 1_655 . ?
O3 Cs1 O3 119.62(5) 7 . ?
O4 Cs1 O3 118.55(4) 7 . ?
O4 Cs1 O3 118.55(4) 4_545 . ?
O1W Cs1 O3 58.96(8) 7 . ?
O1 Cs1 V1 87.28(4) . 7 ?
O1 Cs1 V1 130.46(3) 6_556 7 ?
O1W Cs1 V1 153.059(18) . 7 ?
O2 Cs1 V1 109.36(4) 6_656 7 ?
O2 Cs1 V1 75.72(4) 1_655 7 ?
O3 Cs1 V1 26.881(15) 7 7 ?
O4 Cs1 V1 24.58(3) 7 7 ?
O4 Cs1 V1 76.56(4) 4_545 7 ?
O1W Cs1 V1 66.51(5) 7 7 ?
O3 Cs1 V1 118.64(4) . 7 ?
O1 Cs1 V1 130.46(3) . 4_545 ?
O1 Cs1 V1 87.28(4) 6_556 4_545 ?
O1W Cs1 V1 153.059(18) . 4_545 ?
O2 Cs1 V1 75.72(4) 6_656 4_545 ?
O2 Cs1 V1 109.36(4) 1_655 4_545 ?
O3 Cs1 V1 26.881(15) 7 4_545 ?
O4 Cs1 V1 76.56(4) 7 4_545 ?
O4 Cs1 V1 24.58(3) 4_545 4_545 ?
O1W Cs1 V1 66.51(5) 7 4_545 ?
O3 Cs1 V1 118.64(4) . 4_545 ?
V1 Cs1 V1 53.48(3) 7 4_545 ?
Cs1 O1W Cs1 120.36(13) . 7_565 ?
Cs1 O1W H1 106(3) . . ?
Cs1 O1W H1 103(3) 7_565 . ?
Cs1 O1W H1 106(3) . 6_556 ?
Cs1 O1W H1 103(3) 7_565 6_556 ?
H1 O1W H1 118(7) . 6_556 ?
loop_
_geom_bond_atom_site_label_1
_geom_bond_atom_site_label_2
_geom_bond_distance
_geom_bond_site_symmetry_2
_geom_bond_publ_flag
Mn1 O4 2.1325(19) 5_565 ?
Mn1 O4 2.1325(19) 1_655 ?
Mn1 O5 2.133(2) . ?
Mn1 O5 2.133(2) 5_665 ?
Mn1 O2 2.1677(19) 3_655 ?
Mn1 O2 2.1677(19) 7_565 ?
Mn1 Cs1 4.3091(14) 7_665 ?
Mn1 Cs1 4.3091(14) 3 ?
V1 O4 1.6480(19) . ?
V1 O2 1.6555(19) . ?
V1 O1 1.7765(19) . ?
V1 O3 1.7827(9) . ?
V1 Cs1 3.9007(14) 7_565 ?
V1 Cs1 4.0104(13) . ?
V1 Cs1 4.2391(14) 1_455 ?
V2 O5 1.640(2) . ?
V2 O5 1.640(2) 3 ?
V2 O1 1.8064(18) 3 ?
V2 O1 1.8064(18) . ?
V2 Cs1 4.1309(14) . ?
V2 Cs1 4.1309(14) 3 ?
O1 Cs1 3.102(2) . ?
O2 Cs1 3.185(2) 1_455 ?
O3 Cs1 3.219(3) 7_565 ?
O3 Cs1 3.562(3) . ?
O4 Cs1 3.259(2) 7_565 ?
Cs1 O1W 3.158(4) . ?
Cs1 O1W 3.543(5) 7 ?
O1W H1 0.815(10) . ?
O1W H1 0.815(10) 6_556 ?
loop_
_geom_hbond_atom_site_label_D
_geom_hbond_atom_site_label_H
_geom_hbond_atom_site_label_A
_geom_hbond_distance_DH
_geom_hbond_distance_HA
_geom_hbond_distance_DA
_geom_hbond_angle_DHA
_geom_hbond_site_symmetry_A
_geom_hbond_publ_flag
O1W H1 O2 0.815(10) 2.51(2) 3.231(3) 148(4) 4 yes
O1W H1 O5 0.815(10) 2.61(3) 3.268(2) 139(4) 6_556 yes
loop_
_geom_torsion_atom_site_label_1
_geom_torsion_atom_site_label_2
_geom_torsion_atom_site_label_3
_geom_torsion_atom_site_label_4
_geom_torsion
_geom_torsion_site_symmetry_1
_geom_torsion_site_symmetry_2
_geom_torsion_site_symmetry_3
_geom_torsion_site_symmetry_4
_geom_torsion_publ_flag
O4 V1 O1 V2 -9.22(17) . . . . ?
O2 V1 O1 V2 112.43(14) . . . . ?
O3 V1 O1 V2 -127.22(15) . . . . ?
Cs1 V1 O1 V2 -68.73(14) 7_565 . . . ?
Cs1 V1 O1 V2 -144.11(17) . . . . ?
Cs1 V1 O1 V2 145.38(8) 1_455 . . . ?
O4 V1 O1 Cs1 134.89(8) . . . . ?
O2 V1 O1 Cs1 -103.46(9) . . . . ?
O3 V1 O1 Cs1 16.89(12) . . . . ?
Cs1 V1 O1 Cs1 75.39(7) 7_565 . . . ?
Cs1 V1 O1 Cs1 -70.51(11) 1_455 . . . ?
O5 V2 O1 V1 85.92(15) . . . . ?
O5 V2 O1 V1 -155.50(13) 3 . . . ?
O1 V2 O1 V1 -34.27(10) 3 . . . ?
Cs1 V2 O1 V1 142.94(18) . . . . ?
Cs1 V2 O1 V1 -39.0(2) 3 . . . ?
O5 V2 O1 Cs1 -57.02(11) . . . . ?
O5 V2 O1 Cs1 61.56(10) 3 . . . ?
O1 V2 O1 Cs1 -177.21(10) 3 . . . ?
Cs1 V2 O1 Cs1 178.08(7) 3 . . . ?
O4 V1 O2 Mn1 76.68(17) . . . 3_455 ?
O1 V1 O2 Mn1 -44.37(17) . . . 3_455 ?
O3 V1 O2 Mn1 -163.63(15) . . . 3_455 ?
Cs1 V1 O2 Mn1 137.22(10) 7_565 . . 3_455 ?
Cs1 V1 O2 Mn1 -95.70(14) . . . 3_455 ?
Cs1 V1 O2 Mn1 165.8(2) 1_455 . . 3_455 ?
O4 V1 O2 Cs1 -89.11(11) . . . 1_455 ?
O1 V1 O2 Cs1 149.84(9) . . . 1_455 ?
O3 V1 O2 Cs1 30.58(14) . . . 1_455 ?
Cs1 V1 O2 Cs1 -28.57(15) 7_565 . . 1_455 ?
Cs1 V1 O2 Cs1 98.50(8) . . . 1_455 ?
O4 V1 O3 V1 131.9(5) . . . 6_556 ?
O2 V1 O3 V1 11.0(5) . . . 6_556 ?
O1 V1 O3 V1 -109.4(5) . . . 6_556 ?
Cs1 V1 O3 V1 146.0(5) 7_565 . . 6_556 ?
Cs1 V1 O3 V1 -95.4(5) . . . 6_556 ?
Cs1 V1 O3 V1 31.4(5) 1_455 . . 6_556 ?
O4 V1 O3 Cs1 -14.07(11) . . . 7_565 ?
O2 V1 O3 Cs1 -134.98(9) . . . 7_565 ?
O1 V1 O3 Cs1 104.57(9) . . . 7_565 ?
Cs1 V1 O3 Cs1 118.54(9) . . . 7_565 ?
Cs1 V1 O3 Cs1 -114.60(7) 1_455 . . 7_565 ?
O4 V1 O3 Cs1 -132.61(8) . . . . ?
O2 V1 O3 Cs1 106.48(9) . . . . ?
O1 V1 O3 Cs1 -13.97(10) . . . . ?
Cs1 V1 O3 Cs1 -118.54(9) 7_565 . . . ?
Cs1 V1 O3 Cs1 126.86(7) 1_455 . . . ?
O2 V1 O4 Mn1 -11.3(3) . . . 1_455 ?
O1 V1 O4 Mn1 110.2(2) . . . 1_455 ?
O3 V1 O4 Mn1 -131.9(2) . . . 1_455 ?
Cs1 V1 O4 Mn1 -145.9(3) 7_565 . . 1_455 ?
Cs1 V1 O4 Mn1 158.68(16) . . . 1_455 ?
Cs1 V1 O4 Mn1 -54.1(2) 1_455 . . 1_455 ?
O2 V1 O4 Cs1 134.61(8) . . . 7_565 ?
O1 V1 O4 Cs1 -103.90(8) . . . 7_565 ?
O3 V1 O4 Cs1 13.96(11) . . . 7_565 ?
Cs1 V1 O4 Cs1 -55.44(10) . . . 7_565 ?
Cs1 V1 O4 Cs1 91.74(5) 1_455 . . 7_565 ?
O5 V2 O5 Mn1 50.75(16) 3 . . . ?
O1 V2 O5 Mn1 -68.7(2) 3 . . . ?
O1 V2 O5 Mn1 169.10(17) . . . . ?
Cs1 V2 O5 Mn1 133.08(19) . . . . ?
Cs1 V2 O5 Mn1 -30.76(18) 3 . . . ?
