#------------------------------------------------------------------------------
#$Date: 2021-09-06 13:23:59 +0300 (Mon, 06 Sep 2021) $
#$Revision: 268648 $
#$URL: file:///home/coder/svn-repositories/cod/cif/7/24/32/7243259.cif $
#------------------------------------------------------------------------------
#
# This file is available in the Crystallography Open Database (COD),
# http://www.crystallography.net/
#
# All data on this site have been placed in the public domain by the
# contributors.
#
data_7243259
loop_
_publ_author_name
'Yamaguchi, Ryota'
'Tanaka, Rika'
'Maetani, Mayu'
'Tabe, Hiroyasu'
'Yamada, Yusuke'
_publ_section_title
;
 Efficient capturing of hydrogen peroxide in dilute aqueous solution by
 co-crystallization with amino acids
;
_journal_issue                   32
_journal_name_full               CrystEngComm
_journal_page_first              5456
_journal_page_last               5462
_journal_paper_doi               10.1039/D1CE00688F
_journal_volume                  23
_journal_year                    2021
_chemical_formula_moiety         'C4 H8 N2 O3, H2 O2'
_chemical_formula_sum            'C4 H10 N2 O5'
_chemical_formula_weight         166.14
_chemical_name_systematic        DL-Asn.H2O2
_space_group_crystal_system      triclinic
_space_group_IT_number           2
_space_group_name_Hall           '-P 1'
_space_group_name_H-M_alt        'P -1'
_audit_block_doi                 10.5517/ccdc.csd.cc27y8n4
_audit_creation_date             2020-2-14
_audit_creation_method           SHELXL-2018/3
_audit_update_record
;
2021-05-14 deposited with the CCDC.	2021-07-21 downloaded from the CCDC.
;
_cell_angle_alpha                90.222(5)
_cell_angle_beta                 90.124(3)
_cell_angle_gamma                101.127(6)
_cell_formula_units_Z            2
_cell_length_a                   4.7744(4)
_cell_length_b                   7.3961(7)
_cell_length_c                   9.8715(6)
_cell_measurement_reflns_used    983
_cell_measurement_temperature    200(2)
_cell_measurement_theta_max      27.4778
_cell_measurement_theta_min      2.0631
_cell_volume                     342.03(5)
_computing_cell_refinement       'CrystalClear (Rigaku Inc., 2008)'
_computing_data_collection       'CrystalClear (Rigaku Inc., 2008)'
_computing_data_reduction        'CrystalClear (Rigaku Inc., 2008)'
_computing_molecular_graphics    'Ortep for Windows (Farrugia, 2012)'
_computing_publication_material  'WinGX publication routines (Farrugia, 2012)'
_computing_structure_refinement  'SHELXL-2018/3 (Sheldrick, 2018)'
_computing_structure_solution    SIR97
_diffrn_ambient_temperature      200(2)
_diffrn_detector_area_resol_mean 7.32
_diffrn_measured_fraction_theta_full 0.987
_diffrn_measured_fraction_theta_max 0.983
_diffrn_measurement_details
;
scan:
	Number of images: 600
	           Slice: -80.0000 - 100.000
	     Image width: 0.3000
	        Exp time: 1.0000
	   Rotation axis: Phi
	           Omega: 0.0000
	             Chi: 0.0000
	             Phi: 0.0000
	             XTD: 44.9514
	          2theta: 20.0226
scan:
	Number of images: 160
	           Slice: -20.0000 - 28.0000
	     Image width: 0.3000
	        Exp time: 1.0000
	   Rotation axis: Omega
	           Omega: 0.0000
	             Chi: 90.0000
	             Phi: 0.0000
	             XTD: 44.9514
	          2theta: 20.0226
scan:
	Number of images: 160
	           Slice: -20.0000 - 28.0000
	     Image width: 0.3000
	        Exp time: 1.0000
	   Rotation axis: Omega
	           Omega: 0.0000
	             Chi: 90.0000
	             Phi: 90.0000
	             XTD: 44.9514
	          2theta: 20.0226
scan:
	Number of images: 160
	           Slice: -20.0000 - 28.0000
	     Image width: 0.3000
	        Exp time: 1.0000
	   Rotation axis: Omega
	           Omega: 0.0000
	             Chi: 90.0000
	             Phi: 180.0000
	             XTD: 44.9514
	          2theta: 20.0226
scan:
	Number of images: 160
	           Slice: -20.0000 - 28.0000
	     Image width: 0.3000
	        Exp time: 1.0000
	   Rotation axis: Omega
	           Omega: 0.0000
	             Chi: 90.0000
	             Phi: 270.0000
	             XTD: 44.9514
	          2theta: 20.0226
scan:
	Number of images: 140
	           Slice: -20.0000 - 22.0000
	     Image width: 0.3000
	        Exp time: 1.0000
	   Rotation axis: Omega
	           Omega: 0.0000
	             Chi: 45.0000
	             Phi: 0.0000
	             XTD: 44.9514
	          2theta: 20.0226
scan:
	Number of images: 140
	           Slice: -20.0000 - 22.0000
	     Image width: 0.3000
	        Exp time: 1.0000
	   Rotation axis: Omega
	           Omega: 0.0000
	             Chi: 45.0000
	             Phi: 90.0000
	             XTD: 44.9514
	          2theta: 20.0226
scan:
	Number of images: 140
	           Slice: -20.0000 - 22.0000
	     Image width: 0.3000
	        Exp time: 1.0000
	   Rotation axis: Omega
	           Omega: 0.0000
	             Chi: 45.0000
	             Phi: 180.0000
	             XTD: 44.9514
	          2theta: 20.0226
scan:
	Number of images: 140
	           Slice: -20.0000 - 22.0000
	     Image width: 0.3000
	        Exp time: 1.0000
	   Rotation axis: Omega
	           Omega: 0.0000
	             Chi: 45.0000
	             Phi: 270.0000
	             XTD: 44.9514
	          2theta: 20.0226

;
_diffrn_measurement_device       'Mercury CCD (2x2 bin mode)'
_diffrn_measurement_device_details 'AFC7: Eulerian 3-circle'
_diffrn_measurement_device_type  'Rigaku/MSC Mercury CCD'
_diffrn_measurement_method       '\w and \f'
_diffrn_radiation_detector       CCD
_diffrn_radiation_monochromator  'Graphite Monochromator'
_diffrn_radiation_source         'Rotating Anode'
_diffrn_radiation_type           MoK\a
_diffrn_radiation_wavelength     0.71070
_diffrn_reflns_av_R_equivalents  0.0196
_diffrn_reflns_av_unetI/netI     0.0262
_diffrn_reflns_Laue_measured_fraction_full 0.987
_diffrn_reflns_Laue_measured_fraction_max 0.983
_diffrn_reflns_limit_h_max       6
_diffrn_reflns_limit_h_min       -6
_diffrn_reflns_limit_k_max       9
_diffrn_reflns_limit_k_min       -6
_diffrn_reflns_limit_l_max       12
_diffrn_reflns_limit_l_min       -11
_diffrn_reflns_number            3934
_diffrn_reflns_point_group_measured_fraction_full 0.987
_diffrn_reflns_point_group_measured_fraction_max 0.983
_diffrn_reflns_reduction_process 'Lp corrections applied'
_diffrn_reflns_theta_full        25.242
_diffrn_reflns_theta_max         27.478
_diffrn_reflns_theta_min         2.063
_diffrn_source_current           150.0000
_diffrn_source_power             7.5000
_diffrn_source_voltage           50.0000
_exptl_absorpt_coefficient_mu    0.148
_exptl_absorpt_correction_T_max  1.0000
_exptl_absorpt_correction_T_min  0.8797
_exptl_absorpt_correction_type   multi-scan
_exptl_absorpt_process_details   'REQAB (Rigaku, 1998)'
_exptl_crystal_colour            Colorless
_exptl_crystal_density_diffrn    1.613
_exptl_crystal_density_method    'not measured'
_exptl_crystal_description       Block
_exptl_crystal_F_000             176
_exptl_crystal_preparation
'mounted on the CryoLoop with Palaton oil and placed in N2 stream at 200(2) K'
_exptl_crystal_size_max          0.350
_exptl_crystal_size_mid          0.250
_exptl_crystal_size_min          0.210
_refine_diff_density_max         0.311
_refine_diff_density_min         -0.230
_refine_diff_density_rms         0.046
_refine_ls_extinction_method     none
_refine_ls_goodness_of_fit_ref   1.045
_refine_ls_hydrogen_treatment    refall
_refine_ls_matrix_type           full
_refine_ls_number_parameters     140
_refine_ls_number_reflns         1544
_refine_ls_number_restraints     0
_refine_ls_restrained_S_all      1.045
_refine_ls_R_factor_all          0.0430
_refine_ls_R_factor_gt           0.0371
_refine_ls_shift/su_max          0.000
_refine_ls_shift/su_mean         0.000
_refine_ls_structure_factor_coef Fsqd
_refine_ls_weighting_details
'w=1/[\s^2^(Fo^2^)+(0.0408P)^2^+0.1501P] where P=(Fo^2^+2Fc^2^)/3'
_refine_ls_weighting_scheme      calc
_refine_ls_wR_factor_gt          0.0865
_refine_ls_wR_factor_ref         0.0919
_reflns_number_gt                1349
_reflns_number_total             1544
_reflns_threshold_expression     'I > 2\s(I)'
_cod_data_source_file            d1ce00688f2.cif
_cod_data_source_block           DL-Asparagine_H2O2
_cod_depositor_comments
;
The following automatic conversions were performed:

data item '_exptl_absorpt_correction_type' value 'Multi-scan' was
changed to 'multi-scan' in accordance with the
/home/data/users/saulius/crontab/automatic-downloads/rss-feeds/RSC/lib/dictionaries/cif_core.dic
dictionary named 'cif_core.dic' version 2.4.2 last updated on
2011-04-26.

Automatic conversion script
Id: cif_fix_values 7556 2019-12-06 15:28:31Z antanas 

 Adding full bibliography for 7243257--7243260.cif.
;
_cod_original_cell_volume        342.02(5)
_cod_database_code               7243259
_shelx_shelxl_version_number     2018/3
_shelx_space_group_comment
;
The symmetry employed for this shelxl refinement is uniquely defined
by the following loop, which should always be used as a source of
symmetry information in preference to the above space-group names.
They are only intended as comments.
;
_shelx_estimated_absorpt_t_min   0.950
_shelx_estimated_absorpt_t_max   0.969
_shelx_res_file
;
TITL DL-Asparagine_H2O2
    shelx.res
    created by SHELXL-2018/3 at 09:58:40 on 14-Feb-2020
REM  Yadorkari-X generated
CELL 0.71075 4.7744 7.3961 9.8715 90.2220 90.1242 101.1273
ZERR 2.0 0.0004 0.0007 0.0006 0.0047 0.0034 0.0059
LATT 1
REM  SPGR P-1 triclinic
SFAC C H N O
UNIT 8 20 4 10
SIZE 0.35 0.25 0.21
TEMP -72.8
L.S. 10
FMAP 2
PLAN -10
ACTA
CONF
WPDB -1
BOND$H
MERG 2
OMIT -10.000000 55.000000
HTAB
HTAB N1 O3
EQIV $1 x, y-1, z
HTAB N1 O5_$1
EQIV $2 -x+1, -y+1, -z+1
HTAB N1 O5_$2
EQIV $3 x+1, y, z
HTAB N1 O3_$3
EQIV $4 x+1, y-1, z
HTAB N1 O4_$4
HTAB C3 O3_$3
EQIV $5 -x, -y, -z+2
HTAB N2 O3_$5
EQIV $6 -x+1, -y+1, -z+2
HTAB N2 O1_$6
EQIV $7 -x, -y+1, -z+1
HTAB O4 O2_$7
HTAB O5 O1
LIST 4
WGHT    0.040800    0.150100
FVAR      12.80914
C1    1    0.420068    0.403984    0.688178    11.00000    0.01409    0.01939 =
         0.01764    0.00220    0.00065    0.00090
O1    4    0.363280    0.541788    0.750676    11.00000    0.02204    0.02230 =
         0.02463   -0.00227   -0.00371    0.00777
O2    4    0.296847    0.328995    0.586715    11.00000    0.02866    0.03339 =
         0.02301   -0.00593   -0.00978    0.00798
C2    1    0.669638    0.326179    0.748041    11.00000    0.01331    0.01746 =
         0.01893   -0.00006    0.00034    0.00229
H2A   2    0.840845    0.412191    0.730148    11.00000    0.02393
N1    3    0.687672    0.150443    0.676735    11.00000    0.01868    0.02120 =
         0.02062   -0.00009    0.00287    0.00523
H1NA  2    0.522392    0.064157    0.687307    11.00000    0.04343
H1NB  2    0.704952    0.173606    0.581592    11.00000    0.03723
H1NC  2    0.840604    0.109133    0.704967    11.00000    0.04074
C3    1    0.646653    0.297232    0.900242    11.00000    0.01515    0.02038 =
         0.01779    0.00020   -0.00222    0.00298
H3A   2    0.686726    0.415325    0.947394    11.00000    0.02282
H3B   2    0.794301    0.233874    0.932121    11.00000    0.03460
C4    1    0.361098    0.185973    0.942849    11.00000    0.01659    0.01643 =
         0.01815    0.00134   -0.00118    0.00464
O3    4    0.209623    0.085296    0.858830    11.00000    0.01973    0.02556 =
         0.01879   -0.00353    0.00069   -0.00209
N2    3    0.286041    0.200023    1.070939    11.00000    0.02159    0.02478 =
         0.01733   -0.00124    0.00074   -0.00077
H2NA  2    0.121419    0.132489    1.098747    11.00000    0.03738
H2NB  2    0.398131    0.281113    1.129293    11.00000    0.03286
O4    4   -0.058669    0.817356    0.642975    11.00000    0.02030    0.03866 =
         0.02332   -0.00931   -0.00111    0.00935
H4O   2   -0.144815    0.758574    0.569568    11.00000    0.04866
O5    4    0.239791    0.816046    0.610626    11.00000    0.01914    0.02418 =
         0.02408    0.00179    0.00201    0.00512
H5O   2    0.265103    0.710849    0.658361    11.00000    0.04207
HKLF 4




REM  DL-Asparagine_H2O2
REM wR2 = 0.0919, GooF = S = 1.045, Restrained GooF = 1.045 for all data
REM R1 = 0.0371 for 1349 Fo > 4sig(Fo) and 0.0430 for all 1544 data
REM 140 parameters refined using 0 restraints

END

WGHT      0.0399      0.1514

REM Instructions for potential hydrogen bonds
HTAB N1 O3
HTAB N1 O5_$1
HTAB N1 O5_$2
HTAB N1 O3_$3
HTAB N1 O4_$4
HTAB C3 O3_$3
HTAB N2 O3_$5
HTAB N2 O1_$6
HTAB O4 O2_$7
HTAB O5 O1

REM Highest difference peak  0.311,  deepest hole -0.230,  1-sigma level  0.046
Q1    1   0.4972  0.2440  0.9190  11.00000  0.05    0.31
Q2    1   0.5437  0.3633  0.7203  11.00000  0.05    0.29
Q3    1   0.6612  0.3198  0.8215  11.00000  0.05    0.24
Q4    1   0.2050  0.5595  0.6942  11.00000  0.05    0.16
Q5    1   0.3581  0.7017  0.8093  11.00000  0.05    0.16
Q6    1   0.7854  0.5856  0.9100  11.00000  0.05    0.15
Q7    1   0.4933  0.0196  0.9356  11.00000  0.05    0.15
Q8    1   0.5424  0.5992  0.7989  11.00000  0.05    0.15
Q9    1   0.6683  0.2575  0.7228  11.00000  0.05    0.14
Q10   1   0.2175  0.1327  0.7379  11.00000  0.05    0.14
;
_shelx_res_checksum              74380
_shelx_hkl_file
;
   0   0   1 1039.48   39.10
   0   0   247061.72  616.12
   0   0   247181.87  570.84
   0   0  -247729.70  575.45
   0   0  -246712.13  577.19
   0   0   246809.30  578.54
   0   0   3150333.9 1644.33
   0   0   4118598.4 1483.92
   0   0   4120428.6 1408.31
   0   0  -4124025.1 1462.19
   0   0   514212.42  369.79
   0   0   513294.80  307.18
   0   0  -513401.68  306.88
   0   0   652221.36  774.36
   0   0   7 1422.41  474.60
   0   0   8  919.89  252.96
   0   0   9 2399.33  574.84
   0   0  10 2831.08  624.34
   0   0  11 5076.73 1277.88
   0   0  12 5826.34  775.50
   0  -1  12  378.87  190.79
   0  -1  11   50.98   64.28
   0  -1  1020041.40 1180.31
   0  -1   9 1552.40  365.66
   0  -1   8 6130.83  342.80
   0  -1   7 9699.84  370.49
   0  -1   6151373.0 1316.92
   0   1  -6149796.9 1200.11
   0   1  -6150981.4 1003.31
   0  -1   514045.49  364.30
   0   1  -514411.75  345.38
   0   1  -513765.25  270.64
   0  -1   3 3611.42  148.93
   0   1  -3 3672.98  151.78
   0   1  -3 3405.90   98.02
   0  -1   3 3487.52   85.50
   0  -1   3 3477.84  151.52
   0   1  -3 3373.37  169.90
   0  -1   3 3468.79  104.93
   0  -1   2 1149.99   71.98
   0   1  -2 1182.68   74.17
   0   1  -2 1057.96   71.98
   0  -1   2 1199.74  132.81
   0  -1   2 1403.88  189.06
   0   1  -2 1374.80  256.29
   0  -1   2 1215.85   69.33
   0  -1   112025.00  199.20
   0   1  -111581.03  195.29
   0   1  -112139.17  201.33
   0  -1   111851.09  196.62
   0   1  -111604.24  195.22
   0  -1   112078.88  222.85
   0   1  -111850.02  222.33
   0  -1   0 1781.86   49.28
   0  -1   0 1884.17   74.54
   0   1   0 1747.25   71.35
   0  -1   0 1779.16   65.94
   0   1   0 1704.60   92.06
   0  -1   0 1716.70   66.05
   0  -1   0 1926.30   76.92
   0   1   0 1881.94  103.92
   0  -1  -3 3169.37  136.69
   0   1   3 3461.78  238.72
   0  -1  -3 3452.95  109.46
   0  -1  -3 2968.85  134.29
   0   1   487490.54 1167.07
   0  -1  -490175.43 1032.48
   0   1   488700.58 1060.78
   0  -1  -486321.72 1147.20
   0   1   5 6507.19  312.71
   0  -1  -5 6463.45  148.46
   0   1   5 6479.30  273.45
   0   1   6  892.11  162.22
   0   1   6  830.53  143.14
   0  -1  -6  660.07  136.40
   0   1   6  864.57  176.87
   0   1   7  155.86   38.60
   0   1   7  125.44   29.83
   0  -1  -7   54.44   17.86
   0   1   8 2206.77  476.30
   0   1   8 1753.55   58.98
   0   1   910458.91  675.00
   0   1  10 7837.23  598.81
   0   1  11 1139.35  284.13
   0   1  12 5822.70  627.20
   0  -2  12   73.61   97.68
   0  -2  11   40.94   51.22
   0  -2  10 6190.25  673.94
   0  -2   9  778.06  140.00
   0  -2   8 1951.66  184.78
   0   2  -8 1438.33  317.06
   0  -2   7  135.14   68.86
   0   2  -7    3.83   43.85
   0  -2   654465.28  809.58
   0   2  -653131.71  786.38
   0   2  -5  593.60   84.23
   0   2  -5  767.24   53.09
   0   2  -5  686.47  212.55
   0  -2   5  795.02  145.19
   0   2  -462739.22  713.11
   0  -2   462269.21  491.56
   0   2  -462679.04  740.43
   0  -2   463053.32  401.27
   0  -2   3  466.20   58.94
   0   2  -3  443.33   58.66
   0   2  -3  553.01  150.14
   0  -2   3  447.95  133.85
   0   2  -3  530.52  105.45
   0  -2   3  506.43   30.62
   0  -2   132028.28  440.04
   0   2  -131712.49  435.14
   0  -2   132557.50  505.11
   0  -2   132943.22  500.94
   0   2  -132449.14  512.32
   0  -2  -1 9051.04  246.45
   0   2   1 8651.65  266.59
   0  -2  -1 8974.49  262.69
   0   2   1 9042.73  238.86
   0  -2  -1 9004.60  230.04
   0   2   1 9249.81  233.71
   0  -2  -2 1455.85  139.44
   0   2   2 1403.76   91.85
   0  -2  -2 1222.00   84.22
   0  -2  -2 1292.67   84.95
   0  -2  -2 1282.40  164.91
   0  -2  -3189308.9 2115.68
   0   2   3188680.6 2112.38
   0  -2  -3187256.3 2088.19
   0   2   480202.07  788.06
   0  -2  -478255.53  672.16
   0   2   510572.07  326.71
   0   2   511293.41  261.38
   0  -2  -510727.17  254.59
   0   2   6   14.49   31.90
   0  -2  -6    9.23   19.42
   0   2   6    9.19   15.62
   0   2   770213.01 1354.80
   0  -2  -771950.74 1174.78
   0   2   772300.70 1174.86
   0   2   8 4047.83  280.59
   0   2   8 3891.24  184.00
   0   2   911389.41  663.05
   0   2  10  407.70  116.64
   0   2  11 2892.80  672.13
   0   2  12 2796.92  836.98
   0  -3  12 7669.07 1759.88
   0  -3  11   42.14  116.54
   0  -3  10 1080.92  333.93
   0  -3   9 5422.01  331.83
   0   3  -9 5262.07 1079.45
   0  -3   8  413.06   87.57
   0   3  -8  211.87   56.50
   0  -3   7 4630.75  276.12
   0   3  -7 4724.02  551.13
   0   3  -6   21.45   33.62
   0   3  -6   97.98   35.13
   0  -3   6   32.48   19.34
   0   3  -6   77.58   47.46
   0   3  -539413.26  651.91
   0   3  -539800.10  507.73
   0  -3   539897.66  527.40
   0   3  -538319.19  714.64
   0  -3   539567.33  312.19
   0   3  -4  699.53   86.41
   0   3  -4  851.16  187.01
   0  -3   4  630.94  172.37
   0   3  -4  997.94  172.56
   0  -3   4  848.71  114.39
   0  -3   3126565.7  913.54
   0   3  -3124756.1  916.27
   0   3  -3127376.3  928.04
   0  -3   3127739.6  918.68
   0  -3   2 5220.05  173.56
   0   3  -2 5483.05  178.54
   0   3  -2 5137.88  196.60
   0  -3   2 4984.43  472.04
   0   3  -2 5101.42  399.70
   0  -3   130288.74  455.41
   0  -3   129077.91  560.43
   0   3  -129429.57  538.21
   0   3  -129560.88  537.82
   0  -3   128729.62  527.46
   0   3  -130940.66  559.49
   0  -3   0104477.4 1177.41
   0  -3   097834.51 1244.13
   0   3   0101781.0 1284.07
   0   3   0101245.6 1311.43
   0  -3   098909.28 1251.89
   0   3   0102133.5 1289.51
   0  -3   098918.49 1276.94
   0   3   0103503.5 1321.82
   0   3   0102130.5 1102.58
   0  -3  -127710.66  417.11
   0  -3  -126803.50  498.99
   0   3   128531.76  531.88
   0  -3  -126976.89  502.00
   0   3   128315.10  546.57
   0   3   127925.91  597.79
   0  -3  -127783.83  361.39
   0  -3  -2 1955.86  194.41
   0   3   2 1933.09  102.47
   0   3   2 1918.58  215.92
   0  -3  -2 1590.14  359.18
   0   3   2 1862.55  182.45
   0  -3  -317626.71  341.59
   0   3   317727.41  333.62
   0   3   317384.29  380.46
   0   3   317699.59  400.59
   0   3   423083.05  539.80
   0   3   423006.39  444.31
   0   3   528828.58  600.53
   0   3   530598.31  522.31
   0   3   616366.05 1130.13
   0   3   615596.22  376.92
   0   3   772811.38 1401.78
   0   3   771252.76 1258.61
   0   3   8 2730.42  688.89
   0   3   8 3231.31  418.23
   0   3   9 2102.42  430.97
   0   3  10 9110.27 1354.99
   0   3  11   37.10   72.81
   0   3  12  734.25  314.10
   0  -4  11 6010.77 1091.40
   0  -4  10 1130.90  185.37
   0   4 -10 1041.31  275.45
   0  -4   9 6782.57  373.30
   0   4  -9 6369.06 1308.50
   0  -4   8  584.79  120.39
   0   4  -8  304.48   91.42
   0  -4   731439.25  692.36
   0   4  -731674.38  496.44
   0   4  -731635.66  778.95
   0   4  -615716.11  500.74
   0   4  -616435.13  433.32
   0   4  -616318.45  577.47
   0   4  -5  135.76   61.66
   0   4  -5   72.17   31.10
   0   4  -5  107.00   70.69
   0   4  -432002.35  553.95
   0   4  -433194.95  563.24
   0   4  -432674.17  673.39
   0   4  -351292.33  625.55
   0   4  -351335.72  696.18
   0   4  -349537.19  874.91
   0  -4   210924.21  259.94
   0   4  -210915.59  259.90
   0   4  -210534.62  317.36
   0   4  -210751.15  329.72
   0   4  -210963.25  425.14
   0  -4   156851.81  529.29
   0   4  -155326.02  731.90
   0   4  -155567.62  770.49
   0   4  -154193.89  711.60
   0  -4   024319.14  329.55
   0   4   023456.11  460.47
   0   4   023261.35  480.82
   0   4   023546.11  469.29
   0   4   023261.03  476.02
   0   4   023881.64  448.15
   0   4   023280.80  260.08
   0   4   1190125.2 1317.63
   0   4   1189503.5 1317.24
   0   4   1190838.0 1489.47
   0  -4  -2  303.60   56.40
   0   4   2  444.78   56.05
   0   4   2  711.42  139.96
   0   4   2  412.46   73.81
   0   4   2  313.12   71.31
   0  -4  -2  234.47   58.69
   0  -4  -3 6069.71  498.45
   0   4   3 6605.82  215.87
   0   4   3 6199.59  413.50
   0   4   3 7069.47  280.12
   0   4   3 6750.66  340.38
   0   4   4 1006.23  102.25
   0   4   4  833.30  102.69
   0   4   4  853.33  102.37
   0   4   4  862.69  109.41
   0   4   5  782.92  101.10
   0   4   5  850.86  105.37
   0   4   6 1795.54  156.55
   0   4   6 1869.77  157.88
   0   4   796333.37 1226.49
   0   4   794016.37 1072.21
   0   4   8 2414.41  565.46
   0   4   8 1958.59  498.12
   0   4   9 3871.67  733.08
   0   4   9 3764.89  509.16
   0   4  10 1777.98  363.31
   0   4  11  242.96   94.12
   0  -5  10 1800.75  233.13
   0   5 -10 1403.78  368.37
   0  -5   9 5475.09  355.80
   0   5  -9 5687.54  890.70
   0  -5   8 9141.60  416.94
   0   5  -8 9727.20 1318.50
   0  -5   716065.37  508.89
   0   5  -717063.13  430.95
   0   5  -716214.67  575.19
   0   5  -6  105.89   56.68
   0   5  -6   90.92   39.20
   0   5  -6   75.16   42.91
   0   5  -519351.32  490.59
   0   5  -518079.57  560.46
   0   5  -518431.92  767.43
   0   5  -4   52.99   43.56
   0   5  -4   36.92   19.44
   0   5  -4   21.91   47.69
   0  -5   4   11.74    8.34
   0   5  -310417.61  330.88
   0   5  -310773.42  393.12
   0   5  -310496.86  402.02
   0   5  -311760.72 1069.96
   0  -5   310555.35  537.22
   0  -5   2  233.23   46.72
   0   5  -2  284.01   50.57
   0   5  -2  421.45   83.66
   0   5  -2  373.97   81.90
   0   5  -2  322.54   75.59
   0  -5   2  225.44   37.07
   0  -5   1 3735.52  152.48
   0   5  -1 4177.21  232.17
   0   5  -1 3651.59  756.60
   0   5  -1 4688.77  627.53
   0   5  -1 4096.54  279.42
   0  -5   0 3910.38  150.93
   0   5   0 4021.19  217.32
   0   5   0 3851.62  226.90
   0   5   0 3805.09  490.66
   0   5   0 3887.47  208.09
   0  -5  -126283.61  386.16
   0   5   125578.19  545.97
   0   5   125616.69  583.83
   0   5   126526.51  583.63
   0   5   125637.15  905.36
   0   5   125594.46  505.85
   0  -5  -215674.61  408.55
   0   5   216867.94  615.79
   0   5   217031.89  482.12
   0   5   216808.99  709.04
   0   5   392794.76 1490.85
   0   5   395427.43 1678.73
   0   5   391553.89 1659.54
   0   5   390196.42 1713.07
   0  -5  -392979.39 1394.68
   0   5   4 1734.32  134.07
   0   5   4 1515.67  312.01
   0   5   4 1790.96  172.24
   0   5   4 1751.85  361.96
   0   5   515334.04  417.27
   0   5   515485.98  483.36
   0   5   516348.35  490.41
   0   5   515629.92  977.85
   0   5   6 1932.67  170.11
   0   5   6 2083.64  190.93
   0   5   6 1890.22  174.42
   0   5   6 2016.98  199.02
   0   5   713350.35  457.42
   0   5   713284.61  995.27
   0   5   712756.11  510.63
   0   5   810334.53  434.99
   0   5   8 9794.29  930.00
   0   5   9 2158.13  217.30
   0   5   9 1647.90  360.25
   0   5  10 1713.67  217.70
   0  -6   9 4378.73  323.82
   0   6  -9 3293.55  714.50
   0  -6   8  936.69  154.24
   0   6  -8  442.28  161.28
   0  -6   710747.32  428.42
   0   6  -7 9693.44  552.83
   0   6  -7 9973.22 1366.83
   0   6  -6 7483.06  336.19
   0   6  -6 6842.15  511.32
   0   6  -6 7967.23  890.18
   0   6  -5  165.56   66.76
   0   6  -5   58.99   37.16
   0   6  -5   84.98   54.04
   0   6  -5   56.69   39.92
   0   6  -4  112.76   58.08
   0   6  -4    2.27   41.72
   0   6  -4   54.04   44.47
   0   6  -4   36.26   62.09
   0   6  -355534.90  720.69
   0   6  -355027.64  999.00
   0   6  -354841.75  939.78
   0   6  -354911.05 1126.13
   0   6  -2   90.14   37.42
   0   6  -2  136.48   34.55
   0   6  -2   77.26   54.72
   0   6  -2   35.99   21.62
   0   6  -1 3658.28  246.63
   0   6  -1 3246.91  770.76
   0   6  -1 3627.32  375.28
   0   6  -1 2709.81  301.36
   0   6   024075.12  588.25
   0   6   023195.64  612.41
   0   6   022741.63  718.09
   0   6   022574.35  640.04
   0   6   115475.75  469.07
   0   6   114899.45  495.52
   0   6   115784.87  686.71
   0   6   114877.71  485.39
   0   6   115453.63  439.89
   0   6   2 2840.01  461.95
   0   6   2 2720.78  216.68
   0   6   2 2729.45  429.26
   0   6   2 2219.12  160.85
   0   6   3  106.73  120.22
   0   6   3  320.25   81.95
   0   6   3  253.30   54.38
   0   6   3  330.21   65.24
   0   6   4 2516.81  162.60
   0   6   4 3009.54  709.76
   0   6   4 2918.56  232.28
   0   6   4 2566.87  456.74
   0   6   520988.22  491.16
   0   6   521115.24 1028.36
   0   6   519476.83  591.66
   0   6   519618.87 1387.94
   0   6   613743.69  436.43
   0   6   613597.20  642.95
   0   6   612800.19  693.74
   0   6   613447.33  860.12
   0   6   7 2963.31  235.40
   0   6   7 2825.06  247.20
   0   6   7 2694.91  582.09
   0   6   7 2715.45  566.13
   0   6   8 1705.05  199.46
   0   6   8 1743.77  206.40
   0   6   8 1387.27  286.60
   0   6   8 1539.46  206.58
   0   6   9  129.75  104.82
   0   6   9   84.84   68.41
   0   6   9   35.76   27.98
   0   6   9  108.60   70.34
   0   7  -8  155.42   82.27
   0   7  -7  130.07   90.81
   0   7  -7  -18.08   38.61
   0   7  -6 1241.56  146.98
   0   7  -6  965.92  244.36
   0   7  -6 1500.09  198.01
   0   7  -6 1339.32  263.80
   0   7  -513599.68  437.21
   0   7  -513491.78  521.55
   0   7  -512511.87  520.36
   0   7  -513602.96 1125.73
   0   7  -4  476.57   90.25
   0   7  -4  454.03  163.39
   0   7  -4  568.20  109.78
   0   7  -4  561.73  146.04
   0   7  -3  472.33  155.73
   0   7  -3  624.57  126.04
   0   7  -3  586.02  115.94
   0   7  -2 9147.56  435.15
   0   7  -2 9017.11 1104.55
   0   7  -2 9092.10  712.52
   0   7  -1 1088.16   97.21
   0   7  -1 1041.14  249.00
   0   7  -1 1014.02  244.18
   0   7  -1 1159.27  310.26
   0   7   0  200.21   50.48
   0   7   0   92.63   88.68
   0   7   0  183.42   63.67
   0   7   0  127.92   51.50
   0   7   1 9122.43  396.46
   0   7   1 9401.89  436.15
   0   7   1 9897.92  876.41
   0   7   1 9709.64  778.62
   0   7   2   90.57   58.23
   0   7   2   69.72   55.91
   0   7   2   68.73   77.22
   0   7   2   24.71   51.16
   0   7   3 3213.30  605.93
   0   7   3 3696.74  280.06
   0   7   3 3309.21  623.76
   0   7   3 2914.08  714.14
   0   7   4  -11.96   27.27
   0   7   4   62.25   39.19
   0   7   4   64.78   41.17
   0   7   4   51.82   51.43
   0   7   5  918.95  211.91
   0   7   5  580.32  134.24
   0   7   5  653.49  167.84
   0   7   6  138.62  146.72
   0   7   6  253.02   71.18
   0   7   6  284.96   91.63
   0   7   7   46.94   36.41
   0   7   7   -4.02   41.29
   0   7   7   32.49   63.95
   0   7   8   54.72   48.56
   0   7   8   42.03   53.94
   0   7   8   75.57   79.01
   0   8  -610028.38  467.81
   0   8  -610563.31  529.04
   0   8  -6 9436.79 1778.35
   0   8  -5  763.27  203.20
   0   8  -5  458.61  109.35
   0   8  -5  494.69   95.18
   0   8  -4 2310.37  634.95
   0   8  -4 2060.60  465.06
   0   8  -4 2311.62  748.50
   0   8  -3   26.57   51.61
   0   8  -3   30.49   40.91
   0   8  -3   43.05   38.18
   0   8  -2  148.00   57.74
   0   8  -2   21.47   50.29
   0   8  -2   18.55   72.19
   0   8  -1 2959.61  766.20
   0   8  -1 2945.98  550.71
   0   8  -1 2863.44  585.06
   0   8   031853.94  864.24
   0   8   030839.52 1054.04
   0   8   033122.58  845.41
   0   8   1  239.33   45.35
   0   8   1  150.25   68.37
   0   8   1  126.02   47.53
   0   8   2  401.11  101.79
   0   8   2  317.44  125.98
   0   8   2  586.40  126.82
   0   8   2  564.45  136.90
   0   8   3 3570.90  278.44
   0   8   3 2731.83  533.47
   0   8   3 3361.41  294.89
   0   8   3 2255.96  544.57
   0   8   419733.45 1176.06
   0   8   421089.40  729.75
   0   8   418455.06 1341.79
   0   8   5   32.75   49.22
   0   8   5  106.84   69.41
   0   8   5   40.88   44.02
   0   8   6 4535.52 1229.60
   0   8   6 4152.08 1016.14
   0   8   6 4160.52  888.84
   0   9  -3 2504.61 1138.94
   0   9  -3 2643.19  413.36
   0   9  -3 2719.00  752.32
   0   9  -2 1771.39  595.95
   0   9  -2 1891.48  442.41
   0   9  -2 1745.21  498.58
   0   9  -1 1034.90  317.56
   0   9  -1 1222.26  249.87
   0   9  -1 1092.82  311.10
   0   9   0   93.13   60.41
   0   9   0   26.59   50.12
   0   9   0   28.25   51.54
   0   9   1  488.55  166.49
   0   9   1  461.24  178.14
   0   9   2 6842.23 1652.11
   0   9   3  544.88  130.19
   0   9   3  246.32  174.48
   0   9   3  451.79  128.18
  -1   9   4  870.54  171.69
  -1   9   4  465.46  200.72
  -1   9   4  714.56  152.36
  -1   9   3   67.90   59.07
  -1   9   3   82.19   79.02
  -1   9   3   56.24   55.23
  -1   9   2  666.77  141.75
  -1   9   2  585.57  182.82
  -1   9   1  332.44  136.93
  -1   9   1  255.23  106.25
  -1   9   1  209.00   77.98
  -1   9   0 3884.22 1299.24
  -1   9   0 4126.28  695.47
  -1   9   0 3194.37  985.16
  -1   9  -1 1974.69  604.03
  -1   9  -1 1947.84  446.22
  -1   9  -1 2319.93  574.04
  -1   9  -2  175.69   76.04
  -1   9  -2  362.00  124.99
  -1   9  -2  183.38   68.35
  -1   9  -3   36.65   57.35
  -1   9  -3    2.55   76.15
  -1   9  -3   18.78   32.58
  -1   9  -4 3999.48  334.72
  -1   9  -4 3024.36  677.05
  -1   9  -4 2742.91  628.28
  -1   8   7  192.53   89.71
  -1   8   7  281.67  130.87
  -1   8   7  213.72  100.42
  -1   8   6 1079.49  230.68
  -1   8   6  967.71  219.46
  -1   8   6 1105.81  205.27
  -1   8   5   27.81   43.03
  -1   8   5   46.17   25.58
  -1   8   5    3.55   28.39
  -1   8   4 2190.86  427.27
  -1   8   4 2362.96  656.12
  -1   8   4 2230.22  364.69
  -1   8   3  879.82  235.03
  -1   8   3  702.13  184.25
  -1   8   3  709.02  132.77
  -1   8   2 5956.63  366.99
  -1   8   2 6651.53  625.60
  -1   8   2 6415.06  370.20
  -1   8   2 5609.45  731.55
  -1   8   1  115.35   68.53
  -1   8   1   23.85   40.38
  -1   8   1   46.05   60.00
  -1   8   1   26.90   50.44
  -1   8   0  420.97  153.59
  -1   8   0  616.50  107.17
  -1   8   0  547.74  139.92
  -1   8  -1 3799.83  952.10
  -1   8  -1 3856.07  674.49
  -1   8  -1 3150.95  632.75
  -1   8  -2   55.15   52.36
  -1   8  -2   12.44   42.36
  -1   8  -2   44.14   41.67
  -1   8  -3 2102.36  716.81
  -1   8  -3 2066.90  505.66
  -1   8  -3 2341.63  591.28
  -1   8  -439289.78  935.77
  -1   8  -437999.74 1004.92
  -1   8  -437626.72  964.65
  -1   8  -5   16.28   45.75
  -1   8  -5   28.69   49.70
  -1   8  -5   44.20   66.08
  -1   8  -614249.22  557.33
  -1   8  -613015.11 1348.74
  -1   8  -614374.33  638.00
  -1   8  -7   65.42   63.39
  -1   8  -7   34.82   76.59
  -1   7   8 4137.71 1092.43
  -1   7   8 3496.39  879.68
  -1   7   8 3915.14  713.53
  -1   7   7  398.24  110.47
  -1   7   7  314.86   86.16
  -1   7   7  344.73  114.78
  -1   7   6 7784.28 1572.42
  -1   7   6 7764.41  866.09
  -1   7   6 8912.85  748.86
  -1   7   5   38.18   45.66
  -1   7   5   37.88   45.34
  -1   7   5    7.47   46.50
  -1   7   4   22.40   35.29
  -1   7   4  106.69   52.23
  -1   7   4   15.07   29.91
  -1   7   3  163.65   72.30
  -1   7   3  234.69   66.73
  -1   7   3  221.29   55.35
  -1   7   3  220.04   83.89
  -1   7   220005.30 1097.89
  -1   7   222522.19 1724.39
  -1   7   220658.92  596.91
  -1   7   220381.09  527.03
  -1   7   1 3460.02  258.19
  -1   7   1 3601.71  830.94
  -1   7   1 2971.43  762.01
  -1   7   1 3510.27  540.18
  -1   7   013503.24  501.81
  -1   7   013748.67  724.83
  -1   7   012592.63 1265.02
  -1   7   013483.54  462.51
  -1   7  -1   20.00   32.66
  -1   7  -1   30.83   31.05
  -1   7  -1   60.40   80.79
  -1   7  -216810.29  658.73
  -1   7  -217550.27  675.46
  -1   7  -217579.75  561.62
  -1   7  -216373.66  604.60
  -1   7  -3  226.50   57.41
  -1   7  -3  211.57  100.38
  -1   7  -3  357.64  104.12
  -1   7  -3  127.56   66.33
  -1   7  -4   94.85   73.03
  -1   7  -4  186.85   41.78
  -1   7  -5 6787.32  359.73
  -1   7  -5 6632.80  391.20
  -1   7  -5 6331.37 1429.64
  -1   7  -5 6659.88  328.48
  -1   7  -6 2384.50  211.38
  -1   7  -6 2512.96  258.28
  -1   7  -6 2246.01  520.09
  -1   7  -7 2778.99  225.68
  -1   7  -7 2477.34  260.60
  -1   7  -7 2449.55  501.04
  -1   7  -8 8936.33  504.71
  -1   7  -8 8320.36 1692.93
  -1   6   9 1622.17  210.05
  -1   6   9 2556.75  264.73
  -1   6   8 6465.40  393.38
  -1   6   8 6228.14  690.16
  -1   6   8 6227.33  388.20
  -1   6   7 1810.29  170.93
  -1   6   7 2151.79  222.21
  -1   6   7 1888.98  416.94
  -1   6   7 1960.78  214.68
  -1   6   6 9519.61  331.35
  -1   6   6 9590.81  782.95
  -1   6   610292.41 1174.91
  -1   6   6 9946.79  782.71
  -1   6   532109.96  783.11
  -1   6   532828.44 2121.31
  -1   6   530045.33  965.81
  -1   6   4 3340.53  148.74
  -1   6   4 3812.69  871.02
  -1   6   4 4523.19  575.20
  -1   6   4 3801.48  659.40
  -1   6   4 3183.16  385.19
  -1   6   3  828.21   60.92
  -1   6   3  817.36  166.55
  -1   6   3  706.96  208.03
  -1   6   3  786.28  112.56
  -1   6   2 3795.32  775.99
  -1   6   2 3956.87  639.54
  -1   6   2 4187.25  264.07
  -1   6   2 4024.10  737.89
  -1   6   2 3681.19  438.98
  -1   6   1 2734.34  256.88
  -1   6   1 3243.78  518.68
  -1   6   1 2451.53  483.95
  -1   6   1 2635.76  196.34
  -1   6   1 2460.87  629.32
  -1   6   014910.30  519.80
  -1   6   015669.50  545.05
  -1   6   014764.11  803.30
  -1   6   015319.41  488.53
  -1   6  -1  164.96   77.36
  -1   6  -1  338.88   74.52
  -1   6  -1  318.29   79.01
  -1   6  -1  153.65   45.41
   1  -6   231482.24  556.96
  -1   6  -231102.14  710.00
  -1   6  -230807.41  852.24
  -1   6  -231320.60  872.47
   1  -6   318799.63  347.41
  -1   6  -318661.67  537.09
  -1   6  -319200.73 1044.90
  -1   6  -319557.66 1655.96
  -1   6  -319287.78  469.79
   1  -6   4  958.38  276.39
  -1   6  -4 1301.56  396.65
  -1   6  -4 1506.58  172.13
  -1   6  -4 1409.02  447.95
  -1   6  -4 1329.89  138.68
   1  -6   5  548.16  121.22
  -1   6  -5  748.85  110.62
  -1   6  -5  663.56  125.65
  -1   6  -5  636.32  105.77
   1  -6   613093.47  453.27
  -1   6  -613008.38  441.09
  -1   6  -612994.54  898.94
   1  -6   7 7482.80  498.55
  -1   6  -7 7594.59 1003.68
   1  -6   8  313.63   97.01
  -1   6  -8  538.96  127.78
   1  -6   9  266.69   97.91
   1  -6  10  786.34  266.70
  -1   5  10  113.58   47.72
  -1   5   9 8238.43 1084.83
  -1   5   8 7226.86  839.99
  -1   5   8 7480.52  376.84
  -1   5   7  333.61   73.30
  -1   5   7  397.77   90.78
  -1   5   6 2457.72  471.08
  -1   5   6 2658.66  223.81
  -1   5   6 2948.27  671.04
  -1   5   6 2365.17  203.74
  -1   5   5  111.96   58.89
  -1   5   5   41.02   39.19
  -1   5   5   58.78   64.29
  -1   5   5  114.59   68.46
  -1   5   410180.60  296.34
  -1   5   410330.00  610.13
  -1   5   411942.41  973.31
  -1   5   411158.15  816.29
  -1   5   410114.86  286.86
  -1   5   3 1230.90   81.07
  -1   5   3 1265.90   79.24
  -1   5   3 1204.39  273.09
  -1   5   3 1282.65  342.31
  -1   5   3 1065.45  221.52
  -1   5   2 2640.50   73.67
  -1   5   2 2445.32   70.72
  -1   5   2 2515.51  530.71
  -1   5   2 2781.85  703.70
  -1   5   2 2313.23  181.57
  -1   5   2 2449.39  183.67
  -1   5   2 2359.30  439.65
  -1   5   2 2846.53  361.02
  -1   5   1 3625.58  683.90
  -1   5   1 4052.82  464.42
  -1   5   1 3451.95  600.28
  -1   5   1 3373.36  211.44
  -1   5   1 3387.06  284.64
  -1   5   1 4323.44  497.91
   1  -5  -1 3308.49  151.50
  -1   5   0 1821.70  156.69
  -1   5   0 1763.10  379.73
  -1   5   0 1975.68  394.89
  -1   5   0 1842.03  159.04
  -1   5   0 1990.53  266.40
  -1   5   0 1623.50  197.76
   1  -5   137166.10  243.31
   1  -5   137127.82  245.80
  -1   5  -136727.30  696.29
  -1   5  -136728.86  690.77
  -1   5  -138035.89  726.28
  -1   5  -138157.13  698.85
  -1   5  -138274.04  688.60
  -1   5  -137720.70  568.19
   1  -5   136975.89  504.09
   1  -5   2 8091.26  283.91
   1  -5   2 7859.42  177.36
  -1   5  -2 7913.94  433.86
  -1   5  -2 8361.38  686.41
  -1   5  -2 7565.76  310.83
  -1   5  -2 8790.64  986.72
  -1   5  -2 7665.15  266.25
   1  -5   3   26.89   16.46
   1  -5   3   39.27   22.86
  -1   5  -3    1.13   24.52
  -1   5  -3   43.74   50.96
  -1   5  -3  110.07   46.88
  -1   5  -3   39.64   23.67
  -1   5  -3   30.57   25.38
   1  -5   4 2856.02  408.76
  -1   5  -4 2827.20  191.90
  -1   5  -4 2925.94  220.47
  -1   5  -4 2763.25  190.09
  -1   5  -4 3068.90  601.53
   1  -5   5   21.02   38.17
  -1   5  -5   20.83   27.83
  -1   5  -5   32.64   30.19
  -1   5  -5   36.13   31.23
   1  -5   6 2366.32  601.33
  -1   5  -6 2506.71  175.40
  -1   5  -6 2535.15  681.14
   1  -5   7   21.77   31.03
  -1   5  -7   23.27   52.52
   1  -5   8 4454.16 1112.44
   1  -5   9   -8.71   53.71
   1  -5  10  132.34  111.22
  -1   4  11 6403.86  638.44
  -1   4  10 1338.95  334.60
  -1   4   9   71.61   66.61
  -1   4   8 1914.40  410.80
  -1   4   8 2093.50  159.35
  -1   4   760271.76 1016.64
  -1   4   759265.62  900.72
  -1   4   6 7561.51  694.62
  -1   4   6 7855.74  838.03
  -1   4   5  462.73   95.86
  -1   4   5  512.62  121.54
  -1   4   4 4857.43  483.01
  -1   4   4 4406.78  176.70
  -1   4   4 4917.09  256.32
  -1   4   4 5674.65  489.73
  -1   4   364096.72  548.79
  -1   4   364767.75  867.52
  -1   4   362979.51  891.04
  -1   4   365850.64  827.89
  -1   4   364995.08  801.10
  -1   4   364476.98  488.02
  -1   4   2 6583.51  131.75
  -1   4   2 6831.44  132.57
  -1   4   2 6515.03  345.82
  -1   4   2 6544.35  264.29
  -1   4   2 6319.66  257.59
  -1   4   2 6638.95  486.09
   1  -4  -2 6286.01  458.37
  -1   4   180111.22 1026.81
  -1   4   180717.62  939.08
  -1   4   181565.42  964.04
  -1   4   180236.14  901.68
  -1   4   180988.66  804.37
  -1   4   180509.28  721.81
   1  -4  -179727.28  719.39
  -1   4   014179.21  418.42
  -1   4   013942.52  386.87
  -1   4   014039.35  426.46
  -1   4   014046.82  377.64
  -1   4   014302.60  332.25
  -1   4   014178.21  337.69
  -1   4   014346.52  332.19
   1  -4   014691.58  312.87
   1  -4   176330.70  352.09
   1  -4   175586.42  350.62
  -1   4  -176702.12  888.25
  -1   4  -177289.14  879.40
  -1   4  -175860.65  906.99
  -1   4  -177579.52  879.52
  -1   4  -176945.45  828.57
  -1   4  -177338.78  740.16
   1  -4   177021.33  614.66
   1  -4   2 4185.53  202.72
   1  -4   2 4052.30  126.39
  -1   4  -2 4067.70  203.10
  -1   4  -2 4131.96  217.33
  -1   4  -2 4084.23  204.10
  -1   4  -2 4221.04  428.98
  -1   4  -2 3781.44  178.19
   1  -4   342492.87  512.40
   1  -4   341795.51  490.58
  -1   4  -340875.45  631.11
  -1   4  -341722.15  699.76
  -1   4  -341233.47  635.25
  -1   4  -342132.41  706.37
   1  -4   415199.90  373.57
  -1   4  -416555.59  404.32
  -1   4  -415866.83  393.56
  -1   4  -415302.07  451.36
   1  -4   586079.36 1501.93
  -1   4  -585238.55 1452.54
  -1   4  -582526.77 1412.44
  -1   4  -582963.54 1572.23
   1  -4   6 1374.95  360.51
  -1   4  -6 1228.82  111.25
  -1   4  -6 1079.40  255.25
   1  -4   7 2695.01  639.57
  -1   4  -7 3456.07  178.74
   1  -4   8   19.09   60.11
   1  -4   9  284.37   82.38
   1  -4  10 1774.34  636.56
   1  -4  1113615.71  683.71
  -1   3  12   80.04   48.38
  -1   3  11 3145.05  888.68
  -1   3  10 2820.04  577.49
  -1   3   920703.49  675.79
  -1   3   8   18.09   49.20
  -1   3   712871.04  869.62
  -1   3   712260.06  324.05
  -1   3   612930.43  453.70
  -1   3   614009.94  393.30
  -1   3   613649.54  488.69
  -1   3   5 6904.19  447.96
  -1   3   5 6473.93  353.38
  -1   3   5 6558.82  292.27
  -1   3   414804.51  357.56
  -1   3   414509.31  318.54
  -1   3   415136.09  373.23
  -1   3   415344.79  350.75
  -1   3   415248.01  431.81
  -1   3   371497.97  593.66
  -1   3   370611.45  790.48
  -1   3   369619.10  741.62
  -1   3   370877.45  819.90
  -1   3   244784.66  566.62
  -1   3   244239.60  749.68
  -1   3   245729.57  755.93
  -1   3   244527.33  735.30
  -1   3   244678.14  694.83
   1  -3  -245516.39  736.82
  -1   3   244363.00  891.18
  -1   3   156874.95  588.63
  -1   3   158002.55  599.75
  -1   3   158884.31  889.67
  -1   3   158717.55  896.70
  -1   3   157367.20  877.16
  -1   3   158377.10  882.54
  -1   3   158413.16  809.90
   1  -3  -158124.13  755.98
  -1   3   157678.80  771.86
   1  -3  -158879.91  809.59
   1  -3  -157927.58  835.10
  -1   3   158483.80  845.26
  -1   3   0 5811.29  345.43
  -1   3   0 5385.45  215.42
  -1   3   0 5428.74  369.00
  -1   3   0 5676.72  218.55
   1  -3   0 5460.82  250.38
  -1   3   0 5499.89  180.32
   1  -3   0 5650.62  189.06
  -1   3   0 5580.45  193.51
   1  -3   0 5667.85  186.47
  -1   3   0 6012.23  410.29
   1  -3   0 5363.76  172.84
  -1   3   0 5790.11  251.04
   1  -3   1 1750.50  140.08
   1  -3   1 1783.91   62.31
  -1   3  -1 1811.01  123.46
  -1   3  -1 1939.82  335.26
  -1   3  -1 1732.26  225.25
  -1   3  -1 2064.28  384.76
   1  -3   1 1738.50  209.32
   1  -3   1 1924.84  185.04
  -1   3  -1 2103.01  249.67
  -1   3  -1 1748.55  109.48
   1  -3   230291.15  459.98
   1  -3   230521.93  455.81
  -1   3  -230071.75  558.84
  -1   3  -230406.67  588.52
  -1   3  -229772.53  570.84
  -1   3  -230268.99  601.81
  -1   3  -230727.12  406.38
   1  -3   3 1669.33  268.55
   1  -3   3 1556.39   97.18
  -1   3  -3 1487.43  108.72
  -1   3  -3 1710.67  376.99
  -1   3  -3 2046.90  474.60
   1  -3   4 3074.48  277.27
  -1   3  -4 2653.02  230.61
  -1   3  -4 3042.64  636.83
   1  -3   525393.84  554.27
  -1   3  -525464.53  451.00
  -1   3  -524619.99  561.91
   1  -3   6  144.69   62.23
   1  -3   6  121.39   34.91
  -1   3  -6  119.53   33.17
   1  -3   8  295.03   87.23
   1  -3   928788.78  797.44
   1  -3  10 6918.70 1141.72
   1  -3  11 1745.35  653.08
   1  -3  12 2740.83 1056.32
  -1   2  1112593.35 1179.51
  -1   2  10 5721.73  420.18
  -1   2   918094.30  580.78
  -1   2   826947.71  675.05
  -1   2   7  450.71   97.29
  -1   2   7  386.63  117.89
  -1   2   611797.74  370.54
  -1   2   611052.79  658.55
  -1   2   534326.17  561.00
  -1   2   532235.24  436.46
  -1   2   532447.08  427.26
  -1   2   534594.93  629.23
  -1   2   415771.00  335.05
  -1   2   415281.84  332.24
   1  -2  -416057.24  302.57
  -1   2   416255.53  309.40
   1  -2  -416491.97  307.25
  -1   2   415709.31  300.71
  -1   2   415775.90  406.11
  -1   2   337136.30  570.76
   1  -2  -337846.05  576.99
   1  -2  -337743.88  595.39
  -1   2   337553.78  592.62
   1  -2  -337242.37  584.65
  -1   2   338083.91  614.10
  -1   2   338643.22  760.60
  -1   2   2 4202.99  127.31
   1  -2  -2 4104.09  128.99
   1  -2  -2 4130.30  176.01
  -1   2   2 4205.65  162.38
   1  -2  -2 4101.09  203.95
   1  -2  -2 4191.51  159.64
  -1   2   2 4101.57  186.16
   1  -2  -2 4267.07  100.20
   1  -2  -2 4204.57  172.22
  -1   2   2 4539.39  358.48
  -1   2   1141108.2 1640.32
   1  -2  -1141502.7 1639.92
   1  -2  -1143862.1 1681.21
  -1   2   1140877.1 1640.56
  -1   2   0 5898.72  103.54
   1  -2   0 5888.93  102.70
   1  -2   0 5890.06  188.52
  -1   2   0 6098.90  197.10
   1  -2   0 5476.28  181.98
  -1   2   0 5982.64  193.77
   1  -2   0 5750.64  201.39
  -1   2   0 5933.63  235.10
  -1   2   0 6057.96  267.98
   1  -2   0 5913.20  183.53
   1  -2   0 6013.97  167.63
   1  -2   0 6149.53  315.64
  -1   2   0 5859.55  270.41
  -1   2   0 5869.68  167.61
  -1   2  -272394.72  891.09
   1  -2   272618.95  891.28
   1  -2   272292.14  975.13
   1  -2   271974.73  944.39
  -1   2  -272448.91  948.36
   1  -2   271300.34  976.17
   1  -2   3168323.1 1916.98
   1  -2   460865.10  680.33
   1  -2   458814.97  596.31
  -1   2  -458310.75  570.67
   1  -2   528824.89  526.37
   1  -2   529491.41  403.72
  -1   2  -529407.05  331.24
   1  -2   612058.38  453.83
   1  -2   611795.24  276.19
  -1   2  -611878.80  286.35
   1  -2   7 3456.48  557.79
   1  -2   7 2603.90  323.90
  -1   2  -7 2931.84  335.15
  -1   2  -7 2708.09  305.40
   1  -2   8 6923.61  372.22
  -1   2  -8 6549.56  161.42
   1  -2   9 4494.62  467.27
   1  -2  1015691.22  654.41
   1  -2  11 1371.36  332.51
   1  -2  12  922.93  379.41
  -1   1  12  127.19   81.24
  -1   1  11 2042.23  607.12
  -1   1  10 1768.25  472.21
  -1   1   9 6936.55  364.53
  -1   1   8 3414.80  242.47
  -1   1   8 3012.74  218.75
  -1   1   7 1984.02  174.24
  -1   1   7 2169.32  462.92
  -1   1   6 5140.34  498.47
   1  -1  -519075.06  426.15
   1  -1  -519995.41  264.43
  -1   1   519487.57  266.35
   1  -1  -520108.52  283.07
  -1   1   519205.02  431.25
   1  -1  -416457.98  392.16
   1  -1  -415279.02  308.03
  -1   1   415861.48  296.09
   1  -1  -416287.51  276.00
  -1   1   415312.91  397.69
  -1   1   3104031.7 1272.77
   1  -1  -3107479.8 1307.80
   1  -1  -3105623.1 1211.13
  -1   1   3107244.2 1238.00
  -1   1   3107419.1 1349.23
  -1   1   2 1731.34   89.28
   1  -1  -2 1672.48   87.35
   1  -1  -2 1686.06   84.26
  -1   1   2 1800.92  103.14
  -1   1   1 4783.93  129.55
   1  -1  -1 4664.25  127.82
   1  -1  -1 4445.11  141.58
   1  -1  -1 5031.58  150.66
   1  -1  -1 5265.87  271.33
   1  -1   0101454.4 1142.54
   1  -1   0101665.7 1146.76
   1  -1   0102217.6 1188.68
  -1   1   0100585.5 1171.15
   1  -1   192981.51 1067.55
  -1   1  -193996.88 1120.88
  -1   1  -227293.79  444.39
   1  -1   225961.90  422.80
  -1   1  -335884.63  585.42
   1  -1   335565.92  599.94
   1  -1   4  724.39  129.54
   1  -1   520911.40  453.49
   1  -1   6  312.01  117.94
   1  -1   6  286.02   38.96
  -1   1  -6  184.24   53.19
   1  -1   7  121.51   59.89
   1  -1   7   52.41   21.30
  -1   1  -7   64.98   21.95
   1  -1   8 2388.87  524.04
  -1   1  -8 1608.28  274.64
   1  -1   9  577.19  155.14
   1  -1  10 6990.45  696.98
   1  -1  11  651.81  199.13
   1  -1  12  160.83   85.84
  -1   0  12  488.77  144.29
  -1   0  11   71.58  132.69
  -1   0  10 4230.40  310.23
  -1   0   9 2440.79  224.60
  -1   0   9 2394.33  698.74
  -1   0   814091.19  478.73
   1   0  -814276.91  413.83
  -1   0   814762.51  432.56
   1   0  -7 3464.17  222.54
   1   0  -7 3434.54  446.69
  -1   0   7 3584.11  346.66
   1   0  -611664.18  378.00
   1   0  -612570.69  356.51
  -1   0   612466.15  368.81
   1   0  -529941.55  551.69
   1   0  -531328.91  257.10
  -1   0   531187.67  251.69
   1   0  -531446.32  436.64
  -1   0   531261.87  527.24
   1   0  -429910.15  572.72
   1   0  -430728.74  487.14
  -1   0   429780.53  591.98
  -1   0   326645.47  487.53
   1   0  -325991.48  479.85
  -1   0   271255.42  914.12
   1   0  -269855.20  897.91
  -1   0   156853.58  730.23
   1   0  -153363.68  695.28
  -1   0  -1 1398.38   79.96
   1   0   1 1481.72   85.78
  -1   0  -1 1434.14   77.80
  -1   0  -2 4706.41  163.28
   1   0   2 4853.28  168.76
  -1   0  -3 5527.30  199.95
   1   0   3 5578.09  200.11
   1   0   5 7160.39  269.58
   1   0   635451.38  660.44
   1   0   715320.85  517.44
   1   0   877936.94 1172.52
   1   0   9 2167.71  541.48
   1   0  10  241.05   66.30
   1   0  11 6096.36  602.96
   1   0  1216461.85  679.78
  -1  -1  12 1239.56  321.87
  -1  -1  11  129.71  100.66
  -1  -1  10 3707.35  300.25
  -1  -1   9  252.84   94.30
   1   1  -9  263.06   64.85
  -1  -1   9  195.83   79.74
   1   1  -8 5110.08  293.65
   1   1  -8 4942.28  344.50
  -1  -1   8 4935.15  331.80
   1   1  -7 2870.57  215.83
   1   1  -7 2867.19  513.64
  -1  -1   7 2609.98  169.98
   1   1  -6  888.21  115.17
   1   1  -6  847.24   34.56
  -1  -1   6  833.95   34.78
   1   1  -6  910.02  193.47
  -1  -1   6  867.00  225.17
   1   1  -5  719.99   93.32
   1   1  -5  755.98  195.92
  -1  -1   5  822.75  240.01
   1   1  -482015.78  847.04
   1   1  -482928.59  755.13
   1   1  -314799.23  355.81
  -1  -1   115617.85  322.24
   1   1  -115206.28  318.77
  -1  -1   075971.50  953.70
   1   1   073512.18  928.47
  -1  -1   074021.48  781.48
  -1  -1   074424.63  912.61
   1   1   075422.63  863.83
  -1  -1  -2  592.71   64.50
   1   1   2  668.92   71.29
   1   1   312209.69  322.29
   1   1   414835.09  369.45
   1   1   5 7490.05  491.47
   1   1   6 5753.10  287.82
   1   1   7  561.07  112.50
   1   1   862232.88 1034.66
   1   1   917636.57 1200.03
   1   1  10  -16.24   56.87
   1   1  11 5510.22  879.17
   1   1  12  -34.61   75.11
  -1  -2  12  113.93  128.55
  -1  -2  11  361.93  120.87
  -1  -2  1013458.52  560.11
   1   2 -1013728.50  488.92
   1   2  -9  310.63   87.35
   1   2  -9  254.04   70.26
  -1  -2   9  210.31   66.38
   1   2  -8 4366.14  282.39
   1   2  -8 4003.66  836.05
  -1  -2   8 4801.50  221.85
   1   2  -7 8022.81  374.35
   1   2  -7 8110.70  180.98
  -1  -2   7 8156.95  180.62
   1   2  -7 8556.92  570.33
  -1  -2   7 7832.52  431.50
   1   2  -640114.41  737.86
   1   2  -638966.79  407.33
  -1  -2   639230.36  409.09
   1   2  -637300.72  780.80
  -1  -2   639556.46  643.55
   1   2  -5  673.35   93.30
   1   2  -5  678.87  176.93
  -1  -2   5  647.90   68.74
   1   2  -446740.47  671.10
   1   2  -445003.54  640.78
   1   2  -345568.70  605.95
  -1  -2   225854.47  498.58
   1   2  -226108.49  498.98
  -1  -2   1219616.0 2439.59
  -1  -2   1216212.9 2429.73
  -1  -2   011110.68  280.99
   1   2   010634.14  273.51
  -1  -2   011144.67  236.18
  -1  -2   010741.38  335.39
   1   2   011353.01  296.86
   1   2   010775.84  183.74
  -1  -2  -1 8162.60  242.84
   1   2   1 7976.83  237.21
   1   2   1 8236.94  196.91
  -1  -2  -1 8392.02  206.65
  -1  -2  -1 7862.92  242.79
   1   2   1 7970.13  325.83
  -1  -2  -1 8334.82  164.44
  -1  -2  -2240678.9 2678.68
   1   2   2241623.5 1282.82
   1   2   3   49.62   42.56
   1   2   4  446.23   73.92
   1   2   522841.71  505.69
   1   2   631812.10  659.49
   1   2   7 1414.80  334.88
   1   2   827159.62 1298.86
   1   2   9   67.39   48.18
   1   2  1030416.48  860.59
   1   2  11 8570.14  928.43
   1   2  12   -8.28   80.03
  -1  -3  11  556.97  154.01
   1   3 -11  268.95  102.37
  -1  -3  10 5516.76  369.94
   1   3 -10 4927.18 1085.76
   1   3  -9   53.51   57.49
   1   3  -9   32.46   19.05
   1   3  -8 4673.96  305.24
   1   3  -8 4324.17  944.39
  -1  -3   8 4276.95  244.98
   1   3  -717566.00  547.50
   1   3  -717547.11  318.72
   1   3  -717898.68  528.90
  -1  -3   718355.31  387.41
   1   3  -6 4697.78  273.11
   1   3  -6 4796.48  191.00
  -1  -3   6 4345.52  180.76
   1   3  -6 4283.98  474.54
  -1  -3   6 4547.72  190.56
   1   3  -5 1683.92  151.91
   1   3  -5 1505.37  326.06
   1   3  -465280.17  853.12
   1   3  -463771.57  867.40
   1   3  -3 1563.08  129.58
   1   3  -2 4642.67  199.19
   1   3  -1 3897.25  174.39
  -1  -3   1 3626.24  186.31
   1   3  -1 3765.17  153.78
   1   3   012494.63  300.93
  -1  -3   012342.51  283.71
   1   3   011959.74  290.45
   1   3   012665.17  339.53
   1   3   012630.61  100.96
   1   3   1 8739.14  255.57
   1   3   1 8925.69  249.14
  -1  -3  -1 9051.45  220.89
   1   3   1 8655.40  231.05
   1   3   1 8922.71  296.45
   1   3   2 2074.07  133.22
   1   3   2 2176.57  269.85
  -1  -3  -2 1988.48  188.12
   1   3   2 2142.07  478.61
  -1  -3  -2 2005.97   62.35
   1   3   339933.76  598.34
   1   3   340789.26  532.13
  -1  -3  -338503.43  929.30
   1   3   341846.50  682.25
   1   3   459322.56  802.42
   1   3   459877.02  852.77
   1   3   5 3999.86  229.11
   1   3   6 7971.28  354.02
   1   3   7  602.78  117.00
   1   3   814947.91  527.80
   1   3   9 5601.95  344.61
   1   3   9 5342.77  251.97
   1   3  10   61.09   64.74
   1   3  11 4118.22  333.53
  -1  -4  11 1638.23  230.55
   1   4 -11 1184.40  360.33
  -1  -4  10  613.96  154.98
   1   4 -10  293.18  108.51
   1   4  -9  168.79   81.64
   1   4  -9    7.17   54.72
   1   4  -8 7709.28  400.95
   1   4  -8 8050.23 1409.58
   1   4  -745006.17  901.73
   1   4  -747161.17  642.32
   1   4  -747548.22  961.98
   1   4  -6 1426.75  154.28
   1   4  -6 1505.74  121.26
   1   4  -6 1621.41  484.35
   1   4  -5 3689.78  231.09
   1   4  -5 3772.10  204.29
   1   4  -5 4194.85  916.06
   1   4  -4   95.63   51.42
   1   4  -4   97.38   52.15
   1   4  -322978.52  491.31
   1   4  -235843.33  584.13
   1   4  -236696.09  588.22
   1   4  -111842.73  323.98
   1   4  -112183.78  335.53
   1   4   0 7058.26  246.11
   1   4   0 6968.17  319.78
   1   4   0 6422.33  275.43
   1   4   126081.16  470.90
   1   4   126444.06  451.70
   1   4   126735.45  469.40
   1   4   125724.12  619.19
   1   4   211317.60  323.80
   1   4   211216.78  530.73
   1   4   210925.86  577.22
   1   4   3 1253.13  121.21
   1   4   3 1093.51  227.64
   1   4   3 1319.13  266.71
   1   4   443488.35  912.63
   1   4   442898.91  869.22
   1   4   442557.79  972.74
   1   4   559723.75 1188.50
   1   4   559898.43 1155.87
   1   4   558728.18 1239.79
   1   4   6 4302.74  264.82
   1   4   6 4001.17  272.05
   1   4   7   72.92   75.27
   1   4   825249.27  701.38
   1   4   9 2677.80  254.63
   1   4   9 2311.91  187.69
   1   4  10  109.72   94.24
   1   4  11 1305.13  208.63
  -1  -5  10  167.64  113.60
   1   5 -10  103.14  103.35
   1   5  -9  216.72   99.83
   1   5  -9   85.01   86.38
   1   5  -8 5702.60  355.82
   1   5  -8 4424.70 1189.04
   1   5  -7  298.09   90.68
   1   5  -7  170.57   99.29
   1   5  -7  234.62  109.03
   1   5  -619774.93  576.07
   1   5  -618877.25  485.49
   1   5  -617961.66  705.69
   1   5  -5  457.07   93.93
   1   5  -5  531.12   92.45
   1   5  -5  575.88  215.27
   1   5  -4 1129.19  128.10
   1   5  -4 1159.65  129.04
   1   5  -4 1071.55  253.72
   1   5  -3  282.11   71.38
   1   5  -3  202.10   59.71
   1   5  -3  255.25   72.57
   1   5  -211613.05  385.40
   1   5  -212066.68  408.11
   1   5  -119336.29  510.81
   1   5  -118838.93  550.59
   1   5   0   15.21   32.29
   1   5   0   24.87   33.37
   1   5   1 3294.65  188.68
   1   5   1 4088.32  215.08
   1   5   1 3818.54  540.43
   1   5   1 3487.40  234.13
   1   5   2 4743.83  234.79
   1   5   2 4564.90  352.03
   1   5   2 4470.77  488.52
   1   5   3 4450.73  235.79
   1   5   3 4184.46  533.30
   1   5   3 4654.96  536.33
   1   5   4 3560.20  218.77
   1   5   4 3740.88  617.87
   1   5   4 4055.30  395.55
   1   5   513266.72  434.19
   1   5   514619.22  676.26
   1   5   514894.76  963.98
   1   5   6 3870.38  256.73
   1   5   6 3989.22  248.64
   1   5   6 4170.72  960.46
   1   5   7 8347.90  395.51
   1   5   7 7936.07  369.17
   1   5   7 7787.05  418.40
   1   5   8 2125.46  226.43
   1   5   8 1860.04  189.01
   1   5   8 2084.99  231.46
   1   5   9 1064.22  195.82
   1   5   9 1212.85  154.66
   1   5   9 1121.25  184.76
   1   5  10  187.39   95.31
   1   6  -9 2718.52  268.65
   1   6  -9 2224.49  438.70
   1   6  -8  190.36   92.03
   1   6  -8   87.98   45.21
   1   6  -7 6382.03  370.27
   1   6  -7 4875.51 1331.44
   1   6  -6  738.43  126.54
   1   6  -6  380.12  129.60
   1   6  -6  602.40  212.64
   1   6  -5 1446.75  159.23
   1   6  -5 1585.94  164.37
   1   6  -5 1295.54  273.86
   1   6  -4  144.90   72.07
   1   6  -4  140.86   70.52
   1   6  -4  133.37   60.68
   1   6  -4  133.32   71.77
   1   6  -311507.14  389.61
   1   6  -312355.75  455.84
   1   6  -311473.24  419.33
   1   6  -312056.22  479.67
   1   6  -2 1020.00  119.17
   1   6  -2  993.61  135.51
   1   6  -2  996.12  221.83
   1   6  -2 1353.49  163.61
   1   6  -1   99.36   51.06
   1   6  -1   15.65   26.30
   1   6   020197.79  475.84
   1   6   019753.41  556.05
   1   6   154277.46  783.98
   1   6   154995.15  840.54
   1   6   154345.11  925.55
   1   6   155550.28  993.84
   1   6   2  482.80   97.08
   1   6   2  181.39   55.57
   1   6   2  446.76  129.97
   1   6   315325.18  438.63
   1   6   315149.12  682.09
   1   6   315669.03  866.53
   1   6   415160.35  455.74
   1   6   415474.20  803.03
   1   6   414566.39  825.53
   1   6   515627.39  489.69
   1   6   517419.75  601.90
   1   6   516895.97  833.10
   1   6   621921.72  610.56
   1   6   623069.68  667.34
   1   6   621432.77  654.04
   1   6   622643.49 1025.41
   1   6   7  -26.48   44.48
   1   6   7   20.96   40.79
   1   6   7  160.54   77.70
   1   6   7   32.90   32.99
   1   6   8 3066.64  273.58
   1   6   8 2561.47  743.24
   1   6   8 2685.52  241.32
   1   6   8 2771.76  493.03
   1   6   9 6992.54  419.07
   1   6   9 7382.07  416.08
   1   6   9 6447.26  375.85
   1   6   9 6100.73 1331.87
   1   7  -7   85.78   64.12
   1   7  -7   98.84   72.82
   1   7  -7   54.30   29.30
   1   7  -6  386.08  110.80
   1   7  -6  277.75   96.14
   1   7  -6  366.47  107.24
   1   7  -6  184.98   47.24
   1   7  -5 1180.69  156.91
   1   7  -5  842.07  296.80
   1   7  -5 1709.01  198.34
   1   7  -5 1424.60  296.11
   1   7  -4  416.27  103.17
   1   7  -4  443.59   98.46
   1   7  -4  487.77  114.56
   1   7  -4  439.45  178.54
   1   7  -3 5581.43  289.58
   1   7  -3 5506.96  334.77
   1   7  -3 4892.56  547.46
   1   7  -3 5454.93  540.18
   1   7  -2 4342.79  243.88
   1   7  -2 3919.17  283.88
   1   7  -2 3360.61  660.36
   1   7  -2 3985.27  293.67
   1   7  -1  847.71  116.28
   1   7  -1  875.50  140.54
   1   7  -1  975.42  216.81
   1   7  -1  909.24  139.06
   1   7   0  524.46   93.49
   1   7   0  593.74  121.55
   1   7   0  603.41  120.99
   1   7   1 5375.70  339.70
   1   7   1 5408.55  298.34
   1   7   2 5758.71  278.03
   1   7   2 5973.51  309.50
   1   7   2 5214.68  341.11
   1   7   2 5566.58  353.35
   1   7   313762.52  437.05
   1   7   314913.95  492.49
   1   7   314030.53  557.67
   1   7   313658.82 1048.00
   1   7   4 1290.51  148.64
   1   7   4 1231.47  339.31
   1   7   4 1446.90  189.84
   1   7   4 1403.35  291.61
   1   7   5 6629.54  331.68
   1   7   5 6797.08  697.57
   1   7   5 7080.74  406.94
   1   7   5 6170.05 1372.98
   1   7   6  145.37   83.13
   1   7   6   69.47   80.81
   1   7   6  394.22  104.58
   1   7   6  265.02   95.72
   1   7   7  679.00  233.08
   1   7   7  720.46  143.90
   1   7   7  713.79  179.07
   1   8  -5 2073.59  642.91
   1   8  -5 1954.12  411.07
   1   8  -5 1973.97  499.89
   1   8  -4  719.54  185.11
   1   8  -4  911.74  219.32
   1   8  -4 1238.11  419.01
   1   8  -3   80.88   63.19
   1   8  -3   24.50   36.43
   1   8  -3   15.70   43.51
   1   8  -2    4.75   33.90
   1   8  -2   34.69   69.84
   1   8  -2   24.20   60.64
   1   8  -114630.80  593.67
   1   8  -112783.32 1430.75
   1   8  -112420.03 1436.92
   1   8   0 6425.22  399.41
   1   8   0 4409.74  899.34
   1   8   0 5253.65  339.88
   1   8   1  191.76   83.62
   1   8   1  209.70   85.49
   1   8   2 9125.15  479.31
   1   8   2 8585.76  411.66
   1   8   3 2152.69  207.97
   1   8   3 2010.60  238.85
   1   8   3 2218.46  250.04
   1   8   4 4026.62  290.58
   1   8   4 3916.16  330.98
   1   8   4 3926.42  332.50
   1   8   5   19.82   35.72
   1   8   5   35.88   60.36
   1   8   5   47.18   51.05
   1   9   0 2194.66  257.86
   1   9   0 2314.88  243.07
   1   9   0 1440.03  505.44
  -2   9   4  536.41  127.26
  -2   9   4  809.01  170.19
  -2   9   4  560.80  133.88
  -2   9   3 1513.24  217.78
  -2   9   3 1510.75  238.38
  -2   9   2  679.01  160.38
  -2   9   2  746.38  156.96
  -2   9   1  245.86  109.58
  -2   9   1   53.72   56.45
  -2   9   1  152.16   87.04
  -2   9   0   72.92   62.29
  -2   9   0   69.09   80.29
  -2   9  -1   32.75   52.74
  -2   9  -1    7.33   43.10
  -2   9  -2  880.80  160.36
  -2   9  -2  817.48  126.32
  -2   9  -3 2439.36  266.30
  -2   9  -3 1939.78  438.84
  -2   9  -4 3900.38  330.50
  -2   9  -4 3215.45  736.33
  -2   8   610777.56 2401.81
  -2   8   612396.26  572.54
  -2   8   610026.17 1498.31
  -2   8   5   50.98   45.27
  -2   8   5  122.33   68.23
  -2   8   5   74.02   56.16
  -2   8   417423.47 1662.74
  -2   8   418746.56  691.52
  -2   8   417513.01  887.27
  -2   8   3  -43.89   47.37
  -2   8   3   58.29   65.84
  -2   8   3   79.27   47.63
  -2   8   213382.59  568.94
  -2   8   213958.70  591.04
  -2   8   1  251.87  100.83
  -2   8   1  106.64   77.44
  -2   8   1  256.05   91.97
  -2   8   0 2301.98  245.92
  -2   8   0 2239.37  238.22
  -2   8   0 2510.99  482.16
  -2   8  -1   41.54   52.16
  -2   8  -1   37.31   70.98
  -2   8  -2 2750.25  258.60
  -2   8  -2 2510.22  651.67
  -2   8  -2 2262.38  549.02
  -2   8  -3   22.73   39.21
  -2   8  -3   -9.72   36.61
  -2   8  -3   66.17   71.63
  -2   8  -4  761.34  145.68
  -2   8  -4  544.95  176.44
  -2   8  -4  460.86  127.15
  -2   8  -5  861.07  213.26
  -2   8  -5  506.43  191.51
  -2   8  -6   22.85   25.19
  -2   8  -6   26.41   28.21
  -2   7   811198.87 1606.25
  -2   7   813029.34  544.58
  -2   7   811153.34 1374.39
  -2   7   7  216.10   87.29
  -2   7   6  603.21  116.27
  -2   7   6  442.55  111.14
  -2   7   6  437.32  115.58
  -2   7   5   -5.06   66.16
  -2   7   5  263.08   96.68
  -2   7   5  252.63   84.02
  -2   7   4  290.01   94.34
  -2   7   4  267.54   87.23
  -2   7   4  109.57   63.93
  -2   7   3   97.42   75.21
  -2   7   3  300.43   91.86
  -2   7   3  200.30   72.72
  -2   7   3  201.53   48.32
  -2   7   2 1333.58  295.87
  -2   7   2 1635.94  193.57
  -2   7   2 1268.95  165.55
  -2   7   2 1348.16  147.09
  -2   7   1  813.83  140.58
  -2   7   1 1057.14  161.38
  -2   7   1  867.49  202.50
  -2   7   1  750.73  128.33
  -2   7   010221.65  453.19
  -2   7   010708.53  468.98
  -2   7   010402.16  671.75
  -2   7   010576.85  460.27
  -2   7  -1  155.42   84.34
  -2   7  -1  224.09   72.18
  -2   7  -1  158.49   70.69
  -2   7  -1  199.91   56.40
  -2   7  -223168.70  679.02
  -2   7  -224247.31  953.61
  -2   7  -224139.97  692.74
  -2   7  -224483.58  765.66
  -2   7  -3  148.31   61.95
  -2   7  -3  285.11   69.33
  -2   7  -3  297.19  101.00
  -2   7  -3  162.13   85.31
  -2   7  -4 5274.76  326.15
  -2   7  -4 5023.67  685.40
  -2   7  -4 5686.14  338.18
  -2   7  -4 5528.82  716.12
  -2   7  -5  730.20  128.06
  -2   7  -5  859.12  139.98
  -2   7  -5  690.53  126.29
  -2   7  -6 1963.69  232.41
  -2   7  -6 1698.18  188.40
  -2   7  -6 1880.26  211.27
  -2   7  -7 1546.30  211.82
  -2   7  -7 1470.44  202.33
  -2   7  -8  212.31   97.90
  -2   7  -8  233.68  101.25
  -2   6   9  242.78  108.52
  -2   6   8 5713.12  382.44
  -2   6   8 5120.08  314.98
  -2   6   8 5868.57  362.12
  -2   6   7  130.09   75.94
  -2   6   7  141.64   79.27
  -2   6   7  123.62   73.25
  -2   6   634576.80  999.94
  -2   6   635086.42  807.88
  -2   6   634115.28  785.04
  -2   6   5 1281.38  235.52
  -2   6   5 1196.34  153.30
  -2   6   5  858.40  125.15
  -2   6   5 1005.28  223.56
  -2   6   4 3159.30  652.62
  -2   6   4 3118.19  242.01
  -2   6   4 3181.44  236.03
  -2   6   4 2896.45  478.47
  -2   6   3 3381.89  769.41
  -2   6   3 3265.25  246.19
  -2   6   3 3148.77  234.41
  -2   6   3 3280.78  434.31
  -2   6   2 3771.40  814.34
  -2   6   2 3718.86  257.39
  -2   6   2 3386.63  244.13
  -2   6   2 3624.41  491.50
  -2   6   1  844.94  229.69
  -2   6   1  753.53  123.03
  -2   6   1  792.15  271.14
  -2   6   1  703.08  117.46
  -2   6   1  800.36  102.46
  -2   6   061755.80 1018.07
  -2   6   060509.78 1013.14
  -2   6   061168.90 1129.66
  -2   6   060493.09 1009.23
  -2   6   059572.06  845.92
  -2   6  -1   58.68   48.94
  -2   6  -1   92.90   55.66
  -2   6  -1   -3.45   63.82
  -2   6  -1  152.01   61.20
  -2   6  -1   19.80   25.11
  -2   6  -2  125.84   61.03
  -2   6  -2   23.38   59.20
  -2   6  -2   87.02   52.46
  -2   6  -2   15.33   39.74
  -2   6  -358814.14  993.88
  -2   6  -358361.31 1177.98
  -2   6  -358132.76  985.65
  -2   6  -359135.88 1095.24
   2  -6   4  481.56   66.00
  -2   6  -4  511.57  143.85
  -2   6  -4  586.34  105.36
  -2   6  -4  345.93   88.53
   2  -6   5 1480.88  313.43
  -2   6  -5 1659.97  196.07
  -2   6  -5 1541.81  163.79
  -2   6  -5 1661.64  182.05
   2  -6   6 7577.93  929.81
  -2   6  -6 8623.86  442.19
  -2   6  -6 8264.08  373.30
  -2   6  -6 8437.66  409.42
   2  -6   7  882.32  269.61
  -2   6  -7 1302.77  187.62
  -2   6  -7 1295.72  149.96
   2  -6   8    7.89   40.17
  -2   5  10   52.25   48.53
  -2   5   9  533.10  133.96
  -2   5   8   26.92   39.26
  -2   5   711154.17  491.07
  -2   5   710902.00  411.47
  -2   5   6 1111.25  240.59
  -2   5   6 1119.33  156.18
  -2   5   6 1064.00  134.80
  -2   5   6 1092.48  130.21
  -2   5   6 1009.72  270.66
  -2   5   5   18.50   42.57
  -2   5   5   34.51   47.58
  -2   5   5   51.05   39.55
  -2   5   5  126.34   59.45
  -2   5   5  -10.46   40.41
  -2   5   416096.81  328.45
  -2   5   416342.90  591.43
  -2   5   415386.88  479.28
  -2   5   416315.23  485.48
  -2   5   415846.92  442.38
  -2   5   415461.98  661.40
  -2   5   3 4029.80  221.47
  -2   5   3 4208.83  132.44
  -2   5   3 4640.54  587.83
  -2   5   3 4332.92  262.89
  -2   5   3 4331.65  293.14
  -2   5   3 4764.32  452.63
  -2   5   3 4392.65  298.27
  -2   5   211416.21  486.88
  -2   5   211374.52  434.89
  -2   5   211027.21  424.13
  -2   5   211900.22  586.46
  -2   5   211518.28  459.41
  -2   5   130108.43  891.67
  -2   5   130413.02  776.00
  -2   5   132469.40  860.11
  -2   5   130874.80  836.15
  -2   5   130706.67  657.48
  -2   5   130858.21  741.86
  -2   5   0 8236.22  342.76
  -2   5   0 8060.75  339.83
  -2   5   0 8729.70  609.97
  -2   5   0 8572.17  656.28
  -2   5   0 8843.70  547.63
  -2   5   0 9003.84  479.40
  -2   5  -126946.07  717.92
  -2   5  -128529.52  742.23
  -2   5  -126944.61  766.24
  -2   5  -126541.32  761.88
  -2   5  -127067.77  708.62
  -2   5  -126461.35  597.88
   2  -5   2  170.28   27.34
   2  -5   2  257.78   30.59
  -2   5  -2  258.22   70.66
  -2   5  -2  270.85  126.45
  -2   5  -2  407.56  100.53
  -2   5  -2  309.63   76.91
   2  -5   3 7065.60  222.95
   2  -5   3 6957.78  217.88
  -2   5  -3 6635.84  787.17
  -2   5  -3 6855.35  481.00
  -2   5  -3 6840.64  318.03
  -2   5  -3 6818.22  205.22
   2  -5   411302.93  306.18
  -2   5  -411344.75  435.90
  -2   5  -411245.51  787.70
  -2   5  -410786.18  400.41
   2  -5   5  177.95   62.19
  -2   5  -5  213.81   79.08
  -2   5  -5  218.92   53.34
   2  -5   6   -3.37   27.96
  -2   5  -6    6.95   42.15
   2  -5   7 1661.67  366.68
  -2   5  -7 1706.06  159.00
   2  -5   8 6067.20  866.82
  -2   5  -8 6368.88  297.56
   2  -5   9  533.92  163.80
   2  -5  10 3041.97 1074.87
  -2   4  11 2798.65  701.85
  -2   4  10  224.70  137.09
  -2   4   9 2107.77  503.06
  -2   4   8 9940.71 1369.10
  -2   4   810851.88 1006.08
  -2   4   716101.66 1077.54
  -2   4   716428.06  443.30
  -2   4   715098.38  671.34
  -2   4   6   -4.11   38.57
  -2   4   6  138.38   59.03
  -2   4   6   42.68   49.77
  -2   4   515625.67  433.99
  -2   4   516183.25  507.14
  -2   4   514978.71  535.57
  -2   4   4   61.06   32.79
  -2   4   4   42.76   50.96
  -2   4   4   19.69   28.35
  -2   4   4   -9.83   26.86
  -2   4   4   -5.56   29.82
  -2   4   370581.99  629.43
  -2   4   370557.62 1003.06
  -2   4   371601.43  949.35
  -2   4   369874.75  932.04
  -2   4   370844.46  803.10
   2  -4  -371066.47  544.95
  -2   4   369837.84 1066.07
  -2   4   2   87.26   21.37
  -2   4   2  104.53   75.68
  -2   4   2  178.00   52.53
  -2   4   2  253.22   54.73
  -2   4   2  100.69   46.24
   2  -4  -2  143.07   35.32
  -2   4   2   80.47   33.87
  -2   4   1 5852.92   97.48
   2  -4  -1 5969.55   96.07
  -2   4   1 5821.36  573.09
  -2   4   1 5768.77  265.98
  -2   4   1 5800.82  377.97
  -2   4   1 5592.06  258.92
  -2   4   1 6271.79  492.55
  -2   4   1 6065.79  259.68
  -2   4   010328.01  190.24
   2  -4   010665.22  110.97
  -2   4   010567.01  484.30
  -2   4   010445.85  355.69
  -2   4   010463.78  471.96
  -2   4   011156.20 1019.68
  -2   4   011383.73  618.96
  -2   4   011262.27  428.07
   2  -4   160362.67  402.63
  -2   4  -160924.93  834.30
  -2   4  -159745.82  834.56
  -2   4  -160683.06  849.37
   2  -4   160534.48  692.24
  -2   4  -160803.89  836.00
  -2   4  -161402.06  679.40
   2  -4   2 8308.05  195.70
   2  -4   2 8597.64  198.13
  -2   4  -2 8815.18  347.65
  -2   4  -2 8418.28  323.36
   2  -4   2 8451.38  407.40
  -2   4  -2 8136.17  518.56
   2  -4   319828.17  360.04
   2  -4   319600.23  360.31
  -2   4  -318891.73  492.56
  -2   4  -319696.04  667.91
  -2   4  -319452.66  491.05
  -2   4  -319247.16  310.69
   2  -4   411320.69  354.44
  -2   4  -410625.87  410.19
  -2   4  -411430.65  447.26
  -2   4  -410981.25  415.63
  -2   4  -410748.30  248.56
   2  -4   5 1714.25  338.30
  -2   4  -5 1577.34  347.94
  -2   4  -5 1307.23   86.10
   2  -4   6 1001.38  271.06
  -2   4  -6  769.88  198.27
   2  -4   7 4970.32  941.85
  -2   4  -7 3831.00  863.34
   2  -4   8 1257.33  346.11
  -2   4  -8  954.59  305.30
   2  -4   911938.60  606.51
   2  -4  10  105.02   84.77
   2  -4  11  122.60   78.95
  -2   3  11   33.21   29.77
  -2   3  10  214.13   78.96
  -2   3   937127.99  843.65
  -2   3   937435.86  904.71
  -2   3   8   68.77   57.61
  -2   3   8   63.95   57.68
  -2   3   7 4877.84  265.50
  -2   3   7 5066.92  219.93
  -2   3   7 4309.72  388.94
  -2   3   6 3995.42  228.30
  -2   3   6 3557.17  255.45
  -2   3   6 3402.57  371.74
   2  -3  -5 4278.41  207.05
  -2   3   5 4235.85  492.43
  -2   3   5 4277.90  270.43
   2  -3  -4  287.37   54.07
  -2   3   4  248.67   93.91
   2  -3  -4  193.61   26.29
  -2   3   4  218.11   79.29
  -2   3   3 1158.38   89.61
   2  -3  -3 1259.55   90.63
  -2   3   3 1140.49  117.01
  -2   3   3 1343.61  328.32
   2  -3  -3 1146.36   96.53
  -2   3   3 1258.30  118.38
  -2   3   240111.30  437.35
   2  -3  -241025.01  437.03
  -2   3   239529.31  637.52
  -2   3   239403.07  621.27
   2  -3  -241107.86  464.33
  -2   3   239838.39  630.45
  -2   3   1 1055.06   66.72
   2  -3  -1 1068.51   65.84
  -2   3   1 1123.92  259.82
  -2   3   1 1021.22  119.87
  -2   3   1 1038.84  316.15
   2  -3  -1 1115.95  125.71
  -2   3   1 1048.67  101.11
  -2   3   016977.10  249.83
   2  -3   016841.76  243.84
  -2   3   016347.82  469.70
  -2   3   016149.67  389.32
  -2   3   016554.66  402.47
  -2   3   017179.61  461.70
  -2   3   016449.49  351.65
  -2   3  -197462.40  675.64
   2  -3   198384.25  644.46
  -2   3  -197669.28  933.53
  -2   3  -197589.12  934.23
  -2   3  -197326.23  974.83
   2  -3   199041.62  585.16
  -2   3  -195636.60  961.00
  -2   3  -251288.44  531.88
   2  -3   251500.12  528.63
  -2   3  -252004.29  699.70
  -2   3  -250776.59  708.47
  -2   3  -250691.59  715.33
  -2   3  -3  270.83   60.79
   2  -3   3  416.36   62.15
  -2   3  -3  284.78   63.16
  -2   3  -3  366.03   65.23
  -2   3  -3  322.96   68.41
   2  -3   4 2548.77  154.63
  -2   3  -4 2995.61  177.64
   2  -3   5 1585.79  319.41
  -2   3  -5 1358.94  115.14
   2  -3   6   69.42   58.91
  -2   3  -6   33.17   18.47
   2  -3   715751.93  512.03
  -2   3  -717125.93  466.73
   2  -3   8  429.99  146.38
  -2   3  -8  351.17   80.80
   2  -3   9 1479.74  325.30
   2  -3  10 9102.69 1278.45
   2  -3  11 8771.38 1498.57
  -2   2  11 2555.66  262.14
  -2   2  10 1157.96  184.31
  -2   2  10 1246.14  358.98
  -2   2   9 2232.78  222.70
  -2   2   9 1781.05  570.75
  -2   2   8 8502.84  382.29
  -2   2   8 8365.65  235.40
  -2   2   8 7784.15  753.33
   2  -2  -725221.69  602.73
  -2   2   726119.52  485.60
  -2   2   724713.98  781.90
   2  -2  -6 6577.51  302.45
  -2   2   6 6352.87  264.63
   2  -2  -6 6338.28  226.89
  -2   2   6 6403.18  467.18
   2  -2  -582302.13  945.86
  -2   2   579976.60  908.88
   2  -2  -580040.31  509.67
   2  -2  -459258.33  714.97
  -2   2   460843.93  811.52
  -2   2   456730.66  839.49
  -2   2   313149.85  311.12
   2  -2  -313288.97  308.09
  -2   2   314040.79  335.57
  -2   2   313880.79  375.91
  -2   2   2 3594.76  148.79
   2  -2  -2 3814.37  151.50
  -2   2   2 3793.50  178.36
  -2   2   2 3813.27  188.32
  -2   2   128705.91  475.45
   2  -2  -129454.56  480.47
  -2   2   128084.01  563.57
  -2   2   058645.30  784.93
   2  -2   057519.83  770.49
   2  -2   056503.47  819.11
  -2   2   058795.66  854.71
   2  -2   056171.08  827.16
  -2   2   057841.57  853.97
  -2   2   057469.86  895.33
  -2   2  -1103438.4 1253.87
   2  -2   1104445.7 1265.49
   2  -2   1102057.4 1326.86
  -2   2  -1101956.6 1286.56
  -2   2  -1104066.9 1312.70
  -2   2  -1101435.6 1372.13
  -2   2  -2  702.26  240.49
   2  -2   2  946.13   85.45
   2  -2   2  687.41  194.79
  -2   2  -2  981.29   88.79
  -2   2  -2 1070.75  105.38
   2  -2   341354.85  568.11
  -2   2  -339632.25  635.00
   2  -2   420911.47  442.22
   2  -2   552136.12  768.92
   2  -2   6  699.03  163.18
   2  -2   8 9343.25  959.24
   2  -2   9 3288.58  737.84
   2  -2  1020482.95 2140.76
   2  -2  11 4391.59 1305.19
  -2   1  12 2675.17  305.76
  -2   1  1120916.35  732.73
  -2   1  1121980.55  865.70
  -2   1  1020258.69  672.16
  -2   1  1021058.11  656.26
  -2   1   9 1531.23  460.93
   2  -1  -811079.70  439.26
   2  -1  -811571.33  289.30
  -2   1   811571.01  473.93
   2  -1  -7 3101.06  225.99
   2  -1  -7 2341.00  321.57
  -2   1   7 3111.33  159.52
   2  -1  -7 2881.46  405.31
  -2   1   7 3860.62  503.92
   2  -1  -610290.47  368.74
   2  -1  -6 8642.28  491.01
  -2   1   6 9804.02  358.91
   2  -1  -6 9587.99  245.61
  -2   1   610628.33  398.38
   2  -1  -5 4590.81  228.22
   2  -1  -5 4298.44  171.19
  -2   1   5 4779.50  257.37
   2  -1  -4 9198.24  296.04
  -2   1   4 9623.41  318.25
   2  -1  -318664.25  385.29
  -2   1   2 3921.48  174.46
   2  -1  -2 4366.34  182.58
  -2   1   1183672.5 2090.61
  -2   1   1183782.5 2033.09
  -2   1   0   71.13   42.68
   2  -1   0   11.78   23.15
  -2   1   0    2.15   19.33
   2  -1   0   -0.05    7.59
  -2   1   0   33.00   39.61
  -2   1  -143944.93  687.75
   2  -1   144619.93  692.97
   2  -1   145069.32  634.24
  -2   1  -145692.37  632.22
   2  -1   144919.70  509.33
  -2   1  -145862.54  742.95
   2  -1   278991.57 1078.56
   2  -1   281958.82 1017.37
  -2   1  -280993.48 1009.64
  -2   1  -279987.38 1125.99
   2  -1   311696.62  318.89
   2  -1   5 2273.34  176.75
   2  -1   622286.60  552.14
   2  -1   7 1886.38  424.12
   2  -1   828931.19  797.17
   2  -1   917547.27  876.86
   2  -1  10 7878.63  833.61
   2  -1  11 1686.45  412.90
   2  -1  12 1099.09  351.04
  -2   0  12 3171.53  329.76
  -2   0  11 1909.75  256.73
  -2   0  11 1201.51  509.04
  -2   0  10    0.54   56.19
   2   0  -9 4778.69  317.66
   2   0  -9 4582.80  276.29
  -2   0   9 4870.59  303.90
   2   0  -8  323.06   93.16
   2   0  -8  253.94   95.24
  -2   0   8  292.87   74.96
   2   0  -7  721.20  120.53
  -2   0   7  506.84   50.02
   2   0  -7  474.69  138.88
  -2   0   7  616.57  179.23
   2   0  -662439.12  940.98
   2   0  -663560.34  743.98
  -2   0   661934.48 1202.14
   2   0  -5 2167.79  164.24
  -2   0   5 2112.50  156.26
   2   0  -420116.05  456.48
   2   0  -3  222.29   55.88
   2   0  -286724.69 1187.50
   2   0  -1 1002.19   96.22
   2   0  -1  953.43  110.78
   2   0   114390.04  360.78
   2   0   114388.82  223.22
  -2   0  -114266.78  222.84
   2   0   114421.02  272.61
   2   0   114027.07  343.62
  -2   0  -114541.68  347.15
   2   0   222750.59  487.97
   2   0   223324.89  346.76
   2   0   222456.89  390.17
  -2   0  -223237.40  473.13
   2   0   3 8430.30  284.38
   2   0   419529.11  460.28
   2   0   519379.89  496.36
   2   0   6 4896.00  276.27
   2   0   7 6029.68  319.61
   2   0   8 1919.07  200.22
   2   0   9 3227.16  272.03
   2   0  10  132.62   99.45
   2   0  11 8011.55  468.25
   2   0  12 1217.09  223.10
  -2  -1  11 1032.82  195.66
  -2  -1  11  474.30  163.91
   2   1 -10 1016.69  167.79
   2   1 -10  647.92  182.71
  -2  -1  10  813.56  249.26
   2   1  -9  188.91   92.90
   2   1  -9  142.89   71.57
  -2  -1   9  105.49   57.57
   2   1  -814813.11  539.17
   2   1  -815057.49  456.26
  -2  -1   815379.83  477.63
   2   1  -7  140.16   62.93
   2   1  -7   31.99   20.08
   2   1  -6 7947.34  362.86
   2   1  -6 8841.87  329.54
  -2  -1   6 8969.77  347.82
   2   1  -5 1821.50  158.23
   2   1  -4 7710.97  296.38
   2   1  -3 8511.31  297.69
   2   1  -240029.41  609.18
   2   1  -1 8139.49  279.57
  -2  -1   1 8147.17  242.45
   2   1  -1 7982.09  246.05
   2   1   046246.80  772.84
  -2  -1   046435.02  715.94
   2   1   045250.36  693.86
   2   1   1  378.60   70.68
  -2  -1  -1  259.99   43.30
   2   1   1  203.42   90.80
   2   1   1  295.59   45.89
  -2  -1  -1  243.00   76.77
   2   1   229055.64  520.64
   2   1   229191.34  445.31
  -2  -1  -229274.37  441.76
   2   1   3 2476.29  166.13
   2   1   3 2528.65  142.22
  -2  -1  -3 2273.69  134.55
   2   1   418146.70  462.09
   2   1   535963.75  696.54
   2   1   611968.46  458.06
   2   1   7  877.70  145.11
   2   1   8 3431.18  267.65
   2   1   911722.29  507.21
   2   1  10   92.79   73.37
   2   1  11    3.84   56.52
   2   2 -11  123.81   74.09
   2   2 -10 3697.80  306.95
   2   2 -10 2824.05  936.37
  -2  -2  10 3710.89  296.89
   2   2  -9 1910.60  215.86
   2   2  -9 1503.65  434.14
  -2  -2   9 1687.28  402.50
   2   2  -8 4608.34  308.75
   2   2  -8 3979.36  929.72
  -2  -2   8 4941.87  275.13
   2   2  -7 2268.86  206.32
   2   2  -7 2506.16  602.48
  -2  -2   7 2526.79  181.19
   2   2  -6160357.5 2670.66
   2   2  -6162153.1 1451.41
   2   2  -5 2757.17  205.79
   2   2  -456848.36  853.89
   2   2  -342216.51  692.74
   2   2  -236860.46  624.32
   2   2  -195437.78  979.73
   2   2  -194415.64  791.21
   2   2   011400.57  335.56
  -2  -2   011201.49  159.53
   2   2   011119.94  154.30
   2   2   011199.28  251.89
   2   2   1 1934.02  144.22
   2   2   1 1034.87  335.33
  -2  -2  -1 1966.53  145.29
   2   2   2   84.54   50.48
   2   2   2    2.26    7.33
  -2  -2  -2   14.01    9.51
   2   2   2    3.36   30.86
  -2  -2  -2   11.91   17.26
   2   2   353922.88  782.39
  -2  -2  -354878.43  467.34
  -2  -2  -354901.91  604.89
   2   2   4   28.28   44.81
   2   2   4   92.54   46.80
   2   2   5 7560.06  346.96
   2   2   613524.08  501.60
   2   2   713474.92  497.72
   2   2   8 4759.30  319.29
   2   2   918913.19  658.43
   2   2  10  702.74  150.01
   2   2  11 1412.01  229.07
   2   3 -11  173.45  106.50
   2   3 -11  135.82   86.62
   2   3 -1014278.45  624.19
   2   3 -1014150.55  556.81
   2   3  -9 3657.26  306.73
   2   3  -9 2803.66  795.07
   2   3  -8  165.93   91.34
   2   3  -8   55.08   25.89
  -2  -3   8   57.88   45.74
   2   3  -7 1025.93  148.14
   2   3  -7  689.50  165.91
  -2  -3   7  818.31  102.45
   2   3  -6   35.19   48.54
   2   3  -6  106.40   47.92
   2   3  -530311.93  793.36
   2   3  -412670.65  452.45
   2   3  -347982.12  787.63
   2   3  -2   81.01   49.77
   2   3  -1 5189.95  247.19
  -2  -3   1 4767.42  336.51
   2   3  -1 4584.07  393.18
   2   3   0  132.59   57.36
  -2  -3   0   28.75   18.92
   2   3   0   14.77   16.60
   2   3   0   82.19   26.06
   2   3   1 1398.96  132.83
   2   3   1 1413.36  130.74
   2   3   2  624.61   97.25
   2   3   2  435.09   44.64
  -2  -3  -2  570.17   52.51
   2   3   2  696.41  191.57
  -2  -3  -2  513.97   94.16
   2   3   3 1666.82  158.15
   2   3   3 1412.29  282.30
  -2  -3  -3  989.98  230.69
   2   3   3 1496.78  378.32
  -2  -3  -3 1309.87  249.61
   2   3   4 1632.30  162.34
   2   3   4 1834.80  117.84
  -2  -3  -4 1111.69  278.76
   2   3   4 1717.16  455.37
  -2  -3  -4 1645.94  113.72
   2   3   5  872.44  130.31
   2   3   5  995.40  129.34
   2   3   6 7234.85  357.57
   2   3   6 7104.00  346.14
   2   3   7 8716.58  412.74
   2   3   7 8929.17  408.39
   2   3   820545.20  667.06
   2   3   9 4621.42  343.51
   2   3  10 2304.02  266.03
   2   3  11  386.64  181.49
   2   4 -10  559.29  166.79
   2   4 -10  288.06  128.03
   2   4  -9 3893.94  328.22
   2   4  -9 3117.15 1021.56
   2   4  -812128.19  528.15
   2   4  -812512.74  683.47
   2   4  -7 2107.92  217.04
   2   4  -7 2282.78  506.53
   2   4  -6 2355.43  222.27
   2   4  -6 2716.63  230.37
   2   4  -518676.97  560.89
   2   4  -4 6071.40  309.63
   2   4  -3 3157.29  221.64
   2   4  -2  596.49   98.84
   2   4  -2  650.93   81.62
   2   4  -1  536.51   94.18
  -2  -4   1  555.08  115.03
   2   4  -1  650.85  136.94
   2   4  -1  472.95  103.19
   2   4   0  127.44   60.83
  -2  -4   0   29.03   20.29
   2   4   189658.99 1600.81
   2   4   192698.41 1688.14
   2   4   210804.11  404.96
   2   4   211243.60  305.71
   2   4   211705.34  583.41
   2   4   3  932.68  123.99
   2   4   3  784.24  170.97
  -2  -4  -3  472.22  135.51
   2   4   3  810.45  165.18
  -2  -4  -3  616.08  100.48
   2   4   4 2878.94  216.97
   2   4   4 2192.65  316.99
   2   4   4 2784.40  608.92
  -2  -4  -4 2070.11  234.88
   2   4   5 1877.81  186.75
   2   4   5 1475.03  331.28
   2   4   5 1930.85  343.25
  -2  -4  -5 1899.58  121.96
   2   4   6 2352.26  216.63
   2   4   6 2578.47  175.71
   2   4   6 2400.92  520.72
   2   4   721386.17  660.67
   2   4   720982.56  668.56
   2   4   8  637.03  151.03
   2   4   8  626.31  131.79
   2   4   9  127.11   96.53
   2   4   9   63.98   58.02
   2   4  10  645.99  166.70
   2   4  10  403.25  119.55
   2   5  -9 8547.71  488.70
   2   5  -9 7210.36 1421.89
   2   5  -8  183.05   96.70
   2   5  -8   40.42   70.81
   2   5  -7 1764.75  213.38
   2   5  -7 1465.64  437.06
   2   5  -6 5385.15  336.94
   2   5  -6 5203.79 1183.17
   2   5  -5 8757.99  403.56
   2   5  -5 8735.07  426.38
   2   5  -4   78.93   62.77
   2   5  -3 2422.14  204.91
   2   5  -3 2374.64  176.07
   2   5  -2   23.67   39.08
   2   5  -2    4.15   18.54
   2   5  -1   25.18   40.24
   2   5  -1   17.83   23.10
   2   5   0  369.84   85.04
   2   5   0  313.08   81.36
   2   5   1 6390.23  306.15
   2   5   1 6001.40  324.67
   2   5   235265.63  717.75
   2   5   234525.85  776.71
   2   5   3  364.32   90.34
   2   5   3  132.39   51.28
   2   5   4 7518.04  357.38
   2   5   4 6811.63  479.46
   2   5   4 6839.32  685.78
   2   5   5   50.60   58.26
   2   5   5   41.89   32.49
   2   5   5   25.92   74.88
   2   5   619969.28  630.11
   2   5   620690.38  550.80
   2   5   619587.60 1355.53
   2   5   7 1553.99  196.99
   2   5   7 1439.00  229.74
   2   5   8  542.60  133.33
   2   5   8  270.35   72.50
   2   5   9  429.55  136.33
   2   6  -8 1274.11  195.37
   2   6  -8  734.19  284.05
   2   6  -7   23.45   55.22
   2   6  -7   31.71   51.27
   2   6  -6  191.10   81.68
   2   6  -6  358.95   87.38
   2   6  -6  401.18  131.76
   2   6  -5 6922.49  383.61
   2   6  -5 6317.58  335.77
   2   6  -5 6960.98  411.01
   2   6  -4 3463.85  262.38
   2   6  -4 2792.93  217.09
   2   6  -4 3227.02  276.72
   2   6  -3  360.47   97.80
   2   6  -3  199.67   46.12
   2   6  -1 1269.77  153.60
   2   6  -1  955.92  216.78
   2   6   0 3444.68  244.39
   2   6   0 2549.91  493.32
   2   6   135286.82  751.48
   2   6   2 3190.39  235.54
   2   6   2 2957.69  257.60
   2   6   3 5704.43  316.41
   2   6   3 6195.93  268.12
   2   6   3 5720.38 1025.05
   2   6   4 5495.82  321.04
   2   6   4 4329.13  885.04
   2   6   5 2334.70  228.87
   2   6   5 2439.86  478.90
   2   6   6 1027.92  166.00
   2   6   6 1229.43  260.11
   2   6   7  730.18  154.26
   2   6   7  552.62  154.90
   2   6   8   79.37   69.28
   2   6   8   83.40   66.09
   2   7  -6 1334.82  186.29
   2   7  -6  887.81  146.53
   2   7  -6 1112.21  167.09
   2   7  -6 1259.36  338.79
   2   7  -5 2323.52  236.82
   2   7  -5 2746.63  246.69
   2   7  -5 2580.72  234.99
   2   7  -5 2298.27  706.73
   2   7  -4 2914.05  248.27
   2   7  -4 3109.81  267.12
   2   7  -4 1895.58  448.16
   2   7  -4 2471.44  264.67
   2   7  -311102.09  458.90
   2   7  -3 8987.08 1263.70
   2   7  -311507.86  538.24
   2   7  -2 6519.05  350.78
   2   7  -2 4428.17  953.73
   2   7  -1 5075.34  307.70
   2   7   0   66.41   52.99
   2   7   1 1534.82  180.88
   2   7   223573.88  656.02
   2   7   3   97.63   71.53
   2   7   3  110.24   68.76
   2   7   4 3138.55  256.47
   2   7   4 2907.73  355.58
   2   7   5  233.27   96.68
   2   7   5  464.05  128.33
   2   7   6   63.17   55.24
   2   7   6   60.07   66.97
   2   8  -3  130.59   72.62
   2   8  -3  153.15   85.71
   2   8  -2  240.56   95.20
   2   8  -2  104.87   75.64
   2   8  -1   51.35   50.42
  -3   9   2 1060.99  197.83
  -3   9   2 1022.01  181.46
  -3   9   1  327.66  125.58
  -3   9   1   83.69   67.82
  -3   9   0  144.27   90.92
  -3   9   0    1.99   39.77
  -3   9  -1  802.97  224.31
  -3   9  -1 1169.54  194.10
  -3   9  -2  127.18   77.91
  -3   9  -2   25.07   63.00
  -3   8   5 1699.90  305.68
  -3   8   5 1438.96  202.28
  -3   8   4  636.85  157.46
  -3   8   4  736.63  145.32
  -3   8   3   50.76   53.00
  -3   8   3   60.72   53.38
  -3   8   2 4496.94  346.50
  -3   8   2 4309.25  336.17
  -3   8   1 1400.36  204.78
  -3   8   1 1390.14  203.55
  -3   8   1 1322.56  190.44
  -3   8   0  167.22   86.09
  -3   8   0   45.56   66.19
  -3   8   0   33.56   45.25
  -3   8  -1 2686.56  687.08
  -3   8  -1 3433.22  301.35
  -3   8  -217732.08  737.63
  -3   8  -217429.86  669.65
  -3   8  -216709.16  920.54
  -3   8  -3 1247.20  343.03
  -3   8  -3 1491.74  199.38
  -3   8  -3 1658.67  280.10
  -3   8  -4 7465.09 1529.27
  -3   8  -4 8515.84  468.41
  -3   8  -4 8217.23  825.11
  -3   8  -5 1172.51  289.94
  -3   8  -5 2001.51  239.34
  -3   8  -5 1301.73  276.67
  -3   7   7  751.46  122.59
  -3   7   7  470.37  120.70
  -3   7   6 4028.03  742.05
  -3   7   6 4375.99  319.21
  -3   7   6 2931.20  641.59
  -3   7   5 3543.28  596.48
  -3   7   5 3268.17  273.09
  -3   7   5 2666.31  435.99
  -3   7   4 4927.30  924.78
  -3   7   4 5418.05  351.25
  -3   7   4 4231.93  670.01
  -3   7   4 4202.17  959.82
  -3   7   3 5902.29 1067.36
  -3   7   3 6155.42  370.70
  -3   7   3 5592.53  339.77
  -3   7   3 5654.83  410.10
  -3   7   2 1782.92  379.27
  -3   7   2 1928.42  213.26
  -3   7   2 1603.58  369.48
  -3   7   1  337.70   98.13
  -3   7   1  167.35   77.15
  -3   7   1  172.53   52.83
  -3   7   1  221.53  111.84
  -3   7   0 3129.45  268.13
  -3   7   0 2594.26  628.02
  -3   7   0 2721.24  541.51
  -3   7   0 2048.16  472.02
  -3   7  -1  122.26   79.62
  -3   7  -1   75.97  103.06
  -3   7  -1   71.49   55.86
  -3   7  -1   97.30   65.60
  -3   7  -2 3081.77  794.01
  -3   7  -2 3287.35  528.57
  -3   7  -2 3004.88  622.63
  -3   7  -3 2676.99  562.34
  -3   7  -3 2188.52  508.54
  -3   7  -3 2824.47  512.80
  -3   7  -411243.96  810.32
  -3   7  -410855.77  592.55
  -3   7  -410367.34 1487.96
  -3   7  -5 1817.86  512.55
  -3   7  -5 1673.85  168.27
  -3   7  -5 1531.91  278.06
  -3   7  -6  803.29  270.55
  -3   7  -6  814.18  145.53
  -3   7  -6  889.08  196.33
  -3   7  -7   78.93   45.49
  -3   7  -7  145.02   74.63
  -3   7  -7   81.85   61.42
  -3   6   8 4463.30  352.31
  -3   6   8 4367.45  303.47
  -3   6   8 4807.60  416.62
  -3   6   7  579.75  129.06
  -3   6   7  630.09  116.65
  -3   6   7  592.97  116.42
  -3   6   7  634.15  187.37
  -3   6   6  614.91  156.66
  -3   6   6  612.25  118.37
  -3   6   6  429.01  141.71
  -3   6   6  805.47  163.84
  -3   6   5  404.82   73.89
  -3   6   5  399.97   98.29
  -3   6   5  297.18   81.62
  -3   6   5  231.54  132.65
  -3   6   4 8167.01 1318.25
  -3   6   4 7330.93  701.71
  -3   6   4 6894.60  684.74
  -3   6   4 7619.80 1285.12
  -3   6   3 1030.03  246.10
  -3   6   3  807.33  223.44
  -3   6   3  756.89  133.69
  -3   6   3  738.17  153.21
  -3   6   235519.71  952.03
  -3   6   235254.23  924.14
  -3   6   235410.81 1902.38
  -3   6   1   70.27   70.21
  -3   6   1  118.61   68.52
  -3   6   1   66.52   74.12
  -3   6   1   18.21   39.26
  -3   6   064033.71 1087.89
  -3   6   065835.80 1181.77
  -3   6   063602.04 1143.62
  -3   6   065882.97  969.71
  -3   6  -1 4098.22  282.62
  -3   6  -1 4679.52  831.78
  -3   6  -1 4273.71  635.19
  -3   6  -1 4260.06  769.68
  -3   6  -1 3984.73  468.64
  -3   6  -2 5170.24  693.81
  -3   6  -2 5490.88  692.81
  -3   6  -2 4687.82  890.59
  -3   6  -2 4836.44  653.39
  -3   6  -3 6635.23  462.42
  -3   6  -3 5548.55 1243.61
  -3   6  -3 6336.25  577.54
  -3   6  -4    3.62   40.20
  -3   6  -4   26.22   76.54
  -3   6  -4    6.05   62.56
  -3   6  -5  415.80  113.77
  -3   6  -5  336.26  101.57
  -3   6  -5  326.37   77.34
  -3   6  -6 9092.76  461.69
  -3   6  -6 7036.25 1446.69
  -3   6  -6 9247.10  466.04
  -3   6  -7  883.34  156.27
  -3   6  -7  789.78  223.00
  -3   6  -7 1095.49  176.64
  -3   6  -8  403.78  119.37
  -3   6  -8  118.18   93.72
  -3   6  -8  424.66  131.39
  -3   5   9   47.72   47.96
  -3   5   811287.50  532.90
  -3   5   811503.79  436.98
  -3   5   8 9973.28  898.48
  -3   5   7  473.77  127.73
  -3   5   7  547.01  128.69
  -3   5   7  507.00   98.82
  -3   5   7  785.84  215.52
  -3   5   617373.78  455.85
  -3   5   618522.89  636.74
  -3   5   618280.82  787.86
  -3   5   618430.12 1074.97
  -3   5   5 9256.16  790.67
  -3   5   5 9273.90  436.95
  -3   5   5 8883.48  335.15
  -3   5   5 9345.47  684.01
  -3   5   4 7877.44  249.16
  -3   5   4 8171.33  915.99
  -3   5   4 8422.71  537.52
  -3   5   4 8505.38  598.15
  -3   5   4 7566.05  636.12
   3  -5  -3  164.18   34.25
  -3   5   3  120.27   99.94
  -3   5   3  134.30   59.10
  -3   5   3  149.83   44.67
  -3   5   3  217.09   65.46
   3  -5  -2   55.02   21.11
  -3   5   2    2.25   59.08
  -3   5   2   26.78   28.98
  -3   5   2   11.89   48.73
   3  -5  -111151.94  182.44
  -3   5   111228.57  708.14
  -3   5   110730.52  416.11
  -3   5   111798.58  802.48
  -3   5   111403.59  524.94
   3  -5   0 8607.19  160.45
  -3   5   0 8499.31  366.33
  -3   5   0 8694.99  572.99
  -3   5   0 9128.66  408.17
  -3   5   0 8915.31  863.96
  -3   5   0 9106.59  643.66
   3  -5   152633.09  462.52
  -3   5  -152047.05  903.03
  -3   5  -153180.20  962.69
  -3   5  -152420.06 1069.16
  -3   5  -151691.86  921.83
  -3   5  -153427.44  801.61
   3  -5   230274.91  413.32
  -3   5  -229621.41  696.89
  -3   5  -230287.70  840.92
  -3   5  -230605.17  704.83
  -3   5  -230174.43  621.77
   3  -5   3   10.52   18.19
  -3   5  -3   23.26   17.11
  -3   5  -3   13.66   51.49
   3  -5   4 3990.02  194.13
  -3   5  -4 4062.72  692.59
  -3   5  -4 3686.39  816.01
  -3   5  -4 3737.82  866.38
  -3   5  -4 3899.57  380.60
   3  -5   5 6070.74  268.60
  -3   5  -5 6508.31  353.06
  -3   5  -5 6001.71 1264.55
  -3   5  -5 6368.95  360.58
   3  -5   6  342.19   83.67
  -3   5  -6  283.24   87.42
  -3   5  -6  207.10   61.35
  -3   5  -6  320.21   94.45
   3  -5   7  110.21   67.58
  -3   5  -7  142.01   66.46
  -3   5  -7   25.42   49.96
  -3   5  -7  139.88   82.66
   3  -5   8 2973.25  251.56
  -3   5  -8 1869.67  603.54
  -3   5  -8 3289.72  306.08
   3  -5   9 5070.23  337.54
  -3   4  10  430.42  174.36
  -3   4  10  423.75  146.74
  -3   4   9  491.79  129.73
  -3   4   9  325.94  116.38
  -3   4   8 1365.33  174.82
  -3   4   8 1442.66  144.85
  -3   4   8 1224.25  379.57
  -3   4   7 6100.88  308.14
  -3   4   7 5815.42  291.30
  -3   4   7 5910.54  651.23
   3  -4  -6 6446.32  285.28
  -3   4   6 6442.16  463.64
  -3   4   6 6158.33  500.13
   3  -4  -5  214.91   65.43
  -3   4   5  167.32   74.02
  -3   4   5   56.41   59.61
  -3   4   5  113.22   98.66
   3  -4  -440742.77  609.77
  -3   4   440043.95  808.42
  -3   4   440503.84  963.42
  -3   4   439400.31  912.70
   3  -4  -343404.99  818.29
  -3   4   343006.83  995.58
  -3   4   343491.84 1177.86
   3  -4  -340221.56  812.30
  -3   4   343076.39 1010.56
  -3   4   2 6232.07  227.04
   3  -4  -2 6918.23  232.40
  -3   4   2 6653.69  639.05
  -3   4   2 7144.04  355.28
  -3   4   2 6932.18  321.28
  -3   4   2 6799.18  338.22
  -3   4   161774.62 1026.93
   3  -4  -164273.52 1050.34
  -3   4   163413.25 1279.19
  -3   4   164961.95 1309.48
  -3   4   165475.76 1261.18
  -3   4   038713.95  705.76
   3  -4   041798.68  743.02
  -3   4   041584.03  915.74
  -3   4   040843.84  942.32
  -3   4   040072.21  937.89
  -3   4   040504.74  935.66
  -3   4   041628.68  885.50
  -3   4  -1 6626.25  417.22
   3  -4   1 7842.25  247.63
  -3   4  -1 7840.71  336.07
  -3   4  -1 7791.34  369.87
  -3   4  -1 8196.04  369.40
  -3   4  -1 8210.01  734.74
   3  -4   2 1559.76  115.46
  -3   4  -2 1382.54  392.40
  -3   4  -2 1525.84  158.37
  -3   4  -2 1368.98  408.22
   3  -4   3 4904.55  221.29
  -3   4  -3 5264.68  378.88
  -3   4  -3 5111.28  290.57
  -3   4  -3 5237.39  421.59
   3  -4   419658.45  454.29
  -3   4  -419461.42  535.73
  -3   4  -419111.27  545.17
  -3   4  -418432.06  559.00
   3  -4   516806.75  463.19
  -3   4  -515497.21  497.82
  -3   4  -514725.10  614.38
  -3   4  -515299.93  531.80
   3  -4   6 1177.71  146.41
  -3   4  -6 1365.89  159.39
  -3   4  -6  940.07  238.27
  -3   4  -6 1166.87  166.51
   3  -4   7 3409.13  251.97
  -3   4  -7 2857.12  670.33
  -3   4  -7 3421.06  288.46
   3  -4   8 6208.07  355.00
  -3   4  -8 4731.85  738.07
   3  -4   9  797.45  144.88
   3  -4  10 1398.76  198.61
  -3   3  1013955.99  586.80
  -3   3  1013518.05  595.73
  -3   3   9 3567.44  288.92
  -3   3   9 3607.02  776.78
   3  -3  -8 1850.28  188.14
  -3   3   8 1652.89  491.77
   3  -3  -717144.91  527.35
  -3   3   718704.18  491.37
  -3   3   715869.54  620.29
   3  -3  -6 5414.30  277.26
  -3   3   6 6279.80  291.92
  -3   3   6 6101.33  354.34
   3  -3  -5 9008.40  331.51
  -3   3   5 9358.03  512.22
  -3   3   510316.65 1206.23
   3  -3  -4 5856.59  260.09
  -3   3   4 6288.75  314.58
  -3   3   4 6207.02  332.47
  -3   3   4 6060.62  324.79
   3  -3  -3  896.70   95.03
  -3   3   3  989.22  117.96
  -3   3   3  943.65  115.49
  -3   3   3 1017.46  124.86
   3  -3  -212828.64  320.25
  -3   3   212037.21  406.84
  -3   3   212356.22  399.01
  -3   3   212522.05  221.14
  -3   3   211645.08  391.99
   3  -3  -118833.70  378.07
  -3   3   118424.60  463.92
   3  -3   0 9441.90  267.11
  -3   3   0 9464.72  476.00
  -3   3   0 9456.31  329.48
  -3   3   0 9605.97  456.87
   3  -3   1 2773.40  152.44
  -3   3  -1 2809.06  173.40
  -3   3  -1 3055.12  402.89
  -3   3  -1 2877.73  261.03
   3  -3   2  430.21   67.18
  -3   3  -2  495.68  103.02
  -3   3  -2  387.94  204.54
   3  -3   3 3723.64  203.01
  -3   3  -3 3148.28  235.50
  -3   3  -3 3786.71  628.59
   3  -3   4 2465.83  176.41
  -3   3  -4 2437.48  176.21
  -3   3  -4 2653.07  215.08
   3  -3   511220.60  390.38
  -3   3  -510729.70  434.81
   3  -3   6 3964.80  252.56
  -3   3  -6 4403.55  297.75
   3  -3   7  188.18   78.59
  -3   3  -7   97.61   48.77
   3  -3   8  -11.57   42.64
  -3   3  -8   33.51   29.89
   3  -3   915046.74  580.15
   3  -3  10 9784.15  502.06
  -3   2  11  -16.54   61.50
  -3   2  11   51.34   67.29
  -3   2  10  195.12  123.73
  -3   2  10   14.23   63.11
   3  -2  -9 2927.54  252.34
  -3   2   9 2718.87  845.33
   3  -2  -8 3634.98  267.76
  -3   2   8 3974.07  830.04
   3  -2  -712210.19  455.87
  -3   2   712100.68  370.44
  -3   2   711253.28  490.42
   3  -2  -6 2623.76  202.85
  -3   2   6 2548.79  325.64
  -3   2   6 2877.96  290.81
   3  -2  -545041.57  972.28
  -3   2   545549.87  938.42
  -3   2   544284.32 1030.48
   3  -2  -420119.65  547.16
  -3   2   419553.11  597.41
   3  -2  -3  417.69   71.38
  -3   2   3  458.31   76.61
   3  -2  -2 9165.56  294.53
  -3   2   2 8929.19  464.01
   3  -2  -1115383.9 1057.98
  -3   2   1115048.4 1030.89
   3  -2   0 3544.75  181.59
  -3   2   0 3617.72  270.71
  -3   2   0 3594.53  169.95
  -3   2   0 3872.67  227.11
   3  -2   1 1881.35  136.80
  -3   2  -1 1616.04  222.75
  -3   2  -1 1972.46  340.97
   3  -2   224165.41  491.14
  -3   2  -223565.61  441.61
  -3   2  -223936.90  553.31
   3  -2   320731.44  476.11
  -3   2  -320253.43  496.88
  -3   2  -321482.22  545.07
   3  -2   4 4510.95  251.19
  -3   2  -4 4330.47  215.61
  -3   2  -4 4446.28  267.89
   3  -2   512341.30  449.49
  -3   2  -512738.06  489.09
   3  -2   6 1510.62  168.27
   3  -2   730593.92  744.41
   3  -2   8 9927.43  455.13
   3  -2   9  186.42  104.23
   3  -2  10  123.82   94.49
   3  -2  11 1685.55  236.16
  -3   1  11   70.73   93.81
  -3   1  11   20.96   43.29
   3  -1 -10 4132.74  323.05
  -3   1  10 2479.88  970.50
   3  -1  -9   99.15   69.12
  -3   1   9   34.37   32.33
   3  -1  -8 1761.40  195.90
  -3   1   8 1512.10  419.59
   3  -1  -725245.62  670.31
  -3   1   724383.46  488.00
   3  -1  -724980.49  469.02
  -3   1   723559.18  665.90
   3  -1  -614276.72  475.41
  -3   1   614588.68  494.74
   3  -1  -5  408.77   92.94
  -3   1   5  204.37   64.44
   3  -1  -4 5034.39  261.83
   3  -1  -364393.59  865.29
   3  -1  -2 3970.26  208.69
  -3   1   2 3788.80  173.65
   3  -1  -1 3041.60  179.67
  -3   1   1 3301.67  342.00
   3  -1  -1 2900.56  166.06
  -3   1   1 3026.04  121.79
   3  -1   0  319.91   63.09
   3  -1   0  374.99   48.77
  -3   1   0  401.34  124.78
   3  -1   1133104.6 1222.77
  -3   1  -1135786.4 1994.26
  -3   1  -1135339.7 2228.97
   3  -1   211229.73  355.00
   3  -1   211462.36  253.51
  -3   1  -211631.58  265.00
   3  -1   210996.52  204.02
  -3   1  -210919.60  434.74
   3  -1   353732.61  809.17
   3  -1   353393.50  630.85
  -3   1  -354966.07  607.62
   3  -1   354807.11  544.91
  -3   1  -352262.04  826.44
   3  -1   4 9834.50  385.67
  -3   1  -410890.85  415.52
   3  -1   5    9.75   41.80
  -3   1  -5   27.18   36.20
   3  -1   637627.44  792.93
   3  -1   7 3792.95  275.93
   3  -1   8 8781.70  444.31
   3  -1   9   46.90   62.92
   3  -1  10  472.88  132.84
   3  -1  11  -17.95   67.88
   3   0 -11 2192.16  258.63
  -3   0  11 1297.79  683.40
   3   0 -10 1021.83  174.66
  -3   0  10  949.29  358.72
   3   0  -9 7113.86  417.25
  -3   0   9 7295.23  518.65
   3   0  -8  100.07   69.38
   3   0  -8  104.45   48.96
  -3   0   8  132.92   64.08
   3   0  -737839.04  844.70
  -3   0   739394.48  829.09
   3   0  -6 8894.61  392.57
  -3   0   6 9650.27  396.22
   3   0  -539470.67  931.88
   3   0  -412638.38  450.80
   3   0  -384966.41 1052.29
   3   0  -222939.11  527.03
   3   0  -1 3090.62  193.48
  -3   0   1 3123.29  141.84
   3   0  -1 3065.97  128.45
  -3   0   1 3169.67  210.20
   3   0   0108441.9 1143.33
  -3   0   0107260.4  606.35
  -3   0   0107061.7  796.56
   3   0   1 3613.39  210.86
  -3   0  -1 3348.61  324.37
   3   0   2 5838.73  271.21
   3   0   2 5883.14  124.65
  -3   0  -2 5902.04  140.04
   3   0   2 5733.57  190.07
  -3   0  -2 5631.89  250.56
   3   0   3 2039.01  170.07
   3   0   3 1648.40  246.95
  -3   0  -3 1920.95   89.24
   3   0   3 2025.83  165.14
  -3   0  -3 2164.91  304.36
   3   0   441210.80  939.53
   3   0   441361.43  809.38
  -3   0  -442517.04  931.43
   3   0   515194.65  530.99
  -3   0  -515193.56  512.22
   3   0   635966.26  795.28
   3   0   7  374.42  106.51
   3   0   8 2736.06  260.52
   3   0   9 2091.17  237.36
   3   0  10  884.50  167.93
   3   0  11 1545.41  230.03
   3   1 -10   27.13   54.80
  -3  -1  10   -1.02   36.09
   3   1  -9 8996.21  472.57
   3   1  -9 8377.37  378.76
  -3  -1   9 8380.07  499.94
   3   1  -8 6366.38  381.84
   3   1  -8 5329.54  943.33
  -3  -1   8 6338.63  772.60
   3   1  -7   40.38   55.90
  -3  -1   7   33.04   45.80
   3   1  -6  250.82  109.49
   3   1  -529652.25  693.08
   3   1  -4  358.63   83.54
   3   1  -316887.63  536.34
   3   1  -216550.91  475.13
   3   1  -123503.90  556.82
  -3  -1   124524.80  256.85
   3   1  -123666.34  251.41
   3   1   034488.88  670.63
   3   1   1 3648.83  221.94
  -3  -1  -1 3792.33  353.58
   3   1   2 7583.52  321.18
   3   1   2 7400.16  351.26
  -3  -1  -2 7286.34  311.51
   3   1   3  452.58  139.34
   3   1   4  844.36  131.91
   3   1   4  994.96  269.62
  -3  -1  -4  881.64  238.11
   3   1   5 5232.71  302.20
   3   1   5 4898.11  245.25
  -3  -1  -5 5166.74  268.07
   3   1   6  442.84  116.30
  -3  -1  -6  290.00   74.46
   3   1   7  732.12  149.40
   3   1   8 9954.64  480.63
   3   1   9 6688.28  419.25
   3   1  10 2492.53  274.64
   3   2 -10  108.08  119.47
  -3  -2  10  137.66   91.26
   3   2  -9  505.12  126.08
   3   2  -9  518.39  206.69
  -3  -2   9  631.77  290.97
   3   2  -8   85.82   63.75
   3   2  -8   -0.99   32.57
  -3  -2   8   80.34   56.75
   3   2  -7 2303.15  228.21
   3   2  -6  538.30  120.20
   3   2  -5   59.85   54.34
   3   2  -4 8603.40  380.73
   3   2  -3  838.68  132.74
   3   2  -215157.48  515.26
   3   2  -1  368.50   93.01
  -3  -2   1  279.16   41.30
   3   2  -1  219.90   45.58
   3   2   046383.19 1022.63
   3   2   1 8827.98  378.11
   3   2   272983.24 1423.05
   3   2   275221.64 1371.13
  -3  -2  -273687.25 1305.75
   3   2   325314.06  714.07
   3   2   327309.91  676.32
  -3  -2  -325683.23  664.28
   3   2   424036.87  634.65
   3   2   423260.51  264.46
   3   2   422771.46  570.81
  -3  -2  -423505.23  513.00
   3   2   5 4807.76  306.04
   3   2   5 5044.64  739.53
  -3  -2  -5 4679.43  243.33
   3   2   615255.87  549.98
   3   2   614977.12  490.31
  -3  -2  -616275.78  484.88
   3   2   7 6283.37  380.29
   3   2   7 6111.24  332.78
  -3  -2  -7 6642.80  331.96
   3   2   8  957.59  172.42
   3   2   8  497.99  108.40
   3   2   9   61.21   92.61
   3   2  10  165.50  118.80
   3   3  -9  235.02  105.27
   3   3  -9   65.90   59.47
   3   3  -822342.54  751.87
   3   3  -822259.78  860.55
  -3  -3   824593.55  668.05
   3   3  -7 2513.52  247.82
   3   3  -7 2190.63  212.69
   3   3  -616304.91  584.89
   3   3  -533801.44  803.03
   3   3  -4  901.66  137.43
   3   3  -317289.94  542.18
   3   3  -219770.33  568.86
   3   3  -1 1996.90  186.23
   3   3  -1 1602.93  272.87
   3   3   0   22.37   40.03
   3   3   111678.39  432.39
   3   3   221009.66  586.71
   3   3   220809.81  537.55
   3   3   315920.83  524.74
   3   3   315916.10  534.10
  -3  -3  -316461.07  423.44
   3   3   4 2633.51  224.28
   3   3   4 2507.28  701.52
  -3  -3  -4 2397.17  338.63
   3   3   5  203.77   90.64
   3   3   5  184.12   44.33
  -3  -3  -5  134.68   39.31
   3   3   6  114.95   92.86
   3   3   6   21.65   39.21
  -3  -3  -6   10.96   25.06
   3   3   715005.69  590.83
   3   3   714748.18  974.52
  -3  -3  -714889.01  474.40
   3   3   8 9483.45  499.68
   3   3   8 9573.36  592.61
   3   3   9  122.45   95.50
   3   3   9  151.41   76.01
   3   4  -9 2459.30  281.56
   3   4  -9 1321.50  792.60
   3   4  -8 3218.13  305.40
   3   4  -8 2295.37  904.70
   3   4  -724807.18  785.61
   3   4  -723415.06  724.74
   3   4  -6  171.41  107.39
   3   4  -5 5098.32  334.52
   3   4  -4 4697.95  309.26
   3   4  -3  138.99   82.75
   3   4  -2  368.25   96.35
   3   4  -2  352.10   81.53
   3   4  -1 7104.90  361.31
   3   4   022423.82  626.95
   3   4   1 2053.89  199.69
   3   4   2  336.55   98.12
   3   4   2  125.45   54.12
   3   4   3   91.39   71.62
   3   4   3  135.14   25.22
   3   4   430900.70  778.25
   3   4   429501.49  794.78
   3   4   510008.66  459.45
   3   4   510796.60  631.61
   3   4   6 1387.17  193.48
   3   4   6 1329.85  370.91
   3   4   713578.64  579.76
   3   4   714927.50  993.01
   3   4   8  579.79  152.00
   3   4   8  412.50  164.73
   3   5  -7 8329.36  474.82
   3   5  -7 7671.51  448.25
   3   5  -6 7889.15  439.29
   3   5  -5   92.65   77.76
   3   5  -4 5048.10  331.52
   3   5  -3  639.15  134.26
   3   5  -2 7557.87  391.87
   3   5  -111262.85  472.94
   3   5   0 4102.80  290.57
   3   5   1  411.96  109.64
   3   5   210878.14  466.40
   3   5   211685.86  485.27
   3   5   3 5838.43  349.94
   3   5   3 6125.51  360.70
   3   5   4   36.88   51.72
   3   5   4   23.29   68.50
   3   5   5  729.32  151.41
   3   5   5  350.72  215.10
   3   5   6  525.28  143.82
   3   5   6  134.80   73.55
   3   5   7  324.60  114.20
   3   5   7   60.80   59.58
   3   6  -6   98.59   74.06
   3   6  -6  175.82  100.60
   3   6  -5 4927.47  352.58
   3   6  -4  905.98  167.42
   3   6  -3 1646.01  202.80
   3   6  -2 6704.79  385.88
   3   6  -1 5733.86  354.81
   3   6   0 5482.59  348.65
   3   6   1   48.33   54.85
   3   6   2 7322.00  399.96
   3   6   3 2898.17  264.78
   3   6   3 2521.25  251.57
   3   6   4  941.34  161.93
   3   6   4  882.63  153.62
   3   6   5   89.27   64.68
   3   6   5  102.52   91.39
   3   6   6  186.47  101.32
   3   6   6   50.26   69.05
   3   7  -3  271.14  101.34
   3   7  -2  446.09  133.88
   3   7  -1 2744.18  263.70
   3   7   1 4846.35  339.87
   3   7   2 2461.13  253.06
   3   7   3  -26.74   44.94
  -4   8   3 3422.00  433.60
  -4   8   3 3706.39  327.95
  -4   8   3 2663.59  542.09
  -4   8   2  569.49  151.65
  -4   8   2  799.53  158.54
  -4   8   2  447.48  163.19
  -4   8   1   15.74   53.87
  -4   8   1   90.10   57.00
  -4   8   0  504.67  129.85
  -4   8   0  238.65  102.29
  -4   8  -119760.32 1174.98
  -4   8  -119988.31  836.90
  -4   8  -2   56.36   87.77
  -4   8  -2   22.98   64.56
  -4   8  -2  151.53  101.56
  -4   8  -3 1333.08  439.56
  -4   8  -3 1632.47  318.20
  -4   8  -3 1285.86  325.27
  -4   7   5  653.50  220.11
  -4   7   5  522.77  122.49
  -4   7   5  521.25  189.53
  -4   7   4 1275.29  258.64
  -4   7   4 1129.10  315.52
  -4   7   4 1040.74  306.86
  -4   7   3 1445.75  275.11
  -4   7   3 1114.27  492.77
  -4   7   3 1175.09  374.31
  -4   7   2  371.10  109.99
  -4   7   2  324.33  120.13
  -4   7   2  473.67  120.61
  -4   7   1  868.41  156.49
  -4   7   1  962.84  195.69
  -4   7   1  720.74  177.80
  -4   7   0   37.29   47.17
  -4   7   0   97.63   55.10
  -4   7   0   33.31   63.44
  -4   7   0   60.65   48.77
  -4   7  -1 1755.21  502.96
  -4   7  -1 1652.15  397.25
  -4   7  -210753.39  908.36
  -4   7  -211041.03 1081.48
  -4   7  -210835.09 1002.06
  -4   7  -314238.41 1210.39
  -4   7  -313962.77 1255.78
  -4   7  -313859.40 1206.80
  -4   7  -4 1711.51  516.84
  -4   7  -4 1924.70  370.55
  -4   7  -4 1756.80  327.65
  -4   7  -5 1170.38  331.60
  -4   7  -5  991.94  305.81
  -4   7  -5 1178.60  284.99
  -4   6   7 1442.40  373.41
  -4   6   7 1958.67  213.30
  -4   6   7 1469.16  392.17
  -4   6   6  552.82  106.05
  -4   6   6  345.52  158.66
  -4   6   6  500.70  234.26
  -4   6   5  963.29  202.83
  -4   6   5  850.68  267.89
  -4   6   5  810.59  175.58
  -4   6   4  539.01  112.16
  -4   6   4  371.91  132.13
  -4   6   3  487.71  130.70
  -4   6   3  404.34  163.55
  -4   6   3  359.27  135.32
  -4   6   2  648.47  163.99
  -4   6   2  374.37  109.50
  -4   6   2  315.12  131.10
  -4   6   1 5010.63  326.77
  -4   6   1 5222.07  474.25
  -4   6   1 5174.65  386.68
  -4   6   0 8504.93  420.64
  -4   6   0 8467.37  417.56
  -4   6   0 8546.02 1373.39
  -4   6   0 8767.86  822.00
  -4   6  -1   99.92   60.59
  -4   6  -1  107.98   76.98
  -4   6  -1  397.33   88.94
  -4   6  -1  293.77  106.59
  -4   6  -2   33.70   37.47
  -4   6  -2   18.64   45.63
  -4   6  -2   38.52   29.06
  -4   6  -2    2.66   41.18
  -4   6  -3 6971.83  670.44
  -4   6  -3 7540.79  673.02
  -4   6  -3 7177.70 1476.78
  -4   6  -4 4320.16  667.46
  -4   6  -4 4259.21  739.16
  -4   6  -4 4292.51  960.41
  -4   6  -5 1781.58  461.87
  -4   6  -5 2167.54  601.54
  -4   6  -5 2192.48  461.19
  -4   6  -6   50.85   57.82
  -4   6  -6  117.41   78.49
  -4   6  -6   23.17   58.11
  -4   6  -7  421.86  191.60
  -4   6  -7  134.98   73.48
  -4   5   8   90.94   65.69
  -4   5   8   54.11   55.07
  -4   5   7 1615.97  210.54
  -4   5   7  959.34  425.81
  -4   5   7 1346.72  280.16
  -4   5   6  508.51  139.08
  -4   5   6  584.70  149.43
  -4   5   6  643.08  139.70
  -4   5   5  373.54   93.77
  -4   5   5  373.71  129.39
  -4   5   5  455.06   97.29
  -4   5   4 3688.22  596.67
  -4   5   4 4144.78  571.29
  -4   5   4 3682.25  952.72
  -4   5   3 1025.10  176.33
  -4   5   3 1002.74  288.89
  -4   5   3  877.23  169.77
  -4   5   221415.07 1029.40
  -4   5   223299.98  756.05
  -4   5   222613.65  851.16
  -4   5   1 8580.94  541.71
  -4   5   1 8708.58  644.67
  -4   5   1 9067.64 1319.70
  -4   5   0  139.93   73.39
  -4   5   0  160.31   63.54
  -4   5   0   92.55   58.10
  -4   5   0  232.80   77.81
  -4   5  -1 9782.99  471.37
  -4   5  -1 9560.80  470.48
  -4   5  -110089.05  632.08
  -4   5  -1 9368.27  375.46
  -4   5  -2 3131.16  465.40
  -4   5  -2 3152.39  603.26
  -4   5  -2 3372.94  311.46
  -4   5  -2 3005.09  206.79
  -4   5  -3  156.33   56.09
  -4   5  -3   34.34   37.49
  -4   5  -3   18.39   61.18
  -4   5  -3  169.41   62.69
   4  -5   4  265.07   69.81
  -4   5  -4  268.30   79.59
  -4   5  -4  328.71   79.67
  -4   5  -4  350.45  115.80
  -4   5  -5 2136.67  787.09
  -4   5  -5 2553.60  717.10
  -4   5  -5 2694.65  590.91
  -4   5  -6 5701.14  502.75
  -4   5  -6 4777.94 1153.28
  -4   5  -6 5448.96 1345.41
  -4   5  -7  762.65  146.57
  -4   5  -7  501.43  184.98
  -4   5  -7  568.57  170.98
  -4   5  -8  925.78  161.01
  -4   5  -8  804.42  209.13
  -4   5  -8 1050.86  194.04
  -4   4   9   21.10   70.20
  -4   4   9  266.09  125.02
   4  -4  -8 1756.66  193.74
  -4   4   8 1415.49  198.26
  -4   4   8 1216.21  435.64
   4  -4  -7 2709.57  224.49
  -4   4   7 2686.72  259.37
  -4   4   7 2032.37  679.45
  -4   4   7 2227.99  520.37
   4  -4  -616796.89  512.61
  -4   4   616288.67  599.43
  -4   4   617768.99  591.16
  -4   4   617307.39 1713.03
   4  -4  -5   57.89   38.34
  -4   4   5  115.23   71.31
  -4   4   5   76.87   57.89
  -4   4   5   96.45   59.50
   4  -4  -4  668.97   96.75
  -4   4   4  540.56  176.09
  -4   4   4  688.27  212.14
  -4   4   4  769.00  212.76
   4  -4  -344886.99  703.25
  -4   4   343529.71 1089.41
  -4   4   343787.94  897.22
  -4   4   342814.04  902.25
   4  -4  -2   80.88   39.47
  -4   4   2   53.10   50.49
  -4   4   2  131.76   63.30
  -4   4   2  265.82   86.25
   4  -4  -116517.66  404.00
  -4   4   118040.99  892.00
  -4   4   117730.64  574.18
  -4   4   117459.15  537.34
   4  -4   012145.39  350.65
  -4   4   011393.31  408.61
  -4   4   010861.47  449.43
   4  -4   1  507.40   81.58
  -4   4  -1  525.71  140.69
  -4   4  -1  494.12  103.68
  -4   4  -1  572.89  133.00
   4  -4   2  117.90   46.95
  -4   4  -2   54.84   56.30
  -4   4  -2  154.47   65.91
  -4   4  -2   46.85   72.46
   4  -4   314863.57  425.74
  -4   4  -314726.56  550.32
  -4   4  -314327.71  524.43
  -4   4  -314549.75  950.88
   4  -4   4 5203.10  270.85
  -4   4  -4 4788.39  552.72
  -4   4  -4 4951.69  312.42
  -4   4  -4 5459.34  861.36
   4  -4   5  130.84   61.94
  -4   4  -5   56.88   46.65
  -4   4  -5  144.55   67.31
  -4   4  -5   12.37   44.02
   4  -4   6 1247.62  158.14
  -4   4  -6 1109.21  145.68
  -4   4  -6 1171.78  157.94
  -4   4  -6 1101.05  328.76
   4  -4   7 1927.04  206.10
  -4   4  -7 1607.01  185.63
  -4   4  -7 1259.22  166.92
  -4   4  -7 1775.13  224.23
   4  -4   823105.30  716.95
  -4   4  -823737.77  721.16
  -4   4  -822123.09  679.33
  -4   4  -823076.14  816.05
   4  -4   9 4993.44  362.81
  -4   4  -9 4472.99  330.89
  -4   4  -9 4637.89  391.63
   4  -3  -9 3342.35  283.81
  -4   3   9 2421.71  929.19
   4  -3  -8  106.44   61.15
  -4   3   8   72.72   52.44
   4  -3  -7 7708.49  385.98
  -4   3   7 7357.64  363.93
  -4   3   7 7324.46  800.40
   4  -3  -6 3302.13  239.27
  -4   3   6 2615.31  799.03
  -4   3   6 2829.50  696.02
   4  -3  -521280.25  571.02
  -4   3   519645.79  591.20
  -4   3   519735.65  573.72
  -4   3   519892.46  647.72
   4  -3  -411459.33  398.63
  -4   3   411774.70  666.67
  -4   3   412057.22  447.01
  -4   3   411237.31  468.97
   4  -3  -311069.12  377.62
  -4   3   311052.59 1253.56
  -4   3   311529.27  459.58
   4  -3  -237212.32  662.08
  -4   3   239926.90  864.81
   4  -3  -1  744.74  104.73
  -4   3   1  908.37  162.22
   4  -3   021940.89  508.86
  -4   3   022165.15  511.93
   4  -3   1    0.15   25.52
  -4   3  -1   41.80   24.69
  -4   3  -1   44.76   41.86
   4  -3   228779.31  603.14
  -4   3  -227810.41  574.85
  -4   3  -227610.74  794.67
   4  -3   3 1378.10  145.82
  -4   3  -3 1220.47  318.96
  -4   3  -3 1206.22  270.76
   4  -3   412213.80  428.04
  -4   3  -413097.57  413.84
  -4   3  -411570.38  617.03
   4  -3   5 4461.39  277.91
  -4   3  -5 4093.61  375.45
  -4   3  -5 4247.10  437.86
   4  -3   6   23.90   48.92
  -4   3  -6   65.79   41.50
  -4   3  -6    8.47   52.72
   4  -3   7 6810.74  383.88
  -4   3  -7 7832.86  370.07
  -4   3  -7 7391.16  437.55
   4  -3   8   84.79   70.66
  -4   3  -8   61.83   55.28
   4  -3   9 5253.24  379.20
  -4   3  -9 4279.46  372.64
   4  -2  -9  209.70   96.14
  -4   2   9   56.90   56.89
   4  -2  -8  910.90  155.07
  -4   2   8  784.84  231.99
   4  -2  -7  182.79   80.32
  -4   2   7  171.43   55.34
  -4   2   7  120.76   66.66
   4  -2  -617978.63  570.57
  -4   2   617599.83  516.66
  -4   2   618602.53  638.23
   4  -2  -518960.84  558.77
  -4   2   518566.20  613.10
   4  -2  -4  809.26  117.72
  -4   2   4  909.10  122.48
   4  -2  -3  100.21   51.04
  -4   2   3   21.14   38.25
   4  -2  -2 8472.46  340.73
  -4   2   2 8045.80  790.13
   4  -2  -1  429.78   86.27
  -4   2   1  255.03   65.64
   4  -2   0   -0.84   29.06
  -4   2   0   29.44   24.95
   4  -2   128627.62  618.38
  -4   2  -129701.47  855.01
   4  -2   2 2983.67  208.28
  -4   2  -2 3077.78  206.62
  -4   2  -2 3096.42  363.64
   4  -2   3 2830.77  211.78
  -4   2  -3 2831.96  264.42
  -4   2  -3 2969.51  293.17
   4  -2   4 5509.08  303.43
  -4   2  -4 5327.97  300.04
  -4   2  -4 5154.94  508.01
   4  -2   5  335.45   96.44
  -4   2  -5  288.49  113.65
  -4   2  -5  326.28   69.80
   4  -2   610667.11  459.19
  -4   2  -611832.70  393.68
  -4   2  -611652.97  508.59
   4  -2   717552.25  618.06
  -4   2  -717531.53  649.41
   4  -2   8 1528.22  206.54
  -4   2  -8 1006.70  172.47
  -4   2  -9  679.11  151.99
   4  -1  -9  113.80   85.59
  -4   1   9    0.10   32.73
   4  -1  -8 3388.01  288.47
  -4   1   8 2665.13  749.04
   4  -1  -7  840.26  145.94
  -4   1   7  765.95  137.91
   4  -1  -611958.13  483.67
  -4   1   612304.68  512.42
   4  -1  -5  179.87   76.21
   4  -1  -424396.47  627.26
   4  -1  -3   30.83   34.93
  -4   1   3  114.96   49.10
   4  -1  -2  184.05   70.91
  -4   1   2  182.12   54.77
   4  -1  -1 1973.98  177.88
   4  -1   017614.46  507.96
  -4   1   017109.58  321.32
   4  -1   1  754.38  118.76
  -4   1  -1  793.87  234.88
   4  -1   2 2109.99  185.17
  -4   1  -2 2463.84  388.01
   4  -1   3 3817.96  250.16
  -4   1  -3 3760.45  185.28
   4  -1   3 3711.78  137.21
  -4   1  -3 3614.98  582.84
   4  -1   4 3665.99  256.95
  -4   1  -4 3664.54  226.08
   4  -1   4 3812.19  172.24
  -4   1  -4 3626.70  467.34
   4  -1   520828.06  623.29
  -4   1  -521836.59  646.60
   4  -1   6 1112.42  167.40
   4  -1   6 1134.85  115.48
  -4   1  -6 1181.81  359.19
   4  -1   7 2285.42  238.78
  -4   1  -7 2234.91  234.18
   4  -1   8   41.27   64.65
  -4   1  -8  216.81  101.22
   4  -1   9 8148.53  477.85
  -4   1  -9 9262.12  513.03
   4   0  -9  124.28   90.41
  -4   0   9   72.36   74.13
   4   0  -8 1304.34  183.82
  -4   0   8 1389.92  193.26
   4   0  -7 1578.77  193.46
  -4   0   7 1560.63  191.52
   4   0  -6   -6.00   53.62
   4   0  -5   91.39   57.46
   4   0  -4  221.17   94.17
   4   0  -3   91.66   66.76
   4   0  -2 3220.82  233.19
  -4   0   2 3008.64  332.00
   4   0  -1 9508.80  396.26
  -4   0   1 9156.91  198.20
   4   0   0  674.82  114.03
   4   0   157299.81  961.34
  -4   0  -157995.83  974.23
   4   0   2 4879.02  290.44
  -4   0  -2 4818.18  280.16
   4   0   3  324.16   96.10
   4   0   3  170.16   44.28
  -4   0  -3   91.36  101.91
   4   0   463287.04 1078.44
   4   0   461196.75  757.78
  -4   0  -460417.25  996.60
   4   0   533547.65  819.75
   4   0   532856.68  656.48
  -4   0  -534040.30  805.22
   4   0   6 5167.67  342.44
   4   0   6 5053.94  370.10
  -4   0  -6 5636.48  357.31
   4   0   7  158.28  100.24
   4   0   7   74.77   45.60
  -4   0  -7  231.43   93.19
   4   0   8 3823.86  323.12
   4   0   8 3470.03  244.02
  -4   0  -8 3618.54  300.38
   4   0   9 5089.11  395.01
  -4   0  -9 5133.94  376.54
   4   1  -9 2892.51  294.90
  -4  -1   9 1827.28  663.07
   4   1  -8 1808.56  231.47
  -4  -1   8 1883.28  213.22
   4   1  -7 1474.08  203.21
   4   1  -6 4140.41  308.47
   4   1  -5 9925.70  459.55
   4   1  -4 9132.40  426.27
   4   1  -3 8345.82  398.52
   4   1  -225612.92  681.09
   4   1  -119493.13  594.73
   4   1   0 9670.28  414.97
   4   1   1 4660.69  294.94
   4   1   228180.89  719.05
  -4  -1  -228735.82  674.46
   4   1   329534.74  748.07
   4   1   329302.82  561.86
  -4  -1  -329007.80  786.25
   4   1   4  130.37   74.45
   4   1   5 7767.98  417.07
   4   1   5 7638.76  329.39
  -4  -1  -5 7607.48  390.06
   4   1   6 1193.10  182.59
   4   1   6  656.43  413.17
  -4  -1  -6 1135.78  451.67
   4   1   7 9741.60  493.76
   4   1   7 9637.32  451.18
  -4  -1  -7 9776.70  534.36
   4   1   8 5494.98  389.12
   4   1   8 5601.38  329.92
  -4  -1  -8 6202.68  379.17
   4   1   9 2146.74  284.05
   4   1   9 1985.37  208.94
  -4  -1  -9 2821.82  278.79
   4   2  -8 1285.40  199.35
  -4  -2   8 1276.92  179.87
   4   2  -7 7638.48  451.30
   4   2  -612678.86  550.43
   4   2  -5   80.96   65.32
   4   2  -4 9110.70  442.34
   4   2  -3 1486.42  185.78
   4   2  -1  126.53   82.30
   4   2   0 5051.72  318.03
   4   2   1 6974.12  372.41
   4   2   2 7903.10  399.09
   4   2   319492.44  630.82
   4   2   320767.63  536.43
  -4  -2  -320724.90  542.52
   4   2   4    8.94   47.96
   4   2   4    3.57   38.58
  -4  -2  -4    0.27   44.83
   4   2   5 2267.21  235.94
   4   2   5 1216.18  440.63
  -4  -2  -5 1714.32  521.60
   4   2   6   99.63   69.90
   4   2   6   61.15   46.07
  -4  -2  -6    2.14   27.54
   4   2   7 3967.45  330.12
   4   2   7 2520.85  886.71
  -4  -2  -7 1790.80  610.56
   4   2   810916.36  557.22
   4   2   810869.12  501.62
  -4  -2  -811144.33  811.13
   4   3  -7  712.34  167.22
   4   3  -6   59.82   67.17
   4   3  -5  194.94   97.03
   4   3  -4   47.84   58.17
   4   3  -3 8127.29  429.04
   4   3  -2   57.94   75.21
   4   3  -1 4156.57  305.02
   4   3   0 4845.37  325.92
   4   3   112215.77  509.39
   4   3   2 4647.67  324.19
   4   3   315579.07  588.30
   4   3   317860.47  549.53
   4   3   4 1029.85  167.61
   4   3   4  802.11  282.31
   4   3   5 2864.44  274.08
   4   3   5 2625.51  702.88
   4   3   6 5823.66  397.99
   4   3   6 4082.06 1139.09
   4   3   7  236.64  114.91
   4   3   7   30.69   49.33
   4   4  -6 1629.39  242.14
   4   4  -5 1120.23  198.65
   4   4  -4 3662.78  318.65
   4   4  -3 3658.63  309.33
   4   4  -2 3258.98  284.87
   4   4  -1   84.65  110.12
   4   4   0 2387.75  246.18
   4   4   117033.28  624.96
   4   4   2  724.39  152.25
   4   4   3 2934.20  276.54
   4   4   3 3211.31  258.58
   4   4   4  312.26  113.23
   4   4   4  456.29  111.57
   4   4   5 4826.49  362.99
   4   4   5 6402.99  540.20
   4   4   6  165.95  117.58
   4   4   6   43.65   42.78
   4   5  -5   85.05   73.08
   4   5  -4  337.44  117.39
   4   5  -3   72.63   68.02
   4   5  -2 2107.47  241.72
   4   5  -1 1360.39  199.77
   4   5   0 1555.01  209.88
   4   5   1  463.81  129.72
   4   5   212563.85  566.88
   4   5   3 2072.72  247.78
   4   5   4 4986.43  372.79
   4   5   4 5444.41  368.06
   4   6   0 4213.23  348.57
  -5   7   1 4834.28  363.27
  -5   7   1 5234.07  753.11
  -5   7   1 4654.64  452.70
  -5   7   0  368.55  117.53
  -5   7  -1 5084.99  367.41
  -5   7  -1 4086.80 1266.94
  -5   6   4 4628.35 1058.85
  -5   6   4 5661.75 1007.79
  -5   6   4 5834.31 1378.21
  -5   6   3   78.55   81.34
  -5   6   3   76.85   92.52
  -5   6   3   18.09   47.24
  -5   6   2 2614.75  255.26
  -5   6   2 2188.09  784.37
  -5   6   2 2245.69  674.60
  -5   6   1 1798.60  214.95
  -5   6   1 1264.95  337.40
  -5   6   1 1234.98  227.53
  -5   6   026564.20  976.64
  -5   6   024882.50  735.07
  -5   6  -1 1087.31  252.11
  -5   6  -1 1108.87  381.02
  -5   6  -2  909.90  451.83
  -5   6  -2 1279.57  223.30
  -5   6  -2 1448.85  381.82
  -5   6  -3  412.90  108.01
  -5   6  -3  718.26  236.29
  -5   6  -3  608.58  286.28
  -5   6  -4 2447.32  897.45
  -5   6  -4 3267.42  770.74
  -5   6  -4 3289.42  781.40
  -5   5   5   75.09   89.19
  -5   5   5  275.74  124.64
  -5   5   5  181.92  106.46
  -5   5   4 5714.79 1006.91
  -5   5   4 6731.25  920.83
  -5   5   4 5781.42 1232.44
  -5   5   3 4935.93  909.76
  -5   5   3 6229.41  474.46
  -5   5   3 6465.57  531.45
  -5   5   2  251.69  105.79
  -5   5   2  124.07   86.10
  -5   5   2  481.81  119.05
  -5   5   1 1744.40  194.17
  -5   5   1 1728.60  433.71
  -5   5   1 1644.44  194.02
  -5   5   0  477.48  112.86
  -5   5   0  406.50  110.82
  -5   5   0  737.82  146.75
  -5   5  -110052.48  508.04
  -5   5  -1 9565.62  436.02
  -5   5  -2 1067.81  369.66
  -5   5  -2 1288.30  188.31
  -5   5  -2 1287.48  262.06
  -5   5  -3 1085.92  360.22
  -5   5  -3 1679.43  217.06
  -5   5  -3 1253.40  205.70
  -5   5  -4   41.34   40.19
  -5   5  -4  156.05   76.17
  -5   5  -4  109.97  105.51
  -5   5  -5  234.61   89.97
  -5   5  -5  182.89   65.65
  -5   4   6 9990.28 1250.76
  -5   4   610337.43  545.75
  -5   4   610460.70 1609.89
  -5   4   5  481.43  163.82
  -5   4   5  495.15  196.24
  -5   4   5  425.21  139.63
  -5   4   4  246.05   90.00
  -5   4   4  443.42  111.69
   5  -4  -3 5125.48  280.67
  -5   4   3 4190.20  782.10
  -5   4   3 4654.01  326.37
  -5   4   3 4806.68  341.86
   5  -4  -2 1510.87  156.75
  -5   4   2 1364.74  249.30
  -5   4   2 1509.79  187.92
  -5   4   2 1694.76  200.64
   5  -4  -1 1889.40  172.96
  -5   4   1 2056.43  192.03
  -5   4   1 1954.92  215.33
   5  -4   0 1212.12  143.80
   5  -4   1  309.33   83.66
   5  -4   2 1535.57  163.98
  -5   4  -2 1563.23  159.82
  -5   4  -2 1195.82  285.04
   5  -4   3 2154.21  198.65
  -5   4  -3 1400.96  542.75
  -5   4  -3 1770.88  427.71
   5  -4   4  102.82   56.08
  -5   4  -4   38.08   54.80
   5  -4   5 3994.90  285.22
  -5   4  -5 3077.91  896.14
   5  -4   6 1445.95  187.14
  -5   4  -6 1806.92  218.32
  -5   4  -6 1186.43  422.71
   5  -3  -7  240.44   94.78
  -5   3   7  394.51  119.40
  -5   3   7  358.25  154.97
   5  -3  -6  212.54   76.14
  -5   3   6  241.54   85.36
  -5   3   6  196.94   65.21
   5  -3  -524826.79  687.17
  -5   3   521824.54 1342.74
  -5   3   525553.46  735.13
  -5   3   525272.40  809.30
   5  -3  -4 5954.65  328.06
  -5   3   4 5428.53  662.49
  -5   3   4 6234.14  394.93
   5  -3  -3 2639.21  220.93
  -5   3   3 2054.22  372.89
   5  -3  -2 6443.28  327.76
  -5   3   2 6150.42  648.37
   5  -3  -1 1943.44  184.68
  -5   3   1 1787.36  167.26
   5  -3   0  346.43   83.32
   5  -3   1 3216.62  237.53
   5  -3   2   76.25   57.31
  -5   3  -2   52.51   44.00
   5  -3   3 1563.36  178.93
  -5   3  -3 1638.43  381.51
   5  -3   4 6878.36  367.93
  -5   3  -4 7383.27  849.20
   5  -3   5 2091.03  216.22
  -5   3  -5 1578.25  553.18
   5  -3   615356.61  593.90
  -5   3  -614936.30  772.40
   5  -3   7 2426.98  261.18
  -5   3  -7 1866.85  658.95
   5  -2  -718130.69  664.50
  -5   2   715722.52  588.30
  -5   2   717334.60  714.07
   5  -2  -6 2848.37  264.32
  -5   2   6 2864.97  247.20
  -5   2   6 3014.83  292.33
   5  -2  -5 2592.05  243.90
  -5   2   5 1966.11  437.81
  -5   2   5 2268.38  246.35
   5  -2  -414109.18  525.92
  -5   2   412402.28  694.53
   5  -2  -3  387.41  102.18
  -5   2   3  218.41   58.80
   5  -2  -2 1807.27  186.44
   5  -2  -1 1739.19  186.27
   5  -2   0  267.30   82.66
   5  -2   1 6716.97  352.83
   5  -2   2 5000.81  309.42
  -5   2  -2 4843.83  747.97
   5  -2   3  192.02   75.47
  -5   2  -3   37.58   48.59
   5  -2   4 1597.22  188.97
  -5   2  -4 1413.48  441.73
   5  -2   5 7210.84  401.65
  -5   2  -5 6223.48 1207.83
   5  -2   6 3484.90  294.17
  -5   2  -6 2570.09  910.32
   5  -2   722259.40  759.13
  -5   2  -722646.41  803.36
   5  -1  -7 4744.97  353.13
  -5   1   7 4247.11  350.36
   5  -1  -6  142.56   94.19
   5  -1  -5 1041.74  165.50
   5  -1  -4 2056.28  214.33
   5  -1  -3  176.81   82.00
   5  -1  -2 1881.55  202.79
   5  -1  -1  195.86   82.27
   5  -1   0 4855.66  317.22
   5  -1   1 2101.17  216.42
   5  -1   212301.02  502.23
  -5   1  -211833.62  503.70
   5  -1   3 9890.34  459.44
  -5   1  -3 9927.50  690.14
   5  -1   416029.15  595.70
  -5   1  -415565.39  593.03
   5  -1   5   21.56   49.78
  -5   1  -5   76.02   75.41
   5  -1   6  376.74  118.12
   5  -1   7 1387.25  210.87
  -5   1  -7  957.83  389.50
   5   0  -7 6856.41  439.23
  -5   0   7 6718.19  434.98
   5   0  -6 8663.27  473.52
   5   0  -5  814.33  148.71
   5   0  -4  259.38   94.77
   5   0  -3 3090.96  270.94
   5   0  -2  226.35  102.24
   5   0  -1   93.09   62.31
   5   0   0  472.35  121.72
   5   0   1 4729.70  324.56
   5   0   2 1263.43  178.83
   5   0   3  743.57  137.30
  -5   0  -3  785.68  247.27
   5   0   4  385.48  107.47
  -5   0  -4  458.07  171.95
   5   0   5 3207.09  293.35
  -5   0  -5 1367.71  706.50
   5   0   6  461.92  133.34
  -5   0  -6  183.08   45.97
   5   0   7   27.45   57.53
  -5   0  -7   79.39   63.30
   5   1  -6   47.73   69.12
   5   1  -511596.31  553.81
   5   1  -4  642.72  145.92
   5   1  -3 4703.30  342.00
   5   1  -2  333.88  108.69
   5   1  -1  141.19   78.11
   5   1   0 5401.33  367.87
   5   1   1  118.34   98.24
   5   1   223897.09  750.37
   5   1   3 3441.89  298.61
  -5  -1  -3 3496.45  263.49
   5   1   4  267.99   97.08
  -5  -1  -4  103.02   83.65
   5   1   5 7742.26  457.54
  -5  -1  -5 8276.84  439.34
   5   1   6  336.52  130.72
  -5  -1  -6  127.29  107.37
   5   2  -5 1472.84  236.42
   5   2  -4 1137.40  196.26
   5   2  -3 1786.54  227.72
   5   2  -2 9842.92  503.98
   5   2  -1  901.75  167.18
   5   2   020409.37  719.87
   5   2   1  170.55  109.29
   5   2   2  730.79  162.72
   5   2   3 6561.24  418.87
   5   2   4  206.01   96.26
   5   2   5  133.18   96.10
   5   3  -4 3718.29  341.56
   5   3  -3   91.73   67.91
   5   3  -2  411.90  128.53
   5   3  -1 2232.47  256.66
   5   3   0 1020.91  176.38
   5   3   114062.65  616.23
   5   3   2 5249.27  385.94
   5   3   3   86.27   71.89
   5   3   4   50.56   65.90
   5   4  -1  440.11  146.05
   5   4   0 1400.93  227.86
   5   4   1 8640.70  509.05
  -6   4   1 1725.58  230.30
   6  -3  -2 1461.94  186.50
   6  -3  -1  132.29   72.05
   6  -3   0 4441.32  320.42
   6  -3   1  169.42   79.98
   6  -3   2  140.01   88.75
   6  -2  -3 2713.98  261.91
   6  -2  -2 3283.89  286.73
   6  -2  -1  526.13  136.50
   6  -2   0 5510.49  368.34
   6  -2   1 1632.15  215.40
   6  -2   2 1124.34  181.44
   6  -2   3  351.40  121.20
  -6   2  -3   39.02   65.01
   6  -1  -3  548.06  142.69
   6  -1  -2 2831.24  277.36
   6  -1  -1 1931.08  234.77
   6  -1   0  113.71   69.24
   6  -1   1 2348.87  260.42
   6  -1   2  246.62  103.53
   6   0  -2 4214.29  350.28
   6   0  -1  131.26   95.41
   6   0   0  527.60  140.38
   6   0   1 8982.60  500.96
   6   0   2 1273.85  204.66
   0   0   0    0.00    0.00
;
_shelx_hkl_checksum              58297
loop_
_space_group_symop_operation_xyz
'x, y, z'
'-x, -y, -z'
loop_
_atom_site_label
_atom_site_type_symbol
_atom_site_fract_x
_atom_site_fract_y
_atom_site_fract_z
_atom_site_U_iso_or_equiv
_atom_site_adp_type
_atom_site_occupancy
_atom_site_site_symmetry_order
_atom_site_calc_flag
_atom_site_refinement_flags_posn
_atom_site_refinement_flags_adp
_atom_site_refinement_flags_occupancy
_atom_site_disorder_assembly
_atom_site_disorder_group
C1 C 0.4201(3) 0.40398(17) 0.68818(13) 0.0173(3) Uani 1 1 d . . . . .
O1 O 0.3633(2) 0.54179(13) 0.75068(10) 0.0225(2) Uani 1 1 d . . . . .
O2 O 0.2968(2) 0.32900(14) 0.58672(11) 0.0281(3) Uani 1 1 d . . . . .
C2 C 0.6696(3) 0.32618(17) 0.74804(13) 0.0167(3) Uani 1 1 d . . . . .
H2A H 0.841(4) 0.412(2) 0.7301(17) 0.024(4) Uiso 1 1 d . . . . .
N1 N 0.6877(3) 0.15044(16) 0.67674(13) 0.0200(3) Uani 1 1 d . . . . .
H1NA H 0.522(5) 0.064(3) 0.687(2) 0.043(5) Uiso 1 1 d . . . . .
H1NB H 0.705(4) 0.174(3) 0.582(2) 0.037(5) Uiso 1 1 d . . . . .
H1NC H 0.841(5) 0.109(3) 0.705(2) 0.041(5) Uiso 1 1 d . . . . .
C3 C 0.6467(3) 0.29723(18) 0.90024(14) 0.0178(3) Uani 1 1 d . . . . .
H3A H 0.687(3) 0.415(2) 0.9474(17) 0.023(4) Uiso 1 1 d . . . . .
H3B H 0.794(4) 0.234(2) 0.9321(19) 0.035(5) Uiso 1 1 d . . . . .
C4 C 0.3611(3) 0.18597(16) 0.94285(13) 0.0169(3) Uani 1 1 d . . . . .
O3 O 0.2096(2) 0.08530(13) 0.85883(10) 0.0222(2) Uani 1 1 d . . . . .
N2 N 0.2860(3) 0.20002(16) 1.07094(12) 0.0219(3) Uani 1 1 d . . . . .
H2NA H 0.121(4) 0.132(3) 1.099(2) 0.037(5) Uiso 1 1 d . . . . .
H2NB H 0.398(4) 0.281(3) 1.129(2) 0.033(5) Uiso 1 1 d . . . . .
O4 O -0.0587(2) 0.81736(15) 0.64298(11) 0.0270(3) Uani 1 1 d . . . . .
H4O H -0.145(5) 0.759(3) 0.570(2) 0.049(6) Uiso 1 1 d . . . . .
O5 O 0.2398(2) 0.81605(13) 0.61063(10) 0.0223(2) Uani 1 1 d . . . . .
H5O H 0.265(4) 0.711(3) 0.658(2) 0.042(5) Uiso 1 1 d . . . . .
loop_
_atom_site_aniso_label
_atom_site_aniso_U_11
_atom_site_aniso_U_22
_atom_site_aniso_U_33
_atom_site_aniso_U_23
_atom_site_aniso_U_13
_atom_site_aniso_U_12
C1 0.0141(6) 0.0194(6) 0.0176(7) 0.0022(5) 0.0006(5) 0.0009(5)
O1 0.0220(5) 0.0223(5) 0.0246(6) -0.0023(4) -0.0037(4) 0.0078(4)
O2 0.0287(6) 0.0334(6) 0.0230(6) -0.0059(4) -0.0098(4) 0.0080(4)
C2 0.0133(6) 0.0175(6) 0.0189(7) -0.0001(5) 0.0003(5) 0.0023(5)
N1 0.0187(6) 0.0212(5) 0.0206(7) -0.0001(4) 0.0029(5) 0.0052(5)
C3 0.0151(6) 0.0204(6) 0.0178(7) 0.0002(5) -0.0022(5) 0.0030(5)
C4 0.0166(6) 0.0164(6) 0.0182(7) 0.0013(4) -0.0012(5) 0.0046(5)
O3 0.0197(5) 0.0256(5) 0.0188(5) -0.0035(4) 0.0007(4) -0.0021(4)
N2 0.0216(6) 0.0248(6) 0.0173(6) -0.0012(5) 0.0007(5) -0.0008(5)
O4 0.0203(5) 0.0387(6) 0.0233(6) -0.0093(4) -0.0011(4) 0.0093(4)
O5 0.0191(5) 0.0242(5) 0.0241(6) 0.0018(4) 0.0020(4) 0.0051(4)
loop_
_atom_type_symbol
_atom_type_description
_atom_type_scat_dispersion_real
_atom_type_scat_dispersion_imag
_atom_type_scat_source
C C 0.0033 0.0016 'International Tables Vol C Tables 4.2.6.8 and 6.1.1.4'
H H 0.0000 0.0000 'International Tables Vol C Tables 4.2.6.8 and 6.1.1.4'
N N 0.0061 0.0033 'International Tables Vol C Tables 4.2.6.8 and 6.1.1.4'
O O 0.0106 0.0060 'International Tables Vol C Tables 4.2.6.8 and 6.1.1.4'
loop_
_citation_id
_citation_doi
_citation_year
1 10.1039/D1CE00688F 2021
loop_
_geom_angle_atom_site_label_1
_geom_angle_atom_site_label_2
_geom_angle_atom_site_label_3
_geom_angle
_geom_angle_site_symmetry_1
_geom_angle_site_symmetry_3
_geom_angle_publ_flag
O2 C1 O1 126.68(12) . . ?
O2 C1 C2 118.61(11) . . ?
O1 C1 C2 114.70(11) . . ?
N1 C2 C3 110.82(10) . . ?
N1 C2 C1 108.97(10) . . ?
C3 C2 C1 113.12(10) . . ?
N1 C2 H2A 107.9(10) . . ?
C3 C2 H2A 108.2(10) . . ?
C1 C2 H2A 107.7(10) . . ?
C2 N1 H1NA 111.3(13) . . ?
C2 N1 H1NB 108.8(11) . . ?
H1NA N1 H1NB 105.8(17) . . ?
C2 N1 H1NC 110.0(13) . . ?
H1NA N1 H1NC 112.1(18) . . ?
H1NB N1 H1NC 108.7(17) . . ?
C4 C3 C2 112.89(11) . . ?
C4 C3 H3A 110.8(10) . . ?
C2 C3 H3A 110.3(10) . . ?
C4 C3 H3B 107.9(11) . . ?
C2 C3 H3B 110.5(11) . . ?
H3A C3 H3B 104.1(14) . . ?
O3 C4 N2 123.03(12) . . ?
O3 C4 C3 119.82(12) . . ?
N2 C4 C3 117.15(12) . . ?
C4 N2 H2NA 118.5(13) . . ?
C4 N2 H2NB 120.8(12) . . ?
H2NA N2 H2NB 120.6(18) . . ?
O5 O4 H4O 100.1(14) . . ?
O4 O5 H5O 100.1(12) . . ?
loop_
_geom_bond_atom_site_label_1
_geom_bond_atom_site_label_2
_geom_bond_distance
_geom_bond_site_symmetry_2
_geom_bond_publ_flag
C1 O2 1.2345(16) . ?
C1 O1 1.2631(15) . ?
C1 C2 1.5377(17) . ?
C2 N1 1.4929(16) . ?
C2 C3 1.5197(19) . ?
C2 H2A 0.951(18) . ?
N1 H1NA 0.92(2) . ?
N1 H1NB 0.96(2) . ?
N1 H1NC 0.89(2) . ?
C3 C4 1.5116(18) . ?
C3 H3A 0.974(17) . ?
C3 H3B 0.971(19) . ?
C4 O3 1.2450(16) . ?
C4 N2 1.3241(18) . ?
N2 H2NA 0.89(2) . ?
N2 H2NB 0.92(2) . ?
O4 O5 1.4628(13) . ?
O4 H4O 0.90(2) . ?
O5 H5O 0.94(2) . ?
loop_
_geom_hbond_atom_site_label_D
_geom_hbond_atom_site_label_H
_geom_hbond_atom_site_label_A
_geom_hbond_distance_DH
_geom_hbond_distance_HA
_geom_hbond_distance_DA
_geom_hbond_angle_DHA
_geom_hbond_site_symmetry_A
_geom_hbond_publ_flag
N1 H1NA O3 0.92(2) 2.28(2) 2.8762(15) 121.6(16) . yes
N1 H1NA O5 0.92(2) 2.19(2) 3.0092(16) 148.0(18) 1_545 yes
N1 H1NB O5 0.96(2) 1.92(2) 2.8644(16) 171.0(16) 2_666 yes
N1 H1NC O3 0.89(2) 2.36(2) 3.1818(16) 154.5(17) 1_655 yes
N1 H1NC O4 0.89(2) 2.38(2) 2.9654(15) 123.8(16) 1_645 yes
C3 H3B O3 0.971(19) 2.550(19) 3.3874(16) 144.4(15) 1_655 yes
N2 H2NA O3 0.89(2) 2.07(2) 2.9368(16) 163.5(17) 2_557 yes
N2 H2NB O1 0.92(2) 1.96(2) 2.8771(16) 178.5(17) 2_667 yes
O4 H4O O2 0.90(2) 1.77(2) 2.6647(15) 172(2) 2_566 yes
O5 H5O O1 0.94(2) 1.69(2) 2.6179(14) 170.7(19) . yes
loop_
_geom_torsion_atom_site_label_1
_geom_torsion_atom_site_label_2
_geom_torsion_atom_site_label_3
_geom_torsion_atom_site_label_4
_geom_torsion
_geom_torsion_site_symmetry_1
_geom_torsion_site_symmetry_2
_geom_torsion_site_symmetry_3
_geom_torsion_site_symmetry_4
_geom_torsion_publ_flag
O2 C1 C2 N1 -7.62(17) . . . . ?
O1 C1 C2 N1 172.39(11) . . . . ?
O2 C1 C2 C3 -131.35(13) . . . . ?
O1 C1 C2 C3 48.66(15) . . . . ?
N1 C2 C3 C4 -70.85(13) . . . . ?
C1 C2 C3 C4 51.86(14) . . . . ?
C2 C3 C4 O3 20.85(16) . . . . ?
C2 C3 C4 N2 -159.89(11) . . . . ?
