#------------------------------------------------------------------------------
#$Date: 2021-09-06 13:27:30 +0300 (Mon, 06 Sep 2021) $
#$Revision: 268664 $
#$URL: file:///home/coder/svn-repositories/cod/cif/7/24/31/7243101.cif $
#------------------------------------------------------------------------------
#
# This file is available in the Crystallography Open Database (COD),
# http://www.crystallography.net/
#
# All data on this site have been placed in the public domain by the
# contributors.
#
data_7243101
loop_
_publ_author_name
'Qiu, Qi-Ming'
'Yang, Guo-Yu'
_publ_section_title
;
 From [B6O13]8&#x2212; to [GaB5O13]8&#x2212; to
 [Ga{B5O9(OH)}{BO(OH)2}]2&#x2212;: synthesis, structure and nonlinear
 optical properties of new metal borates
;
_journal_issue                   30
_journal_name_full               CrystEngComm
_journal_page_first              5200
_journal_page_last               5207
_journal_paper_doi               10.1039/D1CE00719J
_journal_volume                  23
_journal_year                    2021
_chemical_formula_sum            'B6 Cs Ga H3 Na O13'
_chemical_formula_weight         501.50
_space_group_crystal_system      triclinic
_space_group_IT_number           2
_space_group_name_Hall           '-P 1'
_space_group_name_H-M_alt        'P -1'
_atom_sites_solution_hydrogens   difmap
_audit_creation_method           SHELXL-2018/3
_audit_update_record
;
2021-04-29 deposited with the CCDC.	2021-06-22 downloaded from the CCDC.
;
_cell_angle_alpha                108.567(10)
_cell_angle_beta                 93.633(11)
_cell_angle_gamma                90.442(11)
_cell_formula_units_Z            2
_cell_length_a                   7.027(2)
_cell_length_b                   8.039(2)
_cell_length_c                   11.442(4)
_cell_measurement_reflns_used    1557
_cell_measurement_temperature    296(2)
_cell_measurement_theta_max      24.84
_cell_measurement_theta_min      2.91
_cell_volume                     611.2(3)
_computing_cell_refinement       'Bruker SAINT'
_computing_data_collection       'Bruker APEX2'
_computing_data_reduction        'Bruker SAINT'
_computing_molecular_graphics    'Bruker SHELXTL'
_computing_publication_material  'Bruker SHELXTL'
_computing_structure_refinement  'SHELXL-2018/3 (Sheldrick, 2018)'
_computing_structure_solution    'SHELXL-2018/3 (Sheldrick, 2018)'
_diffrn_ambient_temperature      296(2)
_diffrn_measured_fraction_theta_full 0.999
_diffrn_measured_fraction_theta_max 0.985
_diffrn_measurement_device_type  'CCD area detector'
_diffrn_measurement_method       'phi and omega scans'
_diffrn_radiation_type           MoK\a
_diffrn_radiation_wavelength     0.71073
_diffrn_reflns_av_R_equivalents  0.0557
_diffrn_reflns_av_unetI/netI     0.0763
_diffrn_reflns_Laue_measured_fraction_full 0.999
_diffrn_reflns_Laue_measured_fraction_max 0.985
_diffrn_reflns_limit_h_max       9
_diffrn_reflns_limit_h_min       -9
_diffrn_reflns_limit_k_max       11
_diffrn_reflns_limit_k_min       -10
_diffrn_reflns_limit_l_max       15
_diffrn_reflns_limit_l_min       -15
_diffrn_reflns_number            7926
_diffrn_reflns_point_group_measured_fraction_full 0.999
_diffrn_reflns_point_group_measured_fraction_max 0.985
_diffrn_reflns_theta_full        25.242
_diffrn_reflns_theta_max         29.279
_diffrn_reflns_theta_min         2.674
_diffrn_source                   'fine-focus sealed tube'
_exptl_absorpt_coefficient_mu    5.288
_exptl_absorpt_correction_type   multi-scan
_exptl_absorpt_process_details   sadabs
_exptl_crystal_colour            colorless
_exptl_crystal_density_diffrn    2.725
_exptl_crystal_description       block
_exptl_crystal_F_000             468
_exptl_crystal_size_max          0.050
_exptl_crystal_size_mid          0.030
_exptl_crystal_size_min          0.030
_exptl_transmission_factor_max   0.7458
_exptl_transmission_factor_min   0.6131
_refine_diff_density_max         0.937
_refine_diff_density_min         -1.197
_refine_diff_density_rms         0.177
_refine_ls_extinction_method     none
_refine_ls_goodness_of_fit_ref   1.027
_refine_ls_hydrogen_treatment    mixed
_refine_ls_matrix_type           full
_refine_ls_number_parameters     203
_refine_ls_number_reflns         3278
_refine_ls_number_restraints     1
_refine_ls_restrained_S_all      1.027
_refine_ls_R_factor_all          0.0690
_refine_ls_R_factor_gt           0.0439
_refine_ls_shift/su_max          0.000
_refine_ls_shift/su_mean         0.000
_refine_ls_structure_factor_coef Fsqd
_refine_ls_weighting_details
'w=1/[\s^2^(Fo^2^)+(0.0390P)^2^+0.0345P] where P=(Fo^2^+2Fc^2^)/3'
_refine_ls_weighting_scheme      calc
_refine_ls_wR_factor_gt          0.0898
_refine_ls_wR_factor_ref         0.1000
_reflns_Friedel_coverage         0.000
_reflns_number_gt                2342
_reflns_number_total             3278
_reflns_threshold_expression     'I > 2\s(I)'
_cod_data_source_file            d1ce00719j2.cif
_cod_data_source_block           1_a_CCDC1
_cod_depositor_comments
'Adding full bibliography for 7243100--7243102.cif.'
_cod_original_formula_sum        'B6 H3 Cs Ga Na O13'
_cod_database_code               7243101
_shelx_shelxl_version_number     2018/3
_shelx_space_group_comment
;
The symmetry employed for this shelxl refinement is uniquely defined
by the following loop, which should always be used as a source of
symmetry information in preference to the above space-group names.
They are only intended as comments.
;
_shelx_estimated_absorpt_t_min   0.778
_shelx_estimated_absorpt_t_max   0.857
_shelx_res_file
;
TITL 1_a.res in P-1
    1_a.res
    created by SHELXL-2018/3 at 14:24:48 on 29-Apr-2021
CELL  0.71073   7.0272   8.0390  11.4421  108.567   93.633   90.442
ZERR    2.000   0.0023   0.0024   0.0037    0.010    0.011    0.011
LATT 1
SFAC H  B  Cs O  Na Ga
UNIT 6  12  2  26  2  2
L.S. 20
ACTA
BOND $H
FMAP 2
PLAN 5
htab
size 0.05 0.03 0.03
DFIX 0.82 0.01 O1 H1
TEMP 23.000
WGHT    0.039000    0.034500
FVAR       0.45031
CS    3    0.243453   -0.267000    0.125500    11.00000    0.03851    0.03028 =
         0.03579    0.00963   -0.00646    0.00520
GA    6    0.834148    0.754262    0.830582    11.00000    0.01586    0.02022 =
         0.01599    0.00421    0.00339    0.00192
NA    5    0.789256    0.409440    0.548555    11.00000    0.03878    0.02211 =
         0.02725    0.00191    0.00690   -0.00161
O3    4    0.249850    0.183746    0.637117    11.00000    0.03037    0.01523 =
         0.01726    0.00372   -0.00137   -0.00147
O2    4    0.206155   -0.004183    0.427728    11.00000    0.03897    0.01675 =
         0.01914    0.00451    0.00210   -0.00210
O9    4    0.372245    0.606059    0.816628    11.00000    0.01664    0.02893 =
         0.01779   -0.00297    0.00387    0.00153
O5    4    0.162462    0.302344    0.470634    11.00000    0.03281    0.01987 =
         0.01572    0.00461   -0.00008    0.00382
O11   4    0.725793    0.895880    0.963563    11.00000    0.03101    0.02597 =
         0.02010    0.00990    0.00985    0.01261
O6    4    0.107930    0.463715    0.677136    11.00000    0.01810    0.01944 =
         0.01938   -0.00344   -0.00076    0.00035
O4    4    0.143955    0.104974    0.263750    11.00000    0.03858    0.01835 =
         0.01495    0.00328    0.00267   -0.00378
O7    4    0.429057    0.421472    0.612865    11.00000    0.02014    0.02415 =
         0.02065   -0.00293    0.00828   -0.00591
O8    4    0.063164    0.680137    0.871189    11.00000    0.02134    0.03453 =
         0.01727   -0.00123    0.00111    0.00976
O13   4    0.797526    0.756925    1.115391    11.00000    0.05435    0.03167 =
         0.02048    0.01126    0.01225    0.01832
AFIX   3
H13   1    0.779665    0.778379    1.188560    11.00000   -1.20000
AFIX   0
O10   4    0.685996    0.562000    0.748008    11.00000    0.01598    0.02235 =
         0.03017    0.00340    0.00496   -0.00257
O12   4    0.617484    1.008761    1.164142    11.00000    0.04902    0.04151 =
         0.02553    0.01687    0.01317    0.02449
AFIX   3
H12   1    0.587092    1.073761    1.124361    11.00000   -1.20000
AFIX   0
O1    4    0.271871   -0.125196    0.586113    11.00000    0.05024    0.01798 =
         0.02084    0.00503    0.00027    0.00149
B1    2    0.244180    0.022583    0.551125    11.00000    0.02076    0.02064 =
         0.02018    0.00598    0.00414   -0.00414
B6    2    0.715369    0.887456    1.077911    11.00000    0.01683    0.02016 =
         0.02179    0.00333    0.00611    0.00068
B5    2    0.494588    0.531328    0.724913    11.00000    0.02149    0.01309 =
         0.02671    0.01227    0.00808    0.00514
B4    2    0.174664    0.581912    0.786012    11.00000    0.01454    0.02442 =
         0.02141    0.00528    0.00007    0.00669
B2    2    0.170209    0.137714    0.386142    11.00000    0.01944    0.02473 =
         0.01562    0.00593    0.00274   -0.00681
B3    2    0.236755    0.342066    0.597664    11.00000    0.02138    0.01761 =
         0.01330    0.00293    0.00141    0.00284
H1    1    0.288089   -0.106534    0.660616    11.00000    0.03488
HKLF 4




REM  1_a.res in P-1
REM wR2 = 0.1000, GooF = S = 1.027, Restrained GooF = 1.027 for all data
REM R1 = 0.0439 for 2342 Fo > 4sig(Fo) and 0.0690 for all 3278 data
REM 203 parameters refined using 1 restraints

END

WGHT      0.0396      0.0000

REM Instructions for potential hydrogen bonds
EQIV $12 -x+1, -y+1, -z+2
HTAB O13 O3_$12
EQIV $13 -x+1, -y+2, -z+2
HTAB O12 O9_$13
HTAB O12 O11_$13
HTAB O1 O12_$12

REM Highest difference peak  0.937,  deepest hole -1.197,  1-sigma level  0.177
Q1    1   0.1848  0.1654  0.2198  11.00000  0.05    0.94
Q2    1   0.2418 -0.3504  0.0529  11.00000  0.05    0.92
Q3    1   0.2482 -0.1162  0.1820  11.00000  0.05    0.91
Q4    1   0.2298 -0.1809  0.0808  11.00000  0.05    0.84
Q5    1   0.2149 -0.2708  0.1972  11.00000  0.05    0.76
;
_shelx_res_checksum              47291
_shelx_hkl_file
;
  -1   0   0  329.57   18.70
   1   0   0  420.36   21.00
   1   0   0  435.96   16.80
  -2   0   0 9617.84  325.87
  -2   0   0 9999.00  314.97
   2   0   0 9631.74  319.87
   2   0   0 9836.22  320.77
   2   0   0 9447.05  330.57
  -3   0   0 1524.45   51.59
  -3   0   0 1479.05   64.19
   3   0   0 1374.66   70.99
   3   0   0 1556.14   59.79
  -4   0   0  436.36   30.10
  -4   0   0  460.15   19.10
   4   0   0  422.76   38.80
   4   0   0  459.75   27.50
  -5   0   0  243.58   13.70
   5   0   0  279.97   23.70
  -6   0   0   36.00    6.70
   6   0   0   22.60   11.60
   6   0   0   34.90   12.20
  -7   0   0   -5.20    3.20
   7   0   0   -4.70    8.70
   7   0   0    0.20    8.70
  -8   0   0   30.90    8.20
   8   0   0   13.40   14.20
  -9   0   0   26.90    9.30
   9   0   0   45.60   20.80
   9  -1   0   80.69   26.00
  -9   1   0   45.40   11.50
   8  -1   0  210.38   34.20
  -8   1   0  177.48   17.70
   7  -1   0  663.73   47.90
  -7   1   0  653.63   31.00
   6  -1   0  126.29   22.40
  -6   1   0   84.99   17.70
  -6   1   0   95.79   10.50
   5  -1   0 1277.87   61.19
   5  -1   0 1228.88   76.49
  -5   1   0 1227.38   62.29
  -5   1   0 1245.08   46.70
   4  -1   0  239.08   24.40
   4  -1   0  254.77   33.50
  -4   1   0  226.58   27.70
  -4   1   0  221.08   11.90
   3  -1   0  715.43   35.40
   3  -1   0  743.53   42.80
  -3   1   0  745.53   27.30
  -3   1   0  688.93   41.60
   2  -1   0  150.78   14.60
   2  -1   0  149.29   17.10
  -2   1   0  145.19   11.20
  -2   1   0  127.09    6.90
  -2   1   0  160.08   19.30
   1  -1   0   -0.20    1.20
   1  -1   0    2.00    3.10
   1  -1   0    2.80    3.70
  -1   1   0    2.70    4.10
  -1   1   0    1.00    1.30
  -1   1   0   -1.70    2.60
   0  -1   0   60.99    6.90
   0   1   0   33.70    1.70
   0   1   0   61.29    6.90
  -1  -1   0    6.80    3.40
  -1  -1   0    6.70    4.30
  -1  -1   0    8.60    1.10
   1   1   0   10.30    4.00
   1   1   0    9.90    1.00
   1   1   0    8.90    4.20
  -2  -1   0 1520.15   51.89
  -2  -1   0 1556.34   58.69
   2   1   0 1644.04   60.19
   2   1   0 1643.74   66.59
   2   1   0 1518.95   51.59
   2   1   0 1473.75   62.89
  -3  -1   0  467.35   24.80
  -3  -1   0  474.65   18.20
   3   1   0  424.36   28.50
   3   1   0  492.75   17.90
   3   1   0  496.35   34.80
  -4  -1   0  479.75   19.80
  -4  -1   0  483.25   27.50
   4   1   0  493.75   33.30
  -5  -1   0 1238.68   44.90
   5   1   0 1169.28   62.19
   5   1   0 1213.68   57.39
  -6  -1   0   97.09   10.00
   6   1   0   82.19   18.70
   6   1   0  105.49   19.60
  -7  -1   0  289.37   20.40
   7   1   0  241.38   32.40
   7   1   0  254.97   34.20
  -8  -1   0  140.29   15.40
   8   1   0   75.69   21.50
  -9  -1   0    7.40    7.80
   9   1   0    0.60   13.40
   9  -2   0   42.40   22.50
  -9   2   0   65.29   13.00
   8  -2   0   10.40   15.50
  -8   2   0   -1.20    5.10
   7  -2   0    8.80   13.00
  -7   2   0   20.70    6.80
   6  -2   0   73.29   18.50
  -6   2   0   94.89   19.60
  -6   2   0   92.19   11.00
   5  -2   0  125.49   22.40
   5  -2   0   65.59   16.40
  -5   2   0   72.19   18.80
  -5   2   0   80.89    8.90
   4  -2   0  585.84   36.90
   4  -2   0  608.34   36.30
  -4   2   0  562.34   42.40
  -4   2   0  546.55   23.70
   3  -2   0  243.38   24.10
   3  -2   0  199.58   18.10
  -3   2   0  216.08   28.10
  -3   2   0  197.38   10.50
   2  -2   0 2584.24  105.39
   2  -2   0 3301.27  116.09
   2  -2   0 3392.56  115.19
  -2   2   0 3117.39  104.09
  -2   2   0 3263.57  120.89
  -2   2   0 3217.28  113.89
   1  -2   0    0.50    1.20
   1  -2   0   -5.60    4.70
   1  -2   0   -3.00    2.90
  -1   2   0   -3.20    4.10
  -1   2   0    1.90    1.50
  -1   2   0    3.10    4.70
   0  -2   0 1923.91   61.19
   0  -2   0 1917.21   72.69
   0  -2   0 1889.11   71.39
   0   2   0 1841.42   72.09
   0   2   0 1825.12   71.09
   0   2   0 1860.71   61.49
  -2  -2   0 1066.69   35.60
  -2  -2   0 1043.60   45.40
   2   2   0  972.10   49.60
   2   2   0 1099.99   35.20
  -3  -2   0 1300.77   54.99
  -3  -2   0 1274.87   43.80
   3   2   0 1184.68   60.09
   3   2   0 1307.17   43.10
  -4  -2   0  167.48   19.90
  -4  -2   0  192.78    9.90
   4   2   0  213.08   27.70
  -5  -2   0  222.58   24.20
  -5  -2   0  212.78   12.00
   5   2   0  219.88   30.00
  -6  -2   0    8.70    4.20
   6   2   0   18.80   11.30
  -7  -2   0   -4.70    3.90
   7   2   0    7.80   10.00
   7   2   0   -4.10    8.30
  -8  -2   0   12.80    6.60
   8   2   0   24.30   15.40
  -9  -2   0   24.90    9.10
   9   2   0   48.10   19.90
   9  -3   0   40.50   22.60
  -9   3   0   19.30    9.40
   8  -3   0   43.60   21.80
  -8   3   0   12.60    7.20
   7  -3   0  665.43   52.89
  -7   3   0  704.73   33.60
   6  -3   0  151.78   27.00
  -6   3   0  178.38   15.20
  -6   3   0  159.08   28.30
   5  -3   0 1826.62   84.89
  -5   3   0 1678.03   92.29
  -5   3   0 1748.82   64.39
   4  -3   0  570.54   35.40
   4  -3   0  553.44   38.20
  -4   3   0  558.64   23.80
  -4   3   0  498.65   44.20
   3  -3   0  333.97   27.00
   3  -3   0  366.66   24.80
  -3   3   0  331.37   31.20
  -3   3   0  297.47   14.80
   2  -3   0  562.74   34.10
   2  -3   0  571.44   31.70
  -2   3   0  527.35   34.90
  -2   3   0  564.14   21.60
   1  -3   0  162.28    7.10
   1  -3   0  175.08   19.30
   1  -3   0  177.68   20.50
  -1   3   0  147.49    7.50
  -1   3   0  157.38   18.90
   0  -3   0  120.09   17.00
   0  -3   0  115.59    4.70
   0   3   0  107.99    5.20
   0   3   0  123.89   17.10
  -1  -3   0   68.79   12.50
   1   3   0   73.49   13.60
  -2  -3   0  136.49   16.90
   2   3   0  105.09   17.30
  -3  -3   0  291.17   12.20
  -3  -3   0  306.37   22.80
   3   3   0  310.17   27.50
   3   3   0  310.07   11.40
  -4  -3   0  169.38    9.20
  -4  -3   0  189.08   23.80
   4   3   0  201.28   29.30
  -5  -3   0  399.06   18.30
  -5  -3   0  446.16   30.80
   5   3   0  399.36   36.60
  -6  -3   0    0.00    7.20
  -6  -3   0    2.30    3.50
   6   3   0   -0.60    8.10
  -7  -3   0  128.19   12.90
   7   3   0  173.48   32.00
   8   3   0   85.39   23.10
   8   3   0   93.49   26.60
   9   3   0    0.30   14.70
  -9   4   0   -3.80    8.20
   8  -4   0   42.10   21.20
  -8   4   0   38.10    9.90
   7  -4   0    7.00   15.90
  -7   4   0   11.50    7.10
   6  -4   0    4.90   13.30
  -6   4   0   -0.10    4.60
   5  -4   0   12.70   12.60
  -5   4   0    4.00   17.80
  -5   4   0   -0.50    3.50
   4  -4   0   35.60   14.20
  -4   4   0   26.70   15.20
  -4   4   0   36.40    6.30
   3  -4   0  383.06   32.50
  -3   4   0  400.96   18.00
  -3   4   0  367.76   35.40
   2  -4   0  622.64   39.40
  -2   4   0  545.85   22.70
  -2   4   0  607.34   40.50
   1  -4   0    2.60    1.50
   1  -4   0    3.90    7.00
  -1   4   0    7.00    7.40
  -1   4   0    1.40    1.80
   0  -4   0 1258.57   61.69
   0  -4   0 1396.76   44.50
   0   4   0 1313.87   64.79
  -1  -4   0  507.85   32.10
   1   4   0  477.95   34.40
  -2  -4   0  748.23   41.10
   2   4   0  686.43   45.00
  -3  -4   0  502.75   33.10
   3   4   0  462.85   37.70
  -4  -4   0  190.88   26.40
   4   4   0  193.58    8.10
   4   4   0  153.38   27.60
  -5  -4   0  261.67   13.30
  -5  -4   0  237.58   29.50
   5   4   0  265.77   37.00
  -6  -4   0   11.70    9.50
  -6  -4   0   -0.30    3.70
   6   4   0   -2.60    9.20
  -7  -4   0   11.90   10.10
   7   4   0   11.30   12.40
   8   4   0    6.70   14.20
   8  -5   0    9.30   19.80
  -8   5   0   12.00    7.90
   7  -5   0  156.58   34.20
  -7   5   0  172.98   18.50
   6  -5   0    8.30   16.90
  -6   5   0   -1.60    5.00
   5  -5   0  130.49   28.10
  -5   5   0  179.68   41.30
  -5   5   0  184.58   15.70
   4  -5   0  236.68   35.60
  -4   5   0  228.58   16.70
  -4   5   0  212.28   39.00
   3  -5   0  428.76   37.60
  -3   5   0  437.76   20.70
  -3   5   0  507.15   44.00
   2  -5   0  258.87   32.70
  -2   5   0  302.97   38.00
  -2   5   0  269.67   13.70
   1  -5   0  133.19   23.60
  -1   5   0  116.39   21.80
  -1   5   0  146.39    8.40
   0  -5   0   34.80   12.90
   0  -5   0   47.30    2.90
   0  -5   0   48.10    3.50
   0   5   0   56.59   15.70
  -1  -5   0    0.90    6.50
   1   5   0    4.40    7.70
  -2  -5   0   19.40   10.80
   2   5   0   16.20   10.50
  -3  -5   0  439.86   33.70
   3   5   0  432.56   38.90
  -4  -5   0   15.40   10.00
   4   5   0   24.70   14.50
  -5  -5   0  652.73   44.90
   5   5   0  683.13   54.59
  -6  -5   0   44.80   15.60
   6   5   0   91.69   25.30
  -7  -5   0  187.68   30.10
   7   5   0  193.08   38.20
  -8  -5   0   91.59   23.10
   8   5   0   57.59   26.30
  -8   6   0  -11.80    6.80
   7  -6   0   41.90   23.60
  -7   6   0   91.19   14.40
   6  -6   0   14.40   19.20
  -6   6   0   -4.80    5.30
   5  -6   0   45.00   20.30
  -5   6   0   -2.90   20.20
   4  -6   0   76.89   24.50
  -4   6   0   65.29   25.30
  -4   6   0   95.79   11.20
   3  -6   0   12.20   12.80
  -3   6   0   -5.90    3.20
  -3   6   0   14.10   14.40
   2  -6   0  715.13   50.09
  -2   6   0  658.83   27.40
  -2   6   0  612.54   50.69
   1  -6   0   16.70   12.40
  -1   6   0   22.10   13.50
   0  -6   0 1077.99   35.80
   0  -6   0 1004.90   60.49
   0   6   0 1119.29   67.19
  -1  -6   0  143.89   24.80
   1   6   0  190.28   31.30
  -2  -6   0  444.76   35.90
   2   6   0  436.76   49.80
  -3  -6   0  597.04   42.90
   3   6   0  605.94   50.49
  -4  -6   0    7.50    9.40
   4   6   0    4.50   11.80
  -5  -6   0  302.57   38.30
   5   6   0  341.67   48.50
  -6  -6   0   45.70   17.90
   6   6   0   20.50   17.00
  -7  -6   0   13.40   14.20
   7   6   0   -0.90   14.40
   7  -7   0  166.68   40.10
  -7   7   0  221.08   23.00
   6  -7   0   10.50   23.00
  -6   7   0    6.60    8.00
   5  -7   0  316.87   49.10
  -5   7   0  306.97   23.60
   4  -7   0  234.08   40.40
  -4   7   0  176.58   16.30
  -4   7   0  174.48   40.60
   3  -7   0  293.07   42.80
  -3   7   0  238.08   17.60
  -3   7   0  208.28   40.80
   2  -7   0  530.25   55.89
  -2   7   0  546.75   61.79
  -2   7   0  446.46   22.00
   1  -7   0   43.00    4.90
   1  -7   0   28.80   15.90
  -1   7   0   31.60   18.10
   0  -7   0  378.86   44.80
   0   7   0  300.17   43.40
  -1  -7   0   83.19   22.30
   1   7   0   57.99   20.30
  -2  -7   0   28.00   15.00
   2   7   0   22.30   15.80
  -3  -7   0  144.79   27.70
   3   7   0  114.49   29.70
  -4  -7   0    4.90   11.30
   4   7   0    4.90   13.40
  -5  -7   0  104.19   26.10
   5   7   0   72.09   26.90
  -6  -7   0   61.39   20.60
   6   7   0   32.20   21.90
   6  -8   0    3.40   20.50
  -6   8   0   -7.10    6.40
   5  -8   0    0.40   16.60
  -5   8   0    6.60    7.90
   4  -8   0   39.30   22.60
  -4   8   0   55.69   29.00
  -4   8   0   39.90    9.70
   3  -8   0    8.60   16.30
  -3   8   0  -14.00   12.90
   2  -8   0  404.06   52.09
  -2   8   0  389.56   56.89
   1  -8   0  194.58   35.90
  -1   8   0  138.49   33.10
   0  -8   0  406.06   50.79
   0   8   0  393.96   54.69
  -1  -8   0  477.25   52.09
   1   8   0  345.17   51.09
  -2  -8   0   61.09   21.10
   2   8   0   92.59   29.30
  -3  -8   0  345.27   45.60
   3   8   0  306.17   51.89
  -4  -8   0    3.90   13.10
   4   8   0   -8.80   11.90
  -5  -8   0   78.89   23.60
   5   8   0   83.99   31.00
   5  -9   0  121.49   36.90
   4  -9   0  124.39   37.20
   3  -9   0   29.90   22.30
  -3   9   0   35.70   27.60
   2  -9   0  181.68   37.30
  -2   9   0  127.29   38.00
   1  -9   0   11.40   16.90
  -1   9   0   -0.30   16.10
   0  -9   0    3.30   14.70
   0   9   0  -10.90   12.00
  -1  -9   0  -10.70   11.20
   1   9   0   -5.30   13.20
  -2  -9   0   -0.10   13.70
   2   9   0   -5.40   16.70
  -3  -9   0   25.30   21.10
   3   9   0   10.70   19.00
  -4  -9   0    6.10   16.70
   4   9   0  -13.80   14.00
   2 -10   0   12.20   20.90
  -2  10   0   25.20   25.10
   1 -10   0   39.90   22.40
  -1  10   0   19.50   24.40
   0 -10   0   30.20   20.60
   0  10   0   17.50   25.20
  -1 -10   0  131.69   34.30
   1  10   0   80.39   32.50
  -2 -10   0    6.40   17.50
   2  10   0   -0.90   17.70
   3  10  -1   88.19   34.30
  -3 -10   1  122.99   34.70
   2  10  -1   -0.10   20.60
  -2 -10   1   19.00   17.90
   1  10  -1  125.59   36.50
  -1 -10   1  241.08   45.50
   0  10  -1  -11.00   14.60
   0 -10   1    3.50   17.00
  -1  10  -1  155.68   42.10
   1 -10   1  210.68   42.30
  -2  10  -1    8.40   24.10
   2 -10   1   -2.30   17.80
  -3  10  -1   31.40   30.10
   3 -10   1   11.40   22.00
   4   9  -1   31.00   22.80
  -4  -9   1   29.30   18.80
   3   9  -1   52.19   24.90
  -3  -9   1   28.40   19.80
   2   9  -1   44.10   25.00
  -2  -9   1    8.50   17.40
   1   9  -1    6.30   16.60
   0   9  -1   16.90   15.90
   0  -9   1   -1.60   14.80
  -1   9  -1   14.90   18.80
   1  -9   1   -3.60   13.80
  -2   9  -1   67.79   27.70
   2  -9   1   73.99   27.10
  -3   9  -1   36.30   25.40
   3  -9   1   21.70   19.70
   4  -9   1   94.19   32.90
   5  -9   1   -5.70   19.40
   6   8  -1    1.10   19.60
  -6  -8   1    0.40   14.10
   5   8  -1   53.39   26.10
  -5  -8   1   10.10   14.40
   4   8  -1  177.08   40.50
  -4  -8   1  189.78   36.00
   3   8  -1  112.99   31.20
  -3  -8   1   98.69   25.70
   2   8  -1   56.39   21.80
  -2  -8   1   58.49   21.60
   1   8  -1  540.95   62.99
  -1  -8   1  529.65   56.19
   0   8  -1   20.50   16.00
   0  -8   1   26.80   17.30
  -1   8  -1  398.76   53.79
   1  -8   1  465.45   54.29
  -2   8  -1  156.08   13.30
  -2   8  -1  116.69   31.00
   2  -8   1  154.48   34.30
  -3   8  -1  104.89   12.10
  -3   8  -1  106.49   31.10
   3  -8   1   88.59   28.30
  -4   8  -1   20.80    7.40
  -4   8  -1    6.80   23.20
   4  -8   1   19.90   19.60
  -5   8  -1   16.30    8.00
   5  -8   1   -9.30   16.20
  -6   8  -1   -4.60    7.60
   6  -8   1   -0.80   19.80
   7   7  -1   22.10   21.70
  -7  -7   1    3.50   14.10
   6   7  -1  134.89   35.90
  -6  -7   1  161.78   32.20
   5   7  -1   60.49   26.00
  -5  -7   1   29.00   16.10
   4   7  -1  232.98   41.40
  -4  -7   1  206.98   33.80
   3   7  -1   32.50   17.90
  -3  -7   1   35.30   14.30
   2   7  -1   13.30   12.30
  -2  -7   1   22.40   14.40
   1   7  -1   17.30   14.10
  -1  -7   1   51.59   18.40
   0   7  -1    6.00   10.50
   0  -7   1    2.60   11.00
  -1   7  -1  466.55   43.40
  -1   7  -1  443.26   19.70
   1  -7   1  540.35   45.70
  -2   7  -1  154.98   12.00
  -2   7  -1  140.39   29.50
   2  -7   1  128.49   29.70
  -3   7  -1  369.76   49.60
  -3   7  -1  385.86   20.00
   3  -7   1  425.36   50.89
  -4   7  -1  461.45   23.40
  -4   7  -1  352.96   54.19
   4  -7   1  428.56   53.79
  -5   7  -1   39.00    9.00
   5  -7   1   22.30   18.00
  -6   7  -1  201.08   19.30
   6  -7   1  226.08   43.30
  -7   7  -1   58.59   12.70
   7  -7   1   87.29   30.30
   7   6  -1    0.30   15.60
  -7  -6   1    2.50   10.40
   6   6  -1   27.90   18.60
  -6  -6   1   11.90   11.90
   5   6  -1    5.80   11.30
  -5  -6   1   19.80   12.20
   4   6  -1   16.50   12.40
  -4  -6   1   20.50   12.80
   3   6  -1  400.16   48.50
  -3  -6   1  386.66   33.80
   2   6  -1   18.70   13.50
  -2  -6   1   26.10   13.00
   1   6  -1 1255.77   71.69
  -1  -6   1 1266.77   67.99
   0   6  -1  229.78   32.20
   0   6  -1  283.17   11.60
   0  -6   1  191.98   29.30
   0  -6   1  287.47   10.40
  -1   6  -1  851.31   30.50
  -1   6  -1  776.92   52.99
   1  -6   1  773.62   53.49
  -2   6  -1 1148.89   67.59
  -2   6  -1 1149.29   41.80
   2  -6   1 1066.19   66.19
  -3   6  -1   30.20    5.60
  -3   6  -1   30.80   16.40
   3  -6   1   26.30   15.90
  -4   6  -1  366.46   19.30
  -4   6  -1  356.46   48.50
   4  -6   1  364.06   46.10
  -5   6  -1    7.20    5.40
   5  -6   1   14.50   15.40
  -6   6  -1    4.20    5.30
   6  -6   1   -8.20   14.40
  -7   6  -1   12.20    7.60
   7  -6   1   18.40   20.70
  -8   6  -1   -4.40    7.40
   8  -6   1  -22.70   19.90
   8   5  -1  135.69   35.00
  -8  -5   1   73.59   20.60
   7   5  -1   10.40   15.80
  -7  -5   1    7.20   10.90
   6   5  -1  406.66   51.69
  -6  -5   1  422.76   36.20
   5   5  -1   80.09   23.80
  -5  -5   1   97.19   20.40
   4   5  -1  223.28   36.70
  -4  -5   1  300.67   33.20
   3   5  -1   95.69   21.40
  -3  -5   1  158.98   24.20
   2   5  -1  160.48   26.00
  -2  -5   1  216.68   28.40
   1   5  -1   34.20   12.20
  -1  -5   1   29.30   11.50
   0   5  -1  402.46   15.30
   0   5  -1  421.46   33.20
   0  -5   1  419.66   14.60
   0  -5   1  396.76   32.40
  -1   5  -1   66.99   15.80
  -1   5  -1   23.80    3.60
   1  -5   1   43.60   14.90
  -2   5  -1  735.13   46.80
  -2   5  -1  741.33   28.30
   2  -5   1  742.23   49.10
  -3   5  -1    0.60    2.80
  -3   5  -1   -1.70    7.80
   3  -5   1   20.70   13.40
  -4   5  -1 1609.34   87.69
  -4   5  -1 1508.45   56.49
   4  -5   1 1496.45   82.49
  -5   5  -1  137.99   33.60
  -5   5  -1  177.38   14.40
   5  -5   1   94.49   24.90
  -6   5  -1  978.30   42.90
   6  -5   1 1092.99   72.19
  -7   5  -1  126.59   14.70
   7  -5   1  160.18   36.00
  -8   5  -1   41.70   10.70
   8  -5   1    3.80   21.60
   8   4  -1   22.40   19.40
   7   4  -1    1.00   11.80
  -7  -4   1   -1.30    7.70
   6   4  -1    2.80    2.80
   6   4  -1   14.80   13.80
  -6  -4   1   13.80    9.60
   5   4  -1  151.18   28.90
   5   4  -1  161.38    8.90
  -5  -4   1  169.48   24.00
   4   4  -1  121.49   24.90
   4   4  -1  120.69    6.20
   4   4  -1  124.79    6.60
  -4  -4   1  146.49   21.50
   3   4  -1 1377.46   74.59
   3   4  -1 1475.85   47.80
   3   4  -1 1482.25   47.90
  -3  -4   1 1361.16   65.59
   2   4  -1   11.90    9.00
  -2  -4   1   30.80   10.40
   1   4  -1 2554.84  107.49
  -1  -4   1 2631.34  103.79
   0   4  -1  668.03   23.50
   0   4  -1  727.23   40.50
   0  -4   1  653.73   39.80
   0  -4   1  689.33   23.20
  -1   4  -1 1121.09   39.40
  -1   4  -1 1119.39   54.79
   1  -4   1 1191.68   39.00
   1  -4   1 1102.89   57.29
  -2   4  -1  865.81   46.90
  -2   4  -1  863.21   32.00
   2  -4   1  917.51   50.89
  -3   4  -1  167.38   10.10
  -3   4  -1  171.68   25.60
   3  -4   1  230.78   29.40
  -4   4  -1  309.07   16.00
  -4   4  -1  325.07   39.90
   4  -4   1  296.27   35.40
   4  -4   1  318.17   23.50
  -5   4  -1    4.20    3.60
  -5   4  -1  -10.60   11.40
   5  -4   1   -0.30    9.80
  -6   4  -1  167.58   15.20
   6  -4   1  174.28   31.20
  -7   4  -1    1.80    5.40
   7  -4   1    0.80   14.60
  -8   4  -1   -1.90    6.10
   8  -4   1  -10.50   16.10
  -9   4  -1   26.20    9.70
   9   3  -1   31.20   18.10
   8   3  -1  141.89   33.20
   8   3  -1  151.28   27.90
   7   3  -1   -0.80   10.50
  -7  -3   1    4.20    4.80
   6   3  -1  420.66   40.00
  -6  -3   1  422.56   20.40
  -6  -3   1  342.57   29.00
   5   3  -1  328.07   40.00
  -5  -3   1  283.57   24.70
  -5  -3   1  339.37   16.20
   4   3  -1  164.68   26.80
  -4  -3   1  165.38    9.60
  -4  -3   1  194.38   23.50
   3   3  -1 1427.76   47.40
   3   3  -1 1459.75   47.10
   3   3  -1 1264.47   68.39
  -3  -3   1 1378.06   60.89
   2   3  -1  167.28    6.50
   2   3  -1  208.58   25.40
   2   3  -1  166.28    6.40
  -2  -3   1  183.28   19.50
   1   3  -1  820.42   43.80
  -1  -3   1  866.21   41.00
   0   3  -1  822.42   41.00
   0   3  -1  811.02   27.90
   0  -3   1  844.62   41.80
   0  -3   1  881.81   43.20
   0  -3   1  835.52   27.80
  -1   3  -1   24.50    7.60
  -1   3  -1   24.30    2.70
   1  -3   1   19.70    2.30
   1  -3   1   25.90    7.90
   1  -3   1   34.20   10.40
  -2   3  -1  909.01   43.60
  -2   3  -1  866.51   32.20
   2  -3   1  903.71   46.50
   2  -3   1  947.01   41.20
  -3   3  -1   15.90    9.20
  -3   3  -1   12.80    3.10
   3  -3   1   10.80    5.10
   3  -3   1    2.30    7.10
  -4   3  -1 1122.49   41.20
  -4   3  -1 1109.29   59.99
   4  -3   1 1032.10   46.80
   4  -3   1 1155.08   58.79
  -5   3  -1  106.59   20.50
  -5   3  -1  108.89   10.10
   5  -3   1   77.29   19.40
   5  -3   1  103.09   14.40
  -6   3  -1  247.78   15.80
   6  -3   1  310.07   38.40
  -7   3  -1  282.87   21.30
   7  -3   1  279.37   39.30
  -8   3  -1   91.29   13.60
   8  -3   1   50.39   22.40
  -9   3  -1   34.30    9.80
   9  -3   1   21.70   21.60
   9   2  -1    7.70   15.00
   8   2  -1   67.59   21.90
   8   2  -1   47.40   18.50
  -8  -2   1   73.19   11.20
   7   2  -1   64.29   17.60
   7   2  -1   81.29   22.30
  -7  -2   1   73.79   10.70
   6   2  -1   25.90   13.30
  -6  -2   1   42.50    7.50
   5   2  -1  101.39   21.30
  -5  -2   1  118.99   10.50
  -5  -2   1  102.59   16.40
   4   2  -1    2.20    6.60
  -4  -2   1    1.80    2.70
  -4  -2   1    1.60    5.10
   3   2  -1  270.67   10.80
   3   2  -1  248.08   23.60
  -3  -2   1  247.08   11.50
  -3  -2   1  251.97   18.30
   2   2  -1  276.07   18.60
   2   2  -1  236.28   21.30
   2   2  -1  269.47   10.30
   2   2  -1  277.47   26.30
  -2  -2   1  273.47   17.70
   1   2  -1 4021.30  147.59
   1   2  -1 4015.40  132.69
   1   2  -1 4223.78  143.39
  -1  -2   1 4153.48  132.89
  -1  -2   1 4097.39  142.49
   0   2  -1 1778.42   69.19
   0   2  -1 1794.12   68.69
   0   2  -1 1790.92   59.09
   0  -2   1 1798.52   69.99
   0  -2   1 1923.21   69.99
   0  -2   1 1792.52   59.09
  -1   2  -1 2536.85   92.79
  -1   2  -1 2609.94   86.49
   1  -2   1 2615.14   86.39
   1  -2   1 2654.63   97.49
   1  -2   1 2774.52   93.69
  -2   2  -1 1080.09   39.60
  -2   2  -1 1190.68   48.70
   2  -2   1 1196.78   50.99
   2  -2   1 1158.48   44.00
  -3   2  -1   15.20    8.30
  -3   2  -1   21.40    3.50
   3  -2   1   17.90    8.10
   3  -2   1   26.10    6.00
  -4   2  -1  671.03   38.50
  -4   2  -1  732.23   29.00
   4  -2   1  770.02   42.70
   4  -2   1  796.62   36.70
  -5   2  -1    8.10    6.90
  -5   2  -1    3.10    3.20
   5  -2   1    3.70    8.10
   5  -2   1   -0.70    6.50
  -6   2  -1   -3.30    3.30
   6  -2   1    2.40    9.30
  -7   2  -1    9.10    5.00
   7  -2   1   10.70   12.90
  -8   2  -1   26.00    8.00
   8  -2   1   54.99   21.00
  -9   2  -1   79.39   13.30
   9  -2   1   56.59   25.60
   9   1  -1    4.10   15.00
  -9  -1   1    6.30    7.00
   8   1  -1  255.27   35.30
  -8  -1   1  282.67   22.90
   7   1  -1    5.50   10.90
   7   1  -1   16.40   11.30
  -7  -1   1    4.30    5.00
   6   1  -1  846.12   47.10
   6   1  -1  796.82   53.49
  -6  -1   1  856.31   35.20
   5   1  -1  273.27   27.20
  -5  -1   1  282.47   15.10
  -4  -1   1 1693.63   79.99
  -4  -1   1 1709.63   59.19
  -4  -1   1 1626.24   66.39
   3   1  -1   98.69   22.50
  -3  -1   1   93.89   17.70
  -3  -1   1   91.49   11.40
  -3  -1   1   93.19    7.30
   2   1  -1 1824.62   83.39
   2   1  -1 1980.70   63.89
   2   1  -1 1914.91   70.29
  -2  -1   1 1875.41   79.89
  -2  -1   1 1942.21   64.39
  -2  -1   1 1900.91   69.29
   1   1  -1  752.32   37.60
   1   1  -1  771.42   25.40
   1   1  -1  751.32   25.80
   1   1  -1  775.12   30.00
  -1  -1   1  752.12   29.50
  -1  -1   1  722.53   36.00
   0   1  -1    8.10    3.40
   0   1  -1   10.50    3.80
   0  -1   1    5.20    2.80
   0  -1   1    5.20    2.70
   0  -1   1    9.10    1.00
  -1   1  -1  211.38    8.30
  -1   1  -1  220.68    9.20
   1  -1   1  214.58    9.20
   1  -1   1  221.88   13.20
   1  -1   1  231.68    8.40
  -2   1  -1  206.48    8.40
  -2   1  -1  171.98   11.60
  -2   1  -1  157.58   12.60
   2  -1   1  202.38   12.00
   2  -1   1  208.58   14.70
  -3   1  -1  240.68   15.50
  -3   1  -1  219.48   10.50
   3  -1   1  228.88   18.30
   3  -1   1  228.98   19.10
  -4   1  -1 1268.67   51.69
  -4   1  -1 1214.98   43.90
   4  -1   1 1197.98   60.49
   4  -1   1 1159.48   56.09
  -5   1  -1  229.98   13.00
   5  -1   1  249.48   28.30
   5  -1   1  247.48   32.40
   5  -1   1  238.58   19.30
  -6   1  -1  551.74   24.60
   6  -1   1  484.05   37.90
   6  -1   1  529.85   32.70
  -7   1  -1  455.95   24.00
   7  -1   1  519.35   42.60
   8  -1   1    8.70   14.80
  -9   1  -1  219.68   20.90
   9  -1   1  253.07   41.50
   9   0  -1   -5.20   14.40
  -9   0   1    6.00    7.10
   8   0  -1   95.19   23.80
  -8   0   1   93.59   13.40
   7   0  -1   80.99   20.00
  -7   0   1   24.40    7.20
   6   0  -1   28.30   12.50
  -6   0   1   26.70    6.30
  -6   0   1   20.60   13.30
   5   0  -1   12.70    8.00
  -5   0   1   25.50    5.20
  -5   0   1   17.50   11.80
   4   0  -1   84.99   13.60
  -4   0   1   72.99   18.00
  -4   0   1   51.59    6.30
   3   0  -1  782.32   34.40
   3   0  -1  721.83   50.09
   3   0  -1  786.92   33.70
  -3   0   1  784.92   47.90
  -3   0   1  739.13   28.70
   2   0  -1  138.29    9.00
   2   0  -1  156.58   23.40
   2   0  -1  130.29    9.30
   2   0  -1  142.19    6.90
  -2   0   1  150.58   21.50
  -2   0   1  138.29    7.20
   1   0  -1 1403.46   60.69
   1   0  -1 1434.06   47.50
   1   0  -1 1451.65   46.70
   1   0  -1 1382.56   47.10
  -1   0   1 1363.56   46.80
  -1   0   1 1289.97   59.39
  -1   0  -1 1111.99   37.30
  -1   0  -1 1124.09   40.30
  -1   0  -1 1088.49   40.70
   1   0   1 1113.29   40.30
   1   0   1 1189.58   37.40
  -2   0  -1 2186.18   72.29
   2   0   1 2080.29   77.59
   2   0   1 2232.78   79.49
   2   0   1 2236.88   80.29
   2   0   1 2187.18   72.19
   2   0   1 2198.78   78.59
  -3   0  -1 1497.95   50.89
   3   0   1 1452.85   60.09
   3   0   1 1500.25   59.19
   3   0   1 1476.15   65.59
  -4   0  -1  699.03   27.00
   4   0   1  668.83   45.70
   4   0   1  760.52   37.30
   4   0   1  686.13   37.40
  -5   0  -1   12.50    3.80
   5   0   1   14.00    7.60
   5   0   1    8.50    8.10
  -6   0  -1   14.40    4.30
   6   0   1   13.30    8.30
   6   0   1   16.70   10.40
  -7   0  -1   12.90    5.20
   7   0   1   -7.70    8.10
   7   0   1    4.60   13.10
  -8   0  -1    2.10    5.00
   8   0   1   -7.30   10.70
  -9   0  -1   53.99   10.90
   9   0   1   46.10   22.20
   9  -1  -1   30.40   18.90
  -9   1   1   46.50   11.80
   8  -1  -1  235.48   36.50
  -8   1   1  214.38   20.50
   7  -1  -1   62.39   18.40
  -7   1   1   71.49   10.70
  -7   1   1   48.50   18.70
   6  -1  -1  957.80   54.19
  -6   1   1  980.20   40.40
  -6   1   1  968.50   61.39
   5  -1  -1  591.74   37.00
  -5   1   1  647.64   48.50
  -5   1   1  585.04   26.30
   4  -1  -1  442.36   28.30
   4  -1  -1  471.75   61.79
  -4   1   1  434.96   39.60
  -4   1   1  459.05   20.30
   3  -1  -1 1371.26   69.39
   3  -1  -1 1264.47   53.89
  -3   1   1 1255.27   69.69
  -3   1   1 1309.57   46.50
  -3   1   1 1307.57   52.09
   2  -1  -1    1.10    1.00
   2  -1  -1   -3.40    5.50
   2  -1  -1   -3.80    3.00
  -2   1   1   -5.40    7.60
  -2   1   1    1.90    1.80
  -2   1   1    1.80    3.30
   1  -1  -1 1446.16   60.09
   1  -1  -1 1375.06   47.90
   1  -1  -1 1496.35   52.99
  -1   1   1 1379.66   52.19
  -1   1   1 1434.06   61.79
  -1   1   1 1429.96   48.30
   0  -1  -1   55.49    6.60
   0  -1  -1   49.60    2.40
   0   1   1   47.80    6.40
   0   1   1   61.89    9.20
   0   1   1   47.20    2.40
  -1  -1  -1   -3.80    2.60
  -1  -1  -1   -0.60    2.50
   1   1   1    5.30    0.90
   1   1   1    0.50    3.10
   1   1   1    5.40    3.90
  -2  -1  -1 1258.67   49.20
  -2  -1  -1 1187.18   52.39
  -2  -1  -1 1237.28   41.20
   2   1   1 1170.28   51.29
   2   1   1 1270.07   41.20
  -3  -1  -1  270.87   18.50
  -3  -1  -1  296.97   11.50
   3   1   1  290.37   23.70
   3   1   1  223.88   12.70
   3   1   1  269.67   20.10
  -4  -1  -1 1427.46   52.69
  -4  -1  -1 1608.44   64.59
   4   1   1 1548.95   68.09
  -5  -1  -1  465.95   20.20
   5   1   1  482.95   33.50
   5   1   1  452.15   31.30
  -6  -1  -1  533.45   22.70
   6   1   1  412.26   33.40
   6   1   1  482.45   35.90
  -7  -1  -1  310.27   18.10
   7   1   1  320.47   37.70
   7   1   1  322.37   30.80
  -8  -1  -1   27.70    7.60
   8   1   1    0.80   11.80
  -9  -1  -1  200.38   19.40
   9   1   1  192.18   35.90
   9  -2  -1   30.60   21.20
  -9   2   1   75.79   13.90
   8  -2  -1   33.70   17.70
  -8   2   1   63.79   12.60
   7  -2  -1   -7.00   10.60
  -7   2   1   -5.60    3.90
   6  -2  -1   32.80   13.90
  -6   2   1   35.00    7.50
  -6   2   1   32.00   17.90
   5  -2  -1   -2.20    7.50
  -5   2   1   32.70   17.80
  -5   2   1   22.40    5.50
   4  -2  -1   15.50    8.40
  -4   2   1   12.00   14.60
  -4   2   1   15.90    4.20
   3  -2  -1 1335.57   64.39
   3  -2  -1 1258.87   56.59
  -3   2   1 1284.37   46.00
  -3   2   1 1156.18   69.29
   2  -2  -1  398.86   27.60
   2  -2  -1  393.26   23.70
  -2   2   1  322.97   29.60
  -2   2   1  374.46   22.00
  -2   2   1  360.56   15.70
   1  -2  -1 1389.86   55.99
   1  -2  -1 1406.46   46.90
   1  -2  -1 1432.86   60.29
  -1   2   1 1379.76   56.39
  -1   2   1 1360.16   61.79
  -1   2   1 1330.97   47.40
   0  -2  -1 2810.62  102.59
   0  -2  -1 2849.81  106.79
   0  -2  -1 2805.92   93.19
   0  -2  -1 2916.21   93.89
   0   2   1 2959.50  104.19
   0   2   1 2852.11  107.89
  -1  -2  -1   24.10    1.60
  -1  -2  -1   32.50    7.50
   1   2   1   15.70    6.10
   1   2   1   21.20    1.60
   1   2   1   22.60    7.80
  -2  -2  -1 2980.90   96.29
  -2  -2  -1 2843.92  107.49
   2   2   1 3024.20   96.19
   2   2   1 2911.21  112.99
  -3  -2  -1  367.36   23.80
  -3  -2  -1  349.27   14.20
   3   2   1  403.26   28.10
   3   2   1  375.76   14.00
  -4  -2  -1 1627.34   55.09
  -4  -2  -1 1487.25   67.39
   4   2   1 1651.73   74.99
  -5  -2  -1  243.58   26.30
  -5  -2  -1  225.28   12.10
   5   2   1  256.97   30.50
  -6  -2  -1  193.28   13.80
   6   2   1  168.88   27.00
  -7  -2  -1    3.90    4.10
   7   2   1    1.00    8.70
   7   2   1    9.30   11.10
  -8  -2  -1   -2.30    4.60
   8   2   1   -4.80   11.00
  -9  -2  -1   -0.70    7.20
   9   2   1   -1.50   14.10
   9  -3  -1    4.90   21.50
  -9   3   1   -0.20    8.10
   8  -3  -1  215.78   38.20
  -8   3   1  170.78   19.10
   7  -3  -1   99.99   26.40
  -7   3   1  103.49   14.00
   6  -3  -1   72.39   20.00
  -6   3   1   84.99   11.00
  -6   3   1  102.39   29.80
   5  -3  -1  834.02   51.09
  -5   3   1  713.63   62.69
  -5   3   1  847.02   35.00
   4  -3  -1  240.98   29.10
  -4   3   1  247.78   40.00
  -4   3   1  153.28   13.00
   3  -3  -1 2303.37   94.89
  -3   3   1 2263.07   78.99
  -3   3   1 2242.18  109.09
   2  -3  -1  606.54   35.20
  -2   3   1  593.14   23.90
  -2   3   1  614.94   42.40
   1  -3  -1 1348.67   59.09
   1  -3  -1 1389.96   45.80
  -1   3   1 1314.37   46.70
  -1   3   1 1299.57   64.29
   0  -3  -1  147.99    6.30
   0  -3  -1  103.39   14.80
   0  -3  -1  151.08    6.00
   0   3   1  175.78   22.10
  -1  -3  -1  339.87   23.50
   1   3   1  410.76   28.80
  -2  -3  -1  431.06   27.30
  -2  -3  -1  452.65   15.10
   2   3   1  456.65   32.10
   2   3   1  418.06   15.00
  -3  -3  -1  882.41   44.70
  -3  -3  -1  870.11   30.30
   3   3   1  885.01   29.80
   3   3   1  839.02   49.70
  -4  -3  -1  480.05   31.70
  -4  -3  -1  494.25   18.70
   4   3   1  417.06   35.10
  -5  -3  -1  589.34   23.20
  -5  -3  -1  544.15   36.60
   5   3   1  551.14   42.70
  -6  -3  -1   73.79   17.20
  -6  -3  -1   66.89    8.20
   6   3   1  102.89   23.60
  -7  -3  -1  372.06   20.50
   7   3   1  427.66   49.60
   8   3   1    4.70   11.80
   8  -4  -1   91.29   29.80
  -8   4   1   47.00   11.60
   7  -4  -1   -7.80   13.70
  -7   4   1   -0.50    5.60
   6  -4  -1   20.40   16.00
  -6   4   1  -12.10   19.90
  -6   4   1    8.70    5.70
   5  -4  -1   62.29   19.00
  -5   4   1   75.09   28.10
  -5   4   1  109.59   12.00
   4  -4  -1   85.89   20.40
  -4   4   1   75.59   25.90
  -4   4   1   75.89    9.50
   3  -4  -1  411.16   32.60
  -3   4   1  397.56   48.40
  -3   4   1  379.16   18.70
   2  -4  -1  973.80   52.49
  -2   4   1  969.80   36.80
  -2   4   1  987.50   60.09
   1  -4  -1  286.37   24.50
   1  -4  -1  266.37   11.40
  -1   4   1  313.17   29.00
   0  -4  -1 1040.10   51.79
   0  -4  -1 1071.59   34.90
   0  -4  -1 1034.90   34.80
   0   4   1  939.91   55.69
  -1  -4  -1  300.37   24.20
   1   4   1  297.57   27.90
  -2  -4  -1  836.92   45.50
   2   4   1  906.71   53.39
  -3  -4  -1    8.60    7.60
   3   4   1   -0.50    6.60
  -4  -4  -1  383.06   30.70
  -4  -4  -1  413.26   16.30
   4   4   1  415.86   37.40
   4   4   1  415.86   15.40
  -5  -4  -1   86.99    7.70
  -5  -4  -1   84.69   18.60
   5   4   1   68.19   20.00
  -6  -4  -1    7.70    9.30
   6   4   1    1.70   10.70
  -7  -4  -1    9.70   11.60
   7   4   1   -1.30   12.50
   8  -5  -1   49.90   26.60
  -8   5   1   47.60   12.40
   7  -5  -1  105.99   29.10
  -7   5   1  112.29   15.10
   6  -5  -1   94.99   27.00
  -6   5   1   91.49   13.30
   5  -5  -1  349.27   43.60
  -5   5   1  371.46   60.29
  -5   5   1  306.27   19.60
   4  -5  -1    1.90   10.50
  -4   5   1   -6.00   13.80
  -4   5   1    1.60    4.60
   3  -5  -1  532.85   41.00
  -3   5   1  434.36   54.39
  -3   5   1  494.55   23.20
   2  -5  -1  345.47   37.40
  -2   5   1  332.07   16.90
  -2   5   1  402.86   47.60
   1  -5  -1  322.87   13.60
   1  -5  -1  322.37   35.20
  -1   5   1  355.76   40.80
   0  -5  -1  124.29    5.50
   0  -5  -1   94.29   18.80
   0  -5  -1  108.99    5.30
   0   5   1   96.89   21.50
  -1  -5  -1  217.58   27.20
   1   5   1  193.68   29.20
  -2  -5  -1   19.20   10.40
   2   5   1   20.60   11.40
   3   5   1   18.30   12.00
  -4  -5  -1    3.60    9.10
   4   5   1    6.30   10.40
  -5  -5  -1  137.19   24.80
   5   5   1  150.48   30.90
  -6  -5  -1   41.00   15.60
   6   5   1   53.59   21.60
  -7  -5  -1  175.58   30.70
   7   5   1  146.39   33.70
  -8  -5  -1   15.50   14.40
   8   5   1  -10.60   17.20
   7  -6  -1   -2.70   17.80
  -7   6   1   17.70    8.20
   6  -6  -1   93.99   26.60
  -6   6   1   63.09   11.90
   5  -6  -1   40.90   19.40
  -5   6   1   19.60   23.50
  -5   6   1   51.29   10.30
   4  -6  -1  127.99   29.20
  -4   6   1  115.09   13.10
  -4   6   1   70.59   29.90
   3  -6  -1  224.58   35.50
  -3   6   1  208.78   16.20
  -3   6   1  224.68   40.80
   2  -6  -1  473.15   40.50
  -2   6   1  440.36   53.39
   1  -6  -1  426.26   36.40
   1  -6  -1  426.96   17.10
  -1   6   1  447.26   53.29
   0  -6  -1  641.24   22.10
   0  -6  -1  594.54   43.20
   0   6   1  635.44   51.79
  -1  -6  -1   96.09   20.90
   1   6   1  113.59   26.60
  -2  -6  -1  645.94   44.80
   2   6   1  691.73   54.19
  -3  -6  -1   -1.00    8.70
   3   6   1    1.90    9.00
  -4  -6  -1   96.89   21.70
   4   6   1   55.09   21.10
  -5  -6  -1   43.20   17.30
   5   6   1   17.60   16.40
  -6  -6  -1    2.20   11.20
   6   6   1   15.20   17.30
  -7  -6  -1    9.00   13.60
   7   6   1   -0.50   16.40
   7  -7  -1    1.00   23.40
  -7   7   1   14.30   10.00
   6  -7  -1   70.29   27.80
  -6   7   1   31.80   10.60
   5  -7  -1  160.38   34.90
  -5   7   1  157.98   17.00
  -5   7   1  126.39   42.20
   4  -7  -1   23.30   18.50
  -4   7   1   30.90   25.80
   3  -7  -1  226.88   39.00
   3  -7  -1  245.88   14.10
  -3   7   1  222.08   44.10
   2  -7  -1   71.79    7.30
   2  -7  -1   83.29   22.70
  -2   7   1   71.09   25.90
   1  -7  -1   57.69   19.40
  -1   7   1   22.20   17.30
   0  -7  -1   20.50   12.90
   0   7   1    3.60   11.40
  -1  -7  -1    4.20   12.90
   1   7   1   -1.20   11.70
  -2  -7  -1    2.70   10.30
   2   7   1   21.20   15.30
  -3  -7  -1   47.90   18.80
   3   7   1   36.90   19.40
  -4  -7  -1   82.39   22.10
   4   7   1  102.09   28.10
  -5  -7  -1   39.30   17.60
   5   7   1   87.59   30.40
  -6  -7  -1  -15.20   10.20
   6   7   1   -6.80   15.40
   6  -8  -1   14.80    7.30
   6  -8  -1    1.30   22.30
   5  -8  -1    3.50   19.20
   5  -8  -1   -1.80    5.40
   4  -8  -1   10.70   18.30
   4  -8  -1    1.20    4.50
  -4   8   1    2.40   23.00
   3  -8  -1   43.30   23.20
  -3   8   1   21.00   21.00
   2  -8  -1    5.30   15.30
  -2   8   1   32.30   21.40
   1  -8  -1   21.00   16.80
  -1   8   1   15.10   17.10
   0  -8  -1  336.37   45.00
   0   8   1  435.36   60.79
  -1  -8  -1    6.30   12.00
   1   8   1    5.10   14.00
  -2  -8  -1  543.75   46.70
   2   8   1  427.06   60.79
  -3  -8  -1   88.89   24.30
   3   8   1   65.49   26.60
  -4  -8  -1  164.48   32.00
   4   8   1  157.78   38.10
  -5  -8  -1   -3.90   14.30
   5   8   1   14.30   18.60
   4  -9  -1  -11.90   18.70
  -4   9   1   -6.80   27.10
   3  -9  -1  244.78   44.00
  -3   9   1  203.38   53.39
   2  -9  -1   22.30   21.80
  -2   9   1  125.69   41.50
   1  -9  -1   40.40   21.10
  -1   9   1   46.10   23.50
   0  -9  -1   20.60   17.60
   0   9   1   47.00   24.00
  -1  -9  -1   11.60   14.70
   1   9   1   -3.10   17.20
  -2  -9  -1  -15.30   10.90
   2   9   1    3.30   17.40
  -3  -9  -1    9.50   16.40
   3   9   1   12.40   18.50
  -4  -9  -1    4.30   13.70
   4   9   1  -10.70   15.50
   2 -10  -1   93.99   32.70
  -2  10   1  143.59   46.20
   1 -10  -1   15.50   19.30
  -1  10   1  -13.70   19.20
   0 -10  -1  267.27   45.70
   0  10   1  134.99   42.60
  -1 -10  -1   50.69   26.20
   1  10   1   20.20   23.70
   3  10  -2    4.80   19.10
  -3 -10   2   10.70   18.80
   2  10  -2  139.09   39.20
  -2 -10   2  179.58   39.20
   1  10  -2   60.39   28.70
  -1 -10   2   42.50   22.80
   0  10  -2  179.38   42.80
   0 -10   2  319.67   50.49
  -1  10  -2  152.68   38.90
   1 -10   2  130.69   34.10
  -2  10  -2   13.30   21.50
   2 -10   2   52.69   27.20
   3 -10   2   76.59   28.90
   5   9  -2   46.50   27.00
  -5  -9   2   88.99   27.10
   4   9  -2   47.10   24.40
  -4  -9   2   58.39   24.00
   3   9  -2   44.90   24.30
  -3  -9   2   59.89   24.00
   2   9  -2   51.89   21.60
  -2  -9   2   40.10   22.10
   1   9  -2   11.70   16.50
  -1  -9   2    2.40   13.90
   0   9  -2   43.90   21.10
   0  -9   2   30.70   19.70
  -1   9  -2   30.00   18.80
   1  -9   2   60.79   24.20
  -2   9  -2   -4.30   13.00
   2  -9   2   -3.60   15.40
  -3   9  -2  132.79   36.00
   3  -9   2  178.98   40.90
   4  -9   2   32.60   24.00
  -5   9  -2  119.59   15.50
   5  -9   2  144.39   39.90
   6   8  -2   -8.60   14.90
  -6  -8   2    1.30   12.80
   5   8  -2   -3.50   12.40
  -5  -8   2   13.20   15.50
   4   8  -2    8.00   13.80
  -4  -8   2    2.20   13.30
   3   8  -2   -1.20   12.30
  -3  -8   2    7.10   13.00
   2   8  -2  141.99   33.00
  -2  -8   2  191.18   34.70
   1   8  -2   18.10   15.20
  -1  -8   2   16.50   14.60
   0   8  -2  166.08   34.00
   0  -8   2  230.98   38.90
  -1   8  -2  385.26   49.99
   1  -8   2  295.87   44.40
  -2   8  -2   12.50   14.80
  -2   8  -2   18.40    5.60
  -3   8  -2  390.76   20.00
  -3   8  -2  311.67   47.40
   3  -8   2  336.07   49.70
  -4   8  -2    6.00    5.60
   4  -8   2    0.70   17.30
  -5   8  -2   96.99   13.20
   5  -8   2  107.69   35.60
  -6   8  -2    7.00    7.90
   6  -8   2   -2.50   20.50
   7   7  -2  128.29   36.50
  -7  -7   2  112.39   27.30
   6   7  -2  239.38   44.90
  -6  -7   2  216.18   35.90
   5   7  -2  103.39   29.60
  -5  -7   2  107.59   24.90
   4   7  -2  553.24   52.99
  -4  -7   2  516.55   44.10
   3   7  -2    5.00   10.60
  -3  -7   2    7.20   11.10
   2   7  -2  624.04   51.39
  -2  -7   2  581.14   46.40
   1   7  -2   -0.60    8.50
  -1  -7   2    9.30   10.80
   0   7  -2  158.08   28.70
   0   7  -2  170.28    8.30
   0  -7   2  133.29   27.00
  -1   7  -2    1.80    9.00
  -1   7  -2    0.40    2.50
   1  -7   2    7.50   12.60
  -2   7  -2   10.70    3.90
  -2   7  -2   12.50   13.70
   2  -7   2    6.90   12.50
  -3   7  -2  139.89   11.80
  -3   7  -2  137.29   28.90
   3  -7   2   97.39   26.60
  -4   7  -2   75.59   26.70
  -4   7  -2   84.79   10.30
   4  -7   2   94.49   26.60
  -5   7  -2  287.17   21.00
   5  -7   2  261.67   43.70
  -6   7  -2  240.48   20.70
   6  -7   2  216.58   44.30
  -7   7  -2    8.90    8.40
   7  -7   2    4.00   21.50
   7   6  -2   -2.70   13.00
  -7  -6   2   -6.50    9.60
   6   6  -2   11.90   14.60
  -6  -6   2    8.10   11.20
   5   6  -2   30.70   18.70
  -5  -6   2   32.80   14.70
   4   6  -2   90.09   24.00
  -4  -6   2  109.89   22.90
   3   6  -2   28.90   14.90
  -3  -6   2   51.49   16.40
   2   6  -2  802.22   55.39
  -2  -6   2  745.03   48.90
   1   6  -2  354.36   41.00
  -1  -6   2  397.16   41.70
   0   6  -2  907.01   31.70
   0   6  -2  843.82   54.19
   0  -6   2  943.91   57.59
   0  -6   2  925.21   31.20
  -1   6  -2  802.42   29.00
  -1   6  -2  736.83   49.10
   1  -6   2  794.12   53.69
  -2   6  -2  308.57   14.70
  -2   6  -2  324.37   37.00
   2  -6   2  297.27   39.20
  -3   6  -2  248.98   34.40
  -3   6  -2  244.98   13.60
   3  -6   2  261.87   37.30
  -4   6  -2   14.70   13.00
  -4   6  -2    7.80    4.30
   4  -6   2   -1.30   11.70
  -5   6  -2  111.59   11.80
   5  -6   2   91.89   27.20
  -6   6  -2    0.40    5.30
   6  -6   2   -5.90   16.00
  -7   6  -2    0.70    6.20
   7  -6   2  -18.50   16.50
  -8   6  -2   50.39   11.50
   8  -6   2   24.10   22.90
   8   5  -2   11.10   17.10
  -8  -5   2    0.80   10.80
   7   5  -2  186.48   39.10
  -7  -5   2  163.98   27.40
   6   5  -2  102.89   28.70
  -6  -5   2   83.99   20.00
   5   5  -2   59.69    5.10
   5   5  -2   83.99   24.80
  -5  -5   2   60.29   17.30
   4   5  -2  439.86   42.20
   4   5  -2  445.86   16.10
  -4  -5   2  418.66   33.40
   3   5  -2   15.40   10.50
  -3  -5   2    9.00    8.10
   2   5  -2  525.35   41.60
  -2  -5   2  626.74   39.60
   1   5  -2    6.40    7.60
  -1  -5   2    9.00    9.40
   0   5  -2   92.39   18.30
   0   5  -2   82.39    4.50
   0  -5   2   74.49   18.50
   0  -5   2   74.69    4.20
  -1   5  -2  229.78   10.40
  -1   5  -2  225.78   26.50
   1  -5   2  265.37   33.40
  -2   5  -2   74.79   16.00
  -2   5  -2   83.49    7.00
   2  -5   2   98.99   21.70
  -3   5  -2  924.21   33.90
  -3   5  -2  852.21   50.79
   3  -5   2  819.32   54.99
  -4   5  -2  484.15   22.00
  -4   5  -2  489.25   41.30
   4  -5   2  456.45   47.70
  -5   5  -2  143.59   12.70
   5  -5   2  219.78   35.30
  -6   5  -2  556.14   26.80
   6  -5   2  451.05   53.89
  -7   5  -2   13.30    6.60
   7  -5   2   26.80   20.90
  -8   5  -2  154.98   18.50
   8  -5   2  202.98   43.40
   8   4  -2   12.30   16.30
   7   4  -2   29.40    5.80
   7   4  -2   21.90   15.50
  -7  -4   2   15.80   10.80
   6   4  -2   21.20   15.50
   6   4  -2    6.10    3.30
  -6  -4   2   17.40   10.20
   5   4  -2    4.90    2.60
   5   4  -2   17.00   12.30
  -5  -4   2    7.60    7.40
   4   4  -2  353.36   42.10
   4   4  -2  344.77   13.90
  -4  -4   2  352.96   27.10
   3   4  -2    1.80    7.40
   3   4  -2    0.40    1.50
   3   4  -2    2.40    1.20
  -3  -4   2    5.00    6.50
   2   4  -2 1395.86   45.60
   2   4  -2 1397.96   70.69
   2   4  -2 1351.56   45.10
  -2  -4   2 1322.57   62.39
   1   4  -2  563.24   36.60
   1   4  -2  494.65   17.00
  -1  -4   2  503.65   17.20
  -1  -4   2  442.96   31.20
   0   4  -2 1238.68   42.20
   0   4  -2 1236.98   59.29
   0  -4   2 1296.07   42.20
   0  -4   2 1261.57   60.99
  -1   4  -2  473.15   18.20
  -1   4  -2  503.55   30.40
   1  -4   2  539.55   35.60
  -2   4  -2   32.90    4.10
  -2   4  -2   33.90   10.00
   2  -4   2   43.00   10.60
   2  -4   2   49.50   14.20
  -3   4  -2  622.44   24.60
  -3   4  -2  589.74   36.90
   3  -4   2  643.84   33.50
   3  -4   2  614.64   42.20
  -4   4  -2   23.80   13.60
  -4   4  -2   17.60    4.10
   4  -4   2    9.40   10.10
   4  -4   2   20.50    7.30
  -5   4  -2   54.69    7.80
   5  -4   2   72.99   22.10
  -6   4  -2    4.60    4.30
   6  -4   2   -4.40   12.30
  -7   4  -2   -1.10    4.20
   7  -4   2   31.60   16.90
  -8   4  -2   36.10    9.20
   8  -4   2   33.10   22.00
  -9   4  -2   10.50    8.70
   9   3  -2   86.89   25.30
   8   3  -2    8.30   12.10
   8   3  -2    0.30   11.50
   8   3  -2    2.70    4.70
   7   3  -2  158.38   33.60
   7   3  -2  164.38   13.20
   6   3  -2  431.16   19.90
   6   3  -2  461.65   44.30
  -6  -3   2  452.45   32.00
   5   3  -2  159.28   29.10
   5   3  -2  142.29    8.80
  -5  -3   2  132.19   19.20
   4   3  -2  756.12   27.30
   4   3  -2  728.83   50.89
  -4  -3   2  711.13   39.10
   3   3  -2  304.77   35.50
   3   3  -2  278.97   11.60
   3   3  -2  290.37   11.40
  -3  -3   2  240.88   20.00
   2   3  -2  676.23   24.80
   2   3  -2  704.63   24.00
   2   3  -2  746.83   44.30
  -2  -3   2  716.03   35.90
   1   3  -2  100.19    4.40
   1   3  -2   85.19   15.00
  -1  -3   2  106.39    4.50
  -1  -3   2   94.69   14.00
   0   3  -2 1877.31   77.29
   0   3  -2 1910.01   62.79
   0  -3   2 1959.40   62.89
   0  -3   2 1856.51   77.59
  -1   3  -2    7.20    1.80
  -1   3  -2   11.30    5.20
   1  -3   2   11.00    5.90
   1  -3   2    6.30    6.30
   1  -3   2    9.70    1.80
  -2   3  -2  911.71   31.80
  -2   3  -2  879.31   39.00
   2  -3   2  854.81   46.10
   2  -3   2  913.81   39.30
  -3   3  -2  126.49   16.50
  -3   3  -2   94.29    7.60
   3  -3   2  111.69    9.60
   3  -3   2  106.79   18.10
  -4   3  -2  634.44   25.70
   4  -3   2  617.74   41.00
  -5   3  -2   27.70    5.60
   5  -3   2   18.00   12.50
  -6   3  -2  465.45   22.80
   6  -3   2  438.76   46.80
  -7   3  -2   15.20    5.70
   7  -3   2   27.10   17.50
  -8   3  -2  317.37   24.20
   8  -3   2  231.88   39.70
  -9   3  -2   79.49   13.90
   9  -3   2   49.99   24.90
   9   2  -2   45.20   20.00
   9   2  -2   32.80    8.40
   8   2  -2   24.00   16.40
   8   2  -2    2.50   10.90
   7   2  -2   28.80   13.10
   7   2  -2   36.90   16.50
  -7  -2   2   21.20    7.00
   6   2  -2    6.00    9.90
  -6  -2   2   12.70    5.10
  -5  -2   2   18.00    5.10
  -5  -2   2   34.20    9.90
  -4  -2   2  548.05   43.20
  -4  -2   2  538.85   29.70
   3   2  -2 1181.58   41.50
   3   2  -2 1176.68   41.20
  -3  -2   2 1136.69   63.59
  -3  -2   2 1247.08   50.59
   2   2  -2  434.46   17.10
   2   2  -2  455.75   16.30
   2   2  -2  462.05   24.50
  -2  -2   2  459.35   23.60
  -2  -2   2  423.96   32.80
   1   2  -2 2589.24   92.19
   1   2  -2 2429.36   82.89
  -1  -2   2 2611.14   82.99
  -1  -2   2 2505.75  101.09
  -1  -2   2 2555.34   91.79
   0   2  -2  188.68   14.50
   0   2  -2  189.08    7.50
   0   2  -2  212.18   17.80
   0  -2   2  196.28    7.70
   0  -2   2  182.98   14.90
  -1   2  -2 3941.31  137.69
  -1   2  -2 3944.61  139.69
  -1   2  -2 4095.29  132.29
  -1   2  -2 3967.10  142.19
   1  -2   2 4105.59  132.19
   1  -2   2 4237.58  144.29
  -2   2  -2  214.28    9.20
   2  -2   2  192.58   17.10
  -3   2  -2 2977.00  100.49
   3  -2   2 3043.10  115.49
  -4   2  -2    5.40    2.60
   4  -2   2   -4.20    6.20
  -5   2  -2  418.66   19.00
   5  -2   2  369.76   32.10
  -6   2  -2   36.30    6.60
   6  -2   2   27.50   14.30
  -7   2  -2   23.00    6.50
   7  -2   2   10.30   14.30
  -8   2  -2    3.50    5.40
   8  -2   2    9.20   14.40
  -9   2  -2   46.30   11.10
   9  -2   2    4.20   17.30
   9   1  -2   54.79   21.50
   8   1  -2   48.10   17.60
   8   1  -2   51.09   21.20
  -8  -1   2   68.99   12.10
   7   1  -2  155.68   25.00
  -7  -1   2  168.68   16.50
   6   1  -2  471.45   32.30
  -6  -1   2  437.76   23.10
  -6  -1   2  479.45   43.30
   5   1  -2  186.48   21.40
  -5  -1   2   92.09   23.30
  -5  -1   2  159.08   13.30
  -4  -1   2  777.52   53.39
  -4  -1   2  800.32   31.60
   3   1  -2   87.59   11.30
  -3  -1   2  104.59   11.40
  -3  -1   2   92.69   20.70
  -3  -1   2  105.19    8.80
   2   1  -2 1603.64   54.59
   2   1  -2 1640.94   58.79
   2   1  -2 1483.45   79.69
   2   1  -2 1635.14   53.79
  -2  -1   2 1614.24   57.99
  -2  -1   2 1525.55   76.49
   1   1  -2   25.10    2.30
   1   1  -2   25.20    4.40
  -1  -1   2   40.90    3.00
  -1  -1   2   27.50    4.70
  -1  -1   2   21.90   10.50
   0   1  -2    0.30    6.50
   0   1  -2   11.90    1.70
   0   1  -2    9.40    3.70
   0  -1   2    7.30    3.80
   0  -1   2    9.90    1.70
   0  -1   2   21.00    7.80
  -1   1  -2   13.10    5.20
  -1   1  -2    4.10    1.50
  -1   1  -2    8.40    4.30
   1  -1   2    6.50    4.40
   1  -1   2    5.70    4.50
  -2   1  -2  252.27   10.30
   2  -1   2  259.57   10.40
   2  -1   2  234.08   16.90
  -3   1  -2   62.89    5.20
   3  -1   2   66.69   11.90
  -4   1  -2  835.02   30.30
   4  -1   2  804.52   32.90
   4  -1   2  829.12   43.40
   4  -1   2  701.73   40.00
  -5   1  -2    1.40    2.70
   5  -1   2    3.30    9.90
   5  -1   2    7.10    4.50
   5  -1   2   11.40    8.70
  -6   1  -2  405.16   20.30
   6  -1   2  407.96   35.40
   6  -1   2  425.76   24.90
  -7   1  -2   -3.30    3.70
   7  -1   2  -10.10    8.50
  -8   1  -2  165.28   15.60
   8  -1   2  158.58   32.40
  -9   1  -2   79.29   12.60
   9  -1   2   70.99   26.70
   9   0  -2  165.28   31.30
  -9   0   2  113.39   16.80
   8   0  -2   22.60   15.70
  -8   0   2   27.80    8.70
   7   0  -2  139.59   24.60
  -7   0   2  143.69   15.10
  -7   0   2  125.89   28.60
   6   0  -2  305.67   26.80
  -6   0   2  341.27   45.30
  -6   0   2  322.47   19.00
   5   0  -2  358.56   25.50
  -5   0   2  427.36   49.90
  -5   0   2  341.17   18.50
   4   0  -2   65.49   11.30
  -4   0   2   54.09   20.50
  -4   0   2   57.99    7.50
   3   0  -2 1093.29   79.99
   3   0  -2 1083.79   43.90
   3   0  -2 1088.99   42.70
  -3   0   2 1088.99   40.00
  -3   0   2 1002.70   64.49
   2   0  -2   10.70    2.60
   2   0  -2    4.70    2.90
   2   0  -2    8.40    2.10
   2   0  -2    6.50    9.40
   2   0  -2    2.10    2.20
  -2   0   2    1.30    9.40
   1   0  -2 2644.74  105.99
   1   0  -2 2509.35   83.39
  -1   0   2 2475.75  105.19
   0   0  -2  170.48   15.70
   0   0  -2  147.79    7.20
   0   0  -2  140.09    6.20
   0   0   2  156.68   18.40
   0   0   2  154.98    6.20
   0   0   2  144.39    7.40
  -1   0  -2 2725.33   94.39
  -1   0  -2 2632.44   87.69
   1   0   2 2710.03   87.69
   1   0   2 2704.63   96.19
   1   0   2 2598.04   92.29
  -2   0  -2  538.75   25.10
  -2   0  -2  526.65   19.50
   2   0   2  554.54   25.10
   2   0   2  524.95   26.40
   2   0   2  566.04   19.60
  -3   0  -2 1797.12   61.69
   3   0   2 1878.81   72.59
   3   0   2 1772.32   72.39
   3   0   2 1847.42   68.99
  -4   0  -2  886.41   33.30
   4   0   2  972.90   42.20
   4   0   2  851.01   48.20
   4   0   2  889.41   45.30
  -5   0  -2  289.17   14.30
   5   0   2  273.77   21.20
   5   0   2  284.67   30.40
   5   0   2  294.97   37.10
  -6   0  -2   54.39    7.60
   6   0   2   50.39   11.80
   6   0   2   22.30   12.10
  -7   0  -2   71.49    9.30
   7   0   2   77.59   20.20
  -8   0  -2    6.80    5.10
   8   0   2   -0.20   11.80
  -9   0  -2   12.90    6.80
   9   0   2   44.20   22.50
   9  -1  -2   42.10   21.10
  -9   1   2   39.60   11.00
   8  -1  -2   99.49   24.80
  -8   1   2   89.39   14.30
   7  -1  -2   76.19   20.20
  -7   1   2   81.99   25.50
  -7   1   2   56.19   10.30
   6  -1  -2  317.97   34.00
  -6   1   2  356.06   49.40
  -6   1   2  309.47   19.20
   5  -1  -2   22.90    9.60
  -5   1   2   28.90   18.30
  -5   1   2   16.60    5.30
   4  -1  -2 2244.18   88.49
  -4   1   2 2339.07   79.99
  -4   1   2 2132.39  114.09
   3  -1  -2   68.99   11.00
  -3   1   2   54.79   19.50
  -3   1   2   61.29    7.20
  -3   1   2   75.19   10.00
   2  -1  -2 2444.36  106.19
   2  -1  -2 2484.55   86.99
  -2   1   2 2424.66  110.09
  -2   1   2 2468.85   85.39
  -2   1   2 2307.97   82.49
   1  -1  -2  598.64   25.40
   1  -1  -2  616.44   37.50
   1  -1  -2  589.44   21.60
  -1   1   2  617.74   26.20
  -1   1   2  632.44   40.00
   0  -1  -2  678.63   28.60
   0  -1  -2  707.23   24.40
   0   1   2  725.53   38.40
   0   1   2  744.93   29.70
  -1  -1  -2    5.00    4.20
  -1  -1  -2   -0.80    4.20
  -1  -1  -2    3.30    1.40
   1   1   2   -1.20    3.50
   1   1   2    1.70    4.60
   1   1   2   -0.70    1.10
  -2  -1  -2  666.63   34.40
  -2  -1  -2  704.03   32.40
  -2  -1  -2  687.93   24.00
   2   1   2  708.83   24.00
   2   1   2  658.33   34.20
  -3  -1  -2  419.96   27.70
  -3  -1  -2  420.56   16.00
  -3  -1  -2  428.46   24.70
   3   1   2  382.76   25.20
  -4  -1  -2  535.05   31.00
  -4  -1  -2  544.85   20.90
   4   1   2  501.75   31.70
  -5  -1  -2  192.48   11.20
   5   1   2  258.07   29.20
   5   1   2  215.28   25.20
  -6  -1  -2  469.65   21.80
   6   1   2  482.65   36.50
   6   1   2  492.95   35.00
  -7  -1  -2   -0.10    3.50
   7   1   2   10.10   12.50
  -8  -1  -2  186.58   17.20
   8   1   2  176.48   31.90
  -9  -1  -2   13.40    6.80
   9   1   2   18.50   16.60
   9  -2  -2  111.79   30.50
  -9   2   2  120.49   18.10
   8  -2  -2   89.59   25.20
  -8   2   2  166.58   19.20
   7  -2  -2   21.00   14.60
  -7   2   2   49.10   24.20
  -7   2   2   49.30   10.10
   6  -2  -2   11.20   11.10
  -6   2   2    6.70    5.30
  -6   2   2   41.40   23.80
   5  -2  -2   40.40   13.20
  -5   2   2   36.90   21.80
  -5   2   2   57.79    9.00
   4  -2  -2  295.27   24.90
  -4   2   2  372.46   50.79
  -4   2   2  387.06   18.80
   3  -2  -2  263.77   20.70
  -3   2   2  266.37   39.90
  -3   2   2  267.27   14.40
   2  -2  -2  316.67   21.00
  -2   2   2  357.16   41.70
  -2   2   2  353.36   15.70
  -2   2   2  310.37   20.00
   1  -2  -2 1840.12   69.69
   1  -2  -2 1809.22   60.89
   1  -2  -2 1857.91   61.89
  -1   2   2 1799.92   70.59
  -1   2   2 1750.82   82.59
   0  -2  -2  265.57    9.80
   0  -2  -2  249.48   16.60
   0   2   2  257.37   22.60
   0   2   2  250.87   10.00
   0   2   2  241.08   17.20
  -1  -2  -2 3186.18  102.99
  -1  -2  -2 3182.08  113.79
   1   2   2 3117.39  121.59
   1   2   2 3137.99  103.09
  -2  -2  -2  113.59    5.30
  -2  -2  -2  122.49   15.60
   2   2   2  117.59    5.40
   2   2   2  159.98   20.90
  -3  -2  -2 1119.99   51.99
  -3  -2  -2 1147.29   39.70
   3   2   2 1165.98   39.80
   3   2   2 1216.28   58.19
  -4  -2  -2  626.34   36.10
  -4  -2  -2  630.94   24.10
   4   2   2  672.43   41.30
  -5  -2  -2  122.89   18.70
  -5  -2  -2  102.19    8.70
   5   2   2  139.59   23.10
  -6  -2  -2   89.99    9.10
   6   2   2  121.19   23.10
  -7  -2  -2    1.60    4.20
   7   2   2   -5.80    9.70
   7   2   2    1.20   10.40
  -8  -2  -2    4.60    5.20
   8   2   2    2.30   11.60
   9   2   2   53.79   21.50
  -9   3   2    9.70    9.00
   8  -3  -2   49.00   21.20
  -8   3   2   17.30    8.50
   7  -3  -2   41.70   19.60
  -7   3   2   70.39   12.10
   6  -3  -2  584.24   45.50
  -6   3   2  540.85   71.59
  -6   3   2  631.94   30.70
   5  -3  -2    1.10    9.30
  -5   3   2   16.30    6.10
  -5   3   2    5.70   19.00
   4  -3  -2  979.80   51.89
  -4   3   2  923.21   71.49
  -4   3   2  900.51   38.00
   3  -3  -2  708.33   40.50
  -3   3   2  606.04   53.59
  -3   3   2  721.93   29.30
   2  -3  -2  281.07   22.40
  -2   3   2  249.68   35.40
   1  -3  -2  165.18    8.00
   1  -3  -2  189.18    8.80
   1  -3  -2  176.48   19.70
  -1   3   2  127.09   22.70
   0  -3  -2  273.57   10.30
   0  -3  -2  241.08   19.50
   0  -3  -2  266.67   11.30
   0   3   2  299.17   33.10
  -1  -3  -2  274.37   20.60
  -1  -3  -2  275.87   10.10
   1   3   2  259.17   10.10
   1   3   2  304.47   26.60
  -2  -3  -2  313.67   23.10
  -2  -3  -2  319.87   11.40
   2   3   2  302.37   27.30
   2   3   2  307.27   11.50
  -3  -3  -2   21.30    9.10
  -3  -3  -2   26.00    3.00
   3   3   2   36.10   12.80
   3   3   2   29.50    2.90
  -4  -3  -2  186.88    9.40
  -4  -3  -2  190.08   23.70
   4   3   2  257.77   32.10
  -5  -3  -2   16.80    3.90
  -5  -3  -2   35.80   12.00
   5   3   2   18.70   11.50
  -6  -3  -2  521.75   37.60
  -6  -3  -2  487.25   21.80
   6   3   2  461.15   41.50
  -7  -3  -2   28.90    6.70
   7   3   2   33.40   17.00
   8   3   2  163.48   31.10
   8  -4  -2   38.30   21.50
  -8   4   2   80.69   13.90
   7  -4  -2   -5.50   13.80
  -7   4   2    5.60    6.10
   6  -4  -2   69.39   22.20
  -6   4   2   45.50   31.30
  -6   4   2   67.59   11.40
   5  -4  -2   11.80   12.60
  -5   4   2   23.00    7.10
  -5   4   2   47.20   27.00
   4  -4  -2   39.40   15.40
  -4   4   2   18.30    6.00
  -4   4   2   31.00   20.70
   3  -4  -2  415.76   32.20
  -3   4   2  424.76   54.29
  -3   4   2  362.46   19.30
   2  -4  -2   94.89    7.70
   2  -4  -2  107.69   19.90
  -2   4   2  134.09   28.70
   1  -4  -2 1481.65   49.30
   1  -4  -2 1329.97   64.69
  -1   4   2 1479.95   78.59
   0  -4  -2   63.19    4.30
   0  -4  -2   50.99   12.50
   0  -4  -2   61.69    4.80
   0   4   2   91.99   21.30
  -1  -4  -2 1893.31   81.09
  -1  -4  -2 1851.61   63.59
   1   4   2 2105.09   94.69
  -2  -4  -2  716.53   40.60
   2   4   2  642.54   46.40
  -3  -4  -2  376.96   13.60
  -3  -4  -2  344.47   27.70
   3   4   2  367.66   34.90
   3   4   2  358.96   13.30
  -4  -4  -2  234.28   29.70
  -4  -4  -2  186.48    9.00
   4   4   2  193.88   31.10
  -5  -4  -2   -2.10    2.60
  -5  -4  -2    3.50    8.30
   5   4   2   -5.60    8.30
  -6  -4  -2   56.19   15.90
   6   4   2   92.49   24.80
  -7  -4  -2    1.40    9.60
   7   4   2   -1.80   12.50
   8   4   2   16.80   15.10
   8  -5  -2  104.59   41.80
  -8   5   2   60.49   14.30
   7  -5  -2   64.99   25.30
  -7   5   2   61.29   12.50
   6  -5  -2  428.46   51.99
  -6   5   2  448.66   75.29
  -6   5   2  491.25   28.00
   5  -5  -2   -0.90   11.60
  -5   5   2  -15.40   16.50
  -5   5   2   -2.80    4.70
   4  -5  -2  876.11   56.09
  -4   5   2  743.83   71.49
  -4   5   2  890.21   37.80
   3  -5  -2  205.28   31.50
  -3   5   2  319.27   50.19
   2  -5  -2  259.77   32.30
   2  -5  -2  250.87   12.30
  -2   5   2  223.58   37.70
   1  -5  -2  540.15   37.90
   1  -5  -2  601.04   21.90
  -1   5   2  545.35   47.50
   0  -5  -2   15.40    9.50
   0  -5  -2   12.50    2.20
   0  -5  -2   11.20    2.30
   0   5   2    6.00   10.40
  -1  -5  -2  396.46   30.90
   1   5   2  393.66   46.10
  -2  -5  -2   25.60   11.80
   2   5   2   13.30   11.60
  -3  -5  -2   28.40   12.20
   3   5   2   41.00   17.10
  -4  -5  -2  294.87   34.50
   4   5   2  257.97   39.20
  -5  -5  -2   -0.40    8.40
   5   5   2    8.50   12.70
  -6  -5  -2  192.68   30.70
   6   5   2  215.98   40.40
  -7  -5  -2  103.79   24.00
   7   5   2   73.89   25.80
   7  -6  -2    1.60   18.00
   6  -6  -2   65.89   25.10
   5  -6  -2   -5.00   13.40
  -5   6   2    3.60   22.30
   4  -6  -2   19.50   16.20
   4  -6  -2   17.00    5.30
  -4   6   2   34.50   24.90
   3  -6  -2   23.70    5.20
   3  -6  -2   18.30   15.30
  -3   6   2   15.80   18.00
   2  -6  -2   13.60   12.50
   2  -6  -2   10.70    3.50
  -2   6   2    2.90   13.30
   1  -6  -2  211.28   30.40
   1  -6  -2  215.48   10.10
  -1   6   2  163.58   34.40
   0  -6  -2  102.29   20.90
   0  -6  -2  113.89    6.00
   0   6   2  101.19   27.10
  -1  -6  -2  551.94   40.50
   1   6   2  548.05   50.39
  -2  -6  -2  425.86   35.50
   2   6   2  436.46   52.79
  -3  -6  -2  130.49   25.40
   3   6   2  118.19   29.00
  -4  -6  -2  581.74   43.90
  -5  -6  -2   15.30   12.70
   5   6   2    2.50   13.50
  -6  -6  -2  103.59   24.90
   6   6   2   91.09   30.30
  -7  -6  -2   49.50   18.80
   7   6   2   36.90   23.70
   6  -7  -2  219.88   42.50
   6  -7  -2  215.08   19.10
   5  -7  -2   83.59   11.20
   5  -7  -2   90.69   27.90
  -5   7   2   85.79   40.40
   4  -7  -2  356.26   18.70
   4  -7  -2  284.47   43.40
  -4   7   2  292.47   59.89
   3  -7  -2  352.56   44.70
   3  -7  -2  300.87   16.10
  -3   7   2  248.98   50.99
   2  -7  -2  147.39   29.50
   2  -7  -2  144.09   10.40
  -2   7   2  130.19   37.40
   1  -7  -2  237.68   35.40
  -1   7   2  117.29   31.30
   0  -7  -2   22.10   12.90
   0   7   2   24.90   17.20
  -1  -7  -2   83.59   21.00
   1   7   2   43.60   20.10
  -2  -7  -2   13.10   13.30
   2   7   2   14.80   15.40
  -3  -7  -2   -0.70   11.10
   3   7   2   15.70   17.20
  -4  -7  -2   48.20   17.70
   4   7   2   42.70   22.80
  -5  -7  -2   10.70   13.80
   5   7   2   -1.50   15.10
  -6  -7  -2  127.39   28.20
   6   7   2  106.39   33.60
   5  -8  -2   33.90   22.80
   5  -8  -2   46.90    9.40
   4  -8  -2   82.19   27.20
  -4   8   2   11.60   28.00
   3  -8  -2  -17.60   12.80
  -3   8   2   20.70   22.90
   2  -8  -2   -6.30   13.50
  -2   8   2    0.00   16.90
   1  -8  -2  130.29   29.30
  -1   8   2  107.29   32.80
   0  -8  -2   27.30   16.80
   0   8   2   29.50   21.50
  -1  -8  -2  130.29   28.70
   1   8   2  103.59   32.10
  -2  -8  -2  252.27   37.80
   2   8   2  300.77   54.89
  -3  -8  -2   31.50   17.70
   3   8   2   27.70   20.70
  -4  -8  -2  153.38   31.50
   4   8   2   64.99   29.10
  -5  -8  -2    4.30   15.00
   5   8   2    5.60   19.70
   4  -9  -2  219.48   43.80
  -4   9   2  179.98   58.29
   3  -9  -2  114.89   31.70
  -3   9   2  134.19   45.60
   2  -9  -2   88.19   28.00
  -2   9   2   76.69   36.20
   1  -9  -2  132.69   31.00
  -1   9   2  186.88   47.90
   0  -9  -2    6.00   15.20
   0   9   2   -1.80   16.60
  -1  -9  -2   21.30   18.20
   1   9   2    7.30   20.90
  -2  -9  -2    7.00   14.50
   2   9   2   -8.30   17.10
  -3  -9  -2   -2.40   14.30
   3   9   2    0.70   18.20
   3  10  -3   24.80   21.50
  -3 -10   3   73.39   28.40
   2  10  -3   19.80   19.50
  -2 -10   3   42.20   24.70
   1  10  -3   69.49   27.20
  -1 -10   3  130.99   34.10
   0  10  -3   81.49   28.70
   0 -10   3  123.09   33.90
  -1  10  -3    4.20   17.60
   1 -10   3   -4.30   15.10
  -2  10  -3  121.49   33.60
   2 -10   3   97.19   32.30
   3 -10   3   -0.30   20.20
   5   9  -3   34.50   22.90
  -5  -9   3   40.90   18.50
   4   9  -3    8.60   15.60
  -4  -9   3   31.00   19.90
   3   9  -3   64.49   26.40
  -3  -9   3   43.30   21.20
   2   9  -3   30.30   18.90
  -2  -9   3   18.10   17.40
   1   9  -3   21.50   17.30
  -1  -9   3   23.20   18.50
   0   9  -3    8.90   15.00
   0  -9   3   16.40   17.60
  -1   9  -3   39.70   19.70
   1  -9   3   10.90   16.10
  -2   9  -3   24.90   19.50
   2  -9   3   49.30   23.90
  -3   9  -3   54.29   27.00
   3  -9   3   59.99   27.50
  -4   9  -3   57.89   10.30
   4  -9   3   68.69   31.30
  -5   9  -3  120.89   15.10
   5  -9   3   87.69   32.30
   6   8  -3   10.80   17.10
  -6  -8   3   -2.30   13.40
   5   8  -3   41.90   21.70
  -5  -8   3   15.60   14.90
   4   8  -3   -0.70   11.40
  -4  -8   3    6.50   13.50
   3   8  -3   59.29   22.60
  -3  -8   3   47.20   19.80
   2   8  -3  279.17   44.30
  -2  -8   3  207.08   35.70
   1   8  -3   54.29   20.30
  -1  -8   3   69.29   22.70
   0   8  -3  621.64   52.29
   0  -8   3  673.03   54.89
  -1   8  -3    4.20   11.20
  -1   8  -3    5.50    3.60
   1  -8   3   11.20   14.40
  -2   8  -3  471.15   45.80
  -2   8  -3  536.45   22.80
   2  -8   3  483.85   57.79
  -3   8  -3   32.50    6.50
  -3   8  -3   20.60   16.50
   3  -8   3   29.70   18.80
  -4   8  -3  188.68   15.80
   4  -8   3  189.38   39.80
  -5   8  -3  136.19   14.50
   5  -8   3  118.09   33.50
  -6   8  -3   59.99   11.40
   6  -8   3   37.20   27.50
   7   7  -3    5.40   16.40
  -7  -7   3   43.70   18.70
   6   7  -3   40.30   21.60
  -6  -7   3   65.49   21.10
   5   7  -3  189.78   40.60
  -5  -7   3  315.97   41.00
   4   7  -3   45.30   19.00
  -4  -7   3   69.49   20.40
   3   7  -3  374.36   48.00
  -3  -7   3  420.96   47.00
   2   7  -3    5.90    9.20
  -2  -7   3    9.40   10.90
   1   7  -3  224.08   33.70
  -1  -7   3  196.38   33.40
   0   7  -3   -1.10    2.00
   0   7  -3    4.70    9.30
   0  -7   3   22.30   14.80
  -1   7  -3   72.99    6.40
  -1   7  -3   56.79   17.50
   1  -7   3   45.00   18.70
  -2   7  -3   29.60    4.90
  -2   7  -3   14.80   12.30
   2  -7   3   25.70   15.80
  -3   7  -3  292.47   39.40
  -3   7  -3  262.67   14.70
   3  -7   3  256.37   40.80
  -4   7  -3   26.20    6.40
   4  -7   3   11.00   16.70
  -5   7  -3  251.17   18.50
   5  -7   3  179.48   37.40
  -6   7  -3   -2.70    4.80
   6  -7   3   15.50   21.60
  -7   7  -3  128.69   16.10
   7  -7   3  147.69   40.80
   8   6  -3   32.00   23.50
   7   6  -3   17.70   17.90
  -7  -6   3   17.90   13.30
   6   6  -3    2.30   13.50
  -6  -6   3   15.90   12.40
   5   6  -3   14.00   14.10
  -5  -6   3    7.30    9.80
   4   6  -3   41.60   18.50
  -4  -6   3   36.00   15.50
   3   6  -3   79.69   24.10
  -3  -6   3  106.29   22.70
   2   6  -3  429.86   48.80
  -2  -6   3  341.67   39.40
   1   6  -3   20.70   12.10
   1   6  -3   32.20    2.70
  -1  -6   3   38.80    3.00
  -1  -6   3   28.90   13.90
   0   6  -3 1016.60   34.20
   0   6  -3  936.91   56.69
   0  -6   3  908.61   58.89
   0  -6   3  983.40   34.00
  -1   6  -3   46.10   14.20
  -1   6  -3   56.19    5.30
   1  -6   3   40.20   16.70
  -2   6  -3  889.01   33.60
  -2   6  -3  907.81   52.79
   2  -6   3  923.91   60.59
  -3   6  -3  489.25   38.70
  -3   6  -3  558.74   23.30
   3  -6   3  558.74   47.10
  -4   6  -3  192.38   14.00
  -4   6  -3  179.18   29.70
   4  -6   3  111.19   27.90
  -5   6  -3  131.79   12.80
   5  -6   3  155.18   33.20
  -6   6  -3   33.50    7.70
   6  -6   3   21.90   17.70
  -7   6  -3    6.70    6.30
   7  -6   3    7.00   19.10
  -8   6  -3    8.80    7.70
   8  -6   3    7.70   21.80
   8   5  -3   51.19   25.40
  -8  -5   3   42.50   15.80
   7   5  -3  161.38   37.50
  -7  -5   3  220.68   31.20
   6   5  -3   10.10   12.80
  -6  -5   3   -4.60    7.80
   5   5  -3  554.44   21.00
   5   5  -3  508.15   49.40
  -5  -5   3  541.95   39.00
   4   5  -3  191.18   32.70
   4   5  -3  162.98    7.80
  -4  -5   3  186.28   27.60
   3   5  -3  270.77   11.00
   3   5  -3  269.27   10.60
   3   5  -3  324.77   42.50
  -3  -5   3  312.97   32.60
   2   5  -3  884.11   30.00
   2   5  -3  942.41   57.89
  -2  -5   3  873.71   50.09
   1   5  -3    4.50    1.30
   1   5  -3   -5.90    5.30
  -1  -5   3    0.90    8.10
  -1  -5   3    0.90    1.30
   0   5  -3  796.22   27.60
   0   5  -3  789.72   46.70
   0  -5   3  777.52   27.70
   0  -5   3  817.82   49.50
  -1   5  -3   68.39   14.50
  -1   5  -3   61.19    5.10
   1  -5   3   72.99   18.80
  -2   5  -3    3.90    6.20
  -2   5  -3    2.50    2.40
   2  -5   3    7.20    9.40
  -3   5  -3  188.78   24.00
  -3   5  -3  149.49   10.60
   3  -5   3  123.39   25.10
  -4   5  -3   10.50    4.40
  -4   5  -3   25.60   13.20
   4  -5   3   23.90   14.50
  -5   5  -3  395.06   20.00
   5  -5   3  385.86   46.30
  -6   5  -3   -3.00    3.70
   6  -5   3    6.50   16.00
  -7   5  -3  236.88   19.40
   7  -5   3  222.78   40.00
  -8   5  -3   82.39   12.90
   8  -5   3   88.39   31.10
   8   4  -3   32.40   20.00
   7   4  -3  128.39   10.90
   7   4  -3  114.89   29.20
  -7  -4   3  127.49   22.30
   6   4  -3   -0.80    2.50
   6   4  -3    2.70   12.00
  -6  -4   3    0.10    6.90
   5   4  -3    4.30   11.00
   5   4  -3    7.50    2.70
  -5  -4   3   -5.40    5.20
   4   4  -3  207.88   35.10
   4   4  -3  162.58    8.40
  -4  -4   3  191.68   23.10
   3   4  -3  122.49    6.70
   3   4  -3  111.49    5.80
   3   4  -3  112.79   22.60
  -3  -4   3  102.89   17.70
   2   4  -3 1372.46   72.49
   2   4  -3 1405.56   46.40
  -2  -4   3 1395.46   46.80
  -2  -4   3 1331.57   62.49
   1   4  -3   65.09    3.60
   1   4  -3   91.09   18.00
  -1  -4   3   80.59   16.40
  -1  -4   3   62.29    3.90
   0   4  -3 1304.77   45.40
   0   4  -3 1400.96   63.99
   0  -4   3 1369.26   45.70
   0  -4   3 1348.86   64.49
  -1   4  -3 1027.40   48.10
  -1   4  -3 1018.50   60.19
  -1   4  -3  934.61   34.40
   1  -4   3 1072.19   54.49
  -2   4  -3 1338.07   55.09
  -2   4  -3 1209.48   44.40
  -2   4  -3 1317.57   57.59
   2  -4   3 1244.88   64.49
  -3   4  -3  763.02   36.10
  -3   4  -3  798.12   38.20
  -3   4  -3  729.63   28.50
   3  -4   3  663.23   45.90
  -4   4  -3  134.89   10.60
   4  -4   3  191.08   30.20
  -5   4  -3  340.97   17.60
   5  -4   3  323.97   41.20
  -6   4  -3   65.69    9.40
   6  -4   3   72.69   21.70
  -7   4  -3   10.60    5.20
   7  -4   3    7.90   17.00
  -8   4  -3   27.60    8.00
   8  -4   3   36.30   21.70
   9   3  -3    9.40    7.60
   9   3  -3   12.70   15.00
   8   3  -3   11.10   13.60
   8   3  -3   46.60   17.20
   8   3  -3   18.30    6.20
   7   3  -3  217.68   39.90
   7   3  -3  204.08   14.80
   6   3  -3   11.80   12.60
   6   3  -3   17.40    4.30
  -6  -3   3   23.00    9.10
   5   3  -3  746.33   29.20
  -5  -3   3  778.92   41.30
   4   3  -3  746.73   27.50
  -4  -3   3  726.83   38.80
  -4  -3   3  748.43   55.69
   3   3  -3  753.82   27.10
  -3  -3   3  846.62   55.49
  -3  -3   3  720.93   37.70
   2   3  -3  729.33   26.30
  -2  -3   3  801.32   50.69
  -2  -3   3  755.12   37.70
  -2  -3   3  783.02   26.90
   1   3  -3   32.10    2.90
  -1  -3   3   29.60    2.90
  -1  -3   3   38.00   10.20
  -1  -3   3   43.30   13.70
   0   3  -3  581.14   20.80
   0   3  -3  552.94   36.70
   0   3  -3  617.74   34.50
   0  -3   3  550.44   33.00
   0  -3   3  622.14   21.20
  -1   3  -3   18.50    6.40
  -1   3  -3   17.10    7.90
  -1   3  -3   11.80    2.20
   1  -3   3   18.10    8.90
  -2   3  -3   40.30    8.60
  -2   3  -3   24.30    3.20
  -2   3  -3   35.00    6.40
   2  -3   3   33.30   11.00
  -3   3  -3 1048.90   38.20
   3  -3   3 1087.79   55.59
  -4   3  -3    4.40    2.90
   4  -3   3    8.30   10.00
  -5   3  -3  795.62   32.30
   5  -3   3  808.42   52.29
  -6   3  -3   64.89    8.70
   6  -3   3   23.80   14.50
  -7   3  -3  282.47   17.90
   7  -3   3  318.27   43.40
  -8   3  -3  158.38   15.90
   8  -3   3  120.39   31.10
  -9   3  -3    7.00    7.50
   9  -3   3   16.90   20.10
   9   2  -3   62.09   22.40
   9   2  -3   41.60    8.90
   8   2  -3   15.70   13.40
   8   2  -3   14.30   15.90
   8   2  -3   13.70    5.70
   7   2  -3   88.09   10.10
   7   2  -3   80.79   17.70
   6   2  -3   70.39   14.80
  -6  -2   3  107.39   27.90
   5   2  -3    5.70    2.80
  -5  -2   3    7.70    5.60
  -5  -2   3   -3.30    9.30
   4   2  -3   85.09    7.00
  -4  -2   3   80.49   22.80
  -4  -2   3   93.89   13.30
   3   2  -3   90.69    6.50
  -3  -2   3   90.69   12.00
  -3  -2   3  107.09   24.30
   2   2  -3 1205.08   40.30
   2   2  -3 1143.49   48.00
  -2  -2   3 1185.18   66.39
  -2  -2   3 1166.28   40.70
  -2  -2   3 1199.78   47.30
   1   2  -3    7.30    4.60
   1   2  -3    2.00    1.30
   1   2  -3    2.70    7.50
  -1  -2   3    1.40    7.00
  -1  -2   3    7.60    4.80
  -1  -2   3    3.90    1.50
   0   2  -3 5108.09  178.48
   0   2  -3 5098.29  169.58
   0   2  -3 5193.58  193.08
   0  -2   3 5304.67  180.28
   0  -2   3 5212.68  169.88
   0  -2   3 5373.36  189.08
  -1   2  -3  407.26   14.50
  -1   2  -3  386.36   22.20
  -1   2  -3  342.27   25.60
   1  -2   3  337.07   22.40
   1  -2   3  405.86   14.50
   1  -2   3  359.06   21.70
  -2   2  -3 2527.05   83.49
   2  -2   3 2471.55   96.39
  -3   2  -3 1879.01   64.69
   3  -2   3 1922.81   80.49
  -4   2  -3  378.86   17.10
   4  -2   3  418.56   31.20
  -5   2  -3  298.47   15.40
   5  -2   3  334.97   36.10
  -6   2  -3   53.89    7.70
   6  -2   3   43.60   17.30
  -7   2  -3   16.40    5.80
   7  -2   3   -8.80   10.60
  -8   2  -3   11.70    5.80
   8  -2   3   12.10   16.50
   9  -2   3   -8.10   15.70
   9   1  -3  112.09   13.90
   9   1  -3   96.19   24.60
   8   1  -3  -11.90   10.10
   8   1  -3   -1.20    5.00
   7   1  -3  461.55   23.00
   7   1  -3  428.36   33.90
  -7  -1   3  554.94   52.19
   6   1  -3   43.00   12.50
  -6  -1   3   38.00   21.60
   5   1  -3 1190.38   54.09
  -5  -1   3 1283.17   80.19
   4   1  -3  612.54   24.60
  -4  -1   3  656.03   53.39
   3   1  -3 1189.88   41.60
   3   1  -3 1181.88   47.00
  -3  -1   3 1185.08   45.40
  -3  -1   3 1113.49   71.49
   2   1  -3 1011.70   38.50
   2   1  -3  996.10   34.90
  -2  -1   3  984.20   37.40
  -2  -1   3 1081.59   64.79
   1   1  -3  328.87   12.80
   1   1  -3  318.77   15.00
  -1  -1   3  337.97   32.40
  -1  -1   3  369.56   15.30
   0   1  -3 1230.38   41.50
   0   1  -3 1275.87   62.49
   0   1  -3 1243.88   45.20
   0  -1   3 1195.78   41.50
   0  -1   3 1201.78   45.80
   0  -1   3 1244.48   62.19
  -1   1  -3 1133.29   45.00
  -1   1  -3 1143.59   38.70
  -1   1  -3 1135.19   50.29
   1  -1   3 1142.59   45.80
   1  -1   3 1127.29   52.59
  -2   1  -3   69.59    6.00
  -2   1  -3   74.99    4.70
   2  -1   3   83.69   11.00
   2  -1   3   88.19   12.10
  -3   1  -3  313.77   13.10
   3  -1   3  291.17   22.10
  -4   1  -3    1.40    2.30
   4  -1   3    2.80    6.90
  -5   1  -3  715.43   28.80
   5  -1   3  708.63   31.00
   5  -1   3  754.02   45.40
  -6   1  -3  250.27   14.70
   6  -1   3  275.67   34.90
  -7   1  -3  348.17   19.50
   7  -1   3  335.67   41.00
  -8   1  -3  266.17   20.30
   8  -1   3  277.47   42.20
  -9   1  -3    3.90    6.20
   9  -1   3    6.20   18.60
   9   0  -3  109.19   14.60
   9   0  -3   88.49   27.50
   8   0  -3   12.10   13.50
  -8   0   3   12.40   19.10
   7   0  -3   22.70   12.40
  -7   0   3   20.30   18.90
   6   0  -3    1.50    7.10
  -6   0   3    0.50   15.30
  -6   0   3   10.80    5.90
   5   0  -3  213.78   22.70
  -5   0   3  221.68   17.10
  -5   0   3  134.39   33.60
   4   0  -3  166.18   14.50
  -4   0   3  211.58   39.40
   3   0  -3   -0.60    1.70
   3   0  -3    0.40    3.20
   3   0  -3    5.10    3.30
  -3   0   3   -8.60    9.80
   2   0  -3 2498.65  126.39
   2   0  -3 2179.98   74.09
   2   0  -3 2236.28   74.49
   2   0  -3 2183.58   75.39
  -2   0   3 2052.99  106.19
   1   0  -3    2.30    1.30
   1   0  -3   -2.00    3.60
  -1   0   3   -5.70    8.10
  -1   0   3    6.80    1.50
   0   0  -3 3731.63  122.39
   0   0  -3 4074.49  144.39
   0   0   3 3520.15  144.59
   0   0   3 3624.14  122.39
   0   0   3 3780.52  124.69
  -1   0  -3  832.02   28.70
  -1   0  -3  906.61   40.10
   1   0   3  809.42   28.70
   1   0   3  823.42   33.90
   1   0   3  770.52   41.70
  -2   0  -3  736.63   25.90
  -2   0  -3  736.43   32.90
   2   0   3  682.93   33.40
   2   0   3  750.82   36.00
  -3   0  -3 1760.02   60.59
  -3   0  -3 1774.72   70.09
   3   0   3 1825.32   70.59
   3   0   3 1793.42   72.69
  -4   0  -3   42.30    4.90
   4   0   3   57.29   12.30
   4   0   3   58.69   13.50
   4   0   3   45.50    9.60
  -5   0  -3  791.52   30.20
   5   0   3  695.53   44.40
   5   0   3  790.32   39.50
   5   0   3  759.92   48.40
  -6   0  -3  131.69   11.30
   6   0   3  141.29   19.10
   6   0   3  118.29   22.50
  -7   0  -3   54.19    8.30
   7   0   3   62.79   19.20
  -8   0  -3   -0.90    4.20
   8   0   3    6.40   14.10
  -9   0  -3   18.40    7.80
   9   0   3   20.20   18.70
   9  -1  -3    4.20    6.90
   8  -1  -3   34.50   17.40
   7  -1  -3  347.87   38.40
  -7   1   3  342.57   55.89
  -7   1   3  292.17   23.90
   6  -1  -3   17.40   10.50
  -6   1   3   25.20   21.00
  -6   1   3   23.30    7.40
   5  -1  -3 1448.26   66.69
  -5   1   3 1550.34   58.39
  -5   1   3 1517.05   98.69
   4  -1  -3 1678.53   65.89
  -4   1   3 1351.86   93.09
   3  -1  -3  489.05   24.70
   3  -1  -3  406.66   18.20
  -3   1   3  439.36   21.50
  -3   1   3  413.16   53.29
   2  -1  -3 4986.60  162.08
   2  -1  -3 4865.71  166.48
  -2   1   3 4772.02  199.88
  -2   1   3 5030.10  165.28
   1  -1  -3  168.18   24.70
   1  -1  -3  125.69    9.00
   1  -1  -3  144.29    6.90
  -1   1   3  174.68   27.30
  -1   1   3  170.48   11.10
  -1   1   3  159.48    7.50
   0  -1  -3 1847.22   64.89
   0  -1  -3 1750.32   59.89
   0   1   3 1867.31   82.79
   0   1   3 1730.73   59.89
   0   1   3 1843.72   65.99
  -1  -1  -3   64.99    4.10
  -1  -1  -3   58.29    8.70
  -1  -1  -3   74.39   13.40
   1   1   3  101.89   12.10
   1   1   3   69.49    4.10
   1   1   3   74.19   14.70
  -2  -1  -3  270.47   18.00
  -2  -1  -3  282.67   20.60
  -2  -1  -3  261.67   10.90
   2   1   3  268.17   21.80
   2   1   3  284.47   11.00
  -3  -1  -3   51.29   10.40
  -3  -1  -3   57.29    4.80
   3   1   3   78.49   14.20
  -4  -1  -3   53.09   11.70
  -4  -1  -3   61.49    5.70
   4   1   3   62.69   13.60
  -5  -1  -3  332.37   16.00
   5   1   3  343.67   27.80
   5   1   3  395.76   30.40
  -6  -1  -3  177.68   13.50
   6   1   3  186.78   27.40
   6   1   3  193.38   26.20
  -7  -1  -3  125.49   12.20
   7   1   3  158.58   28.10
  -8  -1  -3  197.88   17.00
   8   1   3  206.48   35.80
  -9  -1  -3   11.90    7.10
   9   1   3    5.80   14.10
   9  -2  -3  111.39   14.60
   8  -2  -3    6.90   13.30
   7  -2  -3  196.68   30.40
  -7   2   3  201.68   45.60
  -7   2   3  162.78   17.60
   6  -2  -3   18.10   12.10
  -6   2   3    1.30   19.40
  -6   2   3    7.10    6.00
   5  -2  -3  100.79   19.20
  -5   2   3  133.29   37.00
  -5   2   3  132.49   13.50
   4  -2  -3    4.10    7.40
  -4   2   3   13.00   17.60
   3  -2  -3  314.67   22.10
   3  -2  -3  280.07   13.60
  -3   2   3  276.57   44.70
  -3   2   3  272.87   18.70
   2  -2  -3   20.10    3.40
   2  -2  -3   34.60    8.00
  -2   2   3    3.70   10.60
  -2   2   3   27.90    7.70
   1  -2  -3   57.49    9.30
   1  -2  -3   41.80    4.00
  -1   2   3   55.89   10.40
  -1   2   3   59.39   18.60
   0  -2  -3  824.22   28.90
   0  -2  -3  837.92   37.00
   0   2   3  830.92   29.10
   0   2   3  852.31   50.39
   0   2   3  820.02   38.60
  -1  -2  -3 2451.75   79.79
  -1  -2  -3 2382.56   90.09
   1   2   3 2359.16  101.89
   1   2   3 2428.36   79.59
  -2  -2  -3  378.36   13.60
  -2  -2  -3  338.27   22.70
   2   2   3  344.07   13.60
   2   2   3  348.47   28.60
  -3  -2  -3 1143.09   53.49
  -3  -2  -3 1171.98   40.20
   3   2   3 1177.58   60.39
  -4  -2  -3    6.40    2.40
  -4  -2  -3    6.20    6.60
   4   2   3   10.70    9.50
  -5  -2  -3  195.08   10.80
  -5  -2  -3  198.78   24.80
   5   2   3  198.08   28.30
  -6  -2  -3   31.50    5.60
   6   2   3   33.80   14.30
   6   2   3   37.90   14.10
  -7  -2  -3   17.10    5.40
   7   2   3   18.10   12.80
  -8  -2  -3   -1.40    4.70
   8   2   3   -1.90   11.80
   8  -3  -3  -11.10   20.10
   7  -3  -3  314.57   42.00
  -7   3   3  226.38   52.59
   6  -3  -3  189.78   29.70
  -6   3   3  162.68   17.50
  -6   3   3  144.59   42.70
   5  -3  -3  538.25   38.60
  -5   3   3  623.94   80.09
  -5   3   3  452.85   25.70
   4  -3  -3 1251.97   61.19
  -4   3   3 1163.68   87.79
   3  -3  -3   56.69   13.70
   3  -3  -3   51.79    6.00
  -3   3   3   52.49   24.50
   2  -3  -3 1703.63   68.99
   2  -3  -3 1568.24   55.99
  -2   3   3 1579.24   90.99
   1  -3  -3  395.06   15.20
   1  -3  -3  360.56   24.00
  -1   3   3  385.96   44.80
   0  -3  -3 1149.48   51.19
   0  -3  -3 1119.29   38.80
   0   3   3 1142.89   64.89
  -1  -3  -3  803.12   27.30
  -1  -3  -3  750.92   39.20
   1   3   3  727.13   48.80
   1   3   3  794.52   27.20
  -2  -3  -3  119.29    5.70
  -2  -3  -3  108.69   16.30
   2   3   3  119.09   23.00
   2   3   3  121.09    5.80
  -3  -3  -3   39.60    3.70
  -3  -3  -3   59.59   13.60
   3   3   3   46.00   14.60
  -4  -3  -3    6.20    7.80
  -4  -3  -3    0.30    2.10
   4   3   3   -2.30    7.80
  -5  -3  -3  367.66   30.50
  -5  -3  -3  423.46   17.90
   5   3   3  446.06   39.70
  -6  -3  -3  217.98   12.80
  -6  -3  -3  199.78   28.90
   6   3   3  232.78   36.10
   7   3   3   49.70   20.40
   7   3   3   71.89   19.10
   8   3   3  242.58   37.30
   8  -4  -3   22.00    8.30
   7  -4  -3  161.78   32.40
   6  -4  -3   46.00   18.80
  -6   4   3   27.50   30.40
   5  -4  -3   31.40   14.30
  -5   4   3   58.29   30.50
   4  -4  -3    3.90    3.70
   4  -4  -3    6.50    9.20
  -4   4   3   -5.50   15.30
   3  -4  -3    1.20    7.80
   3  -4  -3    1.00    2.90
  -3   4   3   -4.80   13.00
   2  -4  -3  478.45   32.50
   2  -4  -3  470.05   19.50
  -2   4   3  492.95   57.69
   1  -4  -3  143.09   20.60
   1  -4  -3  179.18    8.60
  -1   4   3  165.28   32.00
   0  -4  -3 1538.15   51.59
   0  -4  -3 1490.95   67.59
   0  -4  -3 1530.95   52.69
   0   4   3 1506.15   83.59
  -1  -4  -3  485.15   17.30
  -1  -4  -3  436.06   30.40
   1   4   3  480.25   41.40
   1   4   3  476.55   17.70
  -2  -4  -3  372.96   13.70
  -2  -4  -3  351.06   27.80
   2   4   3  387.86   37.00
   2   4   3  378.26   14.00
  -3  -4  -3  851.51   49.50
  -3  -4  -3  965.70   32.20
   3   4   3  979.20   62.79
   3   4   3  922.21   32.20
  -4  -4  -3   44.30   13.40
  -4  -4  -3   27.20    3.70
   4   4   3   36.70   16.00
  -5  -4  -3  404.46   34.10
   5   4   3  539.35   47.60
  -6  -4  -3   30.10   13.80
   6   4   3   33.10   17.80
  -7  -4  -3    2.20   10.10
   7   4   3    7.70   14.70
   8   4   3   17.00   14.80
   8  -5  -3   25.00    9.20
   7  -5  -3   73.39   29.10
   7  -5  -3   64.29   11.10
   6  -5  -3   51.99   20.80
   6  -5  -3   45.70    8.90
  -6   5   3   11.50   29.80
   5  -5  -3   92.19   10.70
   5  -5  -3   61.99   20.60
  -5   5   3   84.79   36.70
   4  -5  -3  570.44   25.40
   4  -5  -3  576.24   43.60
  -4   5   3  549.15   75.19
   3  -5  -3   67.89   19.00
   3  -5  -3   53.19    6.60
  -3   5   3   45.70   23.60
   2  -5  -3  499.55   20.10
   2  -5  -3  462.15   35.30
  -2   5   3  420.76   56.49
   1  -5  -3    0.50    7.00
   1  -5  -3   -1.10    1.90
  -1   5   3   17.00   15.00
   0  -5  -3  427.16   16.30
   0  -5  -3  412.96   31.70
   0  -5  -3  408.76   18.80
   0   5   3  446.56   54.69
  -1  -5  -3    9.90    9.00
  -1  -5  -3    6.70    1.80
   1   5   3    8.50   11.00
  -2  -5  -3   94.49   19.70
   2   5   3   90.89   25.20
  -3  -5  -3    5.30    8.80
   3   5   3    7.60   10.80
  -4  -5  -3   63.69   18.00
   4   5   3   85.79   26.30
  -5  -5  -3   74.89   19.70
   5   5   3   29.70   18.00
  -6  -5  -3  103.49   23.80
   6   5   3   84.89   27.90
  -7  -5  -3   70.79   21.70
   7   5   3   67.49   27.70
   7  -6  -3  107.09   14.30
   6  -6  -3   31.00   21.40
   6  -6  -3   24.00    7.50
  -6   6   3  -14.10   34.70
   5  -6  -3   33.00   18.60
   5  -6  -3   24.20    6.50
  -5   6   3  -18.60   22.10
   4  -6  -3    8.70    3.90
   4  -6  -3   19.70   15.70
  -4   6   3    1.50   19.70
   3  -6  -3   17.30   13.10
   3  -6  -3    4.50    3.60
  -3   6   3   -3.40   15.80
   2  -6  -3  454.55   37.50
   2  -6  -3  493.05   19.80
  -2   6   3  332.47   53.99
   1  -6  -3   77.89    6.30
   1  -6  -3   66.99   17.80
  -1   6   3   82.09   28.00
   0  -6  -3  303.27   36.30
   0  -6  -3  336.27   13.70
   0   6   3  305.87   48.60
  -1  -6  -3  643.04   44.20
   1   6   3  626.24   57.29
  -2  -6  -3   58.99   17.20
   2   6   3   49.60   21.50
  -3  -6  -3  721.03   48.40
   3   6   3  669.83   60.69
  -4  -6  -3  -19.80    7.00
   4   6   3    5.50   12.70
  -5  -6  -3  437.86   48.20
   5   6   3  338.17   54.19
  -6  -6  -3   37.50   16.30
   6   6   3   24.80   23.80
   6  -7  -3   84.99   11.80
   5  -7  -3  114.69   30.00
   5  -7  -3  137.39   13.70
  -5   7   3   64.69   40.20
   4  -7  -3  294.97   16.60
   4  -7  -3  232.18   38.00
  -4   7   3  195.08   50.89
   3  -7  -3   22.20   16.40
   3  -7  -3   30.20    5.70
  -3   7   3   -0.30   17.40
   2  -7  -3  789.32   54.49
  -2   7   3  631.94   80.89
   1  -7  -3   12.50   12.30
  -1   7   3   14.20   18.80
   0  -7  -3  256.97   36.10
   0   7   3  188.58   40.50
  -1  -7  -3  120.99   25.70
   1   7   3  122.79   35.20
  -2  -7  -3    6.10   10.30
   2   7   3   -1.70   13.30
  -3  -7  -3   10.70   12.70
   3   7   3   12.80   17.50
  -4  -7  -3    5.80   12.60
   4   7   3  -10.20   11.90
  -5  -7  -3  -10.20   10.60
   5   7   3   15.30   19.70
   5  -8  -3  -14.60   18.60
  -5   8   3  -12.50   31.60
   4  -8  -3    9.10   18.20
  -4   8   3   34.20   31.90
   3  -8  -3    9.90   16.50
  -3   8   3   34.50   28.70
   2  -8  -3   12.40   13.90
  -2   8   3    9.00   22.30
   1  -8  -3   80.99   23.30
  -1   8   3  103.39   38.20
   0  -8  -3   64.19   21.20
   0   8   3   35.50   23.30
  -1  -8  -3  216.78   35.30
   1   8   3  172.48   46.20
  -2  -8  -3   12.30   13.40
   2   8   3    4.70   16.90
  -3  -8  -3  163.18   31.90
   3   8   3  159.48   42.80
  -4  -8  -3   56.59   21.80
   4   8   3   38.60   28.50
   3  -9  -3   -7.90   17.80
  -3   9   3   33.30   33.30
   2  -9  -3   91.49   27.30
  -2   9   3  101.49   41.10
   1  -9  -3   69.79   25.60
  -1   9   3  164.58   48.70
   0  -9  -3   46.10   21.80
   0   9   3   17.90   25.70
  -1  -9  -3  127.69   31.60
   1   9   3   41.50   27.80
  -2  -9  -3    7.20   16.00
   2   9   3    8.10   22.20
   3  10  -4   20.20   20.70
  -3 -10   4   48.10   21.40
   2  10  -4   12.80   18.10
  -2 -10   4    4.90   16.10
   1  10  -4  184.98   40.60
  -1 -10   4  156.28   37.50
   0  10  -4   84.59   28.30
   0 -10   4   47.40   26.40
  -1  10  -4   85.19   30.70
   1 -10   4   94.99   31.10
  -2  10  -4  135.09   35.80
   2 -10   4  160.68   38.80
   3 -10   4   -6.20   20.70
   4 -10   4  127.69   37.50
   5   9  -4   68.49   29.50
  -5  -9   4   74.39   26.50
   4   9  -4   47.90   23.00
  -4  -9   4   46.50   21.40
   3   9  -4   67.49   25.40
  -3  -9   4   83.39   28.10
   2   9  -4    1.40   13.00
  -2  -9   4    3.20   14.40
   1   9  -4   54.59   22.40
  -1  -9   4   44.20   20.20
   0   9  -4    5.80   13.10
   0  -9   4    0.10   14.20
  -1   9  -4    1.40   12.30
   1  -9   4   -2.10   14.60
  -2   9  -4   92.49   26.20
   2  -9   4   92.49   31.00
   3  -9   4   -0.30   16.20
  -4   9  -4  166.08   15.40
   4  -9   4  140.89   37.40
  -5   9  -4    5.10    6.90
   5  -9   4   20.70   25.00
   6   8  -4   19.50   18.30
  -6  -8   4   15.30   16.60
   5   8  -4   -1.70   14.00
  -5  -8   4    3.20   11.60
   4   8  -4   25.00   18.80
  -4  -8   4   29.50   16.20
   3   8  -4  141.29   33.30
  -3  -8   4   64.19   21.90
   2   8  -4   22.90   14.50
  -2  -8   4    8.50   11.90
   1   8  -4  185.48   34.00
  -1  -8   4  203.58   35.90
   0   8  -4  199.28   34.20
   0  -8   4  229.38   40.30
  -1   8  -4  329.17   43.00
  -1   8  -4  286.87   14.00
   1  -8   4  268.27   42.30
  -2   8  -4  446.06   50.29
  -2   8  -4  461.15   20.40
   2  -8   4  380.16   51.79
  -3   8  -4   52.69    7.70
  -3   8  -4   66.59   21.90
   3  -8   4   28.00   20.30
  -4   8  -4  207.68   16.60
   4  -8   4  189.08   39.90
  -5   8  -4   -0.50    5.40
   5  -8   4   -3.30   17.00
  -6   8  -4    2.50    6.20
   6  -8   4   10.30   20.70
   7   7  -4   25.50   21.50
  -7  -7   4   13.20   14.20
   6   7  -4  110.99   34.10
  -6  -7   4   63.19   20.60
   5   7  -4  123.89   34.20
  -5  -7   4  101.29   23.60
   4   7  -4   -4.30   11.60
  -4  -7   4   24.90   14.20
   3   7  -4  230.48   38.80
  -3  -7   4  199.08   30.90
   2   7  -4   12.70   12.20
  -2  -7   4   15.00   13.80
   1   7  -4  109.29   25.50
   1   7  -4  116.39    5.80
  -1  -7   4  121.19   26.40
   0   7  -4    9.30    9.90
   0   7  -4    0.70    2.00
   0  -7   4   -7.10    9.80
  -1   7  -4   39.40   14.40
  -1   7  -4   36.60    5.00
   1  -7   4   39.00   18.80
  -2   7  -4  128.49    9.90
  -2   7  -4  110.69   23.20
   2  -7   4   94.19   26.70
  -3   7  -4   28.70   14.10
  -3   7  -4   16.90    4.90
   3  -7   4   11.60   15.80
  -4   7  -4  249.48   14.80
   4  -7   4  161.28   34.30
  -5   7  -4   77.79   10.50
   5  -7   4   64.99   24.80
  -6   7  -4  276.67   21.20
   6  -7   4  248.68   46.90
  -7   7  -4  171.98   16.90
   7  -7   4  108.69   33.90
   8   6  -4   30.20   22.80
   7   6  -4    0.70   15.80
  -7  -6   4    2.90   11.50
   6   6  -4   23.10   17.50
  -6  -6   4   14.00   11.40
   5   6  -4   31.80   18.60
  -5  -6   4    2.60    8.80
   4   6  -4    0.30    9.10
  -4  -6   4    8.00    9.90
   3   6  -4  489.95   17.80
   3   6  -4  502.65   46.50
  -3  -6   4  542.45   40.00
   2   6  -4    7.00    1.70
   2   6  -4    3.60    9.10
  -2  -6   4   -3.30    8.60
   1   6  -4 1061.59   36.10
   1   6  -4 1095.19   64.49
  -1  -6   4 1123.59   63.09
  -1  -6   4 1013.00   36.50
   0   6  -4  345.67   31.50
   0   6  -4  336.77   13.60
   0  -6   4  350.36   42.50
  -1   6  -4  674.63   43.90
  -1   6  -4  714.63   25.90
   1  -6   4  629.14   48.50
  -2   6  -4  834.52   32.60
  -2   6  -4  945.51   50.89
   2  -6   4  893.51   59.69
  -3   6  -4   50.39    6.50
  -3   6  -4   43.70   14.00
   3  -6   4   45.00   18.70
  -4   6  -4  480.15   22.20
   4  -6   4  482.15   57.19
  -5   6  -4   -5.90    3.10
   5  -6   4    1.70   14.30
  -6   6  -4   80.49   10.60
   6  -6   4   52.29   23.20
  -7   6  -4   -1.60    5.60
   7  -6   4   -1.30   18.70
  -8   6  -4   14.10    7.80
   8   5  -4   68.79   28.40
  -8  -5   4   42.90   16.40
   7   5  -4   -6.80   12.40
  -7  -5   4    2.70    8.80
   6   5  -4  231.98   12.10
   6   5  -4  202.08   38.20
  -6  -5   4  232.08   29.90
   5   5  -4  407.56   55.39
   5   5  -4  339.17   14.80
  -5  -5   4  360.36   37.30
   4   5  -4  306.47   13.00
   4   5  -4  328.97   46.70
  -4  -5   4  303.77   32.70
   3   5  -4 1931.91   65.29
   3   5  -4 1889.91   62.49
   3   5  -4 1788.72   97.09
  -3  -5   4 1752.72   82.59
   2   5  -4   29.20    3.10
   2   5  -4   19.50   12.80
  -2  -5   4   34.70    3.80
  -2  -5   4   25.80   11.80
   1   5  -4  675.13   23.10
   1   5  -4  655.13   45.20
  -1  -5   4  616.54   23.40
  -1  -5   4  666.73   43.00
   0   5  -4   45.70   13.30
   0   5  -4   29.00    3.20
   0  -5   4   57.39   17.00
  -1   5  -4  177.98    8.60
  -1   5  -4  189.38   23.20
   1  -5   4  159.48   26.00
  -2   5  -4   63.29   13.10
  -2   5  -4   62.29    5.80
   2  -5   4  108.99   23.30
  -3   5  -4  248.38   12.30
  -3   5  -4  200.88   18.90
  -3   5  -4  237.48   26.40
   3  -5   4  233.88   33.50
  -4   5  -4  510.05   22.80
   4  -5   4  527.65   44.70
  -5   5  -4  233.38   14.50
   5  -5   4  233.98   37.20
  -6   5  -4  192.18   16.10
   6  -5   4  194.08   35.70
  -7   5  -4  386.26   22.40
   7  -5   4  324.17   49.70
  -8   5  -4   10.50    6.70
   8  -5   4  -12.30   15.90
   8   4  -4   60.29   18.10
   8   4  -4   71.49   25.20
   7   4  -4    8.50    4.00
   7   4  -4   -7.30   12.10
  -7  -4   4    7.00    9.60
   6   4  -4    7.80    3.20
   6   4  -4    2.60   12.30
  -6  -4   4    6.60    7.40
   5   4  -4   21.90   14.40
   5   4  -4   34.30    4.60
  -5  -4   4   27.70   10.20
   4   4  -4   62.09   21.00
   4   4  -4   41.10    4.60
  -4  -4   4   53.29   12.70
   3   4  -4  290.77   12.10
  -3  -4   4  292.27   23.50
   2   4  -4    8.30    2.00
  -2  -4   4   17.60    9.10
  -2  -4   4    7.80    2.40
   1   4  -4 2306.67  103.39
   1   4  -4 2391.86   78.69
  -1  -4   4 2450.25   98.19
  -1  -4   4 2349.86   79.09
   0   4  -4 1191.48   58.79
   0   4  -4 1170.78   39.80
   0  -4   4 1107.59   57.69
  -1   4  -4 1466.95   65.59
  -1   4  -4 1713.73   87.99
  -1   4  -4 1487.05   51.79
   1  -4   4 1503.85   72.19
  -2   4  -4 2839.52  104.99
  -2   4  -4 2945.91   95.59
  -2   4  -4 2779.02  112.69
   2  -4   4 2808.92  118.09
  -3   4  -4   18.60    3.80
  -3   4  -4    8.90    7.50
  -3   4  -4   24.50    6.60
   3  -4   4    6.00   10.30
  -4   4  -4 1067.89   39.80
   4  -4   4 1025.50   62.19
  -5   4  -4   85.19    8.90
   5  -4   4  100.89   23.10
  -6   4  -4   85.29   10.50
   6  -4   4   97.29   26.20
  -7   4  -4   18.80    6.10
   7  -4   4    3.40   16.40
  -8   4  -4   -1.20    5.50
   8  -4   4  -13.70   14.50
   9   3  -4   -0.80    5.00
   9   3  -4  -11.30   14.50
   8   3  -4   95.09   10.80
   8   3  -4  128.69   24.30
   8   3  -4   81.19   28.90
   7   3  -4   53.09    7.50
   7   3  -4   54.69   14.80
   7   3  -4   40.50   20.60
   6   3  -4  265.17   14.30
  -6  -3   4  345.77   52.29
  -6  -3   4  275.67   23.00
   5   3  -4  876.01   34.60
  -5  -3   4 1135.99   75.19
  -5  -3   4  917.01   45.50
   4   3  -4   53.39    5.40
  -4  -3   4   47.30   10.80
  -4  -3   4   68.69   22.70
   3   3  -4 1231.28   44.10
  -3  -3   4 1302.87   55.19
  -3  -3   4 1345.97   78.89
   2   3  -4  326.97   13.40
  -2  -3   4  385.16   36.50
  -2  -3   4  350.16   22.60
   1   3  -4  774.32   38.00
   1   3  -4  747.03   26.40
  -1  -3   4  681.93   37.40
  -1  -3   4  754.72   49.10
  -1  -3   4  758.22   26.70
   0   3  -4   78.89   19.40
   0   3  -4   97.09    5.30
   0  -3   4  116.29   16.80
   0  -3   4   93.69   17.40
  -1   3  -4   18.80    2.70
  -1   3  -4   21.10   11.40
   1  -3   4   26.10    9.10
  -2   3  -4   16.30    8.70
  -2   3  -4   13.90    5.00
  -2   3  -4   17.30    3.00
   2  -3   4    9.40    8.40
  -3   3  -4  129.29    7.90
   3  -3   4  123.19   19.90
  -4   3  -4   51.29    6.10
   4  -3   4   40.60   14.60
  -5   3  -4  210.88   12.90
   5  -3   4  251.67   33.20
  -6   3  -4   67.79    8.70
   6  -3   4   93.29   24.00
  -7   3  -4  538.65   26.20
   7  -3   4  460.75   53.99
  -8   3  -4    1.60    5.40
   8  -3   4   -8.80   14.90
  -9   3  -4  105.79   14.80
   9   2  -4   -3.00    5.40
   8   2  -4  196.38   29.50
   8   2  -4  238.18   17.90
   7   2  -4   37.00   13.40
   7   2  -4   41.00    7.30
  -7  -2   4   35.30   22.80
   6   2  -4   19.70    9.20
   6   2  -4   11.60    4.40
  -6  -2   4   11.10   14.80
  -5  -2   4  102.39   29.00
  -5  -2   4   98.89   14.00
   4   2  -4   41.10    5.10
  -4  -2   4   52.69   21.50
  -4  -2   4   68.69   10.90
   3   2  -4  149.09    8.10
   3   2  -4  176.58   14.40
  -3  -2   4  190.58   35.40
  -3  -2   4  161.38   12.80
   2   2  -4  685.93   25.30
   2   2  -4  713.43   32.00
  -2  -2   4  715.43   31.10
  -2  -2   4  727.63   54.49
   1   2  -4 1123.29   45.90
  -1  -2   4 1142.89   67.19
  -1  -2   4 1158.18   46.90
   0   2  -4 2719.23   93.19
   0   2  -4 2873.81  124.09
   0   2  -4 2780.02  100.99
   0  -2   4 2891.41  103.29
   0  -2   4 2869.91  119.89
  -1   2  -4  107.29   14.80
  -1   2  -4  122.89    6.40
  -1   2  -4   91.19   18.30
   1  -2   4  148.39   17.30
   1  -2   4  137.59   19.90
  -2   2  -4 2155.18   73.29
  -2   2  -4 2206.78   81.19
   2  -2   4 2170.48   80.29
   2  -2   4 2171.18   86.79
  -3   2  -4   29.80    4.10
   3  -2   4   40.80   12.30
  -4   2  -4  748.33   28.80
   4  -2   4  728.63   44.90
  -5   2  -4  165.68   12.30
   5  -2   4  147.89   25.80
  -6   2  -4  136.69   12.10
   6  -2   4  153.58   26.90
  -7   2  -4   76.79    9.70
   7  -2   4   72.29   22.10
  -8   2  -4    0.80    4.80
   8  -2   4  -13.10   12.00
  -9   2  -4    4.00    6.00
   9  -2   4    2.30   17.10
   9   1  -4   24.40    7.70
   8   1  -4   48.50    9.10
   8   1  -4   78.99   19.50
  -8  -1   4   35.10   22.70
   7   1  -4   24.70   11.90
   7   1  -4   20.20    6.10
  -7  -1   4   76.69   29.70
   6   1  -4  450.55   22.20
   6   1  -4  504.85   32.20
  -6  -1   4  602.04   70.49
   5   1  -4  501.85   29.20
   5   1  -4  497.45   21.90
  -5  -1   4  526.35   66.99
   4   1  -4   13.80    3.40
   4   1  -4    3.10    4.10
  -4  -1   4   -8.80   11.40
   3   1  -4  987.10   36.40
   3   1  -4 1030.50   40.60
  -3  -1   4 1047.90   73.19
   2   1  -4  526.55   21.50
   2   1  -4  499.15   19.50
  -2  -1   4  525.75   20.20
  -2  -1   4  476.65   46.60
   1   1  -4  464.25   17.80
   1   1  -4  459.35   18.80
  -1  -1   4  536.25   44.70
  -1  -1   4  497.75   19.90
   0   1  -4  783.12   27.70
   0   1  -4  765.52   31.00
   0   1  -4  809.22   50.89
   0  -1   4  772.42   32.00
   0  -1   4  781.72   51.39
  -1   1  -4  164.98    7.90
  -1   1  -4  188.58   22.80
  -1   1  -4  164.88   12.40
   1  -1   4  169.18   13.40
   1  -1   4  146.79   23.30
  -2   1  -4   64.29    9.90
  -2   1  -4   51.09    4.60
   2  -1   4   39.90   11.80
   2  -1   4   53.19   10.60
  -3   1  -4   75.09    9.00
  -3   1  -4   61.49    5.60
   3  -1   4   68.39   12.30
   3  -1   4   58.09   12.20
  -4   1  -4  327.87   14.80
   4  -1   4  359.56   27.90
   4  -1   4  329.17   20.20
   4  -1   4  314.57   19.70
  -5   1  -4  242.78   13.20
   5  -1   4  266.47   30.90
  -6   1  -4  149.79   12.40
   6  -1   4  178.58   28.00
  -7   1  -4  250.87   18.00
   7  -1   4  270.87   38.70
  -8   1  -4    3.50    4.90
   8  -1   4   -1.40   13.70
  -9   1  -4  232.88   19.90
   9  -1   4  154.38   33.50
   9   0  -4   -7.00    5.60
   8   0  -4  100.49   12.20
   8   0  -4   56.49   19.40
  -8   0   4   92.49   34.60
   7   0  -4   65.29    9.00
   7   0  -4   91.39   20.30
  -7   0   4   25.10   23.00
   6   0  -4  247.68   15.10
   6   0  -4  265.87   28.40
  -6   0   4  274.27   50.89
   5   0  -4    0.30    5.80
   5   0  -4   -0.10    3.00
  -5   0   4   -7.80   13.10
   4   0  -4    8.40    3.30
   4   0  -4    3.20    4.90
   4   0  -4    5.10    4.30
  -4   0   4   -7.20   11.90
   3   0  -4  179.28   10.90
   3   0  -4  173.38    9.50
   3   0  -4  188.78   12.00
  -3   0   4  214.88   40.10
   2   0  -4    8.60    2.30
  -2   0   4    9.60   13.80
   1   0  -4  439.26   16.30
  -1   0   4  353.36   42.80
   0   0  -4 3125.99  107.29
   0   0  -4 3171.88  132.29
   0   0   4 2933.11  135.19
   0   0   4 3797.42  109.69
   0   0   4 3233.48  110.49
   0   0   4 3184.28  110.09
  -1   0  -4  146.99    7.40
  -1   0  -4  226.78   24.40
   1   0   4  137.39   11.00
   1   0   4  142.19   11.60
   1   0   4  154.08   24.00
  -2   0  -4 4520.85  150.88
  -2   0  -4 4750.82  162.98
   2   0   4 4515.65  169.68
   2   0   4 4595.64  161.18
  -3   0  -4   29.20    3.80
  -3   0  -4   25.80    7.60
   3   0   4   38.00   10.20
   3   0   4   30.00   10.00
  -4   0  -4 1532.55   53.99
  -4   0  -4 1554.04   66.49
   4   0   4 1572.04   69.99
   4   0   4 1530.55   66.99
  -5   0  -4  453.85   19.90
   5   0   4  452.35   34.50
   5   0   4  456.65   30.20
  -6   0  -4  254.27   14.40
   6   0   4  264.27   33.50
  -7   0  -4  113.59   11.50
   7   0   4  114.19   26.20
  -8   0  -4    9.50    5.10
   8   0   4   18.10   16.60
  -9   0  -4   -1.10    5.90
   9   0   4   -3.80   15.40
   9  -1  -4   -4.90    5.90
   8  -1  -4   39.50    9.00
  -8   1   4   48.70   31.70
   7  -1  -4   56.59    9.30
   7  -1  -4   64.09   17.90
  -7   1   4  102.69   37.00
   6  -1  -4   38.00    6.80
   6  -1  -4   42.80   13.90
  -6   1   4   -3.80   18.10
   5  -1  -4  775.12   40.60
   5  -1  -4  705.83   30.30
  -5   1   4  705.23   83.89
   4  -1  -4    2.50    3.90
   4  -1  -4    1.60    6.00
   4  -1  -4   -0.70    2.30
  -4   1   4   14.20   19.30
   3  -1  -4 1209.68   49.99
   3  -1  -4 1253.67   45.20
  -3   1   4 1237.38   86.29
  -3   1   4 1312.67   47.40
   2  -1  -4    6.00    3.60
   2  -1  -4    2.20    1.90
  -2   1   4   -7.10   10.50
  -2   1   4    1.80    3.40
   1  -1  -4 1740.03   60.69
   1  -1  -4 1800.32   63.39
  -1   1   4 1873.91   96.99
  -1   1   4 1839.22   65.79
   0  -1  -4  492.55   18.20
   0  -1  -4  452.05   22.00
   0   1   4  509.05   24.20
   0   1   4  454.65   38.90
  -1  -1  -4  267.97   16.70
  -1  -1  -4  245.28   10.80
   1   1   4  272.77   31.80
  -2  -1  -4   32.40    8.30
  -2  -1  -4   44.20    4.20
   2   1   4   33.50   11.60
  -3  -1  -4   43.10   10.60
  -3  -1  -4   46.80    4.60
   3   1   4   44.50   12.80
  -4  -1  -4  427.66   17.00
   4   1   4  360.46   30.00
  -5  -1  -4  286.47   14.10
   5   1   4  290.17   31.60
   5   1   4  286.97   27.30
  -6  -1  -4   20.20    4.90
   6   1   4   25.80   13.00
   6   1   4   20.40   12.80
  -7  -1  -4  430.46   21.70
   7   1   4  437.16   48.20
  -8  -1  -4   23.60    6.60
   8   1   4   26.00   17.30
   9  -2  -4    3.10    6.90
   8  -2  -4   96.59   12.80
   7  -2  -4   21.90    6.80
   7  -2  -4   33.30   16.00
  -7   2   4   48.00   31.50
   6  -2  -4   69.39    9.30
   6  -2  -4   87.09   19.90
  -6   2   4  106.99   41.60
   5  -2  -4   59.59    7.90
   5  -2  -4   52.69   14.10
  -5   2   4   49.50   28.70
   4  -2  -4  176.08   11.00
   4  -2  -4  187.88   21.90
  -4   2   4  155.48   40.00
   3  -2  -4   58.09    6.20
   3  -2  -4   45.10   10.20
  -3   2   4   53.99    9.30
  -3   2   4   58.59   24.40
   2  -2  -4 1305.57   53.09
   2  -2  -4 1367.16   46.70
  -2   2   4 1272.07   53.99
  -2   2   4 1408.86   87.09
   1  -2  -4  374.26   20.90
   1  -2  -4  397.86   15.30
  -1   2   4  353.46   22.90
  -1   2   4  413.76   49.80
   0  -2  -4 2171.28   72.89
   0  -2  -4 2064.89   80.99
   0   2   4 2056.49  102.99
   0   2   4 2418.66   88.29
  -1  -2  -4   19.80    6.20
  -1  -2  -4   13.00    2.60
   1   2   4   18.90   11.30
  -2  -2  -4 2110.79   70.79
  -2  -2  -4 2119.79   83.49
   2   2   4 2109.89   97.09
  -3  -2  -4  296.97   23.00
  -3  -2  -4  299.07   12.70
   3   2   4  331.57   36.80
  -4  -2  -4 1810.62   61.29
  -4  -2  -4 1797.42   77.79
   4   2   4 1718.53   86.29
  -5  -2  -4  261.67   29.20
  -5  -2  -4  301.87   14.40
   5   2   4  318.87   39.20
  -6  -2  -4   44.40    6.40
   6   2   4   29.10   13.50
   6   2   4   39.30   17.00
  -7  -2  -4   69.29    8.90
   7   2   4   66.79   20.70
   8   2   4    0.50   13.10
   8  -3  -4   43.30    9.30
   7  -3  -4   59.49   23.20
   7  -3  -4   74.59   11.30
  -7   3   4   84.19   41.50
   6  -3  -4   86.09   11.00
   6  -3  -4   45.40   16.60
  -6   3   4  117.99   42.80
   5  -3  -4  650.23   28.90
   5  -3  -4  743.23   44.30
  -5   3   4  530.25   78.99
   4  -3  -4   -6.30    6.70
   4  -3  -4    3.20    3.20
  -4   3   4    7.10   15.80
   3  -3  -4 1169.78   42.60
   3  -3  -4 1143.69   53.69
  -3   3   4 1138.79   85.89
   2  -3  -4  171.28    9.20
   2  -3  -4  160.28   19.40
  -2   3   4  152.58   34.60
   1  -3  -4  398.06   16.10
   1  -3  -4  416.66   25.40
  -1   3   4  354.56   47.20
   0  -3  -4  673.73   35.40
   0  -3  -4  679.43   24.90
   0   3   4  704.73   52.79
  -1  -3  -4   20.20    8.50
  -1  -3  -4   18.00    3.00
   1   3   4    8.50   10.80
  -2  -3  -4  129.09    6.50
  -2  -3  -4  121.89   18.40
   2   3   4  109.19   23.90
  -3  -3  -4   15.50    2.70
  -3  -3  -4    9.50    8.20
   3   3   4   19.30   13.10
  -4  -3  -4   72.89    6.20
  -4  -3  -4   71.99   15.90
   4   3   4  101.99   24.60
  -5  -3  -4  145.99   23.00
  -5  -3  -4  163.08    9.70
   5   3   4  157.28   31.60
  -6  -3  -4    5.00    3.90
  -6  -3  -4   -1.60    8.20
   6   3   4    2.10   12.30
   7   3   4   53.29   18.30
   8   3   4   10.70   14.30
   8  -4  -4   91.29   13.40
   7  -4  -4   80.49   11.70
  -7   4   4  100.59   52.19
   6  -4  -4   59.69   19.20
   6  -4  -4   69.39   10.00
  -6   4   4   91.69   42.20
   5  -4  -4  114.39   24.30
   5  -4  -4  113.09   11.50
  -5   4   4  100.79   40.00
   4  -4  -4   12.60    4.40
   4  -4  -4   22.40   11.50
  -4   4   4    1.40   16.50
   3  -4  -4   18.70   10.60
   3  -4  -4   10.10    3.50
  -3   4   4    4.10   15.60
   2  -4  -4  395.26   16.30
   2  -4  -4  316.37   25.70
  -2   4   4  361.16   54.49
   1  -4  -4   48.60    4.90
   1  -4  -4   77.89   15.00
  -1   4   4   42.70   19.40
   0  -4  -4  827.82   45.40
   0  -4  -4  893.41   31.70
   0   4   4  962.70   66.39
  -1  -4  -4   90.29   16.50
  -1  -4  -4   88.99    6.30
   1   4   4   90.09   23.90
  -2  -4  -4  846.32   28.60
  -2  -4  -4  816.72   45.40
   2   4   4  747.03   30.40
   2   4   4  875.91   61.49
  -3  -4  -4  212.18    9.30
  -3  -4  -4  220.88   27.80
   3   4   4  177.18   33.10
  -4  -4  -4  112.19    7.60
  -4  -4  -4  113.29   20.90
   4   4   4   71.59   23.80
  -5  -4  -4  356.46   39.00
   5   4   4  358.56   49.70
  -6  -4  -4    2.20   10.90
   6   4   4   15.50   18.30
   7  -5  -4   93.59   12.70
   6  -5  -4   21.20    6.80
   6  -5  -4   -8.00   15.30
  -6   5   4    8.80   27.50
   5  -5  -4  215.98   33.60
   5  -5  -4  154.38   13.70
  -5   5   4  123.49   46.10
   4  -5  -4   26.30   15.00
   4  -5  -4   46.10    7.10
  -4   5   4    8.00   21.70
   3  -5  -4  342.47   16.00
   3  -5  -4  306.97   34.40
  -3   5   4  213.38   46.60
   2  -5  -4  511.45   35.90
   2  -5  -4  472.95   19.90
  -2   5   4  392.26   61.59
   1  -5  -4  328.47   28.20
   1  -5  -4  347.77   14.70
  -1   5   4  322.17   51.29
   0  -5  -4  205.98   10.20
   0  -5  -4  271.57   31.20
   0   5   4  206.98   39.50
  -1  -5  -4   13.50    9.50
   1   5   4    4.80   11.30
  -2  -5  -4    7.20    8.20
   2   5   4   -6.10   10.20
  -3  -5  -4   23.70   12.00
   3   5   4    7.00   12.20
  -4  -5  -4   31.80   13.70
   4   5   4   34.40   19.80
  -5  -5  -4   41.70   16.40
   5   5   4   42.90   21.90
  -6  -5  -4   11.50   12.60
   6   5   4   12.30   19.80
  -7  -5  -4   89.49   23.70
   7   5   4   58.09   32.20
   7  -6  -4   32.30    9.40
   6  -6  -4   -3.10    4.70
  -6   6   4   22.90   35.50
   5  -6  -4   19.00    5.70
   5  -6  -4   12.50   16.00
  -5   6   4   34.00   33.40
   4  -6  -4   -0.80    3.70
   4  -6  -4   -7.00   10.70
  -4   6   4  -13.30   17.70
   3  -6  -4   -1.10    9.70
   3  -6  -4    1.20    3.40
  -3   6   4   -9.80   17.20
   2  -6  -4    1.50   10.20
   2  -6  -4   15.80    4.00
  -2   6   4    4.80   17.70
   1  -6  -4   78.69    7.00
   1  -6  -4   84.09   19.70
  -1   6   4  129.19   38.30
   0  -6  -4  118.69   22.70
   0   6   4   97.59   29.40
  -1  -6  -4    9.10   10.10
   1   6   4    4.50   13.10
  -2  -6  -4  109.39   23.50
   2   6   4  128.89   33.80
  -3  -6  -4  153.88   27.20
   3   6   4   92.99   29.20
  -4  -6  -4   66.49   19.90
   4   6   4   84.69   29.50
  -5  -6  -4  133.49   26.50
   5   6   4  143.39   38.60
  -6  -6  -4   15.50   14.00
   6   6   4  -23.00   14.30
   6  -7  -4   -1.50    5.50
   5  -7  -4  260.27   19.30
  -5   7   4  173.38   56.09
   4  -7  -4   26.60   17.80
   4  -7  -4   37.30    7.10
  -4   7   4   39.30   31.60
   3  -7  -4  254.37   37.70
   3  -7  -4  325.37   16.40
  -3   7   4  257.67   59.79
   2  -7  -4   97.39   23.40
  -2   7   4   78.19   33.90
   1  -7  -4   42.10   17.00
  -1   7   4   25.50   24.20
   0  -7  -4  176.08   31.10
   0   7   4  186.58   45.30
  -1  -7  -4   32.50   15.90
   1   7   4   29.10   22.00
  -2  -7  -4   51.29   18.80
   2   7   4   61.39   28.20
  -3  -7  -4   18.10   13.40
   3   7   4   42.80   26.50
  -4  -7  -4    4.40   13.00
   4   7   4   13.10   20.00
  -5  -7  -4   17.70   15.20
   5   7   4   12.90   22.70
   4  -8  -4   10.60   21.10
  -4   8   4   80.09   32.70
   3  -8  -4   -3.50   13.40
  -3   8   4   -1.50   24.90
   2  -8  -4   28.40   17.20
  -2   8   4   27.30   27.30
   1  -8  -4    2.70   13.00
  -1   8   4   -1.90   19.40
   0  -8  -4  205.08   34.50
   0   8   4  151.98   44.30
  -1  -8  -4   38.80   18.90
   1   8   4   26.40   24.40
  -2  -8  -4  279.77   40.30
   2   8   4  268.37   56.69
  -3  -8  -4   89.99   25.00
   3   8   4  126.89   41.30
   2  -9  -4  257.17   41.90
  -2   9   4   92.89   45.30
   1  -9  -4   11.30   16.50
  -1   9   4   27.80   29.00
   0  -9  -4  107.89   28.50
   0   9   4  109.19   44.50
  -1  -9  -4  -15.80   12.70
   1   9   4  -21.20   20.10
   0  11  -5    9.00   19.80
   3  10  -5   22.60   19.80
  -3 -10   5   18.30   21.20
   2  10  -5  103.69   33.30
  -2 -10   5  113.39   32.60
   1  10  -5  185.88   40.90
  -1 -10   5  137.79   36.40
   0  10  -5   95.79   30.00
   0 -10   5   70.49   28.40
  -1  10  -5  469.85   61.69
   1 -10   5  346.87   55.79
   2 -10   5   31.80   24.60
   3 -10   5  249.48   48.40
   5   9  -5   23.80   20.90
  -5  -9   5   28.20   19.10
   4   9  -5  175.58   42.00
  -4  -9   5  257.07   42.90
   3   9  -5   13.50   15.70
  -3  -9   5    7.60   15.50
   2   9  -5  153.28   35.80
  -2  -9   5  113.29   28.50
   1   9  -5   18.80   16.80
  -1  -9   5    8.60   15.00
   0   9  -5   27.70   16.60
   0  -9   5   24.40   20.10
  -1   9  -5   -5.90   10.50
   1  -9   5    7.30   17.80
  -2   9  -5    4.00   14.30
   2  -9   5   -0.20   16.90
  -3   9  -5    0.90    5.10
   3  -9   5   14.00   16.90
  -4   9  -5   88.69   11.30
   4  -9   5   85.29   30.20
  -5   9  -5   54.49   10.10
   5  -9   5   50.59   28.50
   6   8  -5   51.89   25.50
  -6  -8   5   12.50   16.10
   5   8  -5    2.30   14.20
  -5  -8   5    6.30   14.90
   4   8  -5   -2.20   11.40
  -4  -8   5   -3.90   10.30
   3   8  -5   45.50   21.30
  -3  -8   5   46.10   18.00
   2   8  -5   83.69   25.30
  -2  -8   5   78.09   24.60
   1   8  -5  241.78   39.20
  -1  -8   5  231.78   37.50
   0   8  -5   23.20    4.50
   0   8  -5   30.50   15.80
   0  -8   5    7.80   15.10
  -1   8  -5  693.23   26.10
  -1   8  -5  579.64   48.00
   1  -8   5  612.44   65.99
  -2   8  -5   10.40   12.80
  -2   8  -5   25.00    5.20
   2  -8   5   53.99   22.20
  -3   8  -5  298.87   16.10
   3  -8   5  238.58   43.50
  -4   8  -5   56.99    9.00
   4  -8   5   42.40   21.40
  -5   8  -5   90.29   11.10
   5  -8   5   51.49   26.40
  -6   8  -5    5.60    6.10
   6  -8   5   13.10   22.90
   7   7  -5   71.89   29.50
  -7  -7   5   81.49   22.60
   6   7  -5  141.69   38.70
  -6  -7   5  144.69   27.80
   5   7  -5   -1.70   15.10
  -5  -7   5   13.20   12.20
   4   7  -5  377.86   54.29
  -4  -7   5  341.27   41.40
   3   7  -5   22.00   16.70
  -3  -7   5   21.80   13.50
   2   7  -5  268.57   40.10
   2   7  -5  256.17   10.60
  -2  -7   5  318.47   41.80
   1   7  -5   44.50   17.50
   1   7  -5   61.89    4.80
  -1  -7   5   36.70   16.80
   0   7  -5   11.40   11.60
   0   7  -5   20.80    3.30
   0  -7   5   13.20   15.10
  -1   7  -5   23.40   12.40
  -1   7  -5   39.20    5.00
   1  -7   5   20.40   15.60
  -2   7  -5   50.09   15.30
  -2   7  -5   35.40    5.30
   2  -7   5   40.00   19.80
  -3   7  -5  127.89   11.10
  -3   7  -5  122.99   23.10
   3  -7   5   92.69   26.80
  -4   7  -5  148.39   12.60
   4  -7   5  100.59   28.70
  -5   7  -5  120.29   12.50
   5  -7   5   86.19   30.20
  -6   7  -5  304.97   22.40
   6  -7   5  288.97   50.79
  -7   7  -5   -5.40    5.30
   7  -7   5    9.50   24.50
   8   6  -5   19.10   21.30
   7   6  -5    9.20   16.70
  -7  -6   5   16.30   13.40
   6   6  -5   28.90   19.30
  -6  -6   5    8.40   10.80
   5   6  -5    1.80   12.90
  -5  -6   5    5.50    9.20
   4   6  -5    1.30    2.00
   4   6  -5    5.40   10.40
  -4  -6   5   -3.10    7.60
   3   6  -5    6.10    2.10
   3   6  -5    3.70   10.90
  -3  -6   5    4.80    9.50
   2   6  -5   41.90   16.80
   2   6  -5   41.60    3.90
  -2  -6   5   28.20   14.10
   1   6  -5  311.87   40.60
   1   6  -5  330.97   13.30
  -1  -6   5  353.06   40.30
   0   6  -5  200.18    9.50
   0   6  -5  225.88   30.90
   0  -6   5  211.58   31.60
  -1   6  -5  624.64   23.50
  -1   6  -5  575.54   40.30
   1  -6   5  632.04   48.00
  -2   6  -5   62.89    6.30
  -2   6  -5   51.69   13.80
   2  -6   5   53.59   19.20
  -3   6  -5  428.86   30.90
  -3   6  -5  439.46   19.60
   3  -6   5  468.75   53.09
  -4   6  -5  357.66   17.70
   4  -6   5  260.77   40.60
  -5   6  -5   70.39    9.20
   5  -6   5   67.29   22.80
  -6   6  -5  214.38   17.60
   6  -6   5  185.48   36.50
  -7   6  -5    2.70    6.30
   7  -6   5    2.30   19.80
   8   5  -5    5.40   17.50
  -8  -5   5   -2.90    9.00
   7   5  -5   46.60   24.40
  -7  -5   5   45.80   15.60
   6   5  -5   70.29   25.20
   6   5  -5   62.19    6.70
  -6  -5   5   56.19   15.20
   5   5  -5    3.50    2.50
   5   5  -5   12.90   14.20
  -5  -5   5   15.80    9.70
   4   5  -5  289.17   44.30
   4   5  -5  264.87   12.20
  -4  -5   5  288.77   32.30
   3   5  -5   14.20   12.90
   3   5  -5   24.10    3.40
  -3  -5   5    6.60    8.20
   2   5  -5  319.37   40.80
   2   5  -5  385.16   15.00
  -2  -5   5  374.26   38.20
   1   5  -5   97.29   20.50
   1   5  -5   89.69    5.50
  -1  -5   5  112.59   22.20
   0   5  -5  673.33   43.70
   0   5  -5  632.54   24.10
   0  -5   5  727.83   46.10
  -1   5  -5   -0.40    1.70
  -1   5  -5    3.30    6.40
   1  -5   5    3.70   10.30
  -2   5  -5   23.40    8.30
  -2   5  -5   13.20    3.10
   2  -5   5   -3.10    8.40
  -3   5  -5   32.50   15.10
  -3   5  -5   13.20    3.70
  -3   5  -5   23.10    7.80
   3  -5   5   -1.50   10.10
  -4   5  -5  190.68   11.30
   4  -5   5  127.29   28.30
  -5   5  -5   14.00    4.90
   5  -5   5   19.20   15.70
  -6   5  -5  462.95   23.70
   6  -5   5  433.06   55.09
  -7   5  -5   16.30    6.70
   7  -5   5   22.50   22.70
  -8   5  -5  208.38   19.80
   8  -5   5  162.38   40.50
   8   4  -5   35.80    6.90
   8   4  -5   37.60   23.60
   8   4  -5   31.30   16.20
   7   4  -5   24.60    5.50
   7   4  -5   62.59   25.00
  -7  -4   5   39.40   12.70
   6   4  -5   91.29    8.40
  -6  -4   5   46.40   12.70
   5   4  -5    4.70    2.60
  -5  -4   5    6.10   15.40
  -5  -4   5    6.10    7.20
   4   4  -5   38.30    4.60
  -4  -4   5   48.10   22.00
  -4  -4   5   28.10    9.60
   3   4  -5   64.69    5.60
  -3  -4   5   50.09   21.60
  -3  -4   5   66.79   14.00
   2   4  -5  137.19    7.50
  -2  -4   5  172.58   32.50
  -2  -4   5  167.58   22.20
   1   4  -5  746.83   26.90
  -1  -4   5  746.13   52.29
  -1  -4   5  731.33   42.80
   0   4  -5  151.98    7.90
   0  -4   5  175.18   26.30
   0  -4   5  195.58   26.20
  -1   4  -5 2020.30   84.79
  -1   4  -5 1999.00   68.49
   1  -4   5 2064.89   90.09
  -2   4  -5  379.56   23.60
  -2   4  -5  389.26   16.20
  -2   4  -5  336.57   32.00
   2  -4   5  407.76   33.10
  -3   4  -5 1171.38   43.10
   3  -4   5 1228.38   66.09
  -4   4  -5  437.16   19.60
   4  -4   5  422.86   43.80
  -5   4  -5  304.87   16.20
   5  -4   5  268.67   37.40
  -6   4  -5  277.07   16.50
   6  -4   5  246.78   38.20
  -7   4  -5   -4.60    4.20
   7  -4   5   -4.60   13.80
  -8   4  -5   28.30    8.40
   8  -4   5    7.40   18.50
   9   3  -5   16.70    6.60
   9   3  -5   -2.10   18.30
   8   3  -5    8.30   12.30
   8   3  -5    9.70    5.40
   8   3  -5    1.40   15.00
   7   3  -5   78.29   17.60
   7   3  -5   89.89    9.60
  -7  -3   5   70.09   27.90
   6   3  -5  479.65   21.10
  -6  -3   5  531.85   67.79
  -6  -3   5  447.56   29.30
   5   3  -5  107.79    9.00
  -5  -3   5  156.98   18.70
  -5  -3   5  144.99   36.80
   4   3  -5 1036.80   38.00
  -4  -3   5 1084.59   47.70
  -4  -3   5  987.00   74.59
   3   3  -5  116.59    7.00
  -3  -3   5  150.88   17.00
  -3  -3   5  112.19   29.30
   2   3  -5 1068.99   37.70
   2   3  -5 1071.19   49.60
  -2  -3   5 1034.20   69.99
  -2  -3   5 1099.69   47.90
   1   3  -5  761.82   26.90
   1   3  -5  732.03   36.30
  -1  -3   5  718.73   52.79
  -1  -3   5  712.33   37.80
   0   3  -5  103.29    6.30
   0  -3   5  147.59   24.90
   0  -3   5  148.49   19.70
  -1   3  -5  545.25   43.80
  -1   3  -5  605.94   22.70
   1  -3   5  580.94   37.90
   1  -3   5  662.53   37.30
  -2   3  -5  186.58   24.80
  -2   3  -5  217.18   10.60
   2  -3   5  274.77   29.60
  -3   3  -5    2.60    2.20
   3  -3   5   -2.50    7.60
  -4   3  -5  432.36   19.00
   4  -3   5  414.76   35.40
  -5   3  -5    7.80    3.80
   5  -3   5    5.70   11.80
  -6   3  -5  252.37   15.50
   6  -3   5  267.17   37.80
  -7   3  -5   47.70    9.00
   7  -3   5   12.30   16.10
  -8   3  -5  121.19   14.40
   8  -3   5  136.89   32.70
   9   2  -5   43.00    8.70
   8   2  -5   87.99   11.10
  -8  -2   5   88.79   33.20
   7   2  -5   43.60   13.30
   7   2  -5   32.60    6.70
  -7  -2   5   60.09   28.30
   6   2  -5  266.37   22.40
   6   2  -5  269.47   15.00
  -6  -2   5  339.97   55.69
   5   2  -5  147.89   11.00
  -5  -2   5  179.28   39.60
   4   2  -5   38.90    5.00
  -4  -2   5   33.70    7.40
  -4  -2   5   39.10   21.50
   3   2  -5  114.09    7.30
   3   2  -5  138.29   14.70
  -3  -2   5   98.49   30.70
  -3  -2   5  127.19   10.60
   2   2  -5  160.08   12.10
   2   2  -5  166.08    8.30
  -2  -2   5  170.98   11.70
  -2  -2   5  161.88   34.80
   1   2  -5 1872.51   68.99
   1   2  -5 1873.21   63.29
  -1  -2   5 1903.81   70.89
  -1  -2   5 1767.82   98.69
   0   2  -5  653.13   58.99
   0   2  -5  599.64   22.00
   0   2  -5  547.35   27.80
   0  -2   5  585.54   30.20
   0  -2   5  587.44   46.70
  -1   2  -5 1978.70   93.19
  -1   2  -5 2015.50   67.89
   1  -2   5 2044.30   94.19
   1  -2   5 1980.40   79.19
  -2   2  -5  763.62   29.00
  -2   2  -5  860.21   41.70
   2  -2   5  794.52   44.50
   2  -2   5  762.82   41.20
  -3   2  -5  685.63   26.00
   3  -2   5  652.93   40.10
  -4   2  -5  840.72   32.10
   4  -2   5  830.22   49.70
  -5   2  -5   35.20    5.60
   5  -2   5   24.20   13.00
  -6   2  -5  316.37   17.60
   6  -2   5  358.26   42.60
  -7   2  -5    7.90    4.80
   7  -2   5   -5.10   11.10
  -8   2  -5   12.40    6.70
   8  -2   5   19.90   20.10
   9   1  -5   24.70    8.00
   8   1  -5   80.79   10.70
  -8  -1   5   55.09   29.70
   7   1  -5   11.10    5.40
   7   1  -5   20.70   10.90
  -7  -1   5   35.10   25.10
   6   1  -5  350.26   18.10
   6   1  -5  339.57   25.80
  -6  -1   5  391.56   62.89
   5   1  -5  302.67   15.60
   5   1  -5  310.27   21.40
  -5  -1   5  399.16   63.89
   4   1  -5 1044.40   37.90
   4   1  -5 1004.40   42.40
   4   1  -5 1039.90   42.00
  -4  -1   5  851.31   75.79
   3   1  -5  409.36   18.90
   3   1  -5  378.46   17.50
   3   1  -5  395.46   16.60
  -3  -1   5  346.47   53.59
   2   1  -5 1334.57   46.60
  -2  -1   5 1375.76   88.19
   1   1  -5  807.82   29.40
   1   1  -5  850.11   29.40
  -1  -1   5  802.02   31.10
  -1  -1   5  750.02   60.29
   0   1  -5  646.84   27.20
   0   1  -5  617.04   23.70
   0  -1   5  678.93   51.49
   0  -1   5  638.54   28.50
  -1   1  -5  659.03   24.60
  -1   1  -5  698.73   43.50
   1  -1   5  653.33   32.20
   1  -1   5  670.73   47.90
  -2   1  -5  296.67   21.70
  -2   1  -5  304.17   13.00
   2  -1   5  299.77   34.20
   2  -1   5  271.57   20.60
  -3   1  -5  105.39    8.00
  -3   1  -5  137.39   14.40
   3  -1   5  125.99   19.90
   3  -1   5  101.09   16.90
  -4   1  -5  430.46   18.60
   4  -1   5  429.76   29.20
   4  -1   5  444.56   32.80
  -5   1  -5   14.20    3.80
   5  -1   5   24.80   11.50
  -6   1  -5  291.47   15.80
   6  -1   5  229.38   33.00
  -7   1  -5   48.50    8.10
   7  -1   5   76.59   23.40
  -8   1  -5   64.09   10.20
   8  -1   5   99.39   28.10
   9   0  -5  110.79   14.00
   8   0  -5  109.99   12.90
  -8   0   5  154.08   43.10
   7   0  -5   25.10   12.40
   7   0  -5   24.80    6.70
  -7   0   5   26.00   26.10
   6   0  -5  193.58   14.40
   6   0  -5  182.58   22.80
  -6   0   5  134.49   40.90
   5   0  -5   53.99   11.00
   5   0  -5   41.60    6.40
  -5   0   5   92.09   34.00
   4   0  -5   49.20    7.70
   4   0  -5   34.10    7.50
   4   0  -5   46.20    5.90
  -4   0   5   38.90   25.00
   3   0  -5  205.18   10.50
  -3   0   5  144.19   36.80
   2   0  -5   14.60    2.90
  -2   0   5   36.30   19.40
   1   0  -5  140.59    7.50
  -1   0   5  176.48   33.50
   0   0  -5   11.10    2.50
   0   0   5    8.20   11.80
   0   0   5    9.80    4.00
   0   0   5    1.70    3.00
  -1   0  -5   14.00    2.80
   1   0   5    7.90    4.90
   1   0   5   10.20   10.70
   1   0   5    0.50    4.00
  -2   0  -5  275.07   38.40
  -2   0  -5  273.17   12.30
   2   0   5  304.77   20.30
   2   0   5  285.77   33.20
  -3   0  -5  479.65   32.60
  -3   0  -5  499.25   19.60
   3   0   5  493.95   35.70
   3   0   5  466.55   29.90
  -4   0  -5  775.72   29.00
   4   0   5  732.73   43.40
   4   0   5  751.72   44.70
  -5   0  -5  119.79    9.60
   5   0   5  111.89   21.40
   5   0   5  145.89   22.20
  -6   0  -5  210.28   13.20
   6   0   5  211.78   31.40
  -7   0  -5   14.50    5.20
   7   0   5   -5.30   11.00
  -8   0  -5   17.80    6.40
   8   0   5   29.20   18.40
   9  -1  -5   -3.30    6.10
   8  -1  -5   22.60    7.70
  -8   1   5   21.50   28.40
   7  -1  -5    2.10    4.30
  -7   1   5   25.30   26.60
   6  -1  -5  356.66   19.00
  -6   1   5  275.77   59.49
   5  -1  -5  106.59   16.60
   5  -1  -5   85.29    9.30
  -5   1   5  117.69   39.90
   4  -1  -5  737.43   29.50
   4  -1  -5  685.03   27.70
   4  -1  -5  609.14   32.20
  -4   1   5  584.54   78.69
   3  -1  -5  661.53   25.40
   3  -1  -5  615.24   27.10
  -3   1   5  687.63   81.29
   2  -1  -5  448.76   18.50
   2  -1  -5  457.75   18.40
  -2   1   5  477.85   63.39
  -2   1   5  439.26   18.90
   1  -1  -5 1161.28   42.20
   1  -1  -5 1134.09   40.20
  -1   1   5 1095.99   76.09
  -1   1   5 1146.99   45.20
   0  -1  -5   36.20    6.60
   0  -1  -5   44.20    4.60
   0   1   5   29.70   15.60
   0   1   5   47.10    8.60
  -1  -1  -5   88.89    6.80
  -1  -1  -5  106.79   12.70
   1   1   5   84.29   20.80
  -2  -1  -5   29.90    4.00
  -2  -1  -5   26.80    7.80
   2   1   5   39.00   15.10
  -3  -1  -5   39.30   10.40
  -3  -1  -5   55.59    5.30
   3   1   5   54.49   16.20
  -4  -1  -5   36.20    4.70
   4   1   5   51.69   13.50
   4   1   5   37.80   14.20
  -5  -1  -5   69.59    7.20
   5   1   5  104.69   20.40
   5   1   5   76.09   19.10
  -6  -1  -5  173.48   13.30
   6   1   5  194.38   29.20
  -7  -1  -5   29.40    6.40
   7   1   5    6.00   13.70
  -8  -1  -5   63.29    9.90
   8   1   5   96.19   25.50
   8  -2  -5   34.70    8.20
   7  -2  -5   -5.90    4.10
  -7   2   5   24.80   31.50
   6  -2  -5   79.39   10.10
   6  -2  -5   83.89   18.40
  -6   2   5    6.70   26.70
   5  -2  -5   65.19    8.20
   5  -2  -5   41.30   12.80
  -5   2   5   28.40   27.30
   4  -2  -5    4.60    3.20
   4  -2  -5   -5.70    5.30
  -4   2   5    0.10    5.50
  -4   2   5   -1.50   15.60
   3  -2  -5    0.60    2.40
   3  -2  -5    6.40    5.20
  -3   2   5    0.10    4.10
  -3   2   5   -9.60   11.80
   2  -2  -5    5.00    2.50
   2  -2  -5    6.40    4.80
  -2   2   5    5.20   14.40
  -2   2   5    5.00    5.90
   1  -2  -5  511.85   25.40
   1  -2  -5  491.25   19.70
  -1   2   5  579.14   53.19
  -1   2   5  502.95   28.60
   0  -2  -5  114.49    7.00
   0  -2  -5  120.29   13.80
   0   2   5  123.59   28.10
  -1  -2  -5 1259.77   46.00
  -1  -2  -5 1369.06   56.29
   1   2   5 1395.56   78.79
  -2  -2  -5  511.85   19.90
  -2  -2  -5  509.45   30.20
   2   2   5  532.45   43.50
  -3  -2  -5  168.08   20.70
  -3  -2  -5  151.08    8.40
   3   2   5  200.18   31.40
  -4  -2  -5  746.73   41.90
  -4  -2  -5  706.53   26.90
   4   2   5  657.63   50.09
  -5  -2  -5   88.69    7.80
   5   2   5   93.79   23.30
  -6  -2  -5  194.08   12.20
   6   2   5  182.48   33.60
   6   2   5  226.18   32.50
  -7  -2  -5   11.60    4.80
   7   2   5    4.80   12.50
   8   2   5    1.30   13.80
   8  -3  -5   32.00    9.30
   7  -3  -5   -4.60    4.70
  -7   3   5  -13.60   27.70
   6  -3  -5  156.38   14.60
  -6   3   5  159.78   50.99
   5  -3  -5   11.60    9.80
   5  -3  -5    7.30    4.60
  -5   3   5    7.20   22.90
   4  -3  -5  263.87   27.50
   4  -3  -5  219.18   13.30
  -4   3   5  250.67   54.49
   3  -3  -5  676.63   27.20
   3  -3  -5  685.53   36.20
  -3   3   5  684.63   85.29
   2  -3  -5  230.68   11.70
   2  -3  -5  251.87   19.20
  -2   3   5  208.48   43.70
   1  -3  -5 1157.28   51.59
   1  -3  -5 1189.88   41.80
  -1   3   5 1186.58   82.09
   0  -3  -5   -5.30    4.40
   0  -3  -5   -1.00    1.90
   0   3   5    8.80   13.70
  -1  -3  -5  463.75   28.70
  -1  -3  -5  425.96   17.60
   1   3   5  423.26   51.39
  -2  -3  -5    0.70    1.60
  -2  -3  -5    0.00    5.60
   2   3   5   -0.20   10.10
  -3  -3  -5  134.49   20.50
  -3  -3  -5  167.78    8.50
   3   3   5  165.88   31.30
  -4  -3  -5  140.49    8.20
  -4  -3  -5  136.49   21.60
   4   3   5  177.68   33.20
  -5  -3  -5   84.29   18.90
  -5  -3  -5   82.99    7.80
   5   3   5  113.19   29.10
   6   3   5  144.19   34.00
   7   3   5  214.98   35.70
   8  -4  -5  203.98   19.30
   7  -4  -5    8.90    6.00
  -7   4   5    5.30   32.10
   6  -4  -5  143.59   13.70
  -6   4   5  124.99   49.90
   5  -4  -5   -3.10    3.60
   5  -4  -5   -1.50    9.90
  -5   4   5   22.30   29.60
   4  -4  -5    6.40    4.30
   4  -4  -5    6.70    9.00
  -4   4   5   17.90   24.40
   3  -4  -5   95.09    8.40
   3  -4  -5   68.99   15.10
  -3   4   5   35.30   26.10
   2  -4  -5  107.59    8.50
   2  -4  -5   85.59   16.20
  -2   4   5   37.30   23.20
   1  -4  -5  273.47   12.80
   1  -4  -5  294.07   23.60
  -1   4   5  230.38   44.00
   0  -4  -5  272.27   28.30
   0  -4  -5  241.98   11.90
   0   4   5  328.07   50.59
  -1  -4  -5  357.56   28.00
  -1  -4  -5  371.66   15.50
   1   4   5  425.56   55.99
  -2  -4  -5  686.93   25.40
  -2  -4  -5  728.83   42.80
   2   4   5  685.93   58.89
  -3  -4  -5   29.80    3.80
  -3  -4  -5   39.70   12.90
   3   4   5   45.40   21.00
  -4  -4  -5  638.54   42.70
   4   4   5  568.24   65.89
  -5  -4  -5   13.80   11.30
   5   4   5   51.19   24.10
  -6  -4  -5   91.39   22.00
   6   4   5   85.69   29.70
   7  -5  -5   -5.20    4.90
   6  -5  -5  121.09   13.10
  -6   5   5   46.30   37.20
   5  -5  -5  190.28   15.70
  -5   5   5  168.68   52.59
   4  -5  -5  289.67   33.80
   4  -5  -5  280.57   15.80
  -4   5   5  266.47   61.39
   3  -5  -5  626.74   40.90
   3  -5  -5  608.64   25.60
  -3   5   5  551.84   83.29
   2  -5  -5   22.40    4.50
   2  -5  -5   52.29   15.10
  -2   5   5   38.90   23.00
   1  -5  -5  622.74   24.30
   1  -5  -5  628.04   39.80
  -1   5   5  566.74   71.59
   0  -5  -5   93.99   18.80
   0  -5  -5  129.09    8.90
   0   5   5  103.99   32.50
  -1  -5  -5  285.07   32.50
   1   5   5  261.67   47.60
  -2  -5  -5   -4.20    7.10
   2   5   5   -5.00   11.30
  -3  -5  -5   53.49   16.70
   3   5   5   31.80   21.70
  -4  -5  -5    1.20   10.00
   4   5   5  -10.40   13.70
  -5  -5  -5    7.70   10.80
   5   5   5   -2.00   15.70
  -6  -5  -5    9.10   14.50
   6   5   5    6.10   19.50
   6  -6  -5  108.39   12.90
  -6   6   5   89.19   51.39
   5  -6  -5   33.10    7.40
  -5   6   5  -11.80   25.90
   4  -6  -5   53.49    7.90
   4  -6  -5   64.19   19.00
  -4   6   5   66.19   35.80
   3  -6  -5   -0.30    3.20
   3  -6  -5    9.60   11.30
  -3   6   5  -16.50   17.20
   2  -6  -5   16.50   11.40
   2  -6  -5   35.70    5.20
  -2   6   5   16.40   20.70
   1  -6  -5   84.79    7.70
   1  -6  -5   77.99   19.80
  -1   6   5   80.09   32.50
   0  -6  -5  218.48   31.10
   0   6   5  139.39   38.20
  -1  -6  -5  106.39   22.60
   1   6   5   67.79   27.20
  -2  -6  -5  607.34   43.60
   2   6   5  526.65   70.49
  -3  -6  -5   23.60   15.10
   3   6   5   -2.80   15.80
  -4  -6  -5  274.57   37.10
   4   6   5  264.17   52.89
  -5  -6  -5   -5.40   11.50
   5   6   5   12.90   22.00
   5  -7  -5   35.40    7.70
  -5   7   5   29.90   39.80
   4  -7  -5   53.19    8.10
  -4   7   5   33.80   33.70
   3  -7  -5  220.78   34.20
  -3   7   5  140.39   47.20
   2  -7  -5    8.30   12.50
  -2   7   5   22.30   24.90
   1  -7  -5  144.99   27.90
  -1   7   5   74.99   33.00
   0  -7  -5   37.30   15.80
   0   7   5    8.50   20.90
  -1  -7  -5   25.00   14.80
   1   7   5   25.50   24.20
  -2  -7  -5   78.99   21.60
   2   7   5   46.10   28.20
  -3  -7  -5  -10.50   11.60
   3   7   5    2.10   20.00
  -4  -7  -5   -4.70   11.60
   4   7   5    3.80   22.20
  -3   8   5   19.50   31.50
   2  -8  -5    0.20   14.00
  -2   8   5    6.20   23.50
   1  -8  -5   51.19   20.70
  -1   8   5   31.10   32.00
   0  -8  -5    1.40   12.60
   0   8   5   -7.30   18.70
  -1  -8  -5   98.79   25.80
   1   8   5   36.80   36.20
  -2  -8  -5   84.39   22.50
   2   8   5   58.29   33.20
   3   8   5   -8.00   22.80
   3  10  -6    0.60   15.30
  -3 -10   6    8.10   16.90
   2  10  -6    0.20   16.20
  -2 -10   6   16.50   17.90
   1  10  -6   15.80   16.40
  -1 -10   6    8.40   17.90
   0  10  -6   82.89   27.90
   0 -10   6  144.39   35.80
  -1  10  -6   12.70   16.10
   1 -10   6    5.70   20.60
   2 -10   6   78.59   32.40
   3 -10   6   68.49   33.10
   5   9  -6  112.79   35.20
  -5  -9   6  102.39   29.00
   4   9  -6   17.10   19.60
  -4  -9   6    8.90   16.20
   3   9  -6   97.49   30.00
  -3  -9   6  142.49   32.70
   2   9  -6   89.19   27.30
  -2  -9   6   56.29   23.10
   1   9  -6   49.90   21.30
  -1  -9   6   41.30   23.50
   0   9  -6   44.50   18.90
   0  -9   6   17.50   21.10
  -1   9  -6    8.60   12.70
   1  -9   6   -6.60   14.30
  -2   9  -6   -6.10    4.60
  -2   9  -6   -5.50   12.20
   2  -9   6   -4.10   16.00
  -3   9  -6   60.09    8.70
   3  -9   6   70.99   27.60
  -4   9  -6   -1.20    5.40
   4  -9   6   26.30   23.50
  -5   9  -6   83.49   11.80
   5  -9   6   96.99   34.20
   6   8  -6    3.20   17.80
  -6  -8   6    6.80   14.20
   5   8  -6   -4.90   13.50
  -5  -8   6    0.50   12.00
   4   8  -6    2.10   14.80
  -4  -8   6   -5.90   10.20
   3   8  -6   21.30   15.70
  -3  -8   6   13.30   12.30
   2   8  -6  128.09   30.70
  -2  -8   6   91.39   26.10
   1   8  -6   -1.10   11.00
  -1  -8   6    4.80   12.60
   0   8  -6  365.46   46.30
   0   8  -6  373.96   15.90
   0  -8   6  341.77   47.20
  -1   8  -6   36.80    5.20
  -1   8  -6   34.30   15.70
   1  -8   6   62.79   23.30
  -2   8  -6  186.78   11.70
  -2   8  -6  242.98   34.60
   2  -8   6  185.68   37.60
  -3   8  -6  290.77   15.70
   3  -8   6  188.08   37.80
  -4   8  -6   43.70    7.70
   4  -8   6   33.60   24.10
  -5   8  -6  307.17   21.70
   5  -8   6  199.48   42.60
  -6   8  -6    1.10    6.60
   6  -8   6   21.80   24.80
   7   7  -6   88.39   32.40
  -7  -7   6   68.99   21.00
   6   7  -6   -5.80   13.40
  -6  -7   6   -3.40   10.70
   5   7  -6  180.48   41.20
  -5  -7   6  147.59   27.70
   4   7  -6  148.79   36.50
  -4  -7   6  138.59   26.90
   3   7  -6   74.49   23.40
  -3  -7   6  133.19   26.10
   2   7  -6  510.55   47.60
   2   7  -6  474.35   18.20
  -2  -7   6  443.16   48.40
   1   7  -6   64.59   20.20
   1   7  -6   87.89    6.50
  -1  -7   6   76.09   21.70
   0   7  -6  703.13   26.70
   0   7  -6  755.92   52.49
   0  -7   6  687.13   54.19
  -1   7  -6   30.40    4.60
  -1   7  -6   27.80   13.50
   1  -7   6   41.80   18.90
  -2   7  -6  251.77   13.20
  -2   7  -6  268.37   32.70
   2  -7   6  222.88   38.00
  -3   7  -6   11.30    4.30
   3  -7   6    9.90   13.40
  -4   7  -6  135.59   12.40
   4  -7   6  151.68   34.30
  -5   7  -6  131.89   13.10
   5  -7   6  119.39   33.70
  -6   7  -6   33.70    8.40
   6  -7   6   31.40   24.60
  -7   7  -6   55.49   10.90
   7  -7   6   27.60   24.50
   7   6  -6   62.69   27.30
  -7  -6   6   84.09   20.60
   6   6  -6    7.10   17.10
  -6  -6   6    3.80    9.50
   5   6  -6   -2.80   13.80
  -5  -6   6    6.80    9.70
   4   6  -6   41.00   19.40
   4   6  -6   30.70    4.50
  -4  -6   6   57.39   17.50
   3   6  -6   12.70   12.40
   3   6  -6   25.00    3.70
  -3  -6   6   27.30   13.70
   2   6  -6  194.38   34.10
   2   6  -6  254.57   11.20
  -2  -6   6  285.77   36.30
   1   6  -6   59.59   20.30
   1   6  -6   41.20    4.50
  -1  -6   6   47.90   17.30
   0   6  -6  267.47   12.40
   0   6  -6  344.77   39.20
   0  -6   6  291.97   37.70
  -1   6  -6  524.55   20.60
  -1   6  -6  442.86   35.80
   1  -6   6  589.44   46.00
  -2   6  -6  336.37   27.80
  -2   6  -6  369.46   16.40
   2  -6   6  389.26   44.60
  -3   6  -6  359.66   26.40
  -3   6  -6  353.26   17.00
   3  -6   6  343.37   44.70
  -4   6  -6   40.70    6.60
   4  -6   6   91.29   25.10
  -5   6  -6  296.27   17.30
   5  -6   6  261.07   42.50
  -6   6  -6   17.60    6.40
   6  -6   6   25.50   22.40
  -7   6  -6   42.90    9.50
   7  -6   6   70.09   29.50
   8   5  -6   -5.60   15.00
   7   5  -6  101.39   32.80
  -7  -5   6   66.59   17.20
   6   5  -6   55.59    6.60
   6   5  -6   36.70   20.10
  -6  -5   6   44.10   13.40
   5   5  -6  167.98    9.60
   5   5  -6  137.49   33.90
  -5  -5   6  152.18   23.10
   4   5  -6  467.85   19.20
  -4  -5   6  452.25   33.20
   3   5  -6  132.39    8.00
  -3  -5   6  176.18   36.30
  -3  -5   6  137.09   21.00
   2   5  -6 1340.17   45.80
  -2  -5   6 1239.58   64.59
   1   5  -6   12.70    2.80
  -1  -5   6    9.80   10.20
   0   5  -6  808.02   30.30
   0   5  -6  827.82   51.99
   0  -5   6  906.41   53.19
  -1   5  -6   75.79   17.10
  -1   5  -6  101.89    7.80
   1  -5   6  110.09   24.00
  -2   5  -6  111.39    8.70
  -2   5  -6  138.89   19.10
   2  -5   6  127.49   25.90
  -3   5  -6   78.49   11.80
  -3   5  -6   61.09    7.00
   3  -5   6   37.20   15.70
  -4   5  -6   15.20    4.10
   4  -5   6   21.20   16.10
  -5   5  -6   66.69    8.60
   5  -5   6   85.59   25.10
  -6   5  -6  130.49   12.60
   6  -5   6   75.09   27.00
  -7   5  -6   63.49   10.60
   7  -5   6   46.80   25.80
  -8   5  -6  159.68   17.20
   8  -5   6  117.69   37.60
   8   4  -6  -11.20   13.70
   8   4  -6   -1.80    4.00
   7   4  -6  141.19   12.10
  -7  -4   6  171.08   23.30
   6   4  -6   -3.20    2.70
  -6  -4   6    4.60   18.80
  -6  -4   6    3.50    7.10
   5   4  -6   74.29    7.20
  -5  -4   6   70.99   28.00
  -5  -4   6   78.39   14.50
   4   4  -6    6.30    2.80
  -4  -4   6   -6.10   11.60
  -4  -4   6    5.10    5.90
   3   4  -6   17.40    3.30
  -3  -4   6   24.50    9.40
  -3  -4   6   13.30   15.10
   2   4  -6  102.19    7.90
  -2  -4   6  122.59   18.90
  -2  -4   6  141.09   32.00
   1   4  -6  123.09    7.20
  -1  -4   6  104.39   25.00
  -1  -4   6  133.59   21.00
   0   4  -6  782.92   28.90
   0  -4   6  860.91   54.79
   0  -4   6  735.63   44.70
  -1   4  -6  201.28   10.10
   1  -4   6  227.98   29.00
   1  -4   6  204.38   27.70
  -2   4  -6  565.14   44.90
  -2   4  -6  602.64   23.40
  -2   4  -6  589.04   33.00
   2  -4   6  572.54   41.10
  -3   4  -6  795.12   30.10
   3  -4   6  729.43   49.99
  -4   4  -6   49.80    6.60
   4  -4   6   56.99   19.00
  -5   4  -6  258.87   14.70
   5  -4   6  275.87   38.20
  -6   4  -6   -2.40    3.30
   6  -4   6    8.60   15.20
  -7   4  -6   -4.70    4.60
   7  -4   6   19.70   20.20
  -8   4  -6   -2.30    5.40
   8  -4   6   -0.90   17.40
   8   3  -6   20.80    6.20
  -8  -3   6   -5.50   19.60
   7   3  -6   92.69    9.60
   7   3  -6  114.49   19.90
  -7  -3   6  152.58   40.50
   6   3  -6   47.80    6.60
  -6  -3   6   75.29   31.10
   5   3  -6  242.28   13.00
  -5  -3   6  247.18   18.70
  -5  -3   6  282.97   50.59
   4   3  -6  411.56   18.00
  -4  -3   6  513.55   65.09
  -4  -3   6  425.56   24.60
   3   3  -6  322.67   14.10
  -3  -3   6  302.27   20.10
  -3  -3   6  325.27   49.80
   2   3  -6  505.15   27.70
   2   3  -6  495.95   19.30
  -2  -3   6  450.25   56.99
  -2  -3   6  449.56   26.60
   1   3  -6   20.50    7.50
   1   3  -6   22.60    3.70
  -1  -3   6   10.60   13.70
  -1  -3   6   25.00    9.50
   0   3  -6  309.07   13.20
   0  -3   6  290.27   40.40
   0  -3   6  276.27   23.00
  -1   3  -6  102.89    7.50
   1  -3   6  108.69   22.00
   1  -3   6   92.19   17.30
  -2   3  -6  195.08   27.90
  -2   3  -6  170.28    9.50
   2  -3   6  243.68   27.50
   2  -3   6  159.78   21.80
  -3   3  -6   10.30    3.30
   3  -3   6   10.50    9.40
  -4   3  -6  235.18   12.80
   4  -3   6  243.98   32.70
  -5   3  -6   69.79    8.40
   5  -3   6   64.59   19.10
  -6   3  -6  205.78   15.60
   6  -3   6  221.78   33.90
  -7   3  -6   47.60    8.50
   7  -3   6   62.39   25.20
  -8   3  -6  245.48   21.10
   8  -3   6  198.18   41.10
   9   2  -6  106.69   12.80
  -9  -2   6  112.49   40.60
   8   2  -6    3.60    5.00
  -8  -2   6   11.50   22.10
   7   2  -6  154.38   13.20
  -7  -2   6  160.98   43.90
   6   2  -6  179.18   21.30
   6   2  -6  194.78   14.40
  -6  -2   6  252.27   52.39
   5   2  -6    5.50    5.80
   5   2  -6    4.00    3.20
  -5  -2   6    6.80   17.20
   4   2  -6    7.00    6.20
   4   2  -6    4.60    2.90
  -4  -2   6    5.30    3.90
  -4  -2   6  -11.20   11.60
   3   2  -6    7.00    4.60
   3   2  -6    3.30    2.40
  -3  -2   6    4.40    3.30
  -3  -2   6  -13.80   10.90
   2   2  -6 1045.20   36.30
   2   2  -6  936.91   39.30
  -2  -2   6 1124.89   80.39
  -2  -2   6 1002.30   39.00
   1   2  -6   71.59    6.10
   1   2  -6   78.59    9.50
  -1  -2   6   57.59   24.50
  -1  -2   6   85.59   11.80
   0   2  -6  700.13   32.30
   0   2  -6  658.73   26.20
   0  -2   6  667.63   55.69
   0  -2   6  795.62   36.40
  -1   2  -6 1034.10   72.19
  -1   2  -6  922.41   34.70
   1  -2   6  971.20   45.90
   1  -2   6  985.00   64.09
  -2   2  -6  213.28   11.00
  -2   2  -6  260.57   28.60
   2  -2   6  245.48   33.40
   2  -2   6  215.18   23.90
  -3   2  -6 1819.32   68.09
  -3   2  -6 1760.22   62.79
   3  -2   6 1783.22   78.89
   3  -2   6 1851.51   81.59
  -4   2  -6   -0.10    2.50
   4  -2   6    4.80    8.70
  -5   2  -6  551.44   24.20
   5  -2   6  569.94   44.10
  -6   2  -6   61.29    8.20
   6  -2   6   70.39   21.30
  -7   2  -6  103.19   11.20
   7  -2   6   76.29   23.90
  -8   2  -6   20.40    7.30
   8  -2   6   11.70   19.00
   9   1  -6   -1.00    6.10
   8   1  -6    5.20    6.10
  -8  -1   6    4.20   23.60
   7   1  -6  131.09   12.50
  -7  -1   6  130.49   41.50
   6   1  -6    3.00    4.00
   6   1  -6   10.80    8.00
  -6  -1   6    8.40   20.90
   5   1  -6  349.87   22.00
   5   1  -6  365.96   17.80
  -5  -1   6  386.66   64.09
   4   1  -6  608.74   24.60
   4   1  -6  584.64   26.40
   4   1  -6  613.34   27.30
  -4  -1   6  514.75   75.09
   3   1  -6   20.10    4.10
  -3  -1   6   30.40   22.20
   2   1  -6 2348.36   78.89
  -2  -1   6 2266.07  130.09
   1   1  -6   91.39    7.30
  -1  -1   6   91.39    7.80
  -1  -1   6   91.39   29.70
  -1  -1   6   96.09    5.90
   0   1  -6  620.74   23.80
   0  -1   6  610.24   53.99
   0  -1   6  610.54   26.30
   0  -1   6  631.54   29.10
  -1   1  -6   73.39    6.60
   1  -1   6   85.49   12.20
   1  -1   6  108.09   26.20
  -2   1  -6   89.89    7.50
  -2   1  -6  110.59   19.20
   2  -1   6  103.79   15.40
   2  -1   6  122.59   25.20
  -3   1  -6    9.80    6.40
  -3   1  -6    8.00    3.10
   3  -1   6   10.80    7.90
   3  -1   6   -4.50   10.00
  -4   1  -6  287.07   20.80
  -4   1  -6  237.48   12.80
   4  -1   6  230.48   29.20
   4  -1   6  272.77   30.70
  -5   1  -6   12.00    3.90
   5  -1   6   12.60   11.50
  -6   1  -6  151.58   13.00
   6  -1   6  152.78   27.90
  -7   1  -6   20.30    6.20
   7  -1   6    7.50   14.60
  -8   1  -6  106.69   12.30
   8  -1   6  122.29   30.20
   9   0  -6  122.59   14.60
   8   0  -6    8.40    5.90
  -8   0   6    6.10   27.80
   7   0  -6  145.19   13.80
  -7   0   6  123.99   43.20
   6   0  -6   25.50    6.00
  -6   0   6   54.09   31.60
   5   0  -6   30.10    5.60
   5   0  -6   33.80    9.00
  -5   0   6   28.10   26.30
   4   0  -6   39.40    5.70
  -4   0   6   45.00   27.80
   3   0  -6  129.59    9.20
  -3   0   6   75.79   31.30
   2   0  -6    2.00    2.20
  -2   0   6   -6.30   13.70
   1   0  -6  621.14   23.50
  -1   0   6  565.84   67.39
   0   0  -6  103.59    7.60
   0   0   6   94.99   10.10
   0   0   6   96.09   11.10
   0   0   6   67.99   23.40
  -1   0  -6 1749.82   60.59
   1   0   6 1752.92   67.99
   1   0   6 1768.52   96.89
  -2   0  -6    5.60    2.40
   2   0   6    4.10    5.60
   2   0   6    1.70    9.30
  -3   0  -6 1230.68   44.10
   3   0   6 1282.97   58.39
   3   0   6 1154.98   68.39
  -4   0  -6  582.44   23.20
   4   0   6  528.55   42.00
   4   0   6  553.24   37.80
  -5   0  -6  416.46   19.00
   5   0   6  402.96   36.00
   5   0   6  408.96   34.90
  -6   0  -6  177.98   13.60
   6   0   6  118.59   24.40
  -7   0  -6   45.00    7.60
   7   0   6   48.10   19.90
  -8   0  -6   11.30    5.90
   8   0   6   19.40   18.60
   8  -1  -6   -3.00    5.00
  -8   1   6  -19.80   23.00
   7  -1  -6   87.49   11.20
  -7   1   6   39.70   32.00
   6  -1  -6   92.69   10.50
  -6   1   6   49.10   33.10
   5  -1  -6  166.38   13.30
   5  -1  -6  211.28   17.60
  -5   1   6  156.98   48.00
   4  -1  -6 1083.59   40.20
   4  -1  -6 1104.19   40.90
  -4   1   6  969.40   91.49
   3  -1  -6    8.00    2.90
  -3   1   6   16.50   22.00
   2  -1  -6 1918.11   64.89
  -2   1   6 1767.72  115.29
   1  -1  -6  242.88   12.60
   1  -1  -6  233.48   11.30
  -1   1   6  294.47   49.50
  -1   1   6  223.18   15.40
   0  -1  -6  830.82   35.60
   0  -1  -6  913.21   32.10
   0   1   6  799.12   65.09
   0   1   6  874.61   39.10
  -1  -1  -6  879.71   39.00
  -1  -1  -6  876.41   32.40
   1   1   6  869.31   63.39
  -2  -1  -6  386.56   16.20
  -2  -1  -6  373.46   23.70
   2   1   6  342.67   42.80
  -3  -1  -6  233.88   11.60
   3   1   6  207.78   33.60
  -4  -1  -6    2.10    2.50
   4   1   6   -0.10    7.50
   4   1   6    3.30   11.20
  -5  -1  -6   -1.90    2.50
   5   1   6    8.50   10.50
   5   1   6    0.50   11.40
  -6  -1  -6   65.99    8.10
   6   1   6   54.99   17.90
  -7  -1  -6    6.00    4.60
   7   1   6    7.70   13.50
  -8  -1  -6  131.79   13.60
   8   1   6  124.59   30.20
   8  -2  -6   27.40    8.30
  -8   2   6   83.19   45.80
   7  -2  -6  389.66   21.50
  -7   2   6  204.88   58.99
   6  -2  -6  162.58   14.30
  -6   2   6  100.69   45.00
   5  -2  -6  181.68   14.40
   5  -2  -6  208.28   27.50
  -5   2   6  157.68   47.70
   4  -2  -6   65.89    7.80
   4  -2  -6   61.59   11.00
  -4   2   6   79.29   34.50
   3  -2  -6   44.00    5.90
   3  -2  -6   62.59    9.10
  -3   2   6   72.29   31.90
  -3   2   6   62.19    8.90
   2  -2  -6   26.00    4.20
   2  -2  -6   25.00    6.40
  -2   2   6   28.60    8.40
  -2   2   6   -1.00   15.40
   1  -2  -6  212.98   14.80
   1  -2  -6  217.38   11.00
  -1   2   6  196.88   40.20
  -1   2   6  232.48   22.90
   0  -2  -6  211.58   16.10
   0  -2  -6  223.88   11.10
   0   2   6  238.68   40.50
  -1  -2  -6  805.82   39.40
  -1  -2  -6  829.32   30.70
   1   2   6  827.82   63.69
  -2  -2  -6  100.39    7.70
  -2  -2  -6  107.39   15.80
   2   2   6   54.09   20.60
  -3  -2  -6 1166.38   57.29
  -3  -2  -6 1280.97   44.00
   3   2   6 1196.28   76.49
  -4  -2  -6   12.10    3.30
  -4  -2  -6   14.00    8.90
   4   2   6    7.80   14.00
  -5  -2  -6  346.37   16.80
   5   2   6  383.96   33.40
   5   2   6  386.56   49.30
  -6  -2  -6  138.99   11.70
   6   2   6  148.99   26.70
  -7  -2  -6   29.10    6.90
   7   2   6   10.30   13.90
   8  -3  -6    6.90    7.30
   7  -3  -6   33.40    8.20
  -7   3   6   41.50   42.00
   6  -3  -6   42.00    7.90
  -6   3   6   51.59   35.70
   5  -3  -6  219.68   16.10
  -5   3   6  158.08   52.99
   4  -3  -6  439.66   21.40
   4  -3  -6  535.05   30.20
  -4   3   6  439.36   74.89
   3  -3  -6   33.70    9.40
   3  -3  -6   11.20    3.90
  -3   3   6   -2.80   16.90
   2  -3  -6  363.26   16.50
   2  -3  -6  382.96   23.50
  -2   3   6  359.26   62.89
   1  -3  -6  782.92   30.00
   1  -3  -6  827.82   39.20
  -1   3   6  723.13   68.29
   0  -3  -6  237.18   19.10
   0  -3  -6  227.88   11.50
   0   3   6  189.88   39.20
  -1  -3  -6  259.57   21.30
  -1  -3  -6  223.18   11.50
   1   3   6  208.48   38.90
  -2  -3  -6    6.70    2.60
  -2  -3  -6   -0.30    5.60
   2   3   6   -1.30   12.40
  -3  -3  -6    5.50    7.40
  -3  -3  -6    6.50    3.00
   3   3   6    6.40   15.00
  -4  -3  -6    5.10    2.70
  -4  -3  -6    0.80    7.10
   4   3   6    9.90   16.20
  -5  -3  -6   75.19    7.40
  -5  -3  -6   81.89   19.50
   5   3   6  107.29   31.50
   6   3   6   40.00   24.00
   6   3   6   61.99   19.30
   7   3   6   37.10   18.50
   7  -4  -6  132.39   14.70
  -7   4   6  137.19   60.19
   6  -4  -6  162.58   15.00
  -6   4   6   99.69   49.90
   5  -4  -6   36.20    7.10
  -5   4   6  -11.50   19.10
   4  -4  -6  265.97   14.90
   4  -4  -6  258.67   27.70
  -4   4   6  233.68   58.69
   3  -4  -6   -2.80    2.40
   3  -4  -6    9.50    8.00
  -3   4   6   -6.70   17.10
   2  -4  -6   61.59   13.50
   2  -4  -6   57.19    6.40
  -2   4   6   23.30   21.50
   1  -4  -6    8.70    3.20
   1  -4  -6   -3.00    5.70
  -1   4   6    4.90   14.30
   0  -4  -6  206.68   11.20
   0  -4  -6  234.08   27.10
   0   4   6  194.98   40.20
  -1  -4  -6  653.63   25.30
  -1  -4  -6  645.64   39.30
   1   4   6  680.63   78.69
  -2  -4  -6   20.60   10.40
  -2  -4  -6    5.80    2.60
   2   4   6   18.20   17.90
  -3  -4  -6  755.52   45.50
  -3  -4  -6  692.13   26.30
   3   4   6  637.94   62.09
  -4  -4  -6  207.08   28.90
   4   4   6  163.58   39.00
  -5  -4  -6  180.28   28.70
   5   4   6  162.78   40.20
  -6  -4  -6  156.78   29.30
   6   4   6  164.98   41.50
   7  -5  -6   41.60    9.00
  -7   5   6   20.00   52.19
   6  -5  -6   42.40    8.30
  -6   5   6   84.69   47.00
   5  -5  -6  106.09   11.30
  -5   5   6   54.99   37.70
   4  -5  -6  426.16   20.80
  -4   5   6  367.16   72.99
   3  -5  -6  -11.00    7.90
   3  -5  -6   -2.80    2.90
  -3   5   6    5.10   23.00
   2  -5  -6  809.92   31.10
   2  -5  -6  843.62   46.80
  -2   5   6  560.44   82.79
   1  -5  -6   17.50    4.10
   1  -5  -6   12.50   10.30
  -1   5   6    7.40   16.10
   0  -5  -6  217.08   27.80
   0  -5  -6  208.48   11.10
   0   5   6  107.09   33.80
  -1  -5  -6  305.47   32.90
  -1  -5  -6  236.28   14.20
   1   5   6  257.37   50.59
  -2  -5  -6   10.70   11.10
   2   5   6   20.40   20.20
  -3  -5  -6   64.29   18.40
   3   5   6   61.79   28.50
  -4  -5  -6    9.90   11.80
   4   5   6   22.40   23.00
  -5  -5  -6    7.00   12.10
   5   5   6   13.90   23.20
  -6  -5  -6   54.09   20.20
   6   5   6  100.09   39.60
   6  -6  -6   70.19   10.60
  -6   6   6  119.29   50.59
   5  -6  -6   -0.30    4.80
  -5   6   6   -7.20   29.50
   4  -6  -6   32.70    6.60
  -4   6   6  -12.90   27.00
   3  -6  -6   16.10    5.00
   3  -6  -6   20.90   18.20
  -3   6   6   21.50   30.00
   2  -6  -6    7.20    4.20
   2  -6  -6   -1.10    9.90
  -2   6   6    2.90   17.90
   1  -6  -6   40.40   15.10
  -1   6   6   12.90   20.90
   0  -6  -6   12.10   12.40
   0   6   6    2.00   19.40
  -1  -6  -6  233.38   31.90
   1   6   6  239.58   52.39
  -2  -6  -6   35.30   15.70
   2   6   6   14.50   20.80
  -3  -6  -6  252.67   36.30
   3   6   6  235.08   53.69
  -4  -6  -6  122.69   26.50
   4   6   6  158.48   47.40
  -5  -6  -6   79.69   24.10
   5   6   6   82.79   40.50
  -4   7   6  172.38   59.09
  -3   7   6   10.70   27.20
   2  -7  -6  184.68   31.50
  -2   7   6   83.09   38.60
   1  -7  -6  223.98   31.70
  -1   7   6  106.39   40.90
   0  -7  -6   69.99   20.80
   0   7   6   34.30   28.50
  -1  -7  -6  164.78   29.60
   1   7   6  181.18   48.90
   2   7   6   -4.90   20.50
  -3  -7  -6   38.40   18.80
   3   7   6   52.99   32.40
  -2   8   6   44.60   37.40
   1  -8  -6  -13.40   12.50
  -1   8   6   20.30   32.50
   0  -8  -6   23.70   17.10
   0   8   6   31.80   34.60
  -1  -8  -6   31.50   17.00
   1   8   6  -15.10   23.60
   3  10  -7   -8.90   14.00
  -3 -10   7    3.50   14.80
   2  10  -7   33.30   21.40
  -2 -10   7   13.10   17.90
   1  10  -7   33.60   20.90
  -1 -10   7   27.80   20.50
   0  10  -7   81.89   27.30
   0 -10   7   82.19   29.20
  -1  10  -7   23.70   19.30
   1 -10   7   36.70   22.90
   2 -10   7  274.77   51.59
   3 -10   7   -6.90   19.40
   5   9  -7  125.79   40.00
  -5  -9   7   53.39   21.90
   4   9  -7    6.10   18.70
  -4  -9   7   -3.20   11.50
   3   9  -7  141.69   35.30
  -3  -9   7  175.28   35.60
   2   9  -7   51.19   22.60
  -2  -9   7   16.40   17.20
   1   9  -7  144.99   31.80
  -1  -9   7  144.29   33.70
   0   9  -7   68.09   21.90
   0  -9   7   49.40   23.00
  -1   9  -7   15.30   14.40
   1  -9   7   14.00   20.70
  -2   9  -7   -5.00    3.80
   2  -9   7   -4.00   17.10
  -3   9  -7   23.20    6.40
   3  -9   7   12.50   21.90
  -4   9  -7   11.20    6.20
   4  -9   7   10.10   22.70
  -5   9  -7   31.60    8.40
   5  -9   7   42.50   31.70
   6   8  -7   -0.50   16.20
  -6  -8   7   16.10   15.30
   5   8  -7   17.70   20.30
  -5  -8   7   13.50   15.30
   4   8  -7    1.30   12.10
  -4  -8   7    7.20   12.80
   3   8  -7   47.50   21.70
  -3  -8   7   61.59   20.90
   2   8  -7    5.10   12.40
  -2  -8   7   13.90   13.70
   1   8  -7  132.99   30.20
   1   8  -7   74.79    8.80
  -1  -8   7   92.09   25.90
   0   8  -7  318.57   14.40
   0   8  -7  320.97   43.20
   0  -8   7  276.37   42.10
  -1   8  -7   83.59   22.00
  -1   8  -7   80.99    7.70
   1  -8   7   78.19   24.10
  -2   8  -7  386.26   18.20
  -2   8  -7  383.06   36.30
   2  -8   7  379.16   53.09
  -3   8  -7   -5.40    3.50
   3  -8   7   -9.00   14.40
  -4   8  -7  129.09   12.50
   4  -8   7  155.78   36.30
  -5   8  -7   29.80    7.30
   5  -8   7   50.89   28.40
  -6   8  -7   36.30    9.30
   6  -8   7   13.20   21.00
   7   7  -7   -5.20   16.40
   6   7  -7   36.30   22.60
  -6  -7   7   36.10   17.40
   5   7  -7  110.89   31.80
  -5  -7   7   68.99   20.10
   4   7  -7   21.70   19.10
  -4  -7   7   -2.10    9.80
   3   7  -7  441.66   17.80
   3   7  -7  396.96   54.09
  -3  -7   7  439.76   48.10
   2   7  -7   17.10    3.30
   2   7  -7   29.30   17.50
  -2  -7   7   11.80   12.40
   1   7  -7  222.38   35.60
   1   7  -7  242.28   11.30
  -1  -7   7  190.38   32.50
   0   7  -7  134.39    9.40
   0   7  -7  131.99   26.60
   0  -7   7   80.29   23.40
  -1   7  -7   73.89    7.10
  -1   7  -7  118.99   23.70
   1  -7   7  107.29   26.80
  -2   7  -7    3.20    8.40
  -2   7  -7   12.50    3.90
   2  -7   7    7.50   14.40
  -3   7  -7  101.29    9.70
   3  -7   7   93.99   27.90
  -4   7  -7   42.00    7.20
   4  -7   7   52.09   23.80
  -5   7  -7  189.28   16.10
   5  -7   7  143.19   37.60
  -6   7  -7   14.40    6.70
   6  -7   7   -4.80   20.30
   7   6  -7   31.00   22.90
   6   6  -7   37.30   22.00
  -6  -6   7   33.20   14.10
   5   6  -7    4.50   13.60
   5   6  -7    3.60    3.30
  -5  -6   7   -2.60    8.00
   4   6  -7   14.30   13.00
   4   6  -7    6.40    3.00
  -4  -6   7   -1.70    7.90
   3   6  -7   93.99   25.90
   3   6  -7   38.20    5.20
  -3  -6   7   36.30   14.40
   2   6  -7   95.69    7.50
   2   6  -7   93.59   24.30
  -2  -6   7   97.99   22.40
   1   6  -7  217.38   11.00
   1   6  -7  278.17   40.60
  -1  -6   7  282.97   37.20
   0   6  -7  193.48   10.20
   0   6  -7  264.17   36.10
   0  -6   7  178.48   30.60
  -1   6  -7  103.99   21.50
  -1   6  -7  111.29    8.70
   1  -6   7   71.79   20.90
  -2   6  -7  903.91   34.60
  -2   6  -7  899.61   49.90
   2  -6   7  953.70   63.69
  -3   6  -7   25.20    5.10
   3  -6   7   32.70   18.10
  -4   6  -7  689.23   29.60
   4  -6   7  723.93   59.29
  -5   6  -7  106.39   11.50
   5  -6   7   88.69   28.30
  -6   6  -7   74.09   10.80
   6  -6   7   46.00   26.50
  -7   6  -7   34.80    9.00
   7  -6   7   -6.10   18.70
   8   5  -7   26.00   25.30
   7   5  -7    0.90   16.10
   7   5  -7    3.40    4.50
   6   5  -7   62.49    7.80
  -6  -5   7   71.89   16.20
   5   5  -7  452.55   19.80
  -5  -5   7  417.36   31.70
  -5  -5   7  460.25   67.59
   4   5  -7   61.09    6.70
  -4  -5   7   87.79   17.40
  -4  -5   7   47.10   23.90
   3   5  -7  623.34   24.30
  -3  -5   7  631.84   60.79
  -3  -5   7  574.54   38.30
   2   5  -7   75.19    6.90
  -2  -5   7   99.89   28.80
  -2  -5   7   79.89   18.20
   1   5  -7  223.98   11.40
  -1  -5   7  356.66   47.80
  -1  -5   7  243.58   31.60
   0   5  -7  271.07   12.70
   0  -5   7  277.37   38.60
   0  -5   7  286.77   35.90
  -1   5  -7   16.70   10.00
  -1   5  -7   24.90    4.20
   1  -5   7   24.30   13.10
  -2   5  -7  217.58   20.80
  -2   5  -7  190.68   11.00
   2  -5   7  200.58   31.50
  -3   5  -7    1.20    2.70
  -3   5  -7    6.50    5.50
   3  -5   7   -0.50   10.80
  -4   5  -7    7.10    3.60
   4  -5   7    2.50   13.90
  -5   5  -7   36.70    6.80
   5  -5   7   27.50   17.10
  -6   5  -7    6.40    5.30
   6  -5   7   17.00   17.60
  -7   5  -7  179.68   16.60
   7  -5   7  107.89   33.40
   8   4  -7   73.59    9.50
   7   4  -7  150.68   12.40
  -7  -4   7  119.09   41.00
   6   4  -7    6.70    3.40
  -6  -4   7    6.70   18.60
  -6  -4   7    0.70    7.10
   5   4  -7  306.97   15.70
  -5  -4   7  405.96   64.89
  -5  -4   7  339.57   23.90
   4   4  -7    8.40    3.30
  -4  -4   7   18.20   18.70
  -4  -4   7    9.50    6.70
   3   4  -7   20.00    4.10
  -3  -4   7   21.10    9.10
  -3  -4   7   31.40   19.50
   2   4  -7  136.39    9.90
  -2  -4   7  191.78   39.20
  -2  -4   7  167.98   21.50
   1   4  -7    4.20    2.50
  -1  -4   7    2.30    7.60
  -1  -4   7   -2.80    9.80
   0   4  -7 1250.57   44.50
   0  -4   7 1277.87   62.89
   0  -4   7 1211.58   75.39
  -1   4  -7   22.20    4.10
   1  -4   7   25.20   12.10
   1  -4   7   15.50   11.50
  -2   4  -7 1949.90   67.89
   2  -4   7 1988.00   85.49
   2  -4   7 1897.61   90.89
  -3   4  -7  458.05   22.20
  -3   4  -7  630.44   27.80
   3  -4   7  487.35   40.80
  -4   4  -7  651.43   27.40
   4  -4   7  662.93   49.90
  -5   4  -7  552.84   25.00
   5  -4   7  529.35   54.99
  -6   4  -7   32.20    7.10
   6  -4   7   45.20   20.60
  -7   4  -7  199.08   17.30
   7  -4   7  207.68   40.00
  -8   4  -7    3.80    6.70
   8  -4   7   31.10   22.50
   8   3  -7    7.30    5.50
  -8  -3   7   -8.90   21.20
   7   3  -7   36.40    6.70
  -7  -3   7   65.29   32.60
   6   3  -7  231.88   13.90
  -6  -3   7  283.27   57.99
   5   3  -7  264.17   14.10
  -5  -3   7  284.07   55.09
  -5  -3   7  276.97   18.80
   4   3  -7    4.70    2.80
  -4  -3   7    3.50    4.60
  -4  -3   7    6.20   17.70
   3   3  -7 1352.86   58.79
   3   3  -7 1482.75   51.49
  -3  -3   7 1459.65   57.29
  -3  -3   7 1539.45  102.99
   2   3  -7  753.22   36.50
   2   3  -7  833.72   30.30
  -2  -3   7  790.72   37.60
  -2  -3   7  827.82   70.39
   1   3  -7  696.73   26.90
   1   3  -7  709.63   36.40
  -1  -3   7  741.53   63.29
  -1  -3   7  678.13   37.00
   0   3  -7  663.03   25.20
   0  -3   7  650.83   37.60
   0  -3   7  581.94   53.49
  -1   3  -7   -2.80    1.70
   1  -3   7    5.50    7.80
   1  -3   7   -3.50    8.80
  -2   3  -7   96.09    8.30
  -2   3  -7  132.49   25.10
   2  -3   7  104.29   21.80
   2  -3   7   95.09   19.10
  -3   3  -7    5.20    3.00
  -3   3  -7   15.90    7.80
   3  -3   7   23.10   12.30
   3  -3   7    5.60    7.10
  -4   3  -7   -3.70    2.70
   4  -3   7   -8.60    7.70
  -5   3  -7  159.08   12.40
   5  -3   7  122.99   25.80
  -6   3  -7   19.30    5.80
   6  -3   7   29.30   18.60
  -7   3  -7  192.38   16.80
   7  -3   7  168.58   34.90
  -8   3  -7   14.60    7.10
   8  -3   7   18.80   20.20
   8   2  -7   41.30    8.20
  -8  -2   7   47.80   31.00
   7   2  -7  185.18   14.90
  -7  -2   7  128.59   41.80
  -6  -2   7   59.59   30.30
   5   2  -7  154.98   11.80
   5   2  -7  169.18   16.20
  -5  -2   7  129.09   41.20
   4   2  -7   65.79    7.10
   4   2  -7   70.99   10.60
   4   2  -7   71.59    8.60
  -4  -2   7   59.89   30.90
   3   2  -7   81.79    7.40
  -3  -2   7   59.99   27.40
   2   2  -7   38.10    5.00
   2   2  -7   55.29    6.50
  -2  -2   7   57.79    6.80
  -2  -2   7   16.50   18.20
   1   2  -7  134.89   10.60
   1   2  -7  125.19    9.10
  -1  -2   7   98.79   30.40
  -1  -2   7  164.38   16.40
   0   2  -7  429.26   23.50
   0   2  -7  450.75   18.50
   0  -2   7  489.35   60.59
   0  -2   7  416.06   26.00
  -1   2  -7    3.00    2.40
   1  -2   7   18.00   16.30
   1  -2   7    0.80    6.30
  -2   2  -7 1228.78   44.90
   2  -2   7 1263.17   60.09
   2  -2   7 1247.08   75.39
  -3   2  -7  638.34   26.40
  -3   2  -7  669.23   35.40
   3  -2   7  672.43   47.60
   3  -2   7  653.03   42.10
  -4   2  -7  248.98   13.20
   4  -2   7  196.28   28.10
  -5   2  -7  717.43   29.90
   5  -2   7  709.33   51.19
  -6   2  -7   30.50    6.30
   6  -2   7   52.49   20.10
  -7   2  -7  124.69   13.20
   7  -2   7   99.49   28.00
  -8   2  -7   -1.60    5.50
   8  -2   7   -8.00   15.90
   8   1  -7   10.20    5.80
  -8  -1   7    2.00   24.70
   7   1  -7   24.60    6.00
  -7  -1   7   51.69   31.50
   6   1  -7    8.90    4.30
  -6  -1   7    1.20   22.60
   5   1  -7  794.42   33.00
  -5  -1   7  956.20   89.79
   4   1  -7  198.58   11.60
  -4  -1   7  206.08   49.10
   3   1  -7 1184.88   43.50
  -3  -1   7 1241.08   98.09
   2   1  -7 1096.49   39.00
  -2  -1   7  949.60   83.49
   1   1  -7  483.35   19.80
  -1  -1   7  447.16   62.59
   0   1  -7 1419.86   52.19
   0  -1   7 1503.35   58.89
   0  -1   7 1517.45   96.39
   0  -1   7 1519.15   56.09
  -1   1  -7  193.38   10.40
   1  -1   7  198.98   17.20
   1  -1   7  191.88   36.60
  -2   1  -7  362.06   16.80
   2  -1   7  361.06   46.70
   2  -1   7  430.06   28.10
  -3   1  -7   12.40    3.80
   3  -1   7   10.90   13.50
   3  -1   7   26.50   11.60
  -4   1  -7   90.49    8.70
   4  -1   7   78.69   21.30
   4  -1   7   61.39   17.00
  -5   1  -7   40.30    6.40
   5  -1   7   46.40   17.30
  -6   1  -7    3.30    3.50
   6  -1   7   -2.30   11.40
  -7   1  -7  169.18   15.10
   7  -1   7  232.28   38.50
  -8   1  -7   27.00    7.40
   8  -1   7    0.20   16.50
   8   0  -7   84.89   11.30
  -8   0   7   45.50   35.40
   7   0  -7  100.19   11.50
  -7   0   7  102.99   44.10
   6   0  -7   31.90    6.40
  -6   0   7   26.00   29.50
   5   0  -7    9.90    4.30
  -5   0   7   21.90   27.90
   4   0  -7   19.80    4.60
  -4   0   7   16.40   23.50
   3   0  -7   28.00    4.50
  -3   0   7   37.60   26.40
   2   0  -7   18.40    3.60
  -2   0   7   14.10   19.30
   1   0  -7   84.89    7.40
  -1   0   7   92.19   31.30
   0   0  -7 1082.59   39.00
   0   0   7 1085.49   44.30
   0   0   7 1040.00   43.50
   0   0   7 1012.90   78.49
  -1   0  -7   34.10    4.90
   1   0   7   32.10    8.40
   1   0   7   31.70   19.10
  -2   0  -7 1092.89   39.20
   2   0   7 1077.89   50.59
   2   0   7  975.80   70.59
  -3   0  -7  237.68   12.20
   3   0   7  241.08   26.40
   3   0   7  168.98   31.30
  -4   0  -7  481.15   21.90
   4   0   7  545.25   38.00
   4   0   7  569.34   47.70
  -5   0  -7  256.17   14.50
   5   0   7  326.07   37.20
  -6   0  -7   19.10    5.10
   6   0   7   -6.90    9.90
  -7   0  -7  203.48   16.70
   7   0   7  244.88   37.70
  -8   0  -7    7.30    5.90
   8   0   7    0.40   16.90
   8  -1  -7    2.70    6.10
  -8   1   7  -25.60   25.40
   7  -1  -7   15.10    5.80
  -7   1   7   45.60   37.50
   6  -1  -7   34.60    7.10
  -6   1   7   45.10   33.60
   5  -1  -7  434.86   20.80
  -5   1   7  367.96   72.99
   4  -1  -7   25.00    5.30
  -4   1   7   26.90   30.50
   3  -1  -7  629.04   25.70
  -3   1   7  621.74   87.09
   2  -1  -7  484.05   20.20
  -2   1   7  434.16   69.59
   1  -1  -7  377.06   15.90
  -1   1   7  361.76   59.89
  -1   1   7  311.07   20.20
   0  -1  -7  900.91   37.80
   0  -1  -7  928.71   33.90
   0   1   7  819.02   71.59
  -1  -1  -7  113.89    9.00
   1   1   7  119.29   31.00
  -2  -1  -7  453.25   19.20
   2   1   7  419.16   53.99
  -3  -1  -7    4.10    2.70
   3   1   7    0.00    7.00
   3   1   7   19.70   15.30
  -4  -1  -7  178.08   10.70
   4   1   7  208.98   36.50
   4   1   7  153.98   23.00
  -5  -1  -7  106.09    9.60
   5   1   7  104.99   21.50
   5   1   7  129.19   30.70
  -6  -1  -7   29.80    6.10
   6   1   7   20.80   15.50
  -7  -1  -7   60.79    8.70
   7   1   7   72.79   22.60
   8  -2  -7   19.80    7.70
  -8   2   7   10.00   35.00
   7  -2  -7  128.29   13.60
  -7   2   7  123.59   53.29
   6  -2  -7   18.60    5.70
  -6   2   7   29.50   35.90
   5  -2  -7  431.76   21.10
  -5   2   7  379.16   77.79
   4  -2  -7    4.80    3.80
  -4   2   7   26.30   26.90
   3  -2  -7   92.89    9.20
   3  -2  -7   57.79    7.00
  -3   2   7   37.30   28.00
   2  -2  -7    5.80    3.10
   2  -2  -7    7.90    4.40
  -2   2   7   -8.70   15.00
   1  -2  -7  154.08    9.30
   1  -2  -7  149.29   12.50
  -1   2   7  132.99   38.70
  -1   2   7  182.08   21.90
   0  -2  -7  135.59   15.50
   0  -2  -7  128.69    9.80
   0   2   7  103.29   32.40
  -1  -2  -7   17.30    7.40
  -1  -2  -7   15.20    4.10
   1   2   7   -2.30   12.70
  -2  -2  -7  393.36   17.50
  -2  -2  -7  410.96   27.10
   2   2   7  381.56   52.09
  -3  -2  -7  168.48    9.80
  -3  -2  -7  169.48   22.30
   3   2   7  160.48   35.00
  -4  -2  -7   99.59    8.60
   4   2   7  152.18   36.10
  -5  -2  -7  282.87   14.80
   5   2   7  308.47   47.90
   5   2   7  284.97   34.80
  -6  -2  -7   -1.40    3.10
   6   2   7   12.80   14.00
   7   2   7  112.89   28.80
   7  -3  -7   11.20    6.40
  -7   3   7   24.30   41.30
   6  -3  -7   -0.50    4.20
  -6   3   7   -2.60   26.20
   5  -3  -7  150.88   13.30
  -5   3   7  191.68   60.29
   4  -3  -7  108.49   10.30
  -4   3   7   79.89   38.10
   3  -3  -7  473.15   25.60
   3  -3  -7  428.86   20.00
  -3   3   7  327.37   66.69
   2  -3  -7  544.25   28.90
   2  -3  -7  554.44   22.80
  -2   3   7  407.16   68.69
   1  -3  -7  301.07   20.90
   1  -3  -7  305.87   14.60
  -1   3   7  244.08   51.29
   0  -3  -7 1420.76   50.69
   0  -3  -7 1403.76   61.19
   0   3   7 1398.36  100.39
  -1  -3  -7   84.59    8.00
  -1  -3  -7  121.69   17.90
   1   3   7   77.99   29.10
  -2  -3  -7 1006.60   37.40
  -2  -3  -7 1049.70   52.09
   2   3   7  961.40   78.39
  -3  -3  -7  173.18   24.30
  -3  -3  -7  166.48    9.80
   3   3   7  112.69   33.30
  -4  -3  -7   50.79    6.00
  -4  -3  -7   65.89   17.10
   4   3   7   77.19   28.70
   5   3   7    9.60   22.00
   6   3   7   -0.60   12.60
   7   3   7    6.10   15.10
   7  -4  -7   91.19   12.20
  -7   4   7   66.49   49.80
   6  -4  -7   -5.00    3.90
  -6   4   7   18.40   36.50
   5  -4  -7  174.68   14.40
  -5   4   7  151.18   57.39
   4  -4  -7   63.29    8.40
  -4   4   7   36.40   31.70
   3  -4  -7   41.70    6.30
  -3   4   7   31.40   24.90
   2  -4  -7   22.30    4.70
   2  -4  -7   21.60    9.10
  -2   4   7   22.10   21.80
   1  -4  -7   40.50   11.60
   1  -4  -7   53.29    6.60
  -1   4   7   18.20   20.50
   0  -4  -7  102.89   18.00
   0  -4  -7  101.79    9.00
   0   4   7   98.79   34.20
  -1  -4  -7   33.30    5.10
  -1  -4  -7   38.00   12.80
   1   4   7   56.59   27.80
  -2  -4  -7  120.89    9.10
  -2  -4  -7  144.09   22.40
   2   4   7  135.19   39.60
  -3  -4  -7  206.98   28.60
   3   4   7  237.68   49.50
  -4  -4  -7  105.49   21.60
   4   4   7   84.69   32.50
  -5  -4  -7  501.45   41.10
   5   4   7  505.25   71.49
   6  -5  -7   -2.20    5.20
  -6   5   7  -21.50   28.00
   5  -5  -7  103.99   11.50
  -5   5   7  106.69   49.99
   4  -5  -7  107.79   11.00
  -4   5   7   41.70   33.90
   3  -5  -7  136.99   11.60
  -3   5   7  109.39   44.10
   2  -5  -7  386.06   18.70
   2  -5  -7  409.46   30.60
  -2   5   7  350.96   70.39
   1  -5  -7   15.40    4.60
   1  -5  -7   17.40   10.90
  -1   5   7   -8.80   20.70
   0  -5  -7  434.46   32.10
   0  -5  -7  367.76   17.50
   0   5   7  243.38   56.09
  -1  -5  -7   27.90   13.00
   1   5   7   63.69   30.10
  -2  -5  -7   22.70   12.90
   2   5   7    4.20   18.50
  -3  -5  -7   18.10   12.60
   3   5   7   46.40   28.00
  -4  -5  -7   -8.30    8.90
   4   5   7   -5.10   20.30
  -5  -5  -7    7.20   13.90
   5   5   7    4.80   23.50
   5  -6  -7   76.79   10.30
  -5   6   7   54.69   44.50
   4  -6  -7  109.79   11.10
  -4   6   7   91.49   46.90
   3  -6  -7    9.30    5.00
  -3   6   7   17.70   30.30
  -2   6   7   -9.30   24.70
   1  -6  -7   21.00   12.80
  -1   6   7   -0.70   21.10
   0  -6  -7   80.29   20.10
   0   6   7   28.60   26.70
  -1  -6  -7   46.50   16.40
   1   6   7   45.10   30.30
  -2  -6  -7   70.29   20.00
   2   6   7   74.99   35.30
  -3  -6  -7  144.69   27.30
   3   6   7  167.98   49.20
  -4  -6  -7   17.10   14.90
   4   6   7   42.60   32.50
  -3   7   7   20.10   35.30
  -1   7   7  -18.50   23.30
   0  -7  -7  291.17   37.00
   0   7   7  167.98   54.69
  -1  -7  -7   32.50   16.50
   1   7   7   26.30   29.10
  -2  -7  -7   39.80   18.80
   2   7   7   18.00   31.40
   3  10  -8  -12.80   14.40
  -3 -10   8   -8.40   14.20
   2  10  -8   -0.90   16.20
  -2 -10   8   33.80   21.50
   1  10  -8   32.30   20.40
  -1 -10   8   21.70   20.90
   0  10  -8   -0.20   14.20
   0 -10   8  -13.30   17.10
   1 -10   8  222.58   43.80
   2 -10   8   32.70   26.20
   3 -10   8   16.90   23.90
   5   9  -8   10.70   19.60
   4   9  -8  177.48   42.50
  -4  -9   8  127.39   30.70
   3   9  -8   66.69   28.00
  -3  -9   8   49.20   20.80
   2   9  -8  183.58   40.40
  -2  -9   8  137.99   32.50
   1   9  -8  105.39   27.80
  -1  -9   8  188.68   37.70
   0   9  -8   -0.20   11.50
   0  -9   8  -27.90   11.20
  -1   9  -8  123.39   28.50
   1  -9   8  150.78   35.90
  -2   9  -8   18.20    5.10
   2  -9   8   17.00   19.90
  -3   9  -8    0.30    4.80
   3  -9   8   15.50   21.50
  -4   9  -8   31.30    7.50
   4  -9   8   68.89   31.60
   6   8  -8   84.89   34.90
   5   8  -8    1.60   15.90
  -5  -8   8   11.20   14.00
   4   8  -8    8.80   16.00
  -4  -8   8    4.20   13.90
   3   8  -8   -2.10   13.30
  -3  -8   8    2.70   12.20
   2   8  -8    3.40   15.50
  -2  -8   8   31.00   17.70
   1   8  -8  140.79   32.70
   1   8  -8  121.89    8.90
  -1  -8   8  101.69   27.80
   0   8  -8   14.20    3.90
   0   8  -8   18.10   15.30
   0  -8   8   31.60   19.40
  -1   8  -8  191.98   11.40
  -1   8  -8  251.37   36.30
   1  -8   8  158.58   35.80
  -2   8  -8  175.98   12.80
   2  -8   8  141.59   33.20
  -3   8  -8  186.08   14.30
   3  -8   8  220.18   42.90
  -4   8  -8  251.37   18.10
   4  -8   8  159.48   38.40
  -5   8  -8   -2.70    4.60
   5  -8   8   36.80   27.90
   6   7  -8   22.40   23.10
   5   7  -8    6.20   16.80
  -5  -7   8   26.40   14.60
   4   7  -8  103.19   30.50
  -4  -7   8   82.69   20.70
   3   7  -8  193.48   40.00
   3   7  -8  249.28   12.40
  -3  -7   8  236.08   35.70
   2   7  -8    1.00    2.60
   2   7  -8   -2.30   12.70
  -2  -7   8   -5.70    9.70
   1   7  -8  406.66   51.39
   1   7  -8  394.66   17.00
  -1  -7   8  372.46   46.00
   0   7  -8    7.40   11.20
   0   7  -8    4.50    3.00
   0  -7   8    2.50   13.20
  -1   7  -8  123.19   24.60
  -1   7  -8  107.29    9.00
   1  -7   8   65.59   21.60
  -2   7  -8    8.40   10.10
  -2   7  -8   -1.00    3.10
   2  -7   8   -0.70   11.60
  -3   7  -8   36.20    6.60
   3  -7   8    8.00   16.20
  -4   7  -8   11.00    4.60
   4  -7   8   12.00   18.70
   5  -7   8   69.09   24.30
  -6   7  -8  109.99   13.10
   6  -7   8   69.29   29.40
   7   6  -8  -10.00   15.30
   6   6  -8   59.69   27.40
   5   6  -8   22.70   18.10
   5   6  -8   49.40    6.70
  -5  -6   8   28.40   12.70
   4   6  -8   71.49    7.80
  -4  -6   8   66.29   17.70
   3   6  -8    4.60    2.70
  -3  -6   8    1.70    8.80
   2   6  -8    3.70    2.70
  -2  -6   8   -0.20   11.80
   1   6  -8  159.38    9.50
  -1  -6   8  147.59   26.40
   0   6  -8   63.19    6.70
   0   6  -8   95.19   23.50
   0  -6   8   63.99   19.40
  -1   6  -8  705.13   47.80
  -1   6  -8  635.64   25.90
   1  -6   8  594.54   48.40
  -2   6  -8  273.37   14.30
  -2   6  -8  276.77   26.60
   2  -6   8  283.87   41.50
  -3   6  -8  170.18   12.60
   3  -6   8  155.68   31.20
  -4   6  -8  428.56   21.20
   4  -6   8  485.25   56.29
  -5   6  -8   60.49    9.50
   5  -6   8   35.10   20.70
  -6   6  -8  202.48   17.80
   6  -6   8  153.08   36.90
  -7   6  -8   -2.80    6.00
   7  -6   8   -2.00   21.70
   7   5  -8   -2.00    4.00
   6   5  -8   47.60    7.10
  -6  -5   8   85.69   35.50
   5   5  -8    0.40    3.00
  -5  -5   8   -6.90    6.80
  -5  -5   8    2.10   17.30
   4   5  -8  254.67   13.80
  -4  -5   8  266.27   51.19
  -4  -5   8  295.47   30.30
   3   5  -8  362.46   16.40
  -3  -5   8  333.47   28.00
  -3  -5   8  294.57   51.49
   2   5  -8  360.96   16.80
  -2  -5   8  386.46   31.60
  -2  -5   8  418.46   56.39
   1   5  -8  463.35   19.40
  -1  -5   8  524.65   60.79
  -1  -5   8  419.16   35.50
   0   5  -8   28.10    4.50
   0  -5   8   33.50   15.00
   0  -5   8   28.70   16.50
  -1   5  -8  417.56   18.30
   1  -5   8  422.16   38.80
   1  -5   8  401.36   44.70
  -2   5  -8   52.79    6.70
  -2   5  -8   38.30   12.80
   2  -5   8   35.40   16.40
  -3   5  -8  133.39   11.00
   3  -5   8  142.29   29.70
  -4   5  -8   -0.60    3.20
   4  -5   8    9.30   14.00
  -5   5  -8   45.10    7.80
   5  -5   8   65.19   23.60
  -6   5  -8   50.19    8.50
   6  -5   8   56.79   24.90
  -7   5  -8   94.69   12.50
   7  -5   8  105.79   34.90
   8   4  -8   32.40    7.00
  -8  -4   8   94.39   42.30
   7   4  -8   -3.00    3.50
  -7  -4   8  -12.20   18.60
   6   4  -8   53.29    7.50
  -6  -4   8   83.89   36.60
   5   4  -8    4.70    3.10
  -5  -4   8   11.30   21.10
   4   4  -8   59.59    7.00
  -4  -4   8   38.50   23.80
  -4  -4   8   45.40   10.50
   3   4  -8    6.10    3.10
  -3  -4   8   -3.30   15.50
  -3  -4   8    1.20    5.90
   2   4  -8   -0.80    2.50
  -2  -4   8   15.20   19.20
  -2  -4   8    5.00    7.70
   1   4  -8  297.57   14.30
  -1  -4   8  327.87   51.89
  -1  -4   8  275.67   30.20
   0   4  -8   32.10    4.90
   0  -4   8   10.80   14.90
   0  -4   8   32.50   12.40
  -1   4  -8 1093.49   40.80
   1  -4   8 1110.89   60.39
   1  -4   8 1134.19   70.59
  -2   4  -8  426.76   19.30
   2  -4   8  439.06   36.00
   2  -4   8  452.15   46.00
  -3   4  -8  625.14   26.80
   3  -4   8  685.53   49.10
  -4   4  -8  681.93   28.70
   4  -4   8  671.33   51.39
  -5   4  -8   41.80    7.10
   5  -4   8   14.00   15.30
  -6   4  -8  389.36   20.80
   6  -4   8  302.57   44.90
  -7   4  -8    6.40    6.20
   7  -4   8   10.60   19.10
   8   3  -8   -4.80    4.60
  -8  -3   8   18.10   26.70
   7   3  -8   -1.00    4.30
  -7  -3   8    9.20   25.10
   6   3  -8  184.78   14.00
  -6  -3   8  194.28   50.19
   5   3  -8  111.39   10.20
  -5  -3   8  134.99   42.40
   4   3  -8  427.36   19.00
  -4  -3   8  421.46   21.00
  -4  -3   8  313.17   59.69
   3   3  -8  437.36   19.70
   3   3  -8  492.15   25.50
  -3  -3   8  444.16   22.60
  -3  -3   8  513.65   73.09
   2   3  -8   80.79   11.30
   2   3  -8   89.59    8.30
  -2  -3   8   87.69   30.90
  -2  -3   8   97.09   13.30
   1   3  -8 1520.65   53.39
  -1  -3   8 1524.25  102.29
  -1  -3   8 1452.95   64.09
   0   3  -8   -3.00    2.00
   0  -3   8    9.40    8.20
   0  -3   8    4.70   14.90
  -1   3  -8 1482.55   54.19
   1  -3   8 1541.95   92.69
   1  -3   8 1567.54   71.39
  -2   3  -8   58.39    6.80
   2  -3   8   53.69   15.90
   2  -3   8   46.00   18.70
  -3   3  -8   33.90    5.60
   3  -3   8   38.20   14.80
   3  -3   8   22.90   12.60
  -4   3  -8    3.70    3.50
   4  -3   8   10.80   11.60
  -5   3  -8    4.80    4.50
   5  -3   8   30.40   15.90
  -6   3  -8   50.29    8.40
   6  -3   8   45.50   20.70
  -7   3  -8   49.90    9.60
   7  -3   8   68.79   25.30
   8   2  -8  105.79   11.90
  -8  -2   8  133.29   47.30
   7   2  -8   70.09    9.30
  -7  -2   8   54.09   32.80
   6   2  -8  238.88   14.80
  -6  -2   8  236.68   56.79
   5   2  -8    7.20    3.80
  -5  -2   8   -5.40   18.80
   4   2  -8   70.69    7.80
  -4  -2   8  111.79   38.80
   3   2  -8   15.70    3.90
  -3  -2   8    3.80   17.80
   2   2  -8    1.50    2.50
  -2  -2   8   -4.30   14.80
   1   2  -8  133.19   10.00
  -1  -2   8  137.19   15.20
  -1  -2   8  150.48   41.70
   0   2  -8  146.59    9.20
   0  -2   8  157.58   39.20
   0  -2   8  153.48   18.30
  -1   2  -8  107.79    8.70
   1  -2   8   88.99   30.00
   1  -2   8   86.59   15.60
  -2   2  -8  660.83   26.60
   2  -2   8  651.03   40.10
   2  -2   8  639.64   57.09
  -3   2  -8   15.50    4.40
   3  -2   8   53.99   16.10
   3  -2   8   40.50   20.00
  -4   2  -8  731.93   30.20
   4  -2   8  730.03   49.40
  -5   2  -8   23.10    5.60
   5  -2   8   45.40   18.00
  -6   2  -8  371.56   19.90
   6  -2   8  323.77   44.10
  -7   2  -8  108.79   12.60
   7  -2   8  131.99   31.70
  -8   2  -8   36.30    9.00
   8   1  -8   31.70    8.90
  -8  -1   8   -4.10   25.10
   7   1  -8    1.70    4.20
  -7  -1   8  -13.80   20.70
   6   1  -8   83.19    9.60
  -6  -1   8   69.59   37.00
   5   1  -8  145.69   12.20
  -5  -1   8  240.58   59.69
   4   1  -8  205.68   12.10
  -4  -1   8  177.88   49.80
   3   1  -8  877.41   33.40
  -3  -1   8  766.02   95.59
  -2  -1   8   69.49   33.60
   1   1  -8 1208.48   45.50
  -1  -1   8 1441.76  101.89
   0   1  -8  179.78   10.40
   0  -1   8  182.28   17.80
   0  -1   8  135.69   37.60
   0  -1   8  164.68   13.20
  -1   1  -8  251.97   13.40
   1  -1   8  293.77   49.90
   1  -1   8  300.57   22.50
  -2   1  -8  320.87   15.50
   2  -1   8  331.97   26.20
   2  -1   8  304.67   49.20
  -3   1  -8   81.49    8.30
   3  -1   8   79.09   17.20
   3  -1   8   52.29   22.50
  -4   1  -8   11.90    3.90
   4  -1   8   -5.80   15.20
   4  -1   8   -2.30    8.90
  -5   1  -8   85.09    9.10
   5  -1   8   89.69   21.40
  -6   1  -8   15.90    5.20
   6  -1   8   18.30   15.80
  -7   1  -8   60.79    9.20
   7  -1   8   67.19   24.50
   8   0  -8   71.59   11.00
  -8   0   8  104.69   45.50
   7   0  -8   12.60    5.60
  -7   0   8   23.40   32.30
   6   0  -8  214.28   16.00
  -6   0   8  196.08   58.39
   5   0  -8  125.59   11.70
  -5   0   8  139.99   48.80
   4   0  -8  111.79   10.10
  -4   0   8  110.89   43.40
   3   0  -8    1.00    2.50
  -3   0   8   -5.70   18.70
   2   0  -8   23.50    4.60
  -2   0   8    9.40   21.20
   1   0  -8   80.19    7.50
  -1   0   8   42.20   24.60
   0   0  -8  161.88   11.30
   0   0   8  147.79   41.10
   0   0   8  144.19   14.90
   0   0   8  143.69   15.60
  -1   0  -8  176.38   10.80
   1   0   8  201.78   20.40
   1   0   8  220.88   44.20
  -2   0  -8  591.64   24.50
   2   0   8  593.44   35.10
   2   0   8  544.65   64.99
  -3   0  -8   50.59    6.60
   3   0   8   42.50   21.80
   3   0   8   45.40   13.10
  -4   0  -8  601.94   25.30
   4   0   8  499.85   59.59
   4   0   8  590.84   41.50
  -5   0  -8   29.30    6.00
  -6   0  -8  148.79   12.80
   6   0   8  144.39   29.00
  -7   0  -8   37.80    7.60
   7   0   8   93.69   26.10
   8  -1  -8    9.00    6.10
  -8   1   8    2.10   31.60
   7  -1  -8   -0.70    4.40
  -7   1   8    9.30   31.00
   6  -1  -8   21.50    6.10
  -6   1   8   11.10   27.60
   5  -1  -8   12.70    5.00
  -5   1   8   10.90   28.00
   4  -1  -8   11.70    4.60
  -4   1   8   18.60   27.50
   3  -1  -8  173.38   12.40
  -3   1   8  137.49   43.40
   2  -1  -8   21.70    4.30
  -2   1   8    8.30   18.40
   1  -1  -8  199.68   11.60
  -1   1   8  176.98   44.50
  -1   1   8  212.98   17.60
  -1   1   8  208.38   13.00
   0  -1  -8  323.67   15.40
   0   1   8  249.08   49.00
   0   1   8  307.67   19.30
  -1  -1  -8  159.88   11.80
   1   1   8  163.48   39.50
   1   1   8  164.28   18.50
  -2  -1  -8  279.47   14.30
   2   1   8  266.77   47.10
   2   1   8  277.97   27.10
   3   1   8   30.40   20.60
   3   1   8   31.70   11.70
  -4  -1  -8   18.30    4.70
   4   1   8   37.50   14.20
   4   1   8   21.40   20.80
  -5  -1  -8   18.90    5.10
   5   1   8   43.60   16.30
  -6  -1  -8    5.30    4.50
   6   1   8   -6.90   12.40
  -7  -1  -8   27.80    7.20
   7   1   8   28.50   19.00
   7  -2  -8   -2.70    5.10
  -7   2   8   -3.10   31.50
   6  -2  -8  176.58   15.20
  -6   2   8  141.09   55.19
   5  -2  -8   51.49    7.70
  -5   2   8   -5.00   27.80
   4  -2  -8   51.39    7.50
  -4   2   8   71.39   40.20
   3  -2  -8   12.80    4.10
  -3   2   8    0.40   19.20
   2  -2  -8  564.14   24.90
   2  -2  -8  650.83   25.60
  -2   2   8  418.56   70.39
   1  -2  -8   73.59   10.20
   1  -2  -8   72.39    7.60
  -1   2   8   44.20   26.50
   0  -2  -8  658.73   31.80
   0  -2  -8  615.74   25.80
   0   2   8  507.65   74.69
  -1  -2  -8   24.50    4.80
  -1  -2  -8   26.50    9.00
   1   2   8    1.10   16.20
  -2  -2  -8  407.56   27.70
  -2  -2  -8  386.16   18.00
   2   2   8  349.17   55.19
  -3  -2  -8    0.80    3.10
   3   2   8   -2.90   16.90
   4   2   8  521.25   68.29
   4   2   8  660.33   44.30
  -5  -2  -8   56.09    7.20
   5   2   8   58.49   26.60
   5   2   8   52.89   18.20
  -6  -2  -8  212.78   15.80
   6   2   8  313.77   39.90
   7   2   8   54.19   23.40
   7  -3  -8   14.10    6.70
  -7   3   8  -17.70   32.60
   6  -3  -8   44.50    8.20
  -6   3   8   19.60   37.60
   5  -3  -8   38.60    7.40
  -5   3   8   27.30   35.20
   4  -3  -8  113.69   10.80
  -4   3   8  103.99   48.50
   3  -3  -8  312.97   15.90
  -3   3   8  215.88   57.29
   2  -3  -8    0.00    3.20
  -2   3   8   16.50   24.10
   1  -3  -8  678.33   34.50
   1  -3  -8  697.43   28.20
  -1   3   8  645.04   86.59
   0  -3  -8   25.70    9.70
   0  -3  -8   24.90    5.30
   0   3   8   24.30   22.20
  -1  -3  -8  152.08   11.70
  -1  -3  -8  194.88   22.60
   1   3   8  144.49   38.10
  -2  -3  -8   13.60    4.20
  -2  -3  -8   31.20   11.20
   2   3   8   22.70   20.60
  -3  -3  -8   17.70   10.80
  -3  -3  -8   25.40    4.80
   3   3   8   21.80   21.90
  -4  -3  -8   34.10   14.20
  -4  -3  -8   25.80    4.90
   4   3   8   23.40   24.40
   5   3   8   -5.90   11.60
   5   3   8    2.60   24.50
   6   3   8    2.00   13.60
   6  -4  -8   55.39    9.50
  -6   4   8   22.80   44.50
   5  -4  -8  119.89   12.60
  -5   4   8   80.99   47.10
   4  -4  -8   42.60    7.10
  -4   4   8   52.69   38.00
   3  -4  -8   56.19    7.60
  -3   4   8   34.60   30.70
   2  -4  -8    0.70    3.40
  -2   4   8   -0.50   21.50
   1  -4  -8    6.00    7.60
   1  -4  -8   19.60    5.00
  -1   4   8   17.60   24.70
   0  -4  -8   90.29   17.20
   0  -4  -8   72.59    8.20
   0   4   8   54.69   31.70
  -1  -4  -8   -0.70    3.20
  -1  -4  -8    6.40    8.70
   1   4   8   -4.00   17.30
  -2  -4  -8  412.26   18.10
  -2  -4  -8  345.77   30.30
   2   4   8  376.56   65.19
  -3  -4  -8    2.70    9.20
   3   4   8  -13.30   21.30
  -4  -4  -8  407.26   34.90
   4   4   8  244.28   54.79
   5   4   8   34.60   33.90
   5  -5  -8   94.49   11.40
  -5   5   8   72.19   45.10
   4  -5  -8   24.20    6.20
  -4   5   8   25.20   34.10
   3  -5  -8  284.77   16.20
  -3   5   8  211.58   59.79
   2  -5  -8   21.10    5.40
  -2   5   8    8.90   28.50
   1  -5  -8  368.26   18.40
  -1   5   8  307.77   70.69
   0  -5  -8  300.87   33.40
   0   5   8  268.07   62.09
  -1  -5  -8   53.99   16.70
   1   5   8   67.59   35.10
  -2  -5  -8  175.78   27.50
   2   5   8  183.58   50.39
  -3  -5  -8   11.90   11.40
   3   5   8   -8.80   20.20
  -4  -5  -8   10.70   13.00
   4   5   8    7.20   28.90
   4  -6  -8    1.90    5.10
  -4   6   8  -39.40   27.40
  -3   6   8  -20.20   25.50
  -2   6   8  -13.40   25.00
  -1   6   8    2.90   26.80
   0  -6  -8    1.50   13.10
   0   6   8   12.00   27.70
  -1  -6  -8    3.70   10.90
   1   6   8   30.50   27.80
  -2  -6  -8  111.69   24.70
   2   6   8  100.29   41.30
  -3  -6  -8    6.20   14.00
   3   6   8   -0.50   27.30
  -2   7   8   33.50   39.00
  -1   7   8   53.69   40.80
   0   7   8   35.30   37.30
   3  10  -9    2.20   18.50
   2  10  -9    5.60   17.00
  -2 -10   9    9.50   18.00
   1  10  -9  -17.40   11.00
  -1 -10   9   12.40   19.70
   0  10  -9  107.69   30.30
   0 -10   9   64.29   27.00
   1 -10   9   49.10   26.10
   2 -10   9   37.10   28.10
   4   9  -9   39.10   23.60
  -4  -9   9   30.80   19.00
   3   9  -9   35.00   23.50
  -3  -9   9   14.70   17.80
   2   9  -9  170.58   39.40
  -2  -9   9  149.19   33.60
   1   9  -9    3.80   14.60
  -1  -9   9   16.00   15.90
   0   9  -9  165.08   34.90
   0  -9   9  147.39   33.70
  -1   9  -9   21.30    5.00
   1  -9   9   11.40   17.90
  -2   9  -9   50.39    8.10
   2  -9   9   21.80   21.70
  -3   9  -9    2.60    4.90
   3  -9   9    0.00   20.10
  -4   9  -9   48.80    9.40
   4  -9   9   16.00   23.20
   5   8  -9   37.40   25.50
   4   8  -9    0.40   14.90
  -4  -8   9   31.20   17.70
   3   8  -9   -8.40   12.20
  -3  -8   9    3.40   13.50
   2   8  -9    0.30   14.00
  -2  -8   9   16.60   15.70
   1   8  -9   26.80    4.90
   1   8  -9   18.30   15.90
  -1  -8   9    8.40   14.90
   0   8  -9  187.98   35.40
   0   8  -9  195.98   11.30
   0  -8   9  141.59   32.40
  -1   8  -9  222.58   12.80
  -1   8  -9  257.77   37.90
   1  -8   9  173.78   35.90
  -2   8  -9   46.40    7.00
   2  -8   9   28.50   20.00
  -3   8  -9  294.27   16.60
   3  -8   9  269.37   47.60
  -4   8  -9   13.10    5.30
   4  -8   9  -13.70   15.60
  -5   8  -9  160.78   16.10
   5  -8   9  122.89   37.70
   6   7  -9   17.00   21.00
   5   7  -9   36.00   22.40
   4   7  -9  280.67   49.10
  -4  -7   9  163.98   28.50
   3   7  -9   39.10    6.00
   3   7  -9   43.70   22.80
  -3  -7   9   43.80   17.00
   2   7  -9  559.24   22.40
   2   7  -9  491.65   62.39
  -2  -7   9  431.36   48.40
   1   7  -9   12.00    3.90
   1   7  -9    6.00   13.20
  -1  -7   9   16.40   14.80
   0   7  -9  307.07   15.20
   0   7  -9  348.07   46.90
   0  -7   9  293.27   41.00
  -1   7  -9  155.18   29.10
  -1   7  -9  197.78   13.50
   1  -7   9  138.39   29.50
  -2   7  -9   49.40    7.30
   2  -7   9  107.49   27.00
  -3   7  -9   40.20    6.50
   3  -7   9   42.20   20.60
  -4   7  -9    7.70    5.00
   4  -7   9   22.90   22.70
  -5   7  -9    5.40    5.00
   5  -7   9   -7.70   17.40
  -6   7  -9   35.40    8.30
   6  -7   9   56.99   29.70
   7   6  -9   75.89   31.00
   5   6  -9   38.20    6.60
  -5  -6   9   38.70   27.90
   4   6  -9   44.50    6.50
  -4  -6   9   42.20   26.50
  -4  -6   9   50.99   15.90
   3   6  -9   31.90    5.80
  -3  -6   9   28.00   23.20
  -3  -6   9   15.80   12.10
   2   6  -9   17.20    4.50
  -2  -6   9    5.70   11.60
  -2  -6   9   33.60   20.90
   1   6  -9  271.27   13.90
  -1  -6   9  299.77   50.09
  -1  -6   9  258.67   35.30
   0   6  -9    5.60    2.90
   0  -6   9    2.00   10.80
  -1   6  -9  579.74   45.20
  -1   6  -9  588.24   24.40
   1  -6   9  542.75   46.80
  -2   6  -9    6.00    3.60
  -2   6  -9    2.40    8.30
   2  -6   9   15.20   15.20
  -3   6  -9  455.65   21.50
   3  -6   9  452.95   54.79
  -4   6  -9   25.30    6.00
   4  -6   9   17.20   18.00
  -5   6  -9  223.88   17.00
   5  -6   9  171.18   37.60
  -6   6  -9   58.19    9.90
   6  -6   9   31.60   23.80
   7   5  -9   16.30    5.60
  -7  -5   9   37.00   30.80
   6   5  -9   65.39    8.40
  -6  -5   9   48.70   29.40
   5   5  -9   98.29    9.70
  -5  -5   9  158.18   45.80
   4   5  -9  139.89   11.40
  -4  -5   9  102.59   25.80
  -4  -5   9  133.49   40.40
   3   5  -9   15.40    4.30
  -3  -5   9   -6.70   14.40
  -3  -5   9   15.90   10.40
   2   5  -9  162.28   11.60
  -2  -5   9  118.99   21.00
  -2  -5   9  134.99   36.90
   1   5  -9   10.20    3.50
  -1  -5   9    4.40    9.70
  -1  -5   9   -9.20   11.40
   0   5  -9  195.58   11.70
   0  -5   9  286.57   45.10
   0  -5   9  218.48   30.40
  -1   5  -9   11.60    3.50
   1  -5   9   17.20   13.60
   1  -5   9    3.40   11.90
  -2   5  -9   67.29    7.90
   2  -5   9   62.59   20.20
  -3   5  -9    9.90    4.20
   3  -5   9  -10.50   10.40
  -4   5  -9    2.80    3.70
   4  -5   9    0.30   13.50
  -5   5  -9    5.50    4.50
   5  -5   9   -3.20   15.60
  -6   5  -9   51.49    9.10
   6  -5   9   33.20   22.00
  -7   5  -9   -2.00    5.90
   7  -5   9    3.80   22.10
   7   4  -9   64.19    8.60
  -7  -4   9   44.20   33.10
   6   4  -9  140.89   12.40
  -6  -4   9  134.39   44.40
   5   4  -9   37.50    6.40
  -5  -4   9   57.29   30.80
   4   4  -9  235.88   13.60
  -4  -4   9  272.97   56.09
   3   4  -9    5.10    3.60
  -3  -4   9   -4.40    5.40
  -3  -4   9   -2.10   17.10
   2   4  -9   44.00    6.20
  -2  -4   9   46.80   12.90
  -2  -4   9   48.90   25.00
   1   4  -9    4.10    3.10
  -1  -4   9    4.60   17.20
  -1  -4   9   16.30   10.30
   0   4  -9   44.70    6.10
   0  -4   9   47.00   14.60
   0  -4   9   62.89   26.50
  -1   4  -9   24.80    5.00
   1  -4   9   28.90   13.80
   1  -4   9   34.00   20.20
  -2   4  -9   82.09    8.60
   2  -4   9  113.59   23.70
   2  -4   9  103.99   24.60
  -3   4  -9  241.38   13.90
   3  -4   9  217.38   33.20
  -4   4  -9   63.79    8.70
   4  -4   9   45.70   19.30
  -5   4  -9  193.58   15.90
   5  -4   9  148.59   31.70
  -6   4  -9  163.88   15.20
   6  -4   9  144.89   33.00
  -7   4  -9   37.50    8.60
   7  -4   9   41.50   24.60
   8   3  -9    5.50    5.60
  -8  -3   9   -7.30   25.70
   7   3  -9   -3.20    3.70
  -7  -3   9    6.30   27.10
   6   3  -9   -3.00    3.50
  -6  -3   9   -5.90   19.70
   5   3  -9    6.10    3.80
  -5  -3   9   37.90   28.50
   4   3  -9  214.48   12.80
  -4  -3   9  201.78   50.99
   3   3  -9   16.80    4.40
  -3  -3   9   -4.40   17.50
   2   3  -9  772.52   30.50
  -2  -3   9  741.83   34.70
  -2  -3   9  845.82   95.89
   1   3  -9   85.79    8.50
  -1  -3   9   99.79   34.20
  -1  -3   9   94.79   15.50
   0   3  -9  560.34   23.90
   0  -3   9  687.43   80.59
   0  -3   9  564.94   36.30
  -1   3  -9  283.97   14.80
   1  -3   9  333.37   28.20
   1  -3   9  252.97   46.40
  -2   3  -9  180.98   11.30
   2  -3   9  176.38   36.30
   2  -3   9  191.38   27.40
  -3   3  -9   77.79    8.50
   3  -3   9   80.49   19.50
   3  -3   9   59.79   21.20
  -4   3  -9  257.47   15.20
   4  -3   9  277.27   37.60
  -5   3  -9   -2.40    3.70
   5  -3   9   -7.00   11.50
  -6   3  -9   88.89   11.00
   6  -3   9   24.10   20.00
  -7   3  -9    2.60    5.70
   7  -3   9   15.50   19.40
   8   2  -9    6.70    5.90
  -8  -2   9  -22.20   25.40
   7   2  -9  103.79   11.60
  -7  -2   9  136.09   51.49
   6   2  -9   65.49    9.10
  -6  -2   9   54.99   33.60
   5   2  -9   44.50    7.10
  -5  -2   9   99.09   40.40
   4   2  -9   54.19    7.20
  -4  -2   9   44.20   32.50
  -3  -2   9   23.10   23.90
   2   2  -9    6.70    3.40
  -2  -2   9    7.30   20.40
   1   2  -9   11.00    3.90
  -1  -2   9    7.40    6.40
  -1  -2   9   19.20    4.90
  -1  -2   9    2.20   20.20
   0   2  -9    5.60    3.20
   0  -2   9   -2.40    6.30
   0  -2   9   12.20   18.80
  -1   2  -9  427.96   20.20
   1  -2   9  515.75   69.79
   1  -2   9  523.05   33.20
  -2   2  -9   -3.40    2.50
   2  -2   9    5.20   17.10
   2  -2   9   -5.30    6.60
  -3   2  -9  814.12   32.40
   3  -2   9  757.92   63.89
   3  -2   9  781.92   49.60
  -4   2  -9  356.96   18.40
   4  -2   9  321.17   38.40
  -5   2  -9  330.27   18.30
   5  -2   9  346.47   43.00
   6  -2   9  231.18   38.50
  -7   2  -9   -4.10    4.70
   7  -2   9  -19.20   14.10
   8   1  -9   21.90    7.30
  -8  -1   9    1.00   30.10
   7   1  -9   17.80    6.40
  -7  -1   9   13.90   31.00
   6   1  -9   -1.80    3.60
  -6  -1   9   16.10   28.90
   5   1  -9   18.00    5.30
  -5  -1   9   35.20   35.60
   4   1  -9  239.98   13.80
  -4  -1   9  154.08   50.79
   3   1  -9   14.60    4.30
  -3  -1   9   26.40   28.60
   2   1  -9 1009.80   38.50
  -2  -1   9  995.40   93.89
   1   1  -9  327.87   16.40
  -1  -1   9  450.35   73.19
   0   1  -9  342.07   16.90
   0  -1   9  361.36   23.40
   0  -1   9  437.86   68.69
  -1   1  -9  641.04   26.40
   1  -1   9  644.84   36.90
   1  -1   9  585.94   75.99
  -2   1  -9   45.90    6.50
   2  -1   9   39.50   12.50
   2  -1   9   48.10   25.80
  -3   1  -9  180.88   13.40
   3  -1   9  201.28   26.90
   3  -1   9  154.88   37.40
  -4   1  -9   -2.80    3.20
   4  -1   9    3.50   10.10
  -5   1  -9   35.10    6.80
   5  -1   9   40.80   16.80
  -6   1  -9   46.30    7.70
   6  -1   9   42.30   19.60
  -7   1  -9   -0.40    4.80
   7  -1   9   -8.50   13.40
   8   0  -9   28.20    8.10
  -8   0   9   72.29   45.20
   7   0  -9  129.59   13.70
  -7   0   9  178.68   56.59
   6   0  -9  253.27   18.50
  -6   0   9  265.87   69.39
   5   0  -9    2.40    4.00
  -5   0   9    8.40   25.50
   4   0  -9  306.57   16.30
  -4   0   9  283.77   64.59
   3   0  -9   24.90    5.20
  -3   0   9   14.10   25.90
   2   0  -9   96.89    9.10
  -2   0   9   78.09   34.00
   1   0  -9  460.35   20.40
  -1   0   9  381.26   66.69
   0   0  -9    0.10    2.90
   0   0   9    7.90   19.80
   0   0   9   -4.40    5.20
  -1   0  -9  288.17   14.90
   1   0   9  185.68   43.20
   1   0   9  315.77   23.30
  -2   0  -9   69.89    8.00
   2   0   9   54.09   13.40
   2   0   9   66.79   27.40
  -3   0  -9  368.36   18.00
   3   0   9  368.86   30.70
   3   0   9  281.87   50.79
  -4   0  -9  231.88   14.20
   4   0   9  182.68   40.30
   4   0   9  266.37   32.20
  -5   0  -9   33.00    6.10
   5   0   9   56.39   18.20
  -6   0  -9  139.39   13.00
   6   0   9  203.58   34.70
  -7   0  -9   -4.90    4.50
   7   0   9   26.50   19.80
   7  -1  -9   27.60    7.50
  -7   1   9   33.60   37.50
   6  -1  -9   46.00    8.20
  -6   1   9   40.90   37.00
   5  -1  -9   34.60    6.70
  -5   1   9   25.00   29.90
   4  -1  -9  585.74   25.40
  -4   1   9  432.16   82.19
   3  -1  -9   66.99    7.90
  -3   1   9  120.99   45.40
   2  -1  -9  453.95   20.40
  -2   1   9  374.16   67.99
   1  -1  -9 1218.18   45.10
  -1   1   9 1144.59  101.29
   0  -1  -9   55.19    6.80
   0   1   9   47.30    9.70
   0   1   9   52.59   26.00
  -1  -1  -9  494.05   21.60
   1   1   9  440.26   70.29
   1   1   9  468.65   29.40
  -2  -1  -9    4.90    4.00
   2   1   9   -3.20    7.70
   2   1   9   11.00   21.70
  -3  -1  -9  115.29   10.30
   3   1   9   77.99   31.50
   3   1   9  117.89   20.30
  -4  -1  -9   -1.40    3.30
   4   1   9   10.40   11.90
   4   1   9   -0.20   21.30
  -5  -1  -9   19.10    4.90
   5   1   9   18.10   14.40
  -6  -1  -9    4.90    4.90
   6   1   9   20.70   18.00
   7  -2  -9   28.30    7.80
  -7   2   9   41.60   48.20
   6  -2  -9  111.39   12.40
  -6   2   9  193.48   65.79
   5  -2  -9    1.30    4.10
  -5   2   9    6.80   30.60
   4  -2  -9  103.59   10.50
  -4   2   9   98.69   46.20
   3  -2  -9   44.70    6.80
  -3   2   9   30.70   29.30
   2  -2  -9    7.10    3.70
  -2   2   9    4.50   20.30
   1  -2  -9   37.30    6.30
  -1   2   9   13.30   23.30
   0  -2  -9   -6.30    5.00
   0  -2  -9    3.30    3.20
   0   2   9  -25.80   13.00
  -1  -2  -9  225.08   12.90
   1   2   9  138.89   40.00
  -2  -2  -9   15.20    4.50
   2   2   9   28.10   26.00
  -3  -2  -9  216.88   12.90
   3   2   9  210.48   27.20
   3   2   9  186.98   45.20
  -4  -2  -9  110.69   10.40
   4   2   9  185.78   28.50
   4   2   9  155.28   43.90
  -5  -2  -9    6.90    4.30
   5   2   9   -2.40   12.30
   6   2   9   95.19   26.50
   6  -3  -9   24.00    7.40
  -6   3   9   41.40   37.70
   5  -3  -9    8.10    5.10
  -5   3   9   -2.30   30.70
   4  -3  -9   58.89    8.40
  -4   3   9   47.70   36.50
   3  -3  -9   93.29    9.90
  -3   3   9   59.69   34.90
   2  -3  -9  158.78   12.40
  -2   3   9  136.79   49.70
   1  -3  -9  205.28   12.60
  -1   3   9  113.59   42.40
   0  -3  -9   27.70    9.30
   0  -3  -9   28.20    5.70
   0   3   9   38.70   29.10
  -1  -3  -9  187.28   13.60
  -1  -3  -9  192.18   22.90
   1   3   9  131.79   44.10
  -2  -3  -9    1.80    3.50
  -2  -3  -9   12.70    9.20
   2   3   9  -15.00   17.20
  -3  -3  -9   64.69   17.10
  -3  -3  -9   54.79    7.10
   3   3   9   70.49   34.20
   4   3   9   18.30   13.50
   4   3   9   -9.90   20.50
   5   3   9  -12.80   12.90
   6  -4  -9  110.39   12.80
  -6   4   9   53.69   48.90
   5  -4  -9    6.10    5.20
  -5   4   9   45.70   42.90
   4  -4  -9   31.70    6.90
  -4   4   9   22.70   29.80
   3  -4  -9   49.90    8.00
  -3   4   9   22.10   32.10
   2  -4  -9   33.00    6.50
  -2   4   9   23.20   30.00
   1  -4  -9   37.90    6.60
  -1   4   9   25.70   30.40
   0  -4  -9    4.00    4.30
   0  -4  -9   -3.10    9.60
   0   4   9   -4.70   23.10
  -1  -4  -9    9.80    4.90
  -1  -4  -9   -2.70    7.90
   1   4   9   15.10   24.50
  -2  -4  -9   43.50   15.10
   2   4   9   31.20   31.70
  -3  -4  -9   89.99   20.40
   3   4   9   56.29   36.10
  -4  -4  -9  151.38   26.90
   4   4   9   95.99   43.30
   5  -5  -9   -6.20    4.70
  -5   5   9   36.70   38.70
   4  -5  -9  227.18   17.60
  -4   5   9  238.18   73.79
   3  -5  -9   13.20    5.70
  -3   5   9   -7.70   25.40
   2  -5  -9  170.08   13.60
  -2   5   9   89.29   44.20
   1  -5  -9  215.58   16.90
  -1   5   9  113.99   48.50
   0   5   9   -9.30   20.00
  -1  -5  -9  368.86   31.80
   1   5   9  228.58   59.49
  -2  -5  -9    4.70   10.20
   2   5   9   24.10   32.00
  -3  -5  -9  177.78   29.40
   3   5   9  331.57   75.79
  -3   6   9   26.60   38.80
  -2   6   9    6.10   31.00
  -1   6   9   -0.90   25.30
   0   6   9  -15.20   25.80
   1   6   9   50.69   38.30
  -2  -6  -9   36.80   19.40
   2  10 -10    2.50   18.60
   1  10 -10    2.00   16.00
  -1 -10  10   -5.40   16.40
   0  10 -10   19.80   30.60
   0 -10  10   24.30   21.40
   1 -10  10   27.90   23.40
   4   9 -10  -15.90   16.80
   3   9 -10   80.69   31.20
   2   9 -10   19.80   18.10
  -2  -9  10   34.80   18.10
   1   9 -10  102.49   31.10
  -1  -9  10  100.79   27.60
   0   9 -10  195.48   39.40
   0  -9  10  152.78   35.40
  -1   9 -10   31.00    6.20
   1  -9  10    8.80   17.70
  -2   9 -10   68.29    9.00
   2  -9  10   60.59   27.70
  -3   9 -10    0.00    4.80
   3  -9  10    1.40   21.90
   5   8 -10   14.50   21.50
   4   8 -10    7.40   18.50
   3   8 -10   24.20   20.80
  -3  -8  10    8.70   13.50
   2   8 -10   -5.60    3.20
   2   8 -10  -14.10   12.60
  -2  -8  10   18.90   16.10
   1   8 -10    1.50    3.20
   1   8 -10    5.70   14.20
  -1  -8  10    2.70   13.70
   0   8 -10   23.40    5.40
   0   8 -10   34.10   19.00
   0  -8  10   21.80   17.80
  -1   8 -10    6.20   13.90
  -1   8 -10    4.40    4.00
   1  -8  10    6.30   16.40
  -2   8 -10  192.98   14.40
   2  -8  10  162.18   37.50
  -3   8 -10   27.70    6.60
   3  -8  10   15.70   19.50
  -4   8 -10   79.09   10.40
   4  -8  10   76.69   31.10
  -5   8 -10  129.59   14.10
   6   7 -10   20.50   23.80
   5   7 -10  115.19   36.80
   4   7 -10   13.90    5.00
   4   7 -10  -11.20   13.00
   3   7 -10  263.27   14.10
  -3  -7  10  190.38   31.30
   2   7 -10  115.09   30.80
   2   7 -10  102.79    9.40
  -2  -7  10   66.39   20.80
   1   7 -10  122.59   31.20
   1   7 -10  180.28   12.50
  -1  -7  10  118.99   26.50
   0   7 -10  166.68   12.00
   0   7 -10  131.59   30.40
   0  -7  10   89.89   25.50
  -1   7 -10   10.40   13.10
  -1   7 -10    2.40    3.60
   1  -7  10   26.40   17.70
  -2   7 -10   86.99    9.50
   2  -7  10   23.10   18.60
  -3   7 -10    5.70    4.10
   3  -7  10   -4.60   15.10
  -4   7 -10   15.50    5.80
   4  -7  10    4.30   18.30
  -5   7 -10   19.10    7.00
   5  -7  10   37.90   27.80
   6   6 -10   10.70    7.10
  -6  -6  10    6.60   25.60
   5   6 -10  138.59   12.30
  -5  -6  10   89.79   37.10
   4   6 -10   46.80    7.40
  -4  -6  10   42.30   27.80
   3   6 -10    9.20    4.20
  -3  -6  10    4.70   11.50
  -3  -6  10    0.90   17.80
   2   6 -10    0.80    3.40
  -2  -6  10    5.90   16.10
  -2  -6  10    9.90   10.80
   1   6 -10   20.70    5.00
  -1  -6  10   20.50   21.70
  -1  -6  10   10.80   12.40
   0   6 -10  103.39    9.70
   0  -6  10  169.18   37.50
   0  -6  10   89.09   23.30
  -1   6 -10   54.69    7.10
   1  -6  10   16.60   14.40
  -2   6 -10  256.97   14.70
   2  -6  10  214.38   37.20
  -3   6 -10  247.18   15.10
   3  -6  10  272.47   44.30
  -4   6 -10  208.58   16.60
   4  -6  10  169.38   35.90
  -5   6 -10  213.58   17.40
   5  -6  10  168.18   38.90
  -6   6 -10    4.20    5.70
   6  -6  10   -1.00   22.30
   7   5 -10   15.30    5.70
  -7  -5  10  -16.50   21.40
   6   5 -10    2.50    4.40
  -6  -5  10  -25.00   16.40
   5   5 -10  110.19   11.20
  -5  -5  10  118.19   41.50
   4   5 -10  107.49   10.50
  -4  -5  10  121.89   41.80
   3   5 -10  333.67   17.10
  -3  -5  10  319.37   61.39
   2   5 -10  541.35   23.10
  -2  -5  10  447.66   35.10
  -2  -5  10  627.74   80.39
   1   5 -10   38.80    6.20
  -1  -5  10   20.30   12.70
  -1  -5  10   78.29   31.20
   0   5 -10  848.22   33.60
   0  -5  10  822.12   53.49
   0  -5  10  874.51   72.39
  -1   5 -10   20.50    4.60
   1  -5  10   27.10   15.50
   1  -5  10   27.10   18.80
  -2   5 -10  319.17   16.80
   2  -5  10  317.07   41.00
   2  -5  10  317.07   40.80
  -3   5 -10   -1.40    3.40
   3  -5  10   -9.00   11.80
  -4   5 -10   86.29   10.20
   4  -5  10   68.39   23.30
  -5   5 -10   37.80    7.40
   5  -5  10   -2.40   16.70
  -6   5 -10   15.40    6.60
   6  -5  10  -19.80   17.60
   7   4 -10   79.19    9.80
  -7  -4  10  104.09   42.80
   6   4 -10    9.40    5.20
  -6  -4  10   -2.80   21.90
   5   4 -10   50.39    7.70
  -5  -4  10  111.69   42.20
   4   4 -10    5.80    3.70
  -4  -4  10    4.80   20.50
   3   4 -10   28.40    5.70
  -3  -4  10   20.70   24.10
   2   4 -10   25.20    5.30
  -2  -4  10   31.20   10.30
  -2  -4  10    4.70   19.90
   1   4 -10   24.90    4.90
  -1  -4  10   27.10   12.60
  -1  -4  10   43.50   26.10
   0   4 -10  129.39   11.00
   0  -4  10  146.89   41.20
   0  -4  10  123.59   22.20
  -1   4 -10   22.80    4.90
   1  -4  10   44.10   24.20
   1  -4  10   14.30   12.30
  -2   4 -10  247.88   14.20
   2  -4  10  259.17   42.10
   2  -4  10  215.78   33.50
  -3   4 -10  298.17   16.60
   3  -4  10  281.37   38.20
  -4   4 -10   22.60    5.70
   4  -4  10   33.30   17.10
  -5   4 -10  451.15   23.70
   5  -4  10  528.05   58.79
  -6   4 -10   -8.10    4.70
   6  -4  10  -14.50   14.30
   7   3 -10   11.40    5.60
  -7  -3  10   -9.70   23.10
   6   3 -10    1.30    4.10
  -6  -3  10   -1.80   25.60
   5   3 -10   19.10    5.20
  -5  -3  10   61.39   37.00
   4   3 -10  122.29   11.20
  -4  -3  10  111.19   42.20
   3   3 -10  221.38   13.40
  -3  -3  10  261.97   59.89
   2   3 -10  662.13   28.10
  -2  -3  10  764.52   98.49
   1   3 -10  134.09   11.20
  -1  -3  10  108.69   16.60
  -1  -3  10  194.48   49.10
   0   3 -10  685.63   28.70
   0  -3  10  706.03   86.29
   0  -3  10  721.63   42.50
  -1   3 -10   -1.80    2.90
   1  -3  10    2.80    8.50
   1  -3  10   -0.10   16.50
  -2   3 -10  477.35   21.80
   2  -3  10  455.35   37.70
   2  -3  10  454.05   62.09
   3  -3  10   29.80   15.60
  -4   3 -10   95.09   10.30
   4  -3  10  103.79   24.50
  -5   3 -10   10.80    5.10
   5  -3  10    1.40   13.70
  -6   3 -10   -3.40    4.50
   6  -3  10    5.00   16.40
  -7   3 -10   22.30    7.20
   7   2 -10  108.09   12.10
  -7  -2  10  109.69   50.59
   6   2 -10    6.00    4.40
  -6  -2  10   -0.10   25.60
   5   2 -10  149.99   13.60
  -5  -2  10  234.38   62.59
   4   2 -10   64.19    8.30
  -4  -2  10  105.59   42.70
   3   2 -10   79.79    8.70
  -3  -2  10   54.19   33.30
   2   2 -10   41.90    6.40
  -2  -2  10   -0.60   23.30
   1   2 -10   16.00    4.40
  -1  -2  10    8.00    7.20
  -1  -2  10   28.00   27.60
   0   2 -10   55.89    7.20
   0  -2  10   59.59   13.70
   0  -2  10   72.69   32.30
  -1   2 -10   13.90    4.50
   1  -2  10   11.50    9.10
   1  -2  10   -3.70   18.10
  -2   2 -10  208.18   13.20
   2  -2  10  238.58   49.50
   2  -2  10  243.48   29.30
  -3   2 -10  137.09   11.80
   3  -2  10  122.59   22.90
   3  -2  10  133.19   35.40
  -4   2 -10  131.09   12.40
   4  -2  10   87.59   22.10
  -5   2 -10  121.59   12.20
   5  -2  10  171.98   31.80
  -6   2 -10    5.30    5.30
   6  -2  10    1.30   14.60
  -7   2 -10   72.19   11.30
   7   1 -10    3.10    5.00
  -7  -1  10    6.90   31.90
   6   1 -10   15.00    5.80
  -6  -1  10   35.70   37.10
   5   1 -10  170.88   13.90
  -5  -1  10   88.59   45.10
   4   1 -10   -2.20    3.50
  -4  -1  10   -4.60   26.50
  -3  -1  10  304.57   67.69
   2   1 -10  484.05   22.00
  -2  -1  10  407.56   76.19
   1   1 -10    4.30    3.30
  -1  -1  10   -9.00   18.20
   0   1 -10  818.42   33.00
   0  -1  10  826.12   40.80
   0  -1  10  834.82  100.89
  -1   1 -10  111.79   10.40
   1  -1  10   99.79   38.60
  -2   1 -10  235.18   13.80
   2  -1  10  234.38   27.70
   2  -1  10  210.88   45.60
  -3   1 -10  213.28   13.70
   3  -1  10  277.67   32.10
   3  -1  10  227.28   47.40
  -4   1 -10   16.40    5.30
   4  -1  10   35.50   15.80
  -5   1 -10   21.70    5.90
   5  -1  10   54.49   21.40
  -6   1 -10   -4.50    4.20
   6  -1  10   24.90   19.00
   7   0 -10  151.48   14.60
  -7   0  10  126.19   56.09
   6   0 -10    2.20    4.70
  -6   0  10   11.60   31.60
   5   0 -10  292.47   17.40
  -5   0  10  337.67   76.19
   4   0 -10   49.99    7.70
  -4   0  10   51.89   39.90
   3   0 -10  110.89   10.80
  -3   0  10  140.99   49.70
   2   0 -10  132.99   11.10
  -2   0  10   78.49   38.70
   1   0 -10   -0.10    3.10
  -1   0  10    2.80   21.80
   0   0 -10   56.89    7.70
   0   0  10   68.69   33.60
   0   0  10   82.79   13.20
  -1   0 -10   64.99    8.10
   1   0  10   57.19   13.40
   1   0  10   80.49   34.60
  -2   0 -10  488.15   22.50
   2   0  10  435.36   68.99
   2   0  10  493.25   34.20
  -3   0 -10  330.87   17.30
   3   0  10  299.67   32.50
   3   0  10  272.27   54.79
  -4   0 -10   19.30    5.80
   4   0  10   20.30   14.00
  -5   0 -10  346.67   19.00
   5   0  10  335.67   41.10
  -6   0 -10   18.60    6.20
   6   0  10   27.90   18.20
   7  -1 -10    5.70    6.30
  -7   1  10   49.60   45.80
   6  -1 -10   73.99   10.40
  -6   1  10  123.39   56.09
   5  -1 -10  122.09   12.10
  -5   1  10  138.99   55.69
  -4   1  10   88.69   41.10
   3  -1 -10  229.78   14.20
  -3   1  10  234.58   64.89
   2  -1 -10  291.17   15.80
  -2   1  10  216.48   59.39
   1  -1 -10   57.79    7.80
  -1   1  10   29.00   26.50
   0  -1 -10  469.65   21.80
   0   1  10  481.25   31.40
   0   1  10  435.46   74.79
  -1  -1 -10   84.19    9.00
   1   1  10   72.09   14.70
   1   1  10   39.60   31.30
  -2  -1 -10  377.66   19.10
   2   1  10  383.56   30.20
   2   1  10  400.86   70.59
  -3  -1 -10  149.79   12.60
   3   1  10  150.08   44.40
   3   1  10  180.08   26.50
  -4  -1 -10    7.90    4.80
   4   1  10   17.60   14.50
   4   1  10  -15.90   21.70
  -5  -1 -10    8.30    4.60
   5   1  10    1.60   12.60
  -6  -1 -10    3.10    4.80
   6   1  10    0.10   15.10
   6  -2 -10   31.90    7.90
  -6   2  10   24.50   43.70
   5  -2 -10  162.08   14.20
  -5   2  10  131.49   53.59
   4  -2 -10  171.48   14.20
  -4   2  10  174.58   63.99
   3  -2 -10   21.70    5.70
  -3   2  10   71.59   38.40
   2  -2 -10  134.59   11.90
  -2   2  10   45.40   34.30
   1  -2 -10    7.10    4.40
  -1   2  10  -19.50   19.70
   0  -2 -10    7.20    4.40
   0   2  10   24.30   27.60
  -1  -2 -10  123.09   11.00
   1   2  10   95.79   16.60
   1   2  10   46.20   32.00
  -2  -2 -10    1.20    4.10
   2   2  10    9.90   27.30
   2   2  10   10.00   10.10
  -3  -2 -10  330.87   18.00
   3   2  10  318.77   64.09
   3   2  10  372.56   37.50
  -4  -2 -10   -1.50    3.80
   4   2  10   -5.60   23.00
   4   2  10   -0.50   12.10
   5   2  10  319.47   42.30
   6  -3 -10    3.60    5.30
  -6   3  10  -30.60   36.00
   5  -3 -10   78.29   10.80
  -5   3  10   79.69   52.39
   4  -3 -10  162.38   14.20
  -4   3  10  151.58   57.59
   3  -3 -10   89.39   10.20
  -3   3  10   52.99   39.10
   2  -3 -10  351.66   18.50
  -2   3  10  256.57   66.69
   1  -3 -10   13.70    5.20
  -1   3  10   -5.50   23.60
   0  -3 -10  428.46   21.00
  -1  -3 -10  110.59   19.00
   1   3  10   87.49   38.70
  -2  -3 -10  134.59   11.70
   2   3  10  120.79   43.70
  -3  -3 -10  115.89   12.70
   3   3  10  124.69   23.80
   3   3  10   70.39   41.20
   4   3  10   12.10   31.30
   4   3  10   -2.20   13.70
   5  -4 -10   93.09   11.80
  -5   4  10  100.79   58.69
   4  -4 -10   63.09    9.30
  -4   4  10   20.20   36.30
   3  -4 -10   44.50    7.90
  -3   4  10   43.00   36.10
   2  -4 -10   63.09    9.20
  -2   4  10   79.79   43.00
   1  -4 -10   -0.90    4.70
  -1   4  10   -1.20   23.70
   0  -4 -10    4.50    4.60
   0   4  10  -15.50   22.50
   1   4  10   28.80   30.30
  -2  -4 -10    6.20   11.20
   2   4  10  -27.40   22.60
   3   4  10   36.70   40.10
   3  -5 -10   -3.90    4.60
  -3   5  10  -24.50   29.90
   2  -5 -10   92.19   11.60
  -2   5  10   54.79   44.10
  -1   5  10   -5.60   25.50
   0   5  10  212.78   64.89
   1   5  10   20.70   32.80
   2   5  10   18.20   33.80
   3   9 -11   92.29   34.60
   2   9 -11    5.90   19.30
  -2  -9  11    4.30   15.50
   1   9 -11  221.38   43.60
  -1  -9  11  227.78   40.00
   0   9 -11   19.70   18.70
   0  -9  11   14.60   19.00
  -1   9 -11   93.89    9.90
   1  -9  11   50.19   24.00
  -2   9 -11   87.19   10.20
   2  -9  11   25.70   21.30
  -3   9 -11   36.50    7.90
   4   8 -11   19.90   22.30
   3   8 -11   10.90   20.90
   2   8 -11    1.50    3.70
   2   8 -11  -10.70   15.10
  -2  -8  11   14.70   15.80
   1   8 -11    5.10   15.30
   1   8 -11   -4.70    3.10
  -1  -8  11    1.10   14.10
   0   8 -11    3.80    4.00
   0   8 -11   24.70   16.50
   0  -8  11   16.00   16.80
  -1   8 -11   82.09    9.50
   1  -8  11   42.00   19.90
  -2   8 -11  180.78   14.40
   2  -8  11  184.48   39.00
  -3   8 -11   62.49    8.80
   3  -8  11   52.99   27.00
  -4   8 -11  311.57   18.60
   4  -8  11  172.88   40.00
   4   7 -11   68.29    8.90
  -3  -7  11  158.98   45.80
   2   7 -11   19.90    5.30
  -2  -7  11   21.70   19.30
   1   7 -11  284.37   15.70
  -1  -7  11  314.47   41.40
   0   7 -11   37.40    6.70
   0   7 -11   72.59   25.00
   0  -7  11   46.10   20.80
  -1   7 -11  105.59   10.60
  -1   7 -11  104.29   27.00
   1  -7  11   90.89   25.30
  -2   7 -11  115.99   11.50
   2  -7  11   69.39   25.20
  -3   7 -11   11.80    5.00
   3  -7  11   -6.50   15.70
  -4   7 -11   14.50    5.80
   4  -7  11   32.80   24.60
  -5   7 -11    3.70    5.70
   5  -7  11   17.30   26.20
   6   6 -11   68.19   10.10
  -6  -6  11  119.59   44.50
   5   6 -11  123.59   12.40
  -5  -6  11  135.89   43.60
   4   6 -11   10.20    5.30
  -4  -6  11   27.30   27.20
   3   6 -11  115.39   11.30
  -3  -6  11   97.89   36.90
   2   6 -11    5.20    3.80
  -2  -6  11   19.90   22.00
   1   6 -11    5.10    3.60
  -1  -6  11   19.70   14.20
  -1  -6  11    5.90   17.70
   0   6 -11   -1.00    2.90
   0  -6  11    5.60   12.30
   0  -6  11   -3.70   15.10
  -1   6 -11  161.28   13.20
   1  -6  11  184.88   37.90
   1  -6  11  167.28   31.60
  -2   6 -11  171.28   14.20
   2  -6  11  136.09   31.50
  -3   6 -11    3.70    4.50
   3  -6  11    7.10   17.80
  -4   6 -11  362.66   19.90
   4  -6  11  289.57   45.90
  -5   6 -11   22.80    6.90
   5  -6  11   31.10   25.80
   6   5 -11   38.10    7.50
  -6  -5  11   74.29   36.30
   5   5 -11    6.60    5.00
  -5  -5  11   13.80   25.20
   4   5 -11  200.08   15.20
  -4  -5  11  148.19   46.70
   3   5 -11  416.56   21.00
  -3  -5  11  594.04   86.49
   2   5 -11   23.60    5.30
  -2  -5  11    5.70   18.60
   1   5 -11  598.34   25.90
  -1  -5  11  567.34   41.60
  -1  -5  11  616.74   79.69
   0   5 -11   33.60    6.20
   0  -5  11   67.79   19.80
   0  -5  11   64.19   30.00
  -1   5 -11  335.77   17.80
   1  -5  11  364.36   54.09
   1  -5  11  371.16   44.20
  -2   5 -11  104.19   10.50
   2  -5  11   58.39   21.50
  -3   5 -11   47.90    7.90
   3  -5  11   58.89   23.50
  -4   5 -11   37.90    7.70
   4  -5  11   36.70   22.20
  -5   5 -11    3.20    5.00
   5  -5  11   24.30   19.90
  -6   5 -11    8.80    5.90
   7   4 -11   12.50    5.80
  -7  -4  11  -24.80   20.90
   6   4 -11   56.39    8.60
  -6  -4  11   82.59   43.10
   5   4 -11   34.70    6.80
  -5  -4  11   32.50   32.10
   4   4 -11   10.90    4.80
  -4  -4  11  -14.30   17.30
   3   4 -11   38.00    6.70
  -3  -4  11   35.70   30.50
   2   4 -11   11.40    4.20
  -2  -4  11   18.00   21.50
   1   4 -11   25.90    5.80
  -1  -4  11   11.90   23.30
   0   4 -11    7.20    3.90
   0  -4  11   13.10   20.50
   0  -4  11   16.80   10.70
  -1   4 -11   20.30    5.40
   1  -4  11   28.00   15.30
   1  -4  11   36.40   25.20
  -2   4 -11  338.17   17.90
   2  -4  11  302.17   40.10
   2  -4  11  411.16   56.89
  -3   4 -11    4.10    4.00
   3  -4  11   -0.20   14.90
  -4   4 -11  226.78   17.00
   4  -4  11  186.18   34.10
  -5   4 -11   57.69    8.90
   5  -4  11  117.89   30.60
  -6   4 -11   79.29   11.10
   6  -4  11   82.69   30.60
   7   3 -11    9.90    5.80
  -7  -3  11    2.50   30.70
   6   3 -11   21.30    6.10
  -6  -3  11   27.20   33.90
   5   3 -11   43.50    7.50
  -5  -3  11    2.10   24.30
   4   3 -11   69.09    8.60
  -4  -3  11   43.30   32.90
   3   3 -11  247.08   14.70
  -3  -3  11  175.68   52.59
   2   3 -11   62.89    8.40
  -2  -3  11   63.39   36.70
   1   3 -11  633.44   27.10
  -1  -3  11  572.84   85.39
   0   3 -11  165.18   13.40
   0  -3  11  227.98   27.50
   0  -3  11  200.08   51.49
  -1   3 -11  223.98   13.70
   1  -3  11  226.08   53.69
   1  -3  11  221.18   29.90
  -2   3 -11  287.37   16.00
   2  -3  11  295.57   57.19
   2  -3  11  258.57   33.70
  -3   3 -11   10.60    4.70
   3  -3  11    4.40   12.30
  -4   3 -11   63.49    8.90
   4  -3  11   43.60   18.20
  -5   3 -11   -0.70    4.20
   5  -3  11   -9.00   13.20
  -6   3 -11   10.00    5.90
   6  -3  11   -4.40   15.80
   7   2 -11    8.50    5.80
  -7  -2  11  -10.70   25.40
   6   2 -11  143.79   13.50
  -6  -2  11  119.99   51.29
   5   2 -11   87.39   10.40
  -5  -2  11  128.59   48.80
   4   2 -11  125.49   11.90
  -4  -2  11  170.08   56.39
   3   2 -11  281.47   16.20
  -3  -2  11  260.47   64.49
   2   2 -11   -2.60    3.00
  -2  -2  11   -2.90   21.80
  -1  -2  11   71.59   38.40
   0   2 -11   52.59    7.50
   0  -2  11   36.50   29.30
   0  -2  11   51.59   17.00
  -1   2 -11    0.00    3.30
   1  -2  11    9.90   25.20
   1  -2  11   -2.90    8.60
  -2   2 -11  176.68   14.20
   2  -2  11  184.98   27.40
   2  -2  11  143.69   42.20
  -3   2 -11    9.60    4.60
   3  -2  11    4.80   11.80
  -4   2 -11  260.17   18.80
   4  -2  11  269.37   37.20
  -5   2 -11   71.49   10.00
   5  -2  11   90.89   24.10
  -6   2 -11  111.69   13.40
   6  -2  11  125.29   31.80
  -7  -1  11   56.69   44.60
   6   1 -11    8.00    5.70
  -6  -1  11  -29.50   25.70
   5   1 -11   17.70    5.80
  -5  -1  11  -21.80   23.10
   4   1 -11   -3.00    3.40
  -4  -1  11    1.00   26.80
   3   1 -11  228.18   16.60
  -3  -1  11  223.38   65.09
   2   1 -11   -3.40    3.30
  -2  -1  11    0.80   26.40
   1   1 -11  167.98   13.70
  -1  -1  11  149.29   50.99
   0   1 -11  226.18   13.90
   0  -1  11  183.58   52.79
  -1   1 -11  226.08   13.70
   1  -1  11  212.98   25.60
   1  -1  11  212.08   52.79
  -2   1 -11  560.64   25.90
   2  -1  11  593.64   84.19
   2  -1  11  593.64   41.10
  -3   1 -11   -2.90    3.80
   3  -1  11   23.00   13.60
   3  -1  11    2.50   23.50
  -4   1 -11  129.39   12.70
   4  -1  11  111.69   24.30
  -5   1 -11    5.70    4.50
   5  -1  11   -2.40   14.10
  -6   1 -11    2.70    5.40
   6  -1  11  -11.20   15.60
   6   0 -11  111.49   12.40
  -6   0  11  140.59   57.49
   5   0 -11  180.58   15.50
  -5   0  11  265.17   76.09
   4   0 -11    9.80    5.10
  -4   0  11   25.60   34.60
   3   0 -11  175.48   14.10
  -3   0  11  110.99   46.80
   2   0 -11   20.30    5.50
  -2   0  11   30.40   31.80
   1   0 -11    1.50    3.60
  -1   0  11   -9.10   24.40
   0   0 -11   -4.30    3.00
   0   0  11   -6.20   22.70
  -1   0 -11    0.20    3.40
   1   0  11    1.60   25.30
   1   0  11   12.50   10.50
  -2   0 -11  113.89   11.50
   2   0  11  100.09   18.80
   2   0  11  102.99   43.20
  -3   0 -11    4.60    4.00
   3   0  11    9.10   12.40
   3   0  11   16.70   25.70
  -4   0 -11  181.28   15.20
   4   0  11  185.38   30.30
  -5   0 -11   26.00    6.70
   5   0  11   58.89   20.30
  -6   0 -11   69.19   10.70
   6  -1 -11    0.40    5.10
  -6   1  11   -4.40   40.40
   5  -1 -11   22.80    6.50
  -5   1  11    8.90   34.60
   4  -1 -11    5.20    4.80
  -4   1  11   24.30   35.60
   3  -1 -11  168.08   13.70
  -3   1  11   23.10   36.00
   2  -1 -11   44.20    7.60
  -2   1  11   48.20   37.70
   1  -1 -11  516.75   23.60
  -1   1  11  328.37   71.69
   0  -1 -11  235.48   14.50
   0   1  11  176.78   53.79
  -1  -1 -11  137.09   12.30
   1   1  11  158.18   51.69
  -2  -1 -11  245.98   15.10
   2   1  11  208.98   26.30
   2   1  11  248.68   60.29
  -3  -1 -11   -5.40    3.30
   3   1  11    0.90   11.70
   3   1  11  -28.90   21.20
  -4  -1 -11   43.30    8.00
   4   1  11   43.30   17.60
  -5  -1 -11   -1.00    4.30
   5   1  11   -7.60   13.20
   6  -2 -11   25.80    7.30
   5  -2 -11   82.69   11.10
  -5   2  11   62.79   42.70
   4  -2 -11   -3.90    4.10
  -4   2  11  -21.30   26.70
   3  -2 -11   65.09    9.30
  -3   2  11   72.39   42.90
   2  -2 -11    8.70    4.80
  -2   2  11   22.60   31.40
   1  -2 -11    5.00    4.60
  -1   2  11   23.20   32.50
   0  -2 -11   -4.70    3.60
   0   2  11  -14.70   22.20
  -1  -2 -11    9.10    4.80
   1   2  11   -2.60   24.40
  -2  -2 -11   28.20    6.70
   2   2  11   36.20   34.00
   2   2  11   17.50   18.90
  -3  -2 -11   11.50    5.40
   3   2  11   33.70   33.70
   3   2  11    7.30   12.80
  -4  -2 -11   52.69    8.90
   4   2  11  113.39   26.20
   5  -3 -11   25.60    7.30
  -5   3  11   -1.00   40.20
  -4   3  11   58.59   46.30
   3  -3 -11  179.48   15.10
  -3   3  11  155.48   61.69
   2  -3 -11   36.20    7.20
  -2   3  11   70.69   41.60
   1  -3 -11  314.77   17.80
  -1   3  11  189.48   62.69
   0  -3 -11  268.87   16.30
   0   3  11  181.18   56.39
  -1  -3 -11   43.20    7.50
   1   3  11   12.60   29.70
  -2  -3 -11  305.67   17.30
   2   3  11  207.58   65.09
   3   3  11    2.50   33.50
   3   3  11   22.40   17.60
   4  -4 -11    7.60    5.60
   3  -4 -11   24.10    6.80
  -3   4  11   33.40   43.90
   2  -4 -11   21.80    6.60
  -2   4  11   51.69   41.00
   1  -4 -11    0.60    4.90
  -1   4  11  -18.20   24.50
   0  -4 -11    5.40    6.70
   0   4  11  -11.90   30.50
   1   4  11  -26.80   29.70
   2   4  11   -4.10   32.90
   2   9 -12  121.79   36.10
   1   9 -12   -1.50   19.20
   0   9 -12  124.29   13.90
   0  -9  12   55.39   24.90
  -1   9 -12   24.50    6.70
   1  -9  12   24.00   22.40
  -2   9 -12    2.50    5.30
   4   8 -12   76.19   32.90
   3   8 -12   19.20   22.20
   2   8 -12   18.00   22.40
   2   8 -12   29.00    6.10
   1   8 -12    7.90   18.70
   1   8 -12   -0.10    4.10
   0   8 -12    2.40   16.60
   0   8 -12    1.90    4.30
   0  -8  12   -9.80   14.50
  -1   8 -12    2.20    4.40
   1  -8  12   13.40   17.40
  -2   8 -12    0.80    4.60
   2  -8  12    1.90   17.20
  -3   8 -12   94.69   11.80
   3  -8  12   36.00   24.10
  -5  -7  12   27.90   32.20
   4   7 -12   91.39   11.00
  -4  -7  12  101.19   42.20
   3   7 -12    3.20    4.50
  -3  -7  12   16.50   25.90
   2   7 -12  190.18   15.10
  -2  -7  12  182.58   47.90
   1   7 -12   71.19    8.80
  -1  -7  12   65.29   30.30
   0   7 -12  116.89   11.40
   0  -7  12   86.59   25.30
  -1   7 -12  268.67   15.70
   1  -7  12  195.98   36.10
  -2   7 -12    6.50    5.00
   2  -7  12   -1.60   15.70
  -3   7 -12  164.68   14.80
   3  -7  12  134.39   34.60
  -4   7 -12   16.00    6.60
   4  -7  12   10.50   23.00
   5   6 -12   61.79    9.30
  -5  -6  12   34.30   31.10
   4   6 -12   92.09   10.80
  -4  -6  12  157.18   49.80
   3   6 -12    3.80    4.30
  -3  -6  12   11.70   21.50
   2   6 -12   69.89    9.00
  -2  -6  12   69.19   34.70
   1   6 -12   -7.10    3.50
  -1  -6  12   21.70   23.20
   0   6 -12    1.00    3.70
   0  -6  12    6.30   13.40
   0  -6  12    0.30   18.00
  -1   6 -12   60.49    8.50
   1  -6  12   57.29   27.50
   1  -6  12   22.20   17.70
  -2   6 -12   16.50    5.80
   2  -6  12   21.20   19.50
  -3   6 -12   85.39   10.70
   3  -6  12   69.29   27.60
  -4   6 -12   52.09    9.00
   4  -6  12   40.10   24.50
  -5   6 -12    9.60    6.80
   6   5 -12   15.40    6.70
  -6  -5  12   20.60   28.90
   5   5 -12    4.60    5.10
  -5  -5  12   20.60   28.30
   4   5 -12   -1.90    4.10
  -4  -5  12  -16.40   18.80
   3   5 -12   44.20    7.50
  -3  -5  12   43.30   30.80
   2   5 -12   83.49   10.00
  -2  -5  12   41.40   29.40
   1   5 -12  295.37   16.50
  -1  -5  12  312.27   60.49
   0   5 -12   75.19    9.10
   0  -5  12   93.59   33.20
  -1   5 -12  395.16   19.70
   1  -5  12  352.36   56.79
   1  -5  12  329.37   41.90
  -2   5 -12   13.70    5.30
   2  -5  12   29.20   18.50
  -3   5 -12  141.49   13.40
   3  -5  12  160.88   34.80
  -4   5 -12    5.90    5.10
   4  -5  12    3.40   17.20
  -5   5 -12    6.80    5.90
   5  -5  12    9.40   19.90
   6   4 -12  108.29   12.20
  -6  -4  12  120.99   49.80
   5   4 -12    0.10    4.70
  -5  -4  12   10.60   25.90
   4   4 -12  112.09   12.10
  -4  -4  12  149.09   53.19
   3   4 -12   21.10    6.00
  -3  -4  12   22.10   29.90
   2   4 -12   13.50    5.00
  -2  -4  12    9.60   23.30
   1   4 -12   11.10    4.60
  -1  -4  12   11.70   23.60
   0   4 -12   -0.80    3.30
   0  -4  12   13.10   24.70
  -1   4 -12   67.89    8.60
   1  -4  12   77.19   22.00
   1  -4  12  106.29   39.00
  -2   4 -12    9.70    4.90
   2  -4  12  -11.00   12.50
  -3   4 -12   97.09   11.60
   3  -4  12  159.58   31.00
  -4   4 -12   99.39   12.40
   4  -4  12   80.39   25.40
  -5   4 -12  106.19   13.00
   5  -4  12  149.99   34.20
   6   3 -12    2.30    5.00
  -6  -3  12   -5.70   26.30
   5   3 -12    2.00    4.50
  -5  -3  12   -2.30   23.80
   4   3 -12   98.09   10.90
  -4  -3  12   74.69   37.80
   3   3 -12   41.20    7.40
  -3  -3  12   29.10   32.50
   2   3 -12   74.79    9.40
  -2  -3  12  111.99   46.90
   1   3 -12  137.89   12.90
  -1  -3  12   89.79   40.20
   0   3 -12    4.10    4.00
   0  -3  12  -13.00   21.10
  -1   3 -12  471.25   23.00
   1  -3  12  494.75   41.20
   1  -3  12  459.95   75.29
  -2   3 -12   -3.80    3.60
   2  -3  12  -20.90   21.40
   2  -3  12   -6.50   11.60
  -3   3 -12  192.58   15.50
   3  -3  12  117.19   26.80
  -4   3 -12   21.80    6.70
   4  -3  12    1.70   14.00
  -5   3 -12   27.50    7.50
   5  -3  12   27.20   20.40
   6   2 -12   51.89    9.00
  -6  -2  12   51.19   42.70
   5   2 -12   -5.90    4.00
  -5  -2  12   -5.50   28.20
   4   2 -12   85.69   10.20
  -4  -2  12   46.70   36.60
   3   2 -12   11.20    4.90
  -3  -2  12   -2.60   23.70
   2   2 -12    8.80    4.70
  -2  -2  12   17.30   28.80
   1   2 -12   93.69   10.40
  -1  -2  12  101.09   43.00
   0   2 -12   20.60    5.30
   0  -2  12   -2.10   25.00
  -1   2 -12  108.09   11.20
   1  -2  12  106.29   43.50
  -2   2 -12  109.39   11.30
   2  -2  12   89.39   38.90
   2  -2  12   79.19   20.90
  -3   2 -12   73.89    9.90
   3  -2  12   95.19   22.60
  -4   2 -12   89.99   11.30
   4  -2  12  113.59   26.20
  -5   2 -12   25.50    7.40
   5  -2  12   52.79   20.90
   6   1 -12   -0.40    5.10
  -6  -1  12   35.80   40.90
   5   1 -12    2.80    5.10
  -5  -1  12   37.60   38.70
   4   1 -12   35.20    7.60
  -4  -1  12   26.70   37.40
   3   1 -12   32.10    6.80
  -3  -1  12   21.00   35.40
   2   1 -12  128.79   12.40
  -2  -1  12  102.79   48.20
   1   1 -12  347.67   18.80
  -1  -1  12  329.57   72.29
   0   1 -12   53.79    8.20
   0  -1  12   16.00   33.60
  -1   1 -12  315.47   17.30
   1  -1  12  200.88   58.49
  -2   1 -12   87.99   10.70
   2  -1  12   84.09   20.90
   2  -1  12  128.89   48.30
  -3   1 -12  136.69   13.60
   3  -1  12  127.19   25.20
  -4   1 -12   50.59    8.90
   4  -1  12   25.80   18.60
  -5   1 -12   38.60    8.40
   5  -1  12    4.50   16.70
   6   0 -12   77.19   11.30
  -6   0  12   85.89   52.59
   5   0 -12    4.50    5.10
  -5   0  12  -22.40   30.10
   4   0 -12  195.08   16.20
  -4   0  12  198.28   66.59
   3   0 -12    8.30    5.20
  -3   0  12  -11.30   23.90
   2   0 -12   64.49    9.00
  -2   0  12   37.50   38.70
   1   0 -12   17.50    5.50
  -1   0  12   20.40   31.40
   0   0 -12   16.00    5.60
   0   0  12   14.60   29.30
  -1   0 -12    6.30    4.50
   1   0  12  -16.20   23.70
  -2   0 -12   14.00    5.20
   2   0  12   18.80   29.20
  -3   0 -12   15.70    6.00
   3   0  12   24.20   47.30
   3   0  12   21.80   14.80
  -4   0 -12  138.39   13.50
   4   0  12  134.79   27.30
  -5   0 -12    2.60    5.30
   5   0  12   -9.10   14.40
   5  -1 -12    6.60    5.60
  -5   1  12  -34.00   30.30
   4  -1 -12   18.40    6.30
  -4   1  12   34.70   42.50
   3  -1 -12   44.60    8.40
  -3   1  12   75.89   47.20
   2  -1 -12   48.00    7.80
  -2   1  12   43.00   40.60
   1  -1 -12  242.68   17.80
  -1   1  12  144.59   55.29
   0  -1 -12   -1.20    4.30
   0   1  12    9.20   28.90
  -1  -1 -12  212.28   16.00
   1   1  12  125.99   49.60
  -2  -1 -12   58.89    8.50
   2   1  12   89.79   45.70
  -3  -1 -12   34.50    7.70
   3   1  12   20.50   33.20
  -4  -1 -12   44.60    8.20
   4   1  12   51.19   20.20
   5  -2 -12   15.20    6.50
   4  -2 -12   30.90    8.10
  -4   2  12   41.40   45.40
   3  -2 -12  129.39   13.00
  -3   2  12   23.30   37.10
   2  -2 -12   21.30    6.50
  -2   2  12    3.50   27.60
   1  -2 -12   76.69   10.00
  -1   2  12   74.19   46.80
   0  -2 -12   25.90    6.90
   0   2  12   -9.50   26.90
  -1  -2 -12    7.50    4.80
   1   2  12    9.80   34.60
  -2  -2 -12   38.60    7.70
   2   2  12   35.30   36.50
  -3  -2 -12    9.80    5.80
   3   2  12   36.10   37.40
   3  -3 -12   -1.40    5.60
  -3   3  12   45.10   43.20
   2  -3 -12    7.00    5.60
  -2   3  12  -14.20   26.60
   1  -3 -12  111.69   12.10
  -1   3  12   97.39   50.59
   0  -3 -12   24.50    6.90
   0   3  12  -17.80   25.80
  -1  -3 -12   81.89   10.10
   1   3  12   22.20   36.80
   2   3  12    6.20   33.90
   1  -4 -12    1.70    6.70
   3   8 -13    0.90   21.20
   2   8 -13   13.70    5.50
   2   8 -13    3.70   19.90
   1   8 -13   43.50   27.20
   0   8 -13    2.10    4.50
  -1   8 -13   42.20    8.30
   1  -8  13   37.00   29.40
  -2   8 -13    8.00    5.90
   2  -8  13   25.40   22.30
   4   7 -13   -6.30    4.90
  -4  -7  13   -6.00   26.80
   3   7 -13   58.39    8.90
  -3  -7  13   55.99   37.10
   2   7 -13   34.30    7.30
  -2  -7  13   13.60   28.00
   1   7 -13   30.40    7.20
  -1  -7  13   28.60   28.00
   0   7 -13  189.28   15.90
   0  -7  13  239.78   51.59
  -1   7 -13   -5.40    4.20
  -2   7 -13  113.39   12.20
   2  -7  13  116.49   32.30
  -3   7 -13   25.70    7.20
   3  -7  13   22.70   21.20
   5   6 -13   90.99   11.50
   4   6 -13   12.50    6.00
  -4  -6  13   50.99   35.10
   3   6 -13   31.60    7.50
  -3  -6  13   27.40   27.90
   2   6 -13   23.40    6.60
  -2  -6  13   62.19   35.10
   1   6 -13    0.00    4.10
  -1  -6  13   -0.10   21.60
   0   6 -13    2.90    4.20
   0  -6  13    5.50   23.00
  -1   6 -13    8.20    5.40
  -2   6 -13   15.60    6.10
   2  -6  13   16.50   18.90
  -3   6 -13   86.19   11.60
   3  -6  13   75.59   29.30
  -4   6 -13   22.00    7.20
   5   5 -13   18.60    6.90
  -5  -5  13   14.00   31.30
   4   5 -13   34.10    7.80
  -4  -5  13   20.70   28.80
   3   5 -13   89.39   11.30
  -3  -5  13  165.18   50.49
   2   5 -13  146.99   13.40
  -2  -5  13   58.09   35.30
   1   5 -13    0.90    3.70
  -1  -5  13   19.60   29.30
   0   5 -13  373.36   20.10
   0  -5  13  347.47   65.19
  -1   5 -13   17.10    5.60
   1  -5  13   34.50   26.60
  -2   5 -13  169.58   15.20
   2  -5  13  147.29   32.90
  -3   5 -13   43.70    8.60
   3  -5  13   31.50   21.00
  -4   5 -13   15.70    6.40
   4  -5  13   26.60   23.00
   5   4 -13  119.99   12.80
  -5  -4  13    9.90   32.00
   4   4 -13  160.78   15.10
  -4  -4  13  159.38   55.79
   3   4 -13   31.60    7.30
  -3  -4  13   94.39   40.50
   2   4 -13   60.99    8.90
  -2  -4  13   67.49   38.90
   1   4 -13   -1.40    3.30
  -1  -4  13   27.50   28.50
   0   4 -13   16.30    5.40
   0  -4  13   25.80   29.80
  -1   4 -13   14.60    5.50
   1  -4  13   -2.40   24.70
  -2   4 -13   -0.90    4.10
  -3   4 -13   73.69   10.30
   3  -4  13   71.19   23.60
  -4   4 -13   22.80    7.80
   4  -4  13   13.20   18.90
   5   3 -13   31.40    7.70
  -5  -3  13   24.90   40.60
   4   3 -13    4.10    5.00
  -4  -3  13   48.20   38.30
   3   3 -13   60.69    9.00
  -3  -3  13   64.69   40.70
   2   3 -13  245.48   18.00
  -2  -3  13  260.97   67.69
   1   3 -13   16.90    5.50
  -1  -3  13   31.30   36.70
   0   3 -13  215.18   16.40
   0  -3  13  156.08   52.29
  -1   3 -13  112.89   12.00
   1  -3  13  123.99   47.60
  -2   3 -13   25.30    6.50
  -3   3 -13  110.29   12.10
   3  -3  13  165.58   32.00
  -4   3 -13   12.10    6.40
   4  -3  13   -7.80   15.50
   5   2 -13   86.89   11.40
  -5  -2  13  134.39   60.19
   4   2 -13   69.59   10.30
  -4  -2  13  139.09   58.89
   3   2 -13   11.90    5.60
  -3  -2  13   47.20   38.50
   2   2 -13  160.18   14.60
  -2  -2  13  181.08   61.19
   1   2 -13    1.40    4.30
  -1  -2  13   15.70   29.60
   0   2 -13   45.30    7.50
   0  -2  13   33.00   37.50
  -1   2 -13   -1.80    3.80
   1  -2  13  -21.80   26.10
  -2   2 -13   30.70    7.30
   2  -2  13   -4.60   33.80
  -3   2 -13   77.39   10.50
  -4   2 -13   -2.70    4.90
   4  -2  13    1.80   14.50
   5   1 -13   23.90    7.10
  -5  -1  13   20.60   40.20
   4   1 -13    9.70    5.60
  -4  -1  13   15.80   33.00
   3   1 -13   16.00    6.50
  -3  -1  13    8.50   31.10
   2   1 -13  103.39   11.80
  -2  -1  13  111.69   52.39
   1   1 -13   31.90    7.40
  -1  -1  13   39.10   37.80
   0   1 -13  238.88   17.50
   0  -1  13  219.58   62.69
  -1   1 -13   95.69   11.20
   1  -1  13   39.60   40.70
  -2   1 -13  132.39   12.90
  -3   1 -13   70.09   10.60
  -4   1 -13    5.20    5.80
   4  -1  13    3.40   27.80
   5   0 -13   27.20    7.80
  -5   0  13   63.29   55.09
   4   0 -13   98.29   12.10
  -4   0  13   48.90   48.40
   3   0 -13   -0.30    5.10
  -3   0  13   23.10   36.50
   2   0 -13  157.68   14.10
  -2   0  13  165.58   60.99
   1   0 -13    5.00    5.10
  -1   0  13  -14.90   30.10
   0   0 -13   13.20    5.90
   0   0  13   33.70   36.20
  -1   0 -13    1.00    4.00
   1   0  13    6.00   32.30
  -2   0 -13    6.30    4.90
   2   0  13   37.00   34.40
  -3   0 -13   67.09    9.60
  -4   0 -13    9.40    5.90
  -4   1  13    0.90   38.30
   3  -1 -13   32.00    7.70
  -3   1  13   36.70   41.90
   2  -1 -13  267.27   19.70
  -2   1  13  185.48   64.99
   1  -1 -13   25.00    6.60
  -1   1  13   21.70   33.80
   0  -1 -13  232.68   18.10
   0   1  13  326.37   79.59
  -1  -1 -13  154.28   13.90
   1   1  13  210.08   65.99
  -2  -1 -13   95.09   11.10
   2   1  13   78.79   43.70
  -3  -1 -13  157.68   15.00
   3  -2 -13   24.00    7.50
  -3   2  13   14.40   39.20
   2  -2 -13   82.99   11.30
  -2   2  13  104.79   53.49
   1  -2 -13   21.10    6.80
  -1   2  13   18.90   38.00
   0  -2 -13   -0.60    4.80
   0   2  13    8.30   38.30
  -1  -2 -13   -0.10    5.10
   1   2  13  -25.30   29.10
  -2  -2 -13    0.40    5.70
   2   2  13   19.00   42.40
   2   7 -14   -3.40    4.60
  -2  -7  14    2.20   24.10
   1   7 -14   69.09   10.20
  -1  -7  14  118.69   44.30
   0   7 -14   63.19   10.00
  -1   7 -14   74.09   11.00
  -2   7 -14   53.99    9.20
   3   6 -14   56.09    9.80
  -3  -6  14   55.69   39.20
   2   6 -14    5.70    5.40
  -2  -6  14   45.60   35.90
   1   6 -14    0.80    4.60
  -1  -6  14   10.30   28.10
   0   6 -14   31.10    6.90
   0  -6  14   64.79   37.00
  -1   6 -14   23.30    7.00
  -3   6 -14   13.40    6.60
   4   5 -14   19.30    7.10
  -4  -5  14    2.30   26.30
   3   5 -14   67.69   10.80
  -3  -5  14   44.70   33.80
   2   5 -14    8.10    5.50
  -2  -5  14  -11.10   25.40
   1   5 -14  245.78   18.00
  -1  -5  14  167.98   53.49
   0   5 -14  181.88   15.70
   0  -5  14  133.59   49.50
  -1   5 -14   17.90    6.20
  -2   5 -14  305.97   19.20
  -3   5 -14    1.50    5.30
   4   4 -14   14.10    6.10
  -4  -4  14   47.00   37.60
   3   4 -14   59.89    9.60
  -3  -4  14   38.00   37.50
   2   4 -14   21.70    6.40
  -2  -4  14  -16.30   26.80
   1   4 -14   97.29   11.30
  -1  -4  14  152.58   49.50
   0   4 -14   -2.40    4.40
   0  -4  14   -6.10   28.20
  -1   4 -14    4.90    4.80
  -2   4 -14   59.79    9.70
  -3   4 -14   -4.30    5.60
   4   3 -14    3.80    5.80
  -4  -3  14  -10.80   31.60
   3   3 -14   78.29   10.80
  -3  -3  14   90.79   47.50
   2   3 -14   61.79    9.60
  -2  -3  14   58.79   44.40
   1   3 -14   71.49   10.30
  -1  -3  14   67.89   44.90
   0   3 -14  269.97   17.10
   0  -3  14  318.57   71.49
  -1   3 -14   26.10    7.20
   1  -3  14   46.10   37.90
  -2   3 -14  227.98   18.20
  -3   3 -14   11.00    5.90
   4   2 -14    2.70    5.40
  -4  -2  14  -29.70   32.30
   3   2 -14  215.48   17.60
  -3  -2  14  137.49   59.49
   2   2 -14   21.10    6.80
  -2  -2  14   26.90   37.60
   1   2 -14   22.20    6.50
  -1  -2  14   20.00   38.60
   0   2 -14    6.10    5.10
   0  -2  14    0.80   37.80
  -1   2 -14   -4.90    4.20
   1  -2  14   -4.10   36.20
  -2   2 -14   18.00    6.60
  -3   2 -14    1.60    5.10
   4   1 -14   13.40    6.30
  -4  -1  14   61.89   47.80
   3   1 -14   22.90    7.70
  -3  -1  14   26.90   42.00
   2   1 -14   17.10    6.20
  -2  -1  14  -17.60   30.50
   1   1 -14   50.49    9.40
  -1  -1  14   70.29   48.50
   0   1 -14  150.78   14.20
   0  -1  14  170.08   58.39
  -1   1 -14    0.10    4.80
   1  -1  14  -18.40   30.10
  -2   1 -14  284.77   21.40
  -3   1 -14   15.00    6.90
   3   0 -14   60.99   10.00
  -3   0  14   41.80   50.09
   2   0 -14   95.49   12.00
  -2   0  14   92.29   51.69
   1   0 -14    9.90    5.70
  -1   0  14    1.70   39.50
   0   0 -14   97.79   11.70
   0   0  14   95.19   51.09
  -1   0 -14    4.90    4.90
   1   0  14    3.00   35.10
  -2   0 -14   -2.00    5.40
   2  -1 -14    4.10    5.50
  -2   1  14   -8.80   37.20
   1  -1 -14  134.09   14.10
  -1   1  14  131.19   63.79
   0  -1 -14   40.10    8.40
   0   1  14   11.80   40.60
  -1  -1 -14   17.20    7.10
   1   1  14   46.50   47.30
   1   6 -15   68.39   11.00
  -1  -6  15  184.98   57.09
   0   6 -15   -2.20    4.90
  -1   6 -15   -2.40    4.60
  -2  -5  15   44.70   39.00
   1   5 -15   89.29   11.70
  -1  -5  15  125.29   51.89
   0   5 -15    6.10    5.60
   0  -5  15   40.40   37.60
  -1   5 -15  192.58   17.00
   3   4 -15   58.29    9.80
  -3  -4  15  120.99   54.59
   2   4 -15    7.70    6.10
  -2  -4  15  -18.80   31.40
   1   4 -15   19.40    6.80
  -1  -4  15   -4.30   33.80
   0   4 -15   14.70    6.70
   0  -4  15   26.30   34.80
  -1   4 -15   10.90    5.50
  -2   4 -15   16.20    7.10
   3   3 -15    7.80    6.00
  -3  -3  15   40.40   42.00
   2   3 -15   19.60    6.40
  -2  -3  15    6.80   34.20
  -1  -3  15  107.79   54.69
   0   3 -15    2.50    5.00
   0  -3  15   32.90   37.30
  -1   3 -15  146.59   14.70
  -2   3 -15   39.30    8.20
   3   2 -15   53.29    9.50
   2   2 -15    9.80    6.40
  -2  -2  15   30.40   44.90
   1   2 -15   30.90    8.20
  -1  -2  15   13.00   37.20
   0   2 -15   14.00    6.30
   0  -2  15   -9.50   37.40
  -1   2 -15   18.80    6.90
   1  -2  15   23.20   60.29
  -2   2 -15    4.80    6.00
   2   1 -15   12.50    6.50
  -2  -1  15  -29.80   34.40
   1   1 -15   68.99   10.60
  -1  -1  15   28.00   41.90
   0   1 -15    5.10    5.90
   0  -1  15   33.50   45.70
  -1   1 -15   79.89   11.40

_computing_structure_solution     'SHELXT 2014/4 (Sheldrick, 2014)'
;
_shelx_hkl_checksum              22678
loop_
_space_group_symop_operation_xyz
'x, y, z'
'-x, -y, -z'
loop_
_atom_site_label
_atom_site_type_symbol
_atom_site_fract_x
_atom_site_fract_y
_atom_site_fract_z
_atom_site_U_iso_or_equiv
_atom_site_adp_type
_atom_site_occupancy
_atom_site_site_symmetry_order
_atom_site_calc_flag
_atom_site_refinement_flags_posn
_atom_site_refinement_flags_adp
_atom_site_refinement_flags_occupancy
_atom_site_disorder_assembly
_atom_site_disorder_group
Cs Cs 0.24345(6) -0.26700(5) 0.12550(3) 0.03546(13) Uani 1 1 d . . . . .
Ga Ga 0.83415(7) 0.75426(7) 0.83058(5) 0.01762(14) Uani 1 1 d . . . . .
Na Na 0.7893(3) 0.4094(3) 0.5486(2) 0.0306(5) Uani 1 1 d . . . . .
O3 O 0.2499(5) 0.1837(4) 0.6371(3) 0.0214(8) Uani 1 1 d . . . . .
O2 O 0.2062(5) -0.0042(5) 0.4277(3) 0.0253(8) Uani 1 1 d . . . . .
O9 O 0.3722(5) 0.6061(5) 0.8166(3) 0.0235(8) Uani 1 1 d . . . . .
O5 O 0.1625(5) 0.3023(5) 0.4706(3) 0.0231(8) Uani 1 1 d . . . . .
O11 O 0.7258(5) 0.8959(5) 0.9636(3) 0.0247(8) Uani 1 1 d . . . . .
O6 O 0.1079(5) 0.4637(5) 0.6771(3) 0.0213(8) Uani 1 1 d . . . . .
O4 O 0.1440(5) 0.1050(5) 0.2637(3) 0.0244(8) Uani 1 1 d . . . . .
O7 O 0.4291(5) 0.4215(5) 0.6129(3) 0.0238(8) Uani 1 1 d . . . . .
O8 O 0.0632(5) 0.6801(5) 0.8712(3) 0.0266(9) Uani 1 1 d . . . . .
O13 O 0.7975(6) 0.7569(5) 1.1154(3) 0.0343(10) Uani 1 1 d . . . . .
H13 H 0.779665 0.778379 1.188560 0.041 Uiso 1 1 d R U . . .
O10 O 0.6860(5) 0.5620(5) 0.7480(3) 0.0239(8) Uani 1 1 d . . . . .
O12 O 0.6175(6) 1.0088(5) 1.1641(3) 0.0366(10) Uani 1 1 d . . . . .
H12 H 0.587092 1.073761 1.124361 0.044 Uiso 1 1 d R U . . .
O1 O 0.2719(6) -0.1252(5) 0.5861(3) 0.0301(9) Uani 1 1 d D . . . .
B1 B 0.2442(8) 0.0226(8) 0.5511(5) 0.0206(12) Uani 1 1 d . . . . .
B6 B 0.7154(8) 0.8875(8) 1.0779(5) 0.0202(12) Uani 1 1 d . . . . .
B5 B 0.4946(8) 0.5313(7) 0.7249(5) 0.0187(12) Uani 1 1 d . . . . .
B4 B 0.1747(8) 0.5819(8) 0.7860(5) 0.0206(12) Uani 1 1 d . . . . .
B2 B 0.1702(8) 0.1377(8) 0.3861(5) 0.0200(12) Uani 1 1 d . . . . .
B3 B 0.2368(8) 0.3421(8) 0.5977(5) 0.0179(11) Uani 1 1 d . . . . .
H1 H 0.288(9) -0.107(8) 0.6606(14) 0.035(18) Uiso 1 1 d D . . . .
loop_
_atom_site_aniso_label
_atom_site_aniso_U_11
_atom_site_aniso_U_22
_atom_site_aniso_U_33
_atom_site_aniso_U_23
_atom_site_aniso_U_13
_atom_site_aniso_U_12
Cs 0.0385(2) 0.0303(2) 0.0358(2) 0.00963(17) -0.00646(16) 0.00520(17)
Ga 0.0159(3) 0.0202(3) 0.0160(3) 0.0042(2) 0.0034(2) 0.0019(2)
Na 0.0388(13) 0.0221(12) 0.0272(12) 0.0019(9) 0.0069(10) -0.0016(10)
O3 0.0304(19) 0.0152(19) 0.0173(17) 0.0037(14) -0.0014(14) -0.0015(15)
O2 0.039(2) 0.017(2) 0.0191(18) 0.0045(15) 0.0021(16) -0.0021(16)
O9 0.0166(17) 0.029(2) 0.0178(17) -0.0030(15) 0.0039(13) 0.0015(15)
O5 0.033(2) 0.020(2) 0.0157(17) 0.0046(15) -0.0001(15) 0.0038(16)
O11 0.031(2) 0.026(2) 0.0201(18) 0.0099(16) 0.0099(15) 0.0126(16)
O6 0.0181(17) 0.019(2) 0.0194(18) -0.0034(15) -0.0008(13) 0.0004(15)
O4 0.039(2) 0.018(2) 0.0149(17) 0.0033(15) 0.0027(15) -0.0038(16)
O7 0.0201(18) 0.024(2) 0.0206(18) -0.0029(15) 0.0083(14) -0.0059(15)
O8 0.0213(18) 0.035(2) 0.0173(18) -0.0012(16) 0.0011(14) 0.0098(16)
O13 0.054(3) 0.032(2) 0.020(2) 0.0113(17) 0.0123(18) 0.018(2)
O10 0.0160(17) 0.022(2) 0.030(2) 0.0034(16) 0.0050(14) -0.0026(15)
O12 0.049(3) 0.042(3) 0.026(2) 0.0169(19) 0.0132(18) 0.024(2)
O1 0.050(3) 0.018(2) 0.021(2) 0.0050(17) 0.0003(18) 0.0015(18)
B1 0.021(3) 0.021(3) 0.020(3) 0.006(2) 0.004(2) -0.004(2)
B6 0.017(3) 0.020(3) 0.022(3) 0.003(2) 0.006(2) 0.001(2)
B5 0.021(3) 0.013(3) 0.027(3) 0.012(2) 0.008(2) 0.005(2)
B4 0.015(3) 0.024(3) 0.021(3) 0.005(2) 0.000(2) 0.007(2)
B2 0.019(3) 0.025(3) 0.016(3) 0.006(2) 0.003(2) -0.007(2)
B3 0.021(3) 0.018(3) 0.013(2) 0.003(2) 0.001(2) 0.003(2)
loop_
_atom_type_symbol
_atom_type_description
_atom_type_scat_dispersion_real
_atom_type_scat_dispersion_imag
_atom_type_scat_source
H H 0.0000 0.0000 'International Tables Vol C Tables 4.2.6.8 and 6.1.1.4'
B B 0.0013 0.0007 'International Tables Vol C Tables 4.2.6.8 and 6.1.1.4'
Cs Cs -0.3680 2.1192 'International Tables Vol C Tables 4.2.6.8 and 6.1.1.4'
O O 0.0106 0.0060 'International Tables Vol C Tables 4.2.6.8 and 6.1.1.4'
Na Na 0.0362 0.0249 'International Tables Vol C Tables 4.2.6.8 and 6.1.1.4'
Ga Ga 0.2307 1.6083 'International Tables Vol C Tables 4.2.6.8 and 6.1.1.4'
loop_
_geom_angle_atom_site_label_1
_geom_angle_atom_site_label_2
_geom_angle_atom_site_label_3
_geom_angle
_geom_angle_site_symmetry_1
_geom_angle_site_symmetry_3
_geom_angle_publ_flag
O8 Cs O4 102.64(10) 1_544 . ?
O8 Cs O13 66.23(10) 1_544 1_444 ?
O4 Cs O13 71.65(10) . 1_444 ?
O8 Cs O10 126.39(10) 1_544 2_656 ?
O4 Cs O10 123.92(9) . 2_656 ?
O13 Cs O10 102.29(9) 1_444 2_656 ?
O8 Cs O12 106.80(10) 1_544 1_544 ?
O4 Cs O12 68.69(10) . 1_544 ?
O13 Cs O12 136.87(10) 1_444 1_544 ?
O10 Cs O12 113.44(9) 2_656 1_544 ?
O8 Cs O11 67.06(10) 1_544 2_666 ?
O4 Cs O11 50.91(9) . 2_666 ?
O13 Cs O11 89.70(9) 1_444 2_666 ?
O10 Cs O11 164.74(9) 2_656 2_666 ?
O12 Cs O11 51.85(9) 1_544 2_666 ?
O8 Cs O2 140.09(9) 1_544 . ?
O4 Cs O2 41.50(9) . . ?
O13 Cs O2 82.43(9) 1_444 . ?
O10 Cs O2 82.65(9) 2_656 . ?
O12 Cs O2 79.13(9) 1_544 . ?
O11 Cs O2 89.71(9) 2_666 . ?
O8 Cs O9 40.74(9) 1_544 1_544 ?
O4 Cs O9 122.16(9) . 1_544 ?
O13 Cs O9 106.60(9) 1_444 1_544 ?
O10 Cs O9 113.09(9) 2_656 1_544 ?
O12 Cs O9 81.42(9) 1_544 1_544 ?
O11 Cs O9 71.53(8) 2_666 1_544 ?
O2 Cs O9 158.79(9) . 1_544 ?
O8 Cs B5 135.73(12) 1_544 2_656 ?
O4 Cs B5 121.60(12) . 2_656 ?
O13 Cs B5 123.87(12) 1_444 2_656 ?
O10 Cs B5 22.20(11) 2_656 2_656 ?
O12 Cs B5 91.68(12) 1_544 2_656 ?
O11 Cs B5 143.52(11) 2_666 2_656 ?
O2 Cs B5 81.99(11) . 2_656 ?
O9 Cs B5 107.05(11) 1_544 2_656 ?
O8 Cs B6 97.73(12) 1_544 1_544 ?
O4 Cs B6 90.00(12) . 1_544 ?
O13 Cs B6 151.11(12) 1_444 1_544 ?
O10 Cs B6 106.49(11) 2_656 1_544 ?
O12 Cs B6 21.96(11) 1_544 1_544 ?
O11 Cs B6 61.52(11) 2_666 1_544 ?
O2 Cs B6 98.70(11) . 1_544 ?
O9 Cs B6 64.02(11) 1_544 1_544 ?
B5 Cs B6 84.62(13) 2_656 1_544 ?
O8 Cs B4 20.05(10) 1_544 1_544 ?
O4 Cs B4 118.22(11) . 1_544 ?
O13 Cs B4 84.43(11) 1_444 1_544 ?
O10 Cs B4 116.39(12) 2_656 1_544 ?
O12 Cs B4 99.71(11) 1_544 1_544 ?
O11 Cs B4 73.74(11) 2_666 1_544 ?
O2 Cs B4 158.89(11) . 1_544 ?
O9 Cs B4 22.37(10) 1_544 1_544 ?
B5 Cs B4 119.11(13) 2_656 1_544 ?
B6 Cs B4 85.05(13) 1_544 1_544 ?
O8 Cs B2 121.50(12) 1_544 . ?
O4 Cs B2 19.69(11) . . ?
O13 Cs B2 77.62(11) 1_444 . ?
O10 Cs B2 104.60(11) 2_656 . ?
O12 Cs B2 70.81(11) 1_544 . ?
O11 Cs B2 68.46(11) 2_666 . ?
O2 Cs B2 21.95(10) . . ?
O9 Cs B2 139.75(11) 1_544 . ?
B5 Cs B2 102.42(13) 2_656 . ?
B6 Cs B2 92.65(13) 1_544 . ?
B4 Cs B2 137.89(13) 1_544 . ?
O11 Ga O8 112.16(16) . 1_655 ?
O11 Ga O10 112.65(17) . . ?
O8 Ga O10 107.85(17) 1_655 . ?
O11 Ga O4 102.23(16) . 2_666 ?
O8 Ga O4 111.74(18) 1_655 2_666 ?
O10 Ga O4 110.20(16) . 2_666 ?
O11 Ga Na 149.37(13) . . ?
O8 Ga Na 91.68(12) 1_655 . ?
O10 Ga Na 38.58(12) . . ?
O4 Ga Na 85.27(12) 2_666 . ?
O11 Ga Cs 58.52(12) . 2_666 ?
O8 Ga Cs 120.56(12) 1_655 2_666 ?
O10 Ga Cs 130.62(12) . 2_666 ?
O4 Ga Cs 44.17(11) 2_666 2_666 ?
Na Ga Cs 125.80(4) . 2_666 ?
O11 Ga Cs 101.64(12) . 2_656 ?
O8 Ga Cs 71.46(13) 1_655 2_656 ?
O10 Ga Cs 46.38(12) . 2_656 ?
O4 Ga Cs 152.19(11) 2_666 2_656 ?
Na Ga Cs 66.93(4) . 2_656 ?
Cs Ga Cs 158.90(2) 2_666 2_656 ?
O11 Ga Cs 79.18(12) . 1_666 ?
O8 Ga Cs 33.24(11) 1_655 1_666 ?
O10 Ga Cs 119.56(12) . 1_666 ?
O4 Ga Cs 125.27(12) 2_666 1_666 ?
Na Ga Cs 120.76(4) . 1_666 ?
Cs Ga Cs 106.743(17) 2_666 1_666 ?
Cs Ga Cs 73.367(17) 2_656 1_666 ?
O1 Na O10 132.60(17) 2_656 . ?
O1 Na O5 136.37(16) 2_656 2_666 ?
O10 Na O5 85.55(14) . 2_666 ?
O1 Na O6 116.32(16) 2_656 1_655 ?
O10 Na O6 79.58(13) . 1_655 ?
O5 Na O6 86.74(13) 2_666 1_655 ?
O1 Na O7 89.60(15) 2_656 . ?
O10 Na O7 54.50(12) . . ?
O5 Na O7 101.94(15) 2_666 . ?
O6 Na O7 131.78(14) 1_655 . ?
O1 Na O5 77.78(14) 2_656 1_655 ?
O10 Na O5 130.74(14) . 1_655 ?
O5 Na O5 92.48(13) 2_666 1_655 ?
O6 Na O5 51.19(11) 1_655 1_655 ?
O7 Na O5 165.28(14) . 1_655 ?
O1 Na B5 113.13(18) 2_656 . ?
O10 Na B5 27.15(14) . . ?
O5 Na B5 92.69(16) 2_666 . ?
O6 Na B5 106.12(16) 1_655 . ?
O7 Na B5 27.42(14) . . ?
O5 Na B5 156.34(15) 1_655 . ?
O1 Na O7 94.13(13) 2_656 2_666 ?
O10 Na O7 102.54(13) . 2_666 ?
O5 Na O7 51.04(11) 2_666 2_666 ?
O6 Na O7 136.82(14) 1_655 2_666 ?
O7 Na O7 74.00(13) . 2_666 ?
O5 Na O7 114.01(12) 1_655 2_666 ?
B5 Na O7 86.91(14) . 2_666 ?
O1 Na B3 108.46(16) 2_656 2_666 ?
O10 Na B3 106.92(17) . 2_666 ?
O5 Na B3 28.67(13) 2_666 2_666 ?
O6 Na B3 108.98(16) 1_655 2_666 ?
O7 Na B3 98.73(16) . 2_666 ?
O5 Na B3 92.49(14) 1_655 2_666 ?
B5 Na B3 102.95(16) . 2_666 ?
O7 Na B3 28.45(13) 2_666 2_666 ?
O1 Na Ga 157.99(13) 2_656 . ?
O10 Na Ga 28.31(9) . . ?
O5 Na Ga 65.28(10) 2_666 . ?
O6 Na Ga 60.81(9) 1_655 . ?
O7 Na Ga 79.88(9) . . ?
O5 Na Ga 109.29(9) 1_655 . ?
B5 Na Ga 53.00(13) . . ?
O7 Na Ga 101.35(9) 2_666 . ?
B3 Na Ga 92.32(13) 2_666 . ?
O1 Na Na 108.12(15) 2_656 2_766 ?
O10 Na Na 117.34(14) . 2_766 ?
O5 Na Na 51.36(10) 2_666 2_766 ?
O6 Na Na 58.17(10) 1_655 2_766 ?
O7 Na Na 153.17(14) . 2_766 ?
O5 Na Na 41.12(9) 1_655 2_766 ?
B5 Na Na 138.33(16) . 2_766 ?
O7 Na Na 84.50(10) 2_666 2_766 ?
B3 Na Na 57.07(12) 2_666 2_766 ?
Ga Na Na 89.03(8) . 2_766 ?
O1 Na Cs 94.67(11) 2_656 2_656 ?
O10 Na Cs 47.50(10) . 2_656 ?
O5 Na Cs 128.86(11) 2_666 2_656 ?
O6 Na Cs 68.39(10) 1_655 2_656 ?
O7 Na Cs 69.65(9) . 2_656 ?
O5 Na Cs 103.51(9) 1_655 2_656 ?
B5 Na Cs 56.17(11) . 2_656 ?
O7 Na Cs 142.47(10) 2_666 2_656 ?
B3 Na Cs 154.29(13) 2_666 2_656 ?
Ga Na Cs 63.58(4) . 2_656 ?
Na Na Cs 126.56(9) 2_766 2_656 ?
B1 O3 B3 119.8(4) . . ?
B1 O2 B2 119.9(4) . . ?
B1 O2 Cs 148.7(3) . . ?
B2 O2 Cs 89.4(3) . . ?
B5 O9 B4 118.1(4) . . ?
B5 O9 Cs 152.6(3) . 1_566 ?
B4 O9 Cs 84.8(3) . 1_566 ?
B2 O5 B3 122.2(4) . . ?
B2 O5 Na 131.3(3) . 2_666 ?
B3 O5 Na 98.0(3) . 2_666 ?
B2 O5 Na 115.5(3) . 1_455 ?
B3 O5 Na 91.0(3) . 1_455 ?
Na O5 Na 87.52(13) 2_666 1_455 ?
B6 O11 Ga 131.5(3) . . ?
B6 O11 Cs 127.8(3) . 2_666 ?
Ga O11 Cs 95.08(13) . 2_666 ?
B4 O6 B3 120.9(4) . . ?
B4 O6 Na 134.8(3) . 1_455 ?
B3 O6 Na 104.0(3) . 1_455 ?
B2 O4 Ga 131.4(4) . 2_666 ?
B2 O4 Cs 111.0(3) . . ?
Ga O4 Cs 111.15(15) 2_666 . ?
B5 O7 B3 119.4(4) . . ?
B5 O7 Na 87.1(3) . . ?
B3 O7 Na 150.4(3) . . ?
B5 O7 Na 115.3(3) . 2_666 ?
B3 O7 Na 76.0(3) . 2_666 ?
Na O7 Na 106.00(13) . 2_666 ?
B4 O8 Ga 122.4(3) . 1_455 ?
B4 O8 Cs 110.0(3) . 1_566 ?
Ga O8 Cs 127.49(16) 1_455 1_566 ?
B6 O13 Cs 118.6(3) . 1_666 ?
B6 O13 H13 107.3 . . ?
Cs O13 H13 100.2 1_666 . ?
B5 O10 Ga 134.0(3) . . ?
B5 O10 Na 99.7(3) . . ?
Ga O10 Na 113.11(17) . . ?
B5 O10 Cs 95.9(3) . 2_656 ?
Ga O10 Cs 109.20(15) . 2_656 ?
Na O10 Cs 98.89(13) . 2_656 ?
B6 O12 Cs 92.5(3) . 1_566 ?
B6 O12 H12 99.4 . . ?
Cs O12 H12 105.3 1_566 . ?
B1 O1 Na 123.0(3) . 2_656 ?
B1 O1 H1 115(4) . . ?
Na O1 H1 121(4) 2_656 . ?
O3 B1 O2 122.9(5) . . ?
O3 B1 O1 120.4(5) . . ?
O2 B1 O1 116.6(5) . . ?
O11 B6 O12 121.3(5) . . ?
O11 B6 O13 122.6(5) . . ?
O12 B6 O13 116.1(5) . . ?
O11 B6 Cs 112.1(3) . 1_566 ?
O12 B6 Cs 65.6(3) . 1_566 ?
O13 B6 Cs 89.7(3) . 1_566 ?
O7 B5 O10 118.3(5) . . ?
O7 B5 O9 121.6(5) . . ?
O10 B5 O9 120.0(5) . . ?
O7 B5 Na 65.5(3) . . ?
O10 B5 Na 53.1(3) . . ?
O9 B5 Na 172.6(4) . . ?
O7 B5 Cs 106.1(3) . 2_656 ?
O10 B5 Cs 61.9(2) . 2_656 ?
O9 B5 Cs 98.5(3) . 2_656 ?
Na B5 Cs 80.87(13) . 2_656 ?
O8 B4 O6 124.2(5) . . ?
O8 B4 O9 115.6(5) . . ?
O6 B4 O9 120.1(5) . . ?
O8 B4 Cs 50.0(2) . 1_566 ?
O6 B4 Cs 151.8(4) . 1_566 ?
O9 B4 Cs 72.9(3) . 1_566 ?
O4 B2 O5 123.4(5) . . ?
O4 B2 O2 117.4(5) . . ?
O5 B2 O2 119.2(5) . . ?
O4 B2 Cs 49.3(3) . . ?
O5 B2 Cs 169.4(4) . . ?
O2 B2 Cs 68.7(3) . . ?
O5 B3 O7 109.6(4) . . ?
O5 B3 O6 108.3(4) . . ?
O7 B3 O6 110.5(4) . . ?
O5 B3 O3 112.6(4) . . ?
O7 B3 O3 107.6(4) . . ?
O6 B3 O3 108.2(4) . . ?
O5 B3 Na 53.3(2) . 2_666 ?
O7 B3 Na 75.6(3) . 2_666 ?
O6 B3 Na 83.8(3) . 2_666 ?
O3 B3 Na 164.7(4) . 2_666 ?
loop_
_geom_bond_atom_site_label_1
_geom_bond_atom_site_label_2
_geom_bond_distance
_geom_bond_site_symmetry_2
_geom_bond_publ_flag
Cs O8 2.998(3) 1_544 ?
Cs O4 3.015(4) . ?
Cs O13 3.138(4) 1_444 ?
Cs O10 3.175(4) 2_656 ?
Cs O12 3.340(5) 1_544 ?
Cs O11 3.455(4) 2_666 ?
Cs O2 3.459(4) . ?
Cs O9 3.532(4) 1_544 ?
Cs B5 3.579(5) 2_656 ?
Cs B6 3.665(6) 1_544 ?
Cs B4 3.681(6) 1_544 ?
Cs B2 3.713(6) . ?
Ga O11 1.802(4) . ?
Ga O8 1.805(3) 1_655 ?
Ga O10 1.813(4) . ?
Ga O4 1.807(3) 2_666 ?
Ga Na 3.515(2) . ?
Na O1 2.332(4) 2_656 ?
Na O10 2.383(4) . ?
Na O5 2.419(4) 2_666 ?
Na O6 2.555(4) 1_655 ?
Na O7 2.674(4) . ?
Na O5 2.873(4) 1_655 ?
Na B5 2.936(6) . ?
Na O7 2.981(4) 2_666 ?
Na B3 2.986(6) 2_666 ?
Na Na 3.675(5) 2_766 ?
O3 B1 1.353(7) . ?
O3 B3 1.481(6) . ?
O2 B1 1.367(7) . ?
O2 B2 1.388(7) . ?
O9 B5 1.386(6) . ?
O9 B4 1.407(6) . ?
O5 B2 1.372(7) . ?
O5 B3 1.447(6) . ?
O11 B6 1.338(6) . ?
O6 B4 1.356(7) . ?
O6 B3 1.468(6) . ?
O4 B2 1.340(6) . ?
O7 B5 1.354(7) . ?
O7 B3 1.466(7) . ?
O8 B4 1.343(6) . ?
O13 B6 1.372(7) . ?
O13 H13 0.8174 . ?
O10 B5 1.359(6) . ?
O12 B6 1.372(7) . ?
O12 H12 0.8165 . ?
O1 B1 1.381(7) . ?
O1 H1 0.817(10) . ?
