#------------------------------------------------------------------------------
#$Date: 2021-10-06 17:52:58 +0300 (Wed, 06 Oct 2021) $
#$Revision: 269683 $
#$URL: file:///home/coder/svn-repositories/cod/cif/7/24/33/7243379.cif $
#------------------------------------------------------------------------------
#
# This file is available in the Crystallography Open Database (COD),
# http://www.crystallography.net/
#
# All data on this site have been placed in the public domain by the
# contributors.
#
data_7243379
loop_
_publ_author_name
'Ahmad, M. Shahwaz'
'Khalid, Mohd'
'Khan, M. Shahnawaz'
'Shahid, M.'
'Ahmad, Musheer'
_publ_section_title
;
 Ni(ii)-Based one dimensional coordination polymers for environmental
 remediation: design, topology, magnetism and the selective adsorption of
 cationic dyes
;
_journal_issue                   36
_journal_name_full               CrystEngComm
_journal_page_first              6253
_journal_page_last               6266
_journal_paper_doi               10.1039/D1CE00815C
_journal_volume                  23
_journal_year                    2021
_chemical_formula_moiety         'C5 H6 N2 Ni O6'
_chemical_formula_sum            'C5 H6 N2 Ni O6'
_chemical_formula_weight         248.81
_space_group_crystal_system      triclinic
_space_group_IT_number           2
_space_group_name_Hall           '-P 1'
_space_group_name_H-M_alt        'P -1'
_symmetry_Int_Tables_number      2
_atom_sites_solution_primary     iterative
_audit_creation_date             2020-12-12
_audit_creation_method
;
Olex2 1.2
(compiled 2018.05.29 svn.r3508 for OlexSys, GUI svn.r5506)
;
_audit_update_record
;
2021-03-30 deposited with the CCDC.	2021-07-27 downloaded from the CCDC.
;
_cell_angle_alpha                105.538(2)
_cell_angle_beta                 90.512(2)
_cell_angle_gamma                111.867(2)
_cell_formula_units_Z            2
_cell_length_a                   6.8169(5)
_cell_length_b                   7.3756(5)
_cell_length_c                   8.5055(6)
_cell_measurement_reflns_used    4128
_cell_measurement_temperature    100(2)
_cell_measurement_theta_max      3.11
_cell_measurement_theta_min      2.91
_cell_volume                     379.54(5)
_computing_cell_refinement       'SAINT V8.38A (?, 2016)'
_computing_data_reduction        'SAINT V8.38A (?, 2016)'
_computing_molecular_graphics    'Olex2 (Dolomanov et al., 2009)'
_computing_publication_material  'Olex2 (Dolomanov et al., 2009)'
_computing_structure_refinement  'olex2.refine (Bourhis et al., 2015)'
_computing_structure_solution    'olex2.solve (Bourhis et al., 2015)'
_diffrn_ambient_temperature      100(2)
_diffrn_measured_fraction_theta_full 0.9641
_diffrn_measured_fraction_theta_max 0.9641
_diffrn_measurement_device_type  'Bruker APEX-II CCD'
_diffrn_measurement_method       '\f and \w scans'
_diffrn_radiation_type           'Mo K\a'
_diffrn_radiation_wavelength     0.71073
_diffrn_reflns_av_R_equivalents  0.0698
_diffrn_reflns_av_unetI/netI     0.0704
_diffrn_reflns_limit_h_max       9
_diffrn_reflns_limit_h_min       -9
_diffrn_reflns_limit_k_max       9
_diffrn_reflns_limit_k_min       -9
_diffrn_reflns_limit_l_max       11
_diffrn_reflns_limit_l_min       -11
_diffrn_reflns_number            5276
_diffrn_reflns_theta_full        25.0383
_diffrn_reflns_theta_max         25.04
_diffrn_reflns_theta_min         3.11
_exptl_absorpt_coefficient_mu    2.563
_exptl_absorpt_correction_T_max  0.7457
_exptl_absorpt_correction_T_min  0.4204
_exptl_absorpt_correction_type   multi-scan
_exptl_absorpt_process_details
;
SADABS-2016/2 (Bruker,2016/2) was used for absorption correction.
wR2(int) was 0.2016 before and 0.0878 after correction.
The Ratio of minimum to maximum transmission is 0.5638.
The \l/2 correction factor is Not present.
;
_exptl_crystal_colour            green
_exptl_crystal_colour_primary    green
_exptl_crystal_density_diffrn    2.1770
_exptl_crystal_description       needle
_exptl_crystal_F_000             252.8616
_exptl_crystal_size_max          0.29
_exptl_crystal_size_mid          0.2
_exptl_crystal_size_min          0.16
_refine_diff_density_max         0.7415
_refine_diff_density_min         -0.7932
_refine_diff_density_rms         0.1565
_refine_ls_d_res_high            0.8397
_refine_ls_d_res_low             6.5461
_refine_ls_extinction_expression Fc^*^=kFc[1+0.001xFc^2^\l^3^/sin(2\q)]^-1/4^
_refine_ls_goodness_of_fit_ref   1.0670
_refine_ls_hydrogen_treatment    mixed
_refine_ls_matrix_type           full
_refine_ls_number_constraints    7
_refine_ls_number_parameters     137
_refine_ls_number_reflns         1290
_refine_ls_number_restraints     0
_refine_ls_restrained_S_all      1.0670
_refine_ls_R_factor_all          0.0421
_refine_ls_R_factor_gt           0.0404
_refine_ls_shift/su_max          0.0007
_refine_ls_shift/su_mean         0.0001
_refine_ls_structure_factor_coef Fsqd
_refine_ls_weighting_details
'w=1/[\s^2^(Fo^2^)+(0.0500P)^2^+0.6606P] where P=(Fo^2^+2Fc^2^)/3'
_refine_ls_weighting_scheme      calc
_refine_ls_wR_factor_gt          0.1039
_refine_ls_wR_factor_ref         0.1059
_reflns_Friedel_coverage         0.0
_reflns_limit_h_max              8
_reflns_limit_h_min              -8
_reflns_limit_k_max              8
_reflns_limit_k_min              -8
_reflns_limit_l_max              10
_reflns_limit_l_min              0
_reflns_number_gt                1215
_reflns_number_total             1290
_reflns_threshold_expression     I>=2u(I)
_iucr_refine_instructions_details
;
TITL SH56_a.res in P-1
REM Old TITL SH56 in P-1
REM SHELXT solution in P-1
REM R1 0.088, Rweak 0.009, Alpha 0.071, Orientation as input
REM Formula found by SHELXT: C7 Cu N5 O
CELL 0.71073 6.8169 7.3756 8.5055 105.538 90.512 111.867
ZERR 2 0.0005 0.0005 0.0006 0.002 0.002 0.002
LATT 1
SFAC C H N Ni O
UNIT 10 12 4 2 12

L.S. 10
PLAN  20
SIZE 0.29 0.2 0.16
TEMP -173(2)
BOND $H
FMAP 2
ACTA 
EXTI 0.066105
OMIT -3 50.1
OMIT 0 0 1
WGHT 0.049998 0.660565
FVAR 1.284231
REM <olex2.extras>
REM <HklSrc "%.\\SH56_a.hkl">
REM </olex2.extras>

Ni1   4     0.20464  0.21554  1.05650  11.00000  0.00345  0.01007  0.00574 =
 0.00136  0.00117  0.00254 
O1    5     0.24018  0.19694  0.82129  11.00000  0.00779  0.01393  0.00744 =
 0.00220  0.00098  0.00414 
O2    5    -0.05167  0.23499  0.73462  11.00000  0.00623  0.01309  0.01020 =
 0.00192  0.00186  0.00398 
O3    5     0.75102  0.25920  0.27850  11.00000  0.00561  0.01836  0.00979 =
 0.00327  0.00181  0.00661 
O4    5     0.51797  0.27003  0.10095  11.00000  0.00534  0.01398  0.00799 =
 0.00251  0.00170  0.00373 
O5    5    -0.12317  0.10606  1.00167  11.00000  0.00574  0.01075  0.00676 =
 0.00315  0.00234  0.00292 
O6    5     0.24439  0.51360  1.10078  11.00000  0.01209  0.01189  0.01234 =
 0.00414  0.00581  0.00328 
AFIX 7
H6a   2     0.32849  0.56619  1.03732  11.00000 -1.50000 
H6b   2     0.30891  0.58115  1.19692  11.00000 -1.50000 
AFIX 0
N2    3     0.11096  0.23839  0.42892  11.00000  0.00464  0.00998  0.00804 =
 0.00148  0.00205  0.00264 
AFIX 43
H2    2    -0.01844  0.23756  0.42556  11.00000 -1.20000 
AFIX 0
N1    3     0.22699  0.24376  0.30338  11.00000  0.00500  0.00760  0.00730 =
 -0.00043 -0.00025  0.00129 
C1    1     0.12730  0.22339  0.71871  11.00000  0.00717  0.00717  0.00800 =
 -0.00054  0.00007 -0.00031 
C2    1     0.21842  0.23435  0.56290  11.00000  0.00777  0.00672  0.00907 =
 -0.00040 -0.00187  0.00299 
C3    1     0.41493  0.23846  0.51973  11.00000  0.00657  0.00951  0.00886 =
 0.00156  0.00025  0.00263 
AFIX 43
H3    2     0.52646  0.23645  0.58614  11.00000 -1.20000 
AFIX 0
C4    1     0.41394  0.24614  0.35881  11.00000  0.00391  0.00835  0.01017 =
 -0.00028  0.00157  0.00224 
C5    1     0.57535  0.26023  0.24009  11.00000  0.00682  0.00684  0.00772 =
 -0.00018  0.00087  0.00078 
H5a   2    -0.11780  0.14205  0.92523  11.00000  0.01254 
H5b   2    -0.14559  0.16069  1.08748  11.00000  0.04604 
HKLF 4

END
Q1 1 0.166667 0.583333 1.16 11 0.05 0.74
Q2 1 0.166667 0.291667 0.96 11 0.05 0.67
Q3 1 0.25 0.166667 0.96 11 0.05 0.64
Q4 1 0.333333 0.375 1.04 11 0.05 0.57
Q5 1 0.166667 0.291667 1.16 11 0.05 0.55
Q6 1 0.125 0.083333 1.08 11 0.05 0.52
Q7 1 0.166667 0.25 0.64 11 0.05 0.5
Q8 1 0.5 0.5 1 11 0.05 0.5
Q9 1 0.5 0.25 0.32 11 0.05 0.42
Q10 1 0.166667 0.291667 0.52 11 0.05 0.4
Q11 1 -0.083333 -0.041667 1.12 11 0.05 0.4
Q12 1 -0.083333 0.291667 0.84 11 0.05 0.38
Q13 1 0.416667 0.166667 0.4 11 0.05 0.38
Q14 1 0.291667 0.583333 1.08 11 0.05 0.38
Q15 1 0.416667 0.5 1.28 11 0.05 0.38
Q16 1 0.625 0.125 0.28 11 0.05 0.35
Q17 1 0.333333 0.708333 1.28 11 0.05 0.34
Q18 1 0.458333 0.708333 1.04 11 0.05 0.34
Q19 1 -0.166667 0.333333 0.6 11 0.05 0.33
Q20 1 0.708333 0.416667 0.24 11 0.05 0.32

  REM The information below was added by Olex2.
  REM
  REM R1 = 0.0404 for 1215 Fo > 4sig(Fo) and 0.0421 for all 1290 data
  REM 137 parameters refined using 0 restraints
  REM Highest difference peak 0.7415, deepest hole -0.7932
  REM Mean Shift 0.0001, Max Shift 0.0007.

  REM +++ Tabular Listing of Refinement Information +++
  REM R1_all = 0.0421
  REM R1_gt = 0.0404
  REM wR_ref = 0.1059
  REM GOOF = 1.0670
  REM Shift_max = 0.0007
  REM Shift_mean = 0.0001
  REM Reflections_all = 1290
  REM Reflections_gt = 1215
  REM Parameters = 137
  REM Hole = -0.7932
  REM Peak = 0.7415
  REM Flack = n/a

  
;
_cod_data_source_file            d1ce00815c2.cif
_cod_data_source_block           SH56_a
_cod_depositor_comments
'Adding full bibliography for 7243379--7243380.cif.'
_cod_database_code               7243379
_olex2_refinement_description
;
1. Fixed Uiso
 At 1.2 times of:
  All C(H) groups, All N(H) groups
 At 1.5 times of:
  All O(H,H) groups
2.a Rotating group:
 O6(H6a,H6b)
2.b Aromatic/amide H refined with riding coordinates:
 N2(H2), C3(H3)
;
_iucr_refine_fcf_details
;
data_SH56_a_CCDC1
_computing_structure_refinement   'olex2.refine (Bourhis et al., 2015)'
_shelx_refln_list_code            4
loop_
  _space_group_symop_id
  _space_group_symop_operation_xyz
  1  x,y,z
  2  -x,-y,-z

_space_group_crystal_system       triclinic
_space_group_IT_number            2
_space_group_name_H-M_alt         'P -1'
_space_group_name_Hall            '-P 1'
_symmetry_space_group_name_H-M    'P -1'
_symmetry_space_group_name_Hall   '-P 1'
_symmetry_Int_Tables_number       2
_cell_length_a                    6.8169(5)
_cell_length_b                    7.3756(5)
_cell_length_c                    8.5055(6)
_cell_angle_alpha                 105.538(2)
_cell_angle_beta                  90.512(2)
_cell_angle_gamma                 111.867(2)
_cell_volume                      379.54(5)
loop_
  _refln_index_h
  _refln_index_k
  _refln_index_l
  _refln_F_squared_calc
  _refln_F_squared_meas
  _refln_F_squared_sigma
  _refln_F_squared_weight
  _refln_observed_status
-8 2 1 176.324 163.291 12.785 9.789 o
-8 3 1 276.809 240.455 17.647 5.195 o
-8 4 1 49.634 35.663 5.671 51.339 o
-7 -1 1 215.506 186.033 16.013 6.899 o
-7 -1 2 318.963 299.926 23.274 3.462 o
-7 -1 3 454.709 411.514 30.254 2.032 o
-7 0 1 188.981 174.679 15.370 7.760 o
-7 0 2 62.086 57.524 7.691 31.718 o
-7 0 3 200.883 196.081 16.384 6.881 o
-7 0 4 95.271 104.372 20.585 6.700 o
-7 1 1 432.343 417.871 25.136 2.506 o
-7 1 2 891.922 937.681 62.165 0.527 o
-7 1 3 1070.140 1004.220 66.699 0.436 o
-7 1 4 1281.490 1614.470 111.203 0.189 o
-7 1 5 333.585 401.750 27.488 2.626 o
-7 2 1 453.102 454.648 26.671 2.253 o
-7 2 2 308.151 288.588 18.670 4.432 o
-7 2 3 604.447 558.471 40.377 1.190 o
-7 2 4 8.733 4.469 3.406 207.457 o
-7 2 5 59.040 61.556 7.193 34.270 o
-7 3 1 11.065 8.511 2.516 257.653 o
-7 3 2 166.150 156.313 11.784 10.986 o
-7 3 3 274.016 242.708 16.428 5.563 o
-7 3 4 659.504 613.931 36.309 1.235 o
-7 4 1 727.265 720.382 40.382 1.004 o
-7 4 2 753.571 727.698 40.945 0.966 o
-7 4 3 942.057 871.344 49.287 0.668 o
-7 4 4 63.294 72.379 7.930 29.194 o
-7 5 1 0.801 -0.371 1.387 1508.080 o
-7 5 2 68.771 66.795 7.557 30.220 o
-7 5 3 57.663 60.984 7.080 35.212 o
-7 6 1 204.731 190.125 15.863 7.106 o
-7 6 2 275.276 258.204 20.589 4.384 o
-6 -3 1 223.568 214.832 13.659 7.568 o
-6 -3 2 15.251 15.165 6.062 72.512 o
-6 -3 3 274.489 258.667 15.753 5.659 o
-6 -2 1 1418.840 1358.830 71.133 0.316 o
-6 -2 2 1220.770 1277.950 102.071 0.228 o
-6 -2 3 205.022 206.228 14.337 7.691 o
-6 -2 4 686.884 676.572 43.406 0.981 o
-6 -2 5 279.286 296.261 24.570 3.454 o
-6 -1 1 710.522 715.294 48.207 0.846 o
-6 -1 2 51.224 50.205 5.820 46.459 o
-6 -1 3 4.845 2.978 1.995 504.130 o
-6 -1 4 0.212 2.025 1.765 940.241 o
-6 -1 5 22.060 23.216 8.506 38.852 o
-6 -1 6 34.002 32.962 4.647 73.633 o
-6 0 1 783.631 768.338 51.681 0.731 o
-6 0 2 947.003 977.709 64.072 0.489 o
-6 0 3 198.006 200.484 18.703 5.924 o
-6 0 4 1109.990 1126.290 82.423 0.323 o
-6 0 5 635.312 631.339 60.241 0.680 o
-6 0 6 139.115 144.115 13.631 10.464 o
-6 1 1 1572.480 1785.010 118.398 0.157 o
-6 1 2 244.253 219.761 17.276 5.787 o
-6 1 3 12.807 16.672 3.033 180.760 o
-6 1 4 53.760 65.239 6.520 38.675 o
-6 1 5 9.831 8.883 2.412 278.688 o
-6 1 6 35.654 40.718 5.887 54.706 o
-6 2 1 494.448 482.737 27.492 2.043 o
-6 2 2 365.801 380.846 22.945 3.081 o
-6 2 3 8.914 4.073 1.970 388.805 o
-6 2 4 321.593 345.636 25.386 3.031 o
-6 2 5 215.510 221.934 17.651 5.989 o
-6 2 6 75.683 83.749 7.516 27.795 o
-6 3 1 844.540 824.262 44.904 0.795 o
-6 3 2 189.846 163.664 11.693 10.155 o
-6 3 3 110.678 91.935 7.880 21.701 o
-6 3 4 434.745 419.109 25.607 2.453 o
-6 3 5 34.194 45.614 5.887 54.224 o
-6 3 6 1.352 -2.028 1.686 999.085 o
-6 4 1 222.870 215.673 14.436 7.225 o
-6 4 2 167.487 146.551 11.160 11.648 o
-6 4 3 5.109 7.062 2.213 391.073 o
-6 4 4 430.324 447.344 26.984 2.304 o
-6 4 5 436.628 468.757 29.252 2.081 o
-6 5 1 928.223 926.790 51.157 0.638 o
-6 5 2 194.695 200.696 20.138 5.435 o
-6 5 3 100.635 107.452 11.237 15.567 o
-6 5 4 493.888 486.814 32.032 1.758 o
-6 6 1 69.269 60.322 6.790 34.062 o
-6 6 2 7.580 7.214 2.498 303.887 o
-6 6 3 282.912 278.031 18.687 4.689 o
-6 7 1 554.309 535.970 32.616 1.578 o
-6 7 2 169.391 188.352 17.530 6.864 o
-5 -4 1 70.784 68.279 5.477 38.853 o
-5 -4 2 1.505 1.374 2.395 512.209 o
-5 -4 3 39.942 44.554 3.953 72.595 o
-5 -4 4 24.676 30.083 3.258 115.065 o
-5 -3 1 771.294 844.518 42.540 0.877 o
-5 -3 2 195.160 205.818 11.366 9.566 o
-5 -3 3 216.639 219.140 12.706 8.117 o
-5 -3 4 1893.210 1938.930 122.294 0.136 o
-5 -3 5 114.217 95.388 11.820 14.307 o
-5 -3 6 1.370 5.990 2.406 444.424 o
-5 -2 1 232.572 235.966 15.130 6.610 o
-5 -2 2 22.677 25.416 3.941 105.714 o
-5 -2 3 6.388 7.128 3.098 243.840 o
-5 -2 4 41.440 51.458 5.703 51.191 o
-5 -2 5 40.111 26.068 6.485 50.090 o
-5 -2 6 3.202 0.857 3.189 291.593 o
-5 -2 7 328.219 334.118 45.230 1.355 o
-5 -1 1 90.744 103.969 8.109 22.719 o
-5 -1 2 28.584 28.283 3.997 93.308 o
-5 -1 3 33.229 34.369 4.704 72.867 o
-5 -1 4 1681.750 1740.560 91.225 0.206 o
-5 -1 5 87.701 84.175 8.238 23.904 o
-5 -1 6 55.671 52.047 6.505 40.088 o
-5 -1 7 204.137 156.889 28.677 3.318 o
-5 0 1 319.976 319.997 22.998 3.449 o
-5 0 2 236.832 228.926 14.712 6.760 o
-5 0 3 157.202 150.614 10.604 12.498 o
-5 0 4 494.760 527.764 30.080 1.829 o
-5 0 5 31.571 28.026 6.733 50.739 o
-5 0 6 61.605 57.396 17.068 10.101 o
-5 0 7 813.867 674.847 62.325 0.586 o
-5 0 8 372.996 317.942 56.656 0.914 o
-5 1 1 93.548 101.519 12.898 13.578 o
-5 1 2 1.684 0.992 1.059 1646.560 o
-5 1 3 301.188 327.094 20.675 3.940 o
-5 1 4 2079.760 2260.700 137.946 0.108 o
-5 1 5 113.080 141.768 13.627 11.291 o
-5 1 6 135.572 160.929 13.970 10.042 o
-5 1 7 531.234 547.321 40.705 1.258 o
-5 2 1 114.424 119.664 8.600 18.630 o
-5 2 2 187.396 181.808 12.259 9.574 o
-5 2 3 329.251 353.363 19.198 3.923 o
-5 2 4 1237.300 1305.230 60.344 0.407 o
-5 2 5 37.915 43.167 5.076 61.465 o
-5 2 6 42.126 41.297 4.640 64.158 o
-5 2 7 156.719 189.855 20.022 5.903 o
-5 3 1 65.629 57.357 5.494 42.107 o
-5 3 2 296.786 300.430 18.178 4.586 o
-5 3 3 14.494 13.014 2.633 206.083 o
-5 3 4 1079.470 1046.570 57.284 0.502 o
-5 3 5 142.277 151.034 10.290 13.501 o
-5 3 6 506.012 592.217 30.385 1.725 o
-5 3 7 1339.910 1572.240 74.510 0.299 o
-5 4 1 524.973 497.770 28.622 1.882 o
-5 4 2 1016.540 1033.110 55.484 0.540 o
-5 4 3 1185.310 1231.330 65.851 0.393 o
-5 4 4 2039.920 2185.130 125.498 0.123 o
-5 4 5 133.981 151.182 11.126 12.972 o
-5 4 6 148.390 141.522 11.290 12.389 o
-5 5 1 232.891 236.752 15.694 6.386 o
-5 5 2 569.377 547.388 31.772 1.583 o
-5 5 3 65.474 59.327 6.071 38.691 o
-5 5 4 113.302 120.699 17.546 8.223 o
-5 5 5 13.380 5.445 3.013 208.812 o
-5 6 1 4.813 4.021 1.976 493.512 o
-5 6 2 159.678 149.047 11.047 12.009 o
-5 6 3 378.939 348.414 21.827 3.242 o
-5 6 4 1223.800 1202.860 66.288 0.386 o
-5 7 1 525.565 530.785 31.786 1.673 o
-5 7 2 988.713 935.325 53.136 0.590 o
-5 7 3 259.552 256.639 17.572 5.313 o
-4 -5 1 120.996 134.246 8.945 16.994 o
-4 -5 2 49.943 49.157 4.488 58.112 o
-4 -5 3 33.299 27.333 3.428 98.502 o
-4 -5 4 13.503 10.330 9.269 36.352 o
-4 -5 5 21.503 31.125 15.384 13.499 o
-4 -4 1 22.614 19.052 2.776 149.338 o
-4 -4 2 162.088 179.374 9.452 12.695 o
-4 -4 3 245.965 261.867 18.254 5.229 o
-4 -4 4 1043.580 1081.870 58.568 0.497 o
-4 -4 5 186.859 190.598 38.772 2.002 o
-4 -4 6 254.788 233.436 13.893 6.738 o
-4 -4 7 5.269 5.326 1.673 539.944 o
-4 -3 1 514.715 549.029 24.359 2.104 o
-4 -3 2 221.449 248.128 12.266 7.894 o
-4 -3 3 14.393 13.948 2.644 203.195 o
-4 -3 4 72.600 66.511 7.487 29.847 o
-4 -3 5 142.695 135.902 13.821 10.315 o
-4 -3 6 527.013 503.606 56.265 0.821 o
-4 -3 7 499.323 461.952 38.894 1.416 o
-4 -3 8 415.003 369.685 38.590 1.596 o
-4 -2 1 41.219 50.279 4.790 60.221 o
-4 -2 2 426.766 439.905 25.037 2.496 o
-4 -2 3 544.185 521.982 36.346 1.434 o
-4 -2 4 1184.130 1187.670 77.602 0.333 o
-4 -2 5 201.187 218.839 24.038 4.181 o
-4 -2 6 470.198 458.297 40.288 1.389 o
-4 -2 7 127.782 97.414 9.389 17.138 o
-4 -2 8 117.194 112.735 19.463 7.030 o
-4 -1 1 362.420 423.368 23.972 2.878 o
-4 -1 2 411.756 466.361 26.234 2.395 o
-4 -1 3 137.860 134.357 9.225 15.470 o
-4 -1 4 1315.530 1308.100 84.965 0.277 o
-4 -1 5 11.422 7.584 4.903 110.846 o
-4 -1 6 226.538 208.387 26.827 3.482 o
-4 -1 7 419.838 389.661 31.436 2.047 o
-4 -1 8 552.985 484.556 79.272 0.468 o
-4 0 1 534.153 604.621 33.551 1.513 o
-4 0 2 512.588 582.823 31.985 1.640 o
-4 0 3 1193.360 1204.260 63.468 0.409 o
-4 0 4 2102.710 2086.690 182.580 0.075 o
-4 0 5 938.811 913.431 71.148 0.438 o
-4 0 6 1588.870 1575.480 153.722 0.111 o
-4 0 7 686.838 512.488 47.531 0.938 o
-4 0 8 465.486 511.120 68.174 0.620 o
-4 1 1 1590.950 1617.620 102.033 0.192 o
-4 1 2 1810.950 2049.370 118.273 0.142 o
-4 1 3 904.315 994.564 52.584 0.617 o
-4 1 4 2541.520 2914.180 148.963 0.082 o
-4 1 5 67.830 63.359 11.304 18.817 o
-4 1 6 33.849 38.391 5.469 60.923 o
-4 1 7 38.618 48.586 6.526 46.003 o
-4 1 8 47.106 43.065 9.599 26.927 o
-4 2 1 1009.400 1145.860 72.814 0.391 o
-4 2 2 31.336 48.019 4.584 70.427 o
-4 2 3 62.603 76.238 5.546 39.776 o
-4 2 4 157.182 170.523 10.265 12.384 o
-4 2 5 87.136 88.175 6.509 28.805 o
-4 2 6 854.422 935.590 45.446 0.749 o
-4 2 7 558.084 643.368 34.272 1.419 o
-4 2 8 591.304 754.717 38.612 1.161 o
-4 3 1 333.151 308.702 20.853 3.761 o
-4 3 2 1513.080 1481.030 77.059 0.273 o
-4 3 3 1420.160 1391.290 73.001 0.306 o
-4 3 4 3238.130 3782.880 166.922 0.058 o
-4 3 5 254.165 280.425 15.416 5.882 o
-4 3 6 34.976 45.176 4.583 68.675 o
-4 3 7 11.954 12.569 2.714 217.918 o
-4 4 1 1740.660 1823.090 97.681 0.185 o
-4 4 2 76.006 87.075 6.912 29.544 o
-4 4 3 6.604 7.299 1.831 430.322 o
-4 4 4 2.253 8.327 2.091 474.232 o
-4 4 5 32.816 38.847 4.697 71.430 o
-4 4 6 558.827 607.266 35.857 1.379 o
-4 4 7 258.221 266.474 18.197 5.099 o
-4 5 1 15.822 18.797 2.989 165.595 o
-4 5 2 423.051 441.087 31.629 1.970 o
-4 5 3 270.579 256.703 16.433 5.519 o
-4 5 4 1023.590 1042.100 57.202 0.520 o
-4 5 5 6.969 6.072 1.905 421.723 o
-4 5 6 29.047 30.621 6.959 48.982 o
-4 6 1 501.205 497.680 29.583 1.877 o
-4 6 2 106.582 96.928 7.900 21.830 o
-4 6 3 113.682 120.217 9.357 17.384 o
-4 6 4 113.131 108.134 8.705 19.038 o
-4 6 5 1.517 0.494 2.875 379.880 o
-4 7 1 7.886 7.664 2.325 320.493 o
-4 7 2 258.134 249.827 16.718 5.622 o
-4 7 3 208.955 220.428 14.983 7.185 o
-4 8 1 256.615 234.923 16.504 5.798 o
-3 -6 1 149.599 162.798 18.451 6.852 o
-3 -6 2 81.284 78.047 6.125 32.240 o
-3 -6 3 75.868 70.312 6.551 32.569 o
-3 -6 4 121.624 128.595 21.948 5.707 o
-3 -6 5 233.954 259.633 32.505 2.519 o
-3 -5 1 13.717 19.541 2.596 194.179 o
-3 -5 2 342.356 347.175 28.448 2.579 o
-3 -5 3 247.344 271.241 25.978 3.414 o
-3 -5 4 576.044 640.461 38.284 1.248 o
-3 -5 5 338.026 337.095 24.471 3.104 o
-3 -5 6 154.804 154.227 12.087 11.156 o
-3 -5 7 15.032 34.935 11.325 23.902 o
-3 -4 1 399.556 428.795 21.839 2.946 o
-3 -4 2 540.686 569.097 33.326 1.540 o
-3 -4 3 14.821 14.790 2.827 187.499 o
-3 -4 4 0.040 -0.538 0.593 9285.540 o
-3 -4 5 175.303 175.876 10.509 11.326 o
-3 -4 6 556.537 502.660 27.224 1.886 o
-3 -3 1 34.151 41.010 3.114 92.653 o
-3 -3 2 1324.470 1392.560 64.143 0.360 o
-3 -3 3 1594.020 1638.640 91.647 0.216 o
-3 -3 4 2125.710 1976.800 134.379 0.114 o
-3 -3 5 1161.920 1071.730 56.165 0.484 o
-3 -3 6 522.857 452.847 24.808 2.190 o
-3 -3 7 101.520 78.420 5.237 30.841 o
-3 -3 8 28.080 25.897 4.605 83.506 o
-3 -3 9 13.142 55.534 22.919 6.302 o
-3 -2 1 896.756 860.909 40.388 0.823 o
-3 -2 2 1378.550 1449.510 99.807 0.217 o
-3 -2 3 217.682 201.461 15.412 7.007 o
-3 -2 4 264.683 292.109 16.703 5.308 o
-3 -2 5 5.300 3.796 2.599 344.161 o
-3 -2 6 47.203 39.748 3.218 76.540 o
-3 -2 7 18.640 34.472 13.713 16.737 o
-3 -2 8 804.628 730.102 102.550 0.274 o
-3 -2 9 193.290 157.092 21.128 5.301 o
-3 -1 1 406.515 462.824 20.616 2.967 o
-3 -1 2 320.061 359.851 25.034 3.055 o
-3 -1 3 559.137 577.226 38.751 1.285 o
-3 -1 4 1119.480 1056.480 68.611 0.407 o
-3 -1 5 955.891 871.210 57.521 0.566 o
-3 -1 6 913.442 767.741 51.462 0.675 o
-3 -1 7 472.126 400.610 46.079 1.176 o
-3 -1 8 427.891 387.567 28.364 2.279 o
-3 -1 9 49.567 46.513 12.650 17.355 o
-3 0 1 1275.320 1337.700 60.226 0.396 o
-3 0 2 4064.690 4757.100 242.291 0.032 o
-3 0 3 1802.090 1753.870 110.976 0.160 o
-3 0 4 1521.850 1601.290 101.751 0.198 o
-3 0 5 170.259 164.658 13.187 9.651 o
-3 0 6 6.897 7.465 5.544 96.682 o
-3 0 7 8.688 13.102 7.043 60.732 o
-3 0 8 650.896 668.519 46.133 0.944 o
-3 0 9 93.010 87.452 9.225 20.687 o
-3 1 1 942.519 1041.100 53.981 0.579 o
-3 1 2 248.302 303.291 17.061 5.328 o
-3 1 3 262.907 267.879 15.481 5.830 o
-3 1 4 202.178 211.628 15.887 6.964 o
-3 1 5 165.581 188.613 14.590 8.540 o
-3 1 6 286.460 294.832 21.830 3.919 o
-3 1 7 114.725 151.050 11.980 12.843 o
-3 1 8 274.313 290.634 22.317 3.911 o
-3 1 9 41.643 33.772 7.758 38.277 o
-3 2 1 55.047 79.726 5.040 44.503 o
-3 2 2 1154.440 1311.820 59.011 0.434 o
-3 2 3 416.338 376.532 18.737 3.357 o
-3 2 4 789.284 840.938 39.526 0.923 o
-3 2 5 182.707 187.049 13.233 9.006 o
-3 2 6 45.946 54.209 5.844 47.556 o
-3 2 7 81.931 77.608 7.501 27.349 o
-3 2 8 134.344 143.324 11.809 12.390 o
-3 3 1 961.483 945.726 49.884 0.636 o
-3 3 2 25.608 17.514 2.308 157.812 o
-3 3 3 21.525 28.646 3.139 126.934 o
-3 3 4 6.682 15.426 2.174 304.165 o
-3 3 5 115.578 127.139 7.896 19.423 o
-3 3 6 563.386 637.464 31.610 1.526 o
-3 3 7 338.981 413.680 21.976 3.259 o
-3 3 8 651.046 766.443 43.098 0.981 o
-3 4 1 3.468 -0.483 0.531 1884.630 o
-3 4 2 1577.570 1648.470 74.392 0.264 o
-3 4 3 627.521 664.694 32.206 1.383 o
-3 4 4 725.918 781.562 43.251 0.917 o
-3 4 5 196.038 205.348 13.417 8.366 o
-3 4 6 86.067 86.614 7.001 27.579 o
-3 4 7 155.199 147.926 10.818 12.435 o
-3 5 1 111.339 104.909 7.810 21.088 o
-3 5 2 6.258 4.754 1.296 617.336 o
-3 5 3 72.476 60.448 5.399 39.908 o
-3 5 4 179.960 157.970 9.529 12.301 o
-3 5 5 0.276 -1.441 1.505 1439.190 o
-3 5 6 117.136 114.787 10.012 16.288 o
-3 6 1 92.067 78.936 6.733 28.053 o
-3 6 2 350.328 344.309 21.129 3.507 o
-3 6 3 100.189 101.587 9.217 19.438 o
-3 6 4 353.648 356.933 28.926 2.480 o
-3 6 5 294.219 282.327 32.951 2.309 o
-3 7 1 363.163 341.817 21.572 3.377 o
-3 7 2 342.872 342.398 21.224 3.540 o
-3 7 3 477.311 473.688 37.300 1.512 o
-3 8 1 112.814 104.866 8.867 18.907 o
-2 -7 2 21.368 26.937 5.311 76.522 o
-2 -7 3 260.772 280.636 26.854 3.192 o
-2 -7 4 63.001 74.171 6.993 33.004 o
-2 -6 1 534.429 568.056 28.523 1.791 o
-2 -6 2 643.397 665.952 39.180 1.136 o
-2 -6 3 367.361 397.166 25.308 2.758 o
-2 -6 4 444.814 489.319 30.447 1.954 o
-2 -6 5 806.424 881.753 67.196 0.506 o
-2 -6 6 17.053 25.395 21.765 7.044 o
-2 -6 7 4.736 7.580 6.471 75.163 o
-2 -5 1 943.743 939.330 52.765 0.611 o
-2 -5 2 127.649 133.769 9.814 15.338 o
-2 -5 3 93.329 90.879 10.088 18.646 o
-2 -5 4 95.590 94.563 8.593 21.550 o
-2 -5 5 13.740 11.931 3.321 170.627 o
-2 -5 7 37.499 141.507 30.796 3.405 o
-2 -4 1 70.073 64.430 5.533 39.366 o
-2 -4 2 385.360 381.926 23.210 2.958 o
-2 -4 3 520.314 507.068 25.412 2.080 o
-2 -4 4 1046.300 989.199 51.756 0.573 o
-2 -4 5 2172.760 2015.270 103.238 0.147 o
-2 -4 7 56.980 203.226 37.223 2.316 o
-2 -4 9 39.183 88.580 29.589 3.734 o
-2 -3 1 3293.520 3393.240 150.535 0.065 o
-2 -3 2 858.503 775.455 32.235 1.037 o
-2 -3 3 3.700 3.432 1.583 697.946 o
-2 -3 4 728.516 756.051 34.116 1.141 o
-2 -3 5 201.558 167.064 9.671 11.106 o
-2 -3 6 411.105 370.189 20.282 3.215 o
-2 -3 7 2.941 6.430 4.130 173.467 o
-2 -3 8 206.429 157.909 15.427 7.566 o
-2 -3 9 69.324 255.183 46.742 1.484 o
-2 -2 1 10.517 8.667 1.007 440.528 o
-2 -2 2 109.764 93.329 5.678 26.778 o
-2 -2 3 41.486 34.329 2.764 92.141 o
-2 -2 4 96.569 82.521 6.516 27.652 o
-2 -2 5 950.401 909.385 47.445 0.679 o
-2 -2 6 17.610 13.162 3.859 131.180 o
-2 -2 7 20.255 23.713 7.141 51.843 o
-2 -2 8 523.485 489.007 45.651 1.116 o
-2 -2 9 273.700 208.001 25.554 3.514 o
-2 -1 1 811.953 809.875 42.984 0.853 o
-2 -1 2 49.020 59.277 4.904 52.410 o
-2 -1 3 6.807 5.810 2.337 349.097 o
-2 -1 4 2518.040 2339.660 118.462 0.112 o
-2 -1 5 1174.740 961.540 49.995 0.548 o
-2 -1 6 147.024 141.166 11.385 12.357 o
-2 -1 7 21.719 19.326 9.849 30.698 o
-2 -1 8 202.026 182.244 14.683 7.806 o
-2 -1 9 206.914 194.089 15.907 7.019 o
-2 0 1 700.668 709.850 28.919 1.353 o
-2 0 2 1.353 7.009 1.386 840.761 o
-2 0 3 22.418 28.032 2.319 150.073 o
-2 0 4 124.596 107.654 6.655 21.715 o
-2 0 5 1494.580 1605.220 101.695 0.200 o
-2 0 6 219.321 212.293 31.496 2.742 o
-2 0 7 203.597 212.179 22.250 4.656 o
-2 0 8 1136.210 1218.130 79.866 0.326 o
-2 0 9 429.311 448.961 32.541 1.886 o
-2 1 1 945.998 1043.850 39.066 0.752 o
-2 1 2 59.561 52.946 3.059 61.942 o
-2 1 3 21.026 14.444 1.597 216.435 o
-2 1 4 2204.750 2424.810 153.540 0.090 o
-2 1 5 875.573 847.689 83.817 0.363 o
-2 1 6 97.471 114.795 11.975 14.421 o
-2 1 7 223.299 258.594 21.697 4.496 o
-2 1 8 1.331 1.347 1.847 799.485 o
-2 1 9 2.613 5.575 2.016 530.679 o
-2 2 1 4.131 5.316 0.681 980.498 o
-2 2 2 2.948 1.652 0.481 1799.850 o
-2 2 3 241.263 233.005 11.939 7.768 o
-2 2 4 246.743 284.254 17.199 5.410 o
-2 2 5 279.998 318.632 19.672 4.323 o
-2 2 6 71.824 74.360 6.761 32.135 o
-2 2 7 222.338 251.425 17.307 5.849 o
-2 2 8 1663.350 1997.030 108.233 0.166 o
-2 3 1 127.854 153.570 8.414 16.563 o
-2 3 2 217.837 214.205 11.612 8.693 o
-2 3 3 671.116 692.549 37.618 1.140 o
-2 3 4 3222.800 3369.330 172.477 0.059 o
-2 3 5 1749.380 1847.450 92.251 0.195 o
-2 3 6 105.121 111.875 7.178 22.715 o
-2 3 7 872.942 986.034 46.975 0.704 o
-2 3 8 174.667 204.503 15.003 7.949 o
-2 4 1 689.879 760.859 41.838 0.983 o
-2 4 2 594.463 580.583 27.494 1.705 o
-2 4 3 826.999 742.087 40.726 0.909 o
-2 4 4 591.142 551.924 37.734 1.301 o
-2 4 5 25.603 26.511 2.539 136.144 o
-2 4 6 1.003 2.161 1.152 1526.800 o
-2 4 7 5.320 3.701 1.575 603.147 o
-2 5 1 4.313 4.124 1.025 880.323 o
-2 5 2 3.266 2.954 1.129 1014.060 o
-2 5 3 24.885 21.004 3.912 106.445 o
-2 5 4 681.547 623.126 45.612 0.951 o
-2 5 5 398.380 379.524 30.299 2.201 o
-2 5 6 30.652 38.250 6.271 53.688 o
-2 6 1 250.647 289.347 20.031 4.588 o
-2 6 2 686.794 633.999 46.464 0.924 o
-2 6 3 1172.600 1145.560 103.887 0.230 o
-2 6 4 1028.540 972.594 123.317 0.186 o
-2 6 5 56.173 79.121 10.126 22.185 o
-2 7 1 243.207 236.772 15.245 6.400 o
-2 7 2 107.144 121.192 12.491 13.157 o
-2 7 3 4.421 2.813 3.395 243.101 o
-2 8 1 20.864 23.610 6.367 61.239 o
-1 -7 1 199.540 211.590 14.682 7.575 o
-1 -7 2 60.933 53.327 5.468 44.621 o
-1 -7 3 656.411 765.874 45.920 0.912 o
-1 -7 4 716.726 799.893 47.308 0.835 o
-1 -7 5 425.178 541.695 47.842 1.096 o
-1 -7 6 39.036 58.685 14.217 14.471 o
-1 -6 1 517.036 516.709 30.892 1.750 o
-1 -6 2 90.785 86.094 7.187 26.332 o
-1 -6 3 42.934 44.990 4.492 63.930 o
-1 -6 4 121.724 115.507 8.707 18.023 o
-1 -6 5 47.916 54.744 12.412 17.755 o
-1 -6 6 38.091 58.020 16.917 10.713 o
-1 -6 7 66.680 232.385 40.255 1.977 o
-1 -5 1 18.041 23.319 3.032 147.753 o
-1 -5 2 177.086 172.115 11.972 10.222 o
-1 -5 3 303.822 304.461 16.055 4.982 o
-1 -5 4 388.985 363.924 18.623 3.577 o
-1 -5 5 361.376 381.909 52.779 1.020 o
-1 -5 9 6.372 23.416 11.517 24.372 o
-1 -4 1 544.379 502.002 24.718 2.065 o
-1 -4 2 253.140 248.562 13.072 6.936 o
-1 -4 3 721.493 666.682 31.947 1.263 o
-1 -4 4 1067.830 1022.540 53.133 0.546 o
-1 -4 5 16.540 62.689 19.342 8.638 o
-1 -4 6 22.871 86.215 24.375 5.471 o
-1 -4 7 8.502 9.438 7.640 53.365 o
-1 -3 1 443.426 386.262 15.360 3.555 o
-1 -3 2 356.847 334.640 16.543 4.243 o
-1 -3 3 1260.540 1205.100 54.886 0.447 o
-1 -3 8 601.589 530.305 28.781 1.680 o
-1 -3 9 10.565 6.552 3.286 200.850 o
-1 -2 1 14.344 9.806 0.919 353.087 o
-1 -2 2 52.743 72.749 3.281 58.403 o
-1 -2 3 711.545 606.607 42.821 1.003 o
-1 -2 4 1672.580 1554.780 81.906 0.238 o
-1 -2 5 210.228 180.117 10.206 10.208 o
-1 -2 6 66.933 62.487 5.083 43.068 o
-1 -2 7 248.400 221.533 10.817 8.210 o
-1 -2 8 461.380 411.199 29.257 2.090 o
-1 -2 9 615.404 613.106 42.551 1.087 o
-1 -2 10 258.783 225.517 17.884 5.395 o
-1 -1 1 1458.380 1506.810 54.522 0.366 o
-1 -1 2 1733.250 2076.060 106.065 0.164 o
-1 -1 3 660.918 657.772 50.996 0.833 o
-1 -1 4 157.927 124.645 13.704 10.145 o
-1 -1 5 477.218 466.657 42.571 1.279 o
-1 -1 6 632.782 543.637 36.461 1.303 o
-1 -1 7 2109.580 2366.420 207.167 0.061 o
-1 -1 8 2069.610 2140.570 183.338 0.075 o
-1 -1 9 382.199 374.558 27.480 2.515 o
-1 0 1 430.110 441.274 32.789 1.875 o
-1 0 2 1129.760 1012.580 112.012 0.212 o
-1 0 3 5256.620 4193.560 506.149 0.011 o
-1 0 4 4839.580 3775.740 311.869 0.023 o
-1 0 5 1145.210 1161.820 126.955 0.170 o
-1 0 6 404.390 398.395 47.473 1.175 o
-1 0 7 548.214 535.219 50.020 0.954 o
-1 0 8 133.538 112.525 14.491 10.299 o
-1 0 9 174.868 184.207 15.085 8.098 o
-1 1 1 2065.780 2169.500 190.129 0.071 o
-1 1 2 1413.070 1468.430 64.920 0.334 o
-1 1 3 187.183 217.861 19.383 5.693 o
-1 1 4 141.989 169.135 11.078 12.292 o
-1 1 5 0.670 2.864 1.769 846.373 o
-1 1 6 65.147 73.719 6.237 36.020 o
-1 1 7 799.174 907.580 68.058 0.496 o
-1 1 8 1071.360 1212.500 99.087 0.251 o
-1 1 9 165.366 186.828 14.054 8.904 o
-1 2 1 316.011 370.772 13.102 5.115 o
-1 2 2 11.941 8.216 0.729 435.734 o
-1 2 3 2512.300 2448.730 125.348 0.105 o
-1 2 4 2446.250 2394.500 123.615 0.109 o
-1 2 5 909.035 839.765 41.112 0.811 o
-1 2 6 792.005 823.377 46.156 0.805 o
-1 2 7 1197.170 1277.830 70.375 0.361 o
-1 2 8 29.204 26.930 4.195 89.458 o
-1 3 1 3693.070 3625.000 228.265 0.039 o
-1 3 2 3245.060 3006.750 133.118 0.077 o
-1 3 3 689.756 654.462 30.207 1.369 o
-1 3 4 1234.060 1262.860 57.323 0.431 o
-1 3 5 146.218 143.818 7.002 17.358 o
-1 3 6 12.965 14.656 2.158 244.549 o
-1 3 7 427.868 481.321 24.759 2.447 o
-1 3 8 654.664 718.760 41.891 1.028 o
-1 4 1 316.242 296.979 17.396 4.598 o
-1 4 2 5.366 5.136 3.062 265.523 o
-1 4 3 947.737 756.873 53.113 0.641 o
-1 4 4 572.939 503.990 37.130 1.375 o
-1 4 5 138.842 121.726 11.777 12.681 o
-1 4 6 195.058 200.881 27.619 3.471 o
-1 4 7 469.141 499.928 38.984 1.425 o
-1 5 1 390.616 309.590 24.220 2.969 o
-1 5 2 517.219 494.116 36.636 1.476 o
-1 5 3 193.492 194.626 16.920 6.760 o
-1 5 4 659.598 599.077 52.961 0.809 o
-1 5 5 114.844 122.136 13.370 11.823 o
-1 5 6 9.521 8.296 3.483 187.145 o
-1 6 1 387.266 429.074 33.706 1.905 o
-1 6 2 73.295 67.316 10.005 21.488 o
-1 6 3 99.426 103.680 10.821 16.429 o
-1 6 4 67.884 74.953 8.925 24.829 o
-1 7 1 199.120 204.836 18.489 5.969 o
-1 7 2 364.484 358.746 54.898 0.959 o
-1 7 3 242.750 236.388 20.990 4.616 o
0 -8 2 94.886 108.173 10.422 17.276 o
0 -8 3 146.486 168.177 12.661 10.707 o
0 -8 4 113.105 132.137 14.668 10.420 o
0 -7 1 682.892 732.813 42.899 0.975 o
0 -7 2 307.992 315.017 20.776 3.916 o
0 -7 3 115.857 125.187 9.989 16.075 o
0 -7 4 97.951 95.282 9.479 19.355 o
0 -7 5 57.880 55.192 4.715 50.535 o
0 -7 6 69.865 92.935 17.307 9.393 o
0 -6 1 9.912 13.014 2.297 268.328 o
0 -6 2 164.329 163.330 11.871 10.857 o
0 -6 3 207.616 202.240 14.075 7.809 o
0 -6 4 112.323 112.560 6.799 22.597 o
0 -6 5 514.015 554.071 46.339 1.077 o
0 -6 6 865.872 1072.140 151.114 0.134 o
0 -6 7 33.325 149.086 30.074 3.561 o
0 -6 8 14.667 66.752 24.678 5.430 o
0 -5 1 570.945 583.347 28.758 1.690 o
0 -5 2 199.210 189.925 12.771 8.838 o
0 -5 3 289.120 285.311 12.784 6.128 o
0 -5 4 634.337 629.210 30.493 1.463 o
0 -5 5 51.958 47.891 10.257 23.691 o
0 -5 6 6.327 20.593 11.730 23.661 o
0 -4 1 154.740 147.746 7.148 16.374 o
0 -4 2 81.960 84.063 4.920 35.833 o
0 -4 3 352.417 342.871 16.266 4.294 o
0 -4 4 534.980 524.012 76.086 0.502 o
0 -3 1 3252.530 2890.520 139.786 0.074 o
0 -3 2 1573.410 1375.510 75.870 0.276 o
0 -3 3 1832.840 1873.770 95.743 0.182 o
0 -3 7 23.434 21.094 2.771 143.605 o
0 -3 8 243.764 209.243 12.205 7.858 o
0 -3 9 363.563 324.592 23.919 3.093 o
0 -3 10 40.812 42.072 11.418 21.226 o
0 -2 1 36.464 36.404 1.961 109.990 o
0 -2 2 132.529 147.227 6.149 19.544 o
0 -2 3 0.286 0.551 0.718 4506.180 o
0 -2 4 17.546 18.679 1.759 218.354 o
0 -2 5 1020.210 827.251 53.815 0.591 o
0 -2 6 1561.650 1256.610 80.953 0.267 o
0 -2 7 183.162 182.508 20.667 5.440 o
0 -2 8 724.828 781.885 122.316 0.204 o
0 -2 9 741.430 748.294 76.210 0.447 o
0 -2 10 386.132 423.778 37.923 1.637 o
0 -1 1 1416.840 1020.060 90.641 0.261 o
0 -1 2 964.812 817.451 52.341 0.632 o
0 -1 3 3551.500 2805.780 186.213 0.054 o
0 -1 4 5213.950 4497.540 278.428 0.024 o
0 -1 5 1983.130 1837.310 119.992 0.137 o
0 -1 6 1027.820 998.180 145.600 0.140 o
0 -1 7 72.381 81.164 14.000 13.219 o
0 -1 8 7.013 9.219 3.301 212.582 o
0 -1 9 106.501 144.323 19.656 6.865 o
0 0 2 498.891 398.225 25.658 2.280 o
0 0 3 830.047 719.978 35.809 1.017 o
0 0 4 504.184 435.677 22.891 2.418 o
0 0 5 493.587 490.163 70.662 0.580 o
0 0 6 802.665 739.347 67.297 0.523 o
0 0 7 34.876 31.048 3.998 83.801 o
0 0 8 402.753 426.339 76.025 0.531 o
0 0 9 354.022 397.176 28.866 2.427 o
0 1 0 243.147 195.096 10.211 8.965 o
0 1 1 563.156 560.817 25.677 1.886 o
0 1 2 55.906 51.105 3.110 64.933 o
0 1 3 1023.670 906.393 40.912 0.724 o
0 1 4 1629.820 1496.400 66.989 0.291 o
0 1 5 333.704 298.144 15.428 4.842 o
0 1 6 302.052 314.708 25.895 3.103 o
0 1 7 23.976 28.857 3.958 100.426 o
0 1 8 41.883 41.052 5.384 56.508 o
0 1 9 3.410 -0.011 3.299 277.167 o
0 2 1 11.492 17.448 3.548 156.584 o
0 2 2 60.292 59.878 7.822 31.247 o
0 2 3 1357.150 1247.640 65.264 0.362 o
0 2 4 1298.450 1273.140 59.357 0.403 o
0 2 5 6.525 8.679 1.724 435.585 o
0 2 6 109.262 113.708 7.081 22.319 o
0 2 7 2.236 1.878 1.858 707.001 o
0 2 8 393.118 426.333 26.836 2.462 o
0 3 0 2700.580 2451.650 108.451 0.112 o
0 3 1 14.707 14.487 0.851 314.470 o
0 3 2 0.978 0.898 0.827 2612.210 o
0 3 3 552.977 536.758 38.069 1.342 o
0 3 4 1052.510 959.888 65.478 0.454 o
0 3 5 408.717 394.231 29.684 2.209 o
0 3 6 508.904 517.045 24.867 2.133 o
0 3 7 100.346 112.937 9.157 19.065 o
0 4 0 5233.000 5293.270 268.998 0.024 o
0 4 1 14.225 19.721 1.161 272.701 o
0 4 2 48.166 43.548 5.064 55.528 o
0 4 3 752.031 713.041 50.889 0.773 o
0 4 4 566.848 549.254 40.471 1.229 o
0 4 5 25.366 21.924 4.177 98.429 o
0 4 6 23.758 7.366 9.580 32.816 o
0 5 0 712.434 694.741 33.043 1.224 o
0 5 1 26.282 28.567 3.874 99.013 o
0 5 2 12.149 14.764 4.942 102.733 o
0 5 3 24.056 23.329 4.431 93.415 o
0 5 4 102.245 101.306 10.683 16.563 o
0 5 5 48.362 50.450 6.751 40.907 o
0 6 0 1160.100 1154.950 54.046 0.488 o
0 6 1 46.026 44.937 5.672 50.863 o
0 6 2 149.900 159.268 14.736 9.119 o
0 6 3 1016.140 1045.660 88.637 0.308 o
0 6 4 892.609 888.347 64.535 0.510 o
0 7 0 918.363 1007.510 69.564 0.446 o
0 7 1 11.871 10.602 3.790 154.416 o
0 7 2 131.420 123.362 12.836 11.797 o
1 -8 0 572.288 585.092 44.903 1.064 o
1 -8 1 175.988 191.613 13.844 8.733 o
1 -8 2 252.120 275.084 20.410 4.540 o
1 -8 3 207.113 239.685 17.171 6.162 o
1 -8 4 8.487 12.160 2.310 286.683 o
1 -8 5 114.430 121.995 19.170 7.174 o
1 -8 6 34.942 30.658 9.814 28.335 o
1 -7 0 302.003 297.986 15.578 5.149 o
1 -7 1 228.509 240.884 16.327 6.185 o
1 -7 2 99.978 95.971 8.253 21.802 o
1 -7 3 125.625 115.132 9.284 16.830 o
1 -7 4 1324.600 1331.040 73.871 0.320 o
1 -7 5 908.427 927.986 44.538 0.734 o
1 -7 6 805.167 929.199 155.904 0.129 o
1 -7 7 2.556 2.108 4.810 138.874 o
1 -6 0 1557.520 1637.340 74.943 0.266 o
1 -6 1 698.515 652.671 37.868 1.126 o
1 -6 2 670.235 661.642 38.614 1.128 o
1 -6 3 456.480 453.383 27.651 2.169 o
1 -6 4 70.899 74.619 4.815 40.981 o
1 -6 5 8.406 18.202 7.756 50.374 o
1 -6 6 73.193 90.296 24.948 4.979 o
1 -5 0 985.177 962.582 52.675 0.591 o
1 -5 1 66.468 64.622 6.511 35.518 o
1 -5 2 55.546 50.353 4.694 53.007 o
1 -5 3 12.589 12.029 1.284 336.030 o
1 -5 4 1391.630 1450.370 67.084 0.330 o
1 -5 5 998.783 820.774 82.516 0.357 o
1 -4 0 1796.910 1758.890 91.882 0.195 o
1 -4 1 1415.790 1335.610 69.828 0.324 o
1 -4 2 2348.930 2235.460 99.297 0.139 o
1 -4 3 2574.500 2606.500 115.489 0.108 o
1 -4 4 1397.410 1484.950 107.671 0.195 o
1 -4 8 93.150 99.113 6.091 28.033 o
1 -4 9 159.199 152.084 15.368 8.563 o
1 -3 0 5780.230 6053.610 380.815 0.015 o
1 -3 1 70.532 61.022 4.135 47.106 o
1 -3 2 636.288 681.761 25.860 1.591 o
1 -3 3 189.463 185.269 8.981 11.715 o
1 -3 4 1388.850 1514.040 66.512 0.328 o
1 -3 5 316.215 310.899 22.635 3.552 o
1 -3 6 171.401 150.832 12.200 10.565 o
1 -3 7 25.536 31.220 3.517 106.151 o
1 -3 8 579.963 621.812 74.422 0.504 o
1 -3 9 276.559 301.761 31.890 2.440 o
1 -3 10 62.304 72.165 14.795 12.587 o
1 -2 0 514.734 645.105 23.810 2.004 o
1 -2 1 3.106 7.927 0.792 905.141 o
1 -2 2 181.852 232.730 9.502 10.723 o
1 -2 3 598.413 539.672 22.655 1.982 o
1 -2 4 681.051 636.418 35.117 1.235 o
1 -2 5 347.330 289.075 20.463 3.800 o
1 -2 6 1215.340 1070.460 69.596 0.381 o
1 -2 7 1.334 0.545 0.943 2147.950 o
1 -2 8 23.669 20.515 7.378 48.631 o
1 -2 9 2.144 2.358 1.550 886.039 o
1 -1 1 30.590 14.371 1.152 175.770 o
1 -1 2 2551.560 2876.030 216.138 0.052 o
1 -1 3 1777.100 1797.870 70.627 0.243 o
1 -1 4 236.247 238.703 17.409 5.725 o
1 -1 5 0.094 2.802 1.612 1054.300 o
1 -1 6 36.587 42.952 7.024 43.685 o
1 -1 7 20.175 22.664 2.789 150.978 o
1 -1 8 1234.600 1211.770 176.365 0.096 o
1 -1 9 647.165 615.186 89.668 0.363 o
1 0 0 416.483 398.847 16.011 3.620 o
1 0 1 53.511 69.013 3.028 60.776 o
1 0 2 477.894 579.539 20.833 2.408 o
1 0 3 1066.210 1092.650 39.621 0.665 o
1 0 4 1095.710 1102.000 49.774 0.553 o
1 0 5 370.279 280.528 21.277 3.553 o
1 0 6 970.273 947.557 76.207 0.392 o
1 0 7 12.815 9.419 4.597 117.703 o
1 0 8 122.263 124.983 17.983 7.761 o
1 0 9 28.020 38.060 5.455 64.903 o
1 1 0 2304.710 2302.530 90.847 0.149 o
1 1 1 968.268 1090.050 34.124 0.785 o
1 1 2 322.186 303.545 12.533 5.584 o
1 1 3 458.100 411.576 17.912 3.115 o
1 1 4 92.597 103.479 6.036 27.902 o
1 1 5 85.641 91.175 5.696 31.417 o
1 1 6 40.181 43.448 5.107 59.653 o
1 1 7 5.099 3.872 2.928 293.038 o
1 1 8 677.018 671.875 39.404 1.095 o
1 2 0 962.366 817.013 29.846 0.959 o
1 2 1 277.680 283.150 13.284 6.175 o
1 2 2 2.239 1.368 0.649 2000.370 o
1 2 3 141.107 145.010 6.940 17.809 o
1 2 4 500.470 535.356 29.658 1.834 o
1 2 5 362.168 337.452 17.003 4.110 o
1 2 6 1367.500 1304.030 74.504 0.313 o
1 2 7 184.110 168.537 12.262 9.857 o
1 2 8 963.840 863.248 49.627 0.656 o
1 3 0 1153.010 1130.810 60.056 0.449 o
1 3 1 11.889 7.943 1.313 382.306 o
1 3 2 1747.640 1836.840 96.128 0.188 o
1 3 3 1800.470 1698.720 111.978 0.160 o
1 3 4 353.698 284.057 32.193 2.249 o
1 3 5 489.967 482.208 36.312 1.538 o
1 3 6 204.616 203.433 18.918 5.755 o
1 3 7 25.980 25.130 5.048 77.898 o
1 4 0 1193.590 1152.180 62.026 0.424 o
1 4 1 149.647 133.035 10.065 13.831 o
1 4 2 4.978 6.245 7.700 54.591 o
1 4 3 0.850 -0.199 4.123 197.746 o
1 4 4 69.989 70.607 7.943 28.215 o
1 4 5 16.011 13.991 3.423 153.158 o
1 4 6 401.967 422.407 70.144 0.613 o
1 5 0 36.942 37.017 3.142 91.126 o
1 5 1 84.750 86.963 5.142 33.959 o
1 5 2 548.032 559.514 42.024 1.188 o
1 5 3 744.028 762.252 55.393 0.691 o
1 5 4 297.552 304.063 25.744 3.166 o
1 5 5 534.674 560.836 83.089 0.429 o
1 6 0 1267.950 1243.760 51.382 0.462 o
1 6 1 465.344 475.197 37.334 1.525 o
1 6 2 416.209 412.200 43.653 1.316 o
1 6 3 330.367 333.440 45.772 1.327 o
1 7 0 76.132 77.311 6.448 32.183 o
1 7 1 150.908 126.382 12.826 11.094 o
2 -8 0 19.884 18.903 3.490 131.885 o
2 -8 1 1.609 -0.668 3.430 275.351 o
2 -8 2 53.562 49.794 5.449 48.339 o
2 -8 3 42.409 46.468 7.424 38.686 o
2 -8 4 664.500 662.607 40.081 1.092 o
2 -8 5 407.595 411.377 26.688 2.454 o
2 -8 6 689.394 735.894 127.682 0.191 o
2 -7 0 721.733 754.277 40.283 0.996 o
2 -7 1 1251.390 1188.380 67.302 0.376 o
2 -7 2 893.404 848.463 48.629 0.705 o
2 -7 3 184.328 178.107 12.899 9.291 o
2 -7 4 211.160 192.157 16.683 6.627 o
2 -7 5 96.892 108.002 7.744 22.646 o
2 -7 6 18.260 47.356 17.190 10.876 o
2 -7 7 23.225 47.594 31.799 3.322 o
2 -7 8 1.322 3.625 6.306 83.483 o
2 -6 0 295.482 307.544 22.090 3.776 o
2 -6 1 107.840 100.478 7.923 21.455 o
2 -6 2 1.610 2.906 1.227 1199.360 o
2 -6 3 8.835 8.687 1.724 383.056 o
2 -6 4 355.883 353.311 18.009 3.932 o
2 -6 5 87.651 87.978 5.473 32.059 o
2 -6 6 278.019 294.690 13.919 5.903 o
2 -6 7 5.808 5.342 6.336 78.155 o
2 -5 0 139.987 156.273 13.294 10.551 o
2 -5 1 640.699 612.158 34.806 1.309 o
2 -5 2 285.999 288.755 17.860 4.810 o
2 -5 3 38.193 37.758 2.867 92.934 o
2 -5 4 887.160 856.464 40.264 0.833 o
2 -5 5 847.985 804.808 42.463 0.840 o
2 -5 6 411.343 461.157 21.359 2.871 o
2 -5 7 2.523 5.518 1.392 800.241 o
2 -5 8 30.720 29.210 2.353 123.690 o
2 -4 0 1949.610 1919.370 99.745 0.167 o
2 -4 1 1830.130 1694.750 88.537 0.202 o
2 -4 2 590.345 600.930 28.213 1.660 o
2 -4 3 287.831 300.985 15.125 5.409 o
2 -4 4 283.431 294.847 15.114 5.503 o
2 -4 5 65.987 56.850 4.156 49.975 o
2 -4 6 354.392 373.040 17.569 3.941 o
2 -4 7 24.235 30.849 4.074 95.960 o
2 -4 8 1024.350 1096.270 106.160 0.234 o
2 -4 9 470.164 519.771 84.548 0.426 o
2 -3 0 31.107 30.118 1.948 129.699 o
2 -3 1 783.832 832.777 37.747 0.967 o
2 -3 2 117.396 127.000 6.366 21.949 o
2 -3 3 34.796 45.005 3.028 90.308 o
2 -3 4 1153.640 1155.120 52.869 0.499 o
2 -3 5 796.374 719.997 32.825 1.118 o
2 -3 6 321.380 304.423 48.683 1.215 o
2 -3 7 1.341 2.214 2.223 570.275 o
2 -3 8 188.689 204.252 35.255 2.345 o
2 -3 9 32.602 35.910 6.465 51.363 o
2 -2 0 438.891 590.009 21.880 2.454 o
2 -2 1 481.242 567.638 23.000 2.266 o
2 -2 2 83.635 67.712 3.412 43.648 o
2 -2 3 356.324 315.023 15.439 4.533 o
2 -2 4 3.058 24.299 4.590 122.620 o
2 -2 5 133.342 183.462 12.020 11.458 o
2 -2 6 40.958 40.474 6.758 44.753 o
2 -2 7 36.132 43.307 5.791 54.810 o
2 -2 8 1592.330 1574.800 205.709 0.069 o
2 -2 9 1044.490 1033.180 139.594 0.150 o
2 -1 0 902.051 920.830 33.363 0.910 o
2 -1 1 0.706 0.348 0.344 6782.740 o
2 -1 2 0.690 8.214 0.993 1099.880 o
2 -1 3 16.974 8.910 1.096 308.234 o
2 -1 4 3394.830 3641.180 159.932 0.059 o
2 -1 5 2360.910 2478.190 138.824 0.097 o
2 -1 6 1363.210 1520.480 98.007 0.221 o
2 -1 7 278.213 248.090 27.322 3.114 o
2 -1 8 925.790 1006.580 68.726 0.451 o
2 -1 9 23.001 27.455 3.998 102.092 o
2 0 0 2845.370 3110.440 136.166 0.082 o
2 0 1 2716.370 2788.150 122.261 0.097 o
2 0 2 1053.870 1204.700 40.489 0.634 o
2 0 3 1128.060 1170.330 42.802 0.588 o
2 0 4 257.850 209.151 10.871 8.109 o
2 0 5 456.614 437.899 25.173 2.389 o
2 0 6 0.780 2.724 1.487 1087.170 o
2 0 7 7.282 6.086 1.817 431.233 o
2 0 8 864.252 890.129 62.289 0.540 o
2 0 9 389.850 385.722 24.831 2.748 o
2 1 0 699.387 676.986 28.546 1.392 o
2 1 1 6.966 2.716 0.553 848.766 o
2 1 2 56.731 61.382 2.982 61.487 o
2 1 3 52.180 67.939 3.646 57.773 o
2 1 4 1347.490 1286.620 58.368 0.396 o
2 1 5 659.547 606.470 34.154 1.311 o
2 1 6 576.659 554.672 44.025 1.100 o
2 1 7 246.570 246.864 17.965 5.387 o
2 1 8 1390.910 1253.840 77.212 0.302 o
2 2 0 513.107 483.935 20.284 2.495 o
2 2 1 1043.470 1030.700 46.901 0.615 o
2 2 2 1053.870 1097.190 50.121 0.566 o
2 2 3 1870.100 1838.080 74.156 0.224 o
2 2 4 1509.600 1493.510 60.397 0.334 o
2 2 5 1594.030 1503.980 72.580 0.277 o
2 2 6 330.893 277.590 26.774 2.940 o
2 2 7 59.657 47.654 5.381 46.774 o
2 3 0 3099.730 3403.820 150.059 0.068 o
2 3 1 1090.860 1187.860 63.369 0.434 o
2 3 2 627.563 628.420 35.355 1.296 o
2 3 3 306.581 265.716 14.425 5.576 o
2 3 4 341.693 306.266 16.977 4.415 o
2 3 5 137.842 119.958 6.970 19.176 o
2 3 6 236.667 197.456 13.089 7.739 o
2 4 0 12.345 21.463 2.941 177.068 o
2 4 1 151.215 159.996 10.803 12.363 o
2 4 2 243.679 261.678 16.247 5.876 o
2 4 3 453.544 469.071 36.220 1.605 o
2 4 4 439.112 448.041 37.105 1.593 o
2 4 5 530.768 549.993 44.772 1.115 o
2 5 0 920.659 1015.230 47.872 0.662 o
2 5 1 360.291 419.129 25.100 2.767 o
2 5 2 363.997 374.132 30.310 2.292 o
2 5 3 456.705 473.034 37.512 1.530 o
2 5 4 1.601 -4.422 3.820 224.565 o
2 6 0 233.826 249.859 16.000 6.169 o
2 6 1 7.062 6.803 3.084 241.265 o
2 6 2 48.556 45.785 6.267 44.963 o
3 -8 0 76.934 79.730 7.727 27.204 o
3 -8 1 315.122 320.435 21.205 3.776 o
3 -8 2 463.343 431.409 27.421 2.198 o
3 -8 3 255.149 235.718 16.701 5.748 o
3 -8 4 311.639 292.768 24.179 3.370 o
3 -8 5 129.648 140.009 11.217 13.316 o
3 -8 6 87.246 88.447 7.988 24.385 o
3 -7 0 392.895 342.320 21.847 3.184 o
3 -7 1 535.892 473.530 28.720 1.879 o
3 -7 2 30.303 29.624 4.017 89.793 o
3 -7 3 4.052 5.346 2.375 397.149 o
3 -7 4 117.417 104.928 10.985 15.100 o
3 -7 5 174.770 181.381 14.115 8.711 o
3 -7 6 385.309 385.782 27.984 2.438 o
3 -7 7 153.131 180.813 11.680 11.099 o
3 -6 0 31.229 22.337 3.321 108.407 o
3 -6 1 154.349 162.558 11.341 11.684 o
3 -6 2 230.333 228.919 15.230 6.660 o
3 -6 3 85.895 80.077 7.025 28.064 o
3 -6 4 361.957 354.044 22.279 3.252 o
3 -6 5 251.311 289.852 21.004 4.349 o
3 -6 6 291.654 276.603 20.827 4.147 o
3 -6 7 66.556 76.046 6.039 36.293 o
3 -6 8 65.615 70.912 8.489 26.860 o
3 -5 0 383.928 429.904 25.352 2.633 o
3 -5 1 1352.630 1327.080 70.791 0.330 o
3 -5 2 344.100 317.618 19.504 3.892 o
3 -5 3 177.246 160.604 11.214 10.982 o
3 -5 4 6.031 8.884 3.772 181.197 o
3 -5 5 99.441 96.250 8.805 20.611 o
3 -5 7 572.524 610.410 45.597 1.034 o
3 -5 8 1019.950 1078.780 118.981 0.196 o
3 -5 9 493.801 555.223 50.047 0.980 o
3 -4 0 56.886 71.622 5.669 41.644 o
3 -4 1 80.882 68.304 6.068 33.625 o
3 -4 2 764.719 711.770 34.058 1.127 o
3 -4 3 880.465 836.015 39.806 0.853 o
3 -4 4 2196.780 2311.480 120.258 0.121 o
3 -4 6 1013.190 1013.370 53.529 0.563 o
3 -4 7 215.492 217.121 13.120 7.963 o
3 -4 8 6.171 6.761 1.578 505.532 o
3 -4 9 67.582 65.848 16.492 10.492 o
3 -3 0 1676.700 1802.000 80.801 0.228 o
3 -3 1 3169.290 3662.290 185.908 0.053 o
3 -3 2 482.457 550.581 26.074 2.080 o
3 -3 3 158.243 157.002 10.402 12.507 o
3 -3 4 20.936 17.270 2.763 158.864 o
3 -3 5 0.642 0.865 1.076 2103.960 o
3 -3 6 191.726 196.374 11.957 9.439 o
3 -3 7 253.631 247.598 18.827 5.061 o
3 -3 8 684.544 688.976 74.725 0.476 o
3 -3 9 355.173 378.403 52.260 1.041 o
3 -2 0 444.587 535.636 32.500 1.777 o
3 -2 1 202.227 197.132 11.625 9.334 o
3 -2 2 88.795 106.859 8.719 21.325 o
3 -2 3 268.060 240.853 11.947 7.136 o
3 -2 4 2057.770 2294.730 102.046 0.148 o
3 -2 5 1644.830 1787.730 84.876 0.222 o
3 -2 6 1547.180 1686.060 81.892 0.244 o
3 -2 7 692.765 683.021 45.949 0.915 o
3 -2 8 243.303 236.447 18.026 5.459 o
3 -2 9 75.193 70.869 6.953 31.049 o
3 -1 0 2537.010 2917.010 147.598 0.083 o
3 -1 2 2504.160 2758.380 171.544 0.072 o
3 -1 3 1931.580 2072.240 105.987 0.154 o
3 -1 4 1563.840 1596.090 71.265 0.279 o
3 -1 5 674.710 668.630 31.341 1.343 o
3 -1 6 0.960 0.804 0.800 2765.410 o
3 -1 7 78.934 83.244 6.912 29.362 o
3 -1 8 421.656 373.114 40.770 1.468 o
3 0 0 3172.460 3510.490 231.508 0.042 o
3 0 1 1328.400 1453.050 64.739 0.351 o
3 0 2 0.113 1.898 0.875 2782.830 o
3 0 3 74.065 79.371 4.602 40.117 o
3 0 4 1089.650 1203.970 48.953 0.544 o
3 0 5 629.583 607.075 28.974 1.549 o
3 0 6 488.282 484.667 28.651 1.980 o
3 0 7 168.079 148.561 12.480 10.484 o
3 0 8 125.542 129.241 11.266 13.698 o
3 1 0 476.947 543.320 35.116 1.572 o
3 1 1 1662.540 1584.610 71.447 0.267 o
3 1 2 311.175 284.042 12.968 5.766 o
3 1 3 495.946 490.898 23.599 2.300 o
3 1 4 1035.670 1032.410 55.953 0.529 o
3 1 5 615.361 650.774 37.150 1.237 o
3 1 6 52.276 55.394 5.456 47.664 o
3 1 7 2.645 3.135 2.548 410.627 o
3 2 0 2988.390 3209.430 126.041 0.083 o
3 2 1 1876.600 1902.680 84.995 0.198 o
3 2 2 291.009 306.212 15.649 5.209 o
3 2 3 154.533 159.891 10.813 12.216 o
3 2 4 103.441 112.540 8.362 20.380 o
3 2 5 119.830 132.980 9.669 16.047 o
3 2 6 227.797 204.554 13.957 7.450 o
3 3 0 3.605 10.448 1.848 464.855 o
3 3 1 427.368 484.934 28.029 2.176 o
3 3 2 137.349 154.251 10.634 13.285 o
3 3 3 381.440 377.573 22.481 3.074 o
3 3 4 873.576 789.645 38.212 0.903 o
3 3 5 345.865 305.138 19.492 3.925 o
3 4 0 985.506 1128.130 55.052 0.538 o
3 4 1 372.664 392.916 23.734 2.927 o
3 4 2 10.060 9.712 1.870 333.206 o
3 4 3 53.972 58.772 5.129 48.576 o
3 4 4 27.150 18.425 3.683 110.667 o
3 5 0 81.190 84.305 6.886 28.960 o
3 5 1 39.718 35.163 3.947 77.287 o
3 5 2 1.221 0.149 3.065 344.726 o
3 6 0 478.102 534.443 33.755 1.648 o
4 -8 0 522.277 493.813 30.409 1.789 o
4 -8 1 154.017 149.044 11.544 11.770 o
4 -8 2 6.137 5.148 2.671 310.795 o
4 -8 3 74.556 66.963 6.853 31.960 o
4 -8 4 23.427 25.498 4.277 96.300 o
4 -8 5 1158.150 1272.840 103.395 0.228 o
4 -7 0 3.933 6.404 1.878 510.997 o
4 -7 1 883.171 825.376 47.357 0.734 o
4 -7 2 837.710 753.039 43.568 0.844 o
4 -7 3 124.888 107.958 10.814 14.857 o
4 -7 4 756.145 747.416 43.390 0.905 o
4 -7 5 397.248 409.591 32.166 2.018 o
4 -7 6 39.744 49.995 7.215 40.313 o
4 -7 7 0.395 0.513 1.569 1249.680 o
4 -6 0 887.360 834.815 63.469 0.529 o
4 -6 1 326.133 320.607 20.440 3.839 o
4 -6 2 29.782 33.031 4.451 80.699 o
4 -6 3 197.030 197.167 13.848 8.200 o
4 -6 4 1.768 1.619 1.587 938.191 o
4 -6 5 995.155 1029.010 68.168 0.438 o
4 -6 6 215.135 220.334 17.811 5.944 o
4 -6 7 71.439 73.083 13.067 14.858 o
4 -6 8 368.859 425.625 26.005 2.626 o
4 -5 0 112.060 113.645 8.539 19.198 o
4 -5 1 565.171 597.336 38.748 1.267 o
4 -5 2 608.083 568.854 37.764 1.271 o
4 -5 3 145.671 134.192 9.868 14.235 o
4 -5 4 2010.890 2199.980 115.431 0.135 o
4 -5 7 231.147 248.256 15.034 6.573 o
4 -5 8 53.392 57.959 5.459 46.675 o
4 -4 0 3513.090 3682.370 187.840 0.049 o
4 -4 1 2539.980 2651.430 149.271 0.085 o
4 -4 2 978.902 959.848 44.508 0.689 o
4 -4 3 1185.500 1377.240 63.143 0.394 o
4 -4 4 275.860 296.476 18.334 4.754 o
4 -4 5 557.110 558.815 32.264 1.571 o
4 -4 6 17.761 39.929 7.910 42.546 o
4 -4 7 2.990 2.497 1.750 694.111 o
4 -4 8 264.909 281.501 16.919 5.305 o
4 -3 0 604.643 717.070 40.613 1.107 o
4 -3 1 288.003 369.453 20.854 3.855 o
4 -3 2 174.192 204.738 10.496 10.841 o
4 -3 3 6.380 8.281 2.411 325.074 o
4 -3 4 1363.730 1548.700 69.369 0.317 o
4 -3 5 1043.850 1108.230 51.048 0.559 o
4 -3 6 102.597 111.314 7.815 21.665 o
4 -3 7 112.212 155.575 11.288 13.678 o
4 -3 8 125.733 148.041 18.274 7.369 o
4 -2 0 1797.090 1916.920 97.740 0.179 o
4 -2 1 1123.710 1119.700 49.450 0.542 o
4 -2 2 421.697 365.167 25.434 2.606 o
4 -2 3 1266.710 1320.090 84.595 0.283 o
4 -2 4 965.677 1010.000 65.931 0.464 o
4 -2 5 17.760 10.946 1.639 254.206 o
4 -2 6 212.746 211.288 12.889 8.201 o
4 -2 7 85.157 78.088 5.699 32.941 o
4 -2 8 171.466 174.291 12.758 9.790 o
4 -1 0 3096.180 3346.610 170.542 0.061 o
4 -1 1 240.133 241.774 13.921 6.905 o
4 -1 2 134.393 150.236 11.981 12.074 o
4 -1 3 188.854 220.580 16.586 6.787 o
4 -1 4 980.362 989.421 45.750 0.666 o
4 -1 5 846.075 801.253 37.510 0.933 o
4 -1 6 60.645 50.610 4.382 52.648 o
4 -1 7 187.054 181.610 13.090 9.054 o
4 -1 8 263.908 233.505 18.018 5.260 o
4 0 0 833.550 900.876 66.633 0.503 o
4 0 1 468.518 571.679 31.744 1.742 o
4 0 2 109.866 111.734 7.009 22.512 o
4 0 3 558.920 573.219 24.190 1.961 o
4 0 4 586.402 557.395 30.361 1.610 o
4 0 5 37.904 36.265 3.798 80.675 o
4 0 6 139.408 146.810 10.757 13.227 o
4 0 7 64.735 60.422 6.129 38.434 o
4 1 0 1089.870 1190.540 63.702 0.432 o
4 1 1 17.602 13.070 2.708 184.646 o
4 1 2 60.239 61.544 4.578 48.918 o
4 1 3 205.086 202.410 11.375 9.324 o
4 1 4 271.280 274.984 14.891 5.849 o
4 1 5 164.722 170.357 11.905 10.698 o
4 1 6 7.591 7.243 2.151 354.002 o
4 2 0 3.260 2.460 2.282 476.611 o
4 2 1 17.852 15.292 2.256 201.621 o
4 2 2 36.489 34.740 4.462 73.342 o
4 2 3 568.288 580.771 28.602 1.705 o
4 2 4 1085.440 1027.200 56.906 0.507 o
4 2 5 104.512 81.988 7.195 24.653 o
4 3 0 1206.120 1254.630 58.333 0.432 o
4 3 1 187.880 195.651 11.087 10.123 o
4 3 2 244.288 245.250 16.042 6.044 o
4 3 3 298.768 271.587 17.624 4.827 o
4 3 4 43.427 35.616 4.674 64.851 o
4 4 0 19.545 22.310 3.342 133.507 o
4 4 1 0.754 -0.202 2.334 594.238 o
4 4 2 3.764 3.569 3.299 257.099 o
4 4 3 169.922 163.729 11.926 10.620 o
4 5 0 395.994 415.215 25.681 2.583 o
5 -8 0 22.644 21.167 3.922 109.967 o
5 -8 1 478.525 447.555 28.214 2.078 o
5 -8 2 666.042 655.699 39.177 1.119 o
5 -8 3 200.777 206.200 14.923 7.484 o
5 -8 4 697.748 689.639 41.080 1.024 o
5 -7 0 456.001 401.118 25.466 2.426 o
5 -7 1 333.813 315.725 20.769 3.749 o
5 -7 2 741.366 688.418 39.886 1.017 o
5 -7 3 10.251 6.149 4.096 150.428 o
5 -7 4 82.817 76.310 7.685 26.720 o
5 -7 5 260.306 280.520 23.305 3.827 o
5 -6 0 0.138 -1.432 1.285 2007.360 o
5 -6 1 255.664 246.700 16.691 5.678 o
5 -6 2 200.606 196.591 13.761 8.176 o
5 -6 3 10.411 8.859 2.554 258.272 o
5 -6 4 513.365 526.578 31.285 1.726 o
5 -6 5 221.388 244.751 19.488 5.187 o
5 -6 6 325.379 329.892 25.254 3.066 o
5 -6 7 257.418 264.732 21.374 4.309 o
5 -5 0 388.053 342.330 21.174 3.297 o
5 -5 1 856.904 848.266 48.235 0.729 o
5 -5 2 1904.150 1879.130 120.045 0.139 o
5 -5 3 209.201 230.655 13.238 7.896 o
5 -5 4 54.701 61.684 7.981 31.380 o
5 -5 5 0.183 -0.575 1.766 1074.400 o
5 -5 6 356.273 338.526 21.778 3.393 o
5 -5 7 124.000 135.872 9.309 16.198 o
5 -4 0 502.320 459.259 26.503 2.121 o
5 -4 1 0.181 -0.826 0.628 7251.810 o
5 -4 2 3.798 4.836 1.259 787.256 o
5 -4 3 1.372 0.285 1.910 795.783 o
5 -4 4 619.792 651.658 44.600 1.011 o
5 -4 5 304.218 311.473 23.753 3.430 o
5 -4 6 257.350 262.789 13.897 6.456 o
5 -4 7 225.392 252.614 13.796 7.119 o
5 -3 0 135.420 128.567 9.094 15.984 o
5 -3 1 498.220 508.278 27.822 1.981 o
5 -3 2 1007.130 1103.500 71.566 0.404 o
5 -3 3 5.515 6.070 3.214 242.414 o
5 -3 4 37.335 27.988 4.969 68.415 o
5 -3 5 27.413 33.245 5.844 61.688 o
5 -3 6 638.098 632.200 34.812 1.300 o
5 -3 7 51.279 46.943 4.122 61.229 o
5 -2 0 562.945 576.383 27.480 1.776 o
5 -2 1 115.145 125.462 10.675 15.107 o
5 -2 2 202.361 201.599 15.904 7.033 o
5 -2 3 120.596 114.472 10.582 15.242 o
5 -2 4 286.186 309.758 23.266 3.610 o
5 -2 5 227.741 238.861 15.146 6.656 o
5 -2 6 297.748 321.148 18.815 4.354 o
5 -2 7 627.497 625.431 34.703 1.321 o
5 -1 0 5.107 3.782 1.240 735.182 o
5 -1 1 556.596 606.620 32.813 1.509 o
5 -1 2 1273.760 1355.910 86.855 0.272 o
5 -1 3 100.217 110.162 10.257 17.146 o
5 -1 4 686.354 690.650 37.309 1.134 o
5 -1 5 471.857 453.398 21.973 2.578 o
5 -1 6 1006.560 966.495 44.952 0.668 o
5 -1 7 11.350 5.839 1.985 328.828 o
5 0 0 978.057 968.695 80.966 0.359 o
5 0 1 233.868 233.506 21.570 4.543 o
5 0 2 240.079 240.685 18.479 5.331 o
5 0 3 66.456 62.585 4.276 47.757 o
5 0 4 128.149 129.012 7.192 19.324 o
5 0 5 54.256 53.734 5.589 46.260 o
5 0 6 52.339 54.216 8.979 28.021 o
5 1 0 16.944 17.079 5.063 91.436 o
5 1 1 133.640 139.108 10.617 13.851 o
5 1 2 377.091 403.765 20.686 3.256 o
5 1 3 11.809 11.179 2.415 248.392 o
5 1 4 797.740 817.535 38.960 0.937 o
5 1 5 705.201 680.192 39.135 1.072 o
5 2 0 1243.810 1325.280 61.338 0.398 o
5 2 1 697.837 731.664 35.545 1.150 o
5 2 2 945.524 978.337 46.231 0.680 o
5 2 3 559.621 526.037 26.647 1.883 o
5 2 4 96.368 90.136 10.798 17.084 o
5 3 0 359.788 359.172 19.087 3.714 o
5 3 1 1.185 -0.284 1.399 1385.540 o
5 3 2 52.416 48.378 5.414 49.392 o
5 4 0 528.794 526.500 31.782 1.671 o
6 -7 0 0.627 -0.155 3.124 342.436 o
6 -7 1 162.149 173.588 13.280 9.683 o
6 -7 2 18.301 13.732 3.229 154.689 o
6 -7 3 23.074 20.384 4.142 104.012 o
6 -7 4 445.461 437.154 27.028 2.271 o
6 -7 5 201.933 205.302 17.546 6.304 o
6 -6 0 593.380 543.211 32.287 1.524 o
6 -6 1 260.073 285.104 19.156 4.743 o
6 -6 2 311.122 310.519 19.751 4.104 o
6 -6 3 11.353 10.105 2.834 220.859 o
6 -6 4 388.190 396.728 29.348 2.288 o
6 -6 5 22.459 24.458 5.147 79.705 o
6 -6 6 1.060 0.401 5.124 128.165 o
6 -5 0 102.463 109.867 9.064 19.196 o
6 -5 1 1.119 1.276 2.129 647.114 o
6 -5 2 140.741 132.614 9.646 14.819 o
6 -5 3 76.453 72.053 13.339 14.225 o
6 -5 4 763.344 777.908 53.191 0.714 o
6 -5 5 609.629 642.310 45.174 1.007 o
6 -5 6 532.536 549.444 39.782 1.291 o
6 -4 0 1165.630 1119.260 63.517 0.424 o
6 -4 1 700.038 691.291 47.353 0.877 o
6 -4 2 636.158 685.756 46.791 0.932 o
6 -4 3 89.518 90.714 10.101 18.916 o
6 -4 4 946.605 997.358 66.728 0.464 o
6 -4 5 107.574 120.573 11.774 14.090 o
6 -4 6 7.991 8.391 3.699 178.844 o
6 -3 0 104.821 102.947 7.978 21.525 o
6 -3 1 13.294 11.343 3.194 181.285 o
6 -3 2 347.913 368.458 27.065 2.681 o
6 -3 3 98.072 99.498 15.701 10.229 o
6 -3 4 567.642 579.697 40.391 1.216 o
6 -3 5 363.399 388.850 29.366 2.363 o
6 -3 6 313.395 335.239 20.107 3.935 o
6 -2 0 839.565 742.532 37.365 0.966 o
6 -2 1 333.931 342.030 25.329 2.995 o
6 -2 2 411.460 436.242 31.482 2.011 o
6 -2 3 239.739 244.510 19.645 4.973 o
6 -2 4 2197.420 2259.590 144.342 0.099 o
6 -2 5 752.588 763.046 41.498 0.941 o
6 -2 6 373.553 359.675 21.518 3.282 o
6 -1 0 1067.030 1141.110 60.658 0.466 o
6 -1 1 769.619 763.177 45.311 0.852 o
6 -1 2 1478.000 1491.020 96.502 0.218 o
6 -1 3 389.498 399.388 29.236 2.291 o
6 -1 4 132.035 120.872 8.903 16.746 o
6 -1 5 85.854 93.276 8.823 22.068 o
6 0 0 436.446 412.905 29.750 2.111 o
6 0 1 49.574 51.026 5.447 49.797 o
6 0 2 71.004 72.896 6.569 33.261 o
6 0 3 68.615 67.674 5.079 41.607 o
6 0 4 1534.120 1501.000 78.543 0.265 o
6 1 0 608.463 596.590 41.240 1.140 o
6 1 1 451.738 448.301 25.397 2.369 o
6 1 2 1188.090 1187.340 65.093 0.402 o
6 1 3 408.805 424.177 24.082 2.681 o
6 2 0 1.503 2.013 1.371 1148.000 o
6 2 1 197.013 175.152 10.951 10.249 o
6 2 2 62.911 55.002 5.298 44.642 o
7 -6 0 1.490 -1.593 1.534 1141.350 o
7 -6 1 107.003 102.857 9.042 19.150 o
7 -6 2 13.623 8.829 2.864 208.157 o
7 -6 3 102.014 83.529 13.488 12.810 o
7 -6 4 324.648 296.194 26.433 2.974 o
7 -5 0 626.682 591.642 34.132 1.365 o
7 -5 1 361.357 357.680 33.873 2.010 o
7 -5 2 1241.330 1229.740 81.124 0.306 o
7 -5 3 605.561 596.936 41.955 1.121 o
7 -5 4 645.189 695.992 48.978 0.874 o
7 -4 0 320.957 339.692 25.418 3.041 o
7 -4 1 712.650 666.576 46.115 0.904 o
7 -4 2 212.812 181.203 15.934 7.015 o
7 -4 3 41.872 41.716 6.998 42.433 o
7 -4 4 183.745 177.699 16.009 7.487 o
7 -4 5 160.843 185.055 16.808 7.382 o
7 -3 0 522.266 464.020 30.690 1.803 o
7 -3 1 122.134 126.677 12.069 12.939 o
7 -3 2 649.712 653.737 45.610 0.962 o
7 -3 3 288.553 278.363 22.392 3.847 o
7 -3 4 553.288 524.556 38.515 1.331 o
7 -2 0 598.767 515.869 42.810 1.136 o
7 -2 1 1375.170 1391.200 90.885 0.247 o
7 -2 2 761.093 760.710 52.260 0.734 o
7 -2 3 44.859 44.635 7.313 39.012 o
7 -2 4 6.437 7.118 3.229 230.001 o
7 -1 0 34.359 42.051 4.979 65.340 o
7 -1 1 19.252 24.072 6.367 62.021 o
7 -1 2 192.454 171.521 15.413 7.702 o
7 -1 3 150.222 128.913 12.755 11.140 o
7 0 0 418.433 382.324 28.567 2.295 o
7 0 1 743.685 727.163 50.155 0.787 o
7 0 2 298.868 286.563 21.470 3.936 o
7 1 0 4.803 5.413 3.791 193.644 o
8 -4 0 120.304 102.413 11.467 14.333 o
8 -4 1 169.985 187.122 16.549 7.356 o
8 -3 0 344.659 314.274 24.755 3.086 o
8 -3 1 122.118 101.118 11.502 14.230 o
8 -2 0 0.395 1.300 2.534 499.113 o
;
_olex2_submission_special_instructions 'No special instructions were received'
loop_
_space_group_symop_id
_space_group_symop_operation_xyz
1 x,y,z
2 -x,-y,-z
loop_
_atom_site_label
_atom_site_type_symbol
_atom_site_fract_x
_atom_site_fract_y
_atom_site_fract_z
_atom_site_U_iso_or_equiv
_atom_site_adp_type
_atom_site_occupancy
_atom_site_refinement_flags_posn
Ni1 Ni 0.20464(6) 0.21554(6) 1.05650(5) 0.0066(3) Uani 1.000000 .
O1 O 0.2402(4) 0.1969(4) 0.8213(3) 0.0099(6) Uani 1.000000 .
O2 O -0.0517(4) 0.2350(4) 0.7346(3) 0.0101(6) Uani 1.000000 .
O3 O 0.7510(4) 0.2592(4) 0.2785(3) 0.0108(6) Uani 1.000000 .
O4 O 0.5180(4) 0.2700(4) 0.1010(3) 0.0093(6) Uani 1.000000 .
O5 O -0.1232(4) 0.1061(4) 1.0017(4) 0.0077(6) Uani 1.000000 .
O6 O 0.2444(4) 0.5136(4) 1.1008(3) 0.0124(6) Uani 1.000000 .
H6a H 0.328(4) 0.5662(14) 1.037(3) 0.0186(9) Uiso 1.000000 GR
H6b H 0.309(5) 0.5812(11) 1.1969(15) 0.0186(9) Uiso 1.000000 GR
N2 N 0.1110(4) 0.2384(4) 0.4289(4) 0.0078(6) Uani 1.000000 .
H2 H -0.0184(4) 0.2376(4) 0.4256(4) 0.0094(8) Uiso 1.000000 R
N1 N 0.2270(5) 0.2438(4) 0.3034(4) 0.0075(6) Uani 1.000000 .
C1 C 0.1273(5) 0.2234(5) 0.7187(4) 0.0090(8) Uani 1.000000 .
C2 C 0.2184(5) 0.2343(5) 0.5629(4) 0.0084(8) Uani 1.000000 .
C3 C 0.4149(5) 0.2385(5) 0.5197(4) 0.0087(7) Uani 1.000000 .
H3 H 0.5265(5) 0.2364(5) 0.5861(4) 0.0104(9) Uiso 1.000000 R
C4 C 0.4139(5) 0.2461(5) 0.3588(4) 0.0081(8) Uani 1.000000 .
C5 C 0.5754(5) 0.2602(5) 0.2401(4) 0.0082(7) Uani 1.000000 .
H5a H -0.118(7) 0.142(7) 0.925(7) 0.013(13) Uiso 1.000000 .
H5b H -0.146(10) 0.161(9) 1.087(8) 0.046(18) Uiso 1.000000 .
loop_
_atom_site_aniso_label
_atom_site_aniso_U_11
_atom_site_aniso_U_22
_atom_site_aniso_U_33
_atom_site_aniso_U_12
_atom_site_aniso_U_13
_atom_site_aniso_U_23
Ni1 0.0035(3) 0.0101(3) 0.0057(4) 0.0025(2) 0.00117(19) 0.0014(2)
O1 0.0078(12) 0.0139(12) 0.0074(13) 0.0041(10) 0.0010(10) 0.0022(10)
O2 0.0062(12) 0.0131(12) 0.0102(13) 0.0040(10) 0.0019(10) 0.0019(11)
O3 0.0056(12) 0.0184(13) 0.0098(13) 0.0066(10) 0.0018(9) 0.0033(11)
O4 0.0053(12) 0.0140(12) 0.0080(13) 0.0037(10) 0.0017(9) 0.0025(10)
O5 0.0057(12) 0.0107(13) 0.0068(14) 0.0029(10) 0.0023(10) 0.0032(12)
O6 0.0121(13) 0.0119(13) 0.0123(14) 0.0033(10) 0.0058(10) 0.0041(11)
N2 0.0046(13) 0.0100(14) 0.0080(16) 0.0026(11) 0.0021(11) 0.0015(12)
N1 0.0050(14) 0.0076(14) 0.0073(15) 0.0013(11) -0.0002(11) -0.0004(12)
C1 0.0072(17) 0.0072(16) 0.0080(18) -0.0003(13) 0.0001(13) -0.0005(14)
C2 0.0078(17) 0.0067(16) 0.009(2) 0.0030(13) -0.0019(14) -0.0004(15)
C3 0.0066(16) 0.0095(16) 0.0089(18) 0.0026(13) 0.0003(13) 0.0016(14)
C4 0.0039(16) 0.0084(16) 0.0102(19) 0.0022(13) 0.0016(13) -0.0003(14)
C5 0.0068(16) 0.0068(15) 0.0077(18) 0.0008(12) 0.0009(13) -0.0002(14)
loop_
_atom_type_symbol
_atom_type_scat_dispersion_real
_atom_type_scat_dispersion_imag
_atom_type_scat_Cromer_Mann_a1
_atom_type_scat_Cromer_Mann_a2
_atom_type_scat_Cromer_Mann_a3
_atom_type_scat_Cromer_Mann_a4
_atom_type_scat_Cromer_Mann_b1
_atom_type_scat_Cromer_Mann_b2
_atom_type_scat_Cromer_Mann_b3
_atom_type_scat_Cromer_Mann_b4
_atom_type_scat_Cromer_Mann_c
_atom_type_scat_source
_atom_type_scat_dispersion_source
H 0.00000 0.00000 0.49300 0.32291 0.14019 0.04081 10.51090 26.12570 3.14236
57.79970 0.0030380000826
'International Tables Volume C Table 6.1.1.4 (pp. 500-502)'
'Henke, Gullikson and Davis, At. Data and Nucl. Data Tables, 1993, 54, 2'
C 0.00347 0.00161 2.31000 1.02000 1.58860 0.86500 20.84390 10.20750 0.56870
51.65120 0.215599998832
'International Tables Volume C Table 6.1.1.4 (pp. 500-502)'
'Henke, Gullikson and Davis, At. Data and Nucl. Data Tables, 1993, 54, 2'
N 0.00653 0.00323 12.21260 3.13220 2.01250 1.16630 0.00570 9.89330 28.99750
0.58260 -11.5290002823
'International Tables Volume C Table 6.1.1.4 (pp. 500-502)'
'Henke, Gullikson and Davis, At. Data and Nucl. Data Tables, 1993, 54, 2'
O 0.01158 0.00611 3.04850 2.28680 1.54630 0.86700 13.27710 5.70110 0.32390
32.90890 0.250800013542
'International Tables Volume C Table 6.1.1.4 (pp. 500-502)'
'Henke, Gullikson and Davis, At. Data and Nucl. Data Tables, 1993, 54, 2'
Ni 0.35663 1.12491 12.83760 7.29200 4.44380 2.38000 3.87850 0.25650 12.17630
66.34210 1.03410005569
'International Tables Volume C Table 6.1.1.4 (pp. 500-502)'
'Henke, Gullikson and Davis, At. Data and Nucl. Data Tables, 1993, 54, 2'
loop_
_geom_angle_atom_site_label_1
_geom_angle_atom_site_label_2
_geom_angle_atom_site_label_3
_geom_angle
_geom_angle_site_symmetry_1
_geom_angle_site_symmetry_3
_geom_angle_publ_flag
O4 Ni1 O1 89.36(10) 1_556 . ?
O5 Ni1 O1 90.39(12) . . ?
O5 Ni1 O1 89.08(11) 2_557 . ?
O5 Ni1 O4 90.68(10) 2_557 1_556 ?
O5 Ni1 O4 169.88(10) . 1_556 ?
O6 Ni1 O1 89.69(10) . . ?
O6 Ni1 O4 96.32(10) . 1_556 ?
O6 Ni1 O5 93.80(10) . . ?
O6 Ni1 O5 172.88(9) . 2_557 ?
N1 Ni1 O1 169.32(11) 1_556 . ?
N1 Ni1 O4 79.97(11) 1_556 1_556 ?
N1 Ni1 O5 90.87(12) 1_556 2_557 ?
N1 Ni1 O5 100.10(12) 1_556 . ?
N1 Ni1 O6 91.63(11) 1_556 . ?
C1 O1 Ni1 127.8(2) . . ?
C5 O4 Ni1 115.4(2) . 1_554 ?
H5a O5 Ni1 94(3) . . ?
H5a O5 Ni1 112(3) . 2_557 ?
H5b O5 Ni1 117(4) . 2_557 ?
H5b O5 Ni1 97(4) . . ?
H5b O5 H5a 126(6) . . ?
H6a O6 Ni1 109.3 . . ?
H6b O6 Ni1 109.4 . . ?
H6b O6 H6a 104.5 . . ?
N1 N2 H2 124.32(18) . . ?
C2 N2 H2 124.32(19) . . ?
C2 N2 N1 111.4(3) . . ?
N2 N1 Ni1 141.8(2) . 1_554 ?
C4 N1 Ni1 111.8(2) . 1_554 ?
C4 N1 N2 105.8(3) . . ?
O2 C1 O1 127.0(3) . . ?
C2 C1 O1 114.0(3) . . ?
C2 C1 O2 118.9(3) . . ?
C1 C2 N2 123.3(3) . . ?
C3 C2 N2 106.8(3) . . ?
C3 C2 C1 129.9(3) . . ?
H3 C3 C2 127.4(2) . . ?
C4 C3 C2 105.1(3) . . ?
C4 C3 H3 127.4(2) . . ?
C3 C4 N1 110.9(3) . . ?
C5 C4 N1 115.6(3) . . ?
C5 C4 C3 133.5(3) . . ?
O4 C5 O3 124.0(3) . . ?
C4 C5 O3 120.4(3) . . ?
C4 C5 O4 115.5(3) . . ?
loop_
_geom_bond_atom_site_label_1
_geom_bond_atom_site_label_2
_geom_bond_distance
_geom_bond_site_symmetry_2
_geom_bond_publ_flag
Ni1 O1 1.992(3) . ?
Ni1 O4 2.033(2) 1_556 ?
Ni1 O5 2.073(2) . ?
Ni1 O5 2.136(3) 2_557 ?
Ni1 O6 2.039(2) . ?
Ni1 N1 2.052(3) 1_556 ?
O1 C1 1.258(4) . ?
O2 C1 1.260(4) . ?
O3 C5 1.242(4) . ?
O4 C5 1.272(5) . ?
O5 H5a 0.76(5) . ?
O5 H5b 0.78(7) . ?
O6 H6a 0.8500 . ?
O6 H6b 0.8500 . ?
N2 H2 0.8800 . ?
N2 N1 1.335(4) . ?
N2 C2 1.362(4) . ?
N1 C4 1.347(5) . ?
C1 C2 1.478(5) . ?
C2 C3 1.384(5) . ?
C3 H3 0.9500 . ?
C3 C4 1.385(5) . ?
C4 C5 1.494(5) . ?
loop_
_refln_index_h
_refln_index_k
_refln_index_l
_refln_F_squared_meas
_refln_F_squared_sigma
-1 0 0 645.94 59.09
-1 0 0 637.54 57.79
-1 0 0 650.13 60.39
1 0 0 747.23 58.19
1 0 0 581.94 59.89
-2 0 0 4840.22 446.96
-2 0 0 4904.91 452.05
-2 0 0 5379.86 449.95
2 0 0 5346.37 447.66
-3 0 0 5378.06 510.65
3 0 0 6141.69 504.65
-4 0 0 1211.58 138.29
-4 0 0 1625.94 133.09
4 0 0 1537.65 133.09
-5 0 0 1296.07 147.79
-5 0 0 1563.84 141.39
5 0 0 1828.82 143.49
-6 0 0 699.53 69.19
6 0 0 661.13 69.59
-7 0 0 630.94 65.99
7 0 0 630.14 67.29
-8 0 0 12.1 6
8 0 0 -1.8 5.5
8 -1 0 655.53 71.89
-8 1 0 671.93 71.39
7 -1 0 73.29 16.4
-7 1 0 70.59 12.3
-7 1 0 63.59 14.9
6 -1 0 1872.61 174.08
-6 1 0 1827.62 173.38
-6 1 0 1941.41 172.38
5 -1 0 4 3.1
-5 1 0 7.2 4.9
-5 1 0 5.4 3.7
-5 1 0 11.5 7
4 -1 0 5530.55 485.65
-4 1 0 5386.16 490.35
-4 1 0 5633.34 485.55
3 -1 0 4542.35 421.26
-3 1 0 4610.94 421.36
-3 1 0 5222.78 422.26
2 -1 0 1462.25 134.09
2 -1 0 1587.74 134.59
-2 1 0 1628.04 136.79
-2 1 0 1523.25 133.99
-2 1 0 1380.06 134.89
-2 1 0 1508.45 134.39
0 -1 0 367.96 28.1
0 -1 0 292.67 33.8
0 -1 0 280.87 28.7
0 1 0 321.27 34.7
-1 -1 0 3784.22 332.87
-1 -1 0 3635.94 339.37
-1 -1 0 3879.21 331.57
1 1 0 3712.13 339.87
1 1 0 3948.2 331.77
-2 -1 0 1271.77 99.29
-2 -1 0 1119.69 98.99
-2 -1 0 953.6 107.29
-2 -1 0 1009.4 100.89
2 1 0 1006.1 107.79
2 1 0 1297.87 102.39
2 1 0 1029.5 98.89
-3 -1 0 954 81.59
3 1 0 728.13 90.09
3 1 0 1006 85.89
3 1 0 830.62 81.29
-4 -1 0 2001.2 177.38
4 1 0 1874.91 177.58
4 1 0 2016 192.08
-5 -1 0 36.6 9.4
5 1 0 19.9 7.1
-6 -1 0 1016 95.79
6 1 0 949.01 96.59
-7 -1 0 27.1 13
-7 -1 0 4.3 5.1
7 1 0 5.2 7.6
8 -2 0 4.7 8.5
-8 2 0 0.7 4.8
7 -2 0 990 83.39
-7 2 0 935.71 82.49
-7 2 0 663.73 76.49
-7 2 0 772.82 76.59
6 -2 0 1292.97 114.39
-6 2 0 1352.66 114.99
-6 2 0 1080.29 111.89
-6 2 0 1138.39 115.19
5 -2 0 944.11 89.39
-5 2 0 1074.09 94.99
-5 2 0 825.22 88.99
-5 2 0 943.21 89.59
4 -2 0 3259.17 278.47
-4 2 0 2831.42 280.07
-4 2 0 3343.37 279.07
3 -2 0 1027.4 83.09
3 -2 0 821.82 79.59
-3 2 0 734.43 83.29
-3 2 0 900.21 80.59
2 -2 0 1101.99 87.19
2 -2 0 926.91 85.99
2 -2 0 943.11 92.59
-2 2 0 997 85.99
-2 2 0 1004.7 87.09
-2 2 0 789.42 92.29
1 -2 0 1049.09 92.89
1 -2 0 1222.78 93.99
1 -2 0 913.51 102.09
-1 2 0 1088.59 92.89
-1 2 0 1085.29 94.19
-1 2 0 917.81 102.69
-1 -2 0 1236.88 131.39
-1 -2 0 1429.16 117.49
-1 -2 0 1323.87 118.79
-1 -2 0 1104.89 119.69
1 2 0 1494.15 117.49
1 2 0 1394.16 120.19
-2 -2 0 811.72 70.59
-2 -2 0 727.63 71.59
2 2 0 851.01 73.09
2 2 0 850.21 75.19
2 2 0 708.83 86.49
-3 -2 0 5429.36 460.85
-3 -2 0 5062.59 458.35
3 2 0 4570.84 477.85
3 2 0 6056.79 466.35
3 2 0 5095.29 461.45
-4 -2 0 28.2 14.6
-4 -2 0 1.2 1.9
-4 -2 0 6.9 3.8
4 2 0 4.5 4
4 2 0 -3.3 7.3
-5 -2 0 2030.9 193.38
-5 -2 0 2139.89 197.38
5 2 0 2363.36 223.18
5 2 0 2230.08 199.08
-6 -2 0 -2.9 11.4
-6 -2 0 6.5 5.1
-6 -2 0 2.3 3.1
6 2 0 4.5 4.7
-7 -2 0 334.47 38.2
-7 -2 0 299.47 33
7 2 0 293.07 38.3
9 -3 0 49.99 15.4
-9 3 0 34 13.4
8 -3 0 519.75 57.49
-8 3 0 516.85 57.99
7 -3 0 829.82 75.89
-7 3 0 864.11 77.09
-7 3 0 665.43 72.79
-7 3 0 677.83 72.99
6 -3 0 179.78 22.3
-6 3 0 143.19 23.2
-6 3 0 179.88 22.9
5 -3 0 212.28 24.4
-5 3 0 228.08 25.6
-5 3 0 187.68 28.4
4 -3 0 1338.57 112.49
4 -3 0 1113.39 106.79
-4 3 0 990.5 114.09
-4 3 0 1229.38 108.49
3 -3 0 2871.61 260.67
3 -3 0 3189.48 271.57
-3 3 0 2656.33 271.97
-3 3 0 3108.59 262.47
2 -3 0 48.1 14.7
2 -3 0 44.2 7
2 -3 0 48.4 6.3
-2 3 0 54.89 7.7
-2 3 0 37.8 14.7
-2 3 0 52.99 6.3
1 -3 0 9999 887.21
-1 3 0 9968.7 889.21
0 -3 0 4054.89 353.16
0 3 0 4291.17 351.16
0 3 0 3591.54 353.16
0 3 0 4178.48 374.96
-1 -3 0 1977.5 163.78
1 3 0 1781.62 187.08
1 3 0 1802.72 166.48
-2 -3 0 5342.17 487.25
-2 -3 0 5867.51 488.65
2 3 0 6100.49 492.55
2 3 0 4958.4 512.65
-3 -3 0 19.7 5.2
3 3 0 17.2 5.2
3 3 0 7.8 8.2
3 3 0 21.3 7.3
-4 -3 0 2075.99 186.48
-4 -3 0 2023 183.68
4 3 0 2067.49 188.08
4 3 0 2123.49 216.28
-5 -3 0 564.84 58.89
-5 -3 0 592.14 56.09
5 3 0 606.34 61.19
5 3 0 619.24 85.79
-6 -3 0 509.35 52.59
-6 -3 0 507.05 56.29
6 3 0 591.44 59.69
6 3 0 639.14 88.29
9 -4 0 528.55 60.99
-9 4 0 558.84 63.29
8 -4 0 151.68 27
-8 4 0 182.68 26.5
7 -4 0 568.94 58.79
-7 4 0 550.94 59.79
6 -4 0 1918.81 166.88
-6 4 0 1965.1 168.78
-6 4 0 1593.54 174.28
5 -4 0 771.12 71.89
-5 4 0 792.32 73.79
-5 4 0 686.53 82.69
4 -4 0 5979.2 530.45
-4 4 0 6547.04 533.15
-4 4 0 5597.14 546.55
3 -4 0 116.49 13.4
-3 4 0 124.29 15.5
-3 4 0 106.39 24.2
2 -4 0 3301.17 277.17
-2 4 0 3208.58 279.67
-2 4 0 2933.31 299.47
1 -4 0 3074.19 252.77
-1 4 0 3007.8 281.47
-1 4 0 2587.04 255.87
0 -4 0 9093.89 758.12
0 4 0 9222.48 790.22
0 4 0 7764.92 758.22
-1 -4 0 1891.71 167.28
1 4 0 1998.4 170.78
1 4 0 1763.72 197.88
-2 -4 0 35.6 6.1
2 4 0 31.3 8.6
2 4 0 46.6 21.8
-3 -4 0 1727.53 163.38
-3 -4 0 1781.52 165.08
3 4 0 2135.49 171.58
3 4 0 1718.53 198.98
-4 -4 0 36.6 8.8
-4 -4 0 38.4 7.5
4 4 0 29.7 21.2
-5 -4 0 811.82 80.49
-5 -4 0 884.81 84.09
5 4 0 946.11 121.09
-6 -4 0 19.4 5.5
-6 -4 0 17.1 8
-6 -4 0 23.6 22.8
6 4 0 12.8 23.7
-9 5 0 6.1 7.5
8 -5 0 894.31 89.89
-8 5 0 900.51 92.29
7 -5 0 953.9 93.39
-7 5 0 1077.59 97.09
-7 5 0 862.71 102.69
6 -5 0 171.48 22.4
-6 5 0 175.48 33.2
-6 5 0 194.98 25.2
5 -5 0 577.64 55.29
-5 5 0 550.04 72.29
-5 5 0 559.04 57.59
4 -5 0 189.18 20.6
-4 5 0 196.58 23.5
-4 5 0 158.28 33.8
3 -5 0 719.33 64.79
-3 5 0 590.54 84.89
-3 5 0 757.62 68.09
2 -5 0 251.87 24.9
2 -5 0 306.17 26.4
-2 5 0 211.58 27.3
-2 5 0 206.28 42.8
1 -5 0 1707.63 140.09
-1 5 0 1467.35 144.09
-1 5 0 1549.74 173.08
0 -5 0 1125.59 101.69
0 -5 0 1276.17 103.99
0 5 0 1085.49 104.39
0 5 0 1019.6 133.89
-1 -5 0 67.29 8
-1 -5 0 59.79 10.2
1 5 0 53.59 26.9
1 5 0 51.99 9.7
-2 -5 0 1672.43 149.09
-2 -5 0 1572.44 148.39
2 5 0 1830.52 153.78
2 5 0 1567.04 189.88
-3 -5 0 146.49 17.4
-3 -5 0 132.19 15.9
3 5 0 138.69 45
-4 -5 0 735.63 66.89
-4 -5 0 635.94 64.19
4 5 0 671.43 104.69
-5 -5 0 860.71 85.49
-5 -5 0 868.21 82.69
5 5 0 982.9 129.99
8 -6 0 393.46 44.3
-8 6 0 368.76 46.5
7 -6 0 -1.8 3.1
-7 6 0 -2.5 9.7
-7 6 0 -4 4.9
6 -6 0 871.11 85.09
-6 6 0 968.6 89.49
-6 6 0 816.52 105.59
5 -6 0 -3.8 2.8
-5 6 0 -0.8 8.6
-5 6 0 -1.2 3.5
4 -6 0 1415.46 122.79
-4 6 0 1089.39 146.69
-4 6 0 1494.85 127.09
3 -6 0 36.5 7.1
-3 6 0 34.2 9.3
-3 6 0 46.6 22.7
2 -6 0 501.15 47
2 -6 0 591.94 48.1
-2 6 0 437.16 74.69
-2 6 0 415.66 50.69
1 -6 0 2647.24 237.08
1 -6 0 2982.6 237.58
-1 6 0 2464.95 240.98
-1 6 0 2628.14 280.27
0 -6 0 2002.3 169.68
0 -6 0 1868.31 168.88
0 6 0 1889.81 171.18
0 6 0 1819.02 213.48
-1 -6 0 2163.08 180.98
-1 -6 0 1840.92 179.88
-1 -6 0 1988.4 183.08
1 6 0 2132.59 183.68
1 6 0 2132.39 233.48
-2 -6 0 433.06 40.1
-2 -6 0 402.66 39.7
2 6 0 362.26 74.59
-3 -6 0 846.92 80.89
-3 -6 0 956.5 82.29
3 6 0 754.82 124.79
-4 -6 0 685.73 67.99
4 6 0 820.82 120.79
8 -7 0 175.78 23.8
-8 7 0 160.58 26.3
7 -7 0 692.63 69.99
-7 7 0 773.72 75.69
-7 7 0 617.24 89.89
6 -7 0 -6.9 3.6
-6 7 0 8.4 11.5
-6 7 0 6.3 6
5 -7 0 640.24 63.89
-5 7 0 693.23 95.89
-5 7 0 668.23 68.49
4 -7 0 15.2 5
-4 7 0 5.9 4
-4 7 0 14.4 17
3 -7 0 589.04 53.59
-3 7 0 502.55 57.69
-3 7 0 622.04 90.69
2 -7 0 1178.88 111.59
2 -7 0 1430.26 113.99
-2 7 0 1158.18 152.78
-2 7 0 1120.89 116.99
1 -7 0 488.25 45.2
1 -7 0 529.35 46.7
-1 7 0 489.25 84.49
-1 7 0 448.16 48.4
0 -7 0 1574.54 147.79
0 7 0 1839.02 149.09
0 7 0 1439.36 195.18
-1 -7 0 113.29 14.9
-1 -7 0 139.49 14
1 7 0 108.59 44.5
-2 -7 0 606.14 56.59
2 7 0 565.64 102.99
-3 -7 0 226.58 23.6
3 7 0 165.98 62.39
7 -8 0 -9.6 4
-7 8 0 18.5 19
-7 8 0 1.5 6.4
6 -8 0 1101.09 106.59
-6 8 0 1159.58 143.39
-6 8 0 1147.69 112.39
5 -8 0 31.7 8.6
-5 8 0 41.9 10.9
-5 8 0 26.7 22.6
4 -8 0 859.51 76.59
-4 8 0 726.53 80.19
-4 8 0 867.91 118.19
3 -8 0 137.79 16.1
-3 8 0 135.79 47.6
-3 8 0 114.49 23.2
2 -8 0 35.4 7.3
-2 8 0 34.4 28.6
-2 8 0 20.8 9.9
1 -8 0 994.6 88.49
-1 8 0 887.31 135.29
0 -8 0 531.85 49.2
0 8 0 448.26 90.39
-1 -8 0 516.75 49
1 8 0 469.75 95.59
6 -9 0 58.39 12.9
-6 9 0 89.69 18.4
5 -9 0 65.19 11.8
-5 9 0 54.29 14.4
-5 9 0 52.59 32.4
4 -9 0 8 4.3
-4 9 0 22.7 8.9
-4 9 0 -15.1 10.9
3 -9 0 44 7
-3 9 0 32.2 28.2
2 -9 0 391.86 40.4
-2 9 0 416.56 81.69
1 -9 0 83.39 13.1
-1 9 0 57.79 40.3
-1 9 -1 353.96 76.19
1 -9 1 324.97 33.6
-2 9 -1 416.76 84.19
2 -9 1 401.56 40.5
-3 9 -1 24.2 26.2
-3 9 -1 60.29 20
3 -9 1 76.99 9.9
-4 9 -1 497.95 85.99
4 -9 1 448.96 46.5
-5 9 -1 0.4 7.5
-5 9 -1 -8.6 11.6
-6 9 -1 395.16 48.6
-6 9 -1 407.96 71.29
6 -9 1 355.36 40.2
1 8 -1 254.57 73.89
-1 -8 1 183.78 20.8
0 8 -1 4.6 8.9
0 8 -1 29.4 28
0 -8 1 25.9 5.6
-1 8 -1 329.77 37.8
-1 8 -1 241.48 69.99
1 -8 1 317.57 31.4
-2 8 -1 -8.9 8
-2 8 -1 14.9 17.9
2 -8 1 -0.9 2.5
-3 8 -1 467.85 57.29
-3 8 -1 548.65 89.89
3 -8 1 561.74 50.69
-4 8 -1 240.08 53.29
-4 8 -1 229.88 31.9
4 -8 1 256.97 26.5
-5 8 -1 725.43 104.49
-5 8 -1 717.63 76.79
5 -8 1 760.02 70.59
-6 8 -1 694.13 72.49
-6 8 -1 670.63 95.69
6 -8 1 627.04 64.79
-7 8 -1 24.7 17.7
-7 8 -1 30.9 12.7
7 -8 1 44.8 11.1
3 7 -1 71.99 36
-3 -7 1 102.79 12.6
2 7 -1 880.61 78.59
2 7 -1 797.92 122.09
-2 -7 1 765.22 71.59
-2 -7 1 655.33 69.79
1 7 -1 387.96 40.5
1 7 -1 311.07 68.99
-1 -7 1 325.57 33.6
0 7 -1 1188.48 114.79
0 7 -1 1331.27 161.28
0 -7 1 1163.68 108.19
-1 7 -1 350.86 69.29
-1 7 -1 409.16 45.9
1 -7 1 401.16 37.9
-2 7 -1 1693.73 180.38
-2 7 -1 1986.4 218.08
2 -7 1 2138.19 172.88
-3 7 -1 711.03 77.99
-3 7 -1 768.82 106.39
3 -7 1 836.72 71.99
-4 7 -1 1395.76 159.58
-4 7 -1 1369.06 130.09
4 -7 1 1332.37 123.49
-5 7 -1 487.05 76.89
-5 7 -1 536.45 57.59
5 -7 1 521.85 51.19
-6 7 -1 284.17 37.3
-6 7 -1 272.97 50.29
6 -7 1 292.87 32.1
-7 7 -1 281.47 37
-7 7 -1 270.87 45.4
7 -7 1 252.97 30.6
-8 7 -1 16.6 9.2
8 -7 1 -2.8 7.6
4 6 -1 278.97 63.09
-4 -6 1 240.78 27.9
-4 -6 1 214.78 24.5
3 6 -1 196.98 61.89
-3 -6 1 302.47 29.6
-3 -6 1 244.88 26.8
2 6 -1 998.4 92.59
2 6 -1 872.61 126.89
-2 -6 1 883.01 84.59
-2 -6 1 960 86.59
1 6 -1 889.61 83.99
1 6 -1 787.32 115.99
-1 -6 1 845.72 76.89
0 6 -1 17.7 8
0 6 -1 13.7 14.6
0 -6 1 24 4.5
-1 6 -1 999.2 104.19
-1 6 -1 1050.99 132.89
1 -6 1 1146.29 96.39
-2 6 -1 133.49 22.1
-2 6 -1 167.78 46.2
2 -6 1 180.08 17.3
-3 6 -1 242.48 31
-3 6 -1 248.88 47.9
3 -6 1 289.47 26.9
-4 6 -1 550.64 56.29
-4 6 -1 556.34 75.89
4 -6 1 495.35 50.59
-5 6 -1 431.46 62.09
-5 6 -1 427.66 46.5
5 -6 1 376.36 40.9
-6 6 -1 415.06 61.09
-6 6 -1 527.05 53.29
6 -6 1 448.16 47.3
-7 6 -1 180.28 30.8
-7 6 -1 172.68 26.6
7 -6 1 161.18 22.2
-8 6 -1 534.95 60.09
8 -6 1 490.25 54.99
5 5 -1 1400.16 164.98
-5 -5 1 1226.58 117.39
-5 -5 1 1190.08 113.39
4 5 -1 186.28 55.29
4 5 -1 251.17 33.5
-4 -5 1 215.98 23.1
-4 -5 1 214.18 25.8
3 5 -1 26.3 10.7
3 5 -1 37.9 25.4
-3 -5 1 34.3 6.2
-3 -5 1 30.7 7.4
2 5 -1 1541.25 144.79
2 5 -1 1544.55 177.88
-2 -5 1 1559.04 137.69
1 5 -1 29.7 20.4
1 5 -1 40.5 10.1
-1 -5 1 38.9 6
0 5 -1 902.91 92.39
0 5 -1 981.3 118.89
0 -5 1 983.8 90.99
0 -5 1 979.7 85.79
-1 5 -1 76.39 27.4
-1 5 -1 79.79 15.3
1 -5 1 116.19 14.5
1 -5 1 114.39 11.2
-2 5 -1 1013.8 117.19
-2 5 -1 969.2 95.99
2 -5 1 1040.6 90.49
-3 5 -1 2047.1 216.88
-3 5 -1 2303.47 198.68
3 -5 1 2179.48 193.28
-4 5 -1 1098.89 94.79
-4 5 -1 872.81 106.79
4 -5 1 940.11 89.29
-5 5 -1 1549.05 131.99
-5 5 -1 1283.37 141.59
5 -5 1 1327.17 126.69
-6 5 -1 8 6.5
-6 5 -1 6.8 5.3
6 -5 1 -2.2 2.4
-7 5 -1 654.83 62.59
-7 5 -1 457.65 57.69
7 -5 1 629.74 58.49
-8 5 -1 350.96 44.4
8 -5 1 361.76 41.9
-6 -4 1 958.4 84.19
-6 -4 1 844.92 87.69
5 4 -1 122.89 44.6
5 4 -1 95.79 18.7
-5 -4 1 113.19 16.4
-5 -4 1 118.59 13.9
4 4 -1 48.7 13.8
4 4 -1 27.3 18
-4 -4 1 29.7 8.4
-4 -4 1 27 6.3
3 4 -1 749.92 72.89
3 4 -1 629.84 92.39
-3 -4 1 719.43 66.89
-3 -4 1 693.53 64.29
2 4 -1 103.89 16.2
2 4 -1 118.89 36.1
-2 -4 1 105.99 11.6
1 4 -1 888.61 102.79
1 4 -1 840.02 79.39
-1 -4 1 685.33 78.39
-1 -4 1 883.91 73.39
0 4 -1 259.07 22.7
0 4 -1 227.48 40.9
0 4 -1 215.68 27.6
0 -4 1 235.68 26.7
0 -4 1 253.87 22.7
-1 4 -1 2336.17 192.78
-1 4 -1 2037.5 215.38
1 -4 1 2183.58 192.68
-2 4 -1 2822.92 249.68
-2 4 -1 2664.03 265.27
2 -4 1 2872.41 245.08
-3 4 -1 130.79 16.4
-3 4 -1 97.29 22.1
3 -4 1 103.69 12.7
-4 4 -1 3743.63 392.36
-4 4 -1 4651.43 385.06
4 -4 1 4062.09 380.86
4 -4 1 4859.91 393.76
-5 4 -1 0.4 5.1
-5 4 -1 -0.4 1.6
5 -4 1 -3.5 4.1
5 -4 1 -2 1.5
-6 4 -1 1253.07 108.49
-6 4 -1 957.4 105.19
6 -4 1 1175.78 105.29
-7 4 -1 1128.49 109.09
7 -4 1 1070.29 106.09
-8 4 -1 288.07 38.8
8 -4 1 326.37 38.4
-9 4 -1 183.08 28.4
9 -4 1 151.08 28.1
6 3 -1 342.27 41
-6 -3 1 348.77 36.2
-6 -3 1 371.56 40.4
5 3 -1 1511.55 160.18
5 3 -1 1632.94 138.19
5 3 -1 1309.77 128.09
-5 -3 1 1283.67 127.39
-5 -3 1 1242.28 123.49
4 3 -1 914.11 111.39
4 3 -1 812.22 85.19
4 3 -1 985.9 92.59
-4 -3 1 917.01 85.59
-4 -3 1 898.81 82.19
3 3 -1 81.89 12.6
3 3 -1 64.99 23.9
3 3 -1 65.09 14.4
-3 -3 1 68.89 10.1
-3 -3 1 59.89 8.1
2 3 -1 5544.25 490.25
2 3 -1 5527.95 494.65
2 3 -1 5451.05 514.25
-2 -3 1 5830.92 488.25
1 3 -1 732.83 56.39
1 3 -1 676.73 77.79
1 3 -1 618.24 61.39
-1 -3 1 510.85 60.49
-1 -3 1 651.03 57.79
-1 -3 1 591.64 56.09
0 3 -1 4313.77 417.16
0 3 -1 4939.61 433.96
0 3 -1 5318.57 412.26
0 -3 1 4347.17 416.26
-1 3 -1 105.09 9.8
-1 3 -1 72.89 17.5
-1 3 -1 88.59 13
1 -3 1 114.19 12.9
1 -3 1 70.69 20.1
1 -3 1 104.39 9.9
-2 3 -1 1490.85 120.99
-2 3 -1 1421.66 124.39
2 -3 1 1263.07 132.99
2 -3 1 1276.27 120.79
-3 3 -1 5376.36 533.25
3 -3 1 6568.74 535.05
3 -3 1 6058.99 525.05
-4 3 -1 605.04 60.39
4 -3 1 647.34 59.99
4 -3 1 572.84 58.39
-5 3 -1 845.22 80.59
-5 3 -1 776.52 78.39
5 -3 1 887.41 79.49
-6 3 -1 17.5 7.5
6 -3 1 19.9 7.4
-7 3 -1 198.28 28.3
7 -3 1 218.38 28
-8 3 -1 170.48 26.2
8 -3 1 162.48 27.5
-9 3 -1 177.68 28.5
9 -3 1 184.38 31.9
7 2 -1 15.4 8.8
-7 -2 1 12 4.4
-7 -2 1 35.2 15.7
-7 -2 1 4.6 3.8
6 2 -1 2275.37 205.58
-6 -2 1 2198.68 204.48
-6 -2 1 2247.78 199.68
5 2 -1 429.56 48.7
5 2 -1 383.46 41.5
-5 -2 1 361.46 40.7
4 2 -1 94.39 26.2
4 2 -1 80.79 14.3
4 2 -1 70.19 17.2
-4 -2 1 87.09 12.6
3 2 -1 1432.16 133.09
3 2 -1 1308.27 145.09
3 2 -1 1412.16 128.19
-3 -2 1 1492.85 128.49
2 2 -1 17.5 5.9
2 2 -1 7 7.7
2 2 -1 13.4 3.6
-2 -2 1 12.1 2.6
-2 -2 1 20.3 4
-2 -2 1 11.6 5.2
1 2 -1 17.9 3.3
1 2 -1 17.8 8.6
-1 -2 1 15 2.4
-1 -2 1 19 9.2
-1 -2 1 12.9 4.6
-1 -2 1 16.7 3.2
0 2 -1 46.3 8.4
0 2 -1 51.59 14.5
0 2 -1 66.39 5.8
0 -2 1 50.89 8.2
0 -2 1 63.49 13.7
0 -2 1 62.29 5.7
-1 2 -1 15 6.5
-1 2 -1 14.8 2.3
-1 2 -1 14.1 4.2
1 -2 1 10.6 2.2
1 -2 1 13.5 3.6
1 -2 1 10.2 5.5
-2 2 -1 986.7 85.29
-2 2 -1 943.31 83.09
2 -2 1 1018.1 85.09
2 -2 1 897.41 83.19
2 -2 1 798.22 87.69
-3 2 -1 362.36 33.4
-3 2 -1 281.77 32.1
3 -2 1 324.37 31.7
-4 2 -1 1977.2 165.78
-4 2 -1 1873.91 161.18
-4 2 -1 1574.14 160.78
4 -2 1 1920.81 164.88
-5 2 -1 195.18 24.7
5 -2 1 217.78 25.1
-6 2 -1 599.84 59.79
6 -2 1 525.15 58.39
-7 2 -1 2280.37 211.88
7 -2 1 2308.37 212.08
-8 2 -1 4.7 5.3
8 -2 1 0.8 7.2
8 1 -1 26.3 13.3
-8 -1 1 26 10.8
7 1 -1 295.17 37.5
-7 -1 1 317.47 37.2
6 1 -1 1190.98 112.89
-6 -1 1 1168.38 111.99
5 1 -1 184.68 27.3
5 1 -1 158.68 21.4
-5 -1 1 174.68 22
4 1 -1 749.13 72.79
4 1 -1 678.53 66.69
-4 -1 1 670.63 66.49
3 1 -1 737.93 70.19
3 1 -1 896.31 86.09
3 1 -1 757.72 74.79
-3 -1 1 645.04 82.29
-3 -1 1 761.62 70.59
2 1 -1 1511.25 117.59
2 1 -1 1549.45 131.09
2 1 -1 1106.59 119.89
-2 -1 1 1380.86 130.79
-2 -1 1 1192.58 120.29
-2 -1 1 1191.28 116.49
1 1 -1 2284.27 218.68
1 1 -1 2781.82 226.88
1 1 -1 2515.85 215.78
-1 -1 1 2102.89 218.38
-1 -1 1 2614.64 227.08
-1 -1 1 2525.35 215.68
0 1 -1 1682.33 149.49
-1 1 -1 23.5 4.5
-1 1 -1 21.3 3.9
-1 1 -1 19 3.2
1 -1 1 18.7 4.2
1 -1 1 30.4 3.4
-2 1 -1 0.8 1.2
-2 1 -1 0.9 1.1
2 -1 1 -0.7 1
2 -1 1 1.6 1.3
-4 1 -1 424.76 37.6
-4 1 -1 385.06 41.1
4 -1 1 377.96 40.9
-5 1 -1 984.2 95.39
-5 1 -1 1028.1 90.49
5 -1 1 984.6 95.59
-6 1 -1 1029.9 108.79
-6 1 -1 1213.98 108.39
-6 1 -1 1407.76 117.49
6 -1 1 1353.86 117.59
7 -1 1 39.7 10.5
-8 1 -1 345.97 44.5
8 -1 1 438.76 47.8
8 0 -1 92.19 20.3
-8 0 1 98.69 17.7
7 0 -1 278.57 35.9
-7 0 1 296.97 35.8
6 0 -1 1196.58 120.29
-6 0 1 1331.17 120.79
5 0 -1 517.65 53.69
-5 0 1 537.45 53.59
4 0 -1 950.2 90.89
4 0 -1 1152.88 97.99
-4 0 1 1003.4 91.19
-4 0 1 822.72 101.09
3 0 -1 2181.58 194.98
3 0 -1 2379.46 199.98
-3 0 1 1962 204.98
-3 0 1 2248.68 195.18
2 0 -1 1143.29 104.19
2 0 -1 1116.19 107.09
-2 0 1 1139.09 104.39
-2 0 1 1333.67 115.09
-2 0 1 1123.79 103.69
1 0 -1 643.34 65.29
1 0 -1 811.42 63.39
-1 0 1 800.92 63.29
-1 0 1 594.34 64.99
0 0 -1 1.4 0.7
0 0 1 -0.4 0.3
0 0 1 -0.2 0.1
0 0 1 0.1 0.1
-1 0 -1 99.69 11.4
-1 0 -1 119.29 11.9
-1 0 -1 107.89 13.1
1 0 1 131.29 11.9
1 0 1 112.79 14.1
1 0 1 106.69 11.6
-2 0 -1 4730.33 401.66
-2 0 -1 4435.26 404.56
2 0 1 4804.02 401.96
2 0 1 4390.46 404.96
-3 0 -1 2683.03 211.28
-3 0 -1 2021.8 213.48
3 0 1 2351.66 210.88
3 0 1 2430.16 215.58
-4 0 -1 906.21 88.39
4 0 1 870.11 88.59
4 0 1 1049.99 95.59
-5 0 -1 349.96 38.9
-5 0 -1 336.57 41.4
5 0 1 452.35 41.5
-6 0 -1 90.29 14.7
-6 0 -1 88.59 16
6 0 1 68.69 16.1
-7 0 -1 1198.68 116.19
7 0 1 1199.88 117.79
-8 0 -1 16.9 5.6
8 0 1 10.3 7.2
8 -1 -1 188.08 31.7
-8 1 1 199.68 28.3
7 -1 -1 688.93 71.49
-7 1 1 723.73 73.19
-7 1 1 653.63 70.79
6 -1 -1 2658.43 264.37
-6 1 1 3323.97 269.97
-6 1 1 2781.02 264.57
5 -1 -1 139.19 20.4
-5 1 1 218.78 26.2
-5 1 1 194.28 28.5
-5 1 1 126.49 19.7
4 -1 -1 2586.34 237.78
-4 1 1 2744.93 238.18
3 -1 -1 1633.44 152.58
3 -1 -1 1853.11 157.28
-3 1 1 1655.93 152.88
2 -1 -1 1628.34 150.88
2 -1 -1 1891.71 154.28
-2 1 1 1615.34 153.48
-2 1 1 1454.75 150.38
-2 1 1 1790.72 151.48
-2 1 1 1880.41 156.48
-1 1 1 3578.04 313.57
0 -1 -1 847.42 80.49
0 -1 -1 1047 89.69
0 1 1 866.21 80.49
0 1 1 942.81 89.59
-1 -1 -1 1834.52 157.88
-1 -1 -1 2022.8 157.08
-1 -1 -1 1577.54 165.08
-1 -1 -1 1835.02 156.58
1 1 1 1579.04 166.68
1 1 1 1950.4 156.78
1 1 1 1767.62 158.08
1 1 1 1669.73 156.38
-2 -1 -1 2.8 2.5
-2 -1 -1 6.5 1.8
-2 -1 -1 6.1 2.5
2 1 1 2.6 1.8
2 1 1 2.5 5.1
2 1 1 4.7 2.1
-3 -1 -1 2343.47 240.08
-3 -1 -1 2693.03 228.28
3 1 1 2742.03 231.78
3 1 1 2620.14 243.48
-4 -1 -1 21.9 9.9
-4 -1 -1 49.7 14.7
-4 -1 -1 21.1 6.4
4 1 1 13.3 6.1
4 1 1 14.1 9.8
-5 -1 -1 219.48 27.2
5 1 1 221.98 28
5 1 1 260.07 39.7
-6 -1 -1 754.02 73.89
-6 -1 -1 686.43 68.49
6 1 1 781.52 75.89
-7 -1 -1 239.38 27.1
-7 -1 -1 241.28 31.5
7 1 1 271.37 34.8
8 -2 -1 263.57 35.4
-8 2 1 270.57 35.2
-8 2 1 274.57 39.4
7 -2 -1 776.82 75.99
-7 2 1 764.22 75.79
-7 2 1 703.33 76.79
6 -2 -1 839.12 77.99
-6 2 1 786.82 77.59
-6 2 1 756.22 80.09
5 -2 -1 197.38 23.5
-5 2 1 204.68 24
-5 2 1 187.58 26.5
4 -2 -1 1890.51 169.68
-4 2 1 1889.11 169.98
3 -2 -1 152.88 19.5
3 -2 -1 137.49 14.8
-3 2 1 118.89 14.7
-3 2 1 113.89 19.2
2 -2 -1 9.9 5
2 -2 -1 9.4 2.7
2 -2 -1 6.9 2.4
-2 2 1 4.8 2.9
-2 2 1 10.4 2.5
-2 2 1 9.1 2.7
-2 2 1 12.5 6.2
1 -2 -1 567.84 54.49
1 -2 -1 648.04 54.39
1 -2 -1 592.44 65.39
-1 2 1 614.14 54.59
-1 2 1 635.74 55.39
-1 2 1 645.04 54.49
-1 2 1 532.45 65.29
0 -2 -1 32.5 3.7
0 2 1 22.6 3.4
0 2 1 43.7 14.2
-1 -2 -1 498.15 42
-1 -2 -1 541.15 42
-1 -2 -1 405.56 53.79
-1 -2 -1 398.46 42.7
1 2 1 411.86 56.69
1 2 1 463.45 42.6
-2 -2 -1 1857.41 150.68
-2 -2 -1 1663.33 149.49
2 2 1 1503.05 168.38
2 2 1 1703.53 152.38
-3 -2 -1 3056.19 273.87
-3 -2 -1 3549.24 276.47
3 2 1 2789.22 295.17
3 2 1 3020.9 277.37
-4 -2 -1 26.7 7.2
-4 -2 -1 27.2 5.6
4 2 1 28.2 8.7
4 2 1 11.7 11.3
-5 -2 -1 1200.08 109.69
-5 -2 -1 1216.08 113.39
5 2 1 1173.78 114.99
5 2 1 1246.38 135.49
-6 -2 -1 270.67 30.3
-6 -2 -1 279.17 33.6
6 2 1 285.57 36.3
6 2 1 359.86 54.89
-7 -2 -1 589.24 63.49
-7 -2 -1 698.23 69.69
7 2 1 743.43 73.59
9 -3 -1 147.69 28.1
-9 3 1 142.89 24
8 -3 -1 410.46 45.5
-8 3 1 437.66 46.7
-8 3 1 328.07 45.2
7 -3 -1 14.5 6.2
-7 3 1 15 6.9
-7 3 1 12 9.5
6 -3 -1 1394.26 126.09
-6 3 1 1424.46 126.79
-6 3 1 1234.58 132.19
5 -3 -1 85.79 14.7
-5 3 1 105.19 14.6
-5 3 1 87.69 18.7
4 -3 -1 547.45 48.5
-4 3 1 416.56 56.19
-4 3 1 524.15 48.9
3 -3 -1 1596.84 138.49
-3 3 1 1655.93 139.19
-3 3 1 1372.36 150.78
2 -3 -1 225.58 24.1
2 -3 -1 277.47 24.7
-2 3 1 248.98 24.7
-2 3 1 279.97 26.6
-2 3 1 197.38 34.9
-1 3 1 6024.6 543.85
-1 3 1 5935.51 521.65
0 -3 -1 20.6 3.9
0 -3 -1 24.3 2.6
0 -3 -1 25.2 2.5
0 3 1 23.5 2.8
0 3 1 19.3 12.6
-1 -3 -1 8.1 2.5
-1 -3 -1 14.5 2.9
-1 -3 -1 18.7 4.6
1 3 1 10.1 10.2
-2 -3 -1 2097.19 173.58
-2 -3 -1 1921.41 172.88
2 3 1 1798.52 200.38
-3 -3 -1 849.52 74.59
-3 -3 -1 764.72 72.89
3 3 1 766.52 99.99
-4 -3 -1 301.37 31.3
-4 -3 -1 311.57 33.4
4 3 1 369.36 36.9
4 3 1 292.37 54.29
-5 -3 -1 4.9 9.1
-5 -3 -1 0.7 2.1
-5 -3 -1 3.9 4.8
5 3 1 -8 4.5
5 3 1 -5.1 12.1
-6 -3 -1 280.97 32
-6 -3 -1 286.97 35.7
6 3 1 394.46 63.39
6 3 1 333.97 39.5
9 -4 -1 24.7 11.8
-9 4 1 -8.8 5.9
8 -4 -1 47.6 14
-8 4 1 69.29 16.5
-8 4 1 59.19 19.4
7 -4 -1 1196.58 112.19
-7 4 1 1022.8 120.29
-7 4 1 1296.87 113.89
6 -4 -1 355.66 38.4
-6 4 1 385.66 39.8
-6 4 1 302.77 46.9
5 -4 -1 828.02 77.59
-5 4 1 864.01 78.79
-5 4 1 743.93 90.69
4 -4 -1 3052.89 264.37
-4 4 1 3248.07 265.77
-4 4 1 2610.74 280.77
3 -4 -1 -1.2 1.1
-3 4 1 1.3 5.7
-3 4 1 -0.8 1.5
2 -4 -1 1333.47 110.69
2 -4 -1 1165.38 110.49
-2 4 1 1163.38 111.39
-2 4 1 1452.95 113.29
-2 4 1 1022.5 130.89
1 -4 -1 537.75 44.5
-1 4 1 432.36 44.9
-1 4 1 482.95 68.39
0 -4 -1 35.4 3.6
0 -4 -1 26.9 5
0 -4 -1 31.3 3.4
0 4 1 31.5 17.6
0 4 1 33.3 3.9
-1 -4 -1 189.48 21.8
-1 -4 -1 245.08 21.6
1 4 1 204.58 44.2
-2 -4 -1 263.87 26.1
-2 -4 -1 277.77 26.2
2 4 1 202.18 47.1
-3 -4 -1 612.54 60.29
-3 -4 -1 682.23 61.59
3 4 1 645.64 93.69
-4 -4 -1 4.5 3.9
-4 -4 -1 -0.2 2
4 4 1 -11.7 8.7
-5 -4 -1 323.97 34.3
-5 -4 -1 355.46 37.3
5 4 1 294.87 63.89
8 -5 -1 962.7 92.59
-8 5 1 821.22 101.59
-8 5 1 995.5 94.39
7 -5 -1 -3.3 2.9
-7 5 1 1.1 8.9
-7 5 1 2.4 4.1
6 -5 -1 1507.65 140.09
-6 5 1 1664.33 142.49
-6 5 1 1353.66 157.58
5 -5 -1 382.56 40.3
-5 5 1 370.16 56.79
-5 5 1 408.56 42
4 -5 -1 25.5 6.5
-4 5 1 36.8 17.4
-4 5 1 35.6 8.4
3 -5 -1 176.08 18.7
-3 5 1 132.39 38
-3 5 1 177.98 20.1
2 -5 -1 4.1 2.1
2 -5 -1 6.4 2.6
-2 5 1 1.1 8.3
-2 5 1 10.6 3.7
-2 5 1 11.1 3.9
-1 5 1 525.85 47.3
-1 5 1 467.95 74.59
0 -5 -1 47.3 6.6
0 5 1 45.4 25.5
-1 -5 -1 137.09 15
-1 -5 -1 157.58 14.3
-1 -5 -1 129.59 15.6
1 5 1 148.09 46.6
-2 -5 -1 717.83 63.59
-2 -5 -1 666.73 64.19
2 5 1 679.43 103.39
-3 -5 -1 56.09 9.8
-3 -5 -1 58.79 9
3 5 1 64.09 34.4
-4 -5 -1 153.38 19.4
-4 -5 -1 192.28 21.1
4 5 1 140.79 51.39
8 -6 -1 14.6 7.1
-8 6 1 8.9 7.6
-8 6 1 5.2 13.6
7 -6 -1 339.67 35.4
-7 6 1 233.58 47.7
-7 6 1 318.47 37.1
6 -6 -1 82.59 16.3
-6 6 1 94.09 34.7
-6 6 1 114.29 17.2
5 -6 -1 11.5 5.9
-5 6 1 5.1 4.5
-5 6 1 2.8 7.9
4 -6 -1 836.22 76.89
-4 6 1 804.72 105.49
-4 6 1 813.02 78.79
3 -6 -1 123.49 15.3
-3 6 1 134.29 40.5
-3 6 1 137.39 17.6
2 -6 -1 425.86 44.9
2 -6 -1 488.85 43.8
-2 6 1 373.06 71.29
-2 6 1 538.95 46.3
1 -6 -1 686.13 65.29
-1 6 1 758.92 105.99
0 -6 -1 72.89 9.7
0 6 1 85.29 35.4
-1 -6 -1 786.62 72.39
1 6 1 776.02 117.09
-2 -6 -1 13 4.3
-2 -6 -1 13.6 3.4
2 6 1 -6.2 12.9
-3 -6 -1 537.65 55.49
3 6 1 715.43 109.49
8 -7 -1 450.65 52.99
-8 7 1 516.75 56.29
7 -7 -1 65.49 15.4
-7 7 1 77.89 18.3
-7 7 1 90.69 33.2
6 -7 -1 881.81 84.99
-6 7 1 830.12 112.19
-6 7 1 916.51 88.49
5 -7 -1 919.91 82.79
-5 7 1 875.81 85.09
-5 7 1 778.52 111.89
4 -7 -1 16.4 5.5
-4 7 1 7.7 12.7
-4 7 1 10.9 5.9
3 -7 -1 605.84 53.89
-3 7 1 530.45 87.29
-3 7 1 524.55 56.39
2 -7 -1 413.36 38.5
-2 7 1 367.66 37.4
-2 7 1 385.46 72.09
1 -7 -1 335.67 33.9
-1 7 1 346.67 69.79
0 -7 -1 20.7 5.7
0 7 1 8.2 13.6
-1 -7 -1 212.78 22.6
1 7 1 172.18 60.09
-2 -7 -1 264.07 27.4
2 7 1 205.58 70.19
7 -8 -1 518.55 53.69
-7 8 1 533.95 58.39
-7 8 1 455.95 78.89
6 -8 -1 16.9 5.8
-6 8 1 11.4 19.4
5 -8 -1 6.2 3.8
-5 8 1 -1.2 6.8
-5 8 1 -19.8 14.2
4 -8 -1 384.16 39.9
-4 8 1 347.97 72.89
-4 8 1 403.16 43.3
3 -8 -1 164.78 20.4
-3 8 1 183.98 22.8
-3 8 1 161.08 53.49
2 -8 -1 42.4 8.3
-2 8 1 21.4 24.7
1 -8 -1 46.9 9
-1 8 1 50.59 33.2
0 -8 -1 139.69 17.2
0 8 1 145.69 53.29
-1 -8 -1 101.99 13.6
1 8 1 111.19 50.39
5 -9 -1 183.58 21.7
-5 9 1 123.49 46.9
4 -9 -1 38.8 9.5
-4 9 1 42.6 28.1
3 -9 -1 31.6 8
-3 9 1 47.4 33
2 -9 -1 207.18 23.1
-2 9 1 153.88 56.59
0 9 -2 50.09 27.6
0 -9 2 53.09 9.2
-1 9 -2 49.1 33.6
-1 9 -2 133.09 24.8
1 -9 2 69.19 11.6
-2 9 -2 267.07 37.7
-2 9 -2 232.78 69.99
2 -9 2 297.37 29
-3 9 -2 24.8 19.8
-3 9 -2 4.6 12.1
3 -9 2 12 4.1
-4 9 -2 412.56 52.19
-4 9 -2 449.46 80.99
4 -9 2 470.35 44.6
-5 9 -2 172.58 54.49
-5 9 -2 225.48 31.8
5 -9 2 218.58 24.7
-6 9 -2 224.38 60.49
-6 9 -2 164.58 29.9
6 -9 2 175.98 22.3
2 8 -2 405.56 81.19
2 8 -2 407.56 56.89
-2 -8 2 300.37 32.7
1 8 -2 -16.7 16.8
1 8 -2 26.4 13.4
-1 -8 2 18.9 5.3
0 8 -2 169.38 29.3
0 8 -2 239.28 66.79
0 -8 2 175.38 18.9
-1 8 -2 510.55 55.99
-1 8 -2 389.06 77.99
1 -8 2 432.36 42.4
-2 8 -2 65.19 29.5
-2 8 -2 90.99 21.5
2 -8 2 82.09 10.5
-3 8 -2 645.14 74.99
-3 8 -2 800.22 109.39
3 -8 2 721.73 66.29
-4 8 -2 2.2 6.8
-4 8 -2 0.7 12.4
4 -8 2 13.1 3.6
-5 8 -2 1081.39 134.19
-5 8 -2 1108.59 108.99
5 -8 2 1057.39 100.09
-6 8 -2 747.43 78.69
-6 8 -2 711.63 95.39
6 -8 2 684.13 68.89
-7 8 -2 16.3 6
-7 8 -2 14.9 18.8
7 -8 2 19 7
3 7 -2 789.62 73.19
3 7 -2 595.94 104.39
-3 -7 2 535.55 57.79
-3 -7 2 646.34 62.59
2 7 -2 48.2 14.6
2 7 -2 73.99 38.3
-2 -7 2 40.6 7
1 7 -2 103.79 20.3
1 7 -2 73.89 35.4
-1 -7 2 84.29 10.5
0 7 -2 505.35 59.09
0 7 -2 505.95 86.09
0 -7 2 532.55 48.2
-1 7 -2 160.28 48.8
-1 7 -2 144.89 26.8
1 -7 2 162.68 16.7
-2 7 -2 1462.15 166.18
-2 7 -2 1249.57 134.79
2 -7 2 1473.05 124.79
-3 7 -2 34.1 11.7
-3 7 -2 46.1 22.6
3 -7 2 54.49 8.6
-4 7 -2 1264.47 121.59
-4 7 -2 1259.67 145.19
4 -7 2 1210.58 112.79
-5 7 -2 1207.18 112.99
-5 7 -2 1042.2 128.79
5 -7 2 1126.39 103.99
-6 7 -2 23.3 9
-6 7 -2 31.7 16.6
6 -7 2 18.2 7.2
-7 7 -2 903.61 88.49
-7 7 -2 805.02 92.09
7 -7 2 738.03 78.49
-8 7 -2 21.2 12.5
8 -7 2 25.6 8.1
4 6 -2 585.94 96.09
4 6 -2 665.63 66.69
-4 -6 2 546.35 55.39
-4 -6 2 460.45 50.59
3 6 -2 124.09 46.6
3 6 -2 144.09 25.3
-3 -6 2 129.49 18
-3 -6 2 122.69 14.6
2 6 -2 1198.08 109.79
2 6 -2 1033.2 139.89
-2 -6 2 1039.2 97.39
1 6 -2 119.19 40.8
1 6 -2 161.48 23.4
-1 -6 2 135.59 14.6
0 6 -2 269.37 35.9
0 6 -2 293.67 55.99
0 -6 2 263.67 25.7
-1 6 -2 1149.48 133.79
-1 6 -2 1025.9 108.29
1 -6 2 1108.09 97.39
-2 6 -2 1.7 8.6
-2 6 -2 5.9 4.9
2 -6 2 5.1 2.3
-3 6 -2 366.36 58.29
-3 6 -2 379.36 43.2
3 -6 2 380.46 36.4
-4 6 -2 59.09 14.1
-4 6 -2 40.2 20.2
4 -6 2 55.69 9.5
-5 6 -2 301.87 47.8
-5 6 -2 359.96 40.4
5 -6 2 306.17 33.5
-6 6 -2 575.14 58.69
-6 6 -2 460.45 61.49
6 -6 2 489.85 50.79
-7 6 -2 28.4 10.4
-7 6 -2 14.7 8.5
7 -6 2 8.5 4.5
-8 6 -2 702.93 73.39
8 -6 2 574.04 65.49
5 5 -2 208.58 31.5
5 5 -2 193.78 54.29
-5 -5 2 140.29 18.2
-5 -5 2 169.18 22.8
4 5 -2 98.99 37.5
4 5 -2 89.19 20.9
-4 -5 2 80.09 10.4
-4 -5 2 75.89 12.9
3 5 -2 635.54 90.19
3 5 -2 632.94 64.19
-3 -5 2 496.85 51.49
2 5 -2 194.88 44.5
2 5 -2 215.78 29.5
-2 -5 2 228.18 21.5
1 5 -2 272.87 35.4
1 5 -2 284.97 52.39
-1 -5 2 289.47 26.7
0 5 -2 298.17 37.7
0 5 -2 296.27 52.59
0 -5 2 326.07 29
-1 5 -2 90.19 29.5
-1 5 -2 80.79 17.7
1 -5 2 82.89 9
-2 5 -2 477.05 51.19
-2 5 -2 434.96 63.59
2 -5 2 492.85 43.7
-3 5 -2 499.45 66.89
-3 5 -2 558.64 55.79
3 -5 2 507.35 48.7
-4 5 -2 827.22 99.49
-4 5 -2 1052.49 92.29
4 -5 2 899.21 84.99
-5 5 -2 2808.02 283.37
-5 5 -2 3478.85 279.97
5 -5 2 2930.01 272.57
-6 5 -2 187.68 27.3
-6 5 -2 234.08 29.9
6 -5 2 229.78 25.9
-7 5 -2 2106.29 192.18
7 -5 2 1948.71 186.38
-8 5 -2 290.77 39.8
8 -5 2 295.27 36.5
6 4 -2 823.32 79.09
-6 -4 2 783.12 79.19
-6 -4 2 772.92 73.69
5 4 -2 4.3 4.5
5 4 -2 9.7 7.1
5 4 -2 -17.2 10.4
-5 -4 2 1.8 2.5
-5 -4 2 -0.2 4.6
-5 -4 2 23.4 19.3
4 4 -2 331.87 40.2
4 4 -2 266.87 53.29
4 4 -2 269.87 31.1
-4 -4 2 303.27 29.1
-4 -4 2 295.47 32.8
3 4 -2 849.52 113.59
3 4 -2 965.9 94.59
-3 -4 2 960 83.99
2 4 -2 611.54 65.69
2 4 -2 614.74 83.99
-2 -4 2 649.43 56.89
1 4 -2 362.76 44.7
1 4 -2 433.16 61.59
-1 -4 2 423.16 37.1
-1 -4 2 416.66 38.9
0 4 -2 149.49 13.2
0 4 -2 119.39 27.4
0 4 -2 114.99 19.3
0 -4 2 150.88 13.2
0 -4 2 123.49 14
-1 4 -2 4018.6 320.27
-1 4 -2 3240.68 327.77
-1 4 -2 3586.44 343.27
1 -4 2 3782.22 320.37
-2 4 -2 923.81 104.79
-2 4 -2 948.81 94.29
-2 4 -2 1087.09 87.89
2 -4 2 964.2 88.09
-3 4 -2 1322.27 110.89
-3 4 -2 1032.8 116.39
3 -4 2 1137.19 104.39
3 -4 2 1156.98 119.49
-4 4 -2 1661.63 146.39
-4 4 -2 1356.06 148.49
4 -4 2 1645.84 151.28
4 -4 2 1624.34 141.59
-5 4 -2 3.9 4.4
-5 4 -2 5.5 3.3
5 -4 2 13.8 4.4
5 -4 2 9.5 5.2
-6 4 -2 1173.58 111.19
6 -4 2 1088.29 107.19
-7 4 -2 324.97 39.5
7 -4 2 274.27 35.2
-8 4 -2 352.26 44.6
8 -4 2 330.17 41.6
7 3 -2 352.76 41.4
-7 -3 2 355.76 41
-7 -3 2 339.57 35.6
6 3 -2 30.4 13.1
6 3 -2 5 7
-6 -3 2 27.4 6.3
-6 -3 2 22.7 7.9
-6 -3 2 94.89 31.9
5 3 -2 397.86 45.7
5 3 -2 322.97 36.7
-5 -3 2 324.27 37.2
-5 -3 2 327.17 33.3
4 3 -2 434.06 49.1
4 3 -2 380.56 41.4
4 3 -2 457.65 66.29
-4 -3 2 401.16 38.8
-4 -3 2 404.76 42.5
3 3 -2 2120.59 203.88
3 3 -2 2341.47 212.18
3 3 -2 2395.86 232.18
-3 -3 2 2335.87 201.88
2 3 -2 1295.77 137.49
2 3 -2 1182.68 120.69
2 3 -2 1295.47 114.29
-2 -3 2 1183.88 113.89
-2 -3 2 1403.06 112.79
1 3 -2 469.15 55.59
1 3 -2 588.04 69.89
-1 -3 2 587.74 49
-1 -3 2 549.35 50.09
0 3 -2 1864.61 202.28
0 3 -2 2390.16 216.78
0 3 -2 2561.24 195.78
0 -3 2 2391.16 195.68
0 -3 2 1958.1 201.38
-1 3 -2 1288.67 98.19
-1 3 -2 1059.29 112.89
-1 3 -2 978.6 103.89
1 -3 2 1181.48 103.69
1 -3 2 1116.09 98.19
1 -3 2 1015.6 113.09
-2 3 -2 201.68 28.8
-2 3 -2 225.78 20.1
-2 3 -2 218.08 24.6
2 -3 2 208.58 20.3
2 -3 2 163.28 27.6
-3 3 -2 806.92 87.09
-3 3 -2 984.5 86.19
3 -3 2 940.51 82.19
3 -3 2 872.71 88.99
-4 3 -2 328.27 34
-4 3 -2 349.67 37.5
4 -3 2 332.67 34.8
4 -3 2 340.97 32.7
-5 3 -2 1799.22 167.98
5 -3 2 1839.72 165.88
-6 3 -2 606.14 63.89
6 -3 2 609.14 62.39
-7 3 -2 1073.69 107.19
7 -3 2 1082.49 105.59
-8 3 -2 264.97 36.9
8 -3 2 308.37 37.8
7 2 -2 57.49 12.7
-7 -2 2 54.19 10.9
-7 -2 2 95.69 15.9
6 2 -2 1864.31 189.48
6 2 -2 2445.46 203.78
-6 -2 2 1974.6 190.28
5 2 -2 40.4 9.8
5 2 -2 30.5 13.4
-5 -2 2 50.19 11.4
4 2 -2 660.03 68.49
4 2 -2 797.52 77.29
-4 -2 2 722.83 69.69
3 2 -2 2737.33 235.78
3 2 -2 2146.79 210.08
3 2 -2 2282.77 217.28
2 2 -2 182.78 30.3
2 2 -2 138.59 20.4
2 2 -2 147.09 16
-2 -2 2 159.08 15.8
1 2 -2 135.59 23.7
1 2 -2 107.49 16
1 2 -2 117.99 11.8
-1 -2 2 117.39 11.7
-1 -2 2 128.69 23.6
-1 -2 2 94.79 15.4
-1 -2 2 132.69 11.2
0 2 -2 252.67 21.4
0 2 -2 237.18 33
0 2 -2 203.28 26.5
0 -2 2 243.38 21.6
0 -2 2 227.68 33.5
0 -2 2 260.57 21.5
-1 2 -2 389.46 43.6
-1 2 -2 392.96 34.5
-1 2 -2 379.86 39.2
1 -2 2 397.26 34.7
1 -2 2 387.16 38.4
1 -2 2 337.77 42.8
-2 2 -2 130.79 15.3
-2 2 -2 98.19 11.7
-2 2 -2 111.59 15.8
2 -2 2 110.99 12.2
2 -2 2 122.19 14.3
2 -2 2 95.59 15.1
-3 2 -2 191.08 21.7
3 -2 2 162.58 19.2
-4 2 -2 618.04 60.19
4 -2 2 586.54 58.49
-5 2 -2 334.67 37.5
5 -2 2 330.37 36.7
-6 2 -2 752.32 74.19
6 -2 2 684.83 72.69
-7 2 -2 1234.08 121.89
7 -2 2 1274.47 121.89
-8 2 -2 20.4 8.6
8 -2 2 8.7 6.1
8 1 -2 67.49 16.9
-8 -1 2 68.09 17.8
7 1 -2 476.75 53.79
-7 -1 2 511.95 54.79
6 1 -2 91.09 17
6 1 -2 79.29 22
-6 -1 2 77.89 13.7
5 1 -2 58.69 16.1
5 1 -2 35.4 9.4
-5 -1 2 51.09 11.3
4 1 -2 729.93 72.29
4 1 -2 836.22 80.29
-4 -1 2 746.13 72.99
3 1 -2 601.84 55.79
3 1 -2 583.04 61.39
2 1 -2 97.19 10.7
2 1 -2 83.99 13.8
-2 -1 2 71.89 13.6
-2 -1 2 129.39 22.8
-2 -1 2 106.79 10.5
1 1 -2 3351.66 297.97
-1 -1 2 3624.74 314.17
-1 -1 2 3299.17 297.67
0 1 -2 1384.16 116.89
0 1 -2 1136.59 120.99
0 1 -2 1466.85 116.69
-1 1 -2 4362.56 411.26
1 -1 2 5075.49 414.36
-2 1 -2 13.8 4.4
-2 1 -2 13.3 3.4
2 -1 2 14.4 4.7
2 -1 2 14.5 3.2
2 -1 2 11.9 3.3
-3 1 -2 4782.62 400.96
3 -1 2 4291.37 399.26
-4 1 -2 254.07 28.3
4 -1 2 241.48 27.6
-5 1 -2 2164.98 202.38
5 -1 2 2303.47 202.78
-6 1 -2 2463.55 224.98
6 -1 2 2454.55 225.18
-7 1 -2 288.37 35.8
7 -1 2 277.07 36.1
-8 1 -2 420.36 51.09
8 -1 2 459.85 52.59
8 0 -2 407.06 46.4
-8 0 2 381.46 45.8
7 0 -2 93.59 19.5
-7 0 2 95.79 16.7
6 0 -2 1646.94 149.49
-6 0 2 1576.54 149.39
5 0 -2 357.96 39.8
5 0 -2 397.16 46.9
-5 0 2 381.36 40.4
4 0 -2 872.61 88.59
4 0 -2 1040.2 96.39
-4 0 2 969.6 89.69
3 0 -2 7660.63 689.73
3 0 -2 7422.26 683.93
-3 0 2 8415.36 703.13
2 0 -2 10.7 3
2 0 -2 13.7 5.2
-2 0 2 8.9 4
-2 0 2 27 9.7
-2 0 2 9.8 2.4
1 0 -2 1460.05 148.29
-1 0 2 1829.52 144.69
0 0 -2 721.73 57.29
0 0 -2 567.14 59.89
0 0 2 715.43 57.29
0 0 2 576.84 59.79
-1 0 -2 1066.59 88.49
-1 0 -2 913.21 83.59
-1 0 -2 1031.6 86.39
-1 0 -2 810.42 84.49
1 0 2 938.31 85.09
1 0 2 838.72 88.59
1 0 2 1035.8 85.69
-2 0 -2 2182.28 176.48
-2 0 -2 1964.1 178.18
-2 0 -2 1888.01 173.48
-2 0 -2 1775.42 175.58
2 0 2 1949.7 175.78
2 0 2 1851.71 181.68
2 0 2 2210.98 175.88
-3 0 -2 4.8 3
-3 0 -2 6.4 3
3 0 2 -1.8 3.1
3 0 2 3 2.3
-4 0 -2 166.08 22.8
-4 0 -2 194.38 22.3
4 0 2 181.88 25.5
4 0 2 190.88 22.3
-5 0 -2 406.46 43.1
5 0 2 386.96 43.1
-6 0 -2 127.49 16.6
-6 0 -2 130.19 19.5
6 0 2 91.49 19.7
-7 0 -2 401.56 45.2
-7 0 -2 498.95 52.59
7 0 2 525.45 54.89
-8 0 -2 -1.2 2.2
-8 0 -2 14.8 7
8 0 2 -9.4 6.6
8 -1 -2 17.7 9.8
-8 1 2 12.8 10.9
7 -1 -2 1416.06 145.09
-7 1 2 1756.02 155.28
-7 1 2 1451.45 145.79
6 -1 -2 352.26 39.9
-6 1 2 372.46 40.7
5 -1 -2 -2.4 2.6
5 -1 -2 4 4.4
-5 1 2 1.5 2.5
-5 1 2 7.2 5.2
4 -1 -2 3767.42 304.47
4 -1 -2 3116.39 296.47
-4 1 2 3203.38 297.17
3 -1 -2 539.55 52.19
3 -1 -2 485.45 47
-3 1 2 478.75 47.5
2 -1 -2 93.29 12.7
2 -1 -2 89.19 9.8
-2 1 2 104.49 16.5
-2 1 2 84.49 9.3
-2 1 2 69.99 11.6
1 -1 -2 2299.37 213.68
1 -1 -2 2576.44 211.58
-1 1 2 2405.16 211.28
-1 1 2 2384.36 220.38
0 -1 -2 86.09 8.4
0 -1 -2 94.49 15
0 -1 -2 66.89 9.1
0 1 2 94.39 16
0 1 2 100.49 9.5
0 1 2 71.19 8.1
-1 -1 -2 556.04 46.2
-1 -1 -2 425.26 52.79
-1 -1 -2 479.45 44.8
1 1 2 457.55 56.09
1 1 2 555.54 45.3
1 1 2 473.25 44.7
-2 -1 -2 95.99 17.5
-2 -1 -2 102.19 13.1
-2 -1 -2 106.49 12.1
-2 -1 -2 103.79 10.7
2 1 2 94.19 11.2
2 1 2 81.09 18.9
2 1 2 108.69 13
-3 -1 -2 463.15 42.6
-3 -1 -2 520.45 45.4
-3 -1 -2 441.66 53.19
3 1 2 367.46 54.89
3 1 2 489.25 46.4
-4 -1 -2 107.69 14.6
-4 -1 -2 102.49 12
4 1 2 94.69 16.3
4 1 2 94.59 21.6
-5 -1 -2 692.33 66.79
-5 -1 -2 619.74 62.09
5 1 2 704.23 79.89
5 1 2 659.63 67.59
-6 -1 -2 1751.12 171.88
-6 -1 -2 1925.51 177.88
6 1 2 2173.88 181.28
-7 -1 -2 7.6 3.7
7 1 2 -16.7 5.4
8 -2 -2 552.54 60.29
-8 2 2 578.04 61.59
-8 2 2 540.55 65.29
7 -2 -2 454.25 51.09
-7 2 2 514.35 52.59
-7 2 2 451.95 56.79
6 -2 -2 589.74 62.99
-6 2 2 676.03 64.19
-6 2 2 610.74 70.09
5 -2 -2 266.67 32.3
-5 2 2 295.67 33.1
-5 2 2 347.87 41.7
4 -2 -2 69.89 12.2
-4 2 2 75.79 16.4
-4 2 2 87.79 11.9
3 -2 -2 2094.29 190.88
3 -2 -2 2375.66 195.78
-3 2 2 2124.09 191.28
-3 2 2 2026.1 201.18
2 -2 -2 2.2 1.2
2 -2 -2 3.6 2.5
-2 2 2 3.6 1.7
-2 2 2 3 4.8
-2 2 2 1.9 1.7
1 -2 -2 13.1 3.1
1 -2 -2 10.7 6.8
1 -2 -2 16.1 3
-1 2 2 14.4 2.3
-1 2 2 13.4 2.7
-1 2 2 10.1 3
-1 2 2 11.4 7.6
0 -2 -2 102.29 10
0 2 2 76.49 21.7
-1 -2 -2 2.4 1.5
-1 -2 -2 3 1.6
1 2 2 -0.6 5.1
-2 -2 -2 1681.53 161.58
-2 -2 -2 1807.02 159.48
-2 -2 -2 1971.2 160.48
2 2 2 1733.33 182.88
-3 -2 -2 472.25 46.5
-3 -2 -2 531.25 48.5
3 2 2 540.35 50.99
3 2 2 445.06 66.09
-4 -2 -2 67.39 10.5
-4 -2 -2 40.1 8.2
4 2 2 75.69 26
4 2 2 62.59 13
-5 -2 -2 1497.05 143.99
-5 -2 -2 1690.53 148.59
5 2 2 1691.63 151.18
5 2 2 1552.94 169.68
-6 -2 -2 103.99 15.6
-6 -2 -2 73.29 13.3
6 2 2 88.99 20.1
6 2 2 110.89 34.1
-7 -2 -2 449.66 50.59
-7 -2 -2 431.56 45.6
7 2 2 486.85 53.69
8 -3 -2 115.09 22
-8 3 2 90.59 25.3
-8 3 2 107.59 19.3
7 -3 -2 249.68 31.6
-7 3 2 283.77 32.7
-7 3 2 227.78 37.5
6 -3 -2 264.27 31.2
-6 3 2 252.37 38.2
-6 3 2 286.27 32
5 -3 -2 509.15 49.3
-5 3 2 522.15 49.7
-5 3 2 428.56 58.09
4 -3 -2 2507.05 216.08
-4 3 2 2139.89 228.48
-4 3 2 2603.64 216.48
3 -3 -2 27.9 6
-3 3 2 24.3 12
-3 3 2 30.7 5.4
2 -3 -2 389.96 33.4
-2 3 2 303.27 46.8
-2 3 2 317.87 34.5
-2 3 2 363.86 32.9
1 -3 -2 5219.88 429.16
-1 3 2 5369.16 427.86
-1 3 2 4174.58 428.06
-1 3 2 4893.41 452.85
0 -3 -2 1.5 1.4
0 3 2 1.4 6.1
-1 -3 -2 2942.01 266.07
-1 -3 -2 3150.68 264.67
1 3 2 2975.6 296.37
-2 -3 -2 1082.59 93.49
-2 -3 -2 978.8 93.39
2 3 2 1047.4 123.99
-3 -3 -2 234.28 25.8
-3 -3 -2 264.97 27
3 3 2 284.57 51.49
-4 -3 -2 401.56 41.6
-4 -3 -2 404.66 39.7
4 3 2 411.56 67.99
-5 -3 -2 90.79 14.4
-5 -3 -2 72.09 12.3
5 3 2 68.29 30
-6 -3 -2 958.7 91.49
-6 -3 -2 879.21 86.69
6 3 2 952 119.79
8 -4 -2 402.86 45.6
-8 4 2 408.16 46.7
-8 4 2 368.86 54.39
7 -4 -2 1273.07 113.69
-7 4 2 1241.08 113.59
-7 4 2 1033.1 124.59
6 -4 -2 226.38 28.8
-6 4 2 238.38 40.4
-6 4 2 257.67 29.7
5 -4 -2 1795.12 153.78
-5 4 2 1770.42 153.88
-5 4 2 1473.45 168.88
4 -4 -2 135.29 17.3
-4 4 2 154.08 17.8
-4 4 2 135.39 28.9
3 -4 -2 2864.41 239.28
-3 4 2 2334.37 259.97
-3 4 2 2732.93 244.78
-3 4 2 2826.82 239.18
2 -4 -2 986.6 86.39
-2 4 2 996.8 85.89
-2 4 2 954.9 87.19
-2 4 2 833.42 108.29
1 -4 -2 11 2.8
-1 4 2 0.9 6.4
0 -4 -2 72.49 8.8
0 4 2 66.29 26.5
1 4 2 10.3 12.7
-2 -4 -2 422.96 41.5
-2 -4 -2 451.25 40.5
2 4 2 389.76 70.29
-3 -4 -2 19.7 5.3
-3 -4 -2 12.2 3.9
3 4 2 18.6 16.2
-4 -4 -2 4.7 3.3
-4 -4 -2 10.6 3.7
4 4 2 -11.3 18.8
-5 -4 -2 552.44 58.29
-5 -4 -2 649.43 61.39
5 4 2 627.54 95.19
8 -5 -2 533.25 54.39
-8 5 2 419.96 65.09
-8 5 2 501.45 54.79
7 -5 -2 96.99 19.3
-7 5 2 105.79 32.9
-7 5 2 121.39 18.8
6 -5 -2 323.97 35.7
-6 5 2 240.18 47.2
-6 5 2 374.06 37.3
5 -5 -2 911.21 84.99
-5 5 2 953.2 85.89
-5 5 2 797.42 105.29
4 -5 -2 719.33 67.89
-4 5 2 799.52 68.99
-4 5 2 586.34 87.39
3 -5 -2 5.6 3.1
-3 5 2 11.7 11.9
-3 5 2 5.5 5.1
-3 5 2 11.1 3.8
2 -5 -2 8.1 2.9
-2 5 2 5.3 2.8
-2 5 2 4.2 2.6
-2 5 2 -3.7 8.5
1 -5 -2 848.52 73.99
-1 5 2 737.53 104.69
0 -5 -2 27.6 5.5
0 5 2 11.3 13.2
-1 -5 -2 948.41 84.09
1 5 2 863.11 122.39
-2 -5 -2 619.34 58.29
2 5 2 610.54 97.19
-3 -5 -2 8 3.2
-3 -5 -2 -4.3 2.4
3 5 2 -8.9 17.3
-4 -5 -2 535.95 53.99
4 5 2 609.34 99.79
8 -6 -2 0.4 6.1
-8 6 2 3.5 5.3
-8 6 2 -3.2 11.1
7 -6 -2 418.56 46.1
-7 6 2 334.77 61.89
-7 6 2 471.55 47.9
6 -6 -2 11.8 6
-6 6 2 7.9 12.2
-6 6 2 14.1 6.4
5 -6 -2 265.47 27.9
-5 6 2 233.68 28.2
-5 6 2 214.78 46.1
4 -6 -2 166.08 19.2
-4 6 2 157.98 19.6
-4 6 2 133.39 41.7
3 -6 -2 597.34 53.99
-3 6 2 572.04 55.09
-3 6 2 471.95 81.39
2 -6 -2 1093.39 94.79
-2 6 2 940.91 130.19
1 -6 -2 114.89 13.4
-1 6 2 81.89 35.3
0 -6 -2 268.37 27
0 6 2 234.88 55.79
-1 -6 -2 714.13 63.09
1 6 2 570.14 100.79
-2 -6 -2 76.29 10.7
2 6 2 68.59 40
-3 -6 -2 191.38 22
3 6 2 177.58 63.49
7 -7 -2 0 4.6
-7 7 2 3.4 7.9
-7 7 2 12 13.3
6 -7 -2 337.17 34.5
-6 7 2 215.08 52.79
-6 7 2 310.07 35.4
5 -7 -2 1444.16 140.99
-5 7 2 1446.36 177.88
-5 7 2 1684.53 143.89
4 -7 -2 437.96 41.9
-4 7 2 416.86 74.19
-4 7 2 380.16 42.1
3 -7 -2 612.94 54.19
-3 7 2 569.24 91.49
-3 7 2 507.25 52.99
2 -7 -2 202.28 22.1
-2 7 2 182.18 56.89
1 -7 -2 630.54 54.99
-1 7 2 449.46 88.79
0 -7 -2 207.18 22.6
0 7 2 172.98 60.49
-1 -7 -2 354.26 35.5
1 7 2 311.77 73.09
-2 -7 -2 273.97 28.3
2 7 2 198.48 64.79
6 -8 -2 243.98 29.3
-6 8 2 221.38 49.5
-6 8 2 260.57 31.8
5 -8 -2 78.89 13.8
-5 8 2 60.09 28.1
-5 8 2 44.8 13.4
4 -8 -2 158.78 19.5
-4 8 2 136.09 49.6
3 -8 -2 113.69 15
-3 8 2 93.59 42.7
2 -8 -2 309.77 30.7
-2 8 2 202.88 67.09
1 -8 -2 11.8 5.3
-1 8 2 -1 19.4
0 -8 -2 38.8 7.5
0 8 2 10.4 27.5
0 9 -3 3 17.8
0 9 -3 28.3 17.3
0 -9 3 3.7 4.1
-1 9 -3 -14 14.2
-1 9 -3 -0.2 17
1 -9 3 13.1 4
-2 9 -3 34.9 13.7
-2 9 -3 -0.6 19.8
2 -9 3 13.9 4.2
-3 9 -3 10.5 13.9
-3 9 -3 8.6 9.4
3 -9 3 6.1 3.8
-4 9 -3 18.5 18.9
-4 9 -3 32.8 15
4 -9 3 40.2 7.5
-5 9 -3 10.1 9
5 -9 3 -6.6 3.1
-6 9 -3 10.8 10.5
-6 9 -3 10.8 16.1
6 -9 3 11.7 5.8
2 8 -3 85.39 46.1
2 8 -3 91.39 24.3
-2 -8 3 91.19 11
1 8 -3 -2.3 10.1
1 8 -3 -2.3 13.4
-1 -8 3 -1.1 13.3
0 8 -3 249.28 58.89
0 8 -3 317.67 41.1
0 -8 3 262.37 26.6
-1 8 -3 426.66 77.39
-1 8 -3 432.66 53.19
1 -8 3 365.36 37.1
-2 8 -3 114.39 41.2
-2 8 -3 63.59 21.2
2 -8 3 75.49 9.8
-3 8 -3 449.26 72.59
-3 8 -3 365.36 47.9
3 -8 3 383.36 38
-4 8 -3 115.39 26.6
-4 8 -3 84.69 28.4
4 -8 3 113.69 13.9
-5 8 -3 325.87 43.8
-5 8 -3 300.27 56.09
5 -8 3 361.26 35.1
-6 8 -3 46.4 15.3
-6 8 -3 28.9 17.9
6 -8 3 54.09 10.7
-7 8 -3 293.17 42.3
7 -8 3 299.77 33.2
3 7 -3 330.97 73.79
3 7 -3 413.56 49.1
-3 -7 3 299.17 32.9
-3 -7 3 382.56 39.2
2 7 -3 498.55 86.49
2 7 -3 546.35 57.99
-2 -7 3 394.16 41.2
1 7 -3 1248.58 158.38
1 7 -3 1426.36 128.49
-1 -7 3 1119.59 109.59
0 7 -3 220.48 50.79
0 7 -3 220.28 33.9
0 -7 3 198.48 20.3
-1 7 -3 171.78 49.2
-1 7 -3 175.68 30
1 -7 3 197.38 19.1
-2 7 -3 307.57 56.59
-2 7 -3 256.47 38.5
2 -7 3 307.37 28.6
-3 7 -3 6.8 6.5
-3 7 -3 -1.4 9.3
3 -7 3 13.2 3.7
-4 7 -3 162.28 27.4
-4 7 -3 229.98 41.6
4 -7 3 170.08 19.7
-5 7 -3 11.3 10.8
-5 7 -3 31.4 12.3
5 -7 3 3.9 3.4
-6 7 -3 17.6 12.8
-6 7 -3 43.5 14.4
6 -7 3 36.7 8.2
-7 7 -3 233.48 33.4
7 -7 3 158.18 23.1
-8 7 -3 62.89 18.9
8 -7 3 73.19 15.6
4 6 -3 236.68 66.09
4 6 -3 232.88 37.3
-4 -6 3 231.88 22.6
-4 -6 3 207.08 27.7
3 6 -3 115.59 24.9
3 6 -3 95.19 36.4
-3 -6 3 118.39 12.7
2 6 -3 695.23 73.69
2 6 -3 723.13 101.79
-2 -6 3 598.64 58.39
1 6 -3 72.09 20.3
1 6 -3 81.99 32.9
-1 -6 3 73.89 8.2
0 6 -3 334.57 59.99
0 6 -3 340.37 43.7
0 -6 3 329.77 30.8
-1 6 -3 714.13 79.89
-1 6 -3 755.12 98.69
1 -6 3 766.52 67.19
-2 6 -3 18.9 9.4
-2 6 -3 10.2 11
2 -6 3 14.1 3.1
-3 6 -3 136.69 22.4
-3 6 -3 162.78 33.5
3 -6 3 121.79 14.8
-4 6 -3 336.27 41.2
-4 6 -3 322.17 50.09
4 -6 3 319.07 32.8
-5 6 -3 18.7 11
-5 6 -3 10.2 7.6
5 -6 3 15.8 5.7
-6 6 -3 8.3 8.6
-6 6 -3 27.6 11.3
6 -6 3 16.7 6.4
-7 6 -3 161.38 26
7 -6 3 116.89 20.8
-8 6 -3 432.36 54.19
8 -6 3 428.16 47.9
5 5 -3 7.3 11.7
-5 -5 3 13.2 4.7
-5 -5 3 6.2 17.9
-5 -5 3 15.8 6.5
4 5 -3 54.19 27.9
4 5 -3 40.9 16.2
-4 -5 3 53.19 11.6
-4 -5 3 40.6 7.3
3 5 -3 537.85 55.99
3 5 -3 403.86 71.09
-3 -5 3 399.56 39.8
2 5 -3 172.78 26.1
2 5 -3 182.48 39.9
-2 -5 3 134.79 14.6
1 5 -3 538.35 75.89
1 5 -3 497.55 57.69
-1 -5 3 500.35 45.1
-1 -5 3 492.15 46.6
0 5 -3 518.45 42.2
0 5 -3 432.06 66.79
0 5 -3 378.56 52.09
0 -5 3 472.45 42.1
0 -5 3 478.85 43.4
-1 5 -3 19.2 3
-1 5 -3 14.1 10.8
-1 5 -3 20.8 9.3
1 -5 3 21.2 3.3
-2 5 -3 64.39 15.7
-2 5 -3 62.99 22
-2 5 -3 65.29 7.1
2 -5 3 58.09 7.3
-3 5 -3 257.57 33.3
-3 5 -3 257.27 40.9
3 -5 3 272.27 26.5
-4 5 -3 235.88 30.1
-4 5 -3 200.38 33.5
4 -5 3 221.18 23.7
-5 5 -3 394.96 45.9
-5 5 -3 352.76 44.9
5 -5 3 432.16 46.3
5 -5 3 343.77 38.9
-6 5 -3 140.99 22.1
6 -5 3 96.99 18.2
-7 5 -3 936.71 100.29
7 -5 3 1024.2 95.59
-8 5 -3 87.79 22.2
8 -5 3 60.19 14.1
6 4 -3 70.29 15.1
6 4 -3 84.39 22.9
-6 -4 3 186.08 51.09
-6 -4 3 86.69 11
-6 -4 3 64.09 15.7
5 4 -3 86.49 22.8
5 4 -3 64.29 13.1
-5 -4 3 71.59 9.9
-5 -4 3 79.49 13.4
4 4 -3 376.06 42.1
4 4 -3 475.85 73.09
4 4 -3 515.95 55.29
-4 -4 3 407.16 40.1
3 4 -3 24.8 17.5
3 4 -3 25.6 9.4
-3 -4 3 20.8 4.2
-3 -4 3 51.49 21.5
2 4 -3 775.62 101.09
2 4 -3 874.21 86.59
-2 -4 3 728.83 74.59
-2 -4 3 920.61 73.79
1 4 -3 1062.39 108.49
1 4 -3 1150.88 125.69
-1 -4 3 1110.79 96.59
-1 -4 3 1084.29 97.69
0 4 -3 562.74 72.09
0 4 -3 598.64 49.8
0 -4 3 530.85 49.8
0 -4 3 564.14 50.59
-1 4 -3 4726.53 372.76
-1 4 -3 3757.92 382.56
-1 4 -3 4359.06 396.86
1 -4 3 4221.88 373.06
-2 4 -3 439.36 52.39
-2 4 -3 497.85 61.09
-2 4 -3 531.15 45
2 -4 3 495.65 45.6
-3 4 -3 1370.36 135.89
-3 4 -3 1396.36 130.39
3 -4 3 1453.55 123.39
3 -4 3 1260.57 136.89
-4 4 -3 2304.57 209.08
-4 4 -3 2303.07 209.98
4 -4 3 2260.17 202.88
4 -4 3 2215.18 211.48
-5 4 -3 -3.1 3.4
5 -4 3 3.2 2.6
-6 4 -3 159.38 24.4
6 -4 3 139.89 22.8
-7 4 -3 64.79 17.9
7 -4 3 71.39 15.1
-8 4 -3 234.48 35.3
8 -4 3 261.17 33.7
6 3 -3 406.96 45.7
-6 -3 3 428.46 42
-6 -3 3 444.06 47.9
5 3 -3 413.16 49.9
5 3 -3 344.17 37.6
-5 -3 3 393.06 40.8
-5 -3 3 316.87 34.5
4 3 -3 19.4 6.4
4 3 -3 36.5 12.9
-4 -3 3 21.6 4.6
3 3 -3 3158.68 271.27
3 3 -3 2509.15 246.38
3 3 -3 2361.76 236.08
-3 -3 3 2759.42 234.58
2 3 -3 1.5 4.3
2 3 -3 3.1 1.7
2 3 -3 3.3 6.9
-2 -3 3 8.7 1.8
-2 -3 3 26 13.4
-2 -3 3 3.1 1.8
1 3 -3 2205.98 199.48
1 3 -3 1755.32 182.48
-1 -3 3 2000.6 172.58
-1 -3 3 1976.1 173.28
0 3 -3 3376.06 290.17
0 -3 3 3126.99 266.17
0 -3 3 2753.92 266.17
-1 3 -3 326.77 42.7
-1 3 -3 267.87 34.7
-1 3 -3 320.87 27.5
1 -3 3 306.37 27.9
1 -3 3 292.17 41.8
-2 3 -3 81.59 16.1
-2 3 -3 75.29 8.6
-2 3 -3 64.29 14.3
2 -3 3 80.19 14.7
2 -3 3 71.59 8.7
-3 3 -3 272.37 31.2
3 -3 3 256.17 26.5
3 -3 3 247.18 32.5
-4 3 -3 16.7 7.1
4 -3 3 11.6 4.8
-5 3 -3 16.6 6.9
5 -3 3 6 4.2
-6 3 -3 187.58 25.8
6 -3 3 135.79 24.1
-7 3 -3 446.86 52.89
7 -3 3 470.15 51.59
-8 3 -3 102.39 22.7
8 -3 3 115.09 22.4
7 2 -3 -13.6 4.4
7 2 -3 -4 4.1
-7 -2 3 9.6 4.3
-7 -2 3 -24 14.1
6 2 -3 353.86 48.2
6 2 -3 341.17 37.6
-6 -2 3 329.17 39.2
5 2 -3 14.5 5.5
5 2 -3 4 7.9
-5 -2 3 33.1 19.1
-5 -2 3 8.2 5.6
4 2 -3 912.31 90.39
4 2 -3 815.72 80.09
3 2 -3 331.17 40.4
3 2 -3 332.97 32.7
2 2 -3 57.09 14.5
2 2 -3 60.79 7
-2 -2 3 52.19 6.6
1 2 -3 1041.5 87.59
1 2 -3 819.42 94.69
-1 -2 3 1077.99 87.29
0 2 -3 3.8 3.5
0 2 -3 2.1 2.7
0 -2 3 -2.2 2
0 -2 3 1.2 2.2
0 -2 3 1.7 5.1
-1 2 -3 836.62 84.99
-1 2 -3 909.51 78.79
1 -2 3 844.62 78.69
1 -2 3 866.31 83.89
1 -2 3 1000.1 93.99
-2 2 -3 469.75 47.6
-2 2 -3 568.44 53.49
2 -2 3 543.35 56.29
2 -2 3 503.75 47.9
-3 2 -3 442.96 42.9
3 -2 3 415.96 37.7
3 -2 3 354.26 39.2
3 -2 3 371.06 38.4
-4 2 -3 2257.47 198.98
4 -2 3 2093.39 195.68
-5 2 -3 205.48 26.2
5 -2 3 172.98 23.4
-6 2 -3 417.06 46.8
6 -2 3 389.66 44.9
-7 2 -3 85.69 19.2
7 -2 3 62.89 15.5
-8 2 -3 126.49 19.6
8 -2 3 72.09 18.2
7 1 -3 650.93 69.49
-7 -1 3 705.93 71.69
6 1 -3 4.7 8.1
6 1 -3 0.9 3.5
-6 -1 3 22.4 18.5
-6 -1 3 6 4.8
5 1 -3 54.09 16.8
5 1 -3 54.89 11.9
-5 -1 3 59.99 12.9
4 1 -3 233.58 31.4
4 1 -3 233.78 24.4
-4 -1 3 197.88 24.8
3 1 -3 950.8 86.69
3 1 -3 953.4 94.59
2 1 -3 5.8 2.3
2 1 -3 4.2 4.1
-2 -1 3 24.9 11.7
-2 -1 3 11.8 2.3
1 1 -3 869.41 100.19
1 1 -3 1197.18 94.69
-1 -1 3 1113.89 94.09
0 1 -3 5205.38 400.06
0 1 -3 4236.48 405.76
0 -1 3 4293.37 405.16
-1 1 -3 2740.23 258.87
-1 1 -3 2811.42 263.47
-1 1 -3 2925.21 257.77
1 -1 3 3161.88 259.27
1 -1 3 3139.79 263.07
-2 1 -3 26.8 6.8
-2 1 -3 14.8 3.6
-2 1 -3 11.3 4.8
2 -1 3 11.9 4.9
2 -1 3 12.2 3.6
2 -1 3 13.2 4.7
-3 1 -3 3695.73 303.97
3 -1 3 3255.67 303.47
3 -1 3 3268.17 300.87
-4 1 -3 357.56 39.3
4 -1 3 369.46 38.1
-5 1 -3 189.38 24.6
5 -1 3 174.18 23.3
-6 1 -3 644.84 68.39
6 -1 3 671.83 67.99
-7 1 -3 200.58 28.8
7 -1 3 224.88 30.8
-8 1 -3 185.08 27.9
-8 1 -3 174.18 21.2
8 -1 3 169.58 31
8 0 -3 237.38 33.7
-8 0 3 265.47 35.5
-8 0 3 340.07 50.39
7 0 -3 317.77 37.3
-7 0 3 329.37 39.2
6 0 -3 404.16 47.8
6 0 -3 290.27 35.7
-6 0 3 313.67 37.4
5 0 -3 245.08 28
5 0 -3 247.28 34.9
-5 0 3 252.67 29.2
4 0 -3 2005.6 186.58
4 0 -3 1934.81 177.98
-4 0 3 2018.3 179.68
3 0 -3 2881.11 255.17
3 0 -3 2904.61 262.67
2 0 -3 42.7 10.6
2 0 -3 47.4 6.3
-2 0 3 46.2 5.4
1 0 -3 7651.93 599.74
-1 0 3 5982.4 597.44
0 0 -3 1331.17 103.59
0 0 -3 1002.7 107.39
0 0 3 1135.69 107.69
0 0 3 1216.38 103.39
-1 0 -3 1821.42 157.28
-1 0 -3 1740.33 161.28
-1 0 -3 1553.54 158.28
1 0 3 1771.72 165.88
1 0 3 2031.2 160.88
1 0 3 1830.22 157.28
-2 0 -3 1788.02 168.68
-2 0 -3 1944.51 172.68
-2 0 -3 2130.19 175.38
2 0 3 2102.29 171.58
2 0 3 1844.32 171.28
2 0 3 1690.13 178.38
-3 0 -3 128.49 16.9
-3 0 -3 127.69 13.8
-3 0 -3 138.59 18.2
3 0 3 131.49 16.6
3 0 3 129.89 22.6
-4 0 -3 897.01 84.39
-4 0 -3 961.4 89.09
-4 0 -3 993.4 89.59
4 0 3 840.02 94.19
4 0 3 1010.4 89.59
-5 0 -3 103.49 16.3
-5 0 -3 111.69 15
-5 0 -3 99.09 12.8
5 0 3 108.29 19.6
5 0 3 92.19 17.7
-6 0 -3 116.39 18.4
-6 0 -3 98.59 13.9
-6 0 -3 127.09 16.8
6 0 3 104.29 19.7
-7 0 -3 4.9 3.3
-7 0 -3 14.4 6.9
7 0 3 19.9 8.6
8 -1 -3 1.4 5.9
-8 1 3 -1.8 7.5
-8 1 3 3.1 3.1
7 -1 -3 1598.74 154.48
-7 1 3 1711.43 156.68
6 -1 -3 16.6 7.9
6 -1 -3 35 11.1
-6 1 3 28.6 9.2
-6 1 3 36.1 15.8
5 -1 -3 597.64 62.59
5 -1 -3 469.15 52.69
-5 1 3 555.64 54.69
4 -1 -3 1533.65 146.99
4 -1 -3 1769.42 155.68
-4 1 3 1614.94 148.39
3 -1 -3 460.25 48
3 -1 -3 424.46 42.1
-3 1 3 443.76 43.2
2 -1 -3 22.5 4.6
2 -1 -3 20.7 6.8
-2 1 3 26.4 4.9
-2 1 3 17.4 6.1
-2 1 3 36.4 12.1
1 -1 -3 319.07 35.8
-1 1 3 340.87 32.4
-1 1 3 436.26 45.8
0 -1 -3 1542.05 131.39
0 1 3 1423.86 131.19
0 1 3 1490.85 133.89
0 1 3 1522.25 144.59
-1 -1 -3 633.04 60.59
-1 -1 -3 766.52 72.29
-1 -1 -3 624.04 62.89
1 1 3 730.83 61.69
1 1 3 623.64 73.69
-2 -1 -3 112.39 12
-2 -1 -3 101.89 13.6
-2 -1 -3 113.49 19.3
2 1 3 110.09 12.7
2 1 3 106.89 22.8
2 1 3 124.99 14.9
-3 -1 -3 766.52 72.19
-3 -1 -3 818.42 75.39
3 1 3 894.71 77.09
3 1 3 723.33 89.79
-4 -1 -3 305.97 32.5
-4 -1 -3 366.26 36.7
4 1 3 322.67 37
4 1 3 346.67 48.7
-5 -1 -3 26.7 7.7
-5 -1 -3 11.1 4.2
5 1 3 28.5 13.1
5 1 3 16.5 7.4
-6 -1 -3 623.84 70.49
-6 -1 -3 669.53 66.19
6 1 3 675.13 73.09
6 1 3 844.52 84.39
-7 -1 -3 33.7 9
-7 -1 -3 22.3 7.2
7 1 3 10.8 9.3
8 -2 -3 345.07 39.9
-8 2 3 301.77 39.7
-8 2 3 329.17 46.9
7 -2 -3 902.01 88.49
-7 2 3 772.32 97.19
-7 2 3 1035.8 90.99
6 -2 -3 3.4 5
-6 2 3 12.6 9.4
-6 2 3 6.9 4.8
5 -2 -3 490.15 55.89
5 -2 -3 690.23 66.09
-5 2 3 565.84 68.69
-5 2 3 580.44 57.49
4 -2 -3 122.49 15.8
4 -2 -3 121.49 19.8
-4 2 3 128.59 16.2
-4 2 3 132.89 25.1
3 -2 -3 643.14 62.49
3 -2 -3 620.44 57.99
-3 2 3 604.34 70.99
-3 2 3 612.44 58.19
2 -2 -3 384.06 39.1
2 -2 -3 389.06 36.3
-2 2 3 371.26 49.3
-2 2 3 386.46 36.4
1 -2 -3 4224.08 353.86
1 -2 -3 4119.29 352.26
-1 2 3 3711.03 368.76
0 -2 -3 1970.9 180.58
0 -2 -3 2168.38 180.58
0 2 3 2015.6 200.08
-1 -2 -3 268.87 23.7
-1 -2 -3 231.08 23.1
-1 -2 -3 208.38 23.5
1 2 3 204.88 37.6
1 2 3 250.77 22.3
-2 -2 -3 3276.77 265.67
-2 -2 -3 3214.88 264.27
-2 -2 -3 2585.54 265.47
2 2 3 3169.48 293.77
2 2 3 2821.12 263.57
-3 -2 -3 257.77 26.3
-3 -2 -3 277.37 28.4
3 2 3 241.18 46.7
-4 -2 -3 857.61 86.39
-4 -2 -3 998.4 90.09
4 2 3 1021.6 92.99
4 2 3 943.91 114.29
-5 -2 -3 807.92 79.79
-5 -2 -3 874.61 84.29
5 2 3 913.51 87.29
5 2 3 882.81 106.19
-6 -2 -3 -4.5 11.6
-6 -2 -3 -1.3 2.6
6 2 3 -11.1 15.5
6 2 3 3.9 5.4
8 -3 -3 349.17 43.2
-8 3 3 376.76 53.49
-8 3 3 387.16 44.9
7 -3 -3 428.96 44.7
-7 3 3 358.96 53.29
-7 3 3 395.66 44.3
6 -3 -3 139.79 20.2
-6 3 3 131.09 28.1
-6 3 3 171.38 21.3
5 -3 -3 17.3 6
-5 3 3 26.6 13.6
-5 3 3 23.5 7.1
4 -3 -3 2466.35 203.78
-4 3 3 2291.97 203.18
-4 3 3 2058.39 219.88
3 -3 -3 48 8.3
-3 3 3 47.2 7.2
-3 3 3 44.5 16.9
2 -3 -3 1142.29 102.39
-2 3 3 1211.28 101.89
-2 3 3 1026.7 121.19
1 -3 -3 1096.09 96.19
-1 3 3 971 117.29
-1 3 3 1185.68 94.39
-1 3 3 1002.4 95.39
0 -3 -3 925.71 79.39
0 3 3 807.82 102.59
-1 -3 -3 2836.12 246.68
1 3 3 2756.32 278.57
-2 -3 -3 456.05 41.4
-2 -3 -3 363.06 41.5
-2 -3 -3 462.45 41.3
2 3 3 485.85 71.39
-3 -3 -3 659.33 57.99
-3 -3 -3 623.94 58.59
3 3 3 520.15 84.89
-4 -3 -3 441.26 43.8
-4 -3 -3 466.05 46
4 3 3 416.76 72.59
-5 -3 -3 14 2.6
-5 -3 -3 2.1 4.1
5 3 3 11.3 16.6
-6 -3 -3 182.18 21.8
8 -4 -3 381.26 41.8
-8 4 3 277.47 51.69
-8 4 3 353.76 41
7 -4 -3 1395.66 135.29
-7 4 3 1542.35 136.39
-7 4 3 1340.27 152.58
6 -4 -3 7.6 5.3
-6 4 3 14.9 4.6
5 -4 -3 2188.98 182.58
-5 4 3 1824.82 202.08
-5 4 3 2011.3 181.68
4 -4 -3 14.9 5.3
-4 4 3 7.8 9.3
-4 4 3 11.7 4
3 -4 -3 1136.89 99.39
-3 4 3 922.91 120.39
-3 4 3 1158.88 98.79
-3 4 3 1084.09 110.59
2 -4 -3 1288.87 108.79
-2 4 3 1352.26 107.39
-2 4 3 1169.78 135.69
-2 4 3 1006 108.29
1 -4 -3 1280.67 111.69
-1 4 3 1192.68 141.19
0 -4 -3 1198.98 105.69
0 4 3 1134.49 138.09
-1 -4 -3 2.1 1.5
1 4 3 -11.5 6.9
-2 -4 -3 784.22 71.59
2 4 3 748.13 108.39
-3 -4 -3 84.29 11.6
-3 -4 -3 108.99 13
3 4 3 98.79 39.9
-4 -4 -3 240.98 28.6
-4 -4 -3 290.07 30
4 4 3 298.07 63.09
-5 -4 -3 390.16 43.6
5 4 3 550.04 82.99
8 -5 -3 734.03 70.99
-8 5 3 716.13 71.09
-8 5 3 556.14 84.19
7 -5 -3 107.59 19.8
-7 5 3 96.79 30
-7 5 3 96.29 16.5
6 -5 -3 192.78 23
-6 5 3 175.48 22.2
-6 5 3 115.89 37.5
5 -5 -3 90.39 15.6
-5 5 3 107.89 14.5
-5 5 3 73.99 30
4 -5 -3 423.86 42.4
-4 5 3 368.96 63.39
-4 5 3 443.16 42.4
3 -5 -3 113.29 13.1
-3 5 3 74.29 12.8
-3 5 3 100.59 11.6
-3 5 3 121.49 37.6
2 -5 -3 36.6 6.9
-2 5 3 25.5 18.2
1 -5 -3 327.27 31.8
-1 5 3 297.87 58.19
0 -5 -3 40.6 7.8
0 5 3 28.6 20.9
-1 -5 -3 1309.47 113.49
1 5 3 1147.19 153.98
-2 -5 -3 784.62 73.09
2 5 3 768.62 116.19
-3 -5 -3 144.29 17.9
3 5 3 149.88 53.19
-4 -5 -3 854.91 79.49
4 5 3 806.62 124.69
8 -6 -3 33.3 9.2
-8 6 3 5.9 6.6
-8 6 3 -6.7 16.8
7 -6 -3 600.04 62.69
-7 6 3 503.05 83.19
-7 6 3 667.03 64.49
6 -6 -3 477.55 48.5
-6 6 3 412.46 70.89
-6 6 3 458.15 48.3
5 -6 -3 591.04 56.79
-5 6 3 601.14 57.19
-5 6 3 466.15 80.09
4 -6 -3 208.08 23.1
-4 6 3 195.08 53.49
-4 6 3 188.58 22.5
3 -6 -3 201.48 19.7
-3 6 3 153.58 17.6
-3 6 3 127.79 44.1
-3 6 3 149.88 18.2
2 -6 -3 2010.2 167.78
-2 6 3 1667.53 206.98
1 -6 -3 175.08 19.2
-1 6 3 139.69 48.4
0 -6 -3 1821.92 154.08
0 6 3 1529.55 199.78
-1 -6 -3 581.04 51.99
1 6 3 430.06 87.79
-2 -6 -3 347.47 35.4
2 6 3 317.27 72.09
7 -7 -3 3.8 4.1
-7 7 3 5.3 8.8
-7 7 3 -12.3 13.6
6 -7 -3 271.47 34.6
-6 7 3 286.27 60.39
-6 7 3 351.36 37.8
5 -7 -3 395.16 44.1
-5 7 3 388.66 72.29
-5 7 3 460.35 45.4
4 -7 -3 377.56 38.2
-4 7 3 331.67 63.89
-4 7 3 359.46 37.6
3 -7 -3 810.82 73.59
-3 7 3 701.93 112.09
2 -7 -3 9.8 4.7
-2 7 3 -1.4 5.5
1 -7 -3 402.86 39.2
-1 7 3 334.37 73.79
0 -7 -3 59.19 10.5
0 7 3 7.4 23
-1 -7 -3 425.56 42.4
1 7 3 381.66 82.19
5 -8 -3 160.08 21.5
-5 8 3 186.98 58.79
4 -8 -3 84.69 15.7
-4 8 3 109.39 42.8
3 -8 -3 6.5 3.7
-3 8 3 1.3 13.8
2 -8 -3 515.15 49.4
-2 8 3 423.66 85.89
1 -8 -3 52.09 10.4
-1 8 3 32.2 30.2
0 9 -4 56.29 21.3
0 9 -4 34.1 29.3
0 -9 4 84.89 33.8
-1 9 -4 566.44 65.89
-1 9 -4 538.25 89.09
1 -9 4 384.16 46.6
-2 9 -4 -8.8 14.6
-2 9 -4 52.59 15.1
-3 9 -4 121.29 21.2
-3 9 -4 108.19 41.6
3 -9 4 91.99 12.6
-4 9 -4 426.86 71.49
-4 9 -4 298.07 48.8
4 -9 4 391.96 37.4
-5 9 -4 313.77 56.59
-5 9 -4 243.48 38.2
5 -9 4 255.67 28.4
-6 9 -4 801.32 97.19
-6 9 -4 657.73 79.39
6 -9 4 628.34 66.19
2 8 -4 308.37 43.7
2 8 -4 228.68 67.99
1 8 -4 36.5 16.8
-1 -8 4 41 24.3
0 8 -4 177.78 55.39
0 8 -4 267.47 39.3
0 -8 4 204.98 20.6
-1 8 -4 26.9 13.6
-1 8 -4 28.4 18.9
1 -8 4 27.6 17.2
1 -8 4 16.4 3.8
-2 8 -4 1063.19 114.69
-2 8 -4 1262.67 145.59
2 -8 4 1021.2 97.29
-3 8 -4 455.95 58.99
-3 8 -4 596.84 83.59
3 -8 4 454.55 45.5
-4 8 -4 32.2 15
-4 8 -4 47.2 23.5
4 -8 4 44.2 8.5
-5 8 -4 1261.97 135.59
-5 8 -4 1068.29 117.39
5 -8 4 1105.59 104.89
-6 8 -4 186.08 31.1
-6 8 -4 207.88 37.9
6 -8 4 157.48 21.9
-7 8 -4 649.24 73.69
7 -8 4 561.64 59.89
3 7 -4 725.93 84.89
3 7 -4 711.93 112.89
2 7 -4 137.49 33.5
2 7 -4 128.59 48.4
-2 -7 4 119.29 12.7
1 7 -4 1488.65 137.89
1 7 -4 1280.67 161.28
-1 -7 4 1196.18 113.79
0 7 -4 191.98 51.79
0 7 -4 127.89 30.6
0 -7 4 159.38 15.4
-1 7 -4 2249.27 211.68
-1 7 -4 2310.07 236.78
1 -7 4 2062.59 191.68
-2 7 -4 298.47 42.6
-2 7 -4 398.26 61.09
2 -7 4 299.97 30
-3 7 -4 140.69 30.6
-3 7 -4 216.28 41.2
3 -7 4 171.78 18.4
-4 7 -4 1176.68 123.89
-4 7 -4 1398.66 142.09
4 -7 4 1155.28 111.39
-5 7 -4 134.09 29.9
-5 7 -4 129.19 28.3
5 -7 4 122.09 16.1
-6 7 -4 664.13 79.79
-6 7 -4 759.32 83.39
6 -7 4 732.73 70.29
-7 7 -4 163.18 26.9
7 -7 4 90.89 17
4 6 -4 1053.09 133.29
-4 -6 4 764.52 74.49
3 6 -4 293.07 58.79
3 6 -4 253.67 36.9
-3 -6 4 181.08 19.6
2 6 -4 813.52 89.59
2 6 -4 937.21 117.49
-2 -6 4 742.93 70.79
1 6 -4 258.47 50.49
1 6 -4 203.88 33.7
-1 -6 4 175.58 18.8
-1 -6 4 187.28 17.9
0 6 -4 192.68 41.8
0 6 -4 186.18 30.8
0 -6 4 179.38 17.3
0 -6 4 190.68 18.3
-1 6 -4 125.29 37.6
-1 6 -4 128.39 11.9
-1 6 -4 125.89 27
1 -6 4 115.99 12.2
-2 6 -4 527.55 76.39
-2 6 -4 648.04 52.19
-2 6 -4 528.95 64.69
2 -6 4 563.94 52.99
-3 6 -4 542.85 64.79
-3 6 -4 614.54 77.69
3 -6 4 594.84 54.49
-4 6 -4 0 5.3
-4 6 -4 0.1 7.4
4 -6 4 7.3 3.6
4 -6 4 -0.9 8.2
-5 6 -4 946.91 96.49
-5 6 -4 817.82 91.49
5 -6 4 844.32 81.99
-6 6 -4 634.84 73.39
6 -6 4 668.53 64.39
-7 6 -4 535.75 61.09
7 -6 4 448.56 51.39
-8 6 -4 376.96 51.29
8 -6 4 389.86 44.1
5 5 -4 1579.14 146.49
-5 -5 4 1219.88 121.69
-5 -5 4 1407.06 131.09
4 5 -4 22.7 14
-4 -5 4 69.29 25.8
-4 -5 4 10.1 3.1
3 5 -4 1121.69 135.69
3 5 -4 1116.09 111.89
-3 -5 4 974.3 92.59
2 5 -4 153.28 27.6
2 5 -4 226.18 45.5
-2 -5 4 135.89 15.8
-2 -5 4 161.18 14.9
1 5 -4 649.24 69.69
1 5 -4 621.14 84.79
-1 -5 4 547.75 53.19
-1 -5 4 608.34 52.59
0 5 -4 1020.7 106.59
0 5 -4 1140.59 124.29
0 -5 4 1012.2 90.59
0 -5 4 1013.9 90.99
-1 5 -4 2580.34 207.78
-1 5 -4 2548.05 240.08
-1 5 -4 2024.7 221.18
1 -5 4 2337.17 208.38
-2 5 -4 1443.66 123.89
-2 5 -4 1568.64 151.88
-2 5 -4 1237.68 135.89
2 -5 4 1392.06 124.89
-3 5 -4 16.7 9.4
-3 5 -4 8.3 9.1
3 -5 4 44.5 15.3
3 -5 4 9.8 3.3
-4 5 -4 4014.5 336.07
-4 5 -4 3513.45 329.27
4 -5 4 3321.67 319.07
-5 5 -4 96.79 22.3
5 -5 4 128.99 19.7
5 -5 4 78.09 15.1
-6 5 -4 1278.97 128.09
6 -5 4 1286.47 120.39
-7 5 -4 1214.08 118.89
7 -5 4 1084.29 110.09
-8 5 -4 5.1 7.6
8 -5 4 1.4 5.5
6 4 -4 630.04 70.39
6 4 -4 476.35 52.09
-6 -4 4 497.95 56.69
5 4 -4 65.39 20
5 4 -4 47.8 9.9
-5 -4 4 45.9 12.6
-5 -4 4 48.8 8
4 4 -4 1577.44 157.68
4 4 -4 1962.1 176.08
-4 -4 4 1809.42 156.08
3 4 -4 3.5 11.4
3 4 -4 -2 5.4
3 4 -4 1.4 2
-3 -4 4 -2.4 1.1
-3 -4 4 -0.4 9.3
2 4 -4 1653.23 158.98
-2 -4 4 1563.54 143.49
-2 -4 4 1676.73 142.69
1 4 -4 1574.64 161.88
-1 -4 4 1686.43 147.19
-1 -4 4 1769.12 147.59
0 4 -4 993.8 104.19
0 4 -4 742.83 87.19
-1 4 -4 2614.54 210.28
-1 4 -4 1971.9 221.58
-1 4 -4 2840.42 239.68
1 -4 4 2252.77 210.58
-2 4 -4 487.95 44
-2 4 -4 575.24 64.29
-2 4 -4 442.86 53.59
2 -4 4 459.85 44.6
-3 4 -4 3894.41 344.77
3 -4 4 3654.13 351.56
3 -4 4 3869.61 334.87
-4 4 -4 507.35 55.19
4 -4 4 495.45 47.7
4 -4 4 459.05 55.39
-5 4 -4 1079.89 107.59
5 -4 4 1070.19 100.79
-6 4 -4 1671.83 158.88
6 -4 4 1619.24 152.58
-7 4 -4 291.57 39.5
7 -4 4 294.27 35.5
-8 4 -4 174.58 31
8 -4 4 196.68 27.2
6 3 -4 873.91 89.79
6 3 -4 652.93 70.69
-6 -3 4 770.12 75.69
-6 -3 4 687.93 67.59
5 3 -4 3571.24 298.87
5 3 -4 2741.63 279.87
-5 -3 4 3223.88 285.17
4 3 -4 107.39 14
4 3 -4 117.09 26.2
3 3 -4 3035.2 284.27
3 3 -4 3478.45 299.67
2 3 -4 1165.18 110.09
2 3 -4 1153.68 122.19
-2 -3 4 1268.47 109.89
-2 -3 4 1359.56 109.39
-1 3 -4 2567.74 216.68
-1 3 -4 2079.39 226.68
-1 3 -4 2605.04 217.18
1 -3 4 2624.44 217.48
-2 3 -4 1840.32 176.98
-2 3 -4 1974.5 168.08
2 -3 4 2017 186.58
2 -3 4 1786.22 167.88
-3 3 -4 27.8 9.5
3 -3 4 32.2 9.9
3 -3 4 27.1 6.1
-4 3 -4 2594.94 234.28
4 -3 4 2367.26 227.48
4 -3 4 2431.16 227.98
4 -3 4 2781.12 225.78
-5 3 -4 51.69 14.3
5 -3 4 42.9 10
-6 3 -4 897.41 95.69
6 -3 4 1005.3 92.79
-7 3 -4 919.41 92.49
7 -3 4 810.12 87.39
-8 3 -4 14.9 8.7
8 -3 4 39.6 10.1
7 2 -4 443.46 51.49
-7 -2 4 530.05 56.09
6 2 -4 1272.67 120.79
6 2 -4 1068.19 103.69
-6 -2 4 1016.6 106.19
5 2 -4 97.69 24.5
5 2 -4 76.69 13.8
-5 -2 4 87.99 15.1
4 2 -4 2057.79 188.18
4 2 -4 1864.71 174.58
3 2 -4 491.25 45.6
3 2 -4 446.46 54.89
-3 -2 4 493.75 44.5
2 2 -4 143.49 13.8
2 2 -4 101.99 19.7
-2 -2 4 140.19 13
1 2 -4 2809.32 222.98
1 2 -4 2255.87 232.78
-1 -2 4 2544.55 222.28
0 2 -4 28.3 9.4
0 2 -4 34.9 3.2
0 2 -4 25.1 3.3
-1 2 -4 1106.19 91.59
-1 2 -4 892.51 99.69
-1 2 -4 974.8 92.39
1 -2 4 1162.38 92.89
-2 2 -4 43.4 9.8
-2 2 -4 24.9 8.7
2 -2 4 53.69 14
-3 2 -4 3653.03 338.07
3 -2 4 3320.27 332.07
3 -2 4 4099.69 340.97
3 -2 4 3984.4 335.47
-4 2 -4 1713.13 156.18
4 -2 4 1618.54 151.48
-5 2 -4 515.55 55.99
5 -2 4 506.65 52.69
-6 2 -4 3701.83 337.97
6 -2 4 3750.72 335.37
-7 2 -4 11.3 6.4
7 -2 4 12.4 9.6
-8 2 -4 249.68 36.9
-8 2 -4 256.27 27.6
8 -2 4 237.58 38.4
7 1 -4 1378.06 129.59
7 1 -4 1000.4 109.99
-7 -1 4 1178.28 114.59
6 1 -4 1.2 4.3
6 1 -4 -2.2 7.8
-6 -1 4 9.5 11.5
-6 -1 4 6.7 5
5 1 -4 3037.5 269.17
5 1 -4 2609.14 254.77
-5 -1 4 2950.2 258.47
4 1 -4 2198.18 204.28
4 1 -4 2119.79 192.58
3 1 -4 1749.72 165.48
3 1 -4 1735.93 155.08
2 1 -4 3717.43 345.07
2 1 -4 4237.18 335.77
-2 -1 4 3549.54 334.37
1 1 -4 237.78 19.1
1 1 -4 155.58 24.4
-1 -1 4 191.88 18.2
0 1 -4 7115.79 653.23
0 1 -4 7690.33 645.64
-1 1 -4 443.66 35.6
-1 1 -4 373.66 42.2
-1 1 -4 341.87 36.5
-2 1 -4 5737.83 529.75
-2 1 -4 5786.52 522.75
2 -1 4 6065.59 525.45
2 -1 4 6393.96 532.35
-3 1 -4 2517.65 229.98
-3 1 -4 2874.51 237.88
3 -1 4 2499.35 239.28
3 -1 4 2610.74 233.48
-4 1 -4 1470.55 143.69
-4 1 -4 1843.52 152.38
4 -1 4 1517.65 147.99
4 -1 4 1667.43 151.58
-5 1 -4 1193.18 110.19
-5 1 -4 1049.2 101.89
5 -1 4 1176.48 108.19
-6 1 -4 189.48 21.8
-6 1 -4 225.58 29.2
6 -1 4 187.58 27.1
-7 1 -4 672.53 68.49
-7 1 -4 737.43 77.89
7 -1 4 812.72 78.49
8 0 -4 460.25 51.89
-8 0 4 488.85 55.29
7 0 -4 119.99 23.1
7 0 -4 253.07 37.4
-7 0 4 161.18 24.6
6 0 -4 1553.24 165.98
6 0 -4 2110.59 183.28
-6 0 4 1876.91 170.18
5 0 -4 783.82 81.09
5 0 -4 972 94.29
-5 0 4 864.01 83.99
4 0 -4 3125.99 300.97
4 0 -4 3728.23 313.37
3 0 -4 2751.72 242.48
3 0 -4 2530.15 232.48
2 0 -4 184.18 24.4
2 0 -4 181.28 17.9
-2 0 4 170.58 16.9
1 0 -4 6699.93 547.25
-1 0 4 5671.23 545.95
0 0 -4 773.32 63.89
0 0 4 657.43 68.99
0 0 4 707.43 63.69
-1 0 -4 1851.61 158.78
-1 0 -4 1531.15 163.58
1 0 4 1919.71 163.28
1 0 4 1917.81 171.88
-2 0 -4 336.47 31.7
-2 0 -4 352.86 36.9
2 0 4 372.56 35.1
2 0 4 300.77 41.9
-3 0 -4 1846.82 174.08
-3 0 -4 2274.87 182.28
-3 0 -4 1923.31 179.48
3 0 4 2031.1 178.48
3 0 4 1772.92 189.38
-4 0 -4 883.61 83.09
-4 0 -4 945.01 89.19
4 0 4 931.91 88.29
-5 0 -4 174.38 22.2
-5 0 -4 214.78 28.1
-5 0 -4 256.87 26.4
5 0 4 214.88 31.7
5 0 4 199.48 26.9
-6 0 -4 2500.55 227.08
-6 0 -4 2313.17 218.68
6 0 4 2607.54 227.68
-7 0 -4 5.3 3.2
-7 0 -4 3 6.1
7 0 4 7.9 6.3
8 -1 -4 -3.2 7.2
-8 1 4 24.1 14.1
-8 1 4 12.1 5.9
7 -1 -4 2834.22 254.27
-7 1 4 2258.17 238.78
-7 1 4 2864.71 260.97
6 -1 -4 82.59 16.1
6 -1 -4 135.99 23.7
-6 1 4 103.19 16.9
-6 1 4 124.29 27.8
5 -1 -4 3212.18 326.07
5 -1 -4 4169.08 340.07
-5 1 4 3720.13 328.97
4 -1 -4 4424.56 421.36
4 -1 -4 5037.8 431.66
-4 1 4 4924.71 423.76
3 -1 -4 342.17 40.6
3 -1 -4 353.76 34.3
2 -1 -4 4232.08 349.27
2 -1 -4 3725.63 355.06
1 -1 -4 291.17 26.4
1 -1 -4 240.68 30.2
-1 1 4 305.97 40.7
0 -1 -4 2074.09 218.58
0 -1 -4 2566.34 214.88
0 1 4 2595.04 219.08
0 1 4 2568.04 232.48
-1 -1 -4 137.99 19.5
-1 -1 -4 177.98 17.1
1 1 4 181.88 29.9
1 1 4 180.38 18.5
-2 -1 -4 2189.38 186.88
-2 -1 -4 2031.9 190.48
2 1 4 2256.17 188.18
2 1 4 1953.3 206.38
-3 -1 -4 1751.42 155.68
-3 -1 -4 1668.43 151.28
3 1 4 1684.03 175.48
-4 -1 -4 423.46 42.8
-4 -1 -4 457.95 47.5
4 1 4 441.96 63.39
4 1 4 489.15 48.8
-5 -1 -4 1306.87 119.19
-5 -1 -4 1263.97 124.49
5 1 4 1544.55 127.99
5 1 4 1225.18 138.99
-6 -1 -4 13.9 5.1
-6 -1 -4 18.7 8.3
6 1 4 4.8 7.4
6 1 4 5.8 17.9
8 -2 -4 600.44 68.39
-8 2 4 710.53 72.09
-8 2 4 672.43 86.59
7 -2 -4 -0.4 5.2
-7 2 4 11.8 6.4
-7 2 4 19 14.5
6 -2 -4 493.35 55.99
6 -2 -4 706.73 69.79
-6 2 4 509.15 57.19
-6 2 4 585.84 73.49
5 -2 -4 2438.76 203.28
5 -2 -4 2032 191.88
-5 2 4 2152.48 193.28
-5 2 4 1919.51 209.28
4 -2 -4 293.87 35.8
4 -2 -4 261.37 29.5
-4 2 4 285.07 30.6
-4 2 4 294.37 45.1
3 -2 -4 1435.66 130.49
3 -2 -4 1407.26 124.69
-3 2 4 1382.26 144.09
-3 2 4 1320.27 124.89
2 -2 -4 444.26 47.2
2 -2 -4 498.05 43.9
-2 2 4 447.16 60.29
1 -2 -4 4049.4 345.57
1 -2 -4 4005.2 348.47
-1 2 4 3761.82 366.36
0 -2 -4 1908.91 185.48
0 -2 -4 2170.58 183.98
0 2 4 2319.67 184.48
0 2 4 1903.11 204.48
-1 -2 -4 900.01 79.69
1 2 4 776.42 100.09
1 2 4 922.31 78.89
-2 -2 -4 2333.27 216.78
-2 -2 -4 2634.84 219.48
-2 -2 -4 2271.77 218.88
2 2 4 2643.34 216.78
2 2 4 2361.16 245.48
-3 -2 -4 166.38 21.5
-3 -2 -4 199.28 19.9
3 2 4 185.98 41.9
-4 -2 -4 1727.63 155.78
-4 -2 -4 1656.03 151.88
4 2 4 1701.13 185.78
-5 -2 -4 171.28 21.6
-5 -2 -4 138.19 17.2
5 2 4 106.19 37.3
-6 -2 -4 1522.85 143.99
-6 -2 -4 1519.75 137.89
6 2 4 1488.25 172.38
8 -3 -4 231.28 32.1
-8 3 4 237.18 32.4
-8 3 4 258.67 45.2
7 -3 -4 975.8 98.09
-7 3 4 936.41 115.69
-7 3 4 1094.99 99.89
6 -3 -4 718.23 68.59
-6 3 4 643.64 85.69
-6 3 4 691.53 68.69
5 -3 -4 1747.73 157.48
-5 3 4 1743.43 157.48
-5 3 4 1673.73 178.48
4 -3 -4 7077.19 550.84
4 -3 -4 6136.19 543.45
-4 3 4 5679.53 565.94
-4 3 4 5861.61 543.05
3 -3 -4 27.5 6.3
3 -3 -4 24.2 7.9
-3 3 4 16.7 11.3
-3 3 4 27.2 5.9
2 -3 -4 5621.64 485.05
-2 3 4 5057.39 509.95
-2 3 4 5882.51 484.35
1 -3 -4 2092.49 184.18
-1 3 4 2068.19 183.98
-1 3 4 2197.88 182.28
-1 3 4 1914.81 209.58
0 -3 -4 1633.54 140.69
0 3 4 1504.55 168.48
-1 -3 -4 495.85 43.6
1 3 4 389.66 65.59
-2 -3 -4 447.36 46.6
-2 -3 -4 469.85 46.6
-2 -3 -4 570.34 47.5
2 3 4 540.85 79.79
-3 -3 -4 1368.76 117.79
-3 -3 -4 1251.07 121.29
-3 -3 -4 1264.27 118.59
3 3 4 1325.07 156.88
-4 -3 -4 55.49 10.1
-4 -3 -4 67.09 12.9
4 3 4 42 31.4
-5 -3 -4 857.21 77.19
-5 -3 -4 742.33 79.79
5 3 4 894.71 116.19
8 -4 -4 1169.88 110.19
-8 4 4 959.9 127.19
-8 4 4 1205.68 110.89
7 -4 -4 133.39 23
-7 4 4 85.89 31.1
-7 4 4 118.49 18.5
6 -4 -4 792.82 72.79
-6 4 4 635.34 90.69
-6 4 4 735.53 71.69
5 -4 -4 3812.42 318.17
-5 4 4 3758.62 317.47
-5 4 4 3089.09 341.57
4 -4 -4 19 5.4
-4 4 4 5.3 9.3
-4 4 4 12.8 4.1
3 -4 -4 1313.17 116.79
-3 4 4 1172.58 143.39
-3 4 4 1332.37 115.79
2 -4 -4 973.2 82.39
-2 4 4 781.52 82.19
-2 4 4 1007.9 80.19
-2 4 4 768.42 107.49
1 -4 -4 865.61 75.69
-1 4 4 756.62 104.19
0 -4 -4 941.21 82.49
0 4 4 829.82 113.59
-1 -4 -4 119.49 13.8
1 4 4 93.29 36.4
-2 -4 -4 772.22 68.49
2 4 4 649.83 102.79
-3 -4 -4 30.3 6.3
3 4 4 30.9 22.9
-4 -4 -4 778.52 75.19
4 4 4 832.02 119.29
8 -5 -4 448.66 49.1
-8 5 4 347.47 64.49
-8 5 4 444.26 49.2
7 -5 -4 423.46 44.1
-7 5 4 381.36 42.6
-7 5 4 315.07 59.79
6 -5 -4 829.42 78.29
-6 5 4 650.83 99.59
-6 5 4 848.42 77.79
5 -5 -4 234.98 24.1
-5 5 4 171.78 21.7
-5 5 4 139.49 42.6
4 -5 -4 1733.93 155.28
-4 5 4 1503.85 185.58
-4 5 4 1827.02 154.58
3 -5 -4 265.17 27.6
-3 5 4 187.28 53.49
-3 5 4 278.67 26.1
-3 5 4 247.68 27.4
2 -5 -4 1075.09 93.49
-2 5 4 926.71 126.69
1 -5 -4 1041.2 89.69
-1 5 4 866.51 123.69
0 -5 -4 170.18 18.9
0 5 4 143.09 48.7
-1 -5 -4 506.55 48.9
1 5 4 485.25 85.59
-2 -5 -4 -5.3 2.5
2 5 4 -17.9 13.3
-3 -5 -4 924.31 85.59
3 5 4 886.91 132.99
7 -6 -4 88.79 17.2
-7 6 4 88.49 32
-7 6 4 78.69 17.4
6 -6 -4 19.4 8.3
-6 6 4 32.5 9.6
-6 6 4 24.9 22
5 -6 -4 1989.9 179.78
-5 6 4 1734.53 214.58
-5 6 4 2120.89 179.58
4 -6 -4 178.78 21.7
-4 6 4 178.48 20.7
-4 6 4 175.08 50.39
3 -6 -4 611.14 56.59
-3 6 4 524.35 88.69
2 -6 -4 1734.63 142.39
-2 6 4 1327.87 181.18
1 -6 -4 125.39 15.7
-1 6 4 110.89 42.3
0 -6 -4 1531.95 132.59
0 6 4 1325.07 178.48
-1 -6 -4 83.39 13.3
1 6 4 43.5 31
-2 -6 -4 531.75 52.99
-6 7 4 1118.29 146.99
5 -7 -4 8.3 4.6
-5 7 4 -9.4 13.9
-5 7 4 13 6
4 -7 -4 1287.57 112.99
-4 7 4 1091.49 154.68
3 -7 -4 881.01 77.59
-3 7 4 691.03 114.69
2 -7 -4 310.37 31.3
-2 7 4 213.68 67.29
1 -7 -4 748.63 67.99
-1 7 4 611.74 108.79
0 -7 -4 0.4 2
0 9 -5 103.39 40.6
0 9 -5 101.69 28.5
-1 9 -5 329.47 68.59
-1 9 -5 310.47 48.1
-2 9 -5 2.5 12
-2 9 -5 1 18.7
2 -9 5 4.1 15.8
-3 9 -5 161.68 35.3
-3 9 -5 230.68 59.99
3 -9 5 158.98 18.6
-4 9 -5 211.48 47
-4 9 -5 141.79 34.8
-5 9 -5 943.11 108.39
-5 9 -5 614.04 84.49
5 -9 5 769.12 72.19
1 8 -5 381.16 74.49
1 8 -5 415.56 59.09
0 8 -5 702.33 85.89
0 8 -5 665.13 105.19
-1 8 -5 186.68 40.2
-1 8 -5 221.08 51.19
-2 8 -5 777.72 104.29
-2 8 -5 660.73 79.99
2 -8 5 648.14 61.09
-3 8 -5 235.38 37
-3 8 -5 286.27 53.49
3 -8 5 214.98 23.3
-4 8 -5 1858.91 200.88
-4 8 -5 2467.95 226.78
4 -8 5 1984.8 185.18
-5 8 -5 253.37 42.9
-5 8 -5 401.46 57.29
5 -8 5 293.07 32.1
-6 8 -5 13.5 10.4
-6 8 -5 -0.1 12.3
6 -8 5 15.7 6
6 -8 5 16.2 16.6
-7 8 -5 351.56 51.49
3 7 -5 298.27 66.19
3 7 -5 230.08 50.59
2 7 -5 469.05 63.59
2 7 -5 470.25 83.79
1 7 -5 870.71 101.79
1 7 -5 925.51 124.89
0 7 -5 96.69 28.3
0 7 -5 100.59 36
0 -7 5 89.89 8.3
-1 7 -5 1756.82 180.48
-1 7 -5 1467.65 154.18
1 -7 5 1425.76 133.09
1 -7 5 1531.65 133.49
-2 7 -5 203.58 43.1
-2 7 -5 191.58 16.9
-2 7 -5 142.09 33.9
2 -7 5 164.58 17.4
-3 7 -5 262.37 41.3
-3 7 -5 358.76 57.49
3 -7 5 296.77 29.4
-4 7 -5 652.93 76.89
-4 7 -5 809.72 91.39
4 -7 5 607.24 62.79
-5 7 -5 552.44 66.19
-5 7 -5 415.06 57.29
5 -7 5 436.96 46
-6 7 -5 346.27 48.4
6 -7 5 334.17 36.1
-7 7 -5 -5.7 5.2
7 -7 5 3.8 5
4 6 -5 31.3 15.3
-4 -6 5 66.49 31.8
3 6 -5 508.55 81.79
3 6 -5 511.05 61.09
-3 -6 5 363.96 36.6
2 6 -5 1665.23 176.88
2 6 -5 1521.45 148.99
-2 -6 5 1262.27 123.69
1 6 -5 92.59 26.2
1 6 -5 86.89 32.8
0 6 -5 959.5 118.19
0 6 -5 877.91 100.19
-1 6 -5 12.2 11.4
-1 6 -5 30.9 17.8
1 -6 5 65.59 23.5
-2 6 -5 161.08 33.8
-2 6 -5 126.79 28.2
-2 6 -5 156.68 13.8
2 -6 5 131.29 14.3
-3 6 -5 436.86 57.39
-3 6 -5 564.74 70.59
3 -6 5 458.95 44.8
-4 6 -5 1764.32 167.08
4 -6 5 1637.14 151.98
-5 6 -5 379.96 50.99
5 -6 5 417.86 41.4
-6 6 -5 46.5 16.5
6 -6 5 37.4 9.9
-7 6 -5 556.74 65.59
7 -6 5 491.45 54.09
5 5 -5 44.5 19.2
-5 -5 5 104.59 38.6
-5 -5 5 35.5 12.2
-5 -5 5 28.5 5.8
4 5 -5 64.69 19.9
-4 -5 5 44.2 6.1
-4 -5 5 138.49 43.8
3 5 -5 576.64 69.99
-3 -5 5 545.05 49.4
2 5 -5 15.2 11.4
2 5 -5 29.1 19.1
-2 -5 5 17.9 2.8
-2 -5 5 19.4 2.2
-2 -5 5 58.49 23.9
1 5 -5 552.94 71.69
1 5 -5 727.03 92.39
0 5 -5 92.19 30.6
0 5 -5 71.49 20.3
-1 5 -5 1353.66 136.09
-2 5 -5 1440.56 116.69
-2 5 -5 1180.88 131.29
2 -5 5 1306.77 117.49
-3 5 -5 167.28 27.5
3 -5 5 155.18 17.1
-5 5 -5 3.7 8
5 -5 5 -1.9 5.5
5 -5 5 -2.5 3.8
-6 5 -5 1055.39 110.49
6 -5 5 1062.59 100.89
-7 5 -5 308.97 43.9
7 -5 5 296.67 36
-8 5 -5 302.17 42.5
8 -5 5 264.87 35.1
6 4 -5 266.87 42.9
6 4 -5 173.08 23.4
-6 -4 5 208.68 29.8
5 4 -5 268.67 30.4
5 4 -5 346.87 48.8
-5 -4 5 295.57 28.5
4 4 -5 397.66 49.3
4 4 -5 269.77 29.7
3 4 -5 323.47 44.2
-3 -4 5 265.67 26.9
-3 -4 5 298.07 26.4
2 4 -5 3449.46 309.07
-2 -4 5 3275.57 288.47
-2 -4 5 3255.97 288.57
-1 -4 5 103.39 31.9
-2 4 -5 94.99 10
-2 4 -5 104.99 23.2
2 -4 5 89.79 10.3
-4 4 -5 979.7 96.19
4 -4 5 908.21 96.39
4 -4 5 881.71 85.29
-5 4 -5 522.45 59.89
5 -4 5 506.95 51.79
-6 4 -5 184.78 29.8
6 -4 5 208.08 25.6
-7 4 -5 306.17 42.3
7 -4 5 304.47 36.7
-8 4 -5 176.38 29.7
8 -4 5 133.19 25.7
6 3 -5 702.93 74.79
6 3 -5 864.91 94.89
-6 -3 5 819.12 81.69
5 3 -5 145.59 18.7
5 3 -5 184.58 32.1
4 3 -5 254.87 37.3
4 3 -5 209.28 23.5
3 3 -5 1652.33 155.48
3 3 -5 1872.01 173.08
-3 -3 5 1785.62 154.68
2 3 -5 270.47 25.4
2 3 -5 236.98 36.4
-2 -3 5 294.37 24.8
-1 3 -5 563.24 45.4
-1 3 -5 513.75 46.1
-1 3 -5 405.86 55.59
-2 3 -5 1162.78 106.09
-2 3 -5 1222.58 104.69
-2 3 -5 1148.09 117.09
2 -3 5 1205.58 106.49
-3 3 -5 2.2 4.1
3 -3 5 7.5 7.1
3 -3 5 0.6 1.8
3 -3 5 -3.2 7.9
-4 3 -5 1770.52 172.38
4 -3 5 1665.23 169.68
4 -3 5 2032.4 167.18
4 -3 5 1796.52 164.58
-5 3 -5 61.69 17
5 -3 5 50.89 11.7
-6 3 -5 664.83 71.69
6 -3 5 620.14 65.69
-7 3 -5 529.75 60.39
7 -3 5 472.05 54.69
-8 3 -5 53.39 17.7
7 2 -5 687.03 80.09
7 2 -5 1016.3 103.79
-7 -2 5 878.61 87.29
6 2 -5 416.96 48.1
6 2 -5 585.84 67.79
-6 -2 5 491.65 53.79
5 2 -5 58.99 19.2
5 2 -5 37.6 8.9
4 2 -5 409.36 49.4
4 2 -5 330.07 35.4
3 2 -5 2 1.9
3 2 -5 -4.7 4.7
-3 -2 5 10.6 2
-3 -2 5 16.4 13.7
2 2 -5 1584.54 132.09
2 2 -5 1498.75 145.29
-2 -2 5 1407.46 130.59
1 2 -5 301.17 27.1
1 2 -5 265.37 36.4
-1 -2 5 307.77 26.6
0 2 -5 1306.17 131.49
0 2 -5 1409.46 120.29
-1 2 -5 419.86 52.09
-1 2 -5 445.66 43.8
-1 2 -5 531.95 42.8
-2 2 -5 265.47 35.9
-2 2 -5 289.67 27.5
2 -2 5 336.67 30.2
-3 2 -5 2875.41 267.07
-3 2 -5 2618.94 256.37
3 -2 5 3395.06 267.87
3 -2 5 2827.72 259.67
-4 2 -5 26.8 10.2
-4 2 -5 13.4 3.6
4 -2 5 19.4 5.8
4 -2 5 21.4 7
-5 2 -5 381.56 45.6
-5 2 -5 353.56 36.6
5 -2 5 447.16 42.9
-6 2 -5 1171.08 112.49
-6 2 -5 1250.07 123.59
6 -2 5 1352.46 120.39
-7 2 -5 -2.2 2.5
-7 2 -5 1.8 6.3
7 -2 5 -11.5 5.9
7 1 -5 196.78 29.3
7 1 -5 313.17 45.9
-7 -1 5 293.27 35.3
6 1 -5 17.6 11.1
6 1 -5 40.5 8.9
-6 -1 5 108.19 36.4
-6 -1 5 33.9 10.7
5 1 -5 115.69 16.7
5 1 -5 157.38 27.4
-5 -1 5 154.78 20.8
4 1 -5 7.2 5.8
4 1 -5 10.4 3.8
-4 -1 5 39.4 18.3
3 1 -5 1437.16 128.39
3 1 -5 1436.46 140.79
2 1 -5 1652.63 151.78
2 1 -5 1438.16 139.29
-2 -1 5 1657.03 138.49
1 1 -5 647.84 76.49
1 1 -5 887.81 67.99
-1 -1 5 711.73 66.89
0 1 -5 2681.63 262.67
0 1 -5 3410.66 262.17
0 1 -5 2598.64 270.97
0 -1 5 3240.68 261.97
-1 1 -5 5.2 1.5
-1 1 -5 9.8 6.4
1 -1 5 -0.9 4.4
-2 1 -5 3759.22 363.96
-2 1 -5 3899.51 355.26
2 -1 5 4542.95 370.26
-3 1 -5 1101.19 97.59
-3 1 -5 1059.99 105.59
3 -1 5 1195.48 101.89
3 -1 5 1027.5 109.59
-4 1 -5 1173.38 124.59
-4 1 -5 1291.97 117.29
4 -1 5 1416.26 122.69
4 -1 5 1384.56 131.59
-5 1 -5 750.52 76.89
-5 1 -5 712.33 68.09
5 -1 5 812.92 74.79
5 -1 5 716.93 71.09
-6 1 -5 134.79 17.3
-6 1 -5 189.88 26.1
6 -1 5 147.19 25.8
-7 1 -5 289.97 40.5
-7 1 -5 299.87 32.5
7 -1 5 376.26 41.8
7 0 -5 595.94 72.09
7 0 -5 940.91 94.39
-7 0 5 778.72 78.09
6 0 -5 827.72 94.29
6 0 -5 1230.78 114.09
-6 0 5 1059.69 99.99
5 0 -5 28.8 13.4
5 0 -5 44.7 9.3
-5 0 5 44.1 11.2
-5 0 5 102.09 32.4
4 0 -5 1626.14 148.19
4 0 -5 1391.46 134.39
3 0 -5 289.07 36.7
3 0 -5 261.07 27
2 0 -5 2484.25 241.98
2 0 -5 2782.12 232.68
1 0 -5 1674.23 175.18
1 0 -5 2092.99 167.48
0 0 -5 897.91 71.29
0 0 -5 664.83 77.69
-1 0 -5 383.26 47.7
-1 0 -5 486.25 42.3
1 0 5 508.55 57.89
-2 0 -5 754.62 65.49
-2 0 -5 670.33 71.69
2 0 5 731.73 80.99
-3 0 -5 1001.1 95.79
-3 0 -5 954.6 88.69
3 0 5 1107.99 94.09
3 0 5 905.61 106.09
-4 0 -5 58.19 9.2
-4 0 -5 54.09 13.3
4 0 5 60.89 21.8
4 0 5 66.69 13
-5 0 -5 82.89 17.9
-5 0 -5 102.99 11.8
5 0 5 68.59 15.5
5 0 5 64.89 21.2
-6 0 -5 570.34 64.99
-6 0 -5 557.64 56.89
6 0 5 725.13 66.69
-8 1 5 144.09 39.3
-8 1 5 112.39 19.9
7 -1 -5 684.33 80.79
-7 1 5 731.33 90.99
-7 1 5 596.74 68.59
6 -1 -5 15.8 11.1
6 -1 -5 12.2 6.2
-6 1 5 11.2 6.2
-6 1 5 30 18.1
5 -1 -5 191.48 25.3
5 -1 -5 266.27 36.5
-5 1 5 254.37 29.1
4 -1 -5 90.79 15
4 -1 -5 92.09 21.3
-4 1 5 157.48 32.2
3 -1 -5 324.37 31.2
3 -1 -5 289.17 37.8
2 -1 -5 1515.35 123.89
2 -1 -5 1238.88 130.49
1 -1 -5 6.9 4
1 -1 -5 2.3 1.8
-1 1 5 12.5 9.7
0 -1 -5 411.26 49.6
0 -1 -5 518.55 45
0 1 5 509.05 50.09
0 1 5 515.85 63.79
-1 -1 -5 120.49 18.5
-1 -1 -5 162.18 15.7
1 1 5 158.58 17.8
1 1 5 142.39 28.9
-2 -1 -5 1070.89 89.99
-2 -1 -5 935.01 94.69
2 1 5 967.4 111.69
-3 -1 -5 1044.6 102.19
-3 -1 -5 1054.99 96.99
3 1 5 1140.39 124.69
-4 -1 -5 294.07 33.4
-4 -1 -5 286.37 28.3
4 1 5 228.38 47.2
-5 -1 -5 1138.39 109.49
-5 -1 -5 1069.69 102.49
5 1 5 1173.58 127.59
-6 -1 -5 81.99 19.1
-6 -1 -5 75.69 12.8
-8 2 5 648.94 72.09
-8 2 5 698.63 92.49
7 -2 -5 79.39 17.1
-7 2 5 105.19 33.6
-7 2 5 118.59 18.9
6 -2 -5 306.57 38.5
6 -2 -5 424.06 50.99
-6 2 5 345.07 41
-6 2 5 429.26 61.69
5 -2 -5 57.89 12.3
5 -2 -5 92.29 21
-5 2 5 90.39 28.1
-5 2 5 66.79 13.9
4 -2 -5 142.89 23.3
4 -2 -5 137.49 17.8
-4 2 5 145.89 18.7
-4 2 5 172.98 34.9
3 -2 -5 308.67 37.2
3 -2 -5 287.77 31.3
-3 2 5 356.16 52.99
2 -2 -5 480.45 53.79
2 -2 -5 546.55 49.3
-2 2 5 551.34 71.99
1 -2 -5 1517.15 122.29
1 -2 -5 1154.18 125.19
-1 2 5 1361.86 126.69
-1 2 5 1468.65 148.79
0 -2 -5 17.6 6
0 -2 -5 14.3 3.8
0 2 5 18.9 5.4
0 2 5 2.5 7.7
-1 -2 -5 507.35 54.09
-1 -2 -5 598.34 51.59
1 2 5 480.65 72.09
1 2 5 583.94 50.99
-2 -2 -5 2067.49 219.78
-2 -2 -5 2569.14 217.48
2 2 5 2416.66 249.18
2 2 5 2744.33 217.28
-3 -2 -5 203.48 25.6
-3 -2 -5 234.98 23.2
3 2 5 201.98 42.7
-4 -2 -5 132.09 19.5
-4 -2 -5 130.09 16.3
4 2 5 165.88 37.6
-5 -2 -5 75.99 16.4
-5 -2 -5 108.39 13.3
5 2 5 83.99 32.8
8 -3 -5 21.6 7.1
-8 3 5 17.5 15.2
-8 3 5 5.9 7.1
7 -3 -5 386.36 44.9
-7 3 5 404.56 64.59
-7 3 5 409.76 46.4
6 -3 -5 69.69 14.9
-6 3 5 77.99 14.1
-6 3 5 81.89 30.5
5 -3 -5 301.67 36.8
5 -3 -5 253.77 28.3
-5 3 5 211.28 27.3
-5 3 5 226.58 45.4
4 -3 -5 449.16 45.6
4 -3 -5 533.45 52.69
-4 3 5 416.26 66.99
-4 3 5 431.46 45.5
3 -3 -5 243.68 27.6
3 -3 -5 194.68 22.5
-3 3 5 191.38 40.9
-3 3 5 202.28 22.3
2 -3 -5 3380.16 270.47
2 -3 -5 2899.91 266.77
-2 3 5 2577.04 293.77
-2 3 5 3150.88 266.27
1 -3 -5 211.08 24
1 -3 -5 246.98 24.6
-1 3 5 245.68 24.6
-1 3 5 210.28 43.3
-1 3 5 247.98 22.8
0 -3 -5 678.93 59.89
0 3 5 582.74 84.99
-1 -3 -5 804.62 73.29
1 3 5 775.82 103.89
-2 -3 -5 195.78 19.9
-2 -3 -5 231.28 21.5
-2 -3 -5 159.08 20
2 3 5 193.78 51.39
-3 -3 -5 511.45 48.5
-3 -3 -5 458.75 49.4
3 3 5 586.94 86.39
-4 -3 -5 20.2 7.7
-4 -3 -5 28.4 6.7
4 3 5 49.1 26.1
7 -4 -5 36.1 10.3
-7 4 5 19.1 20.2
-7 4 5 53.39 12.3
6 -4 -5 722.93 76.49
-6 4 5 802.02 77.19
-6 4 5 804.62 104.89
5 -4 -5 268.87 29
-5 4 5 209.48 46.7
-5 4 5 241.78 27.5
4 -4 -5 60.59 11.6
-4 4 5 41.8 21.4
-4 4 5 71.19 10.4
3 -4 -5 341.87 34.5
-3 4 5 348.77 33.5
-3 4 5 294.37 56.69
2 -4 -5 43.6 8.2
-2 4 5 37.9 23.2
-2 4 5 42.2 5.9
-2 4 5 48.5 9.3
1 -4 -5 203.08 21.6
-1 4 5 190.28 44.4
0 -4 -5 36 7.3
0 4 5 36.9 20.8
-1 -4 -5 23.3 5.9
1 4 5 22.1 19.4
-2 -4 -5 949.4 83.59
2 4 5 801.72 121.19
-3 -4 -5 9.2 3.2
3 4 5 14.1 23.1
-4 -4 -5 39 8.6
4 4 5 42.3 24.1
7 -5 -5 72.29 16.2
-7 5 5 51.09 12.4
-7 5 5 66.99 32.7
6 -5 -5 132.09 21.2
-6 5 5 116.09 17.7
-6 5 5 78.89 31.8
5 -5 -5 5.2 4.2
-5 5 5 1.8 12.2
-5 5 5 19.1 6.8
4 -5 -5 13.7 4.9
-4 5 5 2.9 11.2
-4 5 5 9.5 4.4
3 -5 -5 -4.1 1.5
-3 5 5 -0.1 2.5
-3 5 5 -10 11.8
-3 5 5 3.2 6.3
2 -5 -5 646.14 59.49
-2 5 5 571.14 92.09
1 -5 -5 207.08 22.2
-1 5 5 162.98 51.39
0 -5 -5 84.89 11.8
0 5 5 71.69 33.6
-1 -5 -5 996.8 83.99
1 5 5 722.73 119.99
-2 -5 -5 7.4 5.5
2 5 5 23 26.7
6 -6 -5 178.58 22.4
-6 6 5 160.98 23.4
-6 6 5 148.89 52.99
5 -6 -5 176.08 24.2
-5 6 5 212.28 24.4
-5 6 5 176.58 54.29
4 -6 -5 8.9 5.7
-4 6 5 -7.8 13.8
-4 6 5 -2.6 4.3
3 -6 -5 488.85 46.1
-3 6 5 380.16 77.99
2 -6 -5 130.49 16.7
1 -6 -5 136.19 17.5
-1 6 5 129.39 49
0 -6 -5 107.39 17.1
0 6 5 116.19 45.2
-1 -6 -5 60.29 11
1 6 5 14.9 23.3
5 -7 -5 23.2 7
-5 7 5 20.9 25.1
4 -7 -5 65.39 13.3
-4 7 5 92.89 37.4
3 -7 -5 53.09 11.1
-3 7 5 49.8 26.5
2 -7 -5 240.28 25.5
-2 7 5 142.99 54.09
1 -7 -5 115.59 16.8
-1 7 5 55.79 32.6
-1 9 -6 526.35 78.29
-1 9 -6 749.42 108.39
-2 9 -6 20 14.5
-2 9 -6 32.4 26.5
2 -9 6 64.99 28.7
-3 9 -6 465.75 66.99
-3 9 -6 663.73 94.19
-4 9 -6 21.1 10.7
-4 9 -6 -7.1 14.8
4 -9 6 26.9 20.5
-5 9 -6 11.7 9.1
-5 9 -6 35.6 20.9
5 -9 6 58.49 24.9
1 8 -6 566.74 91.89
1 8 -6 476.15 70.49
0 8 -6 1059.99 128.89
0 8 -6 1378.86 161.88
-1 8 -6 51.09 28.1
-1 8 -6 50.19 19.8
-2 8 -6 1433.66 155.78
-2 8 -6 1012.5 125.19
-3 8 -6 132.19 32.9
-3 8 -6 176.88 47
3 -8 6 144.59 15.1
-4 8 -6 728.33 96.39
-4 8 -6 1049.7 117.19
-6 8 -6 79.39 24.6
6 -8 6 107.69 16.8
3 7 -6 14.6 14.2
-3 -7 6 32.7 24.9
2 7 -6 1866.31 192.78
1 7 -6 83.99 28
1 7 -6 116.39 42.9
0 7 -6 150.08 46.2
0 7 -6 155.18 36.3
-1 7 -6 1276.67 152.78
-1 7 -6 1790.92 181.88
-2 7 -6 52.59 24.6
2 -7 6 109.29 33.1
-3 7 -6 642.34 76.69
3 -7 6 632.74 57.79
-4 7 -6 62.49 21.5
4 -7 6 86.29 10.9
-6 7 -6 256.27 41.2
6 -7 6 270.47 29.5
-7 7 -6 296.97 42.8
7 -7 6 208.48 29.4
4 6 -6 71.49 25.1
-4 -6 6 163.28 47.9
3 6 -6 648.84 82.69
2 6 -6 16.7 18.1
-2 -6 6 88.49 33.5
1 6 -6 95.69 27.9
0 6 -6 1519.25 173.88
0 6 -6 2017.7 200.58
-1 6 -6 193.78 42
-1 6 -6 111.49 29.1
-2 6 -6 509.25 42.9
-2 6 -6 437.96 60.29
-2 6 -6 502.55 42.9
2 -6 6 465.35 43.2
-3 6 -6 497.05 59.69
3 -6 6 432.96 42
-4 6 -6 392.26 51.39
4 -6 6 347.57 35.8
-5 6 -6 517.55 66.19
5 -6 6 560.14 53.59
-6 6 -6 12.2 9.9
6 -6 6 -4.7 4.6
-7 6 -6 1247.28 127.79
7 -6 6 1137.89 113.19
5 5 -6 -15.8 11.2
-5 -5 6 -2 12
3 5 -6 272.07 43.7
-3 -5 6 249.28 22.4
0 5 -6 21.1 12.9
0 -5 6 59.79 25.9
-2 5 -6 831.12 67.09
-2 5 -6 640.14 82.79
-2 5 -6 746.43 67.19
2 -5 6 763.92 67.99
-5 5 -6 549.74 66.99
5 -5 6 524.15 55.49
5 -5 6 607.94 66.29
-6 5 -6 890.11 98.89
6 -5 6 918.41 87.69
-7 5 -6 15.5 9.2
7 -5 6 -2.2 6.4
5 4 -6 104.89 13.9
5 4 -6 141.59 34.5
-5 -4 6 107.89 11.9
4 4 -6 356.76 36
4 4 -6 437.96 56.59
-4 -4 6 386.66 34.9
3 4 -6 908.01 95.29
-3 -4 6 826.42 71.99
-3 -4 6 779.22 71.99
-1 -4 6 142.19 40.2
-2 4 -6 509.35 67.99
-2 4 -6 638.54 54.59
-2 4 -6 598.04 55.59
2 -4 6 663.03 56.29
-3 4 -6 1622.34 163.38
-3 4 -6 1680.93 147.19
3 -4 6 1700.63 149.59
4 -4 6 53.29 22
4 -4 6 72.09 16.2
-5 4 -6 421.96 53.49
5 -4 6 404.66 44.9
5 -4 6 458.95 44.3
5 -4 6 439.56 42.7
-6 4 -6 7 8.8
6 -4 6 19.2 6.9
-7 4 -6 768.12 89.09
7 -4 6 836.42 81.79
6 3 -6 512.45 63.09
6 3 -6 323.57 40.2
-6 -3 6 452.05 49.6
5 3 -6 13.5 12.3
5 3 -6 7.9 4.3
-5 -3 6 13 18.8
4 3 -6 936.41 95.19
4 3 -6 750.82 73.99
3 3 -6 822.82 85.79
3 3 -6 737.83 66.49
-3 -3 6 704.73 65.19
2 3 -6 622.04 71.19
2 3 -6 577.74 53.79
-2 -3 6 633.64 53.39
-1 3 -6 276.47 22.8
-1 3 -6 209.28 34
-1 3 -6 230.58 23.5
-2 3 -6 392.46 55.59
-2 3 -6 553.04 45
-3 3 -6 314.77 42.1
-3 3 -6 328.47 30.3
3 -3 6 323.77 33
-4 3 -6 150.98 18.3
-4 3 -6 186.08 29.2
4 -3 6 167.18 21.3
4 -3 6 228.08 28.5
4 -3 6 216.48 30.4
-5 3 -6 1028.5 106.99
-5 3 -6 1009.4 93.59
5 -3 6 1088.69 99.09
-6 3 -6 549.65 52.09
-6 3 -6 525.05 63.69
6 -3 6 577.94 58.29
-7 3 -6 92.39 12.5
-7 3 -6 88.29 24.4
7 -3 6 100.09 20.9
6 2 -6 65.29 19.7
6 2 -6 36.5 7.2
-6 -2 6 26 9.5
-6 -2 6 104.89 38.3
5 2 -6 -1.4 7.6
5 2 -6 -0.7 3.3
-5 -2 6 18.8 17.2
4 2 -6 699.03 68.99
4 2 -6 831.92 87.09
3 2 -6 75.79 20.5
3 2 -6 58.09 8.5
-3 -2 6 68.69 7.2
2 2 -6 18.7 3.4
2 2 -6 20 9.6
-2 -2 6 21.9 2.8
-2 -2 6 60.89 24.2
1 2 -6 110.89 10.3
1 2 -6 78.99 20.8
-1 -2 6 99.39 9.8
0 2 -6 2094.19 182.38
0 2 -6 2046.8 195.98
-1 2 -6 1774.22 156.48
-1 2 -6 1755.12 168.88
-2 2 -6 47.9 14.7
-2 2 -6 70.19 7.6
-3 2 -6 2592.94 242.68
-3 2 -6 2573.54 254.67
3 -2 6 2679.23 246.18
3 -2 6 3219.98 259.67
-4 2 -6 341.77 42.2
-4 2 -6 368.06 32.1
4 -2 6 379.16 36.7
4 -2 6 258.17 40.3
-5 2 -6 507.75 59.29
-5 2 -6 485.75 48.6
5 -2 6 591.94 54.99
-6 2 -6 593.54 56.19
-6 2 -6 575.64 66.99
6 -2 6 607.34 62.69
-7 2 -6 254.27 29.1
-7 2 -6 299.97 40.4
7 -2 6 299.07 37.3
7 1 -6 -5.5 6.4
7 1 -6 9.4 11.7
-7 -1 6 5.6 6
6 1 -6 49.8 10
6 1 -6 56.49 19.7
-6 -1 6 61.49 15
5 1 -6 95.49 24.8
5 1 -6 83.29 11.9
4 1 -6 310.17 33.4
4 1 -6 398.66 48.5
3 1 -6 1253.37 113.39
3 1 -6 1282.17 127.99
2 1 -6 230.98 33.1
2 1 -6 233.68 22.8
1 1 -6 845.42 91.79
-1 -1 6 931.51 79.59
0 1 -6 1834.72 143.19
0 1 -6 1354.46 153.08
-1 1 -6 50.99 15.4
-1 1 -6 69.39 8
1 -1 6 98.69 21.7
-2 1 -6 2375.26 219.68
2 -1 6 2647.83 238.68
-3 1 -6 3.5 6.1
-3 1 -6 0.7 1.4
3 -1 6 1.8 5.2
-4 1 -6 65.39 17.2
-4 1 -6 94.39 10.6
4 -1 6 70.49 13.8
4 -1 6 80.59 24.9
-5 1 -6 1463.95 151.08
-5 1 -6 1575.84 141.49
5 -1 6 1742.43 148.89
5 -1 6 1565.84 152.38
-6 1 -6 140.49 25.3
-6 1 -6 169.98 19.1
6 -1 6 205.88 26.5
7 0 -6 869.11 96.79
-7 0 6 772.92 83.49
6 0 -6 250.87 39.8
6 0 -6 193.58 26.5
-6 0 6 275.77 32.3
5 0 -6 135.49 28.9
5 0 -6 79.19 13.6
4 0 -6 2845.52 244.28
4 0 -6 2338.47 227.08
3 0 -6 15.7 4.4
3 0 -6 3.5 4.2
-3 0 6 38.9 22.5
2 0 -6 280.07 40.8
2 0 -6 383.96 33.2
1 0 -6 558.94 67.99
1 0 -6 715.53 59.39
0 0 -6 1311.57 108.19
0 0 -6 1089.59 116.99
-1 0 -6 1610.24 136.89
-1 0 -6 1275.47 144.49
1 0 6 1761.22 161.08
-2 0 -6 7.6 2.7
-2 0 -6 4.7 4
2 0 6 -2.6 5.9
-3 0 -6 787.02 81.19
-3 0 -6 798.52 73.09
3 0 6 817.22 95.79
-4 0 -6 254.17 25
-4 0 -6 220.18 31.3
4 0 6 242.38 42.4
-5 0 -6 77.89 11.2
-5 0 -6 120.29 19.4
5 0 6 68.99 22.8
-6 0 -6 302.67 32.9
-6 0 -6 300.27 39.1
6 0 6 396.86 42.1
7 -1 -6 103.79 28.6
-7 1 6 177.88 38.4
-7 1 6 139.39 22.9
6 -1 -6 78.69 22.4
6 -1 -6 49.7 11.7
-6 1 6 98.99 34.8
-6 1 6 73.59 16.3
5 -1 -6 312.57 41.4
5 -1 -6 225.48 28.1
-5 1 6 276.07 32.4
4 -1 -6 57.49 11
4 -1 -6 64.19 18.3
-4 1 6 90.19 31
3 -1 -6 463.95 46.5
3 -1 -6 516.25 56.89
2 -1 -6 162.68 25.7
2 -1 -6 202.18 19.9
1 -1 -6 120.19 13.5
1 -1 -6 111.59 18.3
-1 1 6 150.48 32
0 -1 -6 421.76 53.59
0 -1 -6 556.54 47.8
0 1 6 565.44 71.39
-1 -1 -6 51.29 13.7
-1 -1 -6 76.19 9
1 1 6 82.49 26.2
-2 -1 -6 793.32 87.49
-2 -1 -6 1031.6 82.19
2 1 6 845.02 105.99
-3 -1 -6 91.19 11.5
-3 -1 -6 88.99 16.3
3 1 6 100.19 31.2
-4 -1 -6 13.1 4.4
-4 -1 -6 9.8 6.5
4 1 6 13 15.6
-5 -1 -6 1999.2 174.78
-5 -1 -6 1813.12 181.88
5 1 6 2041.5 206.08
7 -2 -6 43.5 11.7
7 -2 -6 78.39 21.9
-7 2 6 63.49 28.4
-7 2 6 76.19 17.9
6 -2 -6 117.89 20
6 -2 -6 176.48 28.7
-6 2 6 139.69 43.6
-6 2 6 130.09 21
5 -2 -6 67.19 12.6
5 -2 -6 52.49 17.7
-5 2 6 70.39 12.2
-5 2 6 90.29 34
4 -2 -6 1587.24 150.28
4 -2 -6 1412.16 139.59
-4 2 6 1691.13 174.78
-4 2 6 1518.85 141.89
3 -2 -6 103.79 20.9
3 -2 -6 87.89 11.8
-3 2 6 66.59 27.8
2 -2 -6 117.79 14.3
2 -2 -6 124.69 19.8
-2 2 6 146.89 40.8
1 -2 -6 1370.56 127.79
1 -2 -6 1363.86 121.69
-1 2 6 1330.47 151.08
0 -2 -6 166.98 23
0 -2 -6 186.88 19.6
0 2 6 209.18 21.6
0 2 6 161.78 37.9
-1 -2 -6 1926.01 193.18
-1 -2 -6 2295.87 189.48
1 2 6 1872.21 217.58
1 2 6 2353.66 189.38
-2 -2 -6 392.96 46.2
-2 -2 -6 520.05 43.3
2 2 6 397.56 67.09
-3 -2 -6 365.56 33.8
-3 -2 -6 309.57 37.1
3 2 6 305.57 59.19
-4 -2 -6 799.52 70.89
-4 -2 -6 685.83 74.69
4 2 6 787.02 106.59
-5 -2 -6 9.8 4
-5 -2 -6 21.6 9.8
5 2 6 -28.3 21.1
7 -3 -6 289.17 37.3
-7 3 6 316.47 60.49
-7 3 6 362.86 40.6
6 -3 -6 0.5 7.4
6 -3 -6 -4.7 4.5
-6 3 6 -10.8 9
-6 3 6 -0.6 4.5
5 -3 -6 911.71 91.39
5 -3 -6 1136.19 103.19
-5 3 6 915.81 92.09
-5 3 6 922.31 122.49
4 -3 -6 66.19 12.3
4 -3 -6 81.49 19.3
-4 3 6 57.49 26.9
-4 3 6 81.69 12.1
3 -3 -6 1016.4 96.79
3 -3 -6 1089.49 102.69
-3 3 6 1005.7 128.79
-3 3 6 1074.29 97.09
2 -3 -6 181.28 20.2
2 -3 -6 196.48 23.7
-2 3 6 177.98 19.9
-2 3 6 187.08 51.29
1 -3 -6 25.9 5.8
1 -3 -6 25.6 6.7
-1 3 6 23.2 6.6
-1 3 6 15.6 15.8
0 -3 -6 888.11 78.59
0 -3 -6 846.42 76.59
0 3 6 769.02 107.69
0 3 6 861.81 75.39
-1 -3 -6 348.77 33.3
1 3 6 286.37 58.09
-2 -3 -6 333.27 33.3
-2 -3 -6 319.47 31.8
2 3 6 321.57 62.59
-3 -3 -6 20.5 6
3 3 6 -3.1 23.5
-4 -3 -6 65.79 11.8
4 3 6 85.39 31.5
7 -4 -6 50.79 13.4
-7 4 6 45 12.4
-7 4 6 49 27.1
6 -4 -6 463.75 49.5
-6 4 6 508.65 80.59
-6 4 6 435.96 49
5 -4 -6 215.38 27.5
-5 4 6 214.18 59.09
-5 4 6 252.97 28
4 -4 -6 996.8 94.19
-4 4 6 983.9 130.39
-4 4 6 1014.9 93.49
3 -4 -6 154.98 17.8
-3 4 6 124.49 41.5
-3 4 6 133.69 16.3
2 -4 -6 5.5 3.2
-2 4 6 -2.4 11.1
-2 4 6 3.4 2.4
1 -4 -6 349.57 32.9
-1 4 6 258.47 56.49
0 -4 -6 19.2 5
0 4 6 -12.4 13.6
-1 -4 -6 752.52 63.79
1 4 6 521.15 94.09
-2 -4 -6 215.58 22.6
2 4 6 130.09 47.2
-3 -4 -6 62.09 11.7
3 4 6 66.49 28.8
6 -5 -6 76.69 15
-6 5 6 79.79 12.7
-6 5 6 35.7 24.5
5 -5 -6 114.69 18.5
-5 5 6 95.19 15.9
-5 5 6 101.59 42.5
4 -5 -6 44.2 10.5
-4 5 6 60.29 9.2
-4 5 6 17.9 22
3 -5 -6 190.78 22.2
-3 5 6 127.09 47.7
-3 5 6 195.68 19.3
2 -5 -6 60.89 10.8
-2 5 6 76.79 35.9
1 -5 -6 14.4 6
-1 5 6 11.3 19.9
0 -5 -6 542.55 50.29
0 5 6 427.46 82.39
-1 -5 -6 817.52 73.69
1 5 6 679.03 113.49
5 -6 -6 545.95 53.39
-5 6 6 454.65 86.39
4 -6 -6 510.35 50.49
-4 6 6 459.75 87.19
3 -6 -6 682.43 62.49
-3 6 6 536.35 99.89
2 -6 -6 69.59 13
-2 6 6 32 28.3
1 -6 -6 494.25 47.8
-1 6 6 411.96 83.09
0 -6 -6 155.28 20
-2 9 -7 128.09 46.7
-2 9 -7 91.19 28
1 8 -7 45.9 14.6
-1 -8 7 106.89 32.6
0 -8 7 312.57 58.89
2 -8 7 174.08 46.9
-3 8 -7 5.1 10.1
3 -8 7 46.9 24.5
2 7 -7 344.37 55.29
-1 7 -7 7.5 9.3
1 -7 7 -3.1 15.2
-2 7 -7 39.9 19.3
2 -7 7 144.79 40
-3 7 -7 309.37 26.9
3 -7 7 285.47 27.6
-4 7 -7 3.5 8.6
4 -7 7 4.7 11
4 -7 7 -1 2.8
-6 7 -7 164.18 36.9
6 -7 7 135.09 18.8
3 6 -7 198.58 43.7
2 6 -7 14.2 12.9
-2 -6 7 10 19
-1 -6 7 383.26 66.39
0 -6 7 245.88 49.6
-2 6 -7 0.4 9.9
2 -6 7 21.3 14.7
-3 6 -7 112.69 12.3
-3 6 -7 86.79 26.5
-3 6 -7 127.99 12
3 -6 7 140.49 13.3
-4 6 -7 84.39 26.7
4 -6 7 127.49 14.4
-5 6 -7 446.46 59.39
5 -6 7 431.06 43.8
-6 6 -7 161.38 34.2
6 -6 7 81.59 16.1
3 5 -7 44 22.5
-3 -5 7 77.89 33.5
-2 -5 7 233.38 50.79
-2 5 -7 9.9 1.5
-2 5 -7 3.6 8.5
-2 5 -7 8 1.6
2 -5 7 17.6 13.7
-3 5 -7 800.82 105.09
-3 5 -7 1035.9 88.69
3 -5 7 1090.69 90.89
-4 5 -7 422.46 55.79
-4 5 -7 422.96 38
4 -5 7 385.16 40.4
-5 5 -7 218.48 35.5
-5 5 -7 226.88 22.6
5 -5 7 223.28 25.9
-6 5 -7 672.23 82.09
-6 5 -7 703.63 64.99
6 -5 7 729.23 69.89
-7 5 -7 107.29 27.6
-7 5 -7 67.79 12
7 -5 7 112.89 19.3
5 4 -7 940.31 110.59
4 4 -7 8 2.9
4 4 -7 9.1 10.3
-4 -4 7 13.2 18.4
-2 -4 7 335.17 61.39
1 4 -7 7.3 10.3
-1 -4 7 32.5 21.1
-2 4 -7 26.4 12.5
-2 4 -7 53.09 5.6
-2 4 -7 52.69 6.7
-3 4 -7 369.86 33.3
-3 4 -7 325.97 47.4
3 -4 7 360.66 35.6
-4 4 -7 -2.4 6.1
-4 4 -7 6.6 2.2
4 -4 7 1.9 2.8
4 -4 7 12.9 12
-5 4 -7 402.26 54.19
-5 4 -7 391.16 39.6
5 -4 7 469.85 48.8
5 -4 7 406.56 43.3
-6 4 -7 44.9 16.2
6 -4 7 39.8 10.8
-7 4 -7 204.68 36.4
-7 4 -7 227.98 25.2
7 -4 7 297.67 31.8
6 3 -7 1383.86 150.08
-6 -3 7 1376.96 135.49
5 3 -7 6.4 7.2
5 3 -7 -0.5 4.2
-5 -3 7 -0.8 11.3
4 3 -7 839.22 91.29
4 3 -7 710.93 68.19
3 3 -7 132.69 30.8
3 3 -7 123.09 13.2
-3 -3 7 133.79 12.3
2 3 -7 -3.5 7
-2 -3 7 11.1 1.2
-2 -3 7 24.9 19.3
0 3 -7 33.8 4.3
0 3 -7 37.2 3.8
0 3 -7 18.8 10.9
-1 3 -7 51.49 5.8
-2 3 -7 1.4 3.8
-2 3 -7 3.2 1.1
2 -3 7 16.5 12.8
-3 3 -7 366.46 50.59
-3 3 -7 428.56 38
-4 3 -7 211.08 34.3
-4 3 -7 233.48 24.6
4 -3 7 282.07 38.3
4 -3 7 291.47 28.9
-5 3 -7 85.49 20.8
-5 3 -7 83.69 10.1
5 -3 7 70.49 13.4
5 -3 7 60.69 15.9
-6 3 -7 684.83 78.69
-6 3 -7 654.23 64.09
6 -3 7 748.23 70.99
6 2 -7 63.19 12.8
6 2 -7 67.09 25.2
-6 -2 7 163.58 51.99
-6 -2 7 56.89 15.5
5 2 -7 492.95 51.49
5 2 -7 642.14 73.59
4 2 -7 154.28 17.8
4 2 -7 177.88 31.4
3 2 -7 53.29 8.3
3 2 -7 39.7 15.3
-3 -2 7 132.09 40.3
2 2 -7 36.7 4.7
2 2 -7 40.1 15
-2 -2 7 37.8 4.3
-2 -2 7 115.99 37.1
1 2 -7 381.26 33.5
1 2 -7 318.67 33.6
1 2 -7 338.57 47.3
-1 -2 7 397.76 33
0 2 -7 263.17 28
0 2 -7 350.06 27.8
0 2 -7 243.28 38.4
-1 2 -7 0.4 4.6
-1 2 -7 0.4 1.2
1 -2 7 6.5 10.7
-2 2 -7 55.09 17.8
-2 2 -7 74.19 8.5
-3 2 -7 1141.29 100.89
-3 2 -7 1106.69 114.79
-4 2 -7 137.79 24.7
-4 2 -7 121.09 14
4 -2 7 138.99 26.5
4 -2 7 130.49 17.8
-5 2 -7 1017.4 93.29
-5 2 -7 989.9 105.79
5 -2 7 1080.29 99.49
-6 2 -7 125.49 16.1
-6 2 -7 134.79 29
6 -2 7 163.68 25.7
6 1 -7 1103.99 110.99
6 1 -7 751.52 86.09
-6 -1 7 1023.8 95.79
5 1 -7 321.87 45
5 1 -7 227.28 26.7
4 1 -7 600.14 59.49
4 1 -7 703.83 77.29
3 1 -7 748.23 77.39
3 1 -7 596.24 59.29
2 1 -7 24.1 5
2 1 -7 42.7 13.8
-2 -1 7 82.19 29.8
1 1 -7 3902.81 341.67
0 1 -7 110.09 25
0 1 -7 125.29 13.8
0 -1 7 199.48 36.5
-1 1 -7 26.1 10.7
-1 1 -7 39 5.3
1 -1 7 43 18.5
-2 1 -7 312.77 46.5
-2 1 -7 415.66 38.1
2 -1 7 497.45 60.29
-3 1 -7 146.19 14.9
-3 1 -7 124.49 22.8
3 -1 7 118.69 28.1
-4 1 -7 305.07 40.3
-4 1 -7 291.67 29.9
4 -1 7 311.37 49.3
-5 1 -7 7.7 3.6
-5 1 -7 9.4 9.6
5 -1 7 17.3 13.7
-6 1 -7 279.57 40
-6 1 -7 297.97 31
6 -1 7 327.27 38.5
7 0 -7 568.54 75.69
-7 0 7 577.34 64.39
6 0 -7 -3.3 6.9
6 0 -7 1.4 4.6
-6 0 7 -2.7 4.3
-6 0 7 25.7 19.4
5 0 -7 1112.99 102.79
4 0 -7 845.22 78.39
3 0 -7 22.8 5
3 0 -7 6.9 8.8
-3 0 7 54.99 25.5
2 0 -7 300.77 43.3
2 0 -7 374.16 33.9
1 0 -7 947.31 79.79
1 0 -7 782.32 90.39
0 0 -7 51.79 6.9
0 0 -7 39.7 13.7
0 0 7 67.09 25.3
-1 0 -7 3.9 6.5
-1 0 -7 17.9 4.3
1 0 7 33.7 17.7
-2 0 -7 7.2 6
-2 0 -7 10.6 3.6
2 0 7 14 12.5
-3 0 -7 270.97 24.8
-3 0 -7 195.28 31
3 0 7 233.38 45.2
-4 0 -7 90.69 20.9
-4 0 -7 105.49 12.6
4 0 7 80.19 28.9
-5 0 -7 561.04 63.39
-5 0 -7 599.44 54.59
5 0 7 530.05 76.49
7 -1 -7 103.99 21.1
7 -1 -7 183.28 40.4
-7 1 7 160.78 26.1
-7 1 7 232.58 50.19
6 -1 -7 662.43 76.79
6 -1 -7 974.4 98.19
-6 1 7 861.91 84.09
5 -1 -7 932.91 100.29
5 -1 -7 755.42 83.19
-5 1 7 1010 90.39
4 -1 -7 79.19 13.2
4 -1 -7 83.09 22.5
-4 1 7 79.49 33
3 -1 -7 233.38 35.3
3 -1 -7 239.98 26.4
-3 1 7 308.07 54.59
2 -1 -7 420.56 41.1
2 -1 -7 375.76 49.7
-2 1 7 521.65 73.49
1 -1 -7 1437.86 132.49
1 -1 -7 1337.47 142.19
-1 1 7 1754.72 171.58
0 -1 -7 45.6 7.8
0 -1 -7 46.3 13.4
0 1 7 63.49 26.1
-1 -1 -7 4.8 6.1
-1 -1 -7 13.4 4
1 1 7 -5.5 7
-2 -1 -7 346.17 45.1
-2 -1 -7 428.06 39.3
2 1 7 450.95 65.69
-3 -1 -7 11.5 6.7
-3 -1 -7 5.2 2.6
3 1 7 -6.3 12
-4 -1 -7 289.27 39.6
-4 -1 -7 354.16 34.6
4 1 7 413.96 64.39
-5 -1 -7 123.09 15.6
-5 -1 -7 122.39 21.7
5 1 7 113.39 46.3
7 -2 -7 26.4 10.5
7 -2 -7 58.79 22.7
-7 2 7 34.2 13.7
-7 2 7 64.39 34.3
6 -2 -7 100.09 17.3
6 -2 -7 158.18 33.1
-6 2 7 101.99 18.9
-6 2 7 123.49 44.8
5 -2 -7 263.27 33.2
5 -2 -7 371.26 46.1
-5 2 7 284.57 36
-5 2 7 405.36 68.29
4 -2 -7 1091.39 109.89
4 -2 -7 887.21 97.29
-4 2 7 1104.99 101.09
-4 2 7 1204.58 140.09
3 -2 -7 140.39 23.4
3 -2 -7 123.69 15.7
-3 2 7 114.69 39.2
2 -2 -7 416.16 48.4
2 -2 -7 409.76 40.7
-2 2 7 425.96 71.29
1 -2 -7 2088.69 187.28
1 -2 -7 2032.4 194.58
-1 2 7 2227.18 227.58
0 -2 -7 2.9 3
0 -2 -7 0 4.9
0 2 7 12.8 13.9
-1 -2 -7 305.17 28.3
-1 -2 -7 227.78 31.9
1 2 7 286.37 52.79
-2 -2 -7 79.89 11.1
-2 -2 -7 67.89 16.4
2 2 7 99.69 34
-3 -2 -7 267.37 35
-3 -2 -7 322.17 31.5
3 2 7 339.07 64.79
-4 -2 -7 403.36 42.3
4 2 7 483.85 80.99
6 -3 -7 772.22 79.19
6 -3 -7 569.44 63.19
-6 3 7 641.74 98.69
-6 3 7 585.74 65.19
5 -3 -7 2832.02 245.48
5 -3 -7 2321.17 231.98
-5 3 7 2659.53 279.57
-5 3 7 2555.04 234.08
4 -3 -7 19.6 7.7
4 -3 -7 31.2 11.5
-4 3 7 11.1 16.1
-4 3 7 19.6 6.8
3 -3 -7 734.33 72.09
3 -3 -7 650.33 64.99
-3 3 7 683.43 65.59
-3 3 7 641.14 100.19
2 -3 -7 1542.15 146.19
2 -3 -7 1685.83 151.38
-2 3 7 1741.93 146.39
-2 3 7 1445.06 184.08
1 -3 -7 806.82 75.99
1 -3 -7 752.62 73.69
-1 3 7 744.53 108.49
-1 3 7 846.42 79.69
0 -3 -7 177.68 20.7
0 -3 -7 199.68 20.5
0 3 7 144.19 46.4
-1 -3 -7 42.1 8.8
1 3 7 38.4 25.7
-2 -3 -7 159.28 17.7
2 3 7 99.89 37.6
-3 -3 -7 -4.1 2.5
3 3 7 3.1 18.9
6 -4 -7 466.55 52.99
-6 4 7 523.35 54.49
-6 4 7 513.25 89.89
5 -4 -7 8.6 7.1
-5 4 7 6.5 11.9
-5 4 7 18.3 7
4 -4 -7 412.66 45.5
-4 4 7 459.05 45.5
-4 4 7 454.85 83.29
3 -4 -7 255.87 27.2
-3 4 7 240.08 25.8
-3 4 7 195.68 58.99
2 -4 -7 5.4 4.2
-2 4 7 6.7 3.4
-2 4 7 6 14.2
1 -4 -7 848.72 77.19
-1 4 7 763.52 116.19
0 -4 -7 21.5 6.5
-1 -4 -7 58.19 10.6
1 4 7 50.09 28.4
-2 -4 -7 55.79 10.6
2 4 7 37.5 31.7
5 -5 -7 944.41 88.69
-5 5 7 862.41 131.69
4 -5 -7 128.99 16.7
-4 5 7 76.29 38.3
3 -5 -7 43 9.6
-3 5 7 25.1 24.8
2 -5 -7 1448.76 122.49
-2 5 7 1127.09 166.58
1 -5 -7 68.09 12.4
-1 5 7 74.89 38.9
0 -5 -7 324.37 31.8
0 5 7 195.78 63.99
0 8 -8 -5.3 13.7
0 -8 8 36.5 21.2
-2 -7 8 2051.59 229.18
1 7 -8 65.49 23.8
-1 -7 8 171.38 50.59
-2 7 -8 0.7 6.7
2 -7 8 21.5 19.7
-4 7 -8 51.69 8.5
-4 7 -8 36.5 19.3
-5 7 -8 433.46 61.59
-5 7 -8 438.96 39.8
5 -7 8 408.16 42
3 6 -8 1133.69 131.59
2 6 -8 -21.5 10.1
-2 -6 8 10 16.5
0 -6 8 110.09 40.7
-3 6 -8 120.09 11.4
-3 6 -8 92.09 28.1
-4 6 -8 578.34 82.59
-4 6 -8 740.63 63.19
4 -6 8 721.63 65.49
-5 6 -8 72.39 21.2
-5 6 -8 89.99 10.5
5 -6 8 87.39 11.9
-6 6 -8 235.68 40.4
-6 6 -8 216.88 23.3
6 -6 8 252.77 27
4 5 -8 345.67 54.69
3 5 -8 32.5 16.8
-3 -5 8 22.8 22.5
-2 5 -8 50.79 4.8
-2 5 -8 46.2 4.9
-2 5 -8 36.3 18.1
-3 5 -8 1537.35 177.18
-3 5 -8 1929.81 156.68
-4 5 -8 105.49 10.6
-4 5 -8 84.79 26.2
4 -5 8 78.09 13.1
-5 5 -8 582.74 51.29
-5 5 -8 547.45 69.49
5 -5 8 509.45 54.29
-6 5 -8 634.84 82.29
-6 5 -8 662.73 63.69
6 -5 8 778.42 69.19
-4 -4 8 -5 18.9
-1 4 -8 164.48 15.1
-1 4 -8 168.08 14.9
-1 4 -8 132.09 31.3
-2 4 -8 1945.61 159.18
-2 4 -8 1595.44 179.18
-3 4 -8 11 2.8
-3 4 -8 15.5 8.7
3 -4 8 6 12
-4 4 -8 469.05 59.39
-4 4 -8 456.65 43.1
4 -4 8 469.95 46.5
-5 4 -8 75.09 9.9
-5 4 -8 74.79 19.4
5 -4 8 85.79 14.9
-6 4 -8 87.49 24.6
-6 4 -8 83.59 11.6
6 -4 8 113.99 19
5 3 -8 44.9 20.8
-5 -3 8 59.99 29.8
4 3 -8 563.84 54.29
4 3 -8 691.13 80.09
3 3 -8 41.1 5.7
3 3 -8 56.29 20
2 3 -8 341.07 45.5
2 3 -8 249.28 22.5
2 3 -8 244.28 22.5
1 3 -8 783.92 75.49
1 3 -8 901.91 75.49
1 3 -8 958 98.99
0 3 -8 349.47 48.8
0 3 -8 307.67 31.4
0 3 -8 373.66 31.1
-1 3 -8 867.51 108.09
-1 3 -8 1112.99 91.09
-2 3 -8 367.36 31.3
-2 3 -8 251.07 43.4
-3 3 -8 982.4 116.99
-3 3 -8 1228.88 101.49
-4 3 -8 200.28 35.2
-4 3 -8 231.78 24.3
4 -3 8 315.77 43.5
-5 3 -8 312.87 31.4
-5 3 -8 325.77 46.2
5 -3 8 326.67 36.8
-6 3 -8 1015.3 111.29
-6 3 -8 1021 95.09
6 -3 8 1098.69 102.09
5 2 -8 163.18 18.5
5 2 -8 173.58 38.5
4 2 -8 169.08 19.5
4 2 -8 233.28 38.4
3 2 -8 1386.26 128.19
3 2 -8 1048 103.19
2 2 -8 744.13 70.69
2 2 -8 894.71 92.19
1 2 -8 675.23 60.99
1 2 -8 683.03 78.89
0 2 -8 1032 127.49
0 2 -8 1435.46 113.19
-1 2 -8 25.4 11.9
-1 2 -8 31.5 5.5
1 -2 8 74.69 26.9
-2 2 -8 2191.88 241.08
-2 2 -8 2870.41 226.48
-3 2 -8 360.56 49.7
-3 2 -8 404.56 37.1
-4 2 -8 281.27 28.6
-4 2 -8 266.77 39.9
4 -2 8 329.07 49.5
-5 2 -8 603.54 56.89
-5 2 -8 608.24 70.89
6 1 -8 426.86 52.09
6 1 -8 612.34 76.09
-6 -1 8 664.83 64.49
5 1 -8 297.37 30.7
4 1 -8 685.13 70.39
4 1 -8 946.61 94.09
3 1 -8 688.73 77.69
3 1 -8 607.24 58.59
2 1 -8 306.97 29.4
2 1 -8 286.07 42.7
1 1 -8 3791.52 308.97
1 1 -8 3186.78 324.87
0 1 -8 3.6 6.4
0 1 -8 19.2 4.2
0 -1 8 22.7 20.6
-1 1 -8 1644.34 187.08
-1 1 -8 2226.08 174.48
-2 1 -8 1568.44 146.79
2 -1 8 1779.42 178.38
-3 1 -8 529.35 67.79
-3 1 -8 663.83 56.99
-4 1 -8 394.56 37.6
-4 1 -8 368.26 48.5
-5 1 -8 131.19 15.1
-5 1 -8 107.79 25
6 0 -8 15.9 10.1
6 0 -8 12.3 8.5
-6 0 8 51.19 30.3
-6 0 8 24.9 11.6
5 0 -8 448.96 49.2
5 0 -8 635.84 71.19
4 0 -8 743.43 75.89
4 0 -8 968.3 97.19
3 0 -8 1157.88 117.59
3 0 -8 1058.99 99.79
2 0 -8 2056.99 178.88
2 0 -8 1949.01 194.68
1 0 -8 198.28 19.4
1 0 -8 150.48 28.1
0 0 -8 788.42 63.19
0 0 -8 537.65 72.69
-1 0 -8 147.49 27.5
-1 0 -8 215.08 21.2
1 0 8 264.37 46.4
-2 0 -8 1450.95 131.49
2 0 8 1494.05 164.58
-3 0 -8 160.88 28.7
-3 0 -8 233.58 22.3
3 0 8 219.28 46.8
-4 0 -8 131.09 21.9
-4 0 -8 111.99 14.4
4 0 8 112.59 39.1
6 -1 -8 302.27 46.8
-6 1 8 251.27 36.4
-6 1 8 341.17 67.59
5 -1 -8 1033.7 116.99
-5 1 8 1262.57 149.69
-5 1 8 1016.2 105.99
4 -1 -8 94.79 24.6
4 -1 -8 57.19 11.6
-4 1 8 100.59 41.1
3 -1 -8 487.95 59.59
3 -1 -8 473.85 46.8
2 -1 -8 -0.8 6.4
2 -1 -8 5.3 3.1
-2 1 8 -4.6 13.1
1 -1 -8 1725.33 186.78
1 -1 -8 1945.11 175.88
-1 1 8 2364.06 225.08
0 -1 -8 65.29 19.2
0 -1 -8 68.79 10.6
0 1 8 65.29 30.6
-1 -1 -8 1180.28 100.39
-1 -1 -8 986.2 109.09
1 1 8 1135.19 136.69
-2 -1 -8 1771.42 191.08
-2 -1 -8 2232.28 182.98
2 1 8 2147.29 223.18
-3 -1 -8 66.99 17
-3 -1 -8 91.09 11.3
3 1 8 45.6 24
-4 -1 -8 817.52 73.19
-4 -1 -8 731.03 81.19
6 -2 -8 426.76 55.29
6 -2 -8 296.47 37.6
-6 2 8 378.56 73.89
-6 2 8 349.96 42.7
5 -2 -8 33.8 9.8
-5 2 8 74.59 38.4
-5 2 8 49.2 14.1
4 -2 -8 1067.69 113.79
4 -2 -8 1328.47 128.59
-4 2 8 1315.67 162.68
-4 2 8 1291.97 118.59
3 -2 -8 225.58 34.5
3 -2 -8 250.17 26.1
-3 2 8 187.28 55.19
2 -2 -8 3055.39 289.77
2 -2 -8 3208.68 300.27
-2 2 8 3673.23 345.37
1 -2 -8 45.4 13
1 -2 -8 43.5 8.6
-1 2 8 46.8 26.2
0 -2 -8 717.43 66.09
0 -2 -8 667.23 72.49
0 2 8 736.03 104.69
-1 -2 -8 1412.86 135.49
-1 -2 -8 1461.55 128.89
1 2 8 1371.16 169.98
-2 -2 -8 360.66 44.7
-2 -2 -8 404.76 38.2
2 2 8 337.77 67.19
-3 -2 -8 476.35 45.6
3 2 8 418.46 82.89
-6 3 8 270.67 63.29
5 -3 -8 2184.58 192.58
5 -3 -8 1602.84 176.48
-5 3 8 2054.49 233.78
-5 3 8 2013.7 180.48
4 -3 -8 10.9 10.6
4 -3 -8 2.9 3.6
-4 3 8 -1.3 4.2
-4 3 8 -7.6 13
3 -3 -8 1105.69 113.99
3 -3 -8 1490.75 124.69
-3 3 8 1272.97 164.28
-3 3 8 1165.58 114.99
2 -3 -8 309.57 34.8
2 -3 -8 361.46 40.5
-2 3 8 361.76 71.09
1 -3 -8 1135.99 108.39
1 -3 -8 1285.37 111.69
-1 3 8 1068.59 150.38
0 -3 -8 254.87 27.9
0 3 8 268.57 58.19
-1 -3 -8 392.86 37.4
1 3 8 294.67 67.59
-2 -3 -8 1418.46 118.29
2 3 8 1070.89 161.78
5 -4 -8 15.9 7
-5 4 8 27.9 27.4
-5 4 8 30.6 9
4 -4 -8 476.65 48.1
-4 4 8 497.95 89.69
-4 4 8 437.16 47.2
3 -4 -8 14 5.3
-3 4 8 14.7 9.9
-3 4 8 -7.2 17.9
2 -4 -8 1129.19 101.99
-2 4 8 1023.2 149.88
1 -4 -8 25.4 7
-1 4 8 13.7 23.7
0 -4 -8 158.48 18.9
0 4 8 111.09 50.69
-1 7 -9 19.6 14.8
1 -7 9 50.79 26.1
-2 -6 9 6.7 16.8
0 -6 9 37.4 24.3
-4 6 -9 1240.08 103.39
-4 6 -9 1002.9 127.39
-5 6 -9 1.9 6.8
-5 6 -9 11.1 3.8
1 5 -9 27.9 13.6
-1 -5 9 65.89 34.6
-3 5 -9 807.12 103.69
-3 5 -9 972.2 82.09
-4 5 -9 -2.5 8.4
-4 5 -9 1.2 2.7
4 -5 9 1.2 13.8
-5 5 -9 117.79 32.1
-5 5 -9 137.49 15
4 4 -9 275.97 47
-2 -4 9 146.09 48.8
-1 4 -9 289.97 44.8
-1 4 -9 239.28 22.1
-2 4 -9 665.73 94.69
-2 4 -9 944.61 76.19
-3 4 -9 63.29 18.5
-3 4 -9 117.69 11.3
-4 4 -9 675.83 85.59
-4 4 -9 762.02 66.89
-5 4 -9 23.6 6.4
-5 4 -9 27.5 13
-4 -3 9 2788.62 299.47
-3 -3 9 91.59 37.8
-2 -3 9 420.86 77.09
1 3 -9 9 2.1
1 3 -9 15.1 10.3
-1 -3 9 27.7 20.8
0 3 -9 551.04 48.4
0 3 -9 501.15 68.09
-1 3 -9 529.35 45.6
-1 3 -9 424.16 62.19
-2 3 -9 56.79 7.6
-2 3 -9 53.29 17.6
2 -3 9 96.09 32.4
-3 3 -9 506.65 72.09
-3 3 -9 679.03 57.09
-4 3 -9 149.79 16.9
-4 3 -9 114.19 30.7
4 -3 9 223.48 39.7
-5 3 -9 98.39 12
-5 3 -9 94.89 27.3
5 2 -9 287.77 48.7
4 2 -9 0.1 4.1
4 2 -9 10 11.3
-4 -2 9 18.2 18.8
3 2 -9 309.27 45.2
3 2 -9 239.58 24.8
2 2 -9 400.96 52.69
2 2 -9 316.67 31.6
1 2 -9 968.4 110.79
1 2 -9 1037.9 90.69
0 2 -9 1077.29 127.79
0 2 -9 1328.67 110.19
-1 2 -9 2.6 2.7
-1 2 -9 6.6 9.1
1 -2 9 6.8 16.2
-2 2 -9 1419.96 165.58
-2 2 -9 1880.41 150.18
-3 2 -9 94.79 25.6
-3 2 -9 120.89 13.7
3 -2 9 123.49 36.5
-4 2 -9 694.83 58.29
-4 2 -9 506.85 70.29
-5 2 -9 450.25 44.1
-5 2 -9 466.85 58.29
5 1 -9 10.7 5.5
5 1 -9 10.9 8.2
-5 -1 9 8.5 14.8
4 1 -9 1253.07 113.49
3 1 -9 70.89 9.8
3 1 -9 73.49 19.7
-3 -1 9 156.18 50.29
2 1 -9 330.97 48.1
2 1 -9 315.27 31.3
1 1 -9 624.64 57.29
1 1 -9 605.84 74.09
0 1 -9 188.58 35.5
0 1 -9 236.58 23.8
0 -1 9 324.67 59.29
-1 1 -9 1120.79 90.89
-1 1 -9 825.02 104.19
-2 1 -9 31.7 12.7
-2 1 -9 49.8 8.1
2 -1 9 43.4 25.3
-3 1 -9 343.67 34.1
3 -1 9 352.56 61.29
-4 1 -9 225.08 24.5
-4 1 -9 236.88 33.1
4 -1 9 267.37 51.79
5 0 -9 529.35 52.09
4 0 -9 91.89 25.8
4 0 -9 63.19 11.3
-4 0 9 116.29 46.6
3 0 -9 139.49 17
3 0 -9 160.78 34.1
2 0 -9 753.32 85.79
2 0 -9 731.93 68.79
1 0 -9 284.67 42.2
1 0 -9 313.07 30.8
0 0 -9 587.04 74.29
0 0 -9 645.54 60.89
0 0 9 779.52 104.49
-1 0 -9 68.69 9.2
-1 0 -9 43.1 17.1
1 0 9 50.19 27.9
-2 0 -9 540.95 70.09
-2 0 -9 683.53 59.49
2 0 9 654.63 95.29
-3 0 -9 136.69 21.1
-3 0 -9 133.79 16.1
3 0 9 132.09 42.9
5 -1 -9 88.99 26.5
5 -1 -9 37 9.7
-5 1 9 100.79 44.1
-5 1 9 49.9 14.7
4 -1 -9 587.44 67.69
4 -1 -9 440.96 48.2
3 -1 -9 48.8 9.5
3 -1 -9 59.09 19.1
-3 1 9 99.69 41.5
2 -1 -9 6.4 3.4
2 -1 -9 13.7 9.8
-2 1 9 16 18.8
1 -1 -9 269.77 41
1 -1 -9 328.47 31.5
-1 1 9 300.67 62.19
0 -1 -9 -6.4 8.9
0 -1 -9 -0.1 2.9
0 1 9 16.6 22.3
-1 -1 -9 616.14 76.89
-1 -1 -9 798.32 68.29
1 1 9 755.92 107.49
-2 -1 -9 393.16 37.7
2 1 9 335.27 68.59
-3 -1 -9 43.3 9.1
-3 -1 -9 55.39 20.7
5 -2 -9 554.64 72.19
-5 2 9 581.94 62.49
-5 2 9 556.14 98.19
4 -2 -9 333.37 46.8
4 -2 -9 260.47 33.8
-4 2 9 349.87 39.2
-4 2 9 385.96 76.29
3 -2 -9 16.1 5
3 -2 -9 -8.5 9.8
-3 2 9 15.8 18.4
2 -2 -9 1475.45 143.99
2 -2 -9 1623.74 155.98
-2 2 9 1751.32 203.08
1 -2 -9 -0.7 3.3
1 -2 -9 -11.3 8.1
-1 2 9 -1.2 18.3
0 -2 -9 836.52 77.29
0 2 9 795.82 119.79
-1 -2 -9 637.34 62.29
1 2 9 681.63 103.59
-2 -2 -9 154.98 19.4
2 2 9 191.88 58.69
4 -3 -9 403.06 49.5
4 -3 -9 597.14 62.79
-4 3 9 512.35 94.99
-4 3 9 500.85 52.59
3 -3 -9 412.46 47.8
3 -3 -9 307.57 37.9
-3 3 9 360.86 77.09
-3 3 9 380.16 40.6
2 -3 -9 44.5 9.6
-2 3 9 52.49 11.2
1 -3 -9 119.59 16.1
-1 3 9 108.39 44.7
0 -3 -9 78.59 13
0 3 9 59.29 30.4
-1 -6 10 902.41 127.19
0 -6 10 181.48 57.29
-2 6 -10 28.5 14.9
2 -6 10 73.19 36.5
1 5 -10 1.2 9.3
-1 -5 10 -21.9 19.1
1 -5 10 429.46 75.79
-4 5 -10 200.08 19.6
-4 5 -10 153.28 38.5
3 4 -10 367.36 57.79
2 4 -10 -10 11.9
-2 -4 10 19 28.2
-1 4 -10 40.6 17.1
1 -4 10 84.09 37.1
-2 4 -10 88.59 9.7
-2 4 -10 52.89 20.9
2 -4 10 142.49 42.6
-3 4 -10 140.09 36.5
-3 4 -10 166.88 17.8
3 -4 10 239.78 50.09
-4 4 -10 134.49 14.7
-4 4 -10 74.19 26.4
4 -4 10 234.58 47
3 3 -10 10.9 11.3
-3 -3 10 10.9 23.2
1 3 -10 142.39 34.9
0 3 -10 58.59 22.8
0 3 -10 66.69 7.9
0 -3 10 135.79 46.3
-1 3 -10 76.59 26.1
-1 3 -10 125.39 12.8
2 -3 10 808.32 111.59
-3 3 -10 392.46 63.29
-3 3 -10 586.14 48.8
-4 3 -10 11.2 3.6
4 -3 10 21.8 21.3
4 2 -10 149.39 36.9
3 2 -10 213.88 37.8
2 2 -10 60.59 20.5
2 2 -10 33.3 6.5
-2 -2 10 107.59 47.1
1 2 -10 365.76 35
1 2 -10 386.26 54.79
0 2 -10 615.84 82.29
0 2 -10 740.93 64.19
-1 2 -10 8.5 3.1
-1 2 -10 10.8 8.9
1 -2 10 -17 12.9
-2 2 -10 528.05 65.99
-3 2 -10 7.4 3.5
-3 2 -10 5.4 9.8
3 -2 10 11.6 20.1
4 1 -10 1594.24 169.08
3 1 -10 1.7 9.1
3 1 -10 13.6 3.7
-3 -1 10 41.3 32
2 1 -10 980.5 107.59
2 1 -10 908.21 84.99
1 1 -10 517.05 71.59
1 1 -10 633.44 55.69
0 1 -10 -4.2 3.4
0 1 -10 12.1 9.8
0 -1 10 8.8 21.4
-1 1 -10 305.97 29.8
-1 1 -10 222.38 38.9
1 -1 10 407.96 70.59
-2 1 -10 47.9 19.1
2 -1 10 62.99 31.2
-3 1 -10 251.37 41
-3 1 -10 295.77 29.1
4 0 -10 29.9 7
4 0 -10 39.8 22.1
-4 0 10 44.1 31.2
3 0 -10 101.89 13.3
3 0 -10 143.89 34.6
-3 0 10 159.98 55.89
2 0 -10 110.79 15.1
2 0 -10 134.09 31.1
-2 0 10 193.58 64.49
1 0 -10 17.5 14.8
1 0 -10 16.6 5.2
-1 0 10 7.3 17.5
0 0 -10 233.78 36.3
0 0 -10 225.98 25.3
0 0 10 338.47 66.69
-1 0 -10 20.4 13.4
-1 0 -10 28.5 6.6
1 0 10 13.8 25.4
-2 0 -10 166.88 28.7
-2 0 -10 154.08 18.2
2 0 10 136.99 54.29
-4 1 10 950.2 145.19
3 -1 -10 114.99 16.3
-3 1 10 133.79 50.49
2 -1 -10 398.36 59.19
2 -1 -10 453.85 45.8
-2 1 10 592.24 99.39
1 -1 -10 501.45 54.19
1 -1 -10 572.84 67.59
-1 1 10 729.13 109.29
0 -1 -10 57.39 10
0 -1 -10 50.49 19.3
0 1 10 38.4 26.6
-1 -1 -10 377.26 38.9
-1 -1 -10 393.46 50.89
1 1 10 393.36 77.99
2 -2 -10 678.83 75.89
2 -2 -10 606.04 64.29
-2 2 10 825.22 125.99
1 -2 -10 7.3 5
-1 2 10 -3.3 18.6
1 4 -11 247.18 53.29
0 4 -11 133.69 34
1 -4 11 406.06 78.79
2 -4 11 248.48 53.99
1 3 -11 6.9 12
-1 -3 11 1.3 23.8
0 3 -11 273.67 45.1
-1 3 -11 -9.2 11
1 -3 11 11.6 24.2
-2 3 -11 56.39 17.1
2 -3 11 42.4 20.9
-2 -2 11 75.29 41.4
1 2 -11 582.44 76.29
0 2 -11 22.7 12.8
0 2 -11 3.9 3.7
0 -2 11 12.4 19.7
-1 2 -11 238.68 45.7
-1 2 -11 381.56 33.1
2 1 -11 349.96 36.8
2 1 -11 451.45 58.59
1 1 -11 118.09 13.9
1 1 -11 96.09 28.8
-1 -1 11 175.38 59.49
0 1 -11 266.37 28.2
0 1 -11 238.08 41.2
0 -1 11 386.26 74.39
