#------------------------------------------------------------------------------
#$Date: 2021-09-06 13:28:29 +0300 (Mon, 06 Sep 2021) $
#$Revision: 268669 $
#$URL: file:///home/coder/svn-repositories/cod/cif/7/24/30/7243075.cif $
#------------------------------------------------------------------------------
#
# This file is available in the Crystallography Open Database (COD),
# http://www.crystallography.net/
#
# All data on this site have been placed in the public domain by the
# contributors.
#
data_7243075
loop_
_publ_author_name
'Liu, Yifei'
'Dong, Zhen'
'Yang, Rui'
'Li, Haiyan'
'Liu, Yaxin'
'Ye, Zhiwen'
_publ_section_title
;
 Imino-bridged N-rich energetic materials: C4H3N17 and their derivatives
 assembled from the powerful combination of four tetrazoles
;
_journal_issue                   31
_journal_name_full               CrystEngComm
_journal_page_first              5377
_journal_page_last               5384
_journal_paper_doi               10.1039/D1CE00674F
_journal_volume                  23
_journal_year                    2021
_chemical_formula_moiety         'C4 N17 Na, H2 O, 2(H4 N)'
_chemical_formula_sum            'C4 H10 N19 Na O'
_chemical_formula_weight         363.30
_space_group_crystal_system      triclinic
_space_group_IT_number           2
_space_group_name_Hall           '-P 1'
_space_group_name_H-M_alt        'P -1'
_atom_sites_solution_hydrogens   difmap
_audit_creation_method           SHELXL-2018/3
_audit_update_record
;
2020-12-22 deposited with the CCDC.	2021-06-16 downloaded from the CCDC.
;
_cell_angle_alpha                81.051(3)
_cell_angle_beta                 81.699(3)
_cell_angle_gamma                60.468(3)
_cell_formula_units_Z            2
_cell_length_a                   9.5686(11)
_cell_length_b                   9.5808(10)
_cell_length_c                   9.5851(11)
_cell_measurement_reflns_used    4548
_cell_measurement_temperature    296(2)
_cell_measurement_theta_max      27.30
_cell_measurement_theta_min      2.45
_cell_volume                     752.90(15)
_computing_cell_refinement       'Bruker SAINT'
_computing_data_collection       'Bruker APEX3'
_computing_data_reduction        'Bruker SAINT'
_computing_molecular_graphics    'Bruker SHELXTL'
_computing_publication_material  'Bruker SHELXTL'
_computing_structure_refinement  'SHELXL-2018/3 (Sheldrick, 2018)'
_computing_structure_solution    'SHELXT 2014/5 (Sheldrick, 2014)'
_diffrn_ambient_temperature      296(2)
_diffrn_detector_area_resol_mean 10.42
_diffrn_measured_fraction_theta_full 0.975
_diffrn_measured_fraction_theta_max 0.979
_diffrn_measurement_device_type  'Bruker D8 QUEST PHOTON 100'
_diffrn_measurement_method       '\f and \w scans'
_diffrn_radiation_type           MoK\a
_diffrn_radiation_wavelength     0.71073
_diffrn_reflns_av_R_equivalents  0.0363
_diffrn_reflns_av_unetI/netI     0.0447
_diffrn_reflns_Laue_measured_fraction_full 0.975
_diffrn_reflns_Laue_measured_fraction_max 0.979
_diffrn_reflns_limit_h_max       12
_diffrn_reflns_limit_h_min       -12
_diffrn_reflns_limit_k_max       12
_diffrn_reflns_limit_k_min       -12
_diffrn_reflns_limit_l_max       12
_diffrn_reflns_limit_l_min       -12
_diffrn_reflns_number            9792
_diffrn_reflns_point_group_measured_fraction_full 0.975
_diffrn_reflns_point_group_measured_fraction_max 0.979
_diffrn_reflns_theta_full        25.242
_diffrn_reflns_theta_max         27.512
_diffrn_reflns_theta_min         2.454
_diffrn_source.source            'Ius 2.0'
_diffrn_source.type              microfocus
_exptl_absorpt_coefficient_mu    0.152
_exptl_absorpt_correction_T_max  0.7456
_exptl_absorpt_correction_T_min  0.6868
_exptl_absorpt_correction_type   multi-scan
_exptl_absorpt_process_details   sadabs
_exptl_crystal_colour            colourless
_exptl_crystal_density_diffrn    1.603
_exptl_crystal_description       block
_exptl_crystal_F_000             372
_exptl_crystal_size_max          0.120
_exptl_crystal_size_mid          0.100
_exptl_crystal_size_min          0.090
_refine_diff_density_max         0.290
_refine_diff_density_min         -0.266
_refine_diff_density_rms         0.051
_refine_ls_extinction_method     none
_refine_ls_goodness_of_fit_ref   1.048
_refine_ls_hydrogen_treatment    mixed
_refine_ls_matrix_type           full
_refine_ls_number_parameters     260
_refine_ls_number_reflns         3401
_refine_ls_number_restraints     48
_refine_ls_restrained_S_all      1.048
_refine_ls_R_factor_all          0.0683
_refine_ls_R_factor_gt           0.0443
_refine_ls_shift/su_max          0.000
_refine_ls_shift/su_mean         0.000
_refine_ls_structure_factor_coef Fsqd
_refine_ls_weighting_details
'w=1/[\s^2^(Fo^2^)+(0.0594P)^2^+0.1895P] where P=(Fo^2^+2Fc^2^)/3'
_refine_ls_weighting_scheme      calc
_refine_ls_wR_factor_gt          0.1108
_refine_ls_wR_factor_ref         0.1230
_reflns_Friedel_coverage         0.000
_reflns_number_gt                2459
_reflns_number_total             3401
_reflns_threshold_expression     'I > 2\s(I)'
_cod_data_source_file            d1ce00674f2.cif
_cod_data_source_block           LYF201221_2_a
_cod_depositor_comments
'Adding full bibliography for 7243073--7243078.cif.'
_cod_database_code               7243075
_shelx_shelxl_version_number     2018/3
_shelx_space_group_comment
;
The symmetry employed for this shelxl refinement is uniquely defined
by the following loop, which should always be used as a source of
symmetry information in preference to the above space-group names.
They are only intended as comments.
;
_shelx_estimated_absorpt_t_min   0.982
_shelx_estimated_absorpt_t_max   0.986
_shelx_res_file
;
TITL LYF201221_2_a.res in P-1
    LYF201221_2_a.res
    created by SHELXL-2018/3 at 23:53:11 on 21-Dec-2020
CELL 0.71073 9.5686 9.5808 9.5851 81.051 81.699 60.468
ZERR 2 0.0011 0.001 0.0011 0.003 0.003 0.003
LATT 1
SFAC C  H  N  Na O
UNIT 8  20  38  2  2
L.S. 10
omit 0   0   1
omit  -2  -4   1
omit 1   2   0
omit  -1   1   0
omit  2   0   1
ACTA
BOND $H
FMAP 2
PLAN -10
SADI H19a H19b H19a H19c H19a H19d H19b H19c H19c H19d H19d H19b
SADI N19 H19a N19 H19b N19 H19c N19 H19d
SADI H18a H18b H18a H18c H18a H18d H18b H18c H18c H18d H18d H18b
SADI N18 H18a N18 H18b N18 H18c N18 H18d
SIZE 0.12 0.1 0.09
DELU O1A O1B
SIMU 0.01 0.02 2 O1A O1B
TEMP 23
EQIV $3 x+1, y, z
HTAB N18 N7_$3
EQIV $4 x+1, y-1, z
HTAB N18 N3_$4
EQIV $1 -x+1, -y+1, -z+1
HTAB N18 N2_$1
HTAB N18 N10_$1
EQIV $5 x, y, z+1
HTAB N18 N15_$5
HTAB N19 O1A
HTAB N19 O1B
HTAB N19 N12_$5
HTAB N19 N14_$5
HTAB N19 N1_$1
HTAB N19 N4_$3
HTAB N19 N6_$3
HTAB O1A N19
EQIV $6 x, y+1, z
HTAB O1B N18_$6
EQIV $7 -x+1, -y+2, -z+1
HTAB O1B N11_$7
WGHT    0.059400    0.189500
FVAR       1.15573   0.25398
C1    1    0.274637    0.565960    0.489618    11.00000    0.01980    0.02282 =
         0.02637   -0.00342    0.00119   -0.00880
C2    1    0.195567    0.348010    0.568861    11.00000    0.02314    0.02531 =
         0.02860   -0.00140    0.00151   -0.01141
C3    1    0.451152    0.576718    0.304600    11.00000    0.02369    0.02696 =
         0.02364   -0.00396    0.00207   -0.00970
C4    1    0.632365    0.365849    0.136369    11.00000    0.02707    0.02969 =
         0.02318   -0.00584    0.00296   -0.00909
N1    3    0.384703    0.493120    0.384144    11.00000    0.02583    0.02484 =
         0.02811   -0.00744    0.00754   -0.01175
N2    3    0.221446    0.709288    0.538068    11.00000    0.02695    0.02649 =
         0.03416   -0.00986    0.00854   -0.01148
N3    3    0.108430    0.721154    0.646126    11.00000    0.02975    0.02781 =
         0.04098   -0.01196    0.01319   -0.01247
N4    3    0.089293    0.596171    0.668632    11.00000    0.02749    0.03054 =
         0.03660   -0.01291    0.01316   -0.01034
N5    3    0.194332    0.493918    0.572041    11.00000    0.02334    0.02460 =
         0.02968   -0.00877    0.00878   -0.01017
N6    3    0.078871    0.321375    0.636963    11.00000    0.03167    0.03379 =
         0.04785   -0.00603    0.01014   -0.01775
N7    3    0.126101    0.169432    0.611210    11.00000    0.03664    0.03370 =
         0.05711   -0.00173    0.00546   -0.02043
N8    3    0.261742    0.112066    0.532647    11.00000    0.03526    0.02798 =
         0.05537   -0.00583    0.00514   -0.01650
N9    3    0.310309    0.225265    0.503344    11.00000    0.03017    0.02448 =
         0.05029   -0.01087    0.00937   -0.01337
N10   3    0.430982    0.724352    0.311861    11.00000    0.03649    0.02896 =
         0.03127   -0.00356    0.00644   -0.01687
N11   3    0.527015    0.749967    0.202869    11.00000    0.04509    0.03492 =
         0.03614   -0.00397    0.01039   -0.02255
N12   3    0.605820    0.627941    0.130675    11.00000    0.04201    0.03779 =
         0.03463   -0.00222    0.01041   -0.02256
N13   3    0.562386    0.515148    0.192935    11.00000    0.02911    0.02886 =
         0.02618   -0.00457    0.00668   -0.01359
N14   3    0.726263    0.339986    0.017260    11.00000    0.04233    0.04413 =
         0.03334   -0.01243    0.01440   -0.01792
N15   3    0.771566    0.185378    0.001880    11.00000    0.05073    0.04556 =
         0.03987   -0.01857    0.01372   -0.01611
N16   3    0.706480    0.126377    0.105872    11.00000    0.05818    0.03802 =
         0.03715   -0.01485    0.01051   -0.01724
N17   3    0.615344    0.241561    0.195085    11.00000    0.05386    0.03376 =
         0.03240   -0.01363    0.01234   -0.01788
N18   3    0.920387    0.040579    0.741084    11.00000    0.03391    0.02869 =
         0.04163   -0.01108    0.01122   -0.01290
H18A  2    0.990661    0.076615    0.703542    11.00000   -1.50000
H18B  2    0.964453   -0.065948    0.742736    11.00000   -1.50000
H18C  2    0.836025    0.088865    0.687696    11.00000   -1.50000
H18D  2    0.887004    0.069748    0.829933    11.00000   -1.50000
N19   3    0.784877    0.586652    0.824402    11.00000    0.04864    0.06549 =
         0.04016   -0.01153    0.01294   -0.03456
H19A  2    0.760159    0.682971    0.857570    11.00000   -1.50000
H19B  2    0.777176    0.513383    0.897692    11.00000   -1.50000
H19C  2    0.714602    0.605662    0.756662    11.00000   -1.50000
H19D  2    0.889762    0.540109    0.782965    11.00000   -1.50000
NA1   4    0.583802    0.182340    0.450884    11.00000    0.02897    0.02765 =
         0.03444   -0.00725    0.00602   -0.01270
PART 1
O1A   5    0.856909    0.783536    0.992763    21.00000    0.14228    0.09444 =
         0.10128   -0.01847   -0.00093   -0.07584
AFIX   3
H1AA  2    0.910099    0.718726    0.930014    21.00000   -1.50000
H1AB  2    0.881789    0.725036    1.071003    21.00000   -1.50000
PART 2
AFIX   0
O1B   5    0.695919    0.897009    0.911916   -21.00000    0.11272    0.06165 =
         0.09906   -0.01378    0.01506   -0.05057
AFIX   3
H1BB  2    0.782018    0.900059    0.918426   -21.00000   -1.50000
H1BA  2    0.641989    0.969529    0.848656   -21.00000   -1.50000
PART  0
AFIX   0
HKLF 4




REM  LYF201221_2_a.res in P-1
REM wR2 = 0.1230, GooF = S = 1.048, Restrained GooF = 1.048 for all data
REM R1 = 0.0443 for 2459 Fo > 4sig(Fo) and 0.0683 for all 3401 data
REM 260 parameters refined using 48 restraints

END

WGHT      0.0611      0.1777

REM Highest difference peak  0.290,  deepest hole -0.266,  1-sigma level  0.051
Q1    1   0.4251  0.0874  0.1654  11.00000  0.05    0.29
Q2    1   0.9300 -0.3239  0.0222  11.00000  0.05    0.27
Q3    1   0.6806 -0.0691  0.0257  11.00000  0.05    0.22
Q4    1   0.5323  0.8385  0.1905  11.00000  0.05    0.22
Q5    1   0.7066 -0.1324  0.0324  11.00000  0.05    0.21
Q6    1   0.6949  0.0357  0.1084  11.00000  0.05    0.21
Q7    1   0.3325  0.0940  0.2096  11.00000  0.05    0.21
Q8    1   0.5244  0.0238  0.0799  11.00000  0.05    0.19
Q9    1   0.1645  0.4476  0.5460  11.00000  0.05    0.19
Q10   1   0.1624  0.3180  0.6350  11.00000  0.05    0.19
;
_shelx_res_checksum              29742
_shelx_hkl_file
;
  -1   0   0 2398.06   90.99
   1   0   0 2154.68   90.99
  -2   0   0 1936.71   80.29
  -2   0   0 2047.70   79.79
  -2   0   0 1978.10   79.79
   2   0   0 1981.90   79.79
   2   0   0 1986.70   79.79
   2   0   0 2041.90   80.19
  -3   0   0   97.99    4.70
  -3   0   0  101.89    4.60
  -3   0   0   95.89    5.40
   3   0   0  101.39    4.70
   3   0   0   98.19    6.20
   3   0   0   97.09    4.50
  -4   0   0  168.28    7.80
  -4   0   0  161.48    8.70
  -4   0   0  182.08    7.80
   4   0   0  176.48    7.60
   4   0   0  172.18    8.90
   4   0   0  168.28    7.70
  -5   0   0   45.20    3.60
  -5   0   0   38.80    5.10
   5   0   0   54.49    3.10
   5   0   0   47.80    3.60
   5   0   0   49.20    6.10
  -6   0   0 1907.01   76.09
  -6   0   0 1840.92   77.59
   6   0   0 1936.91   75.89
   6   0   0 1800.52   75.99
   6   0   0 1939.51   76.09
   6   0   0 1851.61   77.39
  -7   0   0    7.40    2.40
   7   0   0    8.10    2.00
   7   0   0    6.50    2.70
   7   0   0    8.80    2.80
  -8   0   0   46.70    5.40
   8   0   0   41.80    4.50
   8   0   0   31.30    4.60
   9   0   0    6.90    3.00
   9   0   0    1.80    8.30
   9   0   0   -7.10    6.50
 -10   0   0   87.79    9.00
  10   0   0   74.79    7.50
  10  -1   0   19.70    5.00
  10  -1   0   28.00   13.00
 -10   1   0   21.20    5.90
   8  -1   0   -3.10    2.70
  -8   1   0    1.20    3.10
  -8   1   0  -12.70    6.00
   7  -1   0  427.86   18.20
   7  -1   0  385.96   18.50
   7  -1   0  411.06   18.60
  -7   1   0  439.26   18.40
  -7   1   0  407.96   21.60
   6  -1   0    9.70    6.70
   6  -1   0    0.20    1.60
   6  -1   0    2.40    2.20
  -6   1   0    0.00    2.00
  -6   1   0    7.00    4.00
  -6   1   0   -3.00    2.20
   5  -1   0 1157.38   46.50
   5  -1   0 1141.49   47.80
   5  -1   0 1117.49   46.40
  -5   1   0 1128.69   46.50
  -5   1   0 1092.59   47.90
  -5   1   0 1200.58   46.80
   4  -1   0  403.96   17.20
   4  -1   0  411.26   18.40
   4  -1   0  410.16   17.20
  -4   1   0  435.96   17.50
  -4   1   0  401.56   17.20
  -4   1   0  390.36   18.40
   3  -1   0   -0.50    2.00
   3  -1   0    0.60    1.00
   3  -1   0    1.50    0.80
  -3   1   0    0.50    1.00
  -3   1   0    0.80    1.60
   2  -1   0  841.32   34.10
   2  -1   0  872.41   34.70
  -2   1   0  812.52   34.10
  -2   1   0  826.02   34.70
  -2   1   0  874.81   34.30
   1  -1   0    3.50    1.00
   1  -1   0    3.10    0.50
   1  -1   0    3.00    0.60
  -1   1   0    2.60    0.50
  -1   1   0    3.30    0.60
  -1   1   0    2.60    0.90
   0  -1   0 3636.74  145.19
   1   1   0 2845.82  113.69
  -2  -1   0 1268.67   52.09
  -2  -1   0 1303.37   52.49
   2   1   0 1326.07   52.09
   2   1   0 1297.97   52.49
  -3  -1   0 1825.12   76.19
   3   1   0 1951.10   76.19
   3   1   0 1894.81   75.99
   3   1   0 1910.81   76.79
   3   1   0 1859.11   76.79
   3   1   0 1959.20   75.99
  -4  -1   0  125.39    6.00
   4   1   0  137.29    6.10
   4   1   0  128.49    7.20
   4   1   0  131.39    5.70
   4   1   0  114.49    7.10
   4   1   0  135.69    5.90
  -5  -1   0   92.99    5.00
   5   1   0   96.99    4.90
   5   1   0   90.19    6.70
   5   1   0   94.89    5.10
   5   1   0   98.49    4.60
   5   1   0   91.49    6.70
  -6  -1   0  103.49    5.80
   6   1   0  108.49    8.30
   6   1   0  104.89    5.10
   6   1   0   94.69    8.00
   6   1   0   99.09    5.70
   6   1   0  101.89    5.60
  -7  -1   0   63.89    5.00
   7   1   0   57.89    5.10
   7   1   0   73.39    8.70
   7   1   0   65.39    3.90
   7   1   0   63.29    5.00
  -8  -1   0   53.69    5.20
   8   1   0   39.90    4.40
   8   1   0   50.59   12.00
   8   1   0   47.10    4.10
   9   1   0   11.70    3.00
   9   1   0   20.10    7.70
   9   1   0   16.80    4.50
 -10  -1   0    3.20    3.90
  10   1   0   -2.20    3.20
  10   1   0   -2.00    9.00
 -11  -1   0   93.89   10.80
  11   1   0  112.09   14.80
   9  -2   0   18.00    4.50
  -9   2   0    4.80    9.20
   8  -2   0    8.40    3.60
  -8   2   0   18.20    3.90
  -8   2   0   10.40    7.60
   7  -2   0   21.90    3.60
   7  -2   0   15.50    4.20
  -7   2   0   31.70    3.80
   6  -2   0  134.89    8.20
   6  -2   0  164.58    8.20
  -6   2   0  151.68   11.50
  -6   2   0  152.18    8.90
  -6   2   0  162.78    8.20
   5  -2   0    0.60    4.40
   5  -2   0    3.70    1.60
   5  -2   0    1.20    2.10
  -5   2   0    6.50    3.60
  -5   2   0    1.20    2.00
  -5   2   0    1.00    1.70
   4  -2   0  646.64   26.60
   4  -2   0  641.74   26.40
   4  -2   0  628.34   27.70
  -4   2   0  615.04   27.70
  -4   2   0  635.04   26.30
  -4   2   0  657.43   26.80
   3  -2   0   80.29    4.20
   3  -2   0   79.49    6.00
   3  -2   0   76.99    4.20
  -3   2   0   75.09    4.10
  -3   2   0   84.39    4.50
  -3   2   0   75.49    5.50
   2  -2   0    2.30    0.80
   2  -2   0    1.70    1.90
   2  -2   0    4.10    1.10
  -2   2   0    4.10    1.00
  -2   2   0    1.80    1.70
  -2   2   0    3.10    1.00
   1  -2   0  573.74   24.10
   1  -2   0  571.44   24.40
   1  -2   0  624.24   24.90
  -1   2   0  583.04   24.40
  -1   2   0  633.44   24.90
   0  -2   0 1816.32   70.79
   0  -2   0 1681.13   70.39
   0   2   0 1672.63   70.39
   0   2   0 1860.81   70.79
  -1  -2   0   30.50    2.30
  -1  -2   0   25.40    1.50
   1   2   0   25.90    1.60
   1   2   0   27.90    1.50
   1   2   0   31.00    2.20
  -2  -2   0    0.50    0.40
  -2  -2   0    0.50    0.50
  -2  -2   0    0.40    1.10
   2   2   0    1.00    0.50
   2   2   0    1.20    0.40
   2   2   0    1.20    1.00
  -3  -2   0  477.05   20.30
  -3  -2   0  494.95   21.00
   3   2   0  511.25   20.40
   3   2   0  497.55   21.00
  -4  -2   0  612.54   25.50
  -4  -2   0  618.14   26.40
   4   2   0  607.04   26.30
   4   2   0  646.74   25.60
  -5  -2   0   72.09    4.10
   5   2   0   66.49    5.50
   5   2   0   69.19    4.20
   5   2   0   74.79    5.80
  -6  -2   0 1226.58   49.99
   6   2   0 1218.58   51.19
   6   2   0 1213.08   49.99
   6   2   0 1240.78   51.39
  -7  -2   0    5.00    1.90
   7   2   0    3.80    4.10
   7   2   0    7.20    1.40
   7   2   0    5.70    2.20
   7   2   0    9.00    4.40
  -8  -2   0    3.90    2.40
   8   2   0   -2.20    2.80
   8   2   0    4.50    1.60
   8   2   0   -2.90    5.20
  -9  -2   0  466.65   22.50
   9   2   0  398.66   19.30
   9   2   0  463.05   24.10
   9   2   0  421.06   18.50
 -10  -2   0   -6.00    3.50
  10   2   0    2.60    8.00
 -11  -2   0   74.69    7.40
  11   2   0   68.69   12.30
   9  -3   0   -3.60    5.00
  -9   3   0  -10.40   10.70
   8  -3   0   15.80    4.40
  -8   3   0    4.80    4.40
  -8   3   0   10.30    8.90
   7  -3   0  402.86   18.60
   7  -3   0  367.56   19.10
  -7   3   0  428.86   22.70
  -7   3   0  406.96   18.20
   6  -3   0  155.88    9.60
   6  -3   0  171.78    9.30
  -6   3   0  183.18    9.20
  -6   3   0  188.08   18.60
   5  -3   0   99.59    6.50
   5  -3   0  104.19    6.30
  -5   3   0  109.99    9.10
  -5   3   0   96.09    7.10
  -5   3   0  104.89    6.10
   4  -3   0  447.26   22.20
   4  -3   0  479.65   20.30
   4  -3   0  479.15   20.70
  -4   3   0  490.25   20.90
  -4   3   0  498.95   22.10
  -4   3   0  489.65   20.20
   3  -3   0    2.60    1.80
   3  -3   0    1.90    3.20
   3  -3   0    2.30    1.30
  -3   3   0    0.00    1.30
  -3   3   0    0.40    2.50
  -3   3   0    2.20    1.70
   2  -3   0    8.60    2.70
   2  -3   0    8.80    1.60
   2  -3   0    8.20    1.40
  -2   3   0    5.20    2.20
  -2   3   0    7.40    1.30
  -2   3   0    7.10    1.50
   1  -3   0 2536.85  105.79
   1  -3   0 2680.03  106.39
  -1   3   0 2598.94  105.79
  -1   3   0 2732.03  106.39
   0  -3   0  635.04   25.60
   0   3   0  673.43   26.20
   0   3   0  559.24   26.00
  -1  -3   0  196.18    8.60
  -1  -3   0  207.88    9.50
   1   3   0  208.68    9.40
   1   3   0  199.48    8.70
   1   3   0  206.48    8.70
  -2  -3   0 1011.50   42.40
  -2  -3   0 1091.69   43.20
   2   3   0 1033.90   42.40
   2   3   0 1046.10   42.50
   2   3   0 1057.79   42.40
   2   3   0 1083.39   43.10
  -3  -3   0  233.58   10.10
  -3  -3   0  240.28   10.30
   3   3   0  242.38   11.10
   3   3   0  251.17   10.40
  -4  -3   0 1820.22   73.39
  -4  -3   0 1735.93   72.39
   4   3   0 1833.62   72.49
   4   3   0 1812.22   73.39
  -5  -3   0  303.37   15.00
  -5  -3   0  311.17   13.50
   5   3   0  323.67   13.60
   5   3   0  309.17   14.70
  -6  -3   0  697.43   28.50
   6   3   0  668.63   28.50
   6   3   0  687.33   29.90
  -7  -3   0   63.59    4.50
   7   3   0   58.09    4.80
   7   3   0   49.00    6.10
   7   3   0   56.09    7.10
  -8  -3   0   16.50    2.80
   8   3   0   14.50    4.90
  -9  -3   0   -0.80    4.00
   9   3   0   -3.90    5.80
 -10  -3   0  134.99    9.60
  10   3   0  164.18   15.50
 -11  -3   0   28.40    5.40
  11   3   0   36.60   10.10
   8  -4   0    8.60    5.20
  -8   4   0   15.90   10.50
   7  -4   0    0.50    4.00
  -7   4   0    5.90    7.80
  -7   4   0    4.00    3.70
   6  -4   0    0.80    4.40
   6  -4   0    7.90    3.30
  -6   4   0   13.70    6.70
  -6   4   0   -1.30    3.10
   5  -4   0  188.88   10.10
   5  -4   0  184.78   10.00
  -5   4   0  200.48    9.60
  -5   4   0  193.68   13.80
   4  -4   0   78.99    5.80
   4  -4   0   84.69    5.60
  -4   4   0   89.29    8.60
   3  -4   0   17.10    2.60
   3  -4   0   12.70    4.70
  -3   4   0   21.00    3.90
  -3   4   0   15.50    2.70
  -3   4   0   17.00    2.00
   2  -4   0   24.50    4.00
   2  -4   0   22.10    2.70
  -2   4   0   25.10    3.60
  -2   4   0   20.30    2.50
   1  -4   0  164.68    7.70
   1  -4   0  152.38    9.20
  -1   4   0  161.38    7.70
  -1   4   0  166.98    8.80
   0  -4   0    6.90    2.50
   0  -4   0    9.00    1.50
   0   4   0    6.00    2.20
   0   4   0    9.10    1.50
  -1  -4   0  255.77   12.00
  -1  -4   0  239.98   11.00
  -1  -4   0  252.57   10.70
   1   4   0  263.47   11.90
   1   4   0  254.37   10.90
   1   4   0  260.17   11.00
  -2  -4   0 3512.75  140.29
  -2  -4   0 3431.76  139.49
   2   4   0 3480.65  139.39
   2   4   0 3541.75  140.19
   2   4   0 3440.26  139.29
   2   4   0 3505.15  139.69
  -3  -4   0  905.11   37.30
  -3  -4   0  789.72   36.50
   3   4   0  842.72   36.50
   3   4   0  963.40   36.20
   3   4   0  940.31   37.30
   3   4   0  924.41   36.40
  -4  -4   0   76.79    4.10
  -4  -4   0   74.89    6.10
   4   4   0   85.59    4.30
  -5  -4   0   35.60    5.80
  -5  -4   0   35.20    2.80
   5   4   0   38.90    4.70
   5   4   0   32.90    3.00
  -6  -4   0    3.90    1.50
  -6  -4   0    4.40    3.60
   6   4   0    3.10    2.90
   6   4   0    4.80    1.80
  -7  -4   0    4.00    1.80
   7   4   0    3.10    2.00
   7   4   0   -1.30    3.50
  -8  -4   0  226.28   11.20
   8   4   0  232.08   14.00
   9   4   0  186.78   14.30
 -10  -4   0   49.60    5.40
  10   4   0   50.79    8.90
 -11  -4   0   -1.80    4.20
  11   4   0   23.80    9.40
  12   4   0   25.70   12.40
  -7   5   0   36.30   10.40
   6  -5   0    2.00    3.70
  -6   5   0    5.00    7.30
   5  -5   0    2.60    4.40
   5  -5   0    4.80    3.00
  -5   5   0    4.60    6.00
  -5   5   0    1.30    2.90
  -4   5   0   45.20    6.70
   3  -5   0   41.70    4.60
  -3   5   0   53.19    7.60
   2  -5   0   80.29    5.40
   2  -5   0   88.89    9.20
  -2   5   0   70.39    5.50
  -2   5   0   83.89    7.20
   1  -5   0   87.19    5.20
   1  -5   0   76.49    7.70
  -1   5   0   87.79    6.90
  -1   5   0   81.49    5.10
   0  -5   0   24.00    2.70
   0  -5   0   29.80    3.90
   0   5   0   23.10    3.30
   0   5   0   25.40    2.90
  -1  -5   0   -3.50    2.70
  -1  -5   0    2.20    1.30
  -1  -5   0    1.80    1.20
   1   5   0    1.80    1.40
   1   5   0    1.80    2.60
  -2  -5   0 1668.43   67.69
  -2  -5   0 1611.64   68.59
   2   5   0 1696.93   67.59
   2   5   0 1663.13   68.69
   2   5   0 1754.92   67.69
   2   5   0 1660.33   67.29
  -3  -5   0  584.54   24.30
  -3  -5   0  569.74   25.50
   3   5   0  567.54   24.30
   3   5   0  581.24   25.40
   3   5   0  602.24   24.10
   3   5   0  609.34   24.20
  -4  -5   0  115.99    8.30
  -4  -5   0  130.69    6.20
   4   5   0  133.89    6.00
   4   5   0  132.19    6.50
   4   5   0  134.19    6.30
   4   5   0  126.79    7.80
  -5  -5   0   12.20    3.70
   5   5   0   10.70    1.90
   5   5   0   11.00    2.90
  -6  -5   0   -0.70    4.20
  -6  -5   0    1.90    1.40
   6   5   0    3.20    1.60
   6   5   0   -0.40    2.90
  -7  -5   0  104.39   10.30
  -7  -5   0  123.69    6.50
   7   5   0  126.59    9.30
   7   5   0  101.39    6.80
  -8  -5   0    3.40    2.30
   8   5   0    8.60    4.70
   9   5   0   10.20    6.00
 -10  -5   0   -2.50    3.20
  10   5   0   14.80    7.40
 -11  -5   0   25.60    4.80
  11   5   0   32.00   10.00
  12   5   0   16.20   11.80
   6  -6   0   16.80    5.50
  -6   6   0   28.80   10.30
   5  -6   0   92.59    8.50
  -5   6   0   98.19   14.40
   4  -6   0   48.60    6.30
  -4   6   0   57.79    8.00
   3  -6   0  137.49    8.40
   2  -6   0    4.10    2.50
  -2   6   0    1.70    4.10
   1  -6   0   14.30    2.90
  -1   6   0   14.90    4.30
   0  -6   0   44.10    3.90
   0  -6   0   36.60    5.20
   0   6   0   42.10    4.00
   0   6   0   42.50    6.40
  -1  -6   0    1.50    1.60
  -1  -6   0    2.30    3.70
   1   6   0    3.90    3.30
   1   6   0   -0.40    1.50
  -2  -6   0   15.10    3.90
  -2  -6   0   19.40    2.80
   2   6   0   21.80    2.40
   2   6   0   17.10    2.30
   2   6   0   19.90    3.80
   2   6   0   21.70    2.50
  -3  -6   0   25.50    4.40
  -3  -6   0   27.60    2.90
   3   6   0   31.10    3.20
   3   6   0   29.20    2.70
   3   6   0   27.90    2.80
   3   6   0   30.40    4.10
  -4  -6   0  100.59    5.50
  -4  -6   0   95.19    8.10
   4   6   0  102.59    5.50
   4   6   0  100.79    5.80
   4   6   0   99.99    7.40
   4   6   0  110.69    5.30
  -5  -6   0  906.61   41.30
  -5  -6   0  965.40   39.60
   5   6   0 1012.90   39.40
   5   6   0  989.90   40.00
   5   6   0  957.80   41.20
   5   6   0  973.20   39.70
  -6  -6   0   -1.80    4.50
   6   6   0    0.30    1.80
   6   6   0   -1.00    2.10
   6   6   0   -2.50    3.40
   7   6   0   57.99    7.90
   8   6   0   11.30    5.10
   9   6   0    3.40    6.40
  10   6   0    8.50    7.60
  11   6   0   91.09   11.90
  12   6   0    4.10   11.40
   5  -7   0  171.78   12.60
  -5   7   0  205.48   19.20
   4  -7   0   59.99    7.90
  -4   7   0   55.19    9.20
   3  -7   0   11.60    3.60
  -3   7   0    0.70    6.10
   0  -7   0   29.20    4.20
   0   7   0   23.20    5.00
  -1  -7   0  279.47   12.40
   1   7   0  270.57   14.40
   1   7   0  230.18   12.00
  -2  -7   0  155.38    8.00
  -2  -7   0  129.19   10.60
   2   7   0  156.88    7.20
   2   7   0  154.28    7.80
   2   7   0  159.08    7.70
   2   7   0  146.39   10.40
  -3  -7   0  693.83   28.20
  -3  -7   0  587.34   29.60
   3   7   0  685.63   28.00
   3   7   0  664.63   27.90
   3   7   0  682.53   29.90
   3   7   0  693.33   27.60
  -4  -7   0   75.79    4.70
  -4  -7   0   57.69    8.50
   4   7   0   67.69    4.50
   4   7   0   62.09    4.90
   4   7   0   62.89    7.40
   4   7   0   69.79    4.30
  -5  -7   0    0.70    1.90
  -5  -7   0    3.20    4.70
   5   7   0    0.90    1.80
   5   7   0    1.70    2.20
   5   7   0    2.70    3.60
   5   7   0    4.50    1.50
  -6  -7   0  114.79    6.30
   6   7   0   99.19    6.50
   6   7   0  118.89    7.10
   6   7   0  109.29    9.40
   6   7   0  114.39    5.70
   7   7   0   13.90    4.90
   7   7   0   12.80    3.00
   8   7   0   90.89   11.10
   8   7   0   83.29   10.10
   9   7   0  127.09   13.00
  10   7   0    4.80    7.70
  10   7   0   15.40    5.30
  11   7   0   -5.80    8.90
  11   7   0    6.30    5.50
  12   7   0    8.50    6.70
  12   7   0    8.20   12.10
   4  -8   0   -0.80    5.50
  -4   8   0    3.10    9.60
   3  -8   0   10.00    4.60
  -3   8   0    7.70    7.50
   2  -8   0   10.40    4.00
  -2   8   0   11.40    6.90
   1  -8   0  437.36   20.40
  -1   8   0  436.16   22.70
  -1  -8   0   31.20    4.10
  -2  -8   0    5.40    2.80
   2   8   0   13.20    5.10
   2   8   0    6.50    2.60
  -3  -8   0  334.37   15.00
   3   8   0  299.47   14.50
   3   8   0  312.97   14.50
   3   8   0  334.87   17.30
   3   8   0  331.77   14.10
  -4  -8   0   23.60    3.30
   4   8   0   18.70    3.20
   4   8   0   19.50    2.70
   4   8   0   14.90    5.00
   4   8   0   23.80    2.70
  -5  -8   0  271.27   12.60
   5   8   0  264.57   12.10
   5   8   0  262.27   15.40
   5   8   0  271.97   12.90
   5   8   0  271.87   12.40
  -6  -8   0   36.50    4.70
   6   8   0   45.50    5.60
   6   8   0   41.80    5.00
   6   8   0   49.99    3.90
   7   8   0    6.30    3.30
   7   8   0    6.00    2.00
   8   8   0    3.10    3.50
   9   8   0  476.85   22.50
   9   8   0  493.75   25.80
  10   8   0   18.40    5.40
  10   8   0   19.10    8.70
  11   8   0   14.30   10.10
  11   8   0   11.80    5.70
  12   8   0   10.10    9.30
  12   8   0   -2.40   13.90
   3  -9   0   67.39   13.40
  -3   9   0   40.00   11.40
   2  -9   0   75.69    9.80
  -2   9   0  114.29   15.60
   1  -9   0   24.70    5.10
  -1   9   0   13.20    7.80
   0  -9   0   78.69    7.60
   0   9   0   56.79    8.40
  -1  -9   0   24.80    4.60
   1   9   0   21.50    6.80
  -2  -9   0   58.49    7.10
  -3  -9   0   49.40    5.60
   3   9   0   50.99    5.60
   3   9   0   41.20    5.00
  -4  -9   0 1207.48   47.40
   4   9   0 1097.19   46.90
   4   9   0 1100.89   46.50
  -5  -9   0  686.53   27.60
   5   9   0  618.74   27.00
   5   9   0  600.54   27.00
   5   9   0  645.34   27.60
  -6  -9   0  154.48    8.70
   6   9   0  149.88    8.00
   6   9   0  148.89    9.30
  -7  -9   0   -3.00    3.20
   7   9   0    6.20    3.50
   7   9   0    5.60    2.30
   8   9   0    1.10    6.80
   9   9   0   41.70    8.70
   9   9   0   68.49    8.50
  10   9   0   46.10    9.80
  10   9   0   46.90    6.60
  11   9   0   12.20    6.00
  11   9   0    3.30   10.50
   1 -10   0  -11.90    5.40
  -1  10   0   -6.80    8.80
   0 -10   0   18.50    5.60
   0  10   0   10.10    8.90
  -1 -10   0   -2.00    4.60
   1  10   0    6.10    7.60
  -2 -10   0    3.10    4.20
   2  10   0   12.20    6.90
  -3 -10   0   -3.70    4.70
   3  10   0   -3.60    6.90
  -4 -10   0    3.40    3.60
   4  10   0    4.50    3.70
   4  10   0    3.30    3.70
   4  10   0    5.70    6.70
  -5 -10   0   19.50    4.10
   5  10   0   15.30    4.30
   5  10   0   12.40    3.50
   6  10   0  120.59    9.20
  -7 -10   0    8.00    4.30
   7  10   0   -8.00    4.30
   7  10   0    0.40    7.40
  -8 -10   0    2.00    4.30
   8  10   0    2.10    4.40
   8  10   0    6.70    8.20
   9  10   0  139.79   17.60
   9  10   0  128.39   11.10
  10  10   0   26.90    6.80
  10  10   0    9.20    9.80
  11  10   0  -10.00   14.30
  11  10   0    4.90    6.80
  -1 -11   0   23.00    6.40
   1  11   0   23.00    9.80
  -2 -11   0   91.39   10.50
   2  11   0  128.09   16.10
  -3 -11   0    3.90    5.00
   3  11   0   10.70    8.70
  -4 -11   0    8.00    4.90
   4  11   0    4.70    8.30
   4  11   0    6.80    5.20
  -5 -11   0   14.60    6.50
   5  11   0   12.90    4.70
   5  11   0   19.70    8.70
  -6 -11   0    7.30    4.90
   6  11   0    4.00    5.10
   6  11   0   -6.40    8.60
  -7 -11   0  128.19   10.50
   7  11   0  132.69   16.70
  -8 -11   0   14.40   11.10
   8  11   0   18.10    9.50
   8  11   0   17.00    5.70
   9  11   0  -12.00    5.90
   9  11   0   10.10    9.80
  10  11   0   18.00    7.00
  10  11   0   15.40   14.20
  -4 -12   0   21.20    7.00
   4  12   0   17.60   10.90
  -5 -12   0   57.99    8.30
   5  12   0   73.69   11.70
  -6 -12   0   13.70    6.70
   6  12   0   13.40   10.70
  -7 -12   0    0.60    7.20
   7  12   0   -2.60    6.50
   7  12   0    1.60   11.20
   8  12   0    4.40    7.30
   6  12  -1   19.40   12.60
  -6 -12   1   29.70    7.30
   5  12  -1   33.00   12.50
  -5 -12   1   35.40    7.50
   9  11  -1   18.40   10.80
   9  11  -1   22.20    6.90
   8  11  -1   27.70   10.10
   8  11  -1   19.30    6.20
   7  11  -1    7.30    9.50
  -7 -11   1   23.40    5.30
   6  11  -1   13.80    9.50
   6  11  -1    7.70    5.00
  -6 -11   1   -5.70   10.10
   5  11  -1    8.20    8.90
   5  11  -1    0.50    4.80
   4  11  -1    2.60    8.70
  -4 -11   1   23.20    5.30
   3  11  -1   23.00    9.10
  -3 -11   1   20.50    5.90
   2  11  -1   17.50    9.50
  -2 -11   1   28.70    6.40
   1  11  -1   -6.10    9.60
  -1 -11   1   -2.70    5.70
  10  10  -1   -0.50    9.70
  10  10  -1   -4.50    5.80
   9  10  -1    0.70    5.10
   9  10  -1   -8.70    8.90
   8  10  -1    4.40    8.20
   8  10  -1    5.50    4.70
   7  10  -1   38.90    8.60
  -7 -10   1   37.40    4.80
   6  10  -1   53.19    7.80
   6  10  -1   34.30    5.00
   6  10  -1   36.20    8.20
  -6 -10   1   39.30    5.00
   5  10  -1   -2.40    3.80
   5  10  -1    7.40    7.30
  -5 -10   1    4.20    3.70
   4  10  -1   -0.40    7.10
   4  10  -1    1.50    3.50
  -4 -10   1   -5.80    3.60
   3  10  -1    4.20    7.10
  -3 -10   1    3.20    5.00
   2  10  -1  179.08   15.90
  -2 -10   1  205.98   11.80
   1  10  -1   30.10    8.60
  -1 -10   1   24.60    5.20
   0  10  -1   39.50   10.00
   0 -10   1   44.10    6.90
  -1  10  -1   31.60    9.90
   1 -10   1   16.60    6.40
  11   9  -1   11.70   10.90
  11   9  -1   21.40    7.10
  10   9  -1   18.00    9.00
  10   9  -1   18.60    6.10
   9   9  -1   14.10    4.80
   9   9  -1    2.20    8.10
   8   9  -1   43.40    8.20
   7   9  -1    8.20    2.60
   7   9  -1    8.40    3.70
   7   9  -1   11.90    9.80
  -7  -9   1    4.50    3.30
   6   9  -1    9.90    3.40
   6   9  -1    8.30    2.50
  -6  -9   1    6.10    3.00
   5   9  -1    7.10    2.80
   5   9  -1   15.40    3.30
   5   9  -1    9.60    2.80
  -5  -9   1   18.90    3.40
   4   9  -1  268.17   13.10
   4   9  -1  282.97   13.50
  -4  -9   1  310.57   13.90
  -3  -9   1    1.80    2.90
   2   9  -1   -6.70    6.40
  -2  -9   1   -2.10    3.80
   1   9  -1   88.69   11.40
  -1  -9   1   60.59    6.80
   0   9  -1   -3.70    6.70
   0  -9   1    3.00    3.80
  -1   9  -1  107.89   14.50
   1  -9   1  103.49    9.30
  -2   9  -1   -6.20    8.80
   2  -9   1    7.80    5.10
  11   8  -1   60.39   11.00
  11   8  -1   40.60    7.10
  10   8  -1  107.29   16.40
  10   8  -1  110.89   10.80
   9   8  -1   40.00    5.70
   8   8  -1   23.40    5.70
   7   8  -1   -2.20    2.90
   6   8  -1  155.88    7.60
   6   8  -1  158.48    8.90
   6   8  -1  150.48    8.60
  -6  -8   1  153.28    8.10
   5   8  -1  141.09    7.40
   5   8  -1  144.49    8.20
   5   8  -1  140.59   11.10
   5   8  -1  137.29    7.80
  -5  -8   1  158.48    7.90
   4   8  -1    1.40    2.00
   4   8  -1    1.80    2.00
   4   8  -1    2.40    2.40
   4   8  -1   -2.80    4.50
  -4  -8   1    2.50    2.30
   3   8  -1   -3.00    1.90
   3   8  -1    2.30    2.40
   3   8  -1   -0.20    4.50
   3   8  -1   -2.60    2.30
  -3  -8   1    3.20    2.40
   2   8  -1  120.89   11.00
  -2  -8   1  127.19    7.60
   1   8  -1  395.66   26.40
  -1  -8   1  510.15   20.90
  -1   8  -1  208.08   15.50
   1  -8   1  226.38   12.10
  -2   8  -1   -3.40    6.60
   2  -8   1    4.50    3.90
  -3   8  -1   11.80    8.10
   3  -8   1    2.00    4.60
  -4   8  -1   23.80   10.10
   4  -8   1    8.40    5.70
  12   7  -1   -3.10   14.70
  11   7  -1    8.00    9.30
 -11  -7   1   18.70    4.60
  10   7  -1  -12.50    7.40
 -10  -7   1    8.00    3.90
  -9  -7   1   19.40    3.90
   6   7  -1  557.94   24.80
   6   7  -1  582.54   26.90
   6   7  -1  607.44   25.10
   5   7  -1  355.56   18.20
   5   7  -1  369.36   16.20
   5   7  -1  361.56   15.60
   5   7  -1  362.26   15.90
  -5  -7   1  373.46   15.80
   4   7  -1   35.30    4.90
   4   7  -1   33.50    3.10
   4   7  -1   25.70    3.30
   4   7  -1   32.20    3.80
  -4  -7   1   28.00    5.30
  -4  -7   1   26.00    3.20
   3   7  -1    2.40    1.50
   3   7  -1    2.80    1.90
   3   7  -1    1.40    1.60
   3   7  -1   -5.10    3.70
  -3  -7   1   -2.60    4.50
  -3  -7   1    2.10    1.80
   2   7  -1   29.40    3.60
   2   7  -1   25.40    4.70
  -2  -7   1   14.50    4.90
  -2  -7   1   26.50    3.50
   1   7  -1   83.29    8.60
   1   7  -1   70.59    5.70
  -1  -7   1   85.29    5.60
   0   7  -1  253.07   14.50
   0  -7   1  252.67   12.30
   1  -7   1  180.78   11.10
  -3   7  -1    3.90    6.30
   3  -7   1    5.20    3.40
  -4   7  -1  104.79   15.20
   4  -7   1  101.29    8.90
  -5   7  -1   30.50   10.10
   5  -7   1   39.00    6.70
  12   6  -1    1.70   11.70
 -12  -6   1    6.30    5.40
  11   6  -1  193.88   19.20
 -11  -6   1  197.98   12.20
  10   6  -1  265.27   19.40
 -10  -6   1  304.57   14.80
  -9  -6   1  128.19    8.40
  -8  -6   1   87.19    6.30
   7   6  -1   65.89    8.60
  -7  -6   1   72.49    5.00
   6   6  -1    5.20    3.90
   6   6  -1    1.50    1.90
  -6  -6   1    1.90    1.70
  -6  -6   1    4.20    5.00
   5   6  -1  525.95   23.70
   5   6  -1  545.35   21.40
   5   6  -1  522.95   22.00
  -5  -6   1  479.55   23.90
   4   6  -1 1353.56   54.89
   4   6  -1 1379.76   55.09
   4   6  -1 1421.66   54.79
   4   6  -1 1332.67   56.49
  -4  -6   1 1362.56   54.89
  -4  -6   1 1271.47   56.49
   3   6  -1   11.20    3.40
   3   6  -1   13.00    1.90
   3   6  -1   11.50    1.90
   3   6  -1   11.30    1.70
  -3  -6   1   12.60    4.00
  -3  -6   1   11.90    1.90
   2   6  -1   -1.90    1.40
   2   6  -1   -0.50    3.10
   2   6  -1   -0.80    1.20
  -2  -6   1   -1.60    1.40
  -2  -6   1   -1.50    3.60
   1   6  -1  125.99    6.60
   1   6  -1  123.09    8.70
  -1  -6   1  117.09    8.90
  -1  -6   1  124.49    6.60
   0   6  -1   46.00    6.50
   0   6  -1   36.00    4.30
   0  -6   1   33.40    5.30
   0  -6   1   41.40    3.90
  -1   6  -1   40.40    5.50
   1  -6   1   39.40    4.10
  -2   6  -1   17.70    4.70
  -3   6  -1  140.19   14.10
  -4   6  -1   -7.60    6.00
   4  -6   1    3.40    3.40
  -5   6  -1   -7.50    7.70
   5  -6   1    8.10    4.20
  -6   6  -1   17.00    9.80
   6  -6   1   16.80    5.60
  12   5  -1   55.09   13.70
 -12  -5   1   68.69    9.90
  11   5  -1   16.20    9.10
 -11  -5   1   10.70    4.60
  10   5  -1  158.38   15.50
 -10  -5   1  166.28   10.20
  -8  -5   1  251.77   12.20
   7   5  -1  322.07   16.80
  -7  -5   1  321.67   14.50
   6   5  -1   10.90    3.70
   6   5  -1   13.70    2.20
  -6  -5   1   13.20    2.10
  -6  -5   1   10.30    4.30
   5   5  -1  995.70   42.10
   5   5  -1 1039.30   40.80
  -5  -5   1 1012.30   40.70
  -5  -5   1  924.31   42.10
   4   5  -1  284.87   12.40
   4   5  -1  294.37   12.00
   4   5  -1  280.87   13.70
  -4  -5   1  284.57   12.20
  -4  -5   1  269.07   14.10
  -4  -5   1  287.87   12.30
   3   5  -1  169.38    7.40
   3   5  -1  162.48    7.60
   3   5  -1  160.38    8.90
   3   5  -1  161.78    7.60
  -3  -5   1  158.88    9.30
  -3  -5   1  158.68    7.40
   2   5  -1  903.41   35.60
   2   5  -1  836.22   35.80
   2   5  -1  882.71   37.10
   2   5  -1  909.01   36.00
  -2  -5   1  897.41   36.00
  -2  -5   1  849.41   37.10
   1   5  -1   82.39    6.40
   1   5  -1   84.99    4.70
  -1  -5   1   89.49    4.80
  -1  -5   1   82.39    6.80
   0   5  -1   -3.30    2.70
   0   5  -1   -1.40    1.60
   0  -5   1    0.30    1.20
   0  -5   1   -1.50    3.30
  -1   5  -1 1463.35   60.09
  -1   5  -1 1480.45   60.79
   1  -5   1 1499.25   59.99
   1  -5   1 1431.76   60.99
  -2   5  -1  289.67   13.90
  -2   5  -1  301.37   15.00
   2  -5   1  291.67   15.80
   2  -5   1  296.07   13.50
  -3   5  -1   50.29    6.10
   3  -5   1   56.29    4.70
   4  -5   1    1.30    2.40
  -5   5  -1  101.79   12.20
   5  -5   1  101.39    7.70
  -6   5  -1    0.10    8.00
   6  -5   1    7.80    4.30
  -7   5  -1  208.08   20.60
   7  -5   1  221.08   13.70
  11   4  -1   11.00    9.10
 -11  -4   1   17.70    4.80
  10   4  -1  554.84   28.80
 -10  -4   1  556.64   24.90
   8   4  -1  664.63   31.80
  -8  -4   1  637.04   28.10
   7   4  -1   18.40    4.50
   7   4  -1   10.10    2.40
  -7  -4   1   14.20    2.40
   6   4  -1  178.48   10.00
   6   4  -1  162.58    8.10
  -6  -4   1  134.89   10.30
  -6  -4   1  165.78    7.90
   5   4  -1    3.50    2.60
   5   4  -1    0.00    1.30
  -5  -4   1    1.00    3.30
  -5  -4   1   -0.40    1.10
   4   4  -1  614.74   26.90
   4   4  -1  664.03   25.90
  -4  -4   1  612.14   25.80
  -4  -4   1  613.44   27.10
   3   4  -1    1.20    1.80
   3   4  -1    1.30    0.70
   3   4  -1    1.20    1.00
  -3  -4   1    1.30    2.30
  -3  -4   1    1.10    0.90
  -3  -4   1    0.40    0.90
   2   4  -1   18.50    1.80
   2   4  -1   18.40    1.80
   2   4  -1   23.20    3.40
  -2  -4   1   25.70    3.90
  -2  -4   1   17.70    1.90
   1   4  -1  104.99    5.20
   1   4  -1  113.49    6.50
  -1  -4   1  105.49    5.20
  -1  -4   1  109.99    6.60
   0   4  -1 1539.45   61.69
   0   4  -1 1523.65   60.99
   0  -4   1 1487.75   61.69
   0  -4   1 1476.35   60.99
  -1   4  -1   62.49    4.10
  -1   4  -1   59.09    5.20
   1  -4   1   52.39    5.80
   1  -4   1   60.89    3.70
  -2   4  -1  489.05   20.50
  -2   4  -1  470.95   21.20
   2  -4   1  475.35   20.30
   2  -4   1  457.35   21.50
  -3   4  -1  723.03   30.10
  -3   4  -1  731.63   30.90
   3  -4   1  649.64   30.90
   3  -4   1  716.53   29.70
  -4   4  -1    1.30    3.80
   4  -4   1    0.20    1.80
  -6   4  -1    9.50    6.40
   6  -4   1    0.70    3.10
  -7   4  -1  129.69   16.30
  -7   4  -1  126.59    8.90
   7  -4   1  141.69    9.70
  -8   4  -1   29.40   10.90
   8  -4   1   18.80    5.70
  11   3  -1   39.80   10.60
 -11  -3   1   46.50    6.00
  10   3  -1  175.18   16.20
 -10  -3   1  165.58   10.40
   8   3  -1   38.20    6.10
  -8  -3   1   44.80    4.90
   7   3  -1  217.38   10.90
   7   3  -1  216.38   13.30
   7   3  -1  236.38   13.10
  -7  -3   1  249.48   11.00
   6   3  -1  132.19    8.60
   6   3  -1  120.99    6.70
  -6  -3   1  128.99    6.60
   5   3  -1  349.27   14.60
   5   3  -1  344.97   15.80
  -5  -3   1  324.87   15.90
  -5  -3   1  322.37   14.40
   4   3  -1 1288.67   49.90
   4   3  -1 1233.78   50.79
  -4  -3   1 1239.78   50.89
  -4  -3   1 1163.08   49.80
   3   3  -1  305.07   13.80
  -3  -3   1  297.27   13.00
  -3  -3   1  326.67   14.10
   2   3  -1   37.90    2.00
   2   3  -1   35.30    3.20
   2   3  -1   33.80    2.10
  -2  -3   1   41.60    3.50
  -2  -3   1   33.10    2.00
  -2  -3   1   31.50    2.10
   1   3  -1 1423.86   58.29
   1   3  -1 1549.34   58.99
  -1  -3   1 1264.17   58.49
  -1  -3   1 1560.24   58.99
   0   3  -1  803.92   31.80
   0   3  -1  737.83   31.50
   0  -3   1  754.32   31.20
  -1   3  -1  808.72   32.30
  -1   3  -1  777.72   32.70
   1  -3   1  795.52   32.90
   1  -3   1  761.62   32.20
  -2   3  -1   56.39    4.70
  -2   3  -1   63.49    4.10
   2  -3   1   59.49    5.50
   2  -3   1   52.49    3.40
  -3   3  -1   55.09    4.10
  -3   3  -1   45.30    5.60
   3  -3   1   45.30    3.40
   3  -3   1   41.10    6.10
  -4   3  -1  133.19    9.10
  -4   3  -1  138.39    7.70
  -4   3  -1  139.89    6.60
   4  -3   1  113.79    9.50
   4  -3   1  139.59    7.10
  -5   3  -1   27.80    5.10
  -5   3  -1   34.20    3.90
   5  -3   1   32.30    4.30
   5  -3   1   32.90    3.90
  -6   3  -1   14.00    2.80
  -6   3  -1   11.80    6.00
   6  -3   1   13.80    3.30
   6  -3   1   16.80    3.20
  -7   3  -1   22.60    3.60
  -7   3  -1   27.20    7.50
   7  -3   1   21.70    4.00
   7  -3   1   23.60    4.70
  -8   3  -1    3.40    4.00
  -8   3  -1   11.10    9.30
   8  -3   1   -2.40    4.00
  -9   3  -1   24.50   11.50
   9  -3   1   20.70    6.10
  11   2  -1    2.00   10.70
 -11  -2   1    5.90    4.80
  10   2  -1    7.90    8.30
 -10  -2   1    5.80    3.80
   8   2  -1  842.12   38.00
  -8  -2   1  819.02   34.90
   7   2  -1    8.50    4.30
   7   2  -1    5.90    2.40
  -7  -2   1    3.10    2.00
   6   2  -1  139.39    7.30
   6   2  -1  149.49    9.50
   6   2  -1  146.79    9.30
  -6  -2   1  145.09    7.30
   5   2  -1   86.79    4.80
   5   2  -1   89.59    6.60
   5   2  -1   78.59    6.20
  -5  -2   1   87.69    4.70
   4   2  -1  209.58    8.90
   4   2  -1  188.08    9.70
  -4  -2   1  197.08    8.80
  -4  -2   1  191.48    9.90
   3   2  -1  253.67   11.50
   3   2  -1  253.17   10.80
  -3  -2   1  242.58   12.10
  -3  -2   1  252.97   10.70
   2   2  -1 2347.97  101.99
   2   2  -1 2575.64  101.09
  -2  -2   1 2494.85  101.09
  -2  -2   1 2693.73  101.69
   1   2  -1  383.66   15.30
   1   2  -1  356.96   14.70
   1   2  -1  348.27   14.60
  -1  -2   1  342.47   14.70
  -1  -2   1  386.46   15.30
  -1  -2   1  347.67   14.60
   0   2  -1  157.28    7.10
   0   2  -1  150.58    6.70
   0  -2   1  144.99    6.60
   0  -2   1  156.08    7.10
  -1   2  -1 6877.31  285.37
  -1   2  -1 7182.68  285.57
   1  -2   1 7393.16  285.67
  -2   2  -1    2.60    1.20
  -2   2  -1   -1.50    1.50
   2  -2   1    2.60    2.00
   2  -2   1    0.20    0.70
  -3   2  -1    8.60    1.90
  -3   2  -1   11.40    2.40
   3  -2   1   10.90    2.70
   3  -2   1    7.50    1.50
   3  -2   1    8.70    1.30
  -4   2  -1  316.47   13.40
  -4   2  -1  320.17   15.10
  -4   2  -1  311.77   14.20
   4  -2   1  313.77   15.30
   4  -2   1  312.47   13.80
  -5   2  -1   -1.70    1.60
  -5   2  -1   -2.30    3.60
  -5   2  -1   -3.40    2.10
   5  -2   1   -0.20    2.00
   5  -2   1    2.30    1.70
   5  -2   1   -2.00    4.10
  -6   2  -1   -1.20    4.30
  -6   2  -1   -2.90    2.10
   6  -2   1   -0.90    2.40
   6  -2   1    0.60    2.00
  -7   2  -1  428.56   18.40
   7  -2   1  381.06   18.50
   7  -2   1  436.16   18.80
  -8   2  -1   34.50    9.00
  -8   2  -1   30.80    4.30
   8  -2   1   32.10    4.50
  -9   2  -1    0.00    9.00
  -9   2  -1   -5.50    4.30
   9  -2   1   -4.50    4.40
  11   1  -1   -1.70   12.70
 -11  -1   1    7.10    5.50
  10   1  -1    0.90    9.10
  10   1  -1   -3.50    3.30
 -10  -1   1   -0.60    4.10
   9   1  -1   17.10    4.50
   9   1  -1   13.70    7.70
   9   1  -1   17.70    3.00
   8   1  -1   24.00    7.20
   8   1  -1   17.30    3.30
   8   1  -1   25.80    3.40
  -8  -1   1   20.10    3.40
   7   1  -1   57.39    4.60
   7   1  -1   58.99    6.80
   7   1  -1   61.89    5.40
   7   1  -1   54.69    3.70
  -7  -1   1   51.99    4.80
   6   1  -1   21.30    2.80
   6   1  -1   20.30    2.20
   6   1  -1   13.90    4.00
   6   1  -1   15.50    4.00
   6   1  -1   19.10    2.30
  -6  -1   1   23.60    2.80
   5   1  -1   21.20    3.70
   5   1  -1   18.60    2.30
   5   1  -1   28.70    3.80
  -5  -1   1   19.30    2.20
   4   1  -1 1677.53   66.09
   4   1  -1 1658.23   66.89
   4   1  -1 1586.74   66.89
  -4  -1   1 1627.44   66.09
   3   1  -1   96.89    5.50
   3   1  -1   93.59    5.40
   3   1  -1   92.89    4.80
  -3  -1   1   92.99    4.50
   2   1  -1  700.03   28.00
   2   1  -1  693.33   28.40
  -2  -1   1  694.53   28.40
  -2  -1   1  676.13   28.00
   1   1  -1 3427.16  133.69
  -1  -1   1 3444.66  133.69
  -1  -1   1 3160.08  133.29
   0   1  -1  615.14   23.60
   0   1  -1  557.74   23.60
   0  -1   1  539.95   23.50
   0  -1   1  616.74   23.60
  -1   1  -1   39.50    2.60
  -1   1  -1   46.50    2.40
   1  -1   1   43.70    2.30
   1  -1   1   44.40    2.70
  -2   1  -1 5141.39  203.28
  -2   1  -1 5123.69  203.88
   2  -1   1 5256.27  203.38
   2  -1   1 4827.82  203.08
  -3   1  -1  572.34   25.00
  -3   1  -1  593.44   25.80
  -3   1  -1  627.44   25.40
   3  -1   1  621.14   25.20
   3  -1   1  638.84   25.90
   3  -1   1  617.24   24.90
  -4   1  -1 1704.43   67.79
  -4   1  -1 1674.43   67.19
  -4   1  -1 1648.94   68.29
   4  -1   1 1667.63   67.39
   4  -1   1 1745.83   68.29
   4  -1   1 1574.14   67.39
  -5   1  -1   53.89    6.10
  -5   1  -1   53.39    3.90
   5  -1   1   51.89    3.90
   5  -1   1   54.49    6.70
   5  -1   1   61.19    3.70
  -6   1  -1    2.50    3.90
  -6   1  -1    1.60    1.80
   6  -1   1    3.50    4.40
   6  -1   1    4.60    2.70
   6  -1   1    1.30    2.10
   6  -1   1    0.60    1.50
  -7   1  -1  162.98    8.80
  -7   1  -1  168.58   12.40
   7  -1   1  163.58    8.90
   7  -1   1  147.29    9.60
   7  -1   1  181.48    8.70
  -8   1  -1   38.50    4.30
   8  -1   1   41.70    5.20
  -9   1  -1   -1.30    3.80
   9  -1   1    1.60    3.70
 -10   1  -1  141.19   11.80
  10  -1   1  164.58   10.80
  10  -1   1  148.89   23.50
  10   0  -1   23.60    5.00
  10   0  -1   39.80   11.20
 -10   0   1   30.90    5.40
   9   0  -1    1.00    2.90
   9   0  -1    0.10    8.30
  -9   0   1    0.80    3.90
   8   0  -1   88.69    5.70
   8   0  -1   77.39    6.70
  -8   0   1   83.49    6.60
   7   0  -1   22.00    2.70
  -7   0   1   16.90    3.10
   6   0  -1  280.57   12.10
   6   0  -1  269.37   14.70
   6   0  -1  270.37   12.70
  -6   0   1  286.77   12.40
  -6   0   1  273.77   14.50
  -6   0   1  277.97   12.60
   5   0  -1   -1.60    3.00
   5   0  -1    0.10    1.60
   5   0  -1   -0.60    1.00
  -5   0   1   -0.90    1.40
  -5   0   1    4.50    2.70
  -5   0   1    1.10    1.30
   4   0  -1  229.58    9.50
   4   0  -1  218.88    9.80
   4   0  -1  225.08   11.00
  -4   0   1  216.38    9.80
  -4   0   1  213.98   10.80
  -4   0   1  222.08    9.60
   3   0  -1   68.59    3.30
   3   0  -1   75.29    4.70
  -3   0   1   68.79    3.30
  -3   0   1   67.79    3.60
  -3   0   1   64.89    4.40
   2   0  -1   46.90    2.30
   2   0  -1   52.69    3.30
   2   0  -1   49.80    2.70
  -2   0   1   49.20    2.30
  -2   0   1   45.40    2.60
  -2   0   1   46.80    3.30
   1   0  -1 3816.42  148.69
   1   0  -1 3669.33  148.49
  -1   0   1 3679.43  148.69
   0   0  -1 1343.37   53.69
  -1   0  -1  126.49    5.60
  -1   0  -1  130.19    5.40
   1   0   1  132.69    5.40
  -2   0  -1   11.40    1.10
  -2   0  -1   12.70    1.80
   2   0   1   13.10    1.10
   2   0   1   10.70    1.20
   2   0   1   12.60    1.90
   2   0   1   11.70    1.40
  -3   0  -1 2406.96  103.69
   3   0   1 2654.03  103.69
   3   0   1 2582.84  103.29
   3   0   1 2663.03  103.29
   3   0   1 2579.54  103.09
  -4   0  -1  207.98    9.20
  -4   0  -1  208.78   10.30
   4   0   1  210.08   10.40
   4   0   1  215.88    9.50
   4   0   1  205.88    9.20
   4   0   1  215.68    9.30
  -5   0  -1  111.29    5.80
  -5   0  -1  102.79    7.30
   5   0   1  117.79    5.70
   5   0   1  114.79    7.80
   5   0   1  116.69    5.80
   5   0   1  119.39    6.10
  -6   0  -1  127.09    6.80
  -6   0  -1  126.79    8.80
   6   0   1  134.89    6.60
   6   0   1  125.19    6.70
   6   0   1  137.09    9.20
   6   0   1  128.99    7.10
  -7   0  -1  140.99    7.50
   7   0   1  135.49    7.00
   7   0   1  124.79    7.90
   7   0   1  128.99    7.40
   8   0   1   24.30    4.90
   8   0   1   30.90    4.30
  -9   0  -1   14.90    4.80
   9   0   1   20.20    3.70
   9   0   1   21.20    8.40
 -10   0  -1   53.09    6.10
  10   0   1   64.29    7.20
  10   0   1   71.89   12.20
  10  -1  -1    7.80    5.10
  10  -1  -1    6.80   12.60
 -10   1   1   10.10    5.70
   9  -1  -1   74.99    7.20
  -9   1   1   81.19    8.30
   8  -1  -1  152.18    8.30
   8  -1  -1  129.39   10.00
   7  -1  -1   95.29    6.20
  -7   1   1  110.09    7.20
  -7   1   1   99.59    6.80
   6  -1  -1  128.79    6.50
   6  -1  -1  112.99    7.00
  -6   1   1  119.69    6.80
  -6   1   1  115.79    6.70
  -6   1   1  127.59    9.60
   5  -1  -1   19.20    2.60
   5  -1  -1   25.30    4.20
   5  -1  -1   25.10    2.80
  -5   1   1   25.30    2.70
  -5   1   1   21.70    2.50
  -5   1   1   20.50    4.00
   4  -1  -1    4.90    2.80
   4  -1  -1    3.80    1.20
   4  -1  -1    2.50    1.70
  -4   1   1    1.70    1.50
  -4   1   1    6.80    1.50
  -4   1   1    5.70    2.40
   3  -1  -1 1069.49   42.80
   3  -1  -1 1073.19   43.50
   3  -1  -1 1059.89   42.70
  -3   1   1 1020.70   43.50
  -3   1   1 1079.89   42.70
  -3   1   1 1017.00   42.60
   2  -1  -1  671.83   27.10
   2  -1  -1  669.13   27.50
   2  -1  -1  662.83   26.90
  -2   1   1  615.04   27.40
  -2   1   1  683.43   26.90
   1  -1  -1   84.89    4.00
   1  -1  -1   92.79    4.10
   1  -1  -1   89.49    4.50
  -1   1   1   86.59    4.40
  -1   1   1   87.79    4.00
  -1   1   1   88.49    4.00
   0  -1  -1  767.72   29.70
   0  -1  -1  679.43   29.60
   0  -1  -1  762.32   29.60
   0   1   1  691.53   29.60
   0   1   1  764.92   29.60
   0   1   1  749.03   29.70
  -1  -1  -1  312.77   13.80
  -1  -1  -1  361.86   13.90
   1   1   1  325.17   13.80
   1   1   1  355.06   13.90
  -2  -1  -1   37.30    2.10
  -2  -1  -1   37.20    2.60
   2   1   1   39.60    2.00
   2   1   1   40.90    2.50
   2   1   1   38.30    2.20
   2   1   1   35.50    2.10
   3   1   1 9999.00  398.96
  -4  -1  -1 1106.09   46.40
   4   1   1 1100.69   47.20
   4   1   1 1146.19   47.20
   4   1   1 1141.69   46.40
   4   1   1 1184.58   46.60
   4   1   1 1209.28   46.50
  -5  -1  -1  351.86   15.00
   5   1   1  346.47   16.20
   5   1   1  345.57   15.10
   5   1   1  347.37   16.20
   5   1   1  365.66   14.90
   5   1   1  350.16   15.00
  -6  -1  -1    2.00    1.60
   6   1   1    1.80    2.10
   6   1   1    3.90    1.30
   6   1   1    2.40    3.40
   6   1   1    7.80    3.60
   6   1   1    3.40    1.80
  -7  -1  -1    2.90    1.90
   7   1   1   -0.10    1.60
   7   1   1   -6.20    4.30
   7   1   1    6.20    4.30
   7   1   1   -2.60    2.60
   7   1   1   -0.80    2.00
  -8  -1  -1   59.69    5.50
   8   1   1   57.59    6.50
   8   1   1   57.69    4.60
   8   1   1   67.99   10.80
  -9  -1  -1   90.29   10.00
   9   1   1  104.79   14.20
   9   1   1   94.69    9.00
   9   1   1   83.79    6.30
 -10  -1  -1    2.00    3.90
  10   1   1    9.30    3.50
  10   1   1  -13.40    9.10
 -11  -1  -1   61.49    6.90
  11   1   1   55.39   14.10
   9  -2  -1   30.70    5.30
  -9   2   1   30.60    5.50
  -8   2   1   -0.50    3.90
  -8   2   1   -3.60    7.30
   7  -2  -1   24.80    3.70
  -7   2   1   32.50    3.90
   6  -2  -1   20.40    3.50
   6  -2  -1   30.70    3.90
  -6   2   1   28.20    3.30
  -6   2   1   25.30    3.60
  -6   2   1   27.10    5.80
   5  -2  -1  278.97   12.40
   5  -2  -1  276.57   12.50
   5  -2  -1  245.68   14.50
  -5   2   1  283.27   14.60
  -5   2   1  280.77   12.50
  -5   2   1  269.27   12.30
   4  -2  -1  137.39    6.80
   4  -2  -1  142.99    8.90
   4  -2  -1  140.79    7.00
  -4   2   1  127.39    8.60
  -4   2   1  132.19    6.80
  -4   2   1  145.19    7.00
   3  -2  -1  826.22   34.50
   3  -2  -1  850.31   35.40
   3  -2  -1  875.71   34.40
  -3   2   1  853.81   34.50
  -3   2   1  808.02   35.30
  -3   2   1  832.32   34.30
   2  -2  -1   15.20    2.10
   2  -2  -1   15.50    2.60
   2  -2  -1   13.40    1.70
  -2   2   1   15.30    1.90
  -2   2   1   15.00    2.40
  -2   2   1   12.30    1.80
   1  -2  -1 2142.19   89.89
   1  -2  -1 2276.57   89.79
   1  -2  -1 2377.66   90.29
  -1   2   1 2294.67   90.29
  -1   2   1 2211.08   89.69
  -1   2   1 2147.29   89.79
   0  -2  -1  128.99    5.80
   0  -2  -1  121.19    5.30
   0  -2  -1  102.79    5.30
   0   2   1  121.49    5.70
   0   2   1  116.89    5.30
  -1  -2  -1 1169.18   45.00
  -1  -2  -1 1151.48   44.70
  -1  -2  -1 1037.30   44.70
   1   2   1 1025.90   44.70
   1   2   1 1175.48   45.00
  -2  -2  -1   33.50    2.10
  -2  -2  -1   32.10    2.50
  -2  -2  -1   29.10    1.90
   2   2   1   30.20    2.00
   2   2   1   32.00    1.90
   2   2   1   32.30    2.40
  -3  -2  -1 3729.73  147.69
  -3  -2  -1 3692.93  147.19
   3   2   1 3695.93  147.09
   3   2   1 3654.23  147.09
   3   2   1 3624.64  147.19
   3   2   1 3696.33  148.09
  -4  -2  -1  611.54   25.90
  -4  -2  -1  589.94   25.10
   4   2   1  595.84   25.90
   4   2   1  625.94   25.10
   4   2   1  637.74   25.20
  -5  -2  -1    6.50    1.30
   5   2   1    8.20    1.60
   5   2   1    8.50    2.80
   5   2   1    4.30    2.30
   5   2   1    4.50    1.60
  -6  -2  -1  398.36   17.00
   6   2   1  372.46   17.00
   6   2   1  411.46   18.60
   6   2   1  409.06   16.70
   6   2   1  386.36   18.50
   6   2   1  395.76   17.10
  -7  -2  -1    1.00    1.90
   7   2   1   -1.90    3.80
   7   2   1    0.00    4.20
   7   2   1    3.30    2.10
   7   2   1   -0.20    2.30
   7   2   1    2.40    1.40
  -8  -2  -1    9.90    2.70
   8   2   1    8.10    2.10
   8   2   1    6.60    5.30
   8   2   1   10.90    3.40
   9   2   1  226.28   12.80
   9   2   1  260.67   11.60
   9   2   1  266.87   17.70
 -10  -2  -1   75.49    7.80
  10   2   1   68.09    6.00
  10   2   1   70.19   10.60
 -11  -2  -1  101.59    9.60
  11   2   1   66.09   12.70
   8  -3  -1   38.50    5.50
  -8   3   1   40.40   10.40
   7  -3  -1  273.27   14.40
  -7   3   1  319.47   19.20
  -7   3   1  299.57   14.40
   6  -3  -1  267.27   12.90
   6  -3  -1  248.18   13.40
  -6   3   1  280.27   12.70
   5  -3  -1  249.88   12.00
   5  -3  -1  243.18   12.00
  -5   3   1  264.77   11.70
  -5   3   1  245.98   12.30
  -5   3   1  259.07   14.40
   4  -3  -1  315.77   13.90
   4  -3  -1  295.77   15.90
   4  -3  -1  315.27   13.90
  -4   3   1  309.07   13.90
  -4   3   1  313.47   15.50
  -4   3   1  302.27   13.50
   3  -3  -1  167.28    8.00
   3  -3  -1  160.48    9.90
   3  -3  -1  175.78    8.10
  -3   3   1  166.68    7.70
  -3   3   1  162.68    8.00
  -3   3   1  155.48    9.30
   2  -3  -1    2.10    1.80
   2  -3  -1    1.60    1.10
   2  -3  -1   -1.50    2.60
  -2   3   1    0.30    2.10
  -2   3   1   -0.50    1.20
  -2   3   1   -0.20    1.20
   1  -3  -1  485.15   21.30
   1  -3  -1  485.05   20.60
   1  -3  -1  495.85   20.40
  -1   3   1  491.25   20.60
  -1   3   1  507.45   21.20
   0  -3  -1  392.16   15.80
   0  -3  -1  362.56   15.90
   0   3   1  386.86   15.80
   0   3   1  376.86   16.40
  -1  -3  -1 1181.48   47.50
  -1  -3  -1 1125.49   47.60
  -1  -3  -1 1185.88   48.00
   1   3   1 1236.78   48.10
   1   3   1 1207.28   47.50
   1   3   1 1126.69   47.50
  -2  -3  -1  482.05   19.50
  -2  -3  -1  456.45   19.60
   2   3   1  459.75   19.50
   2   3   1  479.45   19.90
   2   3   1  492.55   20.10
  -3  -3  -1  470.85   19.60
  -3  -3  -1  434.76   18.80
   3   3   1  468.45   19.50
   3   3   1  452.25   18.70
   3   3   1  451.75   18.90
  -4  -3  -1 1804.22   72.99
   4   3   1 1784.82   72.29
   4   3   1 1759.22   71.99
   4   3   1 1818.42   72.99
   4   3   1 1802.92   72.19
  -5  -3  -1  101.29    7.30
  -5  -3  -1  102.09    5.30
   5   3   1  110.79    6.80
   5   3   1  107.79    5.50
   5   3   1  104.49    5.20
  -6  -3  -1   24.60    3.00
  -6  -3  -1   21.40    2.80
   6   3   1   26.90    3.20
   6   3   1   27.00    3.40
   6   3   1   23.80    3.70
  -7  -3  -1   84.69    5.40
   7   3   1   79.29    8.10
   7   3   1   91.19    4.70
   7   3   1   90.19    8.00
   7   3   1   86.79    5.70
   7   3   1   78.09    5.60
  -8  -3  -1   10.20    2.70
   8   3   1    7.70    3.10
   8   3   1   12.00    1.90
   8   3   1   13.30    4.70
  -9  -3  -1   19.20    4.70
   9   3   1   21.80    4.10
   9   3   1   26.20    6.60
   9   3   1   23.10    2.80
 -10  -3  -1    7.30    3.70
  10   3   1   14.60    7.70
  10   3   1    8.10    2.70
  11   3   1   27.70   10.00
   8  -4  -1   45.40    7.20
  -8   4   1   36.60   10.90
   7  -4  -1   43.30    5.90
  -7   4   1   39.90    5.20
  -7   4   1   42.40    9.50
   6  -4  -1    6.10    3.60
   6  -4  -1    6.00    4.90
  -6   4   1    3.50    6.40
  -6   4   1    3.90    3.20
   5  -4  -1  123.29    7.80
   5  -4  -1  121.79    8.40
  -5   4   1  145.39    7.60
   4  -4  -1  139.39    7.70
   4  -4  -1  131.19    7.80
  -4   4   1  135.19   10.10
  -4   4   1  147.49    7.30
   3  -4  -1  148.39    7.60
   3  -4  -1  152.48    7.80
  -3   4   1  151.48    9.60
  -3   4   1  152.38    7.10
  -3   4   1  127.29    7.50
   2  -4  -1  863.81   34.20
   2  -4  -1  841.62   34.50
   2  -4  -1  792.42   35.50
  -2   4   1  826.42   33.90
  -2   4   1  810.32   35.30
  -2   4   1  849.72   34.50
   1  -4  -1  391.16   18.30
   1  -4  -1  412.16   17.40
   1  -4  -1  407.86   17.10
  -1   4   1  398.86   18.10
  -1   4   1  413.96   17.30
  -1   4   1  399.26   16.90
   0  -4  -1  164.28    7.60
   0  -4  -1  159.68    7.70
   0  -4  -1  175.68    8.90
   0   4   1  169.28    7.60
   0   4   1  160.18    8.50
   0   4   1  162.68    7.70
  -1  -4  -1  570.14   24.40
  -1  -4  -1  578.74   23.60
  -1  -4  -1  545.85   23.80
   1   4   1  580.74   23.70
   1   4   1  577.44   24.40
   1   4   1  584.44   23.70
  -2  -4  -1  385.56   17.20
  -2  -4  -1  395.86   16.40
  -2  -4  -1  369.06   16.40
   2   4   1  397.66   17.20
   2   4   1  406.36   16.50
  -3  -4  -1  225.28   10.30
  -3  -4  -1  238.08   11.20
   3   4   1  232.38   10.20
   3   4   1  246.98   10.50
   3   4   1  235.98   10.20
   3   4   1  238.78   11.10
  -4  -4  -1  551.14   24.00
  -4  -4  -1  539.45   23.00
   4   4   1  547.65   23.10
   4   4   1  558.74   22.80
   4   4   1  574.44   23.00
  -5  -4  -1  593.04   26.70
   5   4   1  612.54   25.70
   5   4   1  615.64   26.60
   5   4   1  636.54   25.60
  -6  -4  -1  894.01   39.50
   6   4   1  974.90   39.50
   6   4   1  919.11   37.70
   6   4   1  920.31   38.20
  -7  -4  -1    3.40    1.80
   7   4   1   -1.50    3.50
   7   4   1   -1.80    1.90
  -8  -4  -1    1.80    2.30
   8   4   1    7.00    4.60
  -9  -4  -1   29.40    3.90
  10   4   1   30.90    8.00
  11   4   1   12.30    9.00
  12   4   1  250.47   24.70
  12   4   1  253.87   17.90
   7  -5  -1   35.60    6.50
  -7   5   1   15.60    9.40
   6  -5  -1   47.60    6.20
  -6   5   1   64.69    7.30
  -6   5   1   52.39    9.60
   5  -5  -1  274.77   13.60
   5  -5  -1  241.78   13.90
  -5   5   1  278.27   17.40
   4  -5  -1   97.89    7.70
  -4   5   1  110.39    6.60
   3  -5  -1  725.43   30.50
   3  -5  -1  695.73   29.90
  -3   5   1  714.53   31.80
  -3   5   1  724.03   29.60
   2  -5  -1  422.26   17.80
   2  -5  -1  414.36   17.40
   2  -5  -1  381.86   19.50
  -2   5   1  378.76   17.60
  -2   5   1  384.66   18.80
  -2   5   1  409.26   16.90
   1  -5  -1  338.07   15.00
   1  -5  -1  349.67   15.00
   1  -5  -1  323.37   16.40
  -1   5   1  342.87   14.80
  -1   5   1  318.67   16.00
  -1   5   1  325.67   14.30
   0  -5  -1  182.78    8.90
   0  -5  -1  188.18    8.90
   0  -5  -1  176.68   10.60
   0   5   1  181.38    9.90
   0   5   1  188.48    8.50
   0   5   1  186.78    8.80
  -1  -5  -1  861.21   35.60
  -1  -5  -1  817.22   36.30
  -1  -5  -1  889.31   35.60
   1   5   1  875.51   35.50
   1   5   1  878.61   35.30
   1   5   1  851.41   36.40
  -2  -5  -1 1690.53   66.39
  -2  -5  -1 1637.04   66.59
  -2  -5  -1 1577.94   67.39
   2   5   1 1640.64   66.49
   2   5   1 1640.44   67.49
   2   5   1 1683.63   66.49
  -3  -5  -1  142.39    8.60
  -3  -5  -1  149.09    7.20
   3   5   1  153.48    8.30
   3   5   1  151.78    7.00
   3   5   1  151.48    7.30
  -4  -5  -1  435.56   20.20
  -4  -5  -1  446.66   19.00
   4   5   1  459.05   18.90
   4   5   1  444.16   19.20
   4   5   1  465.35   18.80
  -5  -5  -1  106.19    5.60
  -5  -5  -1   92.99    8.00
   5   5   1  113.49    5.70
   5   5   1  101.79    5.50
   5   5   1  111.79    7.30
   5   5   1  103.09    5.90
  -6  -5  -1  150.68    7.50
  -6  -5  -1  154.08   10.30
   6   5   1  152.98    7.20
   6   5   1  152.78    7.70
   6   5   1  155.98    9.40
   6   5   1  156.98    8.10
  -7  -5  -1  631.74   30.30
   7   5   1  718.53   30.30
   7   5   1  726.03   28.80
   7   5   1  623.14   28.40
   8   5   1  288.77   14.40
   8   5   1  298.17   16.30
   9   5   1    7.70    7.40
  10   5   1   -2.70    4.60
  10   5   1   13.10    7.50
  11   5   1   37.00    9.90
  11   5   1   25.00    6.60
  12   5   1   84.49   14.10
  12   5   1  104.29   13.20
   6  -6  -1   -1.50    5.80
  -6   6   1   10.50    9.20
   5  -6  -1  286.97   15.40
  -5   6   1  296.67   19.80
   4  -6  -1  242.28   12.50
   4  -6  -1  204.28   12.50
  -4   6   1  246.28   16.10
   3  -6  -1  165.08   10.10
   3  -6  -1  177.68    9.90
  -3   6   1  184.98    8.80
   2  -6  -1  240.08   11.60
   2  -6  -1  222.08   11.30
  -2   6   1  221.88   13.50
  -2   6   1  237.18   10.60
   1  -6  -1    2.60    2.60
   1  -6  -1    5.40    2.20
  -1   6   1    4.70    1.90
  -1   6   1    6.00    3.70
   0  -6  -1   61.59    4.60
   0  -6  -1   55.99    7.80
   0  -6  -1   50.49    4.40
   0   6   1   50.29    4.60
   0   6   1   55.49    6.70
   0   6   1   59.99    4.20
  -1  -6  -1  967.00   44.50
  -1  -6  -1 1087.59   43.80
  -1  -6  -1 1093.79   43.20
   1   6   1 1055.29   44.70
   1   6   1 1086.39   43.30
   1   6   1 1062.19   43.60
  -2  -6  -1  143.79    6.90
  -2  -6  -1  133.19    6.90
  -2  -6  -1  119.79    8.80
   2   6   1  133.59    7.00
   2   6   1  135.69    6.80
   2   6   1  126.79    8.50
  -3  -6  -1   -1.50    3.40
  -3  -6  -1    2.00    1.50
   3   6   1    0.40    1.40
   3   6   1    0.20    1.80
   3   6   1    0.40    2.80
  -4  -6  -1   43.40    3.60
  -4  -6  -1   40.40    6.30
   4   6   1   38.40    5.40
   4   6   1   39.90    3.90
   4   6   1   47.60    3.50
   4   6   1   43.70    3.20
  -5  -6  -1  548.55   22.70
  -5  -6  -1  501.15   24.20
   5   6   1  523.45   23.90
   5   6   1  533.05   22.60
   5   6   1  544.05   23.00
   5   6   1  560.44   22.40
  -6  -6  -1   26.80    5.20
  -6  -6  -1   23.00    2.80
   6   6   1   28.90    4.60
   6   6   1   29.20    3.70
   6   6   1   20.60    3.00
   6   6   1   22.80    2.70
  -7  -6  -1  238.68   18.70
   7   6   1  269.67   14.70
   7   6   1  274.77   12.80
   8   6   1   -0.30    4.80
   8   6   1    1.10    2.80
   9   6   1   43.90    7.20
  10   6   1   74.39    8.80
  10   6   1   72.49    9.70
  11   6   1    3.70    5.40
  11   6   1    4.90    9.50
  12   6   1    1.70   11.70
  12   6   1    5.50    7.00
   5  -7  -1   22.00    6.20
  -5   7   1   22.70    9.00
   4  -7  -1  259.77   14.80
  -4   7   1  289.17   19.10
   3  -7  -1   14.50    4.20
  -3   7   1   13.20    6.20
   0  -7  -1   25.50    3.20
   0  -7  -1   24.00    3.60
   0   7   1   12.10    4.50
  -1  -7  -1  157.08    8.10
  -1  -7  -1  161.48    8.60
   1   7   1  145.09    8.40
   1   7   1  170.88   10.80
   1   7   1  158.78    8.10
  -2  -7  -1  711.93   29.40
  -2  -7  -1  637.44   31.30
  -2  -7  -1  735.63   30.10
   2   7   1  706.13   29.80
   2   7   1  729.63   29.60
   2   7   1  732.63   31.50
  -3  -7  -1   -6.70    4.10
  -3  -7  -1   -2.80    1.80
   3   7   1   -0.40    2.20
   3   7   1    1.70    3.80
   3   7   1   -1.20    1.60
  -4  -7  -1  140.99   10.80
  -4  -7  -1  161.18    8.20
   4   7   1  159.98    7.70
   4   7   1  156.38    7.80
   4   7   1  166.68   10.30
   4   7   1  153.28    8.30
  -5  -7  -1  202.08   13.30
  -5  -7  -1  234.78   10.90
   5   7   1  228.48   11.20
   5   7   1  236.78   10.40
   5   7   1  232.08   12.80
   5   7   1  230.08   10.60
  -6  -7  -1   19.50    2.80
   6   7   1   15.80    4.30
   6   7   1   21.80    2.50
   6   7   1   16.70    3.30
   6   7   1   14.40    2.80
  -7  -7  -1  349.96   15.80
   7   7   1  348.17   15.20
   7   7   1  369.66   18.50
   7   7   1  353.06   16.50
   8   7   1  553.14   24.20
   8   7   1  455.95   28.30
   9   7   1   25.30    7.00
  10   7   1   25.60    8.00
  10   7   1   23.50    5.00
  11   7   1   53.69   10.70
  11   7   1   42.80    6.90
  12   7   1   10.10    7.30
  12   7   1    2.00   11.50
   4  -8  -1    6.30    5.70
  -4   8   1   -1.80    9.20
   3  -8  -1   -1.80    4.40
  -3   8   1    8.70    7.50
   2  -8  -1  133.99    9.70
  -2   8   1  122.29   13.70
  -1  -8  -1  623.84   26.20
  -1  -8  -1  582.84   25.00
   1   8   1  578.84   25.10
  -2  -8  -1   71.89    5.80
   2   8   1   61.19    5.70
   2   8   1   72.49   11.10
  -3  -8  -1  210.88   10.50
   3   8   1  202.98   13.00
   3   8   1  200.18   10.10
   3   8   1  207.28    9.40
   3   8   1  181.78    9.90
  -4  -8  -1  198.68   10.30
   4   8   1  187.78    9.70
   4   8   1  205.08   10.30
   4   8   1  201.28    9.60
   4   8   1  214.08   12.90
  -5  -8  -1   39.30    4.50
   5   8   1   29.90    5.40
   5   8   1   28.60    3.20
   5   8   1   32.70    4.10
   5   8   1   26.70    3.70
  -6  -8  -1  130.09    7.70
   6   8   1  134.59   10.90
   6   8   1  137.29   10.70
   6   8   1  127.39    8.20
   6   8   1  121.19    6.80
  -7  -8  -1  471.55   20.40
   7   8   1  457.65   19.70
   7   8   1  458.45   21.00
   8   8   1    1.30    3.60
   8   8   1    3.20    6.00
   9   8   1   20.30    7.10
   9   8   1   16.20    4.50
  10   8   1   35.30    5.90
  10   8   1   52.89    9.20
  11   8   1    5.30    5.50
  11   8   1   10.10    9.90
  12   8   1   11.60    6.70
  12   8   1  -10.50   11.80
   3  -9  -1   43.50    9.30
   2  -9  -1  104.19   10.10
  -2   9   1   79.89   10.90
  -1   9   1   36.50    8.20
   0  -9  -1   97.29    8.50
   0   9   1   89.19   12.50
  -1  -9  -1  107.29    8.40
   2   9   1    4.30    3.20
  -3  -9  -1  179.38    9.60
   3   9   1  153.68    8.50
   3   9   1  149.79    9.30
   4   9   1   26.40    3.30
   4   9   1   18.70    4.00
  -5  -9  -1  111.89    7.60
   5   9   1  124.99   11.60
   5   9   1  102.39    6.90
   5   9   1  111.59    8.00
   5   9   1  101.99    7.20
  -6  -9  -1   -2.10    3.20
   6   9   1   10.30    5.90
   6   9   1    1.20    2.50
   6   9   1    5.20    3.40
  -7  -9  -1   -2.40    3.40
   7   9   1    2.30    3.60
   7   9   1    0.50    6.20
   7   9   1   -3.00    2.20
  -8  -9  -1   13.10    4.10
   8   9   1    2.00    2.40
   8   9   1   -3.40    6.50
   9   9   1   -1.40    4.40
   9   9   1   -6.30    7.10
  10   9   1   13.30    6.10
  10   9   1    5.70    8.70
  11   9   1   12.90   10.20
  11   9   1   17.90    6.80
   1 -10  -1   -2.00    6.50
  -1  10   1    2.40    8.90
   0 -10  -1   30.30    6.20
   0  10   1   41.90    9.20
  -1 -10  -1  120.29   12.50
   1  10   1   99.39   14.30
  -2 -10  -1    4.10    4.40
   2  10   1    0.80    6.50
  -3 -10  -1   38.80    5.40
   3  10   1   31.30    4.70
   3  10   1   21.60    7.30
   4  10   1   18.30    7.00
   4  10   1   18.50    4.10
   4  10   1   14.60    3.50
  -5 -10  -1   10.10    3.90
   5  10   1   -3.60    3.70
   5  10   1    2.60    6.60
  -6 -10  -1   -2.70    3.70
   6  10   1    4.60    4.00
   6  10   1  -13.00    6.60
  -7 -10  -1   51.79    7.20
   7  10   1   33.40    4.80
   7  10   1   37.50    5.80
   7  10   1   39.40    8.20
  -8 -10  -1   -0.30    4.50
   8  10   1    3.30    7.70
   9  10   1  161.38   12.60
   9  10   1  182.68   17.70
  10  10   1  -11.30    9.40
  10  10   1    8.90    6.10
  11  10   1    7.80    6.70
  11  10   1   16.10   11.10
  -1 -11  -1   -4.90    5.90
   1  11   1   -2.50    9.30
  -2 -11  -1   51.49    7.00
   2  11   1   38.30    9.50
  -3 -11  -1   39.40    7.00
   3  11   1   31.00    8.50
  -4 -11  -1   -3.30    4.80
   4  11   1    2.70    4.50
   4  11   1  -11.80    7.90
  -5 -11  -1    8.80    4.80
   5  11   1   -5.10    8.10
   5  11   1   -1.40    4.60
   6  11   1    7.40    8.70
  -7 -11  -1  124.19   13.80
   7  11   1   97.29   16.20
  -8 -11  -1   -2.50    5.40
   8  11   1    7.10    9.00
   8  11   1   -4.70    5.30
   9  11   1    2.00    6.10
   9  11   1   15.80    9.90
  10  11   1    6.40   11.10
  10  11   1    7.90    7.10
  -4 -12  -1   33.10    7.30
   4  12   1   37.30   10.40
  -5 -12  -1    4.50    6.30
   5  12   1    0.60    9.90
  -6 -12  -1    3.90    6.30
   6  12   1    7.80   10.20
  -7 -12  -1   12.40    7.30
   7  12   1  -17.40   10.50
   7  12   1    1.60    6.40
   8  12   1    7.00   11.60
   8  12   1   18.40    7.50
   9  11  -2   -2.70    6.70
   8  11  -2   -4.80    9.90
   8  11  -2   -2.00    5.90
   7  11  -2    2.20    9.50
   6  11  -2   15.30    5.70
   6  11  -2    7.50    9.70
  -6 -11   2   24.50    8.10
   5  11  -2   20.90    9.90
   4  11  -2   14.70    9.70
  -4 -11   2    6.90    5.20
   3  11  -2    7.30    9.80
  -3 -11   2   28.00    6.00
   2  11  -2   -6.60    9.20
  -2 -11   2    2.50    5.60
  10  10  -2   10.90   10.70
  10  10  -2    1.70    6.10
   9  10  -2  -11.20    9.10
   9  10  -2    7.60    5.20
   8  10  -2   10.50    5.00
   8  10  -2    4.20    8.50
   7  10  -2   19.00    8.30
  -7 -10   2   21.50    4.30
   6  10  -2  110.49    9.40
   6  10  -2  146.49   15.00
  -6 -10   2  123.99    8.60
   5  10  -2   11.50    4.20
   5  10  -2   11.40    8.00
  -5 -10   2   11.00    4.10
   4  10  -2   14.60    8.00
  -4 -10   2   18.70    4.20
   3  10  -2   13.40    7.80
  -3 -10   2   14.20    4.30
   2  10  -2   37.80    8.90
  -2 -10   2   38.80    5.70
   1  10  -2   29.80    8.70
  -1 -10   2   13.90    4.90
   0  10  -2  142.79   17.50
   0 -10   2  126.89   10.90
  11   9  -2   17.30    7.00
  10   9  -2   39.40    6.90
  10   9  -2   31.60   10.00
   9   9  -2   13.80    5.00
   9   9  -2   14.20    8.60
   8   9  -2   11.10    7.40
   7   9  -2  189.88   11.00
   7   9  -2  199.68   15.80
   6   9  -2   70.19   11.50
   6   9  -2   65.09    6.50
   6   9  -2   48.00    5.30
  -6  -9   2   58.69    5.60
   5   9  -2   50.49    5.90
   5   9  -2   49.20    6.00
   5   9  -2   66.99    6.20
  -5  -9   2   69.99    5.70
   4   9  -2   13.20    3.40
   4   9  -2   10.70    2.80
  -4  -9   2   22.60    3.60
  -3  -9   2  106.29    7.30
   2   9  -2  275.27   17.50
   1   9  -2   37.30    7.20
  -1  -9   2   32.60    4.60
   0   9  -2   49.10    8.80
   0  -9   2   53.39    7.10
  -1   9  -2   64.69    9.50
   1  -9   2   64.89    8.30
  -2   9  -2   -3.50    8.70
   2  -9   2    7.70    4.90
  11   8  -2   -8.90   10.20
  10   8  -2   -6.00    8.60
 -10  -8   2    2.10    4.00
   9   8  -2   -9.00    7.20
   8   8  -2   22.10    7.10
   7   8  -2  196.58   11.00
   6   8  -2  190.68   13.80
   6   8  -2  190.88    9.80
   6   8  -2  157.98    9.70
   5   8  -2   37.40    4.20
   5   8  -2   38.70    5.00
   5   8  -2   42.20    8.00
   5   8  -2   44.00    5.00
  -5  -8   2   45.50    4.40
   4   8  -2    9.50    2.60
   4   8  -2   12.50    5.10
   4   8  -2    8.90    2.50
   4   8  -2   11.60    2.70
  -4  -8   2   10.70    2.50
   3   8  -2  891.31   40.10
   3   8  -2  952.40   42.00
  -3  -8   2 1035.10   40.10
   2   8  -2  108.09   12.60
  -2  -8   2  108.29    6.90
   1   8  -2   -1.90    5.40
  -1   8  -2   16.90    6.80
   1  -8   2   16.40    4.20
  -2   8  -2   16.70    7.60
   2  -8   2   29.40    5.40
  -3   8  -2  240.98   18.90
   3  -8   2  230.28   14.20
  -4   8  -2   -0.80   10.20
   4  -8   2    9.30    9.20
  11   7  -2   -3.40    9.70
 -11  -7   2    2.50    4.70
  10   7  -2  -11.30    7.90
 -10  -7   2    5.20    3.80
   9   7  -2    2.40    6.80
  -9  -7   2    3.00    3.20
  -8  -7   2  337.67   15.70
  -7  -7   2 1296.07   53.29
   6   7  -2    6.30    4.50
   6   7  -2    3.50    2.40
  -6  -7   2   10.00    2.10
   5   7  -2  102.09    9.40
   5   7  -2  119.59    6.60
   5   7  -2  120.69    6.90
   5   7  -2  113.19    6.10
  -5  -7   2  117.39    6.10
   4   7  -2    3.30    1.80
   4   7  -2    4.80    2.00
   4   7  -2    7.50    2.00
   4   7  -2    6.60    4.00
  -4  -7   2    2.30    1.80
   3   7  -2   52.09    4.40
   3   7  -2   51.59    6.00
   3   7  -2   50.69    3.90
   3   7  -2   54.99    4.10
  -3  -7   2   53.69    4.10
  -3  -7   2   44.10    6.40
   2   7  -2  112.49    7.10
   2   7  -2  128.59    9.90
  -2  -7   2  121.19    6.80
   1   7  -2 1213.88   52.39
  -1  -7   2 1254.47   50.99
   0   7  -2   53.79    6.50
   0  -7   2   50.89    4.90
   1  -7   2    0.50    2.80
   2  -7   2  142.89    9.50
  -3   7  -2   95.19   12.80
   3  -7   2   92.89    7.90
  -4   7  -2    1.70    8.00
   4  -7   2    1.60    4.20
  -5   7  -2   23.40   10.80
   5  -7   2   29.40    6.30
  11   6  -2   13.60   10.10
 -11  -6   2   19.00    5.10
  10   6  -2   58.89    9.40
 -10  -6   2   37.90    5.20
   9   6  -2   84.19   13.60
  -9  -6   2   80.89    7.10
  -8  -6   2  152.28    9.50
   7   6  -2  136.49   10.80
  -7  -6   2  128.19    7.30
   6   6  -2    7.50    2.30
   6   6  -2   11.60    4.20
  -6  -6   2    7.80    2.00
   5   6  -2  621.14   26.20
   5   6  -2  645.54   28.10
  -5  -6   2  587.34   28.40
  -5  -6   2  650.73   26.20
   4   6  -2  906.61   38.90
   4   6  -2  918.41   37.10
   4   6  -2  910.31   37.10
  -4  -6   2  919.61   37.00
  -4  -6   2  864.81   39.00
  -4  -6   2  911.41   37.00
   3   6  -2  131.09    6.40
   3   6  -2  122.19    8.80
   3   6  -2  131.49    6.40
   3   6  -2  133.99    6.70
  -3  -6   2  129.79    6.50
  -3  -6   2  128.79    9.30
   2   6  -2    3.50    3.40
   2   6  -2    5.70    2.10
  -2  -6   2    3.40    1.60
  -2  -6   2    6.90    3.80
   1   6  -2    4.20    3.50
   1   6  -2    5.80    2.00
  -1  -6   2    2.60    1.50
  -1  -6   2    4.30    3.80
   0   6  -2  229.98   12.70
   0   6  -2  212.98   11.10
   0  -6   2  236.78   10.80
   0  -6   2  216.68   13.00
  -1   6  -2    3.00    4.00
   1  -6   2   -1.50    1.80
  -2   6  -2   15.90    4.70
  -3   6  -2  222.18   14.70
  -4   6  -2   59.19    8.50
   4  -6   2   75.89    6.90
  -5   6  -2   20.50    8.70
   5  -6   2   24.40    4.80
  -6   6  -2   -9.40    9.80
   6  -6   2   -4.10    5.20
  11   5  -2   49.40   10.60
 -11  -5   2   61.49    8.50
  10   5  -2   24.30    8.20
   7   5  -2  547.25   25.50
  -7  -5   2  538.05   23.30
   6   5  -2  139.19    7.50
   6   5  -2  145.59    9.80
  -6  -5   2  118.39   10.70
  -6  -5   2  153.68    7.30
   5   5  -2  558.74   24.70
   5   5  -2  549.85   23.00
  -5  -5   2  514.95   24.90
  -5  -5   2  565.84   23.00
   4   5  -2  749.92   30.80
   4   5  -2  750.02   32.20
  -4  -5   2  754.82   30.70
  -4  -5   2  735.83   32.50
   3   5  -2   16.20    2.30
   3   5  -2   17.00    3.30
   3   5  -2   19.10    2.00
  -3  -5   2   15.40    1.80
  -3  -5   2   18.70    3.40
  -3  -5   2   15.80    1.70
   2   5  -2  424.56   17.60
   2   5  -2  411.06   17.10
   2   5  -2  396.16   17.50
   2   5  -2  422.56   18.80
  -2  -5   2  411.16   19.00
  -2  -5   2  411.46   17.40
   1   5  -2 1543.15   63.89
   1   5  -2 1581.14   63.09
  -1  -5   2 1504.65   63.89
  -1  -5   2 1577.14   62.89
   0   5  -2   99.79    7.60
   0   5  -2   93.69    5.80
   0  -5   2   91.29    7.40
   0  -5   2   98.39    5.40
  -1   5  -2  168.58    9.90
  -1   5  -2  157.18    8.60
   1  -5   2  167.08    8.20
   1  -5   2  153.38   10.10
  -2   5  -2  222.48   12.30
   2  -5   2  228.18   10.60
   2  -5   2  192.98   12.80
  -3   5  -2   49.80    8.20
   3  -5   2   56.79    4.90
   4  -5   2   -1.50    2.60
  -5   5  -2   45.20    7.70
   5  -5   2   26.80    4.00
  -6   5  -2    0.70    8.00
   6  -5   2   12.10    4.10
  -7   5  -2   70.09   12.10
   7  -5   2   70.79    9.70
  11   4  -2   20.90    9.60
 -11  -4   2   19.30    5.30
  10   4  -2    3.10    7.80
 -10  -4   2   14.40    4.00
   7   4  -2   -1.80    4.00
  -7  -4   2   -2.10    1.90
   6   4  -2    3.40    3.30
   6   4  -2    3.20    1.90
  -6  -4   2    0.90    1.60
  -6  -4   2    1.20    4.10
   5   4  -2  250.17   11.20
   5   4  -2  259.37   12.80
  -5  -4   2  226.88   13.10
  -5  -4   2  253.77   11.10
   4   4  -2  143.59    6.60
   4   4  -2  135.29    7.90
  -4  -4   2  130.89    6.40
  -4  -4   2  130.89    8.50
   3   4  -2   84.19    4.40
   3   4  -2   84.89    4.20
   3   4  -2   87.29    5.90
  -3  -4   2   95.79    6.50
  -3  -4   2   85.29    4.30
  -3  -4   2   84.09    4.20
   2   4  -2  106.49    5.30
   2   4  -2  117.49    6.60
   2   4  -2  107.69    5.00
  -2  -4   2  109.99    6.90
  -2  -4   2   95.39    5.00
  -2  -4   2  106.59    5.10
   1   4  -2   61.99    5.20
   1   4  -2   65.79    3.90
  -1  -4   2   74.89    5.50
  -1  -4   2   65.49    3.70
   0   4  -2   90.39    5.30
   0   4  -2  105.19    6.50
   0  -4   2   95.79    6.40
   0  -4   2   88.79    4.90
  -1   4  -2  326.27   14.80
  -1   4  -2  336.07   15.40
   1  -4   2  327.67   14.40
   1  -4   2  331.17   15.50
  -2   4  -2   27.80    3.50
  -2   4  -2   28.40    3.70
   2  -4   2   26.70    4.20
   2  -4   2   27.20    2.90
  -3   4  -2  408.26   19.40
  -3   4  -2  464.15   20.30
   3  -4   2  440.86   19.00
   3  -4   2  417.76   20.40
  -4   4  -2  207.98   12.40
   4  -4   2  192.98   10.00
  -5   4  -2  185.18   14.50
   5  -4   2  194.08   10.20
  -6   4  -2   -3.80    6.40
   6  -4   2   -6.40    3.10
  -7   4  -2   71.49   10.60
   7  -4   2   76.29    8.00
  -8   4  -2    0.80   10.90
   8  -4   2    4.90    5.30
  11   3  -2   38.60   11.10
  10   3  -2   43.00    9.10
 -10  -3   2   37.60    5.00
  -9  -3   2   -6.70    2.90
   7   3  -2   -1.60    3.80
  -7  -3   2   -4.60    1.90
   6   3  -2  309.87   15.40
   6   3  -2  290.17   15.20
   6   3  -2  299.17   13.60
  -6  -3   2  314.17   13.60
   5   3  -2  259.57   13.00
   5   3  -2  261.87   11.60
  -5  -3   2  252.77   13.30
  -5  -3   2  259.07   11.60
   4   3  -2 2918.11  118.29
   4   3  -2 2938.41  117.29
  -4  -3   2 2863.81  117.29
  -4  -3   2 2977.50  118.39
   3   3  -2  300.57   13.70
   3   3  -2  296.17   12.80
  -3  -3   2  300.47   12.80
  -3  -3   2  311.27   14.00
   2   3  -2 1089.09   42.60
   2   3  -2 1046.00   41.70
  -2  -3   2 1020.30   41.60
  -2  -3   2  980.70   41.90
   1   3  -2   12.30    1.70
   1   3  -2   11.20    2.10
  -1  -3   2   14.90    2.40
  -1  -3   2   11.50    1.40
   0   3  -2   58.79    3.70
   0   3  -2   64.89    4.60
   0  -3   2   63.29    3.40
  -1   3  -2    0.00    1.90
  -1   3  -2    3.80    1.40
   1  -3   2   -1.60    2.10
   1  -3   2    0.40    0.90
  -2   3  -2  134.69    7.00
  -2   3  -2  136.59    7.70
   2  -3   2  135.39    7.90
   2  -3   2  128.39    6.50
  -3   3  -2    0.80    1.90
  -3   3  -2    2.50    2.60
   3  -3   2    3.00    3.30
   3  -3   2    0.30    1.30
  -4   3  -2   11.30    3.00
  -4   3  -2    8.70    3.70
   4  -3   2    8.20    1.90
   4  -3   2    4.40    4.10
  -5   3  -2    3.20    4.20
   5  -3   2   -2.20    2.10
   6  -3   2  112.99    8.00
  -7   3  -2    4.70    7.20
   7  -3   2    4.20    3.20
  -8   3  -2   17.00    9.20
   8  -3   2    4.80    4.30
   8  -3   2   -9.00    4.50
  11   2  -2   -2.60   10.60
 -11  -2   2   -3.50    4.70
  10   2  -2   10.80    8.70
 -10  -2   2   17.80    4.70
  -9  -2   2  178.08   10.30
   7   2  -2  474.25   23.00
  -7  -2   2  479.65   20.80
   6   2  -2  545.55   24.50
   6   2  -2  540.45   24.80
   6   2  -2  531.75   23.10
  -6  -2   2  550.94   23.10
   5   2  -2  719.33   31.50
   5   2  -2  736.73   30.40
   5   2  -2  735.93   31.70
  -5  -2   2  740.83   30.40
   4   2  -2 1704.83   72.09
   4   2  -2 1825.82   71.29
  -4  -2   2 1768.12   71.29
   3   2  -2  464.75   19.20
   3   2  -2  459.95   20.00
  -3  -2   2  460.85   20.10
  -3  -2   2  467.35   19.20
   2   2  -2   93.89    4.70
   2   2  -2  106.09    5.50
  -2  -2   2   96.69    4.70
  -2  -2   2  108.49    5.70
   1   2  -2 1165.28   53.89
   1   2  -2 1480.05   54.49
  -1  -2   2 1297.67   53.79
  -1  -2   2 1305.27   53.99
  -1  -2   2 1367.06   53.99
  -1  -2   2 1447.56   54.39
   0   2  -2  347.17   14.40
   0  -2   2  345.87   14.40
   0  -2   2  312.67   14.00
  -1   2  -2  555.64   22.90
  -1   2  -2  528.15   22.70
   1  -2   2  539.85   22.60
   1  -2   2  555.64   22.80
  -2   2  -2   83.49    4.80
  -2   2  -2   89.19    5.30
   2  -2   2   83.79    4.50
   2  -2   2   87.59    5.50
  -3   2  -2    2.80    2.20
   3  -2   2    3.70    2.50
   3  -2   2    0.30    1.10
  -4   2  -2  174.58    9.80
   4  -2   2  176.58    9.00
   4  -2   2  179.48   10.10
   4  -2   2  172.38    8.50
  -5   2  -2  131.49    9.30
  -5   2  -2  124.29    6.20
   5  -2   2  134.89    6.80
   5  -2   2  107.69    9.30
   5  -2   2  115.39    7.50
   5  -2   2  123.49    6.40
  -6   2  -2    0.40    4.50
  -6   2  -2   -0.60    2.00
   6  -2   2    3.70    2.20
   6  -2   2   -1.40    2.40
  -7   2  -2   28.50    6.80
   7  -2   2   23.30    3.70
  -8   2  -2  156.58   16.00
   8  -2   2  155.88    9.70
  -9   2  -2    0.20    9.30
   9  -2   2    1.50    4.60
   9  -2   2    1.70    6.10
  10   1  -2    6.30    9.70
 -10  -1   2   13.50    4.60
  -9  -1   2  236.48   12.60
  -8  -1   2   58.69    6.30
   7   1  -2   46.40    6.40
  -7  -1   2   38.70    4.40
   6   1  -2    2.00    2.00
   6   1  -2    6.30    3.80
   6   1  -2    1.90    3.80
  -6  -1   2    6.90    2.00
   5   1  -2  254.57   13.10
   5   1  -2  252.17   13.00
  -5  -1   2  261.47   11.60
   4   1  -2  780.82   31.90
   4   1  -2  753.72   31.00
   4   1  -2  732.13   31.90
  -4  -1   2  739.73   30.90
   3   1  -2  291.87   13.10
   3   1  -2  301.97   12.50
   3   1  -2  282.07   13.10
  -3  -1   2  285.87   12.30
   2   1  -2 5660.13  245.98
   2   1  -2 6395.16  244.88
  -2  -1   2 6054.79  244.78
  -2  -1   2 6432.16  245.28
   1   1  -2  492.45   19.20
   1   1  -2  435.76   18.90
   1   1  -2  449.16   18.80
  -1  -1   2  474.95   18.90
  -1  -1   2  493.75   19.20
  -1  -1   2  432.76   18.80
   0   1  -2 2304.17   92.29
   0   1  -2 2321.17   92.09
   0  -1   2 2238.68   92.09
   0  -1   2 2363.96   92.39
   1  -1   2 1020.40   42.80
   1  -1   2 1091.79   42.80
  -2   1  -2 1678.63   74.49
   2  -1   2 1829.02   74.19
   2  -1   2 1955.80   74.29
   2  -1   2 1905.41   74.29
  -3   1  -2   24.80    3.50
   3  -1   2   21.10    2.40
   3  -1   2   27.70    3.50
   3  -1   2   24.10    2.70
   3  -1   2   23.00    2.30
   3  -1   2   27.00    1.90
  -4   1  -2  526.95   22.90
   4  -1   2  550.04   22.90
   4  -1   2  505.35   21.70
   4  -1   2  530.45   22.40
   4  -1   2  518.25   22.10
  -5   1  -2  154.88    7.30
  -5   1  -2  147.59    9.50
   5  -1   2  162.58    8.30
   5  -1   2  153.88    7.30
   5  -1   2  154.08    9.50
   5  -1   2  152.58    7.70
  -6   1  -2    6.30    4.10
  -6   1  -2   -0.70    1.80
   6  -1   2    1.70    1.90
   6  -1   2    3.90    3.10
   6  -1   2    1.70    1.80
   6  -1   2   -4.80    4.40
  -7   1  -2  231.88   14.60
  -7   1  -2  218.28   10.90
   7  -1   2  248.28   11.20
   7  -1   2  212.18   10.90
   8  -1   2   94.89    9.00
   8  -1   2  107.99    8.50
   9  -1   2    8.80    3.90
  10  -1   2   46.80    6.20
  10  -1   2   34.80    7.30
  10  -1   2   63.09   14.60
  10   0  -2  107.09   14.00
 -10   0   2   95.59    9.80
   9   0  -2  247.58   12.40
   9   0  -2  259.27   20.20
  -9   0   2  257.77   13.60
   8   0  -2   69.19    5.30
  -8   0   2   64.89    7.20
   7   0  -2   38.10    3.60
  -7   0   2   26.50    3.30
  -7   0   2   30.60    3.80
   6   0  -2    8.80    4.40
   6   0  -2    6.50    1.70
   6   0  -2    3.70    2.60
  -6   0   2    4.80    1.70
  -6   0   2    5.60    2.20
   5   0  -2   91.49    5.70
   5   0  -2   96.29    4.70
   5   0  -2   82.49    7.40
  -5   0   2   93.69    5.10
  -5   0   2   93.79    7.00
  -5   0   2   89.29    5.30
   4   0  -2 1391.16   55.49
   4   0  -2 1388.56   56.39
   4   0  -2 1388.96   55.09
  -4   0   2 1338.17   56.39
  -4   0   2 1394.76   54.99
  -4   0   2 1302.27   55.39
   3   0  -2    8.90    1.20
   3   0  -2    5.70    1.30
   3   0  -2    5.40    2.00
  -3   0   2    7.50    1.90
  -3   0   2    7.00    1.00
  -3   0   2    6.60    1.20
   2   0  -2    8.80    1.30
   2   0  -2    9.60    1.20
   2   0  -2   11.10    1.70
  -2   0   2    7.60    1.20
  -2   0   2   10.40    1.70
  -2   0   2    9.50    1.10
   1   0  -2 1122.89   45.60
   1   0  -2 1117.89   45.50
   1   0  -2 1157.18   45.60
  -1   0   2 1113.39   45.50
  -1   0   2 1144.59   45.50
   0   0  -2 1034.60   43.10
   0   0  -2 1111.89   43.00
   0   0   2 1114.79   43.00
   0   0   2 1018.30   43.10
  -1   0  -2  643.14   25.50
  -1   0  -2  601.24   25.60
   1   0   2  637.34   25.70
   1   0   2  632.14   25.40
  -3   0  -2 1052.29   43.90
   3   0   2 1124.09   43.80
   3   0   2 1095.69   43.30
   3   0   2 1074.29   44.00
   3   0   2 1023.50   43.70
  -4   0  -2  333.47   15.40
   4   0   2  349.87   14.90
   4   0   2  352.46   15.10
   4   0   2  342.77   15.40
  -5   0  -2   31.80    5.10
  -5   0  -2   37.40    3.00
   5   0   2   32.70    3.20
   5   0   2   31.20    3.90
   5   0   2   37.00    5.40
   5   0   2   31.80    3.00
  -6   0  -2    4.20    3.40
  -6   0  -2    4.30    1.80
   6   0   2    8.50    3.60
   6   0   2   -0.20    2.60
   6   0   2    3.50    1.90
   6   0   2    3.20    1.60
  -7   0  -2  138.09    7.10
   7   0   2  125.19    7.00
   7   0   2  111.99    6.90
   7   0   2  124.29    8.10
   8   0   2   96.99    6.40
   9   0   2   23.10    9.20
   9   0   2   25.70    4.30
  10   0   2  -10.30   10.80
  10   0   2    0.30    4.00
  10   0   2   -4.10    5.70
 -10   1   2   -1.40    5.50
   9  -1  -2  201.08   19.10
   9  -1  -2  162.38   10.20
  -9   1   2  173.68   11.20
   8  -1  -2   73.79    6.20
  -8   1   2   60.99    7.70
   7  -1  -2   29.90    4.20
  -7   1   2   30.20    4.00
  -7   1   2   32.00    3.90
   6  -1  -2  336.17   15.90
   6  -1  -2  362.06   15.40
  -6   1   2  347.27   15.40
  -6   1   2  345.77   18.00
  -6   1   2  349.37   15.70
   5  -1  -2  129.49    9.00
   5  -1  -2  121.09    6.90
   5  -1  -2  124.79    6.30
  -5   1   2  123.39    8.70
  -5   1   2  128.49    6.30
  -5   1   2  119.49    6.70
   4  -1  -2    2.30    1.70
   4  -1  -2    0.60    3.10
   4  -1  -2    5.30    1.40
  -4   1   2    2.50    2.60
  -4   1   2    4.60    1.30
  -4   1   2    1.30    1.50
   3  -1  -2 1221.88   48.30
   3  -1  -2 1215.78   48.40
   3  -1  -2 1225.48   49.10
  -3   1   2 1147.39   48.50
  -3   1   2 1177.18   49.20
  -3   1   2 1163.18   48.30
   2  -1  -2  386.06   18.50
  -2   1   2  454.35   18.30
  -2   1   2  451.75   18.90
  -2   1   2  468.75   18.20
   1  -1  -2 1496.65   60.69
   1  -1  -2 1489.35   60.59
   1  -1  -2 1579.04   60.89
  -1   1   2 1490.85   60.59
  -1   1   2 1484.35   60.89
   0  -1  -2  309.17   13.40
   0  -1  -2  337.27   13.50
   0   1   2  319.27   13.40
   0   1   2  323.57   13.40
  -1  -1  -2 1181.98   45.20
  -1  -1  -2 1056.19   45.20
   1   1   2 1079.89   45.20
   1   1   2 1163.98   45.20
   2   1   2 9750.72  388.76
  -3  -1  -2 4528.75  197.28
   3   1   2 4942.01  197.28
   3   1   2 4926.61  197.08
   3   1   2 5072.19  197.48
   3   1   2 5197.28  197.48
   3   1   2 4966.60  197.58
  -4  -1  -2  176.08    8.20
   4   1   2  186.88    8.10
   4   1   2  177.48    8.20
   4   1   2  178.38    9.00
   4   1   2  186.88    8.50
   5   1   2  763.62   32.80
   5   1   2  777.02   32.00
   5   1   2  761.92   31.70
   5   1   2  775.52   32.60
   5   1   2  791.02   32.20
   6   1   2    3.80    1.80
   6   1   2    5.60    1.80
   6   1   2    0.00    2.40
   6   1   2    5.10    3.40
   6   1   2    2.40    3.60
  -7  -1  -2  115.09    6.50
   7   1   2  104.09    7.30
   7   1   2  120.29    6.30
   7   1   2  121.79    9.90
   7   1   2  115.09    9.90
   7   1   2  115.69    6.70
   8   1   2   38.90    4.50
   8   1   2   46.60    7.30
   8   1   2   60.49    6.70
   9   1   2   10.20    7.40
   9   1   2    6.00    2.80
  10   1   2   -3.90    5.40
  10   1   2    3.20    3.60
  10   1   2   -0.30    9.60
  11   1   2   28.50    5.30
  11   1   2    0.20   13.10
  11   1   2   21.80    7.80
   9  -2  -2    8.00    4.80
  -9   2   2   10.60    5.00
   8  -2  -2    9.60    3.90
  -8   2   2   12.20    7.70
   7  -2  -2    3.60    2.70
  -7   2   2    1.60    2.90
   6  -2  -2   55.39    7.20
   6  -2  -2   59.49    5.00
  -6   2   2   62.39    5.60
  -6   2   2   58.09    5.30
   5  -2  -2  252.87   11.30
   5  -2  -2  239.08   11.60
  -5   2   2  239.38   13.50
  -5   2   2  233.48   11.10
  -5   2   2  240.88   11.30
   4  -2  -2  346.87   15.00
   4  -2  -2  351.16   15.20
   4  -2  -2  339.57   16.50
  -4   2   2  334.97   14.90
  -4   2   2  341.57   14.90
  -4   2   2  341.57   16.50
   3  -2  -2 3342.07  132.69
   3  -2  -2 3250.97  131.89
   3  -2  -2 3384.56  131.99
  -3   2   2 3231.78  131.79
  -3   2   2 3199.78  132.79
  -3   2   2 3316.57  131.79
   2  -2  -2  321.67   14.60
   2  -2  -2  353.26   15.40
   2  -2  -2  361.66   14.70
  -2   2   2  338.67   15.30
  -2   2   2  345.27   14.60
  -2   2   2  339.87   14.50
   1  -2  -2   57.19    4.20
   1  -2  -2   57.19    3.50
   1  -2  -2   55.89    3.20
  -1   2   2   52.89    3.80
  -1   2   2   57.09    3.30
  -1   2   2   56.79    3.10
   0  -2  -2 2326.67   89.89
   0  -2  -2 2132.89   89.89
   0  -2  -2 2388.16   90.09
   0   2   2 2249.18   89.99
   0   2   2 2109.69   89.89
  -1  -2  -2 1705.73   77.69
  -1  -2  -2 2044.50   77.49
  -1  -2  -2 2031.40   77.49
   1   2   2 1860.91   77.49
   1   2   2 2002.30   77.49
  -2  -2  -2  705.93   28.10
   2   2   2  637.94   28.10
   2   2   2  718.93   28.20
  -3  -2  -2 2595.04  102.69
  -3  -2  -2 2546.65  102.69
   3   2   2 2522.95  102.69
   3   2   2 2523.75  102.49
   3   2   2 2587.94  102.59
   4   2   2  297.67   12.30
   4   2   2  275.97   12.40
   4   2   2  291.87   12.60
   4   2   2  280.77   13.00
  -5  -2  -2  311.87   14.30
   5   2   2  324.27   14.40
   5   2   2  334.77   14.30
   5   2   2  334.37   15.30
   5   2   2  337.27   14.60
   5   2   2  351.76   15.40
   6   2   2  172.28    8.60
   6   2   2  171.18   10.20
   6   2   2  188.78    9.00
   6   2   2  170.68   10.30
   6   2   2  184.78    9.00
   6   2   2  197.78    8.70
   7   2   2  222.68    9.70
   7   2   2  194.58   10.20
   7   2   2  196.28   12.10
   7   2   2  199.58    9.90
   7   2   2  203.48   12.10
   8   2   2   -3.40    3.40
   8   2   2    0.10    5.20
   8   2   2    2.00    2.10
   9   2   2  153.08    7.90
   9   2   2  135.69   13.90
   9   2   2  119.99    9.90
  10   2   2    8.80    5.30
  10   2   2   13.40    8.90
  10   2   2   16.80    3.60
  11   2   2   33.10    5.20
  11   2   2   28.60   12.30
  11   2   2   51.99    8.10
   8  -3  -2   88.19    8.80
  -8   3   2  121.29   17.40
  -8   3   2   91.19    9.20
   7  -3  -2    1.40    3.60
  -7   3   2    6.10    7.10
   6  -3  -2   38.10    4.40
  -6   3   2   31.60    4.00
   5  -3  -2  210.48   10.60
   5  -3  -2  206.88   10.10
  -5   3   2  184.38   13.90
  -5   3   2  188.98   10.20
  -5   3   2  209.98   10.00
   4  -3  -2    1.60    2.50
   4  -3  -2   -0.40    1.80
   4  -3  -2   -0.90    4.70
  -4   3   2    5.10    1.90
  -4   3   2   -0.20    3.20
  -4   3   2    4.40    1.90
   3  -3  -2   33.00    3.90
   3  -3  -2   28.20    3.10
   3  -3  -2   34.30    4.50
  -3   3   2   39.20    3.40
  -3   3   2   26.10    3.90
  -3   3   2   30.30    3.30
   2  -3  -2 1591.74   67.69
   2  -3  -2 1727.63   67.59
   2  -3  -2 1685.43   68.39
  -2   3   2 1665.03   68.39
  -2   3   2 1673.63   67.59
  -2   3   2 1681.63   67.39
   1  -3  -2    7.80    1.50
   1  -3  -2    7.10    2.50
   1  -3  -2    8.90    1.80
  -1   3   2    6.10    1.80
  -1   3   2    8.80    1.40
  -1   3   2    8.80    1.60
   0  -3  -2 3451.05  143.99
   0  -3  -2 3853.61  143.89
   0  -3  -2 3359.56  144.99
   0   3   2 3775.42  144.29
   0   3   2 3504.65  143.89
   0   3   2 3615.34  143.89
  -1  -3  -2    4.60    1.30
  -1  -3  -2    2.20    1.60
  -1  -3  -2    3.10    1.00
   1   3   2    4.00    1.50
   1   3   2    5.20    1.20
  -2  -3  -2    4.50    1.60
  -2  -3  -2    4.00    1.10
  -2  -3  -2    4.40    1.20
   2   3   2    5.30    1.70
   2   3   2    4.00    1.20
   2   3   2    3.10    1.00
  -3  -3  -2   -0.70    1.80
  -3  -3  -2    0.30    1.30
  -3  -3  -2    1.60    1.20
   3   3   2    0.40    1.10
   3   3   2   -1.30    1.50
   3   3   2    0.40    1.10
  -4  -3  -2  359.76   15.90
  -4  -3  -2  336.47   15.20
   4   3   2  363.16   15.20
   4   3   2  349.57   15.30
   4   3   2  368.56   15.10
   4   3   2  356.76   15.70
  -5  -3  -2  279.27   13.20
  -5  -3  -2  270.97   12.10
   5   3   2  275.47   12.20
   5   3   2  263.47   12.50
   5   3   2  278.27   12.00
   5   3   2  277.57   13.00
  -6  -3  -2    3.70    1.60
   6   3   2    4.00    2.80
   6   3   2    4.50    2.20
   6   3   2    3.30    1.80
   6   3   2    2.80    3.20
   6   3   2    1.20    1.80
   7   3   2   14.90    2.50
   7   3   2   15.20    4.40
   7   3   2   13.40    4.00
   7   3   2   18.50    2.90
   7   3   2   23.20    3.30
   8   3   2  410.16   18.30
   8   3   2  366.36   17.90
   8   3   2  413.76   20.30
   8   3   2  414.96   17.50
   9   3   2    3.20    2.40
   9   3   2    3.90    4.20
  10   3   2   13.00    4.90
  10   3   2    6.60    6.80
  10   3   2   15.10    7.90
  10   3   2    5.70    3.00
  11   3   2   13.10    9.80
  11   3   2   15.90    6.40
  11   3   2    2.10    3.60
   8  -4  -2   31.30    6.30
  -8   4   2   32.70   12.30
  -8   4   2   33.50    6.40
   7  -4  -2   65.69    8.00
  -7   4   2   58.49    9.90
  -7   4   2   72.19    8.90
   6  -4  -2  193.48   11.00
  -6   4   2  191.38   10.50
   5  -4  -2   -2.90    4.00
   5  -4  -2    1.90    2.70
  -5   4   2   -0.90    2.70
   4  -4  -2    3.20    3.00
   4  -4  -2   -0.40    2.30
  -4   4   2    2.30    2.30
  -4   4   2    0.00    4.00
   3  -4  -2  107.69    6.60
   3  -4  -2  100.19    6.10
  -3   4   2   97.89    6.10
  -3   4   2  106.69    8.10
  -3   4   2  105.89    5.90
   2  -4  -2  341.97   14.40
   2  -4  -2  302.67   15.70
   2  -4  -2  324.57   14.40
  -2   4   2  311.27   14.30
  -2   4   2  320.57   15.30
  -2   4   2  329.67   14.00
   1  -4  -2 1157.58   45.00
   1  -4  -2 1096.09   45.30
   1  -4  -2 1063.29   45.90
  -1   4   2 1116.69   45.10
  -1   4   2 1080.39   45.70
   0  -4  -2 1153.48   49.70
   0  -4  -2 1261.57   49.00
   0  -4  -2 1185.98   49.20
   0   4   2 1219.08   49.10
   0   4   2 1226.08   48.90
   0   4   2 1181.48   49.60
  -1  -4  -2  411.56   17.60
  -1  -4  -2  416.66   17.60
  -1  -4  -2  411.36   18.20
   1   4   2  418.96   18.10
   1   4   2  407.96   17.50
   1   4   2  414.06   17.50
  -2  -4  -2  655.23   27.80
  -2  -4  -2  625.54   27.40
  -2  -4  -2  670.83   27.30
   2   4   2  669.43   27.40
   2   4   2  649.64   27.30
   2   4   2  697.23   27.90
  -3  -4  -2   53.49    4.70
  -3  -4  -2   57.19    3.80
  -3  -4  -2   54.29    3.50
   3   4   2   55.19    3.70
   3   4   2   52.19    3.30
   3   4   2   53.19    4.30
  -4  -4  -2   11.10    2.70
  -4  -4  -2   10.10    1.80
   4   4   2    8.40    2.20
   4   4   2   12.90    1.80
   4   4   2   12.00    1.60
  -5  -4  -2    2.90    2.90
  -5  -4  -2    1.90    1.70
   5   4   2   -1.10    1.40
   5   4   2   -1.70    2.20
   5   4   2    0.50    1.50
   5   4   2    3.70    1.50
  -6  -4  -2  353.66   16.50
  -6  -4  -2  328.17   14.70
   6   4   2  328.17   15.00
   6   4   2  348.77   16.20
   6   4   2  333.07   14.70
   6   4   2  328.27   14.70
  -7  -4  -2    7.70    2.20
   7   4   2    5.00    2.40
   7   4   2    8.00    2.50
   7   4   2   10.00    3.80
   7   4   2    5.20    2.40
   8   4   2    3.40    4.40
   8   4   2    2.60    2.80
   8   4   2    0.40    3.00
   9   4   2  260.47   15.80
   9   4   2  219.38   10.90
   9   4   2  218.58   11.90
   9   4   2  232.08   12.90
  10   4   2   -4.80    7.00
  10   4   2   -2.90    2.60
  10   4   2   -2.90    4.90
  10   4   2    0.20    4.40
  11   4   2   25.50    9.80
  11   4   2   16.70    6.10
  11   4   2   20.40    3.70
  12   4   2  120.09   14.50
  12   4   2  115.69   15.80
   7  -5  -2   -1.70    5.50
  -7   5   2   -5.70    9.00
   6  -5  -2   10.40    4.70
  -6   5   2    3.00    4.10
  -6   5   2   -1.70    7.40
   5  -5  -2   19.00    6.20
   5  -5  -2   16.90    4.10
  -5   5   2   14.80    3.50
   4  -5  -2   12.60    4.30
  -4   5   2   24.10    3.30
   3  -5  -2  366.06   17.10
   3  -5  -2  372.96   16.90
  -3   5   2  396.06   16.40
  -3   5   2  359.06   18.70
   2  -5  -2  128.49    7.20
   2  -5  -2  111.09   10.10
   2  -5  -2  127.29    7.30
  -2   5   2  117.29    8.90
  -2   5   2  112.29    7.00
  -2   5   2  132.29    6.70
   1  -5  -2   53.49    7.20
   1  -5  -2   50.09    5.00
   1  -5  -2   58.99    4.40
  -1   5   2   59.69    4.30
  -1   5   2   53.09    4.20
  -1   5   2   50.89    5.90
   0  -5  -2  172.68    8.60
   0  -5  -2  180.88    8.60
   0  -5  -2  168.08   10.30
   0   5   2  172.18    9.50
   0   5   2  179.28    8.60
   0   5   2  182.98    8.50
  -1  -5  -2   53.29    6.00
  -1  -5  -2   66.39    4.50
  -1  -5  -2   64.89    4.30
   1   5   2   67.09    4.20
   1   5   2   69.39    5.60
   1   5   2   66.69    4.40
  -2  -5  -2  966.10   40.10
  -2  -5  -2  939.51   40.70
  -2  -5  -2 1006.20   39.90
   2   5   2  995.60   40.00
   2   5   2  952.10   39.90
   2   5   2  983.40   40.70
  -3  -5  -2 1225.08   51.49
  -3  -5  -2 1283.47   50.69
  -3  -5  -2 1232.68   50.89
   3   5   2 1244.48   51.49
   3   5   2 1243.78   50.69
  -4  -5  -2  120.19    6.30
  -4  -5  -2  113.69    7.60
   4   5   2  120.19    7.30
   4   5   2  120.59    6.00
   4   5   2  115.19    6.30
  -5  -5  -2  506.05   23.50
  -5  -5  -2  530.85   22.50
   5   5   2  528.45   22.20
   5   5   2  539.75   23.40
   5   5   2  543.95   22.70
   5   5   2  525.55   22.30
  -6  -5  -2   56.99    4.60
  -6  -5  -2   64.49    7.30
   6   5   2   65.49    6.40
   6   5   2   62.69    4.90
   6   5   2   52.49    4.30
  -7  -5  -2  370.56   19.20
  -7  -5  -2  399.16   16.90
   7   5   2  350.46   17.00
   7   5   2  386.26   17.40
   7   5   2  384.16   16.70
   7   5   2  423.36   19.00
  -8  -5  -2  120.29    6.90
   8   5   2  133.09   10.70
   8   5   2  110.59    6.90
   8   5   2  127.09    7.90
   9   5   2  183.78   14.70
   9   5   2  197.68   10.90
   9   5   2  171.48    9.60
  10   5   2   46.10    8.40
  10   5   2   42.70    5.80
  11   5   2    9.80    5.70
  11   5   2   17.00    9.30
  12   5   2   31.20   12.40
  12   5   2    9.90    7.40
   6  -6  -2   23.40    6.70
  -6   6   2    2.30    9.70
   5  -6  -2   39.10    6.20
  -5   6   2   32.90    4.60
  -5   6   2   37.60    8.80
   4  -6  -2    2.40    3.50
   4  -6  -2  -12.70    4.90
  -4   6   2    7.00    3.10
   3  -6  -2   12.50    4.20
   3  -6  -2    7.00    3.00
  -3   6   2    8.60    2.80
   2  -6  -2  162.58    9.30
   2  -6  -2  168.88    9.50
  -2   6   2  164.98   11.30
  -2   6   2  170.48    8.70
   1  -6  -2   37.50    5.20
   1  -6  -2   45.30    4.50
  -1   6   2   37.30    5.10
  -1   6   2   40.40    4.30
   0  -6  -2 1060.19   41.80
   0  -6  -2 1034.00   41.20
   0  -6  -2  889.31   42.50
   0   6   2  988.20   42.50
   0   6   2  968.00   41.40
   0   6   2 1059.59   41.20
  -1  -6  -2  450.75   22.60
  -1  -6  -2  526.25   21.80
  -1  -6  -2  508.55   21.30
   1   6   2  486.65   22.60
   1   6   2  517.15   21.50
   1   6   2  510.45   21.30
  -2  -6  -2   74.09    4.90
  -2  -6  -2   74.19    4.90
  -2  -6  -2   65.99    6.90
   2   6   2   63.69    6.50
   2   6   2   73.79    5.10
   2   6   2   67.39    4.60
  -3  -6  -2  303.37   13.20
  -3  -6  -2  271.67   14.50
  -3  -6  -2  302.17   13.40
   3   6   2  300.67   13.40
   3   6   2  302.47   14.50
   3   6   2  290.67   13.10
  -4  -6  -2   16.40    3.90
  -4  -6  -2   21.80    2.70
   4   6   2   19.30    2.80
   4   6   2   19.80    3.50
   4   6   2   19.50    2.80
  -5  -6  -2  297.47   13.40
  -5  -6  -2  274.17   15.00
   5   6   2  298.17   13.20
   5   6   2  297.07   13.70
   5   6   2  297.97   14.70
   5   6   2  307.97   13.10
  -6  -6  -2  197.28   12.80
  -6  -6  -2  224.88   10.70
   6   6   2  227.68   11.00
   6   6   2  237.58   10.20
   6   6   2  220.98   12.40
   6   6   2  213.68   10.50
  -7  -6  -2   40.70    6.50
  -7  -6  -2   42.30    4.70
   7   6   2   48.00    5.20
   7   6   2   40.90    3.90
   7   6   2   39.50    5.60
  -8  -6  -2    9.70    3.10
   8   6   2   10.50    2.40
   8   6   2    5.10    3.60
   8   6   2    6.50    4.90
  -9  -6  -2   22.30    3.40
   9   6   2   39.90   11.00
  10   6   2   61.99    8.20
  10   6   2   54.09    8.80
  11   6   2   11.90    9.70
  11   6   2    3.50    5.30
  12   6   2   13.50   12.00
  12   6   2   12.10    7.10
   5  -7  -2    4.00    5.80
  -5   7   2    8.90    9.60
   4  -7  -2   79.99    9.10
  -4   7   2   78.19   10.40
   3  -7  -2  210.98   11.90
  -3   7   2  189.08   15.10
   2  -7  -2   30.00    4.70
   2  -7  -2   36.60    4.90
  -2   7   2   29.50    3.80
   1  -7  -2  413.66   18.20
  -1   7   2  356.56   23.00
  -1   7   2  425.16   17.80
   0  -7  -2   17.50    3.40
   0  -7  -2   23.30    3.40
   0   7   2   19.60    3.10
   0   7   2   20.20    4.70
  -1  -7  -2   29.30    3.50
  -1  -7  -2   31.60    4.40
   1   7   2   28.90    3.40
   1   7   2   32.30    4.70
  -2  -7  -2  326.07   18.20
  -2  -7  -2  372.86   16.30
  -2  -7  -2  401.16   16.90
   2   7   2  363.06   18.10
   2   7   2  373.86   16.40
   2   7   2  365.76   16.40
  -3  -7  -2    3.20    4.20
  -3  -7  -2    4.50    2.30
  -3  -7  -2    8.60    2.60
   3   7   2    6.10    2.60
   3   7   2    2.30    2.00
   3   7   2   10.40    3.90
  -4  -7  -2   -0.80    2.00
  -4  -7  -2   -2.70    4.40
   4   7   2   -1.20    2.40
   4   7   2    0.10    1.80
   4   7   2    1.20    3.60
  -5  -7  -2  797.82   37.20
  -5  -7  -2  886.01   35.90
   5   7   2  847.92   35.50
   5   7   2  885.11   37.20
   5   7   2  864.01   35.40
   5   7   2  859.61   36.00
  -6  -7  -2  230.88   15.10
  -6  -7  -2  271.57   12.30
   6   7   2  257.37   12.60
   6   7   2  259.87   11.60
   6   7   2  261.67   14.30
   6   7   2  246.58   12.00
  -7  -7  -2  233.48   11.60
   7   7   2  233.98   10.70
   7   7   2  233.28   13.80
   7   7   2  227.58   12.00
  -8  -7  -2  327.87   15.20
   8   7   2  315.07   14.30
   8   7   2  335.47   18.40
   9   7   2  180.98    9.30
   9   7   2  191.98   15.10
  10   7   2    2.90    4.70
  10   7   2   -1.10    8.10
  11   7   2  117.09   18.40
  11   7   2  101.99   11.10
  12   7   2   45.70   12.80
  12   7   2   51.69    8.30
   4  -8  -2   -1.80    6.00
  -4   8   2  -10.20    9.00
   3  -8  -2   10.20    4.90
  -3   8   2   -2.20    7.20
   2  -8  -2   45.70    6.00
  -2   8   2   42.10    6.00
  -2   8   2   35.90    7.70
   1  -8  -2    9.10    4.40
  -1   8   2    2.60    3.10
  -1   8   2   17.90    9.10
   0  -8  -2    0.80    3.60
   0   8   2    2.90    3.00
  -1  -8  -2 1127.19   46.70
   1   8   2 1139.99   46.80
  -2  -8  -2  723.33   30.70
  -2  -8  -2  668.43   29.80
   2   8   2  737.73   32.20
   2   8   2  716.43   30.10
  -3  -8  -2   57.29    5.80
  -3  -8  -2   68.79    5.80
   3   8   2   52.89    6.60
   3   8   2   58.99    5.80
  -4  -8  -2   35.50    4.80
   4   8   2   29.80    3.60
   4   8   2   34.90    5.80
   4   8   2   32.10    4.30
  -5  -8  -2  357.86   16.50
   5   8   2  341.77   15.80
   5   8   2  346.27   15.90
   5   8   2  372.76   18.50
   5   8   2  369.76   16.70
  -6  -8  -2  373.06   17.00
   6   8   2  366.76   17.30
   6   8   2  390.36   19.30
   6   8   2  347.47   16.20
  -7  -8  -2  459.35   20.10
   7   8   2  456.15   22.50
   7   8   2  422.66   19.10
   7   8   2  440.26   20.50
  -8  -8  -2    3.50    3.70
   8   8   2    5.10    2.60
   8   8   2    1.20    5.70
  -9  -8  -2   13.60    4.30
   9   8   2    9.00    3.00
   9   8   2   16.40    5.00
   9   8   2   11.30    6.90
  10   8   2   68.09    9.70
  10   8   2   61.19    9.90
  11   8   2  238.08   21.50
  11   8   2  218.88   15.20
  12   8   2   58.09   13.50
  12   8   2   66.59    9.50
   2  -9  -2   16.30    6.50
  -2   9   2   26.80    8.70
   1  -9  -2   26.00    5.50
  -1   9   2    7.60    7.60
   0  -9  -2   15.70    4.70
   0   9   2   15.70    3.90
   0   9   2   14.60    7.00
  -1  -9  -2   34.60    4.50
  -1  -9  -2   30.00    5.00
   1   9   2   28.00    4.10
   1   9   2   40.20    7.20
  -2  -9  -2   58.69    7.40
   2   9   2   75.59    7.10
   2   9   2   86.49   10.30
  -3  -9  -2   18.50    6.50
  -3  -9  -2   15.00    3.90
   3   9   2   12.80    3.90
   3   9   2   16.40    6.10
  -4  -9  -2  100.29    7.50
   4   9   2   89.49   11.00
   4   9   2   89.19    7.50
   4   9   2   97.39    6.50
  -5  -9  -2  430.56   19.60
   5   9   2  435.66   22.10
   5   9   2  405.66   19.50
  -6  -9  -2  367.86   17.20
   6   9   2  326.77   16.30
   6   9   2  387.26   19.90
   6   9   2  372.46   17.50
  -7  -9  -2  165.68   10.10
   7   9   2  155.18    9.00
   7   9   2  200.88   14.00
  -8  -9  -2   39.90    5.50
   8   9   2   49.70    5.40
   8   9   2   53.29    7.90
  -9  -9  -2   12.20    4.80
   9   9   2   17.30    5.40
   9   9   2   16.10    8.00
  10   9   2   -0.40    5.30
  10   9   2    6.20    8.50
  11   9   2   59.49    8.70
  11   9   2   66.69   11.90
   1 -10  -2   55.89    8.70
  -1  10   2   77.09   11.60
   0 -10  -2    7.60    5.40
   0  10   2   17.70    8.20
  -1 -10  -2   94.99    9.80
   1  10   2   88.49   13.70
  -2 -10  -2   17.80    5.00
   2  10   2   17.30    7.10
   2  10   2   17.50    4.50
  -3 -10  -2   66.09    7.80
   3  10   2   52.69    7.60
   3  10   2   51.99    8.30
   4  10   2    7.70    4.00
   4  10   2   -3.80    6.50
  -5 -10  -2   17.80    5.30
   5  10   2   27.40    7.30
   5  10   2   16.70    4.30
  -6 -10  -2   32.60    5.10
   6  10   2   30.30    7.70
   6  10   2   34.10    6.90
  -7 -10  -2   12.30    4.60
   7  10   2   17.00    7.30
  -8 -10  -2   73.29    8.80
   8  10   2   66.89    9.00
   8  10   2   74.09    9.10
  -9 -10  -2   43.10    6.60
   9  10   2   53.29    9.80
   9  10   2   41.70    6.60
  10  10   2   27.30   10.40
  10  10   2   25.40    7.20
  11  10   2  -17.90   10.60
  11  10   2    4.40    7.50
  -1 -11  -2    9.70    6.40
   1  11   2   -3.60    9.60
  -2 -11  -2   37.70    7.10
   2  11   2   46.60    9.60
  -3 -11  -2   10.60    5.80
   3  11   2   18.80    8.00
   3  11   2   -0.10    5.00
  -4 -11  -2  149.49   11.40
   4  11   2  133.49   10.90
   4  11   2  153.88   16.20
  -5 -11  -2   35.10    5.90
   5  11   2   23.20    6.80
   5  11   2   21.80    8.80
   6  11   2    6.50    8.30
   7  11   2    4.30    8.70
   7  11   2    2.70    5.20
  -8 -11  -2   43.10    8.10
   8  11   2   51.79    7.00
   8  11   2   62.19   10.00
  -9 -11  -2    1.90    8.50
   9  11   2  -12.90    9.30
   9  11   2   -4.80    6.10
  10  11   2   10.10    7.00
  10  11   2   -0.50   11.00
  -4 -12  -2   15.10    6.80
   4  12   2    4.90    9.90
  -5 -12  -2    5.40    6.60
   5  12   2   -5.40    9.80
  -6 -12  -2    5.30    6.60
   6  12   2    8.90    6.40
   6  12   2    2.30    9.80
  -7 -12  -2   10.50    7.30
   7  12   2    3.20    6.60
   7  12   2   -4.70   10.30
  -8 -12  -2    1.20    7.50
   8  12   2    5.60   11.10
   8  12   2    5.30    6.90
   8  11  -3   11.30    6.60
   8  11  -3  -14.60   11.10
   7  11  -3    4.70   10.50
   6  11  -3    7.00   10.10
   5  11  -3   -0.10    9.70
  -5 -11   3    0.70    5.80
   4  11  -3   62.19   11.50
  -4 -11   3   86.99    9.60
   3  11  -3   20.70   10.60
  -3 -11   3   35.60    6.40
   9  10  -3    6.20    5.90
   9  10  -3    2.70   10.40
   8  10  -3   11.60    9.40
   8  10  -3   11.70    5.20
   7  10  -3   -0.30    8.30
   7  10  -3   14.00    5.00
   6  10  -3   44.20    9.20
   6  10  -3   65.89    8.00
  -6 -10   3   55.29    6.80
   5  10  -3  168.18   16.90
   5  10  -3  153.98   10.10
  -5 -10   3  166.48   10.10
   4  10  -3   -3.90    8.10
   3  10  -3    2.40    8.10
  -3 -10   3   -1.90    4.10
   2  10  -3   -4.00    8.20
  -2 -10   3  -11.60    4.40
   1  10  -3   21.10    9.30
  -1 -10   3   11.30    4.90
   0  10  -3    9.10   10.10
   0 -10   3    0.10    5.20
  10   9  -3    5.20   10.00
   9   9  -3   45.40    9.80
   8   9  -3   14.10    8.20
   8   9  -3    8.60    4.60
   7   9  -3   50.59    8.30
   6   9  -3    8.20    3.50
   6   9  -3    3.60    6.60
  -6  -9   3    7.70    3.00
   5   9  -3   -1.00    3.10
   5   9  -3   -0.80    3.40
   5   9  -3    6.00    3.10
   5   9  -3   -0.80    6.30
  -5  -9   3    3.00    2.90
   4   9  -3    2.10    6.40
  -4  -9   3    8.80    3.30
   3   9  -3   42.60    7.70
  -3  -9   3   36.30    4.90
   2   9  -3   49.40    7.80
   1   9  -3    6.70    6.90
   0   9  -3   35.60    8.70
   0  -9   3   46.20    6.00
  -1   9  -3   10.30    8.40
   1  -9   3    2.60    4.70
  -2   9  -3    7.30    9.60
   2  -9   3   16.40    5.90
 -11  -8   3    2.10    5.30
  10   8  -3   43.90   10.60
 -10  -8   3   34.50    5.20
   9   8  -3   11.00    8.20
  -9  -8   3   -7.20    3.40
   8   8  -3  234.58   17.50
  -8  -8   3  254.67   12.60
   7   8  -3   60.09    8.00
  -7  -8   3   69.39    5.80
   5   8  -3  148.39    8.30
   5   8  -3  150.98   12.00
   5   8  -3  138.09    8.40
  -5  -8   3  161.58    7.90
   4   8  -3   14.00    2.90
   4   8  -3   13.20    2.70
   4   8  -3   18.50    2.90
  -4  -8   3   17.10    2.90
   3   8  -3  646.34   33.40
   3   8  -3  519.15   25.70
  -3  -8   3  616.44   25.40
  -2  -8   3    1.90    2.70
   1   8  -3   -0.50    8.90
  -1  -8   3    0.80    2.90
   0  -8   3   -3.40    2.90
  -1   8  -3   24.00    7.30
   1  -8   3   18.80    4.20
  -2   8  -3    5.80    7.80
   2  -8   3    3.30    4.50
  -3   8  -3  285.27   20.80
   3  -8   3  280.67   15.80
  11   7  -3    7.00   10.70
 -11  -7   3   -4.80    4.90
  10   7  -3   -0.90    8.70
 -10  -7   3    8.70    4.10
   9   7  -3    6.00    7.60
  -9  -7   3   10.20    3.70
   8   7  -3   21.10    6.80
  -8  -7   3   16.90    3.70
  -7  -7   3  190.98    9.80
   6   7  -3    1.80    2.80
   6   7  -3    6.10    4.80
  -6  -7   3    2.10    2.00
   5   7  -3   -2.90    4.30
   5   7  -3    1.10    2.30
  -5  -7   3    1.90    1.70
  -5  -7   3    0.90    1.70
   4   7  -3  385.46   17.30
   4   7  -3  399.56   19.60
   4   7  -3  392.16   17.10
  -4  -7   3  403.16   17.10
   3   7  -3  151.78   10.80
   3   7  -3  147.79    8.20
  -3  -7   3  156.18    7.80
   2   7  -3  404.76   19.80
   2   7  -3  367.06   17.80
  -2  -7   3  416.46   17.60
   1   7  -3  386.96   19.60
  -1  -7   3  389.46   17.40
   0   7  -3  139.99   11.10
   0  -7   3  127.79    7.80
   2  -7   3   74.79    6.70
  -3   7  -3   66.19    9.20
   3  -7   3   87.09    7.70
  -4   7  -3   47.70    9.60
   4  -7   3   33.30    5.40
  11   6  -3    4.70   10.10
 -11  -6   3   -0.70    4.90
  10   6  -3    9.30    8.50
 -10  -6   3    8.20    4.30
   9   6  -3  120.39   13.40
  -9  -6   3   85.79    7.60
  -8  -6   3   43.70    5.40
   7   6  -3   81.49   10.10
  -7  -6   3   89.99    6.10
   6   6  -3   17.70    4.90
   6   6  -3    9.40    2.80
  -6  -6   3   15.90    2.40
   5   6  -3   77.39    7.90
   5   6  -3   68.59    5.20
  -5  -6   3   59.19    9.70
  -5  -6   3   72.29    4.60
   4   6  -3  532.25   22.60
   4   6  -3  550.04   24.70
  -4  -6   3  505.95   24.90
  -4  -6   3  554.44   22.50
  -4  -6   3  543.65   22.40
   3   6  -3   89.69    4.90
   3   6  -3   83.19    7.70
   3   6  -3   83.69    5.30
  -3  -6   3   87.39    4.80
  -3  -6   3   87.89    4.50
  -3  -6   3   67.19    8.50
   2   6  -3  124.19    6.90
   2   6  -3  123.09    9.10
  -2  -6   3  133.69    6.50
  -2  -6   3  108.69    9.40
   1   6  -3    1.20    3.70
   1   6  -3    0.30    2.10
  -1  -6   3    1.40    1.60
  -1  -6   3    5.30    4.10
   0   6  -3    7.60    3.70
   0   6  -3   10.90    4.30
   0  -6   3   -2.60    4.40
   0  -6   3   10.30    2.40
  -1   6  -3  139.19   10.60
   1  -6   3  145.19    8.00
  -2   6  -3   58.79    9.10
  -3   6  -3  221.88   14.80
  -4   6  -3   22.70    7.30
   4  -6   3   15.50    4.30
  -5   6  -3   23.20    9.00
   5  -6   3   31.50    5.30
  -6   6  -3   -0.90   10.60
   6  -6   3   -4.60    5.50
  11   5  -3   13.50   10.50
 -11  -5   3    9.50    4.90
  10   5  -3    7.30    8.50
 -10  -5   3   10.00    4.10
   9   5  -3   31.40    7.80
  -9  -5   3   33.30    4.50
  -8  -5   3  355.76   16.50
   7   5  -3   36.30    6.00
  -7  -5   3   29.90    3.60
   6   5  -3   66.19    5.50
   6   5  -3   77.99    8.10
  -6  -5   3   60.09    7.70
  -6  -5   3   77.79    5.00
   5   5  -3   31.50    3.70
   5   5  -3   30.70    4.60
  -5  -5   3   29.90    5.10
  -5  -5   3   28.30    3.10
   4   5  -3  203.68   11.60
   4   5  -3  211.28    9.70
  -4  -5   3  218.38    9.60
  -4  -5   3  211.78   12.10
   3   5  -3  735.13   29.50
   3   5  -3  711.73   31.00
  -3  -5   3  698.33   31.20
  -3  -5   3  721.63   29.40
  -3  -5   3  717.43   29.40
   2   5  -3  582.74   25.70
   2   5  -3  587.54   24.80
  -2  -5   3  582.84   25.90
  -2  -5   3  596.04   24.50
   1   5  -3  356.56   16.80
   1   5  -3  354.16   15.80
  -1  -5   3  335.87   16.70
  -1  -5   3  367.56   15.40
   0   5  -3   19.60    4.00
   0   5  -3   15.30    2.60
   0  -5   3   15.30    3.80
   0  -5   3   20.10    2.80
  -1   5  -3  183.88   10.60
  -1   5  -3  156.18    9.30
   1  -5   3  181.68   10.70
   1  -5   3  173.58    8.70
  -2   5  -3  137.99    9.30
   2  -5   3   98.59   10.00
   2  -5   3  128.39    7.10
  -3   5  -3  270.97   15.20
  -4   5  -3   37.80    9.20
  -5   5  -3   17.80    7.80
   5  -5   3   21.50    3.80
  -6   5  -3   -5.00    8.20
   6  -5   3    0.40    4.00
  -7   5  -3   68.39   12.70
   7  -5   3   70.19    9.50
  11   4  -3   18.50   11.20
 -11  -4   3    7.20    4.50
  10   4  -3   21.80    8.70
 -10  -4   3   21.00    4.20
   9   4  -3   19.90    7.20
   8   4  -3 1702.73   73.39
   7   4  -3  413.86   20.40
  -7  -4   3  394.26   17.90
   6   4  -3  146.69    8.20
   6   4  -3  166.68   10.60
  -6  -4   3  140.19   11.20
  -6  -4   3  165.78    8.00
   5   4  -3   31.80    3.60
   5   4  -3   31.70    4.50
  -5  -4   3   32.60    4.80
  -5  -4   3   32.90    3.20
   4   4  -3  234.58   10.70
   4   4  -3  239.08   12.00
  -4  -4   3  228.28   12.50
  -4  -4   3  238.18   10.50
   3   4  -3  593.24   24.80
   3   4  -3  610.04   26.00
  -3  -4   3  593.24   24.50
  -3  -4   3  587.24   24.70
  -3  -4   3  626.04   26.30
  -3  -4   3  598.04   24.80
   2   4  -3 3100.39  126.79
   2   4  -3 3283.57  127.99
  -2  -4   3 3199.98  127.09
  -2  -4   3 3285.37  128.09
  -2  -4   3 3091.69  126.79
  -2  -4   3 3065.39  126.99
   1   4  -3  834.42   35.50
  -1  -4   3  827.62   34.70
  -1  -4   3  879.71   35.70
   0   4  -3   -1.20    1.40
   0   4  -3    1.10    2.50
   0  -4   3   -1.60    1.00
   0  -4   3    1.60    2.60
  -1   4  -3    1.90    2.70
  -1   4  -3    0.60    2.10
   1  -4   3    1.00    2.90
   1  -4   3    2.10    1.40
  -2   4  -3  143.39    8.80
   2  -4   3  142.49    7.30
   2  -4   3  129.89    9.10
  -3   4  -3   21.70    4.00
   3  -4   3   10.70    4.50
   3  -4   3   19.30    2.70
  -4   4  -3   -1.60    4.10
   4  -4   3    2.10    2.10
  -5   4  -3   -1.50    5.20
   5  -4   3    2.20    2.80
  -6   4  -3   15.90    9.30
   6  -4   3   16.40    3.90
  -7   4  -3   25.30    9.00
   7  -4   3    9.90    4.40
  11   3  -3   23.00   10.80
 -11  -3   3   11.10    5.40
  10   3  -3   28.30    9.30
 -10  -3   3   31.20    5.30
   9   3  -3   29.60    7.60
  -9  -3   3   37.30    5.00
   8   3  -3  138.39   18.20
   7   3  -3  115.69   10.10
  -7  -3   3  113.79    6.90
   6   3  -3   38.20    5.10
   6   3  -3   31.20    4.30
   6   3  -3   40.70    5.30
  -6  -3   3   35.00    3.90
   5   3  -3  611.24   27.00
   5   3  -3  605.64   25.70
  -5  -3   3  628.54   25.60
  -5  -3   3  593.04   27.10
   4   3  -3  636.54   27.60
   4   3  -3  634.94   26.50
  -4  -3   3  627.04   27.70
  -4  -3   3  649.14   26.50
   3   3  -3  369.96   15.90
   3   3  -3  377.46   16.70
  -3  -3   3  392.76   17.00
  -3  -3   3  355.46   15.70
   2   3  -3  557.24   23.00
   2   3  -3  522.15   22.10
  -2  -3   3  577.94   23.20
  -2  -3   3  513.05   22.10
  -2  -3   3  527.15   22.10
  -2  -3   3  533.45   22.20
   1   3  -3   -2.30    1.80
  -1  -3   3    0.40    0.90
  -1  -3   3    1.40    0.90
  -1  -3   3   -0.30    1.10
   0   3  -3  285.87   13.00
   0  -3   3  298.77   12.60
   0  -3   3  281.57   12.40
   0  -3   3  272.67   13.70
  -1   3  -3   19.00    2.80
   1  -3   3   18.00    2.90
   1  -3   3   19.00    2.60
   1  -3   3   19.30    2.30
  -2   3  -3    6.40    2.50
   2  -3   3    3.90    2.20
   2  -3   3    6.10    2.80
   2  -3   3    6.90    1.80
  -3   3  -3  128.19    8.20
   3  -3   3  132.59    6.70
   3  -3   3  116.69    7.30
   3  -3   3  113.49    8.40
  -4   3  -3  115.39    8.40
   4  -3   3   98.19    6.10
   4  -3   3   96.79    8.80
  -5   3  -3  286.27   15.30
   5  -3   3  268.27   13.00
   5  -3   3  257.67   20.30
  -6   3  -3   42.10    7.30
   6  -3   3   39.40    4.80
  -7   3  -3   68.99    9.50
   7  -3   3   64.89    6.90
  -8   3  -3   63.99   11.30
   8  -3   3   57.69    8.10
 -11  -2   3   57.19    7.30
  10   2  -3  139.69   18.10
 -10  -2   3  155.58   10.60
   9   2  -3   12.20    7.60
   7   2  -3  213.48   13.80
  -7  -2   3  211.68   10.60
   6   2  -3  105.69    9.00
   6   2  -3  103.89    9.00
  -6  -2   3   99.29    6.10
   5   2  -3  100.49    7.70
   5   2  -3  101.09    5.90
   5   2  -3  105.39    7.70
  -5  -2   3  110.39    5.80
   4   2  -3    4.40    1.60
   4   2  -3    5.30    2.50
  -4  -2   3    2.70    1.30
   3   2  -3   81.49    4.50
   3   2  -3   75.49    5.40
  -3  -2   3   82.39    4.20
  -3  -2   3   73.39    5.80
   2   2  -3   84.99    5.20
   2   2  -3   83.49    4.00
  -2  -2   3   85.19    5.40
  -2  -2   3   84.39    4.20
  -2  -2   3   78.39    4.10
   1   2  -3  623.64   25.80
  -1  -2   3  592.94   26.00
  -1  -2   3  685.93   26.10
   0  -2   3  247.68   10.80
   0  -2   3  246.48   11.30
   1  -2   3  758.22   31.90
   1  -2   3  790.42   32.00
  -2   2  -3  279.57   12.90
   2  -2   3  281.67   12.70
   2  -2   3  298.47   12.90
  -3   2  -3  728.73   30.60
   3  -2   3  705.73   30.30
   3  -2   3  745.83   30.60
   3  -2   3  718.93   30.50
  -4   2  -3  170.08    9.60
   4  -2   3  161.08    9.70
   4  -2   3  164.28    8.90
   4  -2   3  170.28    8.40
  -5   2  -3  105.69    8.50
   5  -2   3   76.59    8.50
   5  -2   3   95.79    7.70
   5  -2   3   98.39    6.00
  -6   2  -3   -5.80    4.60
   6  -2   3   -2.60    2.20
   6  -2   3    6.00    2.50
   7  -2   3    0.30    3.00
   7  -2   3    6.00    3.20
   7  -2   3    6.70    3.20
  -8   2  -3   75.99   10.10
   8  -2   3   73.89    7.40
   8  -2   3   57.69    8.00
   9  -2   3   38.40    5.70
  10   1  -3  -22.80    9.90
 -10  -1   3    0.00    4.40
   9   1  -3   13.90    8.50
  -9  -1   3   12.20    4.10
   7   1  -3  294.87   16.60
  -7  -1   3  273.87   13.40
   6   1  -3   69.09    5.70
   6   1  -3   74.19    8.30
   6   1  -3   51.39    8.00
  -6  -1   3   68.89    5.10
   5   1  -3  571.24   24.20
   5   1  -3  565.24   25.30
   5   1  -3  565.54   25.60
  -5  -1   3  577.54   24.10
   4   1  -3    5.70    1.90
   4   1  -3    7.60    2.80
   4   1  -3    5.50    2.70
  -4  -1   3    4.80    1.40
   3   1  -3 1729.43   68.39
   3   1  -3 1734.53   68.89
   3   1  -3 1648.54   68.89
  -3  -1   3 1654.63   68.19
   2   1  -3    1.00    1.60
   2   1  -3    3.10    1.20
   2   1  -3   -0.10    1.00
  -2  -1   3   -0.10    0.80
  -2  -1   3    1.10    0.90
   1   1  -3   16.50    1.80
   1   1  -3   18.90    2.00
  -1  -1   3   16.70    1.80
  -1  -1   3   16.50    1.80
   0   1  -3  523.95   21.40
   0   1  -3  528.35   21.60
   0  -1   3  533.05   21.70
   0  -1   3  506.45   21.40
  -1   1  -3 2230.28   90.69
  -1   1  -3 2382.46   90.39
   1  -1   3 2212.18   91.19
   1  -1   3 2204.38   90.29
   2  -1   3  183.88    8.90
   2  -1   3  199.68    8.40
   2  -1   3  199.18    9.10
   3  -1   3  353.56   15.00
   3  -1   3  347.67   14.50
   3  -1   3  344.17   15.30
   3  -1   3  363.16   15.60
  -4   1  -3  362.16   16.60
   4  -1   3  361.06   15.20
   4  -1   3  361.36   16.30
   4  -1   3  368.86   16.40
   4  -1   3  356.06   16.00
   4  -1   3  361.76   15.30
  -5   1  -3   46.00    6.30
   5  -1   3   41.80    5.10
   5  -1   3   45.80    3.60
   5  -1   3   41.40    6.00
   5  -1   3   45.70    4.00
   5  -1   3   50.89    4.10
  -6   1  -3    6.20    4.30
   6  -1   3    9.10    3.60
   6  -1   3    6.80    4.40
   6  -1   3    7.70    2.30
   6  -1   3   12.90    2.30
   6  -1   3   10.20    2.40
  -7   1  -3   79.19   10.40
   7  -1   3   63.39    5.80
   7  -1   3   79.89    6.20
   7  -1   3   72.89    5.80
   8  -1   3   39.40    4.70
   8  -1   3   31.40    4.70
   8  -1   3   31.90    4.80
   9  -1   3    7.20    5.00
   9  -1   3   13.10    4.20
  10  -1   3   -1.50   13.90
  10  -1   3   11.00    9.40
  10  -1   3    8.40    5.30
  10   0  -3   25.60   11.50
 -10   0   3   10.40    5.30
   9   0  -3  263.77   20.10
   9   0  -3  224.78   12.10
  -9   0   3  239.78   13.10
   8   0  -3   10.60    3.00
   8   0  -3   21.60    7.80
  -8   0   3    2.30    3.50
  -8   0   3   12.30    5.40
   7   0  -3  -14.00    7.30
   7   0  -3    1.90    2.20
  -7   0   3    2.80    2.40
  -7   0   3   -0.80    2.40
   6   0  -3   85.29    4.90
  -6   0   3   81.69    4.80
  -6   0   3   77.59    5.60
   5   0  -3 1100.09   45.20
   5   0  -3 1143.29   44.60
   5   0  -3 1105.99   46.20
  -5   0   3  996.40   44.30
  -5   0   3 1131.09   45.00
   4   0  -3   14.10    2.30
   4   0  -3   19.80    2.20
   4   0  -3   16.50    3.40
  -4   0   3   18.20    2.10
  -4   0   3   18.60    2.30
   3   0  -3  564.44   24.10
   3   0  -3  545.75   23.30
   3   0  -3  560.34   23.80
  -3   0   3  547.05   23.20
  -3   0   3  562.94   22.70
   2   0  -3    4.90    1.70
   2   0  -3    8.00    1.50
   2   0  -3    5.60    1.30
  -2   0   3    5.10    1.10
  -2   0   3    6.00    1.10
   1   0  -3    2.90    1.00
   1   0  -3    2.00    1.00
  -1   0   3    2.60    0.90
  -1   0   3    2.60    0.90
   0   0  -3  791.62   31.70
   0   0   3  768.52   31.90
  -2   0  -3 3086.29  129.89
  -2   0  -3 3414.36  129.59
   2   0   3 3217.08  129.59
   2   0   3 3238.68  129.99
  -3   0  -3   32.30    2.80
   3   0   3   35.10    3.30
   3   0   3   40.70    3.00
   4   0   3  501.35   21.10
   4   0   3  498.65   21.60
   4   0   3  509.05   21.00
   4   0   3  521.15   21.90
  -5   0  -3   98.09    7.30
   5   0   3   98.89    5.90
   5   0   3  107.09    6.00
   5   0   3  106.09    7.30
   5   0   3  102.59    6.70
   5   0   3  116.09    5.60
  -6   0  -3    0.80    3.40
   6   0   3    2.20    1.80
   6   0   3    2.80    1.90
   6   0   3   -2.60    3.50
   6   0   3    1.30    2.10
   6   0   3    4.50    3.10
   7   0   3   23.70    5.50
   7   0   3   50.19    5.30
   7   0   3   45.50    4.50
   7   0   3   33.60    4.90
   7   0   3   34.20    4.60
   8   0   3    4.00    6.70
   8   0   3   -1.10    2.70
   8   0   3    2.00    3.30
   8   0   3   -4.70    3.50
   9   0   3   19.30    9.30
   9   0   3   19.30    4.00
   9   0   3   18.10    5.00
  10   0   3   -8.60    5.80
  10   0   3    1.20    4.40
  10   0   3   -8.60   11.60
   9  -1  -3    1.40    4.30
   9  -1  -3    6.40   10.40
  -9   1   3   10.80    4.70
   8  -1  -3   11.10    3.30
  -8   1   3    9.10    3.90
   7  -1  -3   15.00    3.00
  -7   1   3    9.20    3.10
   6  -1  -3  930.11   38.30
  -6   1   3  917.41   38.60
  -6   1   3  891.11   38.10
  -6   1   3  963.50   40.70
   5  -1  -3   13.30    2.10
   5  -1  -3   11.20    2.90
   5  -1  -3   20.20    4.50
  -5   1   3   14.80    2.70
  -5   1   3   16.30    4.10
  -5   1   3   12.00    2.00
   4  -1  -3  132.79    6.50
   4  -1  -3  123.59    7.20
   4  -1  -3  133.59    8.60
  -4   1   3  128.99    6.80
  -4   1   3  132.19    6.30
  -4   1   3  132.79    8.40
   3  -1  -3  317.17   13.50
   3  -1  -3  307.57   13.80
   3  -1  -3  323.57   14.60
  -3   1   3  315.87   13.40
  -3   1   3  308.57   14.60
  -3   1   3  310.47   13.70
   2  -1  -3  221.18   10.00
   2  -1  -3  231.88   10.60
   2  -1  -3  229.88   10.20
  -2   1   3  223.88   10.10
  -2   1   3  226.38   10.70
  -2   1   3  232.58    9.90
   1  -1  -3   36.00    2.90
   1  -1  -3   40.20    3.10
   1  -1  -3   35.70    2.60
  -1   1   3   36.70    2.50
  -1   1   3   33.80    3.70
  -1   1   3   39.40    2.80
   0  -1  -3  489.15   20.70
   0  -1  -3  507.65   20.70
   0   1   3  505.95   20.70
   0   1   3  489.55   20.60
  -1  -1  -3 2702.93  103.99
  -1  -1  -3 2498.15  104.09
   1   1   3 2563.24  104.09
   1   1   3 2604.84  103.89
  -2  -1  -3  866.81   35.80
  -2  -1  -3  910.51   35.50
   2   1   3  874.41   35.50
   2   1   3  833.52   36.10
  -3  -1  -3   72.49    4.50
   3   1   3   72.69    4.50
   3   1   3   80.59    4.30
  -4  -1  -3   93.89    5.30
   4   1   3   91.99    5.10
   4   1   3  105.59    5.80
   4   1   3  102.09    5.00
  -5  -1  -3 1203.58   49.10
   5   1   3 1201.18   48.70
   5   1   3 1213.78   49.40
   5   1   3 1176.38   48.90
   5   1   3 1191.38   49.60
   5   1   3 1210.68   49.40
   6   1   3   75.79    5.80
   6   1   3   65.89    5.10
   6   1   3   72.79    5.00
   6   1   3   74.99    4.80
   6   1   3   75.89    7.10
   6   1   3   81.89    7.10
   7   1   3  147.69    9.00
   7   1   3  143.19    8.10
   7   1   3  162.78    8.30
   7   1   3  156.88   10.40
   7   1   3  154.78    8.60
   7   1   3  165.38   11.30
   8   1   3   13.70    4.70
   8   1   3   16.60    3.10
   8   1   3   21.90    3.90
   8   1   3   15.90    4.00
   8   1   3   20.80    6.50
   9   1   3    1.60    4.40
   9   1   3    5.50    7.70
   9   1   3    0.50    3.00
  10   1   3    0.70    9.80
  10   1   3    4.60    5.60
  10   1   3   -4.40    3.80
  11   1   3   -5.50    7.10
  11   1   3    4.30    4.90
  11   1   3  -25.80   13.40
   9  -2  -3   26.50    5.90
  -9   2   3   30.80    5.90
   8  -2  -3  154.08   10.00
  -8   2   3  144.69   10.10
  -8   2   3  165.18   16.10
   7  -2  -3  166.38    9.60
  -7   2   3  160.78   14.40
   6  -2  -3   11.40    3.00
  -6   2   3    6.60    3.10
  -6   2   3    8.80    5.40
  -6   2   3    8.90    3.00
   5  -2  -3   27.10    3.90
   5  -2  -3   34.50    3.90
  -5   2   3   30.40    3.90
  -5   2   3   36.00    5.40
  -5   2   3   35.90    3.80
   4  -2  -3  382.66   16.90
   4  -2  -3  381.86   18.20
   4  -2  -3  389.76   16.70
  -4   2   3  373.36   16.60
  -4   2   3  382.86   18.20
  -4   2   3  380.76   16.40
   3  -2  -3 1512.15   60.79
   3  -2  -3 1461.85   60.59
   3  -2  -3 1514.05   61.49
  -3   2   3 1497.55   60.39
  -3   2   3 1479.25   60.59
  -3   2   3 1490.15   61.49
   2  -2  -3   35.10    2.90
   2  -2  -3   42.30    3.70
   2  -2  -3   35.00    4.60
  -2   2   3   38.60    4.00
  -2   2   3   42.20    3.00
  -2   2   3   41.30    3.20
   1  -2  -3    5.90    1.30
   1  -2  -3    4.80    1.60
  -1   2   3    3.70    1.30
  -1   2   3    5.30    1.80
  -1   2   3    7.00    1.30
   0  -2  -3  927.31   36.00
   0  -2  -3  915.41   36.20
   0  -2  -3  829.22   36.00
   0   2   3  850.51   35.90
  -1  -2  -3 2293.67   91.89
  -1  -2  -3 2332.07   92.19
   1   2   3 2394.96   91.79
   1   2   3 2116.29   92.19
   2   2   3 1054.09   42.90
  -3  -2  -3 1064.59   43.90
  -3  -2  -3 1124.09   43.70
   3   2   3 1063.29   43.90
   3   2   3 1041.00   43.70
  -4  -2  -3  482.95   20.30
   4   2   3  458.85   20.10
   4   2   3  488.65   20.40
  -5  -2  -3    6.50    1.90
   5   2   3   11.50    1.70
   5   2   3    6.00    2.40
   5   2   3    5.70    1.80
   5   2   3    1.50    2.60
   5   2   3   10.00    2.30
  -6  -2  -3  551.04   24.00
   6   2   3  570.94   24.10
   6   2   3  576.34   24.40
   6   2   3  557.24   23.80
   6   2   3  579.44   25.00
   6   2   3  573.24   25.10
   7   2   3   17.50    4.30
   7   2   3   22.30    3.10
   7   2   3   18.20    4.50
   7   2   3   20.50    3.60
   7   2   3   23.70    3.30
   7   2   3   21.20    2.70
   8   2   3   14.90    3.00
   8   2   3   13.10    5.50
   8   2   3    6.80    3.90
   8   2   3   14.30    3.60
   9   2   3   59.59    8.30
   9   2   3   64.59    7.50
   9   2   3   65.99    5.90
  10   2   3  178.28   10.60
  10   2   3  201.28   18.70
  10   2   3  187.38   12.90
  11   2   3    0.80   11.30
  11   2   3   21.70    7.20
  11   2   3    9.00    4.70
   8  -3  -3    5.50    5.00
  -8   3   3   -5.10    9.10
  -8   3   3    1.90    4.50
   7  -3  -3  245.18   14.50
  -7   3   3  297.97   19.40
   6  -3  -3  666.73   28.00
  -6   3   3  610.84   30.60
  -6   3   3  648.44   27.70
   5  -3  -3  130.39    7.50
  -5   3   3  112.99    7.40
  -5   3   3  119.09   11.30
  -5   3   3  132.29    7.50
   4  -3  -3   76.29    6.50
   4  -3  -3   87.79    5.70
  -4   3   3   95.59    5.80
  -4   3   3   89.89    8.00
  -4   3   3   84.49    5.50
   3  -3  -3  380.06   17.10
   3  -3  -3  392.46   17.10
   3  -3  -3  394.76   18.40
  -3   3   3  389.76   16.90
  -3   3   3  391.36   18.20
  -3   3   3  379.26   16.80
   2  -3  -3   12.20    2.30
   2  -3  -3   10.70    3.40
   2  -3  -3    9.50    1.80
  -2   3   3    9.60    1.80
  -2   3   3    7.70    2.60
  -2   3   3   10.50    2.00
   1  -3  -3  411.16   18.30
   1  -3  -3  426.36   17.80
   1  -3  -3  409.36   17.80
  -1   3   3  417.76   17.70
  -1   3   3  409.76   17.60
  -1   3   3  408.76   18.10
   0  -3  -3  585.54   23.50
   0  -3  -3  560.44   23.50
   0  -3  -3  551.64   23.80
   0   3   3  552.24   23.60
   0   3   3  549.25   23.40
   0   3   3  566.84   23.40
  -1  -3  -3  124.49    6.30
  -1  -3  -3  125.39    6.10
   1   3   3  115.09    5.90
   1   3   3  117.59    5.90
   1   3   3  115.39    6.20
  -2  -3  -3  303.97   14.00
  -2  -3  -3  338.77   14.10
   2   3   3  333.97   14.00
   2   3   3  317.87   14.00
  -3  -3  -3   46.40    3.50
  -3  -3  -3   37.90    3.10
   3   3   3   37.10    3.20
   3   3   3   36.70    3.20
  -4  -3  -3   62.69    5.80
  -4  -3  -3   65.69    4.30
  -4  -3  -3   75.59    4.50
   4   3   3   66.69    4.30
   4   3   3   62.49    4.20
  -5  -3  -3    2.00    1.70
  -5  -3  -3    3.20    2.80
   5   3   3    3.00    1.50
   5   3   3    4.50    2.40
   5   3   3    3.40    1.60
   5   3   3    3.40    1.90
  -6  -3  -3   67.39    4.80
   6   3   3   67.99    5.60
   6   3   3   75.59    5.10
   6   3   3   59.29    6.30
   6   3   3   60.99    6.70
   6   3   3   74.39    4.60
  -7  -3  -3   46.00    4.20
   7   3   3   48.30    5.50
   7   3   3   51.49    5.00
   7   3   3   35.40    5.30
   7   3   3   52.49    7.50
   7   3   3   33.20    4.40
   8   3   3  479.35   22.10
   8   3   3  454.05   19.80
   8   3   3  412.16   21.80
   8   3   3  470.35   20.20
   8   3   3  422.26   20.10
   9   3   3    3.20    4.70
   9   3   3    4.40    3.00
   9   3   3    7.80    6.40
  10   3   3   20.00    8.60
  10   3   3   10.40    5.30
  10   3   3    5.20    3.40
  11   3   3   18.00   10.60
  11   3   3    2.40    4.00
  11   3   3   -1.90    6.40
   7  -4  -3   14.60    5.50
  -7   4   3   19.80    4.90
  -7   4   3   25.70    9.50
   6  -4  -3    3.70    4.10
  -6   4   3    3.10    6.40
   5  -4  -3  283.37   13.90
  -5   4   3  283.17   16.80
  -5   4   3  275.27   13.30
   4  -4  -3   72.89    5.90
   4  -4  -3   69.19    7.30
  -4   4   3   78.49    5.70
  -4   4   3   67.19    8.70
   3  -4  -3   25.40    6.20
   3  -4  -3   37.40    5.30
   3  -4  -3   35.40    4.30
  -3   4   3   33.50    4.30
  -3   4   3   39.60    4.30
  -3   4   3   44.50    5.40
   2  -4  -3   28.50    3.50
   2  -4  -3   21.20    4.30
   2  -4  -3   24.50    3.50
  -2   4   3   32.50    3.80
  -2   4   3   27.10    3.40
  -2   4   3   26.10    4.10
   1  -4  -3    4.90    2.30
   1  -4  -3    4.80    3.30
   1  -4  -3    5.50    1.90
  -1   4   3    4.20    1.90
  -1   4   3    5.50    1.70
  -1   4   3    3.00    2.30
   0  -4  -3   31.30    5.00
   0  -4  -3   38.10    3.80
   0  -4  -3   34.60    3.20
   0   4   3   37.60    3.10
   0   4   3   25.70    4.10
   0   4   3   32.80    3.60
  -1  -4  -3 1421.56   56.09
  -1  -4  -3 1399.26   56.49
  -1  -4  -3 1365.96   56.19
   1   4   3 1373.26   55.99
   1   4   3 1359.66   56.29
   1   4   3 1353.46   56.09
  -2  -4  -3  392.46   16.50
  -2  -4  -3  395.76   16.90
   2   4   3  365.26   16.40
   2   4   3  382.16   16.80
   2   4   3  376.66   16.50
  -3  -4  -3    5.70    2.40
  -3  -4  -3    7.00    1.70
  -3  -4  -3    9.50    2.00
   3   4   3    8.70    2.10
   3   4   3    6.90    1.60
   3   4   3    4.60    1.70
  -4  -4  -3   41.50    3.70
  -4  -4  -3   41.70    4.00
  -4  -4  -3   38.70    5.00
   4   4   3   48.00    3.60
   4   4   3   44.60    3.80
   4   4   3   46.60    4.30
  -5  -4  -3  489.55   21.10
  -5  -4  -3  468.75   20.40
   5   4   3  503.75   20.30
   5   4   3  463.85   20.70
   5   4   3  462.55   20.40
   5   4   3  451.15   20.00
  -6  -4  -3  524.95   23.70
  -6  -4  -3  530.95   22.60
   6   4   3  509.95   22.40
   6   4   3  523.05   22.70
   6   4   3  547.35   23.50
   6   4   3  531.85   22.60
  -7  -4  -3    5.70    2.40
   7   4   3   10.40    2.90
   7   4   3   12.10    2.70
   7   4   3    9.10    2.30
   7   4   3    9.40    3.90
  -8  -4  -3  205.08   10.00
   8   4   3  207.78   10.90
   8   4   3  178.28   13.00
   8   4   3  196.18   10.60
   8   4   3  212.18   13.20
   9   4   3   80.49    8.00
   9   4   3   93.49   11.70
   9   4   3   88.79    6.50
   9   4   3   94.49    8.00
  10   4   3   18.20    6.00
  10   4   3   20.60    5.20
  10   4   3    7.60    8.10
  10   4   3   15.00    3.80
  11   4   3   -2.60    5.90
  11   4   3    4.90    3.70
  11   4   3   -2.30    9.50
  12   4   3   59.29   13.90
  12   4   3   46.50    9.10
   7  -5  -3    6.50    6.30
  -7   5   3   -1.70   10.60
  -7   5   3   -0.90    5.60
  -6   5   3   32.10    8.90
   5  -5  -3    5.30    4.30
  -5   5   3    5.30    6.20
  -5   5   3    2.80    3.40
   4  -5  -3  254.97   15.00
   4  -5  -3  244.78   15.20
  -4   5   3  272.77   16.20
  -4   5   3  277.07   12.70
   3  -5  -3  996.90   41.60
   3  -5  -3  948.61   41.10
  -3   5   3 1038.60   40.90
  -3   5   3  958.20   42.60
   2  -5  -3   14.00    2.80
   2  -5  -3   13.30    3.20
  -2   5   3   10.90    3.90
  -2   5   3   14.60    2.70
  -2   5   3   11.90    3.00
   1  -5  -3   -3.00    4.10
   1  -5  -3   -1.70    2.70
   1  -5  -3    3.00    2.00
  -1   5   3    2.20    2.10
  -1   5   3    1.90    2.10
  -1   5   3   -2.20    2.80
   0  -5  -3  285.87   12.90
   0  -5  -3  265.77   14.10
   0  -5  -3  278.67   13.10
   0   5   3  286.17   12.80
   0   5   3  281.27   13.70
   0   5   3  289.17   12.80
  -1  -5  -3   -3.20    2.90
  -1  -5  -3   -0.50    1.90
  -1  -5  -3   -0.40    1.50
   1   5   3    0.20    1.80
   1   5   3    1.40    1.80
   1   5   3   -0.10    2.40
  -2  -5  -3 1610.34   65.69
  -2  -5  -3 1628.54   65.99
  -2  -5  -3 1614.74   66.29
   2   5   3 1602.44   65.69
   2   5   3 1628.84   65.79
   2   5   3 1624.04   66.29
  -3  -5  -3 3275.67  131.79
  -3  -5  -3 3290.87  131.49
  -3  -5  -3 3226.78  131.19
   3   5   3 3274.77  131.29
   3   5   3 3267.07  131.69
   3   5   3 3249.67  131.19
  -4  -5  -3  117.09    6.70
  -4  -5  -3  124.19    6.80
  -4  -5  -3  120.79    7.80
   4   5   3  116.89    6.80
   4   5   3  125.49    7.40
   4   5   3  121.79    6.30
  -5  -5  -3    1.50    3.30
  -5  -5  -3    0.60    2.00
   5   5   3    3.60    1.90
   5   5   3    1.10    1.70
   5   5   3    0.70    2.60
  -6  -5  -3   99.79    6.40
  -6  -5  -3  119.69    8.60
   6   5   3   95.19    6.30
   6   5   3   97.29    5.80
   6   5   3   96.59    7.60
   6   5   3   96.19    5.90
  -7  -5  -3   65.19    8.90
  -7  -5  -3   54.89    5.10
   7   5   3   52.19    4.90
   7   5   3   56.69    5.50
   7   5   3   49.60    7.30
  -8  -5  -3    1.60    2.80
   8   5   3    2.00    2.80
   8   5   3   -3.90    4.70
   8   5   3    1.50    3.10
  -9  -5  -3   -3.40    2.90
   9   5   3    4.90    3.90
   9   5   3    5.30    3.80
   9   5   3   -2.00    5.80
  10   5   3    4.40    7.40
  10   5   3    1.20    3.30
  10   5   3   -0.10    4.80
  10   5   3    1.40    4.80
  11   5   3    0.30    3.60
  11   5   3   -2.90    9.20
  11   5   3    3.80    6.10
  12   5   3   -1.10    7.90
  12   5   3   19.00   12.60
   6  -6  -3    6.50    6.40
  -6   6   3   -5.10    9.60
  -6   6   3    1.50    5.90
   5  -6  -3   10.50    5.40
  -5   6   3    0.40    7.70
   4  -6  -3   26.70    5.60
  -4   6   3   30.10    7.10
  -4   6   3   26.30    4.00
   3  -6  -3  175.98   12.10
   3  -6  -3  200.98   11.40
  -3   6   3  216.88   10.40
  -3   6   3  192.48   13.70
   2  -6  -3  696.73   32.10
   2  -6  -3  794.42   32.70
  -2   6   3  715.63   34.30
  -2   6   3  812.72   31.80
   1  -6  -3  361.06   16.50
   1  -6  -3  366.06   17.40
  -1   6   3  374.36   16.20
  -1   6   3  331.57   17.50
   0  -6  -3  133.59   11.00
   0  -6  -3  157.68    8.40
   0  -6  -3  157.48    8.50
   0   6   3  145.49    9.80
   0   6   3  138.89    8.10
   0   6   3  156.28    8.10
  -1  -6  -3  363.66   15.90
  -1  -6  -3  313.87   16.60
  -1  -6  -3  351.46   15.50
   1   6   3  353.36   15.50
   1   6   3  329.57   15.40
   1   6   3  351.76   16.60
  -2  -6  -3  434.46   18.40
  -2  -6  -3  395.16   19.10
  -2  -6  -3  400.96   18.00
   2   6   3  411.46   19.00
   2   6   3  419.06   18.20
   2   6   3  409.16   18.00
  -3  -6  -3   47.90    4.70
  -3  -6  -3   49.30    4.40
  -3  -6  -3   39.70    6.20
   3   6   3   48.10    4.80
   3   6   3   49.90    6.00
   3   6   3   45.70    3.90
  -4  -6  -3  550.64   23.10
  -4  -6  -3  522.05   22.70
  -4  -6  -3  497.75   23.80
   4   6   3  530.45   22.60
   4   6   3  546.95   23.70
   4   6   3  543.05   23.10
  -5  -6  -3   40.60    4.60
  -5  -6  -3   37.80    5.10
   5   6   3   44.10    6.10
   5   6   3   38.80    3.70
   5   6   3   34.20    4.60
  -6  -6  -3  226.78   13.60
  -6  -6  -3  267.27   12.10
   6   6   3  235.88   11.60
   6   6   3  241.88   12.20
   6   6   3  256.87   13.30
   6   6   3  255.77   11.50
  -7  -6  -3    3.40    5.40
  -7  -6  -3    2.00    2.80
   7   6   3   -2.20    4.00
   7   6   3   -0.10    2.40
   7   6   3    2.40    2.50
  -8  -6  -3   74.79    6.60
   8   6   3   81.19    5.90
   8   6   3   84.89   10.00
  -9  -6  -3  279.17   13.00
   9   6   3  266.87   16.90
   9   6   3  245.48   12.70
 -10  -6  -3    1.70    3.80
  10   6   3    0.60    7.70
  10   6   3    2.30    4.80
  10   6   3    5.90    4.60
  11   6   3   14.10    6.30
  11   6   3   10.40    9.50
  11   6   3    8.50    4.00
  12   6   3   93.89   10.40
   5  -7  -3   15.50    7.20
  -5   7   3    7.90    9.60
   4  -7  -3   47.70    7.30
  -4   7   3   49.00    9.50
  -4   7   3   68.69    7.70
   3  -7  -3   -1.70    4.40
  -3   7   3    6.20    3.60
  -3   7   3    8.00    6.50
   2  -7  -3  172.58   12.20
   2  -7  -3  208.38   11.70
  -2   7   3  199.98   10.30
  -2   7   3  185.58   13.70
   1  -7  -3   17.30    4.30
   1  -7  -3   29.60    4.40
  -1   7   3   24.70    5.20
  -1   7   3   27.30    3.90
   0  -7  -3   18.30    3.60
   0   7   3   15.80    3.30
   0   7   3   17.40    4.90
  -1  -7  -3   46.70    5.70
  -1  -7  -3   44.80    5.00
   1   7   3   45.30    5.20
   1   7   3   45.10    7.40
  -2  -7  -3   13.50    5.10
  -2  -7  -3   14.10    2.90
  -2  -7  -3   15.50    3.00
   2   7   3   18.30    4.20
   2   7   3   19.10    3.20
   2   7   3   11.20    2.60
  -3  -7  -3  241.18   11.60
  -3  -7  -3  229.68   11.30
  -3  -7  -3  210.08   13.00
   3   7   3  238.78   13.10
   3   7   3  239.68   11.60
   3   7   3  224.38   11.00
  -4  -7  -3  134.09    7.90
  -4  -7  -3  134.19   10.30
  -4  -7  -3  136.49    8.00
   4   7   3  135.59    9.70
   4   7   3  146.09    7.40
   4   7   3  129.19    8.10
  -5  -7  -3  319.67   14.40
  -5  -7  -3  285.47   16.10
   5   7   3  316.37   15.80
   5   7   3  294.47   13.60
   5   7   3  293.37   14.50
  -6  -7  -3  144.49    8.30
  -6  -7  -3  116.59   11.20
   6   7   3  137.39    7.40
   6   7   3  150.38   10.20
   6   7   3  131.59    8.40
  -7  -7  -3   -0.30    3.20
   7   7   3   -3.20    4.50
   7   7   3    2.50    2.50
   7   7   3    2.10    3.00
  -8  -7  -3   49.50    6.60
   8   7   3   54.79    5.20
   8   7   3   64.69   10.30
  -9  -7  -3  394.56   18.80
   9   7   3  453.85   22.60
   9   7   3  386.46   18.10
 -10  -7  -3    8.50    4.20
  10   7   3   12.30    8.30
  10   7   3    5.80    5.10
  11   7   3    4.30    5.80
  11   7   3    2.10    9.90
  12   7   3   34.60    8.00
  12   7   3   27.90   12.50
   4  -8  -3    6.10    6.30
   3  -8  -3   19.70    6.10
  -3   8   3   13.40    7.90
   2  -8  -3   47.60    6.30
  -2   8   3   57.39    7.10
  -2   8   3   45.10    8.10
   1  -8  -3   -2.60    4.20
   1  -8  -3    4.20    5.40
  -1   8   3    5.50    5.80
  -1   8   3    7.40    3.50
   0  -8  -3  296.37   15.20
   0   8   3  300.67   17.40
   0   8   3  312.67   14.70
  -1  -8  -3   22.20    5.50
  -1  -8  -3   13.40    3.80
   1   8   3    9.50    7.30
   1   8   3   14.10    3.50
  -2  -8  -3   98.09    7.60
  -2  -8  -3   89.19    7.40
   2   8   3  110.29    7.40
   2   8   3  100.59    9.80
  -3  -8  -3    8.90    3.40
  -3  -8  -3   16.20    3.70
   3   8   3   26.50    5.20
   3   8   3   21.90    3.70
  -4  -8  -3   -1.10    3.00
  -4  -8  -3    2.50    3.30
   4   8   3    3.00    4.50
   4   8   3   -1.10    2.90
  -5  -8  -3   49.60    5.80
   5   8   3   38.20    4.60
   5   8   3   45.00    6.30
   5   8   3   53.09    6.50
  -6  -8  -3   96.59    7.50
   6   8   3   87.49    6.30
   6   8   3   81.29    7.80
   6   8   3  112.59    9.80
  -7  -8  -3  108.19    8.20
   7   8   3  113.89   10.90
   7   8   3  101.39    9.40
   7   8   3   99.39    6.60
  -8  -8  -3    3.00    3.80
   8   8   3   -2.90    7.60
   8   8   3   -1.30    2.90
  -9  -8  -3    8.90    4.50
   9   8   3    7.00    6.90
   9   8   3   -0.70    4.30
   9   8   3    1.30    3.40
 -10  -8  -3   20.40    5.10
  10   8   3   17.90    8.70
  10   8   3   23.30    5.80
  11   8   3    4.60    6.70
  11   8   3   14.70   10.50
  12   8   3   13.00    8.20
  12   8   3   21.90   12.90
   2  -9  -3   30.80    7.20
  -2   9   3   16.50    8.70
   1  -9  -3    0.10    5.20
  -1   9   3    3.20    4.10
  -1   9   3    1.00    7.10
   0  -9  -3   43.40    6.20
   0   9   3   27.10    7.70
   0   9   3   20.80    4.70
  -1  -9  -3   79.89    8.20
  -1  -9  -3   63.79    9.10
   1   9   3   76.09    7.70
   1   9   3   70.49   11.20
  -2  -9  -3   -1.10    4.40
   2   9   3    3.30    3.60
   2   9   3    1.90    5.50
  -3  -9  -3   94.09    8.80
  -3  -9  -3  113.89    9.20
   3   9   3  105.89   11.40
   3   9   3  116.09    8.30
  -4  -9  -3    8.00    3.70
   4   9   3   -1.60    3.40
   4   9   3   -6.80    5.70
  -5  -9  -3  777.62   32.90
   5   9   3  726.23   32.60
   5   9   3  760.02   35.00
  -6  -9  -3   43.30    5.30
   6   9   3   28.10    4.80
   6   9   3   37.60    6.90
  -7  -9  -3    7.40    4.20
   7   9   3   11.30    6.10
  -8  -9  -3   -1.80    4.50
   8   9   3    2.20    3.60
   8   9   3    1.00    4.30
   8   9   3   -4.20    6.50
  -9  -9  -3   -3.60    4.80
   9   9   3    5.40    4.70
   9   9   3    6.50    7.70
 -10  -9  -3    7.10    5.40
  10   9   3   16.00    6.10
  10   9   3    8.90    8.90
  11   9   3   38.10    8.20
  11   9   3   54.99   11.70
   1 -10  -3    7.70    6.60
  -1  10   3   28.20   10.20
   0 -10  -3   44.60    7.60
   0  10   3   32.10    7.90
   0  10   3   25.30    8.60
  -1 -10  -3    3.00    5.40
   1  10   3    7.20    4.70
   1  10   3   23.10    8.40
  -2 -10  -3    2.70    4.90
   2  10   3    6.70    7.10
   2  10   3   11.30    4.60
  -3 -10  -3   21.50    4.90
   3  10   3   15.80    4.60
   3  10   3   12.80    6.90
  -4 -10  -3  162.38   11.30
   4  10   3  179.78   14.40
   4  10   3  163.18   10.90
   5  10   3   30.40    6.40
   5  10   3   31.00    7.50
  -6 -10  -3    8.80    5.20
   6  10   3    6.20    7.10
   6  10   3   12.00    6.20
  -7 -10  -3   -2.80    4.60
   7  10   3    2.30    5.20
   7  10   3   -3.00    7.30
  -8 -10  -3    7.90    5.60
   8  10   3    3.60    5.00
   8  10   3    4.10    7.60
  -9 -10  -3    8.10    6.00
   9  10   3   -3.90    8.90
   9  10   3  -10.30    5.50
 -10 -10  -3   35.20   14.00
  10  10   3   43.20    8.30
  10  10   3   24.40   10.60
  11  10   3   16.20    7.40
  11  10   3    4.10   11.70
  -1 -11  -3   -1.20    6.60
   1  11   3    8.10    9.80
  -2 -11  -3   78.39    9.10
   2  11   3   55.99   10.40
   2  11   3   60.19    7.90
  -3 -11  -3   46.10    7.20
   3  11   3   37.10    7.10
   3  11   3   44.30    9.30
  -4 -11  -3    9.80    5.50
   4  11   3    9.90    8.20
   4  11   3   13.90    6.60
  -5 -11  -3   27.90    6.40
   5  11   3   29.10    8.90
  -6 -11  -3   27.70    6.20
   6  11   3   16.90    5.80
   6  11   3   18.00    8.50
  -7 -11  -3   64.49    9.40
   7  11   3   52.59   10.30
   7  11   3   71.09   10.10
   8  11   3   57.19   10.20
   8  11   3   58.09    7.90
  -9 -11  -3   26.70    8.10
   9  11   3   14.50   10.10
   9  11   3   28.70    7.10
  10  11   3  -17.60   10.90
  10  11   3    2.80    7.40
  -4 -12  -3   15.00    7.40
   4  12   3   -5.70    9.40
  -5 -12  -3   -7.00    7.10
   5  12   3   11.50    7.40
   5  12   3   -3.20   10.20
  -6 -12  -3    7.00    7.10
   6  12   3   -3.50   10.20
   6  12   3   15.80    6.70
  -7 -12  -3   -2.30    7.20
   7  12   3   10.60   10.50
   7  12   3   -2.50    6.50
  -8 -12  -3    0.60    7.60
   8  12   3    2.10   11.40
   8  12   3    0.00    6.80
   5  11  -4   14.50   11.20
  -5 -11   4   17.90    6.90
   8  10  -4   -0.60    9.70
   8  10  -4   -0.50    5.50
   7  10  -4   24.90    9.60
   6  10  -4   15.90    4.90
   6  10  -4   11.20    8.60
   5  10  -4  132.39   16.70
  -5 -10   4  122.59    9.20
   4  10  -4   13.00    9.20
   3  10  -4  -13.80    8.60
  -3 -10   4    2.40    4.30
   2  10  -4   -0.90    8.90
  -2 -10   4    9.80    4.90
   1  10  -4   23.10   10.00
  -1 -10   4    8.70    5.30
   9   9  -4   25.20    9.50
  -9  -9   4   23.40    5.00
   8   9  -4   -9.80    7.90
   7   9  -4   22.70    8.20
   6   9  -4    0.60    6.80
   6   9  -4    6.80    4.00
   5   9  -4   17.70    3.90
   5   9  -4   13.70    6.80
  -5  -9   4   17.40    3.60
   4   9  -4   85.89   13.30
  -4  -9   4  104.69    7.40
   3   9  -4   25.60    7.60
  -3  -9   4   24.00    4.20
   2   9  -4    3.40    7.30
  -2  -9   4    0.40    3.70
   1   9  -4  179.78   15.80
  -1  -9   4  169.28   10.80
   0   9  -4  175.68   17.20
   0  -9   4  183.18   11.60
  -1   9  -4    0.20    8.80
   1  -9   4   -2.80    4.70
  10   8  -4   15.50   10.40
 -10  -8   4   30.00    5.50
   9   8  -4    3.20    8.80
  -9  -8   4   10.80    4.10
   8   8  -4   -1.70    7.60
  -8  -8   4   -2.20    3.20
   7   8  -4   -1.20    6.30
  -7  -8   4    8.40    3.20
   6   8  -4   71.59   13.70
  -6  -8   4   71.59    5.70
   5   8  -4  264.27   13.70
  -5  -8   4  299.37   13.00
   4   8  -4   44.00    4.90
   4   8  -4   43.10    6.90
   4   8  -4   30.40    3.60
  -4  -8   4   36.80    4.50
  -4  -8   4   43.60    4.70
   3   8  -4   35.10    6.90
  -3  -8   4   39.90    4.90
   2   8  -4   92.39   11.10
  -2  -8   4   77.69    6.30
   0   8  -4  215.28   24.60
   0  -8   4  298.47   14.10
  -1   8  -4   28.10    7.70
   1  -8   4   30.10    4.70
  -2   8  -4   24.90    8.60
   2  -8   4   18.40    4.70
  -3   8  -4    0.40    9.60
   3  -8   4    3.80    4.90
  10   7  -4   15.50    9.80
 -10  -7   4   20.60    5.00
   9   7  -4   15.40    8.20
  -9  -7   4    1.90    3.80
   8   7  -4    7.10    6.80
  -8  -7   4    6.20    3.10
   6   7  -4   22.50    7.20
  -6  -7   4   27.40    3.30
   5   7  -4  931.21   40.80
   5   7  -4  995.90   43.10
  -5  -7   4  996.60   40.30
  -5  -7   4 1022.30   40.70
   4   7  -4   31.20    5.40
   4   7  -4   22.80    2.90
  -4  -7   4   23.20    3.20
  -4  -7   4   28.80    3.60
  -4  -7   4   18.70    3.10
   3   7  -4   15.90    4.90
  -3  -7   4   12.20    3.00
  -3  -7   4   18.10    2.60
   2   7  -4   13.30    5.10
  -2  -7   4    8.40    3.80
  -2  -7   4    8.50    2.30
   1   7  -4    1.60    4.90
  -1  -7   4    6.00    2.50
   0   7  -4    9.30    5.20
   0  -7   4   14.10    3.20
   1  -7   4  108.09    7.60
   2  -7   4    9.50    3.50
  -3   7  -4    8.60    7.60
   3  -7   4   -0.50    3.60
  -4   7  -4    9.20    9.20
   4  -7   4    6.80    4.80
  11   6  -4   15.90   11.50
 -11  -6   4    0.10    7.70
  10   6  -4   46.30   10.40
 -10  -6   4   44.20    5.60
   9   6  -4   30.20    8.00
  -9  -6   4   31.60    4.80
   8   6  -4   22.90    6.80
   7   6  -4  202.38   13.60
  -7  -6   4  169.88   11.70
   6   6  -4   33.70    6.00
  -6  -6   4   28.50    4.10
   5   6  -4   63.49    8.20
   5   6  -4   48.70    5.40
  -5  -6   4   51.49    4.30
   4   6  -4   13.50    4.40
   4   6  -4   19.40    2.60
  -4  -6   4   18.20    2.30
  -4  -6   4   15.70    5.20
  -4  -6   4   16.20    2.00
  -4  -6   4   13.60    2.50
   3   6  -4    0.10    1.80
   3   6  -4    2.40    3.70
  -3  -6   4   -1.30    1.40
  -3  -6   4    7.40    4.60
  -3  -6   4    0.50    1.30
  -3  -6   4    0.90    2.20
   2   6  -4  149.09   10.10
  -2  -6   4  122.29    7.70
  -2  -6   4  148.79    7.30
  -2  -6   4  138.09   10.40
   1   6  -4  213.68   12.20
  -1  -6   4  192.58   10.50
  -1  -6   4  209.08    9.80
  -1  -6   4  183.68   12.50
   0   6  -4  138.39   10.50
   0  -6   4  119.29   10.80
   0  -6   4  142.99    7.60
  -1   6  -4    5.00    4.60
   1  -6   4    6.50    2.70
  -2   6  -4   80.89   10.00
  -3   6  -4   53.59    7.60
   3  -6   4   56.99    6.30
  -4   6  -4   70.39    9.10
   4  -6   4   72.09    7.50
  -5   6  -4    1.00    8.70
   5  -6   4    1.80    4.20
  11   5  -4    3.90   11.10
 -11  -5   4    0.00    5.90
  10   5  -4    2.70    9.00
 -10  -5   4   -3.10    4.10
   9   5  -4    1.00    7.10
  -9  -5   4    7.50    3.50
  -8  -5   4    0.30    2.80
   7   5  -4   -2.10    5.40
  -7  -5   4    2.00    2.50
   6   5  -4   -3.10    4.20
  -6  -5   4   -1.20    1.80
   5   5  -4  317.87   14.80
   5   5  -4  335.47   16.90
  -5  -5   4  337.87   14.60
  -5  -5   4  320.27   17.40
   4   5  -4   23.80    4.30
   4   5  -4   21.90    2.60
  -4  -5   4   22.30    2.90
  -4  -5   4   23.60    4.80
   3   5  -4  202.38   10.60
   3   5  -4  176.48    8.60
  -3  -5   4  179.38    8.20
  -3  -5   4  180.38    8.20
  -3  -5   4  173.28    8.60
  -3  -5   4  169.78   11.10
   2   5  -4   22.70    3.90
  -2  -5   4   24.00    2.60
  -2  -5   4   21.00    2.70
  -2  -5   4   22.30    4.10
   1   5  -4  292.37   13.80
  -1  -5   4  277.67   12.30
  -1  -5   4  258.97   12.60
  -1  -5   4  261.67   13.90
   0   5  -4   28.90    4.50
   0  -5   4   32.30    3.40
   0  -5   4   34.50    3.90
   0  -5   4   27.70    4.40
  -1   5  -4   35.80    4.70
   1  -5   4   33.20    4.70
   1  -5   4   36.60    3.80
  -2   5  -4  276.27   14.20
   2  -5   4  217.28   14.30
   2  -5   4  280.57   12.60
  -3   5  -4    2.30    4.70
  -4   5  -4   35.30    7.80
  -5   5  -4    3.20    9.50
   5  -5   4    3.20    3.50
  -6   5  -4    1.50    8.80
   6  -5   4   -1.20    3.90
  11   4  -4   42.20   13.40
  10   4  -4   16.80    9.20
 -10  -4   4   -2.60    3.80
   9   4  -4  147.69   14.80
  -9  -4   4  122.99    9.00
  -8  -4   4  287.67   14.10
   7   4  -4  174.88   12.30
  -7  -4   4  161.18    9.50
   6   4  -4    4.20    4.30
  -6  -4   4    3.10    2.00
   5   4  -4  324.67   15.20
   5   4  -4  354.26   17.00
  -5  -4   4  318.67   17.20
  -5  -4   4  362.76   15.20
   4   4  -4   22.40    3.90
   4   4  -4   17.70    2.70
  -4  -4   4   21.10    2.90
  -4  -4   4   25.90    4.40
   3   4  -4  279.97   13.40
   3   4  -4  259.37   12.10
  -3  -4   4  280.37   11.90
  -3  -4   4  259.87   11.60
  -3  -4   4  283.47   13.80
   2   4  -4    2.00    2.70
   2   4  -4    3.60    1.50
  -2  -4   4    4.20    2.90
  -2  -4   4    1.60    1.10
  -2  -4   4    0.70    1.60
  -2  -4   4    1.90    1.10
   1   4  -4  105.79    7.10
  -1  -4   4  102.79    5.90
  -1  -4   4  105.19    5.50
  -1  -4   4  102.99    7.20
   0   4  -4  516.55   22.00
   0  -4   4  499.95   21.30
   0  -4   4  507.15   22.00
   0  -4   4  471.55   21.40
  -1   4  -4  349.17   16.10
   1  -4   4  356.56   15.30
   1  -4   4  334.77   15.50
   1  -4   4  331.67   16.00
  -2   4  -4    0.60    3.10
   2  -4   4    4.00    1.90
   2  -4   4    5.30    3.60
   2  -4   4    1.50    2.70
  -3   4  -4    9.20    4.10
   3  -4   4    5.30    4.50
   3  -4   4    8.90    2.30
  -4   4  -4   35.10    5.60
   4  -4   4   16.00    7.10
  -5   4  -4    4.70    5.90
   5  -4   4    1.80    2.90
   6  -4   4   -2.10    3.40
  -7   4  -4    2.50    9.10
   7  -4   4    4.70    4.50
  10   3  -4    9.50    9.00
 -10  -3   4    1.00    4.40
   9   3  -4   12.70    7.40
  -9  -3   4   18.50    4.00
   7   3  -4  210.78   13.40
  -7  -3   4  189.98   11.90
   6   3  -4   49.99    7.70
   6   3  -4   34.20    6.00
  -6  -3   4   40.90    4.40
   5   3  -4   98.39    7.90
   5   3  -4   80.29    6.00
  -5  -3   4   87.49    5.40
   4   3  -4   58.09    4.40
   4   3  -4   60.79    6.20
  -4  -3   4   54.59    6.80
  -4  -3   4   55.79    3.90
   3   3  -4   10.10    1.90
   3   3  -4   10.20    2.80
  -3  -3   4    7.10    1.50
  -3  -3   4   18.50    3.30
   2   3  -4  121.49    6.80
   2   3  -4  105.29    5.70
  -2  -3   4  104.89    6.20
  -2  -3   4  103.09    5.40
  -2  -3   4  121.79    7.10
  -2  -3   4  108.89    5.30
   1   3  -4   13.50    1.80
  -1  -3   4   15.10    2.00
  -1  -3   4   18.60    2.10
  -1  -3   4   19.10    2.40
   0  -3   4   97.69    5.40
   0  -3   4  104.29    5.80
   1  -3   4   36.70    4.10
   1  -3   4   42.10    3.40
  -2   3  -4  195.28   10.40
   2  -3   4  210.18   10.40
   2  -3   4  215.58   10.00
  -3   3  -4  202.48   10.80
   3  -3   4  190.58   11.00
   3  -3   4  198.38   10.60
   3  -3   4  208.18    9.90
  -4   3  -4  102.49    8.90
   4  -3   4  108.89    6.60
   4  -3   4  110.39    9.00
  -5   3  -4   29.20    5.50
   5  -3   4   29.00    6.20
   5  -3   4   35.20    4.80
  -6   3  -4   18.30    6.60
   6  -3   4   10.10    3.30
  -7   3  -4    3.90    9.90
   7  -3   4    0.20    3.70
  -8   3  -4   -1.70    9.70
   8  -3   4   -0.70    4.80
  10   2  -4   30.30   10.10
 -10  -2   4   31.90    5.20
   9   2  -4   29.00    8.30
  -9  -2   4   30.40    4.50
  -8  -2   4   35.90    4.90
   7   2  -4   21.10    5.90
   6   2  -4    3.20    4.10
   6   2  -4    7.80    4.90
  -6  -2   4    6.10    2.30
   5   2  -4 1380.06   57.69
   5   2  -4 1407.86   58.79
   5   2  -4 1378.16   58.59
  -5  -2   4 1473.45   57.69
   4   2  -4  139.59    7.40
   4   2  -4  144.89    8.50
   4   2  -4  134.49    8.50
  -4  -2   4  137.69    7.00
   3   2  -4   29.20    2.90
   3   2  -4   27.90    4.30
  -3  -2   4   29.40    3.60
  -3  -2   4   24.20    2.60
   2   2  -4 1192.68   48.20
   2   2  -4 1228.78   48.70
   2   2  -4 1213.48   48.00
  -2  -2   4 1189.38   48.20
  -2  -2   4 1110.79   48.00
   1   2  -4    3.80    1.10
   1   2  -4    3.90    1.60
  -1  -2   4    3.50    1.60
  -1  -2   4    3.00    1.10
   0   2  -4   71.49    4.10
   0  -2   4   77.59    4.70
   1  -2   4 1745.43   71.49
   1  -2   4 1779.02   71.59
   2  -2   4  489.45   21.30
   2  -2   4  504.85   21.60
   3  -2   4   83.59    5.30
   3  -2   4   81.59    6.10
  -4   2  -4    9.10    3.30
   4  -2   4    2.60    3.40
   4  -2   4    1.40    1.90
   4  -2   4   -0.70    3.20
  -5   2  -4   38.60    5.20
   5  -2   4   28.10    3.50
   5  -2   4   22.00    4.60
  -6   2  -4   -3.20    4.90
   6  -2   4   -4.20    6.60
   6  -2   4   -1.50    2.70
  -7   2  -4   13.50    8.40
   7  -2   4    8.60    3.30
   7  -2   4   13.90    3.70
  -8   2  -4   50.29    9.50
   8  -2   4   74.19    7.80
   8  -2   4   72.19    8.50
   9  -2   4    1.50    5.30
  10   1  -4   17.40   10.80
 -10  -1   4   13.70    5.00
   9   1  -4   27.50    9.70
  -9  -1   4   24.10    4.70
   8   1  -4  110.69   13.40
  -8  -1   4   90.39    7.40
  -7  -1   4 1713.53   71.09
   6   1  -4  143.89   11.20
  -6  -1   4  143.49    8.00
   5   1  -4    7.80    2.50
   5   1  -4    6.30    3.70
   5   1  -4    3.20    3.70
  -5  -1   4    7.70    2.10
   4   1  -4    1.20    1.80
   4   1  -4    1.80    3.00
   4   1  -4    1.40    2.90
  -4  -1   4   -1.80    1.50
   3   1  -4    8.10    3.00
   3   1  -4    6.80    1.90
   3   1  -4    9.60    2.80
   3   1  -4   10.70    2.60
  -3  -1   4   14.00    1.60
  -3  -1   4   11.40    1.80
   2   1  -4  175.88    8.50
   2   1  -4  194.58    8.70
  -2  -1   4  200.88    8.50
  -2  -1   4  175.68    8.40
   1   1  -4 2340.47   90.49
   1   1  -4 2283.37   90.49
  -1  -1   4 2169.18   90.39
  -1  -1   4 2209.58   90.59
   0   1  -4  221.28    9.90
   0   1  -4  224.68   10.00
   0  -1   4  219.88    9.80
   0  -1   4  229.78   10.20
  -1   1  -4   41.30    3.00
  -1   1  -4   37.30    3.00
   1  -1   4   42.40    3.60
  -2   1  -4  111.69    5.30
  -2   1  -4  104.19    5.70
   2  -1   4  106.09    6.20
   3  -1   4    5.20    1.70
   3  -1   4    6.70    1.80
   3  -1   4    8.30    2.30
   4  -1   4  129.69    7.00
   4  -1   4  107.99    7.50
   4  -1   4  129.79    6.40
  -5   1  -4  290.67   14.30
   5  -1   4  294.67   12.80
   5  -1   4  270.37   14.00
   5  -1   4  295.27   12.40
   5  -1   4  284.47   13.50
   5  -1   4  272.87   14.00
  -6   1  -4    1.40    4.20
   6  -1   4    4.20    2.50
   6  -1   4   -0.70    4.40
   6  -1   4    3.30    2.20
   6  -1   4    3.10    2.50
  -7   1  -4    7.10    5.30
   7  -1   4    1.80    2.80
   7  -1   4    1.90    3.10
   7  -1   4    4.30    3.20
   8  -1   4    6.80    4.20
   8  -1   4   -1.00    3.40
   9  -1   4   11.80    5.50
   9  -1   4    6.70    4.50
   9   0  -4    7.60    9.40
  -9   0   4    6.40    4.30
   8   0  -4   -2.70    7.60
  -8   0   4    8.20    3.50
   7   0  -4  199.78    9.80
   6   0  -4   10.60    5.00
   6   0  -4    6.10    2.00
  -6   0   4    7.80    2.70
  -6   0   4    2.00    1.70
   5   0  -4  118.79    9.30
   5   0  -4  109.19    5.70
   5   0  -4   89.09    6.90
   5   0  -4   99.69    9.10
  -5   0   4  108.49    5.50
  -5   0   4  107.39    6.50
   4   0  -4   42.40    3.40
   4   0  -4   43.80    6.00
   4   0  -4   45.60    6.20
   4   0  -4   38.30    4.40
  -4   0   4   47.50    3.80
  -4   0   4   45.90    3.60
   3   0  -4  503.05   22.00
   3   0  -4  482.95   20.90
   3   0  -4  515.55   21.90
   3   0  -4  503.85   21.40
  -3   0   4  513.75   20.80
  -3   0   4  491.25   21.20
   2   0  -4 3664.63  142.59
   2   0  -4 3509.25  142.39
   2   0  -4 3539.55  142.79
  -2   0   4 3575.04  142.29
  -2   0   4 3484.65  142.49
   1   0  -4  795.32   31.90
   1   0  -4  776.22   31.90
  -1   0   4  754.82   31.80
  -1   0   4  776.32   31.80
   0   0  -4    5.00    1.70
   0   0  -4    4.50    1.60
   0   0   4    5.90    1.70
  -1   0  -4 1801.32   70.59
  -1   0  -4 1728.03   70.89
   1   0   4 1718.13   70.99
   1   0   4 1760.82   70.59
  -2   0  -4  392.96   15.80
  -2   0  -4  350.06   16.00
   2   0   4  374.86   15.80
   2   0   4  371.86   16.30
  -3   0  -4  581.14   24.50
   3   0   4  583.94   24.80
   3   0   4  578.64   24.10
  -4   0  -4 6069.49  246.68
   4   0   4 6126.49  245.98
   4   0   4 6267.57  246.28
   4   0   4 6183.98  247.08
   5   0   4  306.37   13.20
   5   0   4  302.77   14.00
   5   0   4  294.07   14.40
   5   0   4  310.87   13.60
   6   0   4   23.80    4.40
   6   0   4   26.10    4.50
   6   0   4   34.00    3.80
   6   0   4   30.60    4.30
   6   0   4   27.50    3.30
   7   0   4    4.50    5.00
   7   0   4   -0.10    2.90
   7   0   4   -5.00    2.40
   7   0   4    1.10    2.60
   8   0   4   61.09    8.60
   8   0   4   57.99    6.20
   8   0   4   39.30    4.80
   8   0   4   54.69    7.20
   9   0   4   19.30    5.30
   9   0   4    8.90    9.30
   9   0   4   19.20    4.30
  10   0   4   31.50    7.10
  10   0   4   28.80   13.00
  10   0   4   37.00    6.10
   9  -1  -4   -0.20   11.10
  -9   1   4    4.00    4.70
   8  -1  -4    6.60    8.40
   8  -1  -4    1.90    3.50
  -8   1   4    3.60    3.60
   7  -1  -4  194.98    9.70
  -7   1   4  171.48    9.70
   6  -1  -4  706.03   29.60
  -6   1   4  709.73   30.00
  -6   1   4  694.73   29.30
   5  -1  -4  637.74   26.20
   5  -1  -4  616.74   29.10
  -5   1   4  623.44   26.50
  -5   1   4  633.14   28.30
  -5   1   4  602.34   25.90
   4  -1  -4   18.80    3.30
   4  -1  -4   19.70    3.70
   4  -1  -4   19.30    2.50
  -4   1   4   22.00    4.20
  -4   1   4   17.60    2.60
  -4   1   4   16.20    2.20
   3  -1  -4   33.80    4.00
   3  -1  -4   30.20    3.00
   3  -1  -4   31.80    4.10
  -3   1   4   39.40    4.90
  -3   1   4   29.50    2.90
  -3   1   4   32.20    3.20
   2  -1  -4  626.14   26.10
   2  -1  -4  635.74   26.50
   2  -1  -4  608.44   26.30
  -2   1   4  634.14   26.00
  -2   1   4  651.43   26.70
  -2   1   4  612.44   26.20
   1  -1  -4  957.90   39.50
   1  -1  -4  944.01   39.40
  -1   1   4  962.90   39.40
  -1   1   4  989.60   39.50
   0  -1  -4 1403.66   55.99
   0  -1  -4 1359.46   56.09
   0   1   4 1379.76   55.99
   0   1   4 1376.06   55.89
  -1  -1  -4  152.58    7.50
  -1  -1  -4  159.98    7.50
   1   1   4  162.58    7.40
   1   1   4  152.28    7.50
  -2  -1  -4  663.93   27.70
  -2  -1  -4  684.63   27.40
   2   1   4  654.23   27.30
   2   1   4  643.54   27.70
  -3  -1  -4   55.19    4.10
  -3  -1  -4   59.19    4.10
   3   1   4   60.19    4.40
   3   1   4   72.29    4.20
  -4  -1  -4 4002.30  159.18
  -4  -1  -4 3909.11  159.68
   4   1   4 4026.70  159.38
   4   1   4 3960.00  159.88
  -5  -1  -4 2480.85  101.89
   5   1   4 2524.65  101.29
   5   1   4 2544.05  102.29
   5   1   4 2534.05  101.59
   6   1   4  142.49    7.30
   6   1   4  142.69    8.80
   6   1   4  153.28    7.90
   6   1   4  127.29    8.40
   6   1   4  141.09    7.90
   7   1   4   19.00    3.30
   7   1   4   11.10    4.50
   7   1   4   18.20    5.10
   7   1   4   17.10    3.30
   7   1   4   19.90    2.80
   7   1   4    6.40    4.10
   8   1   4   17.30    3.60
   8   1   4   11.80    6.30
   8   1   4   15.60    4.00
   9   1   4    6.60    4.80
   9   1   4   -3.90    7.90
   9   1   4    1.30    3.40
  10   1   4   10.40    4.50
  10   1   4   12.50   11.20
  10   1   4    7.30    6.30
   8  -2  -4    0.70    4.40
  -8   2   4    3.80    4.30
   7  -2  -4   74.49    7.20
  -7   2   4   78.89    7.30
  -7   2   4   79.69   12.70
   6  -2  -4  256.67   12.40
  -6   2   4  227.78   12.00
  -6   2   4  270.97   16.40
   5  -2  -4    9.50    2.70
  -5   2   4    7.50    2.70
  -5   2   4   11.20    4.80
  -5   2   4    4.90    2.30
   4  -2  -4   23.10    3.70
   4  -2  -4   25.10    3.10
   4  -2  -4   17.50    4.60
  -4   2   4   22.60    2.70
  -4   2   4   22.70    3.30
  -4   2   4   23.10    4.50
   3  -2  -4 1188.58   49.70
   3  -2  -4 1201.38   49.10
   3  -2  -4 1172.58   48.90
  -3   2   4 1171.88   48.70
  -3   2   4 1193.88   48.90
  -3   2   4 1234.18   49.99
   2  -2  -4 1248.08   49.40
   2  -2  -4 1204.28   49.00
   2  -2  -4 1178.58   49.10
  -2   2   4 1183.28   48.80
  -2   2   4 1151.38   49.00
  -2   2   4 1226.48   49.50
   1  -2  -4 1070.39   44.10
   1  -2  -4 1111.09   44.30
   1  -2  -4 1068.49   44.20
  -1   2   4 1068.99   44.10
  -1   2   4 1081.39   44.30
  -1   2   4 1064.29   44.00
   0  -2  -4  312.37   13.80
   0  -2  -4  313.67   13.80
   0   2   4  316.17   13.70
   0   2   4  312.47   13.70
  -1  -2  -4  845.92   36.10
  -1  -2  -4  909.41   36.10
   1   2   4  867.21   36.10
   1   2   4  879.81   36.00
  -2  -2  -4  758.02   32.80
  -2  -2  -4  813.72   32.60
   2   2   4  806.52   32.60
   2   2   4  780.72   32.70
  -3  -2  -4  759.72   31.10
  -3  -2  -4  739.53   31.30
   3   2   4  752.72   31.10
  -4  -2  -4 1564.54   63.39
  -4  -2  -4 1564.24   63.79
   4   2   4 1582.14   63.59
   4   2   4 1545.95   63.89
  -5  -2  -4  362.96   16.30
   5   2   4  377.56   16.70
   5   2   4  373.56   16.20
   5   2   4  359.66   15.80
  -6  -2  -4    3.90    2.30
   6   2   4    0.40    1.80
   6   2   4    1.30    2.80
   6   2   4   -2.20    2.10
   7   2   4   25.40    3.60
   7   2   4   11.80    4.50
   7   2   4   17.80    3.00
   7   2   4   23.20    4.20
   7   2   4   19.50    4.60
   8   2   4   44.10    4.90
   8   2   4   47.10    7.10
   8   2   4   33.50    6.40
   8   2   4   53.99    5.50
   9   2   4    0.60    3.50
   9   2   4   -3.10    7.00
  10   2   4   87.89   11.50
  10   2   4   81.99    8.10
  10   2   4   97.89   11.00
  11   2   4   16.30    8.00
  11   2   4   15.90   12.30
  11   2   4   12.30    5.00
   8  -3  -4    4.70    5.30
  -8   3   4   20.50    9.80
  -8   3   4    2.70    5.10
   7  -3  -4    3.10    4.20
  -7   3   4   20.10    8.50
  -7   3   4   -1.10    3.80
   6  -3  -4  518.35   23.60
  -6   3   4  537.35   26.60
   5  -3  -4  162.98    9.10
  -5   3   4  136.69   10.40
  -5   3   4  181.68    9.30
  -5   3   4  154.68   12.70
   4  -3  -4   93.89    6.40
   4  -3  -4  104.29    8.10
  -4   3   4   92.69    6.20
  -4   3   4  102.29    6.60
  -4   3   4   94.49    8.90
   3  -3  -4  720.83   32.00
   3  -3  -4  776.62   33.10
   3  -3  -4  769.92   32.10
  -3   3   4  791.72   31.90
  -3   3   4  768.62   33.00
  -3   3   4  735.33   31.70
   2  -3  -4   89.79    5.40
   2  -3  -4   97.59    7.30
   2  -3  -4   87.79    6.20
  -2   3   4   90.59    5.50
  -2   3   4   84.79    5.30
  -2   3   4   79.29    6.60
   1  -3  -4   64.79    5.20
   1  -3  -4   75.29    6.00
   1  -3  -4   71.89    4.60
  -1   3   4   69.09    5.40
  -1   3   4   69.79    4.70
  -1   3   4   73.59    4.50
   0  -3  -4  710.33   29.80
   0  -3  -4  714.03   29.80
   0  -3  -4  748.53   29.90
   0   3   4  698.43   29.70
   0   3   4  709.13   29.60
   0   3   4  698.63   29.70
  -1  -3  -4  994.40   41.90
  -1  -3  -4 1057.09   41.90
   1   3   4 1020.30   41.80
   1   3   4  999.80   41.80
  -2  -3  -4    2.90    1.80
  -2  -3  -4    4.70    1.80
   2   3   4    4.30    1.70
   2   3   4    4.40    1.50
  -3  -3  -4   91.09    5.50
   3   3   4   89.19    5.30
   3   3   4   93.99    5.40
  -4  -3  -4   39.60    4.00
  -4  -3  -4   39.50    4.20
   4   3   4   49.00    4.10
   4   3   4   43.60    4.10
  -5  -3  -4   18.50    2.90
   5   3   4   15.60    2.90
   5   3   4   17.50    2.60
  -6  -3  -4    6.80    2.50
   6   3   4    6.80    2.40
   6   3   4   11.10    2.90
   6   3   4    8.60    2.00
  -7  -3  -4   11.60    2.90
   7   3   4   19.50    4.30
   7   3   4   17.20    3.60
   7   3   4   13.70    3.10
   7   3   4    9.70    4.30
   7   3   4    7.30    2.50
   8   3   4   84.59    8.50
   8   3   4   83.59   10.50
   8   3   4  105.89    7.80
   8   3   4  111.79   10.40
   9   3   4   26.40    4.20
   9   3   4   28.30    6.90
   9   3   4   24.70    5.40
  10   3   4   12.40    8.50
  10   3   4   -1.90    3.70
  10   3   4    2.40    5.30
  11   3   4   14.00    7.20
  11   3   4    8.70   11.00
   7  -4  -4   61.89    7.40
  -7   4   4   47.50    6.20
  -7   4   4   81.59   11.60
   6  -4  -4    1.20    4.20
  -6   4   4    1.60    4.50
  -6   4   4   12.90    7.40
   5  -4  -4   15.30    4.20
  -5   4   4   21.30    6.30
   4  -4  -4  322.07   15.60
  -4   4   4  335.87   15.30
   3  -4  -4   64.39    7.20
   3  -4  -4   83.69    6.00
  -3   4   4   90.29    6.10
  -3   4   4   87.99    8.10
  -3   4   4   71.69    6.00
   2  -4  -4   51.09    7.60
   2  -4  -4   50.09    4.60
   2  -4  -4   50.29    5.60
  -2   4   4   50.19    4.40
  -2   4   4   46.50    6.10
  -2   4   4   55.39    4.80
   1  -4  -4  605.74   25.60
   1  -4  -4  576.34   25.40
   1  -4  -4  582.24   26.20
  -1   4   4  609.54   25.40
  -1   4   4  591.84   25.30
  -1   4   4  616.74   26.00
   0  -4  -4   88.89    6.50
   0  -4  -4   75.89    5.70
   0  -4  -4   77.49    5.10
   0   4   4   75.39    5.60
   0   4   4   84.49    5.30
   0   4   4   78.09    5.00
  -1  -4  -4   26.50    3.10
  -1  -4  -4   31.90    4.70
  -1  -4  -4   24.70    3.00
   1   4   4   27.80    3.10
   1   4   4   25.70    4.00
   1   4   4   21.30    2.90
  -2  -4  -4  169.68    8.30
  -2  -4  -4  165.78    8.40
   2   4   4  169.58    8.10
   2   4   4  154.08    8.30
   2   4   4  166.38    8.30
  -3  -4  -4    0.50    1.70
  -3  -4  -4   -0.70    1.90
   3   4   4   -0.80    1.60
   3   4   4   -4.00    1.60
  -4  -4  -4  541.15   23.20
   4   4   4  543.35   23.30
   4   4   4  544.55   23.20
  -5  -4  -4  679.73   28.00
  -5  -4  -4  630.64   27.60
   5   4   4  653.43   27.80
   5   4   4  656.53   27.70
  -6  -4  -4   78.79    7.70
  -6  -4  -4   81.89    5.80
   6   4   4   73.69    5.80
   6   4   4   80.39    5.10
   6   4   4   70.79    6.60
   6   4   4   73.49    5.70
  -7  -4  -4   55.69    5.60
   7   4   4   61.59    7.50
   7   4   4   53.89    5.90
   7   4   4   55.69    5.50
   7   4   4   66.19    7.90
   7   4   4   59.59    5.70
  -8  -4  -4    9.10    3.20
   8   4   4    6.70    4.00
   8   4   4   14.30    5.10
   8   4   4    6.70    3.40
   8   4   4   12.00    5.60
   9   4   4   -0.80    5.10
   9   4   4    2.00    3.90
   9   4   4   -1.80    6.20
  10   4   4   22.10    4.40
  10   4   4   18.10    5.50
  10   4   4   30.10    8.60
  11   4   4    9.00   10.50
  11   4   4    6.10    8.10
  11   4   4    1.30    6.50
   6  -5  -4   41.50    6.30
  -6   5   4   37.40    9.30
  -6   5   4   52.59    6.30
   5  -5  -4   11.10    4.50
  -5   5   4    9.90    6.80
   4  -5  -4   -0.20    3.40
  -4   5   4   -1.30    3.00
  -4   5   4    2.30    5.60
   3  -5  -4  359.46   17.30
  -3   5   4  375.66   16.70
  -3   5   4  358.26   21.30
   2  -5  -4  285.37   14.90
   2  -5  -4  325.07   15.00
  -2   5   4  330.47   14.60
  -2   5   4  311.97   16.00
   1  -5  -4   33.60    4.30
   1  -5  -4   37.00    5.50
   1  -5  -4   39.50    4.60
  -1   5   4   41.90    4.60
  -1   5   4   41.20    5.00
  -1   5   4   43.40    5.00
   0  -5  -4  557.64   23.30
   0  -5  -4  494.15   23.70
   0  -5  -4  514.05   23.00
   0   5   4  543.55   22.90
   0   5   4  540.35   22.90
   0   5   4  540.25   23.50
  -1  -5  -4   74.29    6.80
  -1  -5  -4   78.89    5.30
  -1  -5  -4   72.09    5.70
   1   5   4   73.09    5.50
   1   5   4   75.69    5.10
   1   5   4   76.49    6.10
  -2  -5  -4   70.59    5.60
  -2  -5  -4   71.69    5.00
  -2  -5  -4   75.19    6.20
   2   5   4   70.19    4.80
   2   5   4   70.69    5.20
   2   5   4   63.89    5.80
  -3  -5  -4  351.36   15.80
  -3  -5  -4  346.77   16.10
   3   5   4  353.56   15.70
   3   5   4  336.37   15.90
   3   5   4  352.86   15.50
  -4  -5  -4    7.90    2.40
  -4  -5  -4    9.80    2.50
  -4  -5  -4   11.10    3.30
   4   5   4    8.40    2.40
   4   5   4    7.60    2.70
   4   5   4    6.40    2.10
  -5  -5  -4  101.69    6.60
  -5  -5  -4  108.29    6.80
  -5  -5  -4  101.89    8.00
   5   5   4  104.39    6.30
   5   5   4   95.29    7.30
   5   5   4  112.39    6.80
  -6  -5  -4   87.69    6.60
  -6  -5  -4   84.79    8.40
   6   5   4   99.29    6.60
   6   5   4   90.79    7.60
   6   5   4   83.99    6.20
   6   5   4   92.19    5.70
  -7  -5  -4   32.50    5.80
  -7  -5  -4   37.40    4.30
   7   5   4   26.10    3.70
   7   5   4   34.40    4.60
   7   5   4   32.60    4.90
  -8  -5  -4  217.28   11.10
   8   5   4  201.78   11.10
   8   5   4  208.38   13.40
   8   5   4  204.98   11.50
  -9  -5  -4   -0.50    3.40
   9   5   4   -1.20    4.50
   9   5   4    5.30    6.00
   9   5   4   -5.80    3.80
  10   5   4    5.10    4.70
  10   5   4    7.20    7.90
  11   5   4  -10.90    6.10
  11   5   4   -3.80    4.30
  11   5   4   -3.90   10.20
  12   5   4   -2.20    8.10
  12   5   4   10.80   12.90
   5  -6  -4   23.20    6.10
  -5   6   4   25.10    5.70
  -5   6   4    3.70    8.20
   4  -6  -4    2.40    4.40
  -4   6   4   16.60    6.70
   3  -6  -4   -1.40    3.60
  -3   6   4   -0.20    3.20
  -3   6   4    5.10    5.50
   2  -6  -4   12.10    5.20
   2  -6  -4    3.90    5.10
  -2   6   4   10.90    3.40
   1  -6  -4    1.10    2.80
   1  -6  -4    1.50    4.00
  -1   6   4   -0.90    2.70
  -1   6   4    2.60    4.00
   0  -6  -4    8.00    3.30
   0  -6  -4   11.90    5.20
   0  -6  -4    7.20    2.90
   0   6   4   11.80    2.90
   0   6   4    5.30    3.60
  -1  -6  -4   69.99    5.80
  -1  -6  -4   45.80    7.50
  -1  -6  -4   61.49    5.30
   1   6   4   66.39    7.00
   1   6   4   55.39    5.00
   1   6   4   63.69    5.60
  -2  -6  -4  145.39    8.20
  -2  -6  -4  146.39    8.20
  -2  -6  -4  135.79    9.30
   2   6   4  148.59    8.10
   2   6   4  139.19    7.70
   2   6   4  137.69    9.10
  -3  -6  -4   75.79    5.60
  -3  -6  -4   73.79    5.70
  -3  -6  -4   54.09    6.90
   3   6   4   68.99    5.80
   3   6   4   76.19    5.00
   3   6   4   77.49    6.90
  -4  -6  -4  211.28   10.30
  -4  -6  -4  192.78   11.30
  -4  -6  -4  187.28   10.10
   4   6   4  195.38   10.30
   4   6   4  198.58   11.00
   4   6   4  191.38    9.60
  -5  -6  -4   55.19    5.70
  -5  -6  -4   55.09    5.40
  -5  -6  -4   45.50    7.60
   5   6   4   59.89    5.70
   5   6   4   49.70    6.60
   5   6   4   52.49    4.50
  -6  -6  -4  369.66   16.30
  -6  -6  -4  326.87   17.20
   6   6   4  346.87   16.20
   6   6   4  329.67   15.50
   6   6   4  352.96   17.00
  -7  -6  -4    6.50    3.50
  -7  -6  -4    3.60    5.50
   7   6   4   11.20    3.30
   7   6   4    8.40    2.90
   7   6   4   16.00    4.70
  -8  -6  -4    6.90    3.50
   8   6   4    1.50    3.40
   8   6   4    6.40    5.40
  -9  -6  -4  119.39    8.60
   9   6   4  124.29    9.70
   9   6   4  133.59   13.10
   9   6   4  104.19    9.00
 -10  -6  -4   19.80    4.60
  10   6   4   14.60    8.30
  10   6   4   21.70    5.70
  10   6   4   31.10    6.20
  11   6   4   11.50    4.90
  11   6   4   15.40   10.50
  11   6   4    8.10    6.20
  12   6   4   26.60   13.30
  12   6   4  -11.10    7.50
   4  -7  -4   25.80    6.20
  -4   7   4   37.90    8.80
   3  -7  -4    1.90    4.40
  -3   7   4   -1.30    4.20
  -3   7   4   -6.10    6.90
   2  -7  -4   24.90    5.20
  -2   7   4   35.20    6.60
  -2   7   4   44.20    6.30
   1  -7  -4  877.21   37.60
  -1   7   4  897.21   36.70
  -1   7   4  826.72   38.30
   0  -7  -4   51.69    7.40
   0   7   4   45.70    6.10
   0   7   4   43.30    6.00
  -1  -7  -4  214.68   12.20
  -1  -7  -4  245.08   12.30
   1   7   4  238.88   11.90
   1   7   4  236.38   13.30
  -2  -7  -4  327.57   14.80
  -2  -7  -4  279.57   16.10
  -2  -7  -4  279.57   14.40
   2   7   4  309.87   14.40
   2   7   4  304.07   15.40
  -3  -7  -4   66.29    5.80
  -3  -7  -4   49.99    8.30
  -3  -7  -4   57.29    6.10
   3   7   4   57.99    6.00
   3   7   4   64.79    5.90
   3   7   4   52.29    7.60
  -4  -7  -4   30.70    4.10
  -4  -7  -4   36.10    5.80
  -4  -7  -4   44.10    5.30
   4   7   4   29.90    4.30
   4   7   4   48.10    5.50
   4   7   4   39.80    5.60
  -5  -7  -4  123.89   10.60
  -5  -7  -4  136.49    8.50
   5   7   4  118.09    8.20
   5   7   4  131.19    7.40
   5   7   4  129.79    9.80
  -6  -7  -4   94.09    7.40
  -6  -7  -4   88.99   10.90
   6   7   4   84.29    9.30
   6   7   4   86.69    6.20
   6   7   4  100.09    7.50
  -7  -7  -4   78.29    7.30
  -7  -7  -4   63.29    9.20
   7   7   4   79.89    6.20
   7   7   4   71.89    9.70
   7   7   4   74.99    7.40
  -8  -7  -4   -1.20    3.90
   8   7   4    3.00    3.50
   8   7   4    5.60    5.40
  -9  -7  -4  348.07   15.90
   9   7   4  281.37   15.20
 -10  -7  -4    7.50    4.90
  10   7   4   29.70    8.80
  10   7   4    8.20    5.20
 -11  -7  -4   15.10    5.30
  11   7   4   18.50    7.10
  11   7   4   23.20   10.40
  12   7   4   21.70   12.90
  12   7   4   17.50    8.20
   3  -8  -4   86.89   10.80
  -3   8   4   74.09   10.80
   2  -8  -4   15.80    5.40
  -2   8   4   16.10    7.20
  -2   8   4   19.80    4.80
   1  -8  -4   -5.90    4.20
  -1   8   4   -7.70    5.70
  -1   8   4   -3.00    3.70
   0   8   4    1.40    3.60
   0   8   4    4.30    5.60
   1   8   4    9.00    3.50
   1   8   4    6.20    5.30
  -2  -8  -4    5.50    4.60
   2   8   4   16.90    5.30
   2   8   4   10.30    3.80
  -3  -8  -4   54.29    6.50
   3   8   4   63.29    8.90
   3   8   4   65.59    6.70
  -4  -8  -4  136.49    8.80
   4   8   4  130.09   10.60
   4   8   4  118.69    8.60
  -5  -8  -4   -4.40    3.40
   5   8   4    4.40    5.00
   5   8   4   -2.20    3.60
  -6  -8  -4   -6.20    3.30
   6   8   4   -0.90    3.50
   6   8   4    1.40    5.00
  -7  -8  -4   -1.60    4.10
   7   8   4    3.70    4.30
   7   8   4   10.50    5.80
  -8  -8  -4   75.89    8.30
  -9  -8  -4   58.39    6.60
   9   8   4   47.90    8.40
   9   8   4   60.69    7.40
 -10  -8  -4   30.00    6.10
  10   8   4   23.80    5.90
  10   8   4    9.60    8.40
 -11  -8  -4   31.70    8.70
  11   8   4   21.20    7.40
  11   8   4   25.10   10.70
  12   8   4   15.60   11.40
  12   8   4   18.40   12.70
   2  -9  -4    1.00    6.80
  -2   9   4   20.70    9.40
   1  -9  -4   18.20    6.10
  -1   9   4   21.20    7.80
   0  -9  -4   12.00    5.00
   0   9   4    5.20    4.70
   0   9   4   -7.50    6.50
  -1  -9  -4    3.50    4.40
   1   9   4    4.30    4.30
   1   9   4    5.00    6.40
  -2  -9  -4   43.30    5.80
   2   9   4   38.50    6.90
   2   9   4   36.30    5.00
   3   9   4  388.96   20.70
   3   9   4  392.46   18.60
  -4  -9  -4  403.96   20.00
   4   9   4  389.46   18.90
   4   9   4  396.36   20.90
  -5  -9  -4   87.29   11.10
   5   9   4   83.79   13.40
   5   9   4   80.49    8.30
  -6  -9  -4   34.60    5.30
   6   9   4   17.90    4.80
   6   9   4   33.60    7.10
  -7  -9  -4   14.50    4.70
   7   9   4   10.10    6.50
  -8  -9  -4  424.66   20.80
   8   9   4  426.96   23.20
   8   9   4  436.66   21.20
  -9  -9  -4  215.68   13.40
   9   9   4  194.68   13.80
   9   9   4  223.18   17.30
 -10  -9  -4   27.40    6.60
  10   9   4   11.90    8.90
  10   9   4   15.10    6.10
  11   9   4   -0.20   10.30
  11   9   4    3.80    6.90
   0 -10  -4   45.90    7.50
   0  10   4   18.30    9.00
   0  10   4   35.40    6.40
  -1 -10  -4    5.30    5.80
   1  10   4    8.60    7.90
  -2 -10  -4   64.19    9.30
   2  10   4   59.59    9.50
  -3 -10  -4    3.50    4.90
   3  10   4   12.10    6.70
  -4 -10  -4   40.70    6.30
   4  10   4   41.30    8.00
   4  10   4   34.10    6.00
  -5 -10  -4    7.70    5.10
   5  10   4   -0.40    6.80
   6  10   4   65.89    9.20
   7  10   4   14.40    5.80
   7  10   4    9.60    7.80
  -8 -10  -4   68.29    9.60
   8  10   4   48.90    9.20
   8  10   4   47.20    6.90
  -9 -10  -4   80.69   15.40
   9  10   4   85.19   11.70
   9  10   4  103.09   11.90
 -10 -10  -4  194.68   21.90
  10  10   4  193.58   19.90
  10  10   4  185.58   15.30
  11  10   4   -4.60   11.50
  11  10   4   -1.80    7.30
  -1 -11  -4   22.70    8.50
   1  11   4   21.70   10.50
  -2 -11  -4   10.60    6.60
   2  11   4   -7.10    9.10
  -3 -11  -4   21.80    7.20
   3  11   4   35.90    9.10
  -4 -11  -4   17.20    6.60
   4  11   4   28.50    8.50
  -5 -11  -4    3.40    5.90
   5  11   4    2.00    8.20
   5  11   4   -8.10    5.00
  -6 -11  -4   34.00    6.80
   6  11   4   42.80    6.40
   6  11   4   24.50    9.20
  -7 -11  -4   -2.70    5.90
   7  11   4   -7.50    8.70
   7  11   4   -8.70    5.40
   8  11   4    3.20    9.80
   8  11   4   10.90    6.20
  -9 -11  -4    1.80    8.40
   9  11   4    4.70    6.70
   9  11   4    7.50   13.10
  10  11   4   23.50   11.80
  10  11   4    4.60    7.70
  -4 -12  -4   12.50    7.70
   4  12   4   26.60    7.90
   4  12   4   17.00   10.10
  -5 -12  -4   32.20    8.10
   5  12   4   39.00    8.20
   5  12   4   34.50   10.80
  -6 -12  -4   19.90    7.70
   6  12   4   20.80    7.20
   6  12   4    6.20   10.50
  -7 -12  -4   38.20    8.30
   7  12   4   17.80   11.10
   7  12   4   35.70    7.70
  -8 -12  -4   16.80    8.70
   8  12   4    5.70   11.50
   8  12   4   11.80    7.20
   7  10  -5    0.00    9.50
   6  10  -5   -7.50    9.10
   5  10  -5   31.00   10.10
   4  10  -5    5.80    9.50
  -4 -10   5    3.40    4.90
   3  10  -5   24.20    9.80
  -3 -10   5   11.60    5.20
   2  10  -5  -13.50    9.50
  -2 -10   5    2.80    5.30
   8   9  -5   31.80    9.40
  -8  -9   5   30.70    4.90
   7   9  -5   22.20    9.00
   6   9  -5   17.80    8.50
   5   9  -5    2.20    3.80
   5   9  -5    8.70    7.40
  -5  -9   5    1.60    3.50
   4   9  -5    1.90    7.20
  -4  -9   5    8.90    3.90
   3   9  -5    1.20    7.80
   2   9  -5   -0.80    8.10
  -2  -9   5    0.70    3.80
   1   9  -5   -2.60    8.00
  -1  -9   5    8.50    4.40
   0   9  -5  109.89   16.80
   0  -9   5   98.79    9.80
   9   8  -5   -9.70    8.80
  -9  -8   5   -1.60    4.50
   8   8  -5  -13.70    7.80
  -8  -8   5    2.10    3.90
   7   8  -5   -0.50    6.80
  -7  -8   5    2.90    3.30
   6   8  -5  174.18   15.00
  -6  -8   5  179.58    9.60
   5   8  -5   73.49   10.80
  -5  -8   5  102.69    6.40
  -5  -8   5   89.29    6.30
  -4  -8   5   14.70    3.10
  -4  -8   5    8.90    4.00
  -3  -8   5   -0.50    2.70
  -2  -8   5   42.10    5.40
  -1  -8   5  291.47   14.50
   0   8  -5   21.50    7.30
   0  -8   5   14.00    3.80
  -1   8  -5   18.70    7.80
   1  -8   5   17.40    4.70
  -2   8  -5   15.60    9.30
   2  -8   5   16.30    5.10
  10   7  -5    4.40   10.30
 -10  -7   5    0.40    5.00
   9   7  -5    5.70    8.80
  -9  -7   5    4.00    4.10
   8   7  -5   -1.60    7.20
  -8  -7   5    5.10    3.50
   7   7  -5   21.80    6.70
  -7  -7   5   18.40    3.60
  -6  -7   5   70.69    5.80
   5   7  -5   -3.70    3.40
  -5  -7   5    3.50    2.30
   4   7  -5   44.50    6.30
  -4  -7   5   51.99    6.50
  -4  -7   5   46.10    4.20
  -4  -7   5   42.10    4.20
   3   7  -5    0.50    4.80
  -3  -7   5    4.50    2.20
  -3  -7   5    5.10    3.60
   2   7  -5   81.89   10.30
  -2  -7   5   71.19    5.60
   1   7  -5    4.20    5.50
  -1  -7   5   11.30    3.20
   0   7  -5    6.20    5.80
  -1   7  -5   11.70    6.70
   1  -7   5   14.80    3.70
   2  -7   5    5.00    3.70
  -3   7  -5   23.00    8.50
   3  -7   5   18.70    4.90
  -4   7  -5   20.70   10.80
   4  -7   5    5.10    4.90
  10   6  -5    2.60    9.60
 -10  -6   5   16.80    5.20
   9   6  -5    6.60    8.20
  -9  -6   5    0.00    4.00
   8   6  -5    8.90    7.00
  -8  -6   5    2.20    3.40
  -7  -6   5  557.04   24.40
   6   6  -5  228.28   14.90
  -6  -6   5  217.98   11.00
   5   6  -5   16.30    3.50
   5   6  -5   24.50    5.30
  -5  -6   5   19.50    2.70
   4   6  -5   -5.70    4.20
   4   6  -5   -1.30    2.50
  -4  -6   5   -5.90    7.60
  -4  -6   5   -1.40    1.70
  -4  -6   5   -0.50    1.60
  -4  -6   5   -2.70    2.50
   3   6  -5    1.90    4.20
   3   6  -5   -0.50    2.40
  -3  -6   5    2.50    1.60
  -3  -6   5    0.30    1.70
  -3  -6   5   -5.30    5.20
  -3  -6   5    0.70    2.50
   2   6  -5  136.79   10.40
  -2  -6   5  117.49    7.90
  -2  -6   5  109.59   11.20
  -2  -6   5  137.89    7.00
   1   6  -5   18.60    4.80
  -1  -6   5   16.10    5.50
  -1  -6   5   16.30    2.70
   0   6  -5  287.87   15.30
   0  -6   5  245.28   15.70
   0  -6   5  282.27   13.10
  -1   6  -5   26.00    5.50
  -2   6  -5    5.30    5.60
   2  -6   5    4.70    2.70
  -3   6  -5    0.30    6.40
   3  -6   5   -0.80    3.60
  -4   6  -5    5.10    7.80
   4  -6   5    1.10    3.80
  -5   6  -5   19.10   10.50
   5  -6   5   12.10    5.10
  10   5  -5   65.29   11.40
 -10  -5   5   80.09    9.20
   9   5  -5   60.19   10.10
  -9  -5   5   40.80    5.20
   8   5  -5    5.70    6.40
  -8  -5   5   13.20    3.60
   7   5  -5   22.10    6.30
  -7  -5   5   21.50    3.50
   6   5  -5  596.14   28.40
  -6  -5   5  631.94   26.40
   5   5  -5  153.78    9.50
   5   5  -5  173.28   11.70
  -5  -5   5  185.28   13.20
  -5  -5   5  169.68    8.60
   4   5  -5  662.33   28.80
   4   5  -5  627.34   27.30
  -4  -5   5  642.04   27.10
  -4  -5   5  657.93   27.10
  -4  -5   5  641.84   29.30
   3   5  -5  158.08    8.10
   3   5  -5  160.98   10.30
  -3  -5   5  164.68    7.60
  -3  -5   5  154.18   10.70
  -3  -5   5  156.08    8.30
  -3  -5   5  161.38    7.60
   2   5  -5   45.00    4.40
   2   5  -5   52.99    6.90
  -2  -5   5   49.70    7.70
  -2  -5   5   53.29    4.60
  -2  -5   5   52.09    3.80
  -2  -5   5   53.69    3.50
   1   5  -5   56.29    7.10
  -1  -5   5   54.69    4.10
  -1  -5   5   40.20    5.10
  -1  -5   5   50.09    7.30
   0   5  -5  203.08   11.60
   0  -5   5  190.18   10.80
   0  -5   5  212.28    9.80
   0  -5   5  180.28   11.50
  -1   5  -5   -5.20    3.90
   1  -5   5   -3.70    4.20
   1  -5   5    0.10    1.90
  -2   5  -5  253.47   13.60
   2  -5   5  196.08   13.80
   2  -5   5  247.68   11.80
  -3   5  -5    9.70    5.40
   3  -5   5   12.70    3.10
  -4   5  -5    0.60    6.40
   4  -5   5    2.60    3.30
   5  -5   5  134.09    9.60
  -6   5  -5    2.80   10.00
   6  -5   5   -3.30    4.60
  10   4  -5    7.50    9.90
 -10  -4   5   -0.90    4.40
   9   4  -5    5.90    8.60
  -9  -4   5    4.80    3.90
   8   4  -5   97.19   12.30
  -8  -4   5   60.49    6.70
  -7  -4   5  132.39    8.20
   6   4  -5  316.67   17.40
  -6  -4   5  326.17   14.90
   5   4  -5   52.29    7.60
   5   4  -5   45.80    5.80
  -5  -4   5   48.70    6.40
  -5  -4   5   54.19    4.60
   4   4  -5   61.89    7.20
   4   4  -5   55.49    5.10
  -4  -4   5   72.29    8.10
  -4  -4   5   52.99    4.20
   3   4  -5    3.30    2.00
   3   4  -5   -0.40    3.00
  -3  -4   5    2.20    1.50
  -3  -4   5    2.30    1.30
  -3  -4   5    0.40    1.90
  -3  -4   5   -6.20    3.50
   2   4  -5   28.00    3.70
   2   4  -5   33.10    5.50
  -2  -4   5   40.80    3.90
  -2  -4   5   33.30    4.50
  -2  -4   5   40.60    3.10
  -2  -4   5   35.00    3.10
  -1  -4   5   33.80    3.30
  -1  -4   5   37.40    4.10
   0  -4   5  162.78    8.80
   0  -4   5  170.48    8.40
   1  -4   5   39.50    5.60
   1  -4   5   47.60    4.10
  -2   4  -5   55.19    6.80
   2  -4   5   48.10    4.50
  -3   4  -5   30.70    5.00
  -4   4  -5    7.80    5.20
   4  -4   5   -1.30    6.10
  -5   4  -5   40.90    7.00
   5  -4   5   36.00    5.20
   6  -4   5   80.59    8.00
  -7   4  -5   -8.90   10.50
   7  -4   5   10.90    4.90
  10   3  -5   -6.60    9.80
 -10  -3   5    9.40    4.60
   9   3  -5   64.99   10.10
  -9  -3   5   64.39    7.60
   8   3  -5    2.90    6.40
  -8  -3   5   13.50    3.40
  -7  -3   5    0.90    2.70
   6   3  -5  332.87   18.10
  -6  -3   5  355.66   15.80
   5   3  -5  307.07   16.80
   5   3  -5  321.57   15.60
   5   3  -5  347.07   17.10
  -5  -3   5  366.56   15.30
   4   3  -5    6.80    2.30
   4   3  -5    3.90    3.40
  -4  -3   5    9.10    3.80
  -4  -3   5    6.20    1.80
   3   3  -5 1934.01   79.89
   3   3  -5 2022.40   80.59
  -3  -3   5 1925.01   79.69
  -3  -3   5 2091.19   80.79
  -3  -3   5 1995.70   79.69
  -3  -3   5 1876.41   79.49
   2   3  -5   97.99    5.90
  -2  -3   5  105.39    5.40
  -2  -3   5  106.89    6.00
  -2  -3   5  106.19    5.50
   1   3  -5   -1.50    1.60
  -1  -3   5    0.30    1.90
  -1  -3   5   -0.10    1.40
  -1  -3   5   -0.40    1.10
   0  -3   5  831.32   35.10
   0  -3   5  845.02   34.90
   1  -3   5   36.80    3.90
   1  -3   5   35.20    3.70
   2  -3   5    6.00    1.90
   2  -3   5    2.30    2.70
   3  -3   5  161.78    8.70
  -5   3  -5  126.39   11.10
   5  -3   5   97.79   11.70
   5  -3   5  124.39    8.00
  -6   3  -5   16.40    6.50
   6  -3   5   11.50    3.40
   7  -3   5   60.79    7.70
  -8   3  -5    5.80   11.20
   8  -3   5    4.20    5.20
  10   2  -5   58.59   12.20
 -10  -2   5   79.89    9.10
   9   2  -5    7.30    8.70
  -9  -2   5    1.90    3.90
   8   2  -5  232.78   16.60
  -8  -2   5  220.28   12.10
   7   2  -5   26.60    8.30
   6   2  -5   35.00    5.80
  -6  -2   5   32.80    3.90
   5   2  -5 1901.81   80.49
   5   2  -5 1961.00   80.79
  -5  -2   5 2009.70   79.59
   4   2  -5  806.82   34.20
   4   2  -5  775.72   33.30
   4   2  -5  787.52   34.00
  -4  -2   5  812.52   33.10
   3   2  -5   15.20    2.60
   3   2  -5   15.50    2.00
   3   2  -5   19.00    3.40
  -3  -2   5   10.10    2.40
  -3  -2   5   12.90    2.00
   2   2  -5  101.29    5.90
   2   2  -5  102.89    5.40
  -2  -2   5  107.59    5.70
  -2  -2   5   97.59    5.40
   1   2  -5   24.30    2.60
   1   2  -5   22.30    2.60
  -1  -2   5   19.80    2.70
  -1  -2   5   25.40    2.40
   0   2  -5   22.00    2.70
   0   2  -5   25.80    2.80
   0  -2   5   29.50    3.90
   0  -2   5   21.90    2.20
   1  -2   5  530.25   23.00
   1  -2   5  528.85   21.90
   2  -2   5  126.59    7.60
   2  -2   5  122.29    7.00
   3  -2   5    4.30    3.20
   3  -2   5    0.60    2.00
   4  -2   5   16.70    3.10
   5  -2   5    0.10    2.50
  -6   2  -5   -1.20    5.30
   6  -2   5   -2.70    2.80
   6  -2   5    6.60    6.10
  -7   2  -5    9.30    6.90
   7  -2   5    3.50    3.70
  -8   2  -5    4.00    8.90
   8  -2   5    5.20    4.40
   9   1  -5   -1.10    9.20
  -9  -1   5    2.80    4.10
   8   1  -5   -4.10    7.70
  -8  -1   5   11.50    3.80
   6   1  -5    3.50    5.00
   5   1  -5   -1.40    4.30
   5   1  -5    6.40    4.50
  -5  -1   5   -0.10    2.00
   4   1  -5   17.80    4.10
   4   1  -5   13.70    2.80
   4   1  -5   19.00    3.70
  -4  -1   5   13.40    2.20
   3   1  -5 1058.49   44.70
   3   1  -5 1075.59   45.10
   3   1  -5 1077.69   44.30
   3   1  -5 1105.79   45.10
  -3  -1   5 1110.99   44.60
   2   1  -5  377.46   16.30
   2   1  -5  379.36   16.00
  -2  -1   5  367.36   16.00
  -2  -1   5  367.06   16.00
   1   1  -5   68.79    4.40
   1   1  -5   72.79    4.70
  -1  -1   5   71.59    4.60
  -1  -1   5   72.69    4.30
   0   1  -5   57.09    3.60
   0   1  -5   50.79    4.00
   0  -1   5   47.00    3.50
   0  -1   5   55.59    4.30
  -1   1  -5  198.18    9.30
  -1   1  -5  195.78    9.00
   1  -1   5  182.58    8.80
   1  -1   5  200.58    9.80
  -2   1  -5  199.28    9.30
   2  -1   5  177.88    8.90
   2  -1   5  203.58   10.00
  -3   1  -5  426.16   19.20
   3  -1   5  425.76   19.10
   3  -1   5  420.56   17.90
   4  -1   5   61.09    3.80
   4  -1   5   54.79    4.50
   4  -1   5   65.09    5.10
   4  -1   5   45.80    6.00
   5  -1   5  109.29    7.20
   5  -1   5  106.79    5.90
   5  -1   5  106.69    6.30
  -6   1  -5  299.27   15.50
   6  -1   5  272.47   12.40
   6  -1   5  257.57   12.80
   6  -1   5  279.27   15.50
   7  -1   5   17.40    4.10
   7  -1   5    9.80    3.30
   7  -1   5   15.40    4.00
   8  -1   5    3.20    4.40
   8  -1   5   -5.20    3.50
   9  -1   5   -8.60   11.20
   9  -1   5    3.30    4.70
   9   0  -5   20.30   10.80
   8   0  -5   -0.50    8.30
  -8   0   5    2.90    4.80
  -7   0   5  261.07   13.40
   6   0  -5   49.50    7.10
   6   0  -5   45.70    4.50
  -6   0   5   50.09    6.10
  -6   0   5   34.70    4.10
   5   0  -5   32.00    5.80
   5   0  -5   30.50    3.60
   5   0  -5   21.60    5.30
  -5   0   5   23.50    3.20
  -5   0   5   25.00    2.70
   4   0  -5  852.91   37.20
   4   0  -5  873.81   37.80
   4   0  -5  904.81   36.60
   4   0  -5  907.51   38.20
  -4   0   5  923.41   37.00
  -4   0   5  868.01   36.30
   3   0  -5   34.90    4.10
   3   0  -5   34.60    4.50
   3   0  -5   32.10    4.20
   3   0  -5   34.80    3.40
  -3   0   5   34.60    3.20
  -3   0   5   35.70    3.70
   2   0  -5  454.65   19.80
   2   0  -5  464.35   19.50
  -2   0   5  456.15   19.60
  -2   0   5  456.85   19.40
   1   0  -5   74.19    4.90
   1   0  -5   64.39    4.50
  -1   0   5   80.79    4.40
  -1   0   5   69.79    4.50
   0   0  -5   79.99    5.10
   0   0  -5   88.49    5.20
   0   0   5   88.19    4.90
   0   0   5   78.29    5.00
  -1   0  -5  346.37   15.20
  -1   0  -5  346.47   14.90
   1   0   5  337.37   15.30
   1   0   5  341.97   14.80
  -2   0  -5  189.68    8.70
  -2   0  -5  174.98    8.80
   2   0   5  188.18    8.60
   2   0   5  175.88    9.20
  -3   0  -5 2156.28   89.59
  -3   0  -5 2308.07   89.09
   3   0   5 2228.68   89.09
   3   0   5 2153.18   89.89
  -4   0  -5 1333.37   54.19
   4   0   5 1278.47   54.49
   4   0   5 1334.07   53.59
   5   0   5  520.35   22.30
   5   0   5  497.55   21.10
   5   0   5  512.55   21.50
   5   0   5  476.35   22.40
   6   0   5   80.89    6.30
   6   0   5   84.59    5.40
   6   0   5   65.69    6.20
   7   0   5   -0.10    5.30
   7   0   5   15.30    3.50
   7   0   5   12.80    3.00
   8   0   5   70.79    8.30
   8   0   5   64.09    7.60
   8   0   5   61.89    7.10
   8   0   5   77.89    9.70
   9   0   5    8.80    5.30
   9   0   5   -2.10    9.60
   9   0   5    7.10    4.50
  10   0   5   37.10   13.10
  10   0   5   40.00    6.60
  10   0   5   39.90    8.10
   9  -1  -5    0.40   11.40
  -9   1   5    0.10    5.00
   8  -1  -5    0.50    4.30
   8  -1  -5   -0.90    9.30
  -8   1   5   -1.60    4.10
   7  -1  -5   31.90    8.30
   7  -1  -5   32.90    4.20
  -7   1   5   29.90    5.10
   6  -1  -5   54.09    5.30
  -6   1   5   47.90    5.10
   5  -1  -5  123.39    7.20
  -5   1   5  124.09    7.00
  -5   1   5  136.59    7.80
   4  -1  -5  269.07   12.80
   4  -1  -5  282.37   16.50
   4  -1  -5  276.77   14.60
  -4   1   5  303.97   14.70
  -4   1   5  293.87   13.20
  -4   1   5  266.07   12.40
   3  -1  -5    4.80    2.60
   3  -1  -5    6.30    2.00
   3  -1  -5   10.00    3.60
  -3   1   5    5.80    1.90
  -3   1   5    5.60    2.90
  -3   1   5    7.40    1.90
   2  -1  -5  779.82   32.00
   2  -1  -5  751.22   31.70
   2  -1  -5  735.03   31.90
  -2   1   5  760.52   31.70
  -2   1   5  781.02   31.60
   1  -1  -5  576.04   25.00
   1  -1  -5  592.94   25.00
  -1   1   5  613.24   25.00
  -1   1   5  587.14   24.90
   0  -1  -5  736.03   31.00
   0  -1  -5  752.32   31.10
   0   1   5  748.53   31.00
   0   1   5  740.63   30.90
  -1  -1  -5  242.58   11.00
  -1  -1  -5  238.48   11.10
   1   1   5  238.68   11.10
   1   1   5  231.68   10.80
  -2  -1  -5  675.03   27.50
  -2  -1  -5  646.64   27.70
   2   1   5  638.74   27.80
   2   1   5  667.43   27.40
  -3  -1  -5   28.60    4.00
  -3  -1  -5   33.90    3.60
   3   1   5   35.00    4.30
   3   1   5   37.10    3.40
  -4  -1  -5  222.08   10.80
  -4  -1  -5  224.38   10.30
   4   1   5  218.28   10.50
   4   1   5  213.38   11.10
  -5  -1  -5  385.76   17.90
   5   1   5  421.56   17.60
   5   1   5  390.66   18.30
   5   1   5  399.66   17.10
   6   1   5   56.19    6.80
   6   1   5   74.89    6.00
   6   1   5   58.39    4.80
   7   1   5  237.48   11.80
   7   1   5  253.67   12.80
   7   1   5  253.97   12.60
   8   1   5  269.17   13.50
   8   1   5  238.58   16.40
   8   1   5  235.18   13.20
   9   1   5    6.40    4.20
   9   1   5    7.50    5.90
  10   1   5   -4.70   10.80
  10   1   5    2.80    5.10
  10   1   5   16.30    6.50
   8  -2  -5    1.70    5.10
  -8   2   5    7.20    5.10
   7  -2  -5    2.00    4.00
  -7   2   5    1.50    4.10
   6  -2  -5   15.60    3.70
  -6   2   5   23.60    6.40
  -6   2   5    9.60    3.40
   5  -2  -5   25.30    3.70
  -5   2   5   27.50    6.20
  -5   2   5   28.90    3.50
  -5   2   5   20.10    4.70
   4  -2  -5   65.09    9.30
   4  -2  -5   65.19    5.30
  -4   2   5   65.99    8.40
  -4   2   5   75.69    5.90
  -4   2   5   74.29    5.10
   3  -2  -5  130.89    7.00
   3  -2  -5  121.69    7.90
   3  -2  -5  128.99    8.90
  -3   2   5  126.59    8.90
  -3   2   5  127.79    7.20
  -3   2   5  118.49    6.70
   2  -2  -5  216.78   11.20
   2  -2  -5  217.78   10.30
   2  -2  -5  201.78   10.60
  -2   2   5  218.48   10.00
  -2   2   5  211.88   11.10
  -2   2   5  213.48   10.30
   1  -2  -5  280.87   12.80
   1  -2  -5  267.57   12.90
  -1   2   5  284.87   12.60
  -1   2   5  287.77   12.80
   0  -2  -5  230.48   10.70
   0  -2  -5  229.78   10.90
   0   2   5  226.88   10.60
   0   2   5  226.88   10.60
  -1  -2  -5   21.80    2.80
  -1  -2  -5   23.10    2.90
   1   2   5   21.80    3.10
   1   2   5   22.50    2.60
  -2  -2  -5   27.10    3.20
  -2  -2  -5   30.50    3.90
   2   2   5   32.00    3.30
   2   2   5   25.70    3.60
  -3  -2  -5   30.10    3.10
  -3  -2  -5   30.90    3.70
   3   2   5   26.60    3.60
   3   2   5   29.80    3.80
  -4  -2  -5    8.70    2.40
  -4  -2  -5   10.30    2.50
   4   2   5    9.00    2.80
   4   2   5   16.60    2.60
  -5  -2  -5    5.30    2.50
  -5  -2  -5    7.10    2.50
   5   2   5    2.00    2.80
   5   2   5    2.20    2.40
  -6  -2  -5   35.80    4.50
   6   2   5   25.00    3.00
   6   2   5   27.80    4.20
   6   2   5   36.50    5.10
  -7  -2  -5   23.30    3.70
   7   2   5   34.50    4.80
   7   2   5   18.00    3.90
   8   2   5  212.48   12.00
   8   2   5  206.28   11.40
   9   2   5    4.80    7.40
   9   2   5    5.50    6.50
   9   2   5    9.90    3.90
  10   2   5   32.60    5.50
  10   2   5   20.70    6.80
  10   2   5   42.80   10.20
  11   2   5    2.80    5.30
  11   2   5    2.20   12.10
  11   2   5    3.30    7.80
   7  -3  -5   46.50    6.20
  -7   3   5   47.80    6.10
  -7   3   5   67.29   10.80
   6  -3  -5    1.20    3.90
  -6   3   5    8.50    7.50
  -6   3   5    3.90    3.70
   5  -3  -5   93.39    7.10
  -5   3   5   75.49   10.80
   4  -3  -5  355.06   16.00
  -4   3   5  302.47   15.50
  -4   3   5  370.26   18.10
  -4   3   5  350.26   16.00
   3  -3  -5  948.71   41.80
   3  -3  -5  905.01   39.10
   3  -3  -5  915.01   38.20
  -3   3   5  876.71   38.00
  -3   3   5  867.81   37.70
  -3   3   5  945.91   39.20
   2  -3  -5  677.53   28.40
   2  -3  -5  677.53   28.90
   2  -3  -5  635.54   28.50
  -2   3   5  707.53   29.00
  -2   3   5  645.04   28.20
  -2   3   5  653.33   28.00
   1  -3  -5 1414.56   56.89
   1  -3  -5 1418.06   56.99
   1  -3  -5 1345.57   56.79
  -1   3   5 1338.87   56.59
  -1   3   5 1432.06   56.99
  -1   3   5 1369.06   56.79
   0  -3  -5   36.80    3.60
   0  -3  -5   33.50    3.80
   0   3   5   34.00    3.60
   0   3   5   33.60    3.70
  -1  -3  -5  367.36   16.50
  -1  -3  -5  370.36   16.50
   1   3   5  376.56   16.40
   1   3   5  368.66   16.30
  -2  -3  -5   94.49    6.00
  -2  -3  -5   86.99    5.70
   2   3   5   96.29    5.70
   2   3   5   91.59    5.50
  -3  -3  -5  330.87   14.80
  -3  -3  -5  318.07   14.60
   3   3   5  327.17   14.70
   3   3   5  320.37   14.60
  -4  -3  -5  250.77   11.90
  -4  -3  -5  232.78   11.50
   4   3   5  238.68   11.80
   4   3   5  246.98   11.60
  -5  -3  -5  218.28   10.70
  -5  -3  -5  195.38   10.10
   5   3   5  209.88   10.60
   5   3   5  205.48   10.30
  -6  -3  -5  131.79    7.90
   6   3   5  114.39    6.80
   6   3   5  125.99    8.50
   6   3   5  133.39    8.00
  -7  -3  -5   58.99    5.80
   7   3   5   51.59    6.40
   7   3   5   45.90    5.40
   7   3   5   55.39    6.10
  -8  -3  -5   62.59    6.40
   8   3   5   61.59    7.30
   9   3   5   16.10    4.20
   9   3   5   18.60    7.20
   9   3   5   19.70    4.90
  10   3   5   26.10    6.40
  10   3   5   15.40    9.20
  10   3   5   18.70    5.10
  11   3   5   -0.10    5.00
  11   3   5   12.60   11.30
  11   3   5   17.10    7.90
   7  -4  -5   27.00    6.20
  -7   4   5   14.10   10.80
  -7   4   5   25.30    6.20
   6  -4  -5   11.60    4.90
  -6   4   5   12.50    8.50
  -6   4   5    6.90    4.40
   5  -4  -5   68.69    7.60
  -5   4   5   73.79   11.70
   4  -4  -5  142.49    9.10
  -4   4   5  152.98   11.80
   3  -4  -5   22.40    3.60
  -3   4   5   21.50    3.40
  -3   4   5   17.00    4.70
   2  -4  -5  481.65   22.50
   2  -4  -5  551.64   22.60
   2  -4  -5  497.75   23.60
  -2   4   5  542.35   23.40
  -2   4   5  477.15   22.00
  -2   4   5  503.75   22.30
   1  -4  -5  995.70   43.20
   1  -4  -5 1016.40   43.60
   1  -4  -5 1079.79   43.40
  -1   4   5 1085.69   43.60
  -1   4   5 1046.10   43.10
  -1   4   5 1002.90   42.90
   0  -4  -5  896.61   37.40
   0  -4  -5  875.81   37.20
   0  -4  -5  919.61   37.40
   0   4   5  870.41   37.00
   0   4   5  896.41   37.20
   0   4   5  871.31   37.10
  -1  -4  -5  318.37   14.40
  -1  -4  -5  315.37   14.40
   1   4   5  310.27   14.10
   1   4   5  299.47   14.20
  -2  -4  -5  117.59    6.70
  -2  -4  -5  104.19    6.70
   2   4   5  109.49    6.40
   2   4   5  101.79    6.30
  -3  -4  -5  122.39    7.30
   3   4   5  125.29    7.20
   3   4   5  122.79    7.00
  -4  -4  -5  449.95   20.30
  -4  -4  -5  477.05   20.60
   4   4   5  471.85   20.40
   4   4   5  459.05   20.40
  -5  -4  -5   36.10    4.80
  -5  -4  -5   26.70    3.80
   5   4   5   23.70    3.40
   5   4   5   31.20    3.80
  -6  -4  -5  123.79    7.70
   6   4   5  116.39    7.70
   6   4   5  108.69    7.60
  -7  -4  -5   38.30    4.60
   7   4   5   31.50    4.30
   7   4   5   30.60    4.70
  -8  -4  -5   44.60    5.90
   8   4   5   22.20    4.30
   8   4   5   34.00    6.10
  -9  -4  -5   -0.40    3.90
   9   4   5    4.10    6.80
   9   4   5   -0.40    4.40
  10   4   5    3.90    4.70
  10   4   5    9.80    8.40
  10   4   5   16.80    5.90
  11   4   5   31.10    5.60
  11   4   5   32.20   11.70
  11   4   5   15.90    7.80
   6  -5  -5    4.40    6.00
  -6   5   5   15.70    9.20
  -6   5   5    6.20    5.40
   5  -5  -5   45.20    6.40
  -5   5   5   40.20    5.30
  -5   5   5   30.70    8.20
   4  -5  -5   10.50    4.30
  -4   5   5   13.10    6.20
  -3   5   5   81.09    7.00
  -3   5   5   71.29    9.60
   2  -5  -5    8.00    3.30
  -2   5   5    9.20    3.10
  -2   5   5   10.60    4.20
   1  -5  -5  253.27   13.70
   1  -5  -5  251.07   15.10
   1  -5  -5  283.97   13.50
  -1   5   5  285.47   14.30
  -1   5   5  295.57   13.50
   0  -5  -5   55.49    7.70
   0  -5  -5   68.29    6.70
   0  -5  -5   73.59    5.70
   0   5   5   66.49    6.00
   0   5   5   70.09    6.80
   0   5   5   68.59    5.40
  -1  -5  -5    4.30    2.20
  -1  -5  -5    2.00    2.90
  -1  -5  -5    9.20    3.70
   1   5   5    4.40    2.20
   1   5   5    3.50    2.90
   1   5   5    6.70    2.50
  -2  -5  -5   34.70    4.10
  -2  -5  -5   47.90    4.60
  -2  -5  -5   42.20    5.90
   2   5   5   41.70    4.90
   2   5   5   46.80    5.30
   2   5   5   37.90    4.20
  -3  -5  -5   93.99    6.90
  -3  -5  -5  110.49    7.00
   3   5   5  117.99    6.90
   3   5   5  100.29    6.30
  -4  -5  -5  143.69    8.30
  -4  -5  -5  129.09    7.90
   4   5   5  132.79    8.10
   4   5   5  132.79    7.50
  -5  -5  -5  471.75   22.10
  -5  -5  -5  536.95   22.70
   5   5   5  508.95   22.20
   5   5   5  509.75   22.40
  -6  -5  -5  146.69    8.80
   6   5   5  136.29    8.60
   6   5   5  124.89    8.20
  -7  -5  -5   20.40    4.10
   7   5   5   19.70    3.90
   7   5   5   17.50    3.90
  -8  -5  -5   47.80    6.60
   8   5   5   66.59   10.30
   8   5   5   40.60    6.70
  -9  -5  -5   36.80    5.20
   9   5   5   37.00    7.50
   9   5   5   29.40    5.50
 -10  -5  -5   95.39    9.00
  10   5   5  103.89   10.80
  10   5   5  135.99   15.90
  11   5   5   38.70    7.50
  11   5   5   43.00    6.30
  11   5   5   38.50   11.30
   5  -6  -5   11.90    6.40
  -5   6   5   24.10    9.00
  -5   6   5   32.20    5.70
   4  -6  -5   74.59    8.20
  -4   6   5   67.79    9.90
  -4   6   5   75.09    8.40
   3  -6  -5   18.60    5.00
  -3   6   5   16.10    4.00
  -3   6   5    6.70    5.90
   2  -6  -5   22.40    4.70
  -2   6   5   22.50    5.70
  -2   6   5   20.50    4.20
   1  -6  -5  133.09    9.40
  -1   6   5  126.49   10.10
  -1   6   5  146.29    8.90
   0  -6  -5  424.46   23.10
   0  -6  -5  486.85   22.60
   0  -6  -5  488.35   21.80
   0   6   5  512.75   22.30
   0   6   5  485.55   21.50
  -1  -6  -5  744.23   34.20
  -1  -6  -5  728.63   33.50
  -1  -6  -5  854.61   34.10
   1   6   5  817.82   33.60
   1   6   5  801.82   34.10
  -2  -6  -5  562.44   26.10
  -2  -6  -5  557.14   26.60
  -2  -6  -5  637.84   26.60
   2   6   5  615.64   26.40
   2   6   5  613.14   26.20
   2   6   5  624.64   26.90
  -3  -6  -5    8.70    3.80
  -3  -6  -5    1.30    2.90
  -3  -6  -5    1.30    2.70
   3   6   5    6.40    3.60
   3   6   5    4.00    2.60
   3   6   5   10.00    3.10
  -4  -6  -5   45.40    5.70
  -4  -6  -5   36.70    5.00
  -4  -6  -5   41.00    5.40
   4   6   5   47.20    5.50
   4   6   5   44.70    4.70
   4   6   5   43.80    6.70
  -5  -6  -5    6.80    3.40
  -5  -6  -5    2.90    4.20
   5   6   5    5.60    3.10
   5   6   5    5.50    2.80
   5   6   5    6.20    3.80
  -6  -6  -5   34.40    5.50
  -6  -6  -5   37.30    4.80
   6   6   5   30.30    4.90
   6   6   5   18.70    3.60
   6   6   5   29.90    4.20
  -7  -6  -5   26.30    4.50
  -7  -6  -5   22.40    6.50
   7   6   5   22.50    4.50
   7   6   5   23.10    5.10
   7   6   5   30.60    4.20
  -8  -6  -5   -3.20    3.80
  -8  -6  -5   -3.90    7.30
   8   6   5   11.50    5.70
   8   6   5    0.40    3.80
  -9  -6  -5   30.90    5.30
   9   6   5   20.80    5.10
   9   6   5   32.70    7.30
 -10  -6  -5    4.40    4.80
  10   6   5    8.70    5.30
  10   6   5   -6.50    8.20
  11   6   5   89.79   12.50
  11   6   5  114.29   12.70
   4  -7  -5    3.20    6.80
  -4   7   5   -6.50    5.20
  -4   7   5   -1.30    8.50
   3  -7  -5   74.79    9.50
  -3   7   5   58.39    9.50
   2  -7  -5   33.40    5.60
  -2   7   5   29.10    4.80
  -2   7   5   23.30    6.90
  -1   7   5  222.48   11.70
  -1   7   5  186.98   13.50
   0  -7  -5  848.32   36.10
   0   7   5  792.02   36.40
   0   7   5  847.72   35.50
   1   7   5   33.90    5.80
   1   7   5   32.00    4.40
  -2  -7  -5   17.10    6.00
  -2  -7  -5   24.50    4.00
   2   7   5   24.20    4.10
   2   7   5   13.70    4.50
  -3  -7  -5    7.60    5.10
  -3  -7  -5    6.50    3.20
   3   7   5   11.60    3.50
   3   7   5   13.50    4.50
  -4  -7  -5   66.49    6.40
  -4  -7  -5   47.10    6.60
   4   7   5   58.29    8.30
   4   7   5   62.39    6.60
  -5  -7  -5    8.10    5.30
  -5  -7  -5   13.30    3.70
   5   7   5    4.60    4.90
   5   7   5   13.70    3.70
  -6  -7  -5  597.84   25.30
  -6  -7  -5  504.05   26.20
   6   7   5  554.84   25.00
   6   7   5  564.64   25.70
  -7  -7  -5   41.00    5.50
  -7  -7  -5   31.30    7.30
   7   7   5   38.10    6.10
  -8  -7  -5   19.40    4.80
   8   7   5    5.50    5.80
  -9  -7  -5   28.80    5.40
   9   7   5   29.30    5.80
   9   7   5   16.20    7.50
 -10  -7  -5    1.30    5.40
  10   7   5   -2.90    8.30
  10   7   5   -6.60    5.50
  11   7   5   49.80    8.00
  11   7   5   57.29   11.80
   3  -8  -5    3.50    6.40
  -3   8   5   -0.40    8.80
  -3   8   5   -3.80    5.70
   2  -8  -5    3.70    5.40
  -2   8   5    4.20    7.40
   1  -8  -5   79.19    8.90
  -1   8   5   67.89    8.80
  -1   8   5   82.89    9.00
   0  -8  -5   11.90    4.50
   0   8   5   10.30    5.70
   0   8   5    5.80    4.90
   1   8   5   65.59    9.80
   1   8   5   69.39    7.60
   2   8   5  792.82   33.70
   2   8   5  761.92   34.60
  -3  -8  -5   87.39    7.90
   3   8   5   93.39    9.60
   3   8   5   83.19    8.00
  -4  -8  -5    6.10    3.80
   4   8   5    4.80    3.80
   4   8   5    6.80    5.00
  -5  -8  -5  154.68    9.90
   5   8   5  128.59   10.80
   5   8   5  151.38   11.70
  -6  -8  -5    1.90    4.00
   6   8   5    3.60    3.90
   6   8   5   -1.40    5.50
  -7  -8  -5   20.00    5.10
   7   8   5    9.30    6.00
  -8  -8  -5   20.10    5.40
   8   8   5   28.50    7.00
   8   8   5   29.90    6.30
  -9  -8  -5    0.60    5.50
   9   8   5   -2.70    5.00
   9   8   5   -0.40    7.30
 -10  -8  -5   52.89    8.40
  10   8   5   47.90    7.40
  10   8   5   40.60    9.70
 -11  -8  -5   47.40    8.00
  11   8   5   55.59    8.70
  11   8   5   48.60   11.40
   2  -9  -5   -3.20    6.80
  -2   9   5    0.60    9.30
  -2   9   5   -7.00    6.20
   1  -9  -5    8.80    5.90
  -1   9   5   -2.20    7.40
  -1   9   5   -2.00    5.50
   0  -9  -5    8.50    6.00
   0   9   5    8.40    7.40
  -1  -9  -5    7.80    4.80
   1   9   5   -5.40    4.70
   1   9   5    5.50    6.40
  -2  -9  -5  212.18   12.60
   2   9   5  180.28   14.30
   2   9   5  170.18   12.40
  -3  -9  -5    2.00    4.60
   3   9   5    1.20    6.00
   3   9   5    1.90    4.60
   4   9   5   14.90    6.30
   4   9   5   13.50    4.80
  -6  -9  -5   99.89   12.30
   6   9   5   98.79   16.20
  -7  -9  -5  173.08   11.90
   7   9   5  180.38   12.20
   7   9   5  182.68   14.60
  -8  -9  -5   20.30    6.00
   8   9   5   18.90    7.70
   8   9   5   19.90    5.40
  -9  -9  -5    4.20    6.10
   9   9   5   17.30    6.20
   9   9   5   12.10    8.70
 -10  -9  -5   14.90    7.70
  10   9   5    3.10    9.60
  10   9   5   -2.10    6.40
  11   9   5   -5.70   11.10
  11   9   5   -3.30    7.90
   0 -10  -5   21.50    7.00
   0  10   5   21.00   10.00
   0  10   5   18.50    6.70
  -1 -10  -5    6.70    6.20
   1  10   5    3.90    7.80
   1  10   5    1.70    5.90
  -2 -10  -5   90.89   10.50
   2  10   5   61.69    9.90
  -3 -10  -5   17.10    6.10
   3  10   5   27.60    7.90
  -4 -10  -5   18.40    6.00
   4  10   5   26.20    7.70
   4  10   5   21.00    6.60
  -5 -10  -5  104.99   10.00
   5  10   5   70.99    9.40
   5  10   5   83.89    9.60
  -6 -10  -5   18.10    5.70
   6  10   5    2.90    7.30
   6  10   5   16.30    5.30
  -7 -10  -5    3.40    5.70
   7  10   5    1.80    5.00
   7  10   5   -5.20    8.00
  -8 -10  -5    1.80    6.40
   8  10   5   -5.00    8.50
   8  10   5   -6.90    5.60
  -9 -10  -5   -8.30    9.10
   9  10   5    2.20    9.30
   9  10   5   -2.30    6.30
 -10 -10  -5   31.40   11.30
  10  10   5   25.50    7.60
  10  10   5   40.00   11.40
  -2 -11  -5   -6.00    7.40
   2  11   5   -3.60    9.70
   2  11   5   -7.90    6.70
  -3 -11  -5   16.40    7.30
   3  11   5   24.50    6.60
   3  11   5   11.70    9.30
  -4 -11  -5   -9.40    6.40
   4  11   5   -2.60    6.20
   4  11   5    4.10    8.30
  -5 -11  -5   30.90    7.30
   5  11   5    6.20    9.20
   5  11   5   21.70    6.30
  -6 -11  -5   33.70    7.60
   6  11   5   21.90    6.40
   6  11   5   33.50    9.70
  -7 -11  -5    6.50    6.80
   7  11   5   21.70    6.60
   7  11   5    4.30    9.10
  -8 -11  -5   13.00    7.40
   8  11   5   -0.70    6.30
   8  11   5   -1.90   10.20
  -9 -11  -5    3.80    8.50
   9  11   5    1.30   10.70
   9  11   5   13.30    7.10
  -6 -12  -5   26.90    8.40
   6  12   5   12.00   11.10
   6  12   5   21.70    8.00
  -7 -12  -5   52.99    9.60
   7   9  -6   -9.00    8.70
  -7  -9   6    0.90    4.20
   6   9  -6   34.60    9.20
   5   9  -6   -3.80    7.90
   4   9  -6   24.10    8.80
  -4  -9   6   47.80    5.70
   3   9  -6    2.80    8.50
  -3  -9   6   -1.20    4.30
   2   9  -6   -1.60    9.10
  -2  -9   6    4.40    4.40
   1   9  -6  -17.80    9.60
  -1  -9   6   -3.40    4.60
   8   8  -6    6.90    9.30
  -8  -8   6    1.60    4.50
   7   8  -6   10.00    7.90
  -7  -8   6    6.00    3.70
   6   8  -6   51.59    9.00
  -6  -8   6   69.89    9.50
   5   8  -6   28.80    7.40
  -5  -8   6   33.40    3.90
  -5  -8   6   47.80    5.40
  -4  -8   6    8.70    3.10
  -3  -8   6   14.50    3.70
  -1  -8   6    5.10    3.70
   0   8  -6    4.80    7.90
   0  -8   6    8.80    4.20
  -1   8  -6   38.60    9.50
   1  -8   6   43.90    6.10
   9   7  -6   24.10   10.30
  -9  -7   6   14.20    4.90
   8   7  -6   -3.20    8.00
  -8  -7   6    2.80    4.10
   7   7  -6   19.00    7.10
  -7  -7   6   27.30    4.20
   6   7  -6   44.50    9.70
   5   7  -6    2.60    6.40
  -5  -7   6    2.70    2.60
   4   7  -6   90.19   11.60
   4   7  -6   67.09    7.70
  -4  -7   6   85.29    5.60
  -4  -7   6   88.89    5.80
  -4  -7   6   66.29    7.40
   3   7  -6  846.42   38.10
  -3  -7   6  867.61   35.90
   2   7  -6   -7.00    5.80
  -2  -7   6    1.00    2.60
   1   7  -6    8.80    6.30
   0   7  -6    8.50    6.80
   0  -7   6   -2.20    3.20
  -1   7  -6   37.00    7.90
   1  -7   6   35.50    5.10
  -2   7  -6   29.90   10.10
   2  -7   6   27.50    4.80
  -3   7  -6   81.89   11.20
   3  -7   6   73.89    9.10
   9   6  -6   -3.30    8.80
  -9  -6   6   -1.10    4.50
   8   6  -6   -1.60    7.60
  -8  -6   6    0.30    3.70
   7   6  -6   -3.60    6.70
  -7  -6   6    4.30    3.20
   6   6  -6   89.09   10.90
   5   6  -6   17.10    5.20
  -5  -6   6   10.10    2.80
   4   6  -6   38.40    6.00
   4   6  -6   35.20    4.30
  -4  -6   6   40.30    4.20
  -4  -6   6   42.80    3.90
  -4  -6   6   38.30    4.40
   3   6  -6  105.99    9.80
   3   6  -6   88.29    7.20
  -3  -6   6   80.99   12.20
  -3  -6   6  109.39    6.10
  -3  -6   6  110.19    5.80
  -3  -6   6   97.09    7.40
   2   6  -6  173.88   11.80
  -2  -6   6  153.28   10.90
  -2  -6   6  171.38    8.60
  -2  -6   6  152.98   13.40
   1   6  -6   42.20    6.10
  -1  -6   6   31.10    6.50
  -1  -6   6   36.30    4.50
   0   6  -6  157.28   11.60
   0  -6   6  131.59   13.30
   0  -6   6  158.78    8.80
   1  -6   6    0.20    2.70
  -2   6  -6   61.89    7.50
   2  -6   6   52.19    6.40
  -3   6  -6    2.50    7.20
   3  -6   6    1.50    4.00
  -4   6  -6   78.09   11.30
   4  -6   6   97.59    9.30
   9   5  -6   27.10    9.40
  -9  -5   6   24.00    5.10
   8   5  -6   14.20    7.90
  -8  -5   6   24.10    4.30
  -7  -5   6   99.99    7.60
   6   5  -6   24.80    6.10
  -6  -5   6   33.50    5.30
   5   5  -6   29.00    5.60
  -5  -5   6   36.80    3.80
   4   5  -6  158.98   10.80
   4   5  -6  138.49    9.30
  -4  -5   6  147.09    7.20
  -4  -5   6  149.59    8.00
  -4  -5   6  137.99    8.20
  -4  -5   6  177.28   12.70
   3   5  -6  608.24   27.80
   3   5  -6  694.83   29.40
  -3  -5   6  682.53   27.50
  -3  -5   6  662.43   27.50
  -3  -5   6  653.63   28.20
  -3  -5   6  650.53   29.70
   2   5  -6  315.67   14.40
  -2  -5   6  305.77   15.00
  -2  -5   6  334.77   14.40
  -2  -5   6  325.87   13.90
  -1  -5   6    6.60    2.20
  -1  -5   6    6.50    3.50
   0  -5   6  230.48   11.30
  -3   5  -6   47.80    6.80
   3  -5   6   46.50    6.10
  -4   5  -6    7.60    7.10
   4  -5   6    9.00    4.20
   5  -5   6    6.80    4.20
   9   4  -6    9.60    9.10
  -9  -4   6    6.70    4.40
   8   4  -6   12.10    7.60
  -8  -4   6    8.50    3.80
  -7  -4   6  734.33   31.70
   6   4  -6   -0.40    5.30
  -6  -4   6    2.30    2.80
   5   4  -6   85.59    9.10
  -5  -4   6   83.59    5.90
   4   4  -6  100.89    7.70
   4   4  -6   96.19    8.90
  -4  -4   6   95.89    9.80
  -4  -4   6   91.99    6.10
  -4  -4   6  104.49    6.10
   3   4  -6  151.78    8.60
   3   4  -6  167.28    9.90
  -3  -4   6  166.58   10.70
  -3  -4   6  150.28    7.70
  -3  -4   6  147.99    8.30
  -3  -4   6  153.68    7.80
   2   4  -6  128.99    7.10
  -2  -4   6  126.49    6.70
  -2  -4   6  120.59    7.40
  -2  -4   6  118.49    6.30
   1   4  -6  370.26   16.20
  -1  -4   6  354.36   17.00
  -1  -4   6  380.36   15.90
  -1  -4   6  391.16   16.70
   0  -4   6   48.30    6.10
   0  -4   6   29.10    4.10
   1  -4   6    6.10    2.30
   2  -4   6    4.20    2.60
   4  -4   6    6.40    3.40
  -5   4  -6   31.80    7.40
   5  -4   6   27.40    4.40
   6  -4   6    3.40    4.60
   9   3  -6    8.10    9.30
  -9  -3   6   10.40    4.20
   8   3  -6    5.80    7.50
  -8  -3   6   11.10    3.90
  -7  -3   6   72.29    6.60
   6   3  -6  119.69   11.00
  -6  -3   6   98.49    7.40
   5   3  -6   36.10    6.20
   5   3  -6   42.70    5.90
  -5  -3   6   37.20    4.80
   4   3  -6   64.19    7.50
   4   3  -6   54.39    6.50
  -4  -3   6   57.89    4.70
   3   3  -6  214.08   11.10
  -3  -3   6  219.28   10.70
  -3  -3   6  242.58   10.60
   2   3  -6    5.50    2.30
  -2  -3   6    1.40    1.60
  -2  -3   6    3.80    2.20
   1   3  -6   79.59    5.30
  -1  -3   6   71.49    4.60
  -1  -3   6   81.49    5.90
  -1  -3   6   77.99    5.20
   0   3  -6  256.67   12.10
   0  -3   6  268.67   13.10
   0  -3   6  270.97   11.70
   0  -3   6  281.67   12.80
   1  -3   6    0.80    3.40
   1  -3   6    0.60    2.00
   2  -3   6    6.20    2.40
   3  -3   6    3.10    2.50
   5  -3   6   20.00    3.70
   6  -3   6    2.90    3.70
   7  -3   6   11.60    4.60
   9   2  -6   66.19   11.50
  -9  -2   6   69.29    8.40
   8   2  -6    5.00    7.80
  -8  -2   6    2.20    4.00
  -7  -2   6   82.69    7.40
   6   2  -6  160.08   12.70
  -6  -2   6  168.48    9.70
   5   2  -6  175.88   13.10
   5   2  -6  207.48   12.80
  -5  -2   6  214.68   10.40
   4   2  -6   59.89    7.30
   4   2  -6   52.89    7.20
   4   2  -6   49.40    5.60
  -4  -2   6   63.99    4.90
   3   2  -6   16.00    3.10
   3   2  -6   16.90    2.20
  -3  -2   6   17.10    2.50
  -3  -2   6   14.60    2.30
   2   2  -6   59.79    4.50
   2   2  -6   64.29    5.20
  -2  -2   6   69.99    4.80
  -2  -2   6   64.79    4.40
   1   2  -6    8.60    2.30
   1   2  -6    8.30    1.90
  -1  -2   6    5.00    1.70
  -1  -2   6    2.20    2.10
   0   2  -6  903.21   37.70
   0   2  -6  943.01   38.10
   0  -2   6  904.31   37.50
   0  -2   6  917.81   38.40
  -1   2  -6  219.18   10.20
   1  -2   6  228.18   10.10
   1  -2   6  220.18   11.50
   2  -2   6   30.60    4.10
   2  -2   6   20.00    3.80
   3  -2   6    2.60    2.40
   6  -2   6   -1.10    3.60
   7  -2   6    8.70    4.30
   8  -2   6   23.40    5.20
   9   1  -6    3.40   10.10
  -9  -1   6    1.30    4.50
   8   1  -6    1.30    8.50
  -8  -1   6   13.70    4.30
  -7  -1   6   12.70    4.60
   6   1  -6    3.00    5.70
   5   1  -6  817.12   37.70
   5   1  -6  878.51   38.10
  -5  -1   6  905.21   36.50
   4   1  -6   12.90    2.50
   4   1  -6   11.70    4.00
   4   1  -6   16.90    4.30
  -4  -1   6   10.20    2.40
  -4  -1   6   13.40    2.30
   3   1  -6    1.10    2.00
   3   1  -6   -0.10    2.80
  -3  -1   6    1.00    2.00
  -3  -1   6   -0.20    1.80
   2   1  -6  142.79    7.80
   2   1  -6  135.89    7.20
  -2  -1   6  138.09    7.20
  -2  -1   6  132.29    7.20
   1   1  -6  134.89    7.10
   1   1  -6  123.59    7.50
  -1  -1   6  142.39    7.10
  -1  -1   6  142.19    7.40
   0   1  -6  658.83   27.60
   0   1  -6  646.04   27.40
   0  -1   6  647.24   27.80
   0  -1   6  658.53   27.20
  -1   1  -6   37.00    3.90
  -1   1  -6   35.80    3.90
   1  -1   6   40.20    4.80
   1  -1   6   33.80    3.70
  -2   1  -6  117.19    6.70
  -2   1  -6  126.89    7.10
   2  -1   6  129.79    7.90
   2  -1   6  121.09    6.50
  -3   1  -6    0.80    2.10
  -3   1  -6    3.50    2.20
   3  -1   6    9.40    3.70
   3  -1   6    2.10    2.10
   4  -1   6   37.80    4.20
   4  -1   6   36.10    4.80
   5  -1   6   13.60    2.30
   5  -1   6   12.80    3.50
   5  -1   6   10.70    2.90
   6  -1   6  348.67   16.00
   6  -1   6  404.36   18.00
   6  -1   6  352.36   16.60
   7  -1   6   -3.50    3.60
   7  -1   6   -6.70    3.70
   8  -1   6   11.10    4.70
   8  -1   6    3.00    4.30
   9  -1   6   12.00    5.50
   9  -1   6   19.60   12.10
   9   0  -6    2.30   12.20
  -9   0   6   -0.50    5.40
  -8   0   6  111.19    9.60
   7   0  -6    6.90    7.50
  -7   0   6   11.00    4.00
   6   0  -6   69.09    5.90
  -6   0   6   64.69    5.40
   5   0  -6  198.98    9.90
   5   0  -6  214.28   13.40
  -5   0   6  189.28    9.50
   4   0  -6    5.60    4.00
   4   0  -6    2.10    4.30
   4   0  -6    6.40    2.40
  -4   0   6    1.10    2.00
  -4   0   6    5.10    2.60
   3   0  -6  129.39    6.90
   3   0  -6  129.29    8.60
   3   0  -6  115.69    7.90
  -3   0   6  118.79    7.00
  -3   0   6  125.59    6.70
   2   0  -6  339.57   16.30
   2   0  -6  358.76   16.00
  -2   0   6  384.06   16.10
  -2   0   6  360.36   15.90
   1   0  -6   24.70    3.10
   1   0  -6   23.60    3.00
  -1   0   6   29.40    3.60
  -1   0   6   22.20    3.10
   0   0  -6  686.73   28.70
   0   0  -6  646.84   28.50
   0   0   6  656.53   28.70
   0   0   6  724.43   28.50
  -1   0  -6  401.96   17.70
  -1   0  -6  415.26   18.00
   1   0   6  389.06   18.10
   1   0   6  415.46   17.60
  -2   0  -6  143.19    7.90
  -2   0  -6  153.58    8.00
   2   0   6  155.08    7.70
   2   0   6  157.28    8.60
  -3   0  -6  196.48    9.90
  -3   0  -6  193.58    9.40
   3   0   6  199.28    9.40
   3   0   6  177.98   10.40
  -4   0  -6  130.09    7.50
  -4   0  -6  121.39    6.90
   4   0   6  124.99    7.30
   5   0   6    1.10    2.50
   5   0   6    0.90    1.80
   6   0   6  670.73   27.90
   6   0   6  636.84   27.40
   7   0   6   67.79    6.50
   7   0   6   75.39    7.40
   7   0   6   80.19    7.60
   8   0   6    8.10    4.60
   8   0   6    3.20    4.30
   9   0   6   15.80    6.00
   9   0   6   21.50    5.40
   8  -1  -6   15.30   10.80
  -8   1   6    9.80    4.80
   7  -1  -6    1.80    3.90
   7  -1  -6    4.10    8.60
  -7   1   6   11.30    4.90
   6  -1  -6   18.00    3.70
  -6   1   6   18.00    3.80
  -6   1   6   19.60    3.40
   5  -1  -6  549.74   25.10
   5  -1  -6  503.25   22.20
  -5   1   6  480.15   21.80
   4  -1  -6   34.00    5.80
   4  -1  -6   34.60    4.50
  -4   1   6   36.00    4.30
  -4   1   6   32.60    3.80
   3  -1  -6  129.89    8.90
   3  -1  -6  143.09    7.50
  -3   1   6  129.79    7.50
  -3   1   6  128.49    7.00
   2  -1  -6  109.59    6.40
   2  -1  -6   98.49    6.90
  -2   1   6   99.39    6.10
  -2   1   6  111.99    6.40
   1  -1  -6  172.98    8.70
   1  -1  -6  163.08    9.00
  -1   1   6  174.58    8.60
  -1   1   6  169.78    8.60
   0  -1  -6  231.68   12.10
   0  -1  -6  261.87   12.10
   0   1   6  252.37   11.90
   0   1   6  270.87   11.90
  -1  -1  -6  123.19    7.50
  -1  -1  -6  131.59    7.40
   1   1   6  123.69    7.40
   1   1   6  143.79    7.20
  -2  -1  -6  143.29    7.80
  -2  -1  -6  136.99    7.70
   2   1   6  147.99    7.60
   2   1   6  134.49    8.00
  -3  -1  -6   53.49    4.90
  -3  -1  -6   54.79    4.80
   3   1   6   55.39    4.70
   3   1   6   41.00    5.30
  -4  -1  -6   19.70    3.00
  -4  -1  -6   20.90    3.20
   4   1   6   14.80    3.50
   4   1   6   24.40    3.30
  -5  -1  -6    3.80    2.50
  -5  -1  -6    5.90    2.70
   5   1   6    4.20    2.60
  -6  -1  -6  555.14   23.70
   6   1   6  529.25   23.20
   6   1   6  508.75   22.50
   7   1   6  146.79    9.60
   7   1   6  136.19    8.70
   7   1   6  141.89    9.30
   8   1   6   16.30    4.50
   8   1   6    4.40    4.70
   9   1   6    1.00   10.30
   9   1   6   14.30    4.70
  10   1   6   10.60   11.60
  10   1   6   -1.40    5.40
  10   1   6  -14.30    6.90
   8  -2  -6   -2.80   11.80
  -8   2   6    2.70    5.70
   7  -2  -6   91.29    8.80
  -7   2   6  101.19    9.50
   6  -2  -6   57.29    6.80
  -6   2   6   63.39    7.50
   5  -2  -6    2.80    3.10
  -5   2   6    2.80    3.40
   4  -2  -6  105.99    6.90
  -4   2   6   77.69    8.50
  -4   2   6  109.49   10.10
  -4   2   6   95.79    6.50
   3  -2  -6   22.70    3.60
   3  -2  -6   22.00    4.70
  -3   2   6   28.40    3.70
  -3   2   6   27.10    4.90
  -3   2   6   24.90    3.10
   2  -2  -6   50.59    6.60
   2  -2  -6   52.49    6.30
   2  -2  -6   58.69    5.00
  -2   2   6   53.19    4.70
  -2   2   6   65.19    5.10
  -2   2   6   62.89    6.80
   1  -2  -6    4.40    2.90
   1  -2  -6    1.10    1.90
  -1   2   6    0.00    2.00
  -1   2   6   -1.00    1.90
   0  -2  -6    4.90    2.20
   0  -2  -6    4.90    2.80
   0   2   6    4.80    2.30
   0   2   6    5.10    1.90
  -1  -2  -6 1117.69   46.20
  -1  -2  -6 1124.89   46.40
   1   2   6 1122.99   46.30
   1   2   6 1109.09   46.10
  -2  -2  -6   63.89    5.40
  -2  -2  -6   58.39    5.10
   2   2   6   61.69    4.90
   2   2   6   58.99    5.10
  -3  -2  -6  276.37   13.10
  -3  -2  -6  256.87   12.60
   3   2   6  273.47   12.60
   3   2   6  267.17   13.00
  -4  -2  -6  175.48    9.20
  -4  -2  -6  157.58    8.70
   4   2   6  150.58    9.40
   4   2   6  169.98    8.90
  -5  -2  -6   64.19    5.70
  -5  -2  -6   83.29    6.10
   5   2   6   63.89    6.70
   5   2   6   75.39    6.00
  -6  -2  -6   -3.00    2.70
   6   2   6    1.20    2.20
   6   2   6    1.90    3.00
  -7  -2  -6  366.46   17.40
   7   2   6  364.56   17.30
   8   2   6    7.20    4.50
   8   2   6    9.00    3.90
   9   2   6    8.60    4.70
   9   2   6   -1.40    5.30
  10   2   6   67.69    8.40
  10   2   6   76.89    9.80
   7  -3  -6    7.30    5.30
  -7   3   6    3.50    5.20
  -6   3   6   68.99    8.30
  -6   3   6   54.79    9.60
   5  -3  -6   36.90    5.30
  -5   3   6   41.00    8.10
  -5   3   6   37.30    4.90
   4  -3  -6  615.04   27.50
  -4   3   6  642.84   29.30
   3  -3  -6   11.00    5.60
   3  -3  -6   18.80    3.70
  -3   3   6   11.90    3.20
  -3   3   6   14.40    3.30
  -3   3   6   14.80    4.90
   2  -3  -6   59.79    7.60
   2  -3  -6   54.89    5.20
  -2   3   6   51.39    7.20
  -2   3   6   57.79    5.40
  -2   3   6   52.99    5.10
   1  -3  -6   39.80    4.50
   1  -3  -6   31.60    4.10
  -1   3   6   37.20    5.70
  -1   3   6   30.70    3.70
  -1   3   6   32.40    4.30
   0  -3  -6   -1.60    2.80
   0  -3  -6    0.40    2.10
   0   3   6   -0.40    2.20
   0   3   6    0.30    2.20
  -1  -3  -6  106.29    6.60
  -1  -3  -6   92.29    6.70
   1   3   6   93.69    6.20
   1   3   6  104.29    6.40
  -2  -3  -6   62.89    5.20
  -2  -3  -6   50.99    5.40
   2   3   6   59.89    5.00
   2   3   6   60.49    5.10
  -3  -3  -6  304.97   14.00
  -3  -3  -6  278.27   13.80
   3   3   6  272.07   13.70
   3   3   6  313.17   13.80
  -4  -3  -6   46.90    5.20
  -4  -3  -6   46.80    5.50
   4   3   6   55.59    5.50
   4   3   6   51.49    5.30
  -5  -3  -6    8.40    3.20
  -5  -3  -6    5.00    3.00
   5   3   6   12.20    3.50
   5   3   6    4.10    2.90
  -6  -3  -6   50.79    6.00
  -6  -3  -6   38.80    4.50
   6   3   6   47.00    6.10
  -7  -3  -6    8.30    3.50
   7   3   6    0.70    3.70
   8   3   6  119.99   10.10
   9   3   6   60.69    6.90
   9   3   6   53.49    7.00
  10   3   6   17.30    5.80
  10   3   6   19.10    7.00
  11   3   6   -7.00    8.10
  11   3   6   -8.80    5.80
  11   3   6   21.60   12.30
   6  -4  -6   78.19    9.60
  -6   4   6   80.79    9.60
  -6   4   6   91.79   12.60
   5  -4  -6    6.30    4.50
  -5   4   6   10.50    4.10
  -5   4   6   -2.00    7.40
   4  -4  -6  160.08   13.40
  -4   4   6  153.78   13.00
   3  -4  -6   13.70    3.60
  -3   4   6    9.90    5.20
   2  -4  -6  202.78   10.60
   2  -4  -6  180.78   13.10
  -2   4   6  191.78   10.40
  -2   4   6  186.88   11.80
   1  -4  -6  170.48    9.20
   1  -4  -6  149.09   10.60
  -1   4   6  167.18    9.20
  -1   4   6  142.59    8.70
  -1   4   6  168.98   10.10
   0  -4  -6   31.10    3.90
   0  -4  -6   23.50    3.70
   0   4   6   29.20    3.60
   0   4   6   27.40    3.60
  -1  -4  -6   67.29    5.40
  -1  -4  -6   49.30    6.10
   1   4   6   62.19    5.30
   1   4   6   58.09    5.50
  -2  -4  -6  919.91   37.10
  -2  -4  -6  821.22   36.70
   2   4   6  873.41   36.70
   2   4   6  878.61   36.70
  -3  -4  -6  171.38    9.70
  -3  -4  -6  177.68    9.70
   3   4   6  172.48    9.30
   3   4   6  181.08    9.50
  -4  -4  -6   16.80    3.50
  -4  -4  -6   11.00    3.10
   4   4   6   16.80    3.20
   4   4   6   11.40    3.20
  -5  -4  -6   30.00    4.00
  -5  -4  -6   39.90    4.80
   5   4   6   45.10    4.70
   5   4   6   31.30    4.10
  -6  -4  -6   51.59    6.40
   6   4   6   63.69    6.60
  -7  -4  -6    2.40    3.90
   7   4   6   -0.30    3.60
  -8  -4  -6    3.40    4.10
   8   4   6    2.00    4.80
  -9  -4  -6   -5.00    4.50
   9   4   6    3.10    5.30
  10   4   6   -1.50    5.10
  10   4   6   -2.60    6.30
  10   4   6    0.60   12.00
  11   4   6   18.20    5.90
  11   4   6   -8.70   11.10
  11   4   6    8.30    8.00
   5  -5  -6   -9.80    5.10
  -5   5   6   -1.40    4.60
  -5   5   6    4.30    8.40
   4  -5  -6  141.29   10.70
  -4   5   6  156.58   14.10
  -4   5   6  140.19   10.30
   3  -5  -6   48.50    6.90
  -3   5   6   44.90    7.10
   2  -5  -6  218.38   12.00
  -2   5   6  192.38   12.80
   1  -5  -6    7.10    3.20
   1  -5  -6    1.50    5.80
  -1   5   6    4.40    4.00
  -1   5   6    8.90    3.20
   0  -5  -6    5.50    4.60
   0  -5  -6    4.30    2.80
   0   5   6   -1.90    2.70
   0   5   6   -1.00    3.50
  -1  -5  -6    3.90    4.40
  -1  -5  -6    1.40    2.40
   1   5   6    1.00    2.80
   1   5   6    1.70    3.10
  -2  -5  -6  429.26   18.20
  -2  -5  -6  348.17   17.80
   2   5   6  383.16   17.70
   2   5   6  390.86   17.80
  -3  -5  -6  259.67   14.00
  -3  -5  -6  299.27   14.20
   3   5   6  285.67   13.70
   3   5   6  298.17   14.00
  -4  -5  -6  556.64   22.90
  -4  -5  -6  472.95   22.90
   4   5   6  466.75   22.10
   4   5   6  507.85   22.40
  -5  -5  -6   -6.10    3.00
   5   5   6    1.20    3.70
   5   5   6    0.40    3.00
  -6  -5  -6  105.39    8.20
   6   5   6  104.69    8.10
  -7  -5  -6  146.39    9.80
   7   5   6  145.39   11.10
  -8  -5  -6    0.00    4.20
   8   5   6    6.40    4.70
  -9  -5  -6   32.50    5.90
   9   5   6   41.10    6.60
  10   5   6    2.60    6.40
  11   5   6   14.70    6.10
  11   5   6    5.30    7.80
  11   5   6   30.10   11.20
   5  -6  -6    7.80    6.50
  -5   6   6  -10.00    9.70
  -5   6   6   -0.80    5.70
   4  -6  -6   36.20    6.80
  -4   6   6   46.60    6.50
  -4   6   6   33.40    8.80
   3  -6  -6  285.87   15.70
  -3   6   6  280.27   15.00
  -3   6   6  284.37   18.00
   2  -6  -6   51.29    7.40
  -2   6   6   57.79    7.80
   1  -6  -6    4.00    3.70
  -1   6   6    8.80    4.70
   0  -6  -6  200.88   18.90
   0  -6  -6  209.28   13.80
   0   6   6  226.28   11.90
   0   6   6  222.08   12.80
  -1  -6  -6  147.99   11.30
  -1  -6  -6  166.58    9.70
   1   6   6  153.18   10.40
   1   6   6  167.58    9.80
  -2  -6  -6  459.25   23.60
  -2  -6  -6  548.45   23.70
   2   6   6  563.14   23.60
  -3  -6  -6  177.48   10.20
   3   6   6  172.58   10.10
  -4  -6  -6  173.28   10.30
   4   6   6  166.58   10.00
  -5  -6  -6   17.50    4.10
   5   6   6   30.40    4.80
  -6  -6  -6   -0.10    3.80
  -7  -6  -6   46.20    5.90
   7   6   6   41.50    5.80
  -8  -6  -6    6.40    4.50
   8   6   6    2.60    4.90
  -9  -6  -6   13.40    5.50
   9   6   6   14.30    5.70
  10   6   6   49.30    7.90
  10   6   6   45.10   14.20
 -11  -6  -6   -2.70    6.50
  11   6   6    0.50   10.50
  11   6   6   13.90    7.90
   4  -7  -6    1.70    6.70
  -4   7   6    1.60    9.70
  -4   7   6   -7.00    6.10
   3  -7  -6   20.10    6.00
  -3   7   6    9.90    5.10
  -3   7   6    0.70    8.10
   2  -7  -6   57.89    7.40
  -2   7   6   70.19    9.40
  -2   7   6   66.99    8.60
   1  -7  -6   33.70    5.30
  -1   7   6   37.40    6.90
   0  -7  -6  294.97   16.00
   0   7   6  305.87   19.90
   0   7   6  311.47   16.10
   1   7   6   58.09    8.00
   1   7   6   43.30    6.10
  -2  -7  -6   -5.90    6.20
   2   7   6    3.70    4.60
   2   7   6   -0.30    3.70
  -3  -7  -6  200.38   11.70
  -3  -7  -6  153.98   12.40
   3   7   6  168.28   11.50
   3   7   6  189.58   10.90
  -4  -7  -6  274.87   14.20
   4   7   6  254.77   14.80
   4   7   6  280.87   14.10
  -5  -7  -6   60.99    7.50
   5   7   6   68.59    9.30
   5   7   6   63.79    9.00
  -6  -7  -6  270.57   14.20
   6   7   6  232.78   15.00
  -7  -7  -6    6.70    4.70
   8   7   6   -3.60    6.20
  -9  -7  -6   56.59    7.50
   9   7   6   49.30    8.50
   9   7   6   81.19   10.70
  10   7   6   -3.20    9.00
  10   7   6    2.90    6.40
 -11  -7  -6   36.80    7.90
  11   7   6   31.30   10.80
  11   7   6   45.20    9.00
   2  -8  -6    8.50    6.10
  -2   8   6   10.10    5.50
  -2   8   6    4.20    9.00
   1  -8  -6   15.40    5.80
  -1   8   6    9.30    5.20
  -1   8   6   10.90    7.20
   0  -8  -6   10.70    5.20
   0   8   6   -0.50    6.10
  -1  -8  -6   60.39    7.30
   1   8   6   55.99    7.60
   2   8   6    2.30    5.50
   2   8   6    5.70    8.00
   3   8   6  267.37   15.10
   3   8   6  226.98   14.80
   4   8   6  159.88   12.70
   4   8   6  211.68   14.90
   5   8   6   91.69   10.90
  -6  -8  -6  119.39   11.30
   6   8   6  127.59   11.90
  -7  -8  -6   -2.80    6.50
   7   8   6    5.50    4.80
   7   8   6   14.60    6.50
   8   8   6   21.40    5.50
   8   8   6   15.50    6.90
   9   8   6   16.70    8.40
   9   8   6   21.00    6.70
 -10  -8  -6  126.89   13.80
  10   8   6  134.29   14.20
  10   8   6  149.29   17.80
 -11  -8  -6  106.59   13.50
  11   8   6   64.79   10.00
  11   8   6   65.69   11.50
   1  -9  -6    7.30    7.20
  -1   9   6   17.10    9.00
  -1   9   6   14.40    6.40
   0  -9  -6   -2.60    5.70
   0   9   6   -6.30    7.40
   0   9   6   -3.30    5.50
  -1  -9  -6    1.10    6.20
   1   9   6    5.60    6.80
   1   9   6    4.90    5.00
  -2  -9  -6   99.69   10.20
   2   9   6  119.09   10.20
   2   9   6   89.59   12.50
  -3  -9  -6    4.10    5.20
   3   9   6    2.10    5.20
   3   9   6   12.90    6.80
  -4  -9  -6   -3.30    5.10
   4   9   6  -12.70    6.00
   4   9   6    2.50    4.80
  -5  -9  -6  204.08   12.90
   5   9   6  179.38   12.30
  -6  -9  -6  622.94   28.30
   6   9   6  587.04   27.90
  -7  -9  -6    1.90    5.90
   7   9   6   -3.80    7.50
   7   9   6    7.50    5.00
  -8  -9  -6   13.80    6.10
   8   9   6    4.60    5.70
   8   9   6    1.10    8.10
  -9  -9  -6   13.30    6.90
   9   9   6   29.60    8.90
   9   9   6   30.90    7.10
 -10  -9  -6   43.30    8.60
  10   9   6   38.00    8.30
  10   9   6   44.00   11.00
 -11  -9  -6   52.79    9.80
  11   9   6   34.10   11.70
  -1 -10  -6   -2.50    7.20
   1  10   6   -4.60    6.30
   1  10   6   -1.60    8.60
  -2 -10  -6   -5.20    6.50
   2  10   6    2.80    5.80
   2  10   6    1.60    8.00
  -3 -10  -6    7.60    6.10
   3  10   6   -0.60    5.60
   3  10   6    5.40    7.70
  -4 -10  -6   10.10    6.50
   4  10   6    6.70    5.60
   4  10   6    8.50    7.60
  -5 -10  -6   49.80    7.70
   5  10   6   56.99    7.10
   5  10   6   50.59    9.00
  -6 -10  -6    7.50    6.30
   6  10   6    8.60    5.70
   6  10   6    9.40    7.90
  -7 -10  -6   10.40    6.70
   7  10   6   12.60    6.10
   7  10   6   25.60    8.40
  -8 -10  -6    1.00    7.10
   8  10   6  -12.40    8.90
   8  10   6    3.00    6.60
  -9 -10  -6   10.50    7.50
   9  10   6   -0.10    9.80
   9  10   6    2.90    6.80
 -10 -10  -6    5.40    8.70
  10  10   6    8.00   10.80
  10  10   6   -5.90    7.80
  -3 -11  -6    6.10    7.30
   3  11   6   30.30   10.00
   3  11   6   15.80    7.20
  -4 -11  -6   33.60    7.60
   4  11   6   15.40    9.40
   4  11   6   33.90    7.60
  -5 -11  -6   -9.10    7.00
   5  11   6   -5.30    6.50
   5  11   6   -3.70    9.20
  -6 -11  -6   10.10    7.00
   6  11   6   -2.30    9.40
   6  11   6   -3.90    6.10
  -7 -11  -6    8.60    7.70
   7  11   6   -9.30    9.90
   7  11   6   -1.00    6.50
  -8 -11  -6   35.60    8.80
   8  11   6   17.70   10.70
   8  11   6   23.30    7.80
  -9 -11  -6    9.30    9.20
   9  11   6    6.70   11.60
   9  11   6    8.50    7.80
   4   9  -7   13.90   10.80
   3   9  -7   -0.20   10.70
  -3  -9   7   -0.80    5.00
   7   8  -7   17.20    9.90
   6   8  -7   22.30    8.60
  -6  -8   7   31.60    4.40
   5   8  -7    1.80    7.60
  -5  -8   7    2.70    3.20
   4   8  -7   94.79   15.30
  -4  -8   7  104.99    7.90
   3   8  -7    5.20    8.60
   2   8  -7   37.00   10.20
  -2  -8   7   40.20    5.20
   1   8  -7   33.40    9.40
  -1  -8   7   23.90    4.90
   0  -8   7   25.60    5.50
   8   7  -7   -6.00    8.70
  -8  -7   7    8.90    5.00
   7   7  -7   -3.70    7.50
  -7  -7   7    4.60    4.10
   6   7  -7    9.20    7.30
  -6  -7   7   15.20    3.80
  -5  -7   7   -1.80    2.80
   4   7  -7   -3.30    6.20
  -4  -7   7    4.60    2.70
  -4  -7   7   -1.20    2.70
   3   7  -7  168.88   14.80
  -3  -7   7  144.79    8.80
   2   7  -7    1.50    6.70
  -2  -7   7    1.10    3.10
   1   7  -7    1.20    7.00
  -1  -7   7    3.10    3.30
   0  -7   7    4.90    3.50
   1  -7   7   95.09    8.60
   2  -7   7   65.59    8.60
   8   6  -7   45.50   10.10
  -8  -6   7   43.20    5.80
   7   6  -7   11.90    7.60
  -7  -6   7   15.50    4.00
  -6  -6   7  134.09    8.70
   5   6  -7   71.49   12.70
  -5  -6   7   50.39    5.60
   4   6  -7  196.58   13.90
  -4  -6   7  203.58   14.60
  -4  -6   7  196.68    9.70
  -4  -6   7  202.98   10.10
   3   6  -7    3.20    5.20
   3   6  -7    4.80    3.70
  -3  -6   7    4.90    4.60
  -3  -6   7    7.30    2.30
  -3  -6   7   11.80    2.80
  -2  -6   7   15.60    3.10
  -1  -6   7   49.80    5.50
   0  -6   7  401.66   19.00
   1  -6   7   23.70    4.00
   2  -6   7   98.39    8.50
   3  -6   7   10.50    4.50
   4  -6   7   52.89    8.40
   9   5  -7   33.70   10.50
  -9  -5   7   22.90    5.60
   8   5  -7    3.40    8.40
  -8  -5   7    3.70    4.20
   7   5  -7    3.80    7.00
  -7  -5   7    2.10    3.70
   6   5  -7    1.90    6.30
  -6  -5   7   10.60    3.30
   5   5  -7    8.90    5.30
  -5  -5   7   11.10    3.60
   4   5  -7  244.08   14.60
  -4  -5   7  250.07   16.70
  -4  -5   7  243.38   12.40
  -4  -5   7  247.18   11.90
  -4  -5   7  243.58   11.30
   3   5  -7    6.50    3.50
  -3  -5   7    4.20    3.50
  -3  -5   7   11.70    5.90
  -3  -5   7    4.40    2.20
  -3  -5   7    3.30    2.20
   2   5  -7    1.50    3.00
  -2  -5   7    1.50    1.90
  -2  -5   7    0.50    4.00
  -2  -5   7    0.50    2.20
  -1  -5   7   29.40    3.60
   2  -5   7    2.50    3.10
   3  -5   7   36.10    5.00
   4  -5   7   12.20    4.20
   5  -5   7    5.30    5.20
   9   4  -7   -9.30   10.40
  -9  -4   7    5.00    4.90
   8   4  -7   14.10    8.50
  -8  -4   7    3.80    4.10
   7   4  -7   20.80    8.60
  -7  -4   7   22.60    4.70
   6   4  -7   -1.00    6.60
  -6  -4   7    4.60    3.00
   5   4  -7   33.70    6.20
   4   4  -7  750.82   32.80
  -4  -4   7  724.53   30.60
  -4  -4   7  760.52   31.20
  -4  -4   7  715.53   31.10
   3   4  -7   94.19    8.30
  -3  -4   7  117.59    6.70
  -3  -4   7  113.99    7.40
  -3  -4   7  111.69    6.50
   2   4  -7    8.90    3.10
  -2  -4   7   11.50    2.60
  -2  -4   7   10.70    2.20
  -2  -4   7   16.10    3.50
   1   4  -7   45.00    5.30
  -1  -4   7   31.70    4.80
  -1  -4   7   37.80    3.80
  -1  -4   7   38.60    4.40
   0  -4   7  231.78   11.70
   1  -4   7  307.97   15.80
   3  -4   7   29.90    4.60
   4  -4   7    2.00    3.50
   5  -4   7   21.70    4.60
   6  -4   7   10.50    5.00
   9   3  -7    7.80   10.90
  -9  -3   7   -0.90    4.90
   8   3  -7   24.80    8.80
   7   3  -7   45.70   11.50
  -7  -3   7   78.09    7.80
   6   3  -7   58.69    8.00
  -6  -3   7   78.89    6.90
   5   3  -7   19.00    5.50
  -5  -3   7   16.50    3.30
   4   3  -7  170.48   12.50
   4   3  -7  195.28   12.10
  -4  -3   7  185.38    9.80
  -4  -3   7  202.98    9.90
   3   3  -7  366.56   18.70
  -3  -3   7  428.86   18.40
  -3  -3   7  429.36   18.10
   2   3  -7  141.19    8.30
  -2  -3   7  144.99    7.40
  -2  -3   7  128.99    8.10
   1   3  -7   25.80    3.50
  -1  -3   7   27.60    4.10
  -1  -3   7   29.90    4.00
  -1  -3   7   31.50    3.80
   0   3  -7    6.80    2.70
   0  -3   7    2.60    1.80
   0  -3   7    5.30    2.40
   0  -3   7    0.20    3.70
   1  -3   7    3.80    2.50
   2  -3   7  251.37   13.00
   4  -3   7   20.90    4.30
   5  -3   7    4.80    3.60
   6  -3   7    4.20    4.50
   7  -3   7   -3.70    5.30
   8   2  -7   -1.10    8.90
  -8  -2   7   10.70    4.80
   7   2  -7    2.40    7.30
  -7  -2   7    0.80    3.70
   6   2  -7  137.69   13.00
  -6  -2   7  154.38    9.40
   5   2  -7   -2.30    4.70
   5   2  -7    8.00   11.00
   4   2  -7  483.45   21.10
  -4  -2   7  485.75   21.20
  -4  -2   7  515.75   21.80
   3   2  -7  440.36   18.90
   3   2  -7  441.76   21.40
  -3  -2   7  426.66   19.00
  -3  -2   7  425.96   19.10
   2   2  -7  327.47   14.20
   2   2  -7  294.77   14.60
  -2  -2   7  312.57   14.50
  -2  -2   7  305.97   14.10
   1   2  -7  116.29    7.30
   1   2  -7  132.09    7.00
  -1  -2   7  113.19    7.40
  -1  -2   7  124.99    6.70
   0   2  -7   -1.10    2.40
   0   2  -7    1.60    2.10
   0  -2   7    1.70    1.80
   0  -2   7   -0.80    3.20
  -1   2  -7  118.59    7.10
  -1   2  -7  112.29    6.80
   1  -2   7  112.59    6.30
   1  -2   7  116.19    8.60
  -2   2  -7  211.08   10.50
   2  -2   7  223.88   10.30
   2  -2   7  231.38   11.60
   3  -2   7   16.90    3.80
   6  -2   7    1.40    4.20
   7  -2   7   -2.70    4.30
   8  -2   7    5.10    5.60
   8   1  -7   11.60    9.80
  -8  -1   7   20.30    5.00
   7   1  -7   -3.50    7.30
  -7  -1   7    4.20    3.80
  -6  -1   7  586.64   26.10
   5   1  -7   14.50    5.60
  -5  -1   7   17.20    3.30
   4   1  -7   54.09    5.20
   4   1  -7   66.99    8.40
   4   1  -7   59.09    8.90
  -4  -1   7   55.59    5.50
  -4  -1   7   61.59    5.20
   3   1  -7    4.90    2.50
  -3  -1   7    8.00    2.70
  -3  -1   7    8.80    2.40
   2   1  -7   14.20    2.80
   2   1  -7   12.00    3.30
  -2  -1   7   13.50    2.80
  -2  -1   7   14.00    2.60
   1   1  -7  222.98   10.80
   1   1  -7  204.28   11.00
  -1  -1   7  226.88   10.60
  -1  -1   7  226.48   11.10
   0   1  -7   78.19    5.30
   0   1  -7   71.29    5.90
   0  -1   7   66.49    6.10
   0  -1   7   71.89    5.00
  -1   1  -7    5.40    2.70
  -1   1  -7    7.20    2.40
   1  -1   7    4.70    3.10
   1  -1   7    8.30    2.20
  -2   1  -7  152.28    8.50
  -2   1  -7  171.18    9.10
   2  -1   7  173.28    8.50
   2  -1   7  175.58   14.30
  -3   1  -7    9.60    2.90
  -3   1  -7    8.90    2.90
   3  -1   7   13.00    2.50
  -4   1  -7   60.09    5.60
   4  -1   7   58.79    5.40
   5  -1   7    4.10    2.90
   5  -1   7   -1.30    2.40
   6  -1   7   54.19    6.60
   6  -1   7   48.80    6.40
   6  -1   7   57.19    6.70
   7  -1   7    2.90    4.30
   7  -1   7   -4.50    4.20
   8  -1   7    7.10    5.10
   8   0  -7   -8.60   10.40
  -8   0   7   11.80    5.10
   7   0  -7   13.90    8.90
  -7   0   7   31.30    5.40
   6   0  -7   14.60    3.90
   5   0  -7  225.78   11.60
   5   0  -7  237.28   15.20
  -5   0   7  225.88   11.10
   4   0  -7   13.10    3.10
   4   0  -7   11.60    5.40
   4   0  -7   11.60    4.90
  -4   0   7    9.40    2.80
   3   0  -7  240.28   11.80
  -3   0   7  245.28   11.80
  -3   0   7  251.57   12.00
   2   0  -7    2.00    3.30
   2   0  -7   -2.90    2.40
  -2   0   7    4.10    2.10
  -2   0   7    3.30    2.50
   1   0  -7  269.87   12.60
   1   0  -7  233.88   12.70
  -1   0   7  282.87   12.30
  -1   0   7  249.28   12.40
   0   0  -7   31.80    4.50
   0   0  -7   35.00    3.90
   0   0   7   30.20    3.60
   0   0   7   34.40    3.70
  -1   0  -7   28.70    3.40
  -1   0  -7   25.30    3.50
   1   0   7   31.40    4.00
   1   0   7   28.70    4.10
  -2   0  -7  164.88    8.80
  -2   0  -7  151.98    8.60
   2   0   7  153.48    9.50
   2   0   7  171.28    8.50
  -3   0  -7   -2.70    2.50
  -3   0  -7    0.40    2.60
   3   0   7    2.20    2.50
  -4   0  -7   -1.60    2.80
  -4   0  -7   -0.40    2.60
   4   0   7   -0.70    2.40
   5   0   7  541.75   23.60
   6   0   7   10.30    3.10
   6   0   7    9.50    3.80
   6   0   7   20.40    4.30
   7   0   7   66.39    7.90
   7   0   7   91.19    8.50
   7   0   7   58.79    8.10
   8   0   7    5.40    5.00
   8   0   7    2.70    4.80
   9   0   7    8.60    6.00
   7  -1  -7   12.00    9.60
  -7   1   7    7.40    5.00
   6  -1  -7   16.20    8.40
   6  -1  -7    5.80    4.10
  -6   1   7    2.30    3.70
   5  -1  -7  694.83   30.80
   5  -1  -7  661.33   28.10
  -5   1   7  589.74   27.50
   4  -1  -7   95.19    6.90
   4  -1  -7  104.39   10.30
   4  -1  -7   66.89    8.00
  -4   1   7   83.89    6.30
   3  -1  -7   44.00    5.80
   3  -1  -7   40.30    5.50
   3  -1  -7   38.20    5.00
  -3   1   7   37.10    4.90
  -3   1   7   37.00    4.90
   2  -1  -7  352.56   16.40
  -2   1   7  346.87   16.10
  -2   1   7  371.06   16.60
   1  -1  -7  117.39    7.30
   1  -1  -7  114.79    8.10
  -1   1   7  125.49    7.10
  -1   1   7  115.69    7.10
   0  -1  -7  166.68   10.10
   0  -1  -7  191.68   10.00
   0   1   7  190.58    9.80
   0   1   7  195.08    9.70
  -1  -1  -7   43.90    5.30
  -1  -1  -7   46.40    5.30
   1   1   7   45.30    5.10
   1   1   7   52.79    5.00
  -2  -1  -7    9.20    2.80
  -2  -1  -7   10.90    3.00
   2   1   7   -0.20    2.80
   2   1   7    9.20    2.60
  -3  -1  -7   22.90    3.40
  -3  -1  -7   30.00    4.00
   3   1   7   22.60    4.30
   3   1   7   33.30    4.70
  -4  -1  -7   29.70    3.80
  -4  -1  -7   32.90    4.00
   4   1   7   26.10    3.70
  -5  -1  -7   -1.10    2.80
  -5  -1  -7    2.60    3.10
   5   1   7    0.20    3.20
  -6  -1  -7    8.00    4.20
   6   1   7    5.90    3.80
   6   1   7    7.40    2.80
   7   1   7   77.79    8.10
   7   1   7   82.99    8.00
   8   1   7    6.60    4.50
   8   1   7    3.70    5.00
   9   1   7    2.60    5.50
   9   1   7   -1.50    5.80
   7  -2  -7   31.30   11.70
  -7   2   7   22.40    5.90
   6  -2  -7   14.90    8.70
   6  -2  -7   16.50    4.80
  -6   2   7   30.30    5.00
   5  -2  -7  162.38    9.90
  -5   2   7  154.18   10.30
   4  -2  -7   14.90    3.90
  -4   2   7   13.00    3.70
   3  -2  -7   43.60    5.60
   3  -2  -7   34.00    6.20
  -3   2   7   42.60    5.50
   2  -2  -7  327.47   15.20
  -2   2   7  308.97   14.70
  -2   2   7  316.67   15.00
   1  -2  -7   74.89    6.00
  -1   2   7   70.59    5.80
  -1   2   7   74.99    5.80
   0  -2  -7   95.79    6.50
   0   2   7   86.69    6.40
   0   2   7   85.29    6.30
  -1  -2  -7  489.45   21.10
  -1  -2  -7  458.45   20.90
   1   2   7  462.35   20.90
   1   2   7  469.95   20.70
  -2  -2  -7   54.19    5.60
  -2  -2  -7   45.40    6.00
   2   2   7   52.29    5.20
   2   2   7   48.00    5.60
  -3  -2  -7   86.59    6.70
  -3  -2  -7   79.79    6.80
   3   2   7   78.29    6.30
   3   2   7   78.39    6.70
  -4  -2  -7   43.80    6.20
  -4  -2  -7   51.19    5.90
   4   2   7   56.69    5.70
  -5  -2  -7  186.48   10.40
  -5  -2  -7  162.08   10.20
   5   2   7  188.08   10.30
  -6  -2  -7   40.50    6.30
   6   2   7   28.60    4.40
   7   2   7  156.88   10.30
   8   2   7    0.90    8.00
   9   2   7   28.90    6.30
   9   2   7   25.00    6.20
  10   2   7    1.20    6.10
  10   2   7   10.90    7.00
   6  -3  -7   22.90    5.70
  -6   3   7   21.70    5.30
   5  -3  -7   36.90    9.70
  -5   3   7   48.50    5.80
  -5   3   7   43.80    8.60
   4  -3  -7   89.09    7.80
  -4   3   7   85.39    8.20
   3  -3  -7  366.46   17.80
  -3   3   7  390.36   19.70
   2  -3  -7  803.22   35.10
   2  -3  -7  772.42   35.50
  -2   3   7  847.02   36.40
  -2   3   7  863.41   35.80
   1  -3  -7  153.88    8.70
  -1   3   7  130.89    8.40
  -1   3   7  142.69    8.60
   0  -3  -7  102.59    7.10
   0   3   7   84.19    6.60
   0   3   7   84.39    6.70
  -1  -3  -7  476.75   20.50
  -1  -3  -7  395.86   20.10
   1   3   7  448.76   20.10
   1   3   7  471.75   20.10
  -2  -3  -7  100.29    8.00
  -2  -3  -7  114.69    7.30
   2   3   7  111.79    7.40
   2   3   7  104.99    7.40
  -3  -3  -7   25.50    3.90
  -3  -3  -7   23.40    3.70
   3   3   7   29.40    3.90
   3   3   7   16.30    3.50
  -4  -3  -7  239.38   13.10
  -4  -3  -7  277.57   13.60
   4   3   7  270.87   13.10
  -5  -3  -7   37.60    8.10
  -5  -3  -7   47.80    6.30
   5   3   7   51.59    6.50
  -6  -3  -7   -1.70    3.60
   6   3   7   -1.40    3.40
  -7  -3  -7   64.19    7.70
   7   3   7   61.09    7.90
  -8  -3  -7    4.60    6.20
   8   3   7    8.00    5.00
   9   3   7    4.10    6.00
  10   3   7    1.40    7.10
  10   3   7   16.00    6.10
   6  -4  -7   22.80    6.30
  -6   4   7   22.20   10.60
  -6   4   7   11.60    5.80
   5  -4  -7   16.30    5.50
  -5   4   7   21.90    5.60
  -5   4   7    3.60    8.80
   4  -4  -7   26.60    5.50
  -4   4   7   37.00    5.70
  -4   4   7   45.90    8.20
  -3   4   7   46.40    7.30
  -3   4   7   57.99    6.60
   2  -4  -7    8.70    6.90
   2  -4  -7   12.20    3.60
  -2   4   7   21.30    5.20
   1  -4  -7    6.80    3.50
   1  -4  -7    0.20    4.90
  -1   4   7    3.80    4.20
  -1   4   7    7.90    3.20
   0  -4  -7  133.69    8.30
   0   4   7  120.19    8.30
  -1  -4  -7  310.87   15.10
   1   4   7  300.27   14.70
  -2  -4  -7   16.20    3.80
   2   4   7   14.90    3.50
  -3  -4  -7    5.30    3.20
   3   4   7    7.60    3.20
  -4  -4  -7   25.90    4.10
   4   4   7   30.90    4.30
  -5  -4  -7   -0.60    3.60
   5   4   7   -4.80    3.40
  -6  -4  -7   11.90    3.90
   6   4   7    6.80    3.90
  -7  -4  -7  -11.00    4.50
   8   4   7   10.70    5.10
  -9  -4  -7   13.30    5.30
   9   4   7   17.10    6.20
  10   4   7   16.70    7.50
   5  -5  -7    9.00    6.40
  -5   5   7    4.60    9.80
  -5   5   7   10.70    5.50
   4  -5  -7   14.60    5.50
  -4   5   7   19.60    8.30
  -4   5   7    8.40    5.20
   3  -5  -7  123.89   10.00
  -3   5   7  121.39   12.80
  -3   5   7  119.89    9.80
   2  -5  -7  113.09    8.80
  -2   5   7   98.99   10.90
   1  -5  -7    5.00    6.90
  -1   5   7    2.10    4.60
  -1   5   7    6.90    4.80
   0  -5  -7  180.18   10.50
   0  -5  -7  159.58   12.10
   0   5   7  180.78   11.70
  -1  -5  -7  700.23   30.90
   1   5   7  708.93   30.60
  -2  -5  -7  199.78   11.40
   2   5   7  206.48   11.20
  -3  -5  -7   56.49    6.50
   3   5   7   63.59    6.50
  -4  -5  -7   81.39    7.30
   4   5   7   75.29    7.20
  -5  -5  -7   25.50    4.80
   5   5   7   25.00    4.30
  -6  -5  -7  253.37   14.20
  -7  -5  -7  397.16   20.50
   7   5   7  396.66   19.50
   8   5   7    2.90    5.00
   9   5   7   21.80    6.60
 -10  -5  -7   -0.70    5.50
  10   5   7   -0.70    7.60
  11   5   7   10.30    9.10
   4  -6  -7   59.59    8.10
  -4   6   7   58.49    7.60
  -4   6   7   37.60   10.10
   3  -6  -7    6.20    5.40
  -3   6   7    5.70    7.20
  -3   6   7    8.80    5.00
   2  -6  -7    9.40    5.00
  -2   6   7   15.00    4.50
  -2   6   7   18.80    6.50
   1  -6  -7   34.80    5.90
  -1   6   7   19.40    7.00
  -1   6   7   28.60    6.50
   0  -6  -7    3.10    3.90
   0   6   7    1.70    4.90
  -1  -6  -7  189.38   11.10
   1   6   7  179.48   11.80
   1   6   7  163.08   10.90
   3   6   7   21.70    4.90
  -4  -6  -7    0.20    4.00
  -5  -6  -7  122.99   10.60
  -6  -6  -7   97.19   13.30
   6   6   7   73.19    9.20
  -7  -6  -7  125.89   13.00
   7   6   7  108.59   10.40
   8   6   7   41.40    6.20
  -9  -6  -7    5.80    5.80
   9   6   7   -0.10    6.50
 -10  -6  -7   49.50    7.50
  10   6   7   53.89    8.40
 -11  -6  -7    2.20    7.40
  11   6   7  -11.20    9.10
   3  -7  -7    1.80    6.80
  -3   7   7   -2.90    8.90
  -3   7   7   11.00    5.90
   2  -7  -7    1.30    5.60
  -2   7   7   -3.80    7.30
  -2   7   7    2.60    4.90
   1  -7  -7    3.60    5.30
  -1   7   7    7.20    4.50
  -1   7   7    9.90    6.60
   0  -7  -7  291.27   15.60
   0   7   7  251.97   19.50
   0   7   7  288.57   15.30
  -1  -7  -7   32.00    5.60
   1   7   7   27.30    5.80
  -2  -7  -7  264.17   17.30
   2   7   7  295.87   15.50
   3   7   7   50.19    6.30
  -8  -7  -7   14.90    7.90
   8   7   7   12.10    5.70
  -9  -7  -7    2.50    6.10
   9   7   7   11.30    6.20
 -10  -7  -7    0.70    6.70
  10   7   7   -1.60    7.30
 -11  -7  -7   21.40    8.50
  11   7   7   -6.40    9.00
   2  -8  -7   11.50    7.40
  -2   8   7    2.80    6.10
  -2   8   7   -8.30    9.10
   1  -8  -7    0.90    6.40
  -1   8   7    1.80    5.70
  -1   8   7    1.20    8.40
   0  -8  -7  116.09   11.20
   0   8   7  116.19   11.10
   0   8   7  104.49   13.00
  -1  -8  -7    1.40    5.10
   1   8   7    5.90    6.10
   1   8   7   -2.00    4.80
  -2  -8  -7   -1.00    5.70
   2   8   7   -7.90    7.60
   2   8   7   -4.90    4.60
  -3  -8  -7   11.30    5.20
   3   8   7    2.10    6.00
   3   8   7    0.60    4.90
  -4  -8  -7  116.69    9.80
   4   8   7   73.49    9.80
   4   8   7  105.99   11.20
  -5  -8  -7   -2.70    5.10
   5   8   7   -1.80    4.40
  -6  -8  -7  135.89   11.30
   6   8   7  116.29   10.90
  -7  -8  -7   15.80    5.90
   7   8   7   17.50    5.70
  -8  -8  -7   10.40    6.20
   8   8   7    7.70    6.20
  -9  -8  -7    1.20    6.60
   9   8   7   12.40    6.60
 -10  -8  -7   21.20    7.60
  10   8   7    9.60    7.80
   0  -9  -7   10.60    7.40
   0   9   7  -13.70    8.20
   0   9   7    0.40    6.10
  -1  -9  -7   18.20    6.70
   1   9   7   16.10    7.70
   1   9   7   10.40    6.20
  -2  -9  -7   -2.70    5.60
   2   9   7   -4.40    7.00
   2   9   7    3.40    5.40
  -3  -9  -7  131.09   11.40
   3   9   7   95.89   13.40
   3   9   7  100.99   11.10
  -4  -9  -7   23.90    6.20
   4   9   7   24.50    5.90
   4   9   7   23.80    7.30
  -5  -9  -7    7.90    6.10
   5   9   7    1.50    5.40
  -6  -9  -7   71.79    8.60
   6   9   7   48.80   14.00
   6   9   7   81.69   10.70
  -7  -9  -7    2.40    6.60
   7   9   7    3.80    6.20
  -8  -9  -7    0.70    6.60
   8   9   7   10.60    6.60
   8   9   7   20.10    8.80
  -9  -9  -7  178.08   14.60
   9   9   7  136.29   17.70
   9   9   7  171.78   15.00
 -10  -9  -7   10.00    8.80
  10   9   7   19.40    8.50
  -2 -10  -7    1.70    7.00
   2  10   7    0.70    8.70
   2  10   7   -5.70    6.50
  -3 -10  -7    1.90    6.70
   3  10   7    9.20    8.20
   3  10   7   -1.30    6.10
  -4 -10  -7  107.79   12.10
   4  10   7   90.89   12.50
   4  10   7   95.69   14.60
  -5 -10  -7    5.60    6.60
   5  10   7   -5.20    6.20
   5  10   7   -0.20    8.10
  -6 -10  -7   11.90    7.00
   6  10   7    1.20    8.20
   6  10   7    4.90    6.20
  -7 -10  -7   10.70    7.60
   7  10   7    7.10    6.80
   7  10   7    8.50    9.00
  -8 -10  -7    8.90    8.20
   8  10   7  -13.80    8.70
   8  10   7    3.40    7.50
  -9 -10  -7    4.50    8.50
   9  10   7   -5.30   10.20
   9  10   7   13.40    8.50
  -4 -11  -7   39.40    8.70
   4  11   7   25.50    8.10
   4  11   7   35.00   10.60
  -5 -11  -7   26.40    8.30
   5  11   7   13.20   10.50
   5  11   7    7.90    7.80
  -6 -11  -7    8.10    7.80
   6  11   7   -3.90    9.70
   6  11   7   12.60    8.00
  -7 -11  -7   10.00    8.50
   7  11   7   23.60   10.70
   7  11   7   10.90    7.60
  -3  -8   8   10.60    4.80
  -2  -8   8    4.40    4.80
   6   7  -8   22.80    9.70
  -6  -7   8   28.20    4.60
   5   7  -8    9.30    8.00
  -5  -7   8    3.90    3.50
  -4  -7   8   -0.90    3.30
  -4  -7   8    0.40    3.20
  -3  -7   8   14.40    3.70
  -2  -7   8    4.80    3.70
  -1  -7   8  142.09    9.60
   0  -7   8   15.10    4.50
   1  -7   8    1.70    4.60
   7   6  -8   28.80    9.20
  -7  -6   8   28.10    5.10
   6   6  -8   48.50    8.80
  -6  -6   8   46.00    5.50
   5   6  -8    6.90    7.90
  -5  -6   8    5.30    3.30
   4   6  -8    1.10    6.60
  -4  -6   8   -1.60    2.80
  -4  -6   8   -0.20    2.70
  -3  -6   8    1.90    3.00
  -3  -6   8    1.80    2.70
  -2  -6   8   -1.40    3.00
  -1  -6   8   17.20    3.80
   0  -6   8    7.50    3.40
   1  -6   8   13.90    4.30
   2  -6   8    9.60    4.40
   8   5  -8   12.10   10.20
  -8  -5   8   12.50    5.60
   7   5  -8   32.30    9.10
  -7  -5   8   28.50    4.90
  -6  -5   8   10.80    3.90
   5   5  -8   70.39   11.50
  -5  -5   8   45.50    6.50
  -4  -5   8    5.00    2.60
  -4  -5   8    9.20    3.20
  -3  -5   8   17.30    3.20
  -3  -5   8   15.70    5.10
  -3  -5   8   17.80    3.20
   2   5  -8   -7.50    5.10
  -2  -5   8   -2.40    2.20
  -2  -5   8   -1.40    2.60
  -1  -5   8   47.20    7.70
   1  -5   8    1.70    3.20
   2  -5   8   37.30    5.50
   3  -5   8   26.90    4.90
   4  -5   8    3.10    4.60
   8   4  -8   11.50   10.10
  -8  -4   8    6.30    4.90
   7   4  -8    0.20    7.80
  -7  -4   8    5.70    4.30
   6   4  -8   16.50    8.10
  -6  -4   8   24.60    4.30
   5   4  -8   98.69   12.50
  -5  -4   8  141.49    8.70
  -4  -4   8   17.70    3.10
  -4  -4   8   25.20    5.00
  -3  -4   8  269.87   12.40
  -3  -4   8  228.98   13.50
  -3  -4   8  262.97   12.40
   2   4  -8   17.40    4.10
  -2  -4   8   15.70    3.40
  -2  -4   8   18.50    2.90
   1   4  -8   87.99    7.70
  -1  -4   8   89.29    5.80
  -1  -4   8   82.59    6.60
   2  -4   8   50.79    6.60
   3  -4   8  105.79    8.70
   4  -4   8    2.30    4.00
   5  -4   8    2.30    5.00
   8   3  -8   13.50   10.60
  -8  -3   8   21.10    5.40
   7   3  -8    8.10    8.30
  -7  -3   8    1.00    4.20
   6   3  -8   44.70    8.10
  -6  -3   8   51.79    7.30
   5   3  -8   57.69    7.40
  -5  -3   8   50.79    6.40
  -4  -3   8   -0.60    2.70
  -4  -3   8   -2.60    3.50
  -3  -3   8   12.00    2.80
  -3  -3   8    8.60    3.80
   2   3  -8   94.49    8.60
  -2  -3   8  122.19    7.00
  -2  -3   8  102.59    8.30
   1   3  -8    8.80    3.30
  -1  -3   8    3.80    2.80
  -1  -3   8    4.50    2.40
   0   3  -8   46.10    6.50
   0  -3   8   61.89    5.00
   0  -3   8   56.69    5.80
  -1   3  -8   86.39    7.10
   1  -3   8   96.79    5.90
   3  -3   8   28.90    4.60
   4  -3   8   33.00    5.30
   5  -3   8   13.40    4.80
   6  -3   8   30.60    6.00
   8   2  -8    4.60   10.30
  -8  -2   8    7.00    5.40
   7   2  -8   19.80    8.60
  -7  -2   8   22.30    5.70
   6   2  -8   44.20    8.00
   5   2  -8   75.69   11.30
  -5  -2   8   74.79    7.20
   4   2  -8    8.90    3.00
  -4  -2   8    9.50    3.10
  -4  -2   8    9.60    3.60
   3   2  -8   13.60    2.90
  -3  -2   8   13.40    2.90
  -3  -2   8    7.50    3.70
   2   2  -8  118.29    7.30
  -2  -2   8   96.29    8.00
  -2  -2   8  120.59    7.20
   1   2  -8  194.18    9.70
   1   2  -8  163.08   10.30
  -1  -2   8  161.98   10.50
  -1  -2   8  195.08    9.40
   0   2  -8   12.10    2.90
   0   2  -8   12.60    3.40
   0  -2   8   17.70    2.80
  -1   2  -8   16.60    3.40
  -1   2  -8   16.10    3.10
   1  -2   8   15.20    2.60
  -2   2  -8   21.90    3.60
   2  -2   8   20.40    3.00
   2  -2   8   27.20    5.40
  -3   2  -8   12.60    3.60
   4  -2   8   25.40    4.70
   5  -2   8    8.30    4.40
   6  -2   8    1.80    4.50
   7  -2   8   -3.40    5.40
   7   1  -8    4.50    8.70
  -7  -1   8   -1.80    4.60
  -6  -1   8   37.50    5.10
   5   1  -8   -1.00    3.30
   5   1  -8    2.80    5.90
  -5  -1   8   10.90    3.80
   4   1  -8  330.77   16.00
  -4  -1   8  333.67   16.00
  -4  -1   8  374.96   16.50
   3   1  -8 1166.58   49.20
  -3  -1   8 1255.67   50.39
  -3  -1   8 1144.19   49.20
   2   1  -8   17.90    3.30
  -2  -1   8   15.80    3.80
  -2  -1   8   25.90    3.40
   1   1  -8   68.89    6.00
   1   1  -8   63.39    7.50
  -1  -1   8   72.49    7.00
  -1  -1   8   76.59    5.80
   0   1  -8    2.30    3.50
   0   1  -8    3.30    2.50
   0  -1   8    5.20    3.80
   0  -1   8    2.30    2.30
  -1   1  -8    0.50    3.00
  -1   1  -8    6.00    2.70
   1  -1   8    1.00    2.40
  -2   1  -8   41.10    4.70
  -2   1  -8   36.30    4.20
   2  -1   8   34.20    3.80
  -3   1  -8   77.29    6.90
  -3   1  -8  104.49    7.20
   3  -1   8   83.39    6.60
  -4   1  -8   33.80    4.20
   4  -1   8   24.70    3.90
   5  -1   8    4.20    3.50
   5  -1   8    1.80    2.80
   6  -1   8    7.10    3.70
   6  -1   8    1.40    4.60
   7  -1   8    8.40    5.30
   8  -1   8   11.50    6.10
   7   0  -8   33.50   10.60
  -7   0   8   42.30    5.90
   6   0  -8    4.60   15.90
   6   0  -8    4.70    4.30
  -6   0   8   -0.80    4.40
   5   0  -8   56.69    6.70
   5   0  -8   49.80    7.90
  -5   0   8   49.50    5.60
   4   0  -8   29.40    7.00
   4   0  -8   35.70    4.50
  -4   0   8   41.60    4.80
  -4   0   8   29.00    4.20
   3   0  -8  860.11   35.80
  -3   0   8  848.32   35.80
  -3   0   8  817.12   35.50
   2   0  -8  138.89    8.60
  -2   0   8  144.89    8.40
  -2   0   8  128.99    8.50
   1   0  -8  491.05   21.40
  -1   0   8  494.45   21.10
  -1   0   8  441.36   21.30
   0   0  -8   11.70    3.40
   0   0  -8   12.70    3.90
   0   0   8    9.10    3.70
   0   0   8   11.30    2.80
  -1   0  -8    8.60    3.70
  -1   0  -8   18.70    3.50
   1   0   8   15.60    3.20
  -2   0  -8  121.39    7.60
  -2   0  -8  104.69    7.70
   2   0   8   98.19    7.30
  -3   0  -8   38.00    4.80
  -3   0  -8   42.10    5.80
   3   0   8   40.40    4.40
  -4   0  -8    2.10    3.70
   4   0   8   -5.00    3.10
  -5   0  -8  335.07   16.30
   5   0   8  357.96   16.40
   6   0   8   -1.10    3.60
   6   0   8    1.80    3.80
   6   0   8    7.10    4.30
   7   0   8   -0.30    4.60
   7   0   8    4.90    5.20
   8   0   8  112.99   11.00
   8   0   8   80.69    9.10
   7  -1  -8   17.80   11.30
  -7   1   8   21.00    6.10
   6  -1  -8   12.50    5.20
   6  -1  -8   15.90    8.70
  -6   1   8   20.90    5.10
   5  -1  -8    4.70   10.50
   5  -1  -8    9.90    4.50
  -5   1   8    9.90    3.90
   4  -1  -8   15.70    6.20
   4  -1  -8    9.40    4.00
  -4   1   8   16.30    4.20
   3  -1  -8    0.30    3.40
  -3   1   8    4.10    2.90
  -3   1   8    1.20    3.60
   2  -1  -8  147.79    9.00
  -2   1   8  156.68   11.70
  -2   1   8  140.89    9.00
   1  -1  -8  166.88    9.40
  -1   1   8  163.98    9.00
  -1   1   8  143.39    9.30
   0  -1  -8  217.18   11.50
   0   1   8  207.18   11.60
   0   1   8  220.98   11.30
  -1  -1  -8    7.60    3.40
  -1  -1  -8   10.30    3.80
   1   1   8   10.90    3.00
  -2  -1  -8  183.18   11.40
  -2  -1  -8  218.58   11.40
   2   1   8  222.08   11.00
  -3  -1  -8  596.04   29.10
  -3  -1  -8  718.13   29.90
   3   1   8  725.73   29.30
  -4  -1  -8   -4.10    3.90
   4   1   8    0.10    3.00
  -5  -1  -8    2.20    4.00
   5   1   8   -2.10    3.30
  -6  -1  -8   -0.50    3.80
   6   1   8   -2.90    4.10
   7   1   8    1.00    4.90
   8   1   8  243.88   14.60
   8   1   8  208.88   18.00
   9   1   8  156.18   13.70
   9   1   8  172.18   14.40
   6  -2  -8   13.60    9.70
   6  -2  -8   17.70   12.20
  -6   2   8   10.10    5.00
   5  -2  -8   10.00    4.80
  -5   2   8   -0.70    4.20
   4  -2  -8   30.80    7.40
   4  -2  -8   32.50    5.20
  -4   2   8   30.50    4.90
   3  -2  -8   11.40    6.90
   3  -2  -8   22.70    4.40
   2  -2  -8    7.40    3.60
   1  -2  -8  249.48   12.70
  -1   2   8  235.88   12.20
   0  -2  -8   64.89    6.20
   0   2   8   59.89    6.10
  -1  -2  -8  221.18   12.10
   1   2   8  236.08   11.80
  -2  -2  -8   44.60    6.10
   2   2   8   48.70    5.90
  -3  -2  -8  233.18   12.00
  -3  -2  -8  181.68   16.90
   3   2   8  223.58   11.80
   4   2   8   32.20    4.40
   5   2   8   92.39    7.90
   6   2   8   43.20    5.70
  -7  -2  -8   21.10    4.80
   7   2   8    8.70    5.40
   8   2   8   -0.20    5.50
   9   2   8   54.79    7.50
   9   2   8   53.39    7.80
   6  -3  -8    2.60   11.10
   6  -3  -8   24.70    7.10
  -6   3   8   18.30    6.10
   5  -3  -8   29.10    5.90
  -5   3   8   23.20    5.40
   4  -3  -8   24.90    5.70
  -4   3   8   13.20    4.80
   3  -3  -8    8.60    4.40
  -3   3   8   18.80    6.30
  -3   3   8   12.90    4.30
   2  -3  -8 1252.37   52.69
   1  -3  -8  343.87   16.80
   0  -3  -8   38.50    5.10
   0   3   8   28.80    4.40
  -1  -3  -8   94.39    7.50
   1   3   8  102.49    7.40
  -2  -3  -8   22.50    4.30
   2   3   8   30.70    4.10
  -3  -3  -8    3.50    3.30
   3   3   8    0.30    3.10
   4   3   8   60.39    7.00
   5   3   8   -1.10    3.50
   6   3   8   -0.50    4.40
  -7  -3  -8    4.60    4.70
   7   3   8    8.00    4.90
  -8  -3  -8   10.60    5.30
   8   3   8    9.10    5.60
   9   3   8   13.10    6.80
  10   3   8    3.80    7.50
  10   3   8    0.60    6.40
   5  -4  -8    7.20    6.20
  -5   4   8   12.10    9.90
  -5   4   8   13.60    5.50
   4  -4  -8    1.70    5.10
  -4   4   8   -2.90    4.80
  -4   4   8    1.50    8.10
   3  -4  -8   45.50    6.30
  -3   4   8   42.00    5.70
   2  -4  -8   49.80    7.20
  -2   4   8   56.59    7.30
  -2   4   8   55.19    7.50
   0  -4  -8  108.59    8.50
  -1  -4  -8  192.48   11.40
  -2  -4  -8   70.49    7.20
   2   4   8   71.39    7.10
  -3  -4  -8   27.80    4.50
   3   4   8   21.70    4.20
   4   4   8   46.30    5.50
  -5  -4  -8   16.40    6.70
   5   4   8   16.80    5.70
   6   4   8   -6.30    4.40
  -7  -4  -8   33.60    6.20
   7   4   8   33.30    5.80
  -8  -4  -8    9.50    5.70
   8   4   8    6.90    5.60
  -9  -4  -8    0.30    5.60
   9   4   8   -0.50    6.20
  10   4   8   11.10    7.90
   4  -5  -8   -6.80    6.00
  -4   5   8   -2.20    5.40
  -4   5   8    7.10    9.70
   3  -5  -8    6.50    5.90
  -3   5   8    6.50    4.80
  -3   5   8   -1.20    7.50
   2  -5  -8  182.98   12.30
  -2   5   8  192.58   12.10
   1  -5  -8   23.40    5.10
  -1   5   8   31.60    5.20
  -1   5   8   14.30    6.10
   0  -5  -8    3.60    4.20
  -1  -5  -8   18.50    4.60
  -2  -5  -8   -1.60    4.00
   4   5   8   53.29    6.20
   5   5   8   13.80    4.60
   6   5   8   -5.10    4.60
  -7  -5  -8  111.29   10.60
   7   5   8  112.69   11.00
  -8  -5  -8    0.20    5.40
   8   5   8    0.40    5.90
  -9  -5  -8   40.30    7.80
   9   5   8   24.20    7.30
 -10  -5  -8   -5.40    6.50
  10   5   8    4.70    8.30
   3  -6  -8    8.30    6.40
  -3   6   8   25.30    9.00
  -3   6   8   11.10    5.70
   2  -6  -8   -1.30    5.50
  -2   6   8   -2.40    4.70
  -2   6   8  -11.10    7.10
   1  -6  -8   31.80    6.10
  -1   6   8   21.40    5.10
   0  -6  -8   28.40    6.10
   0   6   8   25.80    4.90
   0   6   8   30.20    6.60
  -1  -6  -8   -2.20    4.30
   1   6   8   -6.80    3.70
  -2  -6  -8  412.66   20.90
  -6  -6  -8    8.20    5.30
   6   6   8   -3.40    4.90
  -7  -6  -8  -10.30    5.40
   7   6   8    2.20    5.40
  -8  -6  -8   20.70    6.50
   8   6   8   23.40    6.60
  -9  -6  -8    1.40    6.50
   9   6   8    2.80    6.90
 -10  -6  -8   39.90    8.40
  10   6   8   19.10    8.80
   2  -7  -8   -2.40    6.70
  -2   7   8   -8.30    5.60
  -2   7   8   -1.50    8.60
   1  -7  -8   29.40    6.80
  -1   7   8   32.40    8.00
  -1   7   8   39.30    6.80
   0  -7  -8   13.40    5.90
   0   7   8    0.80    5.30
   0   7   8   21.20    6.90
  -1  -7  -8    1.70    4.90
   1   7   8    3.20    4.90
   1   7   8    2.00    6.10
  -2  -7  -8   16.00    5.30
   2   7   8   17.00    5.40
   3   7   8   83.49    9.40
  -4  -7  -8   37.10    6.50
   4   7   8   28.60    5.50
  -5  -7  -8    8.40    5.20
  -6  -7  -8    2.30    5.70
   6   7   8   -4.50    5.40
  -7  -7  -8   19.70    6.60
   7   7   8   13.70    5.90
  -8  -7  -8    0.70    6.30
   8   7   8    6.20    6.20
  -9  -7  -8    6.50    7.00
   9   7   8   -0.30    7.20
 -10  -7  -8    6.10    7.50
  10   7   8   -4.20    8.10
   1  -8  -8    4.60    7.30
  -1   8   8    0.30    8.90
  -1   8   8    2.90    6.40
   0  -8  -8   50.09    7.90
   0   8   8   42.00    8.90
   0   8   8   47.30    7.50
  -1  -8  -8   46.30    7.20
   1   8   8   37.70    6.80
   1   8   8   39.60    7.60
  -2  -8  -8   33.50    6.60
   2   8   8   34.40    6.20
  -3  -8  -8   48.10    7.20
   3   8   8   49.90    7.20
  -4  -8  -8   19.40    6.10
   4   8   8   18.50    6.10
  -5  -8  -8   16.10    6.10
   5   8   8   12.30    5.50
  -6  -8  -8    1.10    6.40
   6   8   8   -4.50    5.60
  -7  -8  -8   -2.40    6.10
   7   8   8    2.00    6.20
  -8  -8  -8    1.40    7.20
   8   8   8    4.10    6.70
  -9  -8  -8    6.50    8.10
   9   8   8    5.00    7.70
 -10  -8  -8    5.10    8.80
  10   8   8   -1.60    9.20
  -1  -9  -8   21.20    7.30
   1   9   8   22.20    8.70
   1   9   8   27.80    7.20
  -2  -9  -8   19.10    6.80
   2   9   8   16.60    7.80
   2   9   8   17.70    6.40
  -3  -9  -8  111.19   12.40
   3   9   8  124.99   12.50
   3   9   8  118.39   14.00
  -4  -9  -8   13.00    6.50
   4   9   8    5.90    6.90
   4   9   8    6.30    7.40
  -5  -9  -8    9.00    6.50
   5   9   8   -4.00    6.10
  -6  -9  -8    9.50    7.10
   6   9   8   11.70    6.60
  -7  -9  -8   48.80    8.20
   7   9   8   28.50    7.20
  -8  -9  -8  123.29   14.10
   8   9   8  125.29   14.40
  -9  -9  -8   27.70    9.70
   9   9   8   20.30    8.50
  -3 -10  -8   14.40    7.40
   3  10   8   15.50    7.00
   3  10   8    5.00    8.60
  -4 -10  -8   12.00    7.80
   4  10   8    7.70    8.70
   4  10   8    6.10    7.00
  -5 -10  -8    6.10    7.70
   5  10   8  -13.30    8.70
   5  10   8   -5.40    6.80
  -6 -10  -8   36.40    8.50
   6  10   8   30.90    7.90
  -7 -10  -8    6.20    8.20
   7  10   8    7.30    7.60
  -8 -10  -8   35.40    9.10
   8  10   8   42.50    9.30
  -3  -7   9   17.00    5.00
  -2  -7   9   47.30    6.10
  -5  -6   9    5.10    4.10
  -4  -6   9    1.10    3.40
  -3  -6   9    2.70    3.70
  -3  -6   9    4.90    3.50
  -2  -6   9   85.99    7.90
  -1  -6   9   -5.10    3.60
   0  -6   9    1.00    4.20
   1  -6   9    4.90    4.50
   6   5  -9   11.40    9.10
  -6  -5   9   16.80    4.90
  -5  -5   9    2.80    4.00
  -4  -5   9   -3.10    3.00
  -4  -5   9   -3.60    3.40
  -3  -5   9   52.69    6.20
  -3  -5   9   43.30    6.20
  -2  -5   9  344.37   15.90
  -2  -5   9  350.16   16.70
  -1  -5   9   70.59    7.00
   0  -5   9    3.50    3.70
   1  -5   9   17.60    4.70
   2  -5   9   20.80    4.80
   3  -5   9   -6.90    5.30
   7   4  -9   -4.20   10.10
  -7  -4   9  -10.00    5.00
  -6  -4   9   24.90    5.40
  -5  -4   9   30.50    4.70
  -4  -4   9   42.20    5.90
  -4  -4   9   53.99    6.80
  -3  -4   9   44.70    5.00
  -2  -4   9  205.28   11.00
  -2  -4   9  185.38   10.20
  -1  -4   9   34.50    4.80
  -1  -4   9   39.90    5.10
   0  -4   9   23.80    3.10
   0  -4   9   26.40    4.60
   1  -4   9   -0.70    3.60
   2  -4   9   -4.20    4.20
   3  -4   9    5.10    4.60
   4  -4   9   -0.10    5.50
   7   3  -9   14.00   10.20
  -7  -3   9   11.80    5.60
  -6  -3   9   34.60    5.40
  -5  -3   9    3.90    3.90
  -4  -3   9   14.50    3.70
  -3  -3   9   -6.90    4.80
  -3  -3   9    2.60    3.10
  -2  -3   9   56.49    6.10
  -1  -3   9  105.69    7.90
  -1  -3   9  106.79    7.50
   0   3  -9   11.60    4.50
   0  -3   9   24.00    6.10
   0  -3   9   16.90    3.20
   1  -3   9   63.29    7.70
   1  -3   9   78.99    5.90
   2  -3   9   13.90    4.60
   3  -3   9   14.80    5.10
   4  -3   9   20.00    5.30
   5  -3   9    5.10    5.60
   7   2  -9    7.40   10.60
  -7  -2   9    4.60    5.30
  -6  -2   9   26.80    5.30
  -5  -2   9    4.30    4.00
   4   2  -9   52.79    6.30
   3   2  -9   21.50    3.90
  -3  -2   9   27.00    5.20
  -3  -2   9   28.30    4.30
   2   2  -9    4.90    3.00
  -2  -2   9    0.20    3.00
   1   2  -9  428.06   19.10
  -1  -2   9  407.76   18.80
   0   2  -9  301.97   14.60
   0   2  -9  235.38   14.50
   0  -2   9  283.87   13.30
  -1   2  -9    5.80    3.40
  -1   2  -9    6.80    4.40
   1  -2   9    3.80    2.90
  -2   2  -9   14.80    4.20
   2  -2   9   11.70    3.10
   2  -2   9   16.40    4.40
   3  -2   9    3.40    4.00
   3  -2   9    5.20    3.10
   4  -2   9    3.10    5.10
   5  -2   9   37.90    6.10
   6  -2   9   18.10    5.50
   7   1  -9   -0.90   11.00
  -7  -1   9   14.60    8.70
   6   1  -9   18.20   10.60
  -6  -1   9   18.10    5.20
   5   1  -9   72.29    7.80
  -5  -1   9   88.29    8.80
   4   1  -9   84.09    7.60
  -4  -1   9   93.69    8.10
   3   1  -9   20.00    3.80
  -3  -1   9   20.90    3.70
  -3  -1   9   11.80    4.70
   2   1  -9    6.60    3.20
  -2  -1   9   12.60    3.20
   1   1  -9   13.60    3.50
  -1  -1   9    7.50    3.00
   0   1  -9   89.79    7.30
   0  -1   9   92.89    7.10
  -1   1  -9  333.77   17.80
   1  -1   9  405.06   17.20
  -2   1  -9    3.90    3.30
  -2   1  -9   15.50    4.40
   2  -1   9    5.60    3.10
  -3   1  -9   97.69    7.60
  -3   1  -9   63.39    6.40
   3  -1   9   79.39    7.20
   4  -1   9    2.10    3.50
   4  -1   9    1.00    3.80
   5  -1   9    9.40    3.90
   5  -1   9   -2.80    4.60
   6  -1   9   -1.40    5.30
   7  -1   9   38.30    7.60
   6   0  -9   19.10    9.90
  -6   0   9   26.10    5.80
   5   0  -9    3.70    4.60
  -5   0   9    7.90    4.20
   4   0  -9   -1.30    4.00
  -4   0   9    0.00    3.80
   3   0  -9   38.00    5.10
  -3   0   9   32.50    4.50
   2   0  -9   11.40    3.80
  -2   0   9   10.00    3.00
   1   0  -9  109.09    8.30
   0   0  -9  148.59    9.50
   0   0   9  152.68    9.00
  -1   0  -9   12.40    3.40
   1   0   9    5.60    3.20
  -2   0  -9   20.20    4.30
   2   0   9   22.70    3.90
  -3   0  -9    9.70    5.10
  -3   0  -9   13.00    3.80
   3   0   9    3.70    3.20
  -4   0  -9    1.90    3.60
  -4   0  -9    2.40    5.50
   4   0   9    1.40    3.60
  -5   0  -9   53.59    7.60
   5   0   9   41.90    5.10
   6   0   9   12.10    5.70
   6   0   9   10.30    4.50
   7   0   9   11.70    5.80
   7   0   9   20.70    6.70
   6  -1  -9  -13.60   10.70
  -6   1   9   -4.30    5.40
   5  -1  -9   -1.90    5.00
  -5   1   9    7.40    4.70
   4  -1  -9   15.30    4.90
  -4   1   9    9.20    4.10
   3  -1  -9  212.48   12.20
  -3   1   9  207.08   11.80
   2  -1  -9    6.90    3.90
  -2   1   9    0.70    3.20
   1  -1  -9  265.37   13.90
  -1   1   9  260.17   13.40
   0  -1  -9   23.20    4.30
   0   1   9   23.90    4.20
  -1  -1  -9   69.29    7.20
   1   1   9   68.89    7.00
  -2  -1  -9   53.19    6.90
   2   1   9   57.19    6.50
  -3  -1  -9   86.69    7.80
   3   1   9   79.69    7.60
   4   1   9   13.50    4.00
   5   1   9   -0.20    4.10
  -6  -1  -9   13.00    4.90
   6   1   9   16.40    4.70
   7   1   9   -8.10    8.30
   8   1   9   34.70    7.30
   8   1   9   28.70    6.50
   5  -2  -9    3.20    6.00
   5  -2  -9    5.40    9.90
  -5   2   9    3.80    4.90
   4  -2  -9   29.40    9.50
  -4   2   9   25.50    5.10
   3  -2  -9   20.40    5.40
  -3   2   9   20.30    4.30
   2  -2  -9   22.70    4.80
  -2   2   9   22.30    4.00
   1  -2  -9   58.79    7.10
  -1   2   9   56.49    6.80
   0  -2  -9   11.30    4.10
   0   2   9    5.10    3.50
  -1  -2  -9    3.20    4.50
  -2  -2  -9  211.38   13.80
   2   2   9  223.88   12.10
  -3  -2  -9    5.20    4.10
   3   2   9   13.20    3.90
   4   2   9   -4.10    3.90
   5   2   9  109.59    9.90
  -6  -2  -9   36.50    5.80
   6   2   9   27.40    6.00
  -7  -2  -9    5.20    5.40
   7   2   9    8.00    5.20
   8   2   9    8.20    6.60
   9   2   9   20.90    8.00
   5  -3  -9   48.60    7.40
   5  -3  -9   14.00   11.80
  -5   3   9   24.30    6.00
   4  -3  -9   -4.70    5.60
  -4   3   9    4.60    4.90
   3  -3  -9   32.90    5.90
  -3   3   9   17.80    4.50
   2  -3  -9    3.60    4.60
  -2   3   9   12.20    5.00
   1  -3  -9    7.20    4.20
  -1   3   9   -6.00    4.80
   0  -3  -9   47.10    6.00
   0   3   9   36.90    5.00
  -1  -3  -9   79.09    7.80
   1   3   9   62.19    7.50
  -2  -3  -9   29.20    5.50
   2   3   9   29.80    4.70
  -3  -3  -9    6.10    4.30
   3   3   9   13.10    6.80
   4   3   9   -5.70    4.70
   5   3   9   47.50    5.90
  -6  -3  -9    2.40    4.70
   6   3   9   -8.20    4.60
  -7  -3  -9    2.70    5.30
   7   3   9   10.70    5.80
  -8  -3  -9   12.00    6.00
   8   3   9    4.20    6.70
  -9  -3  -9    6.70    7.20
   9   3   9    9.70    8.10
   4  -4  -9   23.60    6.90
  -4   4   9   20.30    5.90
   3  -4  -9    7.80    5.90
  -3   4   9   -1.00    7.70
  -3   4   9    3.80    4.70
   2  -4  -9    3.80    5.50
  -2   4   9   -5.30    4.00
   1  -4  -9  211.28   13.10
  -1   4   9  214.48   12.60
   0  -4  -9   49.90    6.40
  -1  -4  -9  166.48   11.20
  -2  -4  -9  460.35   21.50
   2   4   9  429.56   21.10
  -3  -4  -9  453.85   21.70
   3   4   9  444.26   21.40
   4   4   9   61.49    6.80
   5   4   9    1.20    4.40
  -6  -4  -9   22.40    5.80
   6   4   9   13.10    5.20
  -7  -4  -9   15.90    6.00
   7   4   9   -0.90    5.60
  -8  -4  -9   21.10    7.00
   8   4   9    9.20    7.20
  -9  -4  -9    8.50    6.70
   9   4   9   26.70    8.20
   3  -5  -9   20.40    6.80
  -3   5   9   15.10    5.70
  -3   5   9   13.80    9.10
   2  -5  -9   35.40    7.00
  -2   5   9   35.70    8.40
  -2   5   9   41.70    6.40
   1  -5  -9    8.50    5.40
  -1   5   9   -1.50    4.50
   0  -5  -9   -2.20    5.30
   0   5   9   -7.40    4.30
  -1  -5  -9   38.30    6.10
  -2  -5  -9   11.60    5.10
  -3  -5  -9  126.19   11.70
   3   5   9  104.89   10.00
   4   5   9  408.16   20.10
  -5  -5  -9    5.00    5.60
   5   5   9    7.00    4.80
  -6  -5  -9    3.70    5.40
   6   5   9    6.80    5.40
  -7  -5  -9    2.60    6.10
   7   5   9   12.20    6.00
  -8  -5  -9    7.60    6.50
   8   5   9  -11.20    6.90
  -9  -5  -9   54.19    8.60
   9   5   9   59.99    9.10
   2  -6  -9   -7.70    6.70
  -2   6   9    5.10    5.30
  -2   6   9   13.00    8.40
   1  -6  -9    6.90    6.00
  -1   6   9    7.60    5.10
   0  -6  -9   81.39   10.20
   0   6   9   69.99    9.60
  -1  -6  -9   -3.50    5.40
   1   6   9    0.60    4.60
  -2  -6  -9   63.89    7.70
   2   6   9   54.19    7.00
  -3  -6  -9   23.10    5.80
   4   6   9  111.19   10.60
  -5  -6  -9   61.79    7.70
   5   6   9   65.29    7.50
  -6  -6  -9   25.80    7.00
   6   6   9   36.50    6.60
  -7  -6  -9   14.80    6.80
   7   6   9   20.30    6.70
  -8  -6  -9   -2.60    6.90
   8   6   9    4.00    7.20
  -9  -6  -9   24.60    7.90
   9   6   9   43.70    8.90
   1  -7  -9   -9.10    7.00
  -1   7   9    2.80    8.10
  -1   7   9   -2.70    5.70
   0  -7  -9   15.10    7.30
   0   7   9    3.30    5.90
   0   7   9   15.60    7.90
  -1  -7  -9   66.99    8.70
   1   7   9   82.29    8.80
  -2  -7  -9   48.80    7.40
   2   7   9   50.69    7.20
  -3  -7  -9   69.19    8.40
   3   7   9   81.89   10.60
  -4  -7  -9  440.16   22.80
   4   7   9  451.75   22.50
  -5  -7  -9    7.60    5.90
   5   7   9    8.10    5.70
  -6  -7  -9    8.10    6.80
   6   7   9   14.80    6.30
  -7  -7  -9    8.10    7.40
   7   7   9   16.90    7.20
  -8  -7  -9   -1.20    7.50
   8   7   9   -7.00    7.50
  -9  -7  -9   -6.20    8.10
   9   7   9    4.10    9.00
   0  -8  -9    9.20    8.00
   0   8   9   -8.80    8.20
   0   8   9    3.30    6.60
  -1  -8  -9   18.00    7.60
   1   8   9   20.40    8.10
   1   8   9   26.00    6.90
  -2  -8  -9  -10.70    6.50
   2   8   9    2.50    6.10
  -3  -8  -9    9.20    6.50
   3   8   9   -3.20    5.70
  -4  -8  -9   26.70    7.30
   4   8   9   41.10    7.40
  -5  -8  -9   64.99    9.00
   5   8   9   88.39   11.80
  -6  -8  -9   44.80    8.10
   6   8   9   42.50    7.30
  -7  -8  -9   64.99    9.70
   7   8   9   48.10    7.90
  -8  -8  -9  -11.60    8.20
   8   8   9   14.70    7.70
  -9  -8  -9   14.20    9.00
   9   8   9   -1.90    9.40
  -2  -9  -9   -4.00    7.40
   2   9   9   12.30    6.90
   2   9   9   -8.30    7.90
  -3  -9  -9    9.60    7.60
   3   9   9   -0.80    6.90
  -4  -9  -9   20.10    8.40
   4   9   9   26.90    7.40
  -5  -9  -9    2.40    7.90
   5   9   9   -7.60    6.70
  -6  -9  -9   47.30    9.00
   6   9   9    8.90    7.70
  -7  -9  -9   12.90    8.30
   7   9   9   15.70    7.90
  -8  -9  -9   32.80   10.30
   8   9   9   28.60   10.90
  -4  -5  10    1.50    4.10
  -3  -5  10   12.70    4.10
  -2  -5  10   88.09    8.70
  -1  -5  10    9.20    4.70
   0  -5  10    7.70    4.50
   1  -5  10   41.80    6.20
  -5  -4  10   37.40    5.70
  -4  -4  10   29.80    4.90
  -3  -4  10   97.99    8.50
  -2  -4  10    3.20    3.50
  -1  -4  10   23.20    4.90
  -1  -4  10   23.40    3.80
   0  -4  10   24.60    5.10
   1  -4  10   85.19    9.30
   2  -4  10   53.49    6.70
  -5  -3  10    2.70    4.50
  -4  -3  10   -1.80    4.00
  -3  -3  10    7.90    3.90
  -2  -3  10    7.50    4.30
  -2  -3  10   13.20    3.80
  -1  -3  10    3.60    3.30
   0  -3  10   14.00    3.60
   0  -3  10   15.30    4.60
   1  -3  10   14.40    4.80
   1  -3  10   13.30    3.40
   2  -3  10   -4.00    4.50
   3  -3  10   21.50    6.00
   4  -3  10    0.10    5.60
  -5  -2  10   44.50    6.00
   4   2 -10   12.10    4.10
  -4  -2  10    8.90    4.20
   3   2 -10  161.48   10.20
  -3  -2  10  170.18   10.90
   2   2 -10    4.50    7.00
  -2  -2  10    0.90    3.70
   1   2 -10   79.49    7.80
  -1  -2  10   99.89    7.70
   0   2 -10   24.50    4.40
   0  -2  10   25.00    4.00
   1  -2  10   30.10    4.30
   2  -2  10   -3.60    3.50
   2  -2  10    1.60    4.70
   3  -2  10    3.70    5.10
   3  -2  10   -1.80    3.50
   4  -2  10    6.00    5.80
   5  -2  10   42.20    7.10
  -5  -1  10  108.39   10.70
   4   1 -10   16.50    4.50
  -4  -1  10   16.00    4.50
   3   1 -10    8.40    4.00
  -3  -1  10    2.30    3.80
   2   1 -10   62.19    8.90
  -2  -1  10   63.49    7.40
   1   1 -10  340.67   16.80
  -1  -1  10  332.97   16.40
   0   1 -10   21.30    4.50
   0  -1  10   19.80    5.30
  -1   1 -10   -3.00    3.80
   1  -1  10    0.50    3.40
  -2   1 -10   17.20    4.50
   2  -1  10   14.10    4.00
  -3   1 -10  118.99    9.60
   3  -1  10  104.99    8.80
   4  -1  10    0.20    4.10
   4  -1  10   -2.30    4.70
   5  -1  10   27.40    6.70
   6  -1  10    3.10    6.60
  -5   0  10    7.90    5.10
   4   0 -10   45.90    6.30
  -4   0  10   64.99    7.00
   3   0 -10   14.70    4.90
  -3   0  10   14.10    4.40
  -2   0  10   11.00    4.10
   1   0 -10  359.86   18.30
  -1   0  10  388.66   18.10
   0   0 -10   27.50    4.90
   0   0  10   34.50    4.50
  -1   0 -10    1.00    3.80
   1   0  10   -3.60    4.60
  -2   0 -10    5.10    4.30
   2   0  10    2.70    4.00
  -3   0 -10    7.40    4.40
   3   0  10    1.20    3.80
  -4   0 -10   45.70    6.20
   4   0  10   30.50    5.20
  -5   0 -10   33.60    6.10
   5   0  10   25.20    5.10
   6   0  10   46.10    7.80
   6   0  10   41.80    7.50
  -5   1  10    6.10    5.60
   4  -1 -10   20.20    6.00
  -4   1  10    8.50    5.00
   3  -1 -10    0.10    5.00
  -3   1  10    1.00    4.00
   2  -1 -10    4.80    4.70
  -2   1  10   16.10    4.30
   1  -1 -10  122.09    9.70
  -1   1  10  130.79    9.60
   0  -1 -10    5.50    4.30
   0   1  10    6.70    3.50
  -1  -1 -10   40.60    5.40
   1   1  10   48.00    5.60
  -2  -1 -10   14.90    4.40
   2   1  10   16.30    4.30
  -3  -1 -10   34.60    5.40
   3   1  10   36.20    5.40
  -4  -1 -10    0.00    4.50
   4   1  10    4.60    4.60
  -5  -1 -10   79.49    9.30
   5   1  10   92.79    9.60
  -6  -1 -10    3.90    5.30
   6   1  10   -3.80    5.50
   7   1  10    1.80    5.80
   4  -2 -10   24.40    6.50
  -4   2  10   26.00    5.90
   3  -2 -10   43.00    6.70
  -3   2  10   29.20    5.50
   2  -2 -10   -7.20    4.90
  -2   2  10    3.60    4.00
   1  -2 -10   42.50    6.40
  -1   2  10   41.60    5.40
   0  -2 -10    8.50    4.80
   0   2  10    1.80    4.00
  -1  -2 -10   25.80    5.60
   1   2  10   31.00    4.70
  -2  -2 -10   57.69    8.20
   2   2  10   59.99    6.00
  -3  -2 -10   -3.40    4.10
   3   2  10   -0.50    4.30
  -4  -2 -10    0.40    4.40
   4   2  10    1.00    4.50
  -5  -2 -10   41.60    6.50
   5   2  10   27.50    5.70
  -6  -2 -10   -0.90    5.30
   6   2  10    2.20    5.20
  -7  -2 -10   -6.80    6.20
   7   2  10   17.10    6.20
   8   2  10    7.00    6.40
   4  -3 -10   -6.60    6.50
  -4   3  10    1.40    6.20
   3  -3 -10    4.70    6.40
  -3   3  10    5.80    4.50
   2  -3 -10   22.00    6.00
  -2   3  10   15.40    4.80
   1  -3 -10   80.79    9.30
  -1   3  10   63.09    8.60
   0  -3 -10  199.78   12.40
   0   3  10  174.48   11.90
  -1  -3 -10    0.60    4.90
   1   3  10    1.80    4.20
  -2  -3 -10    6.70    5.20
   2   3  10    0.70    4.20
  -3  -3 -10   20.50    5.20
   3   3  10   17.70    5.00
  -4  -3 -10    4.00    5.20
   4   3  10    1.90    4.70
  -5  -3 -10  101.49   10.00
   5   3  10  103.89   10.90
  -6  -3 -10   21.70    6.20
   6   3  10   13.90    5.70
  -7  -3 -10   10.80    6.50
   7   3  10   15.90    6.40
  -8  -3 -10   -7.40    7.00
   8   3  10   -2.40    6.80
   3  -4 -10   15.50    7.60
  -3   4  10   10.40    5.50
   2  -4 -10   27.60    7.10
  -2   4  10   26.00    5.70
   1  -4 -10   10.80    5.90
  -1   4  10   -4.40    4.60
   0  -4 -10   36.90    6.50
   0   4  10   43.20    6.80
  -1  -4 -10  239.28   14.10
   1   4  10  205.08   13.20
  -2  -4 -10    4.80    5.30
   2   4  10   14.60    4.60
  -3  -4 -10   21.70    5.70
   3   4  10   28.40    5.70
  -4  -4 -10   41.70    6.60
   4   4  10   31.20    6.10
  -5  -4 -10    8.10    6.10
   5   4  10    7.70    5.70
  -6  -4 -10   -7.30    5.90
   6   4  10   -1.80    5.80
  -7  -4 -10    3.10    6.30
   7   4  10    5.80    6.20
  -8  -4 -10   17.70    7.00
   8   4  10   23.70    7.50
   2  -5 -10   10.20    7.50
  -2   5  10    8.10    5.50
   1  -5 -10   10.30    6.80
  -1   5  10   10.50    5.20
   0  -5 -10    4.60    6.20
   0   5  10    4.90    5.40
  -1  -5 -10   20.30    6.10
   1   5  10   17.40    5.40
  -2  -5 -10  136.19   11.30
   2   5  10  113.09   10.50
  -3  -5 -10    8.20    5.70
   3   5  10   16.10    5.50
  -4  -5 -10    7.50    5.90
   4   5  10    0.00    5.20
  -5  -5 -10   -6.80    6.00
   5   5  10   -1.10    5.60
  -6  -5 -10   20.80    6.80
   6   5  10    4.70    6.50
  -7  -5 -10   69.29    9.00
   7   5  10   39.60    7.70
  -8  -5 -10   16.40    7.50
   8   5  10   25.50    7.60
   1  -6 -10   11.30    7.50
  -1   6  10   10.20    5.70
   0  -6 -10   72.29    9.40
   0   6  10   62.29    8.20
  -1  -6 -10   49.50    8.20
   1   6  10   52.29    6.90
  -2  -6 -10   24.80    6.80
   2   6  10   11.30    5.20
  -3  -6 -10   27.60    6.70
   3   6  10   15.30    6.20
  -4  -6 -10   21.20    6.90
   4   6  10   20.60    6.50
  -5  -6 -10   14.60    7.00
   5   6  10   32.10    6.70
  -6  -6 -10   59.99    8.90
   6   6  10   56.99    8.10
  -7  -6 -10    0.10    7.30
   7   6  10   -1.50    7.00
  -8  -6 -10    6.80    8.20
   8   6  10    6.80    8.10
   0  -7 -10   -8.60    7.60
   0   7  10   -1.30    6.20
  -1  -7 -10   66.29    9.40
   1   7  10   65.89    8.40
  -2  -7 -10   51.59    8.80
   2   7  10   50.79    7.60
  -3  -7 -10   80.39    9.40
   3   7  10   69.09    8.90
  -4  -7 -10  104.39   12.50
   4   7  10  119.09   12.40
  -5  -7 -10    3.60    6.70
   5   7  10   -7.80    6.60
  -6  -7 -10   17.30    8.00
   6   7  10   -4.80    6.70
  -7  -7 -10   -3.50    8.30
   7   7  10   -3.30    7.70
  -8  -7 -10    6.30    8.20
   8   7  10   -2.50    8.30
  -2  -8 -10   22.10    9.10
   2   8  10    8.90    6.90
  -3  -8 -10    1.80    8.10
   3   8  10   16.40    6.90
  -4  -8 -10   11.30    7.80
   4   8  10   26.70    8.10
  -5  -8 -10    7.50    8.40
   5   8  10   18.80    8.00
  -6  -8 -10   20.20    8.50
   6   8  10   -7.20    7.30
  -7  -8 -10   63.59   10.00
   7   8  10   46.80    9.30
  -1  -4  11   -3.50    5.40
  -3  -3  11   -0.50    4.60
  -2  -3  11    5.40    5.60
  -2  -3  11    4.90    4.30
  -1  -3  11    5.20    4.20
  -1  -3  11   -3.10    5.40
   0  -3  11   29.60    6.40
   0  -3  11   23.80    4.60
   1  -3  11  191.98   13.60
   2  -3  11   15.00    6.00
  -4  -2  11   19.60    5.60
   3   2 -11   18.60    5.00
  -3  -2  11   24.70    5.20
   2   2 -11    1.80    4.30
  -2  -2  11   -3.70    4.50
   1   2 -11   34.50    5.30
  -1  -2  11   36.50    5.00
   0  -2  11    5.20    4.00
   1  -2  11   93.29    8.50
   2  -2  11   43.70    6.80
   2  -2  11   66.49    8.10
   3  -2  11   -3.10    6.20
  -4  -1  11   10.40    5.60
   3   1 -11    7.90    5.20
  -3  -1  11    5.50    4.90
   2   1 -11  102.49    9.60
  -2  -1  11   91.69    9.40
   1   1 -11    6.20    4.60
  -1  -1  11    1.50    4.10
   0   1 -11   15.70    5.00
   0  -1  11    9.50    4.40
  -1   1 -11    5.10    4.70
   1  -1  11    4.50    4.30
  -2   1 -11    2.40    4.80
   2  -1  11   -6.90    4.20
   3  -1  11   14.90    5.00
   4  -1  11    8.50    5.70
  -4   0  11   -5.30    5.60
   3   0 -11    7.30    5.40
  -3   0  11   -4.80    4.70
   2   0 -11    1.50    5.10
  -2   0  11    1.80    4.40
   1   0 -11    0.20    4.80
  -1   0  11   -8.60    4.20
   0   0 -11   23.90    5.40
   0   0  11   41.50    5.80
  -1   0 -11   -1.20    4.60
   1   0  11    7.10    4.30
  -2   0 -11    6.50    5.20
   2   0  11   10.50    4.80
  -3   0 -11   20.10    5.30
   3   0  11   15.70    5.10
  -4   0 -11   23.90    6.30
   4   0  11   25.70    5.60
   5   0  11    1.40    5.60
   3  -1 -11    8.00    5.80
  -3   1  11    1.70    5.10
   2  -1 -11   38.60    6.50
  -2   1  11   23.50    5.40
   1  -1 -11  205.98   13.60
  -1   1  11  203.68   12.90
   0  -1 -11   73.19    9.70
   0   1  11   59.59    8.70
  -1  -1 -11   42.00    6.30
   1   1  11   32.70    5.60
  -2  -1 -11   26.00    6.00
   2   1  11   31.80    5.70
  -3  -1 -11    3.30    5.00
   3   1  11   -0.10    4.80
  -4  -1 -11   -0.10    5.30
   4   1  11    6.80    5.20
  -5  -1 -11    7.60    5.70
   5   1  11   12.30    5.40
  -6  -1 -11    2.30    6.60
   6   1  11   -9.40    6.00
   3  -2 -11   28.30    7.10
  -3   2  11   25.60    5.70
   2  -2 -11   10.10    6.50
  -2   2  11   -4.30    4.50
   1  -2 -11    5.20    5.70
  -1   2  11   -5.40    4.50
   0  -2 -11   38.80    6.50
   0   2  11   32.10    5.30
  -1  -2 -11    3.30    5.20
   1   2  11   -5.10    4.50
  -2  -2 -11   -8.50    5.30
   2   2  11    4.30    4.90
  -3  -2 -11   28.90    6.40
   3   2  11   40.80    6.10
  -4  -2 -11   -4.80    5.40
   4   2  11  -10.60    5.20
  -5  -2 -11   13.80    6.00
   5   2  11   16.80    6.10
  -6  -2 -11   -0.90    5.90
   6   2  11   -1.20    5.90
   2  -3 -11    5.40    6.90
  -2   3  11    8.00    5.60
   1  -3 -11  185.68   14.10
  -1   3  11  190.18   13.00
   0  -3 -11   12.80    6.40
   0   3  11    7.80    4.70
  -1  -3 -11    1.90    5.90
   1   3  11    0.10    4.80
  -2  -3 -11   15.90    6.20
   2   3  11   13.90    5.60
  -3  -3 -11    1.70    5.70
   3   3  11    3.00    5.00
  -4  -3 -11   17.60    6.50
   4   3  11   11.30    5.90
  -5  -3 -11   20.90    6.70
   5   3  11   23.60    6.70
  -6  -3 -11   12.60    6.60
   6   3  11   15.10    7.10
  -7  -3 -11   16.00    7.70
   7   3  11    9.30    7.40
   1  -4 -11    2.20    7.00
  -1   4  11    5.40    5.30
   0  -4 -11   11.00    6.70
   0   4  11   12.80    5.20
  -1  -4 -11   19.30    7.10
   1   4  11   16.00    5.90
  -2  -4 -11   93.09   11.40
   2   4  11   92.99   10.90
  -3  -4 -11   -6.50    6.20
   3   4  11   -1.60    5.40
  -4  -4 -11   57.59    8.00
   4   4  11   49.50    7.30
  -5  -4 -11   18.90    6.90
   5   4  11   38.10    7.10
  -6  -4 -11    5.90    6.70
   6   4  11    6.00    7.30
  -7  -4 -11  -15.60    7.30
   7   4  11    1.00    7.20
   0  -5 -11    1.60    7.10
   0   5  11    7.00    5.70
  -1  -5 -11   22.70    7.90
   1   5  11   15.00    5.60
  -2  -5 -11   10.70    7.40
   2   5  11    0.80    5.60
  -3  -5 -11    4.70    6.60
   3   5  11    4.90    5.80
  -4  -5 -11   98.69   10.50
   4   5  11  108.19   12.50
  -5  -5 -11   52.99    7.90
   5   5  11   37.70    8.10
  -6  -5 -11   67.19    9.20
   6   5  11   65.39    9.30
  -7  -5 -11  -10.10    7.50
   7   5  11   11.90    8.10
  -1  -6 -11    1.00    8.60
   1   6  11    4.00    6.30
  -2  -6 -11   -4.80    7.30
   2   6  11    9.40    6.30
  -3  -6 -11   22.90    8.10
   3   6  11   16.10    6.20
  -4  -6 -11    1.50    7.60
   4   6  11   -4.20    7.00
  -5  -6 -11   62.09    9.00
   5   6  11   68.99    9.40
  -6  -6 -11  181.58   16.00
   6   6  11  212.68   16.70
  -7  -6 -11    6.70    8.90
   7   6  11   -4.70    8.40
  -3  -7 -11    6.40    7.90
   3   7  11   -3.60    6.80
  -4  -7 -11   59.09   10.00
   4   7  11  103.69   13.70
  -5  -7 -11    2.30    8.20
   5   7  11    7.10    7.80
  -6  -7 -11   86.49   13.70
   6   7  11  129.49   18.10
   1   1 -12   20.80    5.60
  -1  -1  12   23.00    5.50
   0   1 -12   36.10    6.30
   0  -1  12   25.60    5.70
  -1   1 -12   46.00    7.20
   1  -1  12   54.69    6.40
   1   0 -12    4.10    5.70
  -1   0  12    7.60    5.40
   0   0 -12   23.40    6.20
   0   0  12    8.10    5.50
  -1   0 -12  245.48   15.40
   1   0  12  224.78   14.80
  -2   0 -12  101.89   11.30
   2   0  12   73.69   10.50
  -3   0 -12   -2.30    5.80
   3   0  12    3.00    5.70
   1  -1 -12   27.60    6.90
  -1   1  12   13.10    5.70
   0  -1 -12   35.30    6.80
   0   1  12   21.10    6.20
  -1  -1 -12   16.70    6.10
   1   1  12   20.10    5.80
  -2  -1 -12   45.60    7.50
   2   1  12   31.30    6.90
  -3  -1 -12   -8.70    6.20
   3   1  12   -4.20    6.00
  -4  -1 -12    7.80    6.50
   4   1  12   11.00    6.00
   1  -2 -12    7.00    6.80
  -1   2  12   -4.30    5.40
   0  -2 -12    6.50    6.70
   0   2  12   -0.60    5.40
  -1  -2 -12   -5.50    6.20
   1   2  12   -7.60    5.50
  -2  -2 -12    4.70    6.80
   2   2  12    6.80    5.90
  -3  -2 -12   87.39   11.60
   3   2  12   60.29    7.80
  -4  -2 -12   -9.30    6.60
   4   2  12  -13.10    6.40
   0  -3 -12    2.60    7.40
   0   3  12   -4.30    5.70
  -1  -3 -12    5.60    6.80
   1   3  12   -9.90    6.00
  -2  -3 -12  115.89   13.20
   2   3  12  144.39   13.20
  -3  -3 -12    4.20    6.70
   3   3  12   -4.40    6.10
  -4  -3 -12    8.50    6.90
   4   3  12   13.10    6.70
  -1  -4 -12   -8.80    8.10
   1   4  12    5.10    6.40
  -2  -4 -12   57.79    8.90
   2   4  12   49.70    7.60
  -3  -4 -12  134.59   14.10
   3   4  12  133.89   13.80
  -4  -4 -12   43.90    8.30
   4   4  12   31.90    7.60
  -3  -5 -12    0.70    8.10
   3   5  12   10.40    6.90
  -4  -5 -12   14.60    9.40
   4   5  12   16.50    7.30
   0   0   0    0.00    0.00

_computing_structure_solution     'SHELXT 2014/5 (Sheldrick, 2014)'
;
_shelx_hkl_checksum              33028
loop_
_space_group_symop_operation_xyz
'x, y, z'
'-x, -y, -z'
loop_
_atom_site_label
_atom_site_type_symbol
_atom_site_fract_x
_atom_site_fract_y
_atom_site_fract_z
_atom_site_U_iso_or_equiv
_atom_site_adp_type
_atom_site_occupancy
_atom_site_site_symmetry_order
_atom_site_calc_flag
_atom_site_refinement_flags_posn
_atom_site_refinement_flags_adp
_atom_site_refinement_flags_occupancy
_atom_site_disorder_assembly
_atom_site_disorder_group
C1 C 0.27464(19) 0.5660(2) 0.48962(18) 0.0239(4) Uani 1 1 d . . . . .
C2 C 0.1956(2) 0.3480(2) 0.56886(18) 0.0263(4) Uani 1 1 d . . . . .
C3 C 0.4512(2) 0.5767(2) 0.30460(18) 0.0261(4) Uani 1 1 d . . . . .
C4 C 0.6324(2) 0.3658(2) 0.13637(18) 0.0288(4) Uani 1 1 d . . . . .
N1 N 0.38470(17) 0.49312(17) 0.38414(15) 0.0270(3) Uani 1 1 d . . . . .
N2 N 0.22145(18) 0.70929(17) 0.53807(16) 0.0302(4) Uani 1 1 d . . . . .
N3 N 0.10843(19) 0.72115(18) 0.64613(17) 0.0342(4) Uani 1 1 d . . . . .
N4 N 0.08929(18) 0.59617(18) 0.66863(16) 0.0337(4) Uani 1 1 d . . . . .
N5 N 0.19433(17) 0.49392(17) 0.57204(15) 0.0270(3) Uani 1 1 d . . . . .
N6 N 0.07887(19) 0.32137(19) 0.63696(18) 0.0381(4) Uani 1 1 d . . . . .
N7 N 0.1261(2) 0.1694(2) 0.6112(2) 0.0423(4) Uani 1 1 d . . . . .
N8 N 0.2617(2) 0.11207(19) 0.53265(19) 0.0397(4) Uani 1 1 d . . . . .
N9 N 0.31031(19) 0.22527(18) 0.50334(18) 0.0354(4) Uani 1 1 d . . . . .
N10 N 0.43098(19) 0.72435(18) 0.31186(16) 0.0327(4) Uani 1 1 d . . . . .
N11 N 0.5270(2) 0.7500(2) 0.20287(17) 0.0387(4) Uani 1 1 d . . . . .
N12 N 0.6058(2) 0.6279(2) 0.13067(17) 0.0383(4) Uani 1 1 d . . . . .
N13 N 0.56239(18) 0.51515(18) 0.19294(15) 0.0290(3) Uani 1 1 d . . . . .
N14 N 0.7263(2) 0.3400(2) 0.01726(17) 0.0421(4) Uani 1 1 d . . . . .
N15 N 0.7716(2) 0.1854(2) 0.00188(19) 0.0487(5) Uani 1 1 d . . . . .
N16 N 0.7065(2) 0.1264(2) 0.10587(18) 0.0473(5) Uani 1 1 d . . . . .
N17 N 0.6153(2) 0.2416(2) 0.19508(17) 0.0419(4) Uani 1 1 d . . . . .
N18 N 0.9204(2) 0.04058(19) 0.74108(18) 0.0364(4) Uani 1 1 d D . . . .
H18A H 0.991(2) 0.077(2) 0.704(2) 0.055 Uiso 1 1 d D U . . .
H18B H 0.964(2) -0.0659(17) 0.743(2) 0.055 Uiso 1 1 d D U . . .
H18C H 0.836(2) 0.089(2) 0.6877(18) 0.055 Uiso 1 1 d D U . . .
H18D H 0.887(2) 0.070(2) 0.8299(16) 0.055 Uiso 1 1 d D U . . .
N19 N 0.7849(2) 0.5867(2) 0.82440(19) 0.0494(5) Uani 1 1 d D . . . .
H19A H 0.760(3) 0.683(2) 0.858(2) 0.074 Uiso 1 1 d D U . . .
H19B H 0.777(3) 0.513(2) 0.898(2) 0.074 Uiso 1 1 d D U . . .
H19C H 0.715(2) 0.606(3) 0.757(2) 0.074 Uiso 1 1 d D U . . .
H19D H 0.890(2) 0.540(3) 0.783(2) 0.074 Uiso 1 1 d D U . . .
Na1 Na 0.58380(8) 0.18234(8) 0.45088(7) 0.0312(2) Uani 1 1 d . . . . .
O1A O 0.8569(14) 0.7835(12) 0.9928(11) 0.104(3) Uani 0.254(5) 1 d . U P A 1
H1AA H 0.910099 0.718726 0.930014 0.156 Uiso 0.254(5) 1 d R U P A 1
H1AB H 0.881789 0.725036 1.071003 0.156 Uiso 0.254(5) 1 d R U P A 1
O1B O 0.6959(4) 0.8970(3) 0.9119(3) 0.0893(11) Uani 0.746(5) 1 d . U P A 2
H1BB H 0.782018 0.900059 0.918426 0.134 Uiso 0.746(5) 1 d R U P A 2
H1BA H 0.641989 0.969529 0.848656 0.134 Uiso 0.746(5) 1 d R U P A 2
loop_
_atom_site_aniso_label
_atom_site_aniso_U_11
_atom_site_aniso_U_22
_atom_site_aniso_U_33
_atom_site_aniso_U_23
_atom_site_aniso_U_13
_atom_site_aniso_U_12
C1 0.0198(8) 0.0228(8) 0.0264(8) -0.0034(7) 0.0012(7) -0.0088(7)
C2 0.0231(8) 0.0253(9) 0.0286(9) -0.0014(7) 0.0015(7) -0.0114(7)
C3 0.0237(8) 0.0270(9) 0.0236(8) -0.0040(7) 0.0021(7) -0.0097(7)
C4 0.0271(9) 0.0297(9) 0.0232(8) -0.0058(7) 0.0030(7) -0.0091(8)
N1 0.0258(7) 0.0248(8) 0.0281(8) -0.0074(6) 0.0075(6) -0.0117(6)
N2 0.0269(8) 0.0265(8) 0.0342(8) -0.0099(6) 0.0085(6) -0.0115(6)
N3 0.0297(8) 0.0278(8) 0.0410(9) -0.0120(7) 0.0132(7) -0.0125(7)
N4 0.0275(8) 0.0305(8) 0.0366(9) -0.0129(7) 0.0132(7) -0.0103(7)
N5 0.0233(7) 0.0246(8) 0.0297(8) -0.0088(6) 0.0088(6) -0.0102(6)
N6 0.0317(8) 0.0338(9) 0.0478(10) -0.0060(7) 0.0101(7) -0.0178(7)
N7 0.0366(9) 0.0337(9) 0.0571(11) -0.0017(8) 0.0055(8) -0.0204(8)
N8 0.0353(9) 0.0280(9) 0.0554(11) -0.0058(8) 0.0051(8) -0.0165(7)
N9 0.0302(8) 0.0245(8) 0.0503(10) -0.0109(7) 0.0094(7) -0.0134(7)
N10 0.0365(9) 0.0290(8) 0.0313(8) -0.0036(6) 0.0064(7) -0.0169(7)
N11 0.0451(10) 0.0349(9) 0.0361(9) -0.0040(7) 0.0104(8) -0.0225(8)
N12 0.0420(9) 0.0378(9) 0.0346(9) -0.0022(7) 0.0104(7) -0.0226(8)
N13 0.0291(8) 0.0289(8) 0.0262(7) -0.0046(6) 0.0067(6) -0.0136(7)
N14 0.0423(10) 0.0441(10) 0.0333(9) -0.0124(8) 0.0144(8) -0.0179(8)
N15 0.0507(11) 0.0456(11) 0.0399(10) -0.0186(8) 0.0137(9) -0.0161(9)
N16 0.0582(11) 0.0380(10) 0.0372(10) -0.0149(8) 0.0105(9) -0.0172(9)
N17 0.0539(11) 0.0338(9) 0.0324(9) -0.0136(7) 0.0123(8) -0.0179(8)
N18 0.0339(9) 0.0287(9) 0.0416(10) -0.0111(7) 0.0112(7) -0.0129(7)
N19 0.0486(11) 0.0655(13) 0.0402(10) -0.0115(9) 0.0129(9) -0.0346(10)
Na1 0.0290(4) 0.0276(4) 0.0344(4) -0.0072(3) 0.0060(3) -0.0127(3)
O1A 0.142(7) 0.094(6) 0.101(6) -0.018(5) -0.001(5) -0.076(5)
O1B 0.113(3) 0.0616(18) 0.099(2) -0.0138(15) 0.0151(18) -0.0506(18)
loop_
_atom_type_symbol
_atom_type_description
_atom_type_scat_dispersion_real
_atom_type_scat_dispersion_imag
_atom_type_scat_source
C C 0.0033 0.0016 'International Tables Vol C Tables 4.2.6.8 and 6.1.1.4'
H H 0.0000 0.0000 'International Tables Vol C Tables 4.2.6.8 and 6.1.1.4'
N N 0.0061 0.0033 'International Tables Vol C Tables 4.2.6.8 and 6.1.1.4'
Na Na 0.0362 0.0249 'International Tables Vol C Tables 4.2.6.8 and 6.1.1.4'
O O 0.0106 0.0060 'International Tables Vol C Tables 4.2.6.8 and 6.1.1.4'
loop_
_geom_angle_atom_site_label_1
_geom_angle_atom_site_label_2
_geom_angle_atom_site_label_3
_geom_angle
_geom_angle_site_symmetry_1
_geom_angle_site_symmetry_3
_geom_angle_publ_flag
N2 C1 N1 131.59(16) . . ?
N2 C1 N5 106.71(14) . . ?
N1 C1 N5 121.70(15) . . ?
N9 C2 N6 114.19(16) . . ?
N9 C2 N5 124.68(16) . . ?
N6 C2 N5 121.11(15) . . ?
N1 C3 N10 131.51(15) . . ?
N1 C3 N13 122.13(16) . . ?
N10 C3 N13 106.36(15) . . ?
N17 C4 N14 114.28(16) . . ?
N17 C4 N13 124.83(15) . . ?
N14 C4 N13 120.88(17) . . ?
C3 N1 C1 117.30(15) . . ?
C3 N1 Na1 115.94(10) . . ?
C1 N1 Na1 114.02(11) . . ?
C1 N2 N3 106.17(14) . . ?
C1 N2 Na1 120.45(11) . 2_666 ?
N3 N2 Na1 121.24(11) . 2_666 ?
N4 N3 N2 112.41(14) . . ?
N3 N4 N5 105.91(14) . . ?
N4 N5 C1 108.79(14) . . ?
N4 N5 C2 118.49(14) . . ?
C1 N5 C2 132.62(14) . . ?
C2 N6 N7 102.76(14) . . ?
N8 N7 N6 110.51(15) . . ?
N7 N8 N9 109.20(15) . . ?
N7 N8 Na1 114.68(12) . 2_656 ?
N9 N8 Na1 130.95(12) . 2_656 ?
C2 N9 N8 103.34(14) . . ?
C2 N9 Na1 123.08(12) . . ?
N8 N9 Na1 127.66(12) . . ?
C3 N10 N11 106.68(14) . . ?
C3 N10 Na1 120.27(11) . 2_666 ?
N11 N10 Na1 118.24(12) . 2_666 ?
N12 N11 N10 111.75(15) . . ?
N11 N12 N13 106.20(14) . . ?
N12 N13 C3 108.98(14) . . ?
N12 N13 C4 118.88(14) . . ?
C3 N13 C4 132.13(15) . . ?
C4 N14 N15 102.78(16) . . ?
N16 N15 N14 110.44(15) . . ?
N15 N16 N17 108.82(16) . . ?
C4 N17 N16 103.68(15) . . ?
C4 N17 Na1 123.02(12) . . ?
N16 N17 Na1 123.24(13) . . ?
H18A N18 H18B 112.1(14) . . ?
H18A N18 H18C 107.5(14) . . ?
H18B N18 H18C 109.7(14) . . ?
H18A N18 H18D 108.3(14) . . ?
H18B N18 H18D 109.7(14) . . ?
H18C N18 H18D 109.4(14) . . ?
H19A N19 H19B 111.6(15) . . ?
H19A N19 H19C 110.1(15) . . ?
H19B N19 H19C 108.6(15) . . ?
H19A N19 H19D 109.4(14) . . ?
H19B N19 H19D 108.1(15) . . ?
H19C N19 H19D 108.9(14) . . ?
N9 Na1 N17 105.92(7) . . ?
N9 Na1 N8 101.39(6) . 2_656 ?
N17 Na1 N8 99.40(6) . 2_656 ?
N9 Na1 N10 89.58(6) . 2_666 ?
N17 Na1 N10 144.25(6) . 2_666 ?
N8 Na1 N10 109.02(6) 2_656 2_666 ?
N9 Na1 N2 146.32(5) . 2_666 ?
N17 Na1 N2 85.17(6) . 2_666 ?
N8 Na1 N2 108.12(6) 2_656 2_666 ?
N10 Na1 N2 65.91(5) 2_666 2_666 ?
N9 Na1 N1 72.36(5) . . ?
N17 Na1 N1 71.60(5) . . ?
N8 Na1 N1 166.42(6) 2_656 . ?
N10 Na1 N1 83.33(5) 2_666 . ?
N2 Na1 N1 81.74(5) 2_666 . ?
H1AA O1A H1AB 104.5 . . ?
H1BB O1B H1BA 109.5 . . ?
loop_
_geom_bond_atom_site_label_1
_geom_bond_atom_site_label_2
_geom_bond_distance
_geom_bond_site_symmetry_2
_geom_bond_publ_flag
C1 N2 1.342(2) . ?
C1 N1 1.344(2) . ?
C1 N5 1.367(2) . ?
C2 N9 1.319(2) . ?
C2 N6 1.325(2) . ?
C2 N5 1.397(2) . ?
C3 N1 1.341(2) . ?
C3 N10 1.342(2) . ?
C3 N13 1.369(2) . ?
C4 N17 1.311(2) . ?
C4 N14 1.321(2) . ?
C4 N13 1.407(2) . ?
N1 Na1 2.6592(16) . ?
N2 N3 1.359(2) . ?
N2 Na1 2.5613(17) 2_666 ?
N3 N4 1.280(2) . ?
N4 N5 1.3674(19) . ?
N6 N7 1.347(2) . ?
N7 N8 1.303(2) . ?
N8 N9 1.355(2) . ?
N8 Na1 2.4463(17) 2_656 ?
N9 Na1 2.4277(17) . ?
N10 N11 1.364(2) . ?
N10 Na1 2.5309(17) 2_666 ?
N11 N12 1.283(2) . ?
N12 N13 1.366(2) . ?
N14 N15 1.349(2) . ?
N15 N16 1.301(2) . ?
N16 N17 1.356(2) . ?
N17 Na1 2.4386(18) . ?
N18 H18A 0.906(14) . ?
N18 H18B 0.890(14) . ?
N18 H18C 0.897(14) . ?
N18 H18D 0.902(14) . ?
N19 H19A 0.929(15) . ?
N19 H19B 0.935(16) . ?
N19 H19C 0.936(15) . ?
N19 H19D 0.929(16) . ?
O1A H1AA 0.8501 . ?
O1A H1AB 0.8500 . ?
O1B H1BB 0.8501 . ?
O1B H1BA 0.8500 . ?
loop_
_geom_hbond_atom_site_label_D
_geom_hbond_atom_site_label_H
_geom_hbond_atom_site_label_A
_geom_hbond_distance_DH
_geom_hbond_distance_HA
_geom_hbond_distance_DA
_geom_hbond_angle_DHA
_geom_hbond_site_symmetry_A
_geom_hbond_publ_flag
N18 H18A N7 0.906(14) 1.953(14) 2.856(2) 174.5(18) 1_655 yes
N18 H18B N3 0.890(14) 2.089(15) 2.898(2) 150.6(17) 1_645 yes
N18 H18C N2 0.897(14) 2.592(17) 3.254(2) 131.3(15) 2_666 yes
N18 H18C N10 0.897(14) 2.285(16) 3.051(2) 143.1(16) 2_666 yes
N18 H18D N15 0.902(14) 2.000(14) 2.882(2) 165.5(18) 1_556 yes
N19 H19A O1A^a 0.929(15) 2.25(2) 3.031(9) 140.8(18) . yes
N19 H19A O1B^b 0.929(15) 1.963(15) 2.889(3) 175(2) . yes
N19 H19B N12 0.935(16) 2.61(2) 3.155(2) 117.7(16) 1_556 yes
N19 H19B N14 0.935(16) 2.087(16) 2.994(3) 163.2(19) 1_556 yes
N19 H19C N1 0.936(15) 2.297(17) 3.138(2) 149.4(18) 2_666 yes
N19 H19D N4 0.929(16) 2.315(18) 3.112(2) 143.7(18) 1_655 yes
N19 H19D N6 0.929(16) 2.463(19) 3.243(2) 141.6(17) 1_655 yes
O1A^a H1AA^a N19 0.85 2.51 3.031(9) 120.4 . yes
O1B^b H1BB^b N18 0.85 2.62 3.222(3) 129.2 1_565 yes
O1B^b H1BA^b N11 0.85 2.37 3.100(3) 144.3 2_676 yes
