#------------------------------------------------------------------------------
#$Date: 2021-11-06 22:14:08 +0200 (Sat, 06 Nov 2021) $
#$Revision: 270461 $
#$URL: file:///home/coder/svn-repositories/cod/cif/7/24/36/7243620.cif $
#------------------------------------------------------------------------------
#
# This file is available in the Crystallography Open Database (COD),
# http://www.crystallography.net/
#
# All data on this site have been placed in the public domain by the
# contributors.
#
data_7243620
loop_
_publ_author_name
'Xiang, Shiqun'
'Fan, Weibin'
'Zhang, Wei'
'Li, Yinghua'
'Guo, Shiwei'
'Huang, Deguang'
_publ_section_title
;
 Aqueous CO2 fixation: construction of pyridine skeletons in cooperation
 with ammonium cations
;
_journal_issue                   20
_journal_name_full               'Green Chemistry'
_journal_page_first              7950
_journal_page_last               7955
_journal_paper_doi               10.1039/D1GC02303A
_journal_volume                  23
_journal_year                    2021
_chemical_formula_moiety         'C19 H11 Cl2 N'
_chemical_formula_sum            'C19 H11 Cl2 N'
_chemical_formula_weight         324.19
_space_group_crystal_system      triclinic
_space_group_IT_number           2
_space_group_name_Hall           '-P 1'
_space_group_name_H-M_alt        'P -1'
_atom_sites_solution_hydrogens   geom
_audit_creation_method           SHELXL-2018/3
_audit_update_record
;
2021-09-10 deposited with the CCDC.	2021-09-13 downloaded from the CCDC.
;
_cell_angle_alpha                87.021(4)
_cell_angle_beta                 75.797(4)
_cell_angle_gamma                68.795(5)
_cell_formula_units_Z            2
_cell_length_a                   7.1916(3)
_cell_length_b                   8.2658(4)
_cell_length_c                   13.5299(5)
_cell_measurement_reflns_used    5888
_cell_measurement_temperature    150(2)
_cell_measurement_theta_max      72.3740
_cell_measurement_theta_min      5.7070
_cell_volume                     726.30(6)
_computing_cell_refinement       'CrysAlisPro 1.171.40.68a (Rigaku OD, 2019)'
_computing_data_collection       'CrysAlisPro 1.171.40.68a (Rigaku OD, 2019)'
_computing_data_reduction        'CrysAlisPro 1.171.40.68a (Rigaku OD, 2019)'
_computing_structure_refinement  'SHELXL-2018/3 (Sheldrick, 2018)'
_diffrn_ambient_temperature      150(2)
_diffrn_detector_area_resol_mean 10.5594
_diffrn_measured_fraction_theta_full 0.997
_diffrn_measured_fraction_theta_max 0.994
_diffrn_measurement_device_type  'SuperNova, Dual, Cu at home/near, Atlas'
_diffrn_measurement_method       '\w scans'
_diffrn_radiation_type           CuK\a
_diffrn_radiation_wavelength     1.54184
_diffrn_reflns_av_R_equivalents  0.0432
_diffrn_reflns_av_unetI/netI     0.0264
_diffrn_reflns_Laue_measured_fraction_full 0.997
_diffrn_reflns_Laue_measured_fraction_max 0.994
_diffrn_reflns_limit_h_max       8
_diffrn_reflns_limit_h_min       -8
_diffrn_reflns_limit_k_max       10
_diffrn_reflns_limit_k_min       -10
_diffrn_reflns_limit_l_max       16
_diffrn_reflns_limit_l_min       -16
_diffrn_reflns_number            13120
_diffrn_reflns_point_group_measured_fraction_full 0.997
_diffrn_reflns_point_group_measured_fraction_max 0.994
_diffrn_reflns_theta_full        67.684
_diffrn_reflns_theta_max         69.975
_diffrn_reflns_theta_min         5.746
_diffrn_source                   'micro-focus sealed X-ray tube'
_exptl_absorpt_coefficient_mu    3.957
_exptl_absorpt_correction_T_max  1.00000
_exptl_absorpt_correction_T_min  0.57804
_exptl_absorpt_correction_type   multi-scan
_exptl_absorpt_process_details
; 
CrysAlisPro 1.171.40.68a (Rigaku Oxford Diffraction, 2019) 
Empirical absorption correction using spherical harmonics, 
 implemented in SCALE3 ABSPACK scaling algorithm. 
;
_exptl_crystal_colour            colourless
_exptl_crystal_density_diffrn    1.482
_exptl_crystal_description       prism
_exptl_crystal_F_000             332
_exptl_crystal_size_max          0.240
_exptl_crystal_size_mid          0.160
_exptl_crystal_size_min          0.080
_refine_diff_density_max         0.426
_refine_diff_density_min         -0.349
_refine_diff_density_rms         0.067
_refine_ls_extinction_method     none
_refine_ls_goodness_of_fit_ref   1.087
_refine_ls_hydrogen_treatment    constr
_refine_ls_matrix_type           full
_refine_ls_number_parameters     199
_refine_ls_number_reflns         2737
_refine_ls_number_restraints     0
_refine_ls_restrained_S_all      1.087
_refine_ls_R_factor_all          0.0496
_refine_ls_R_factor_gt           0.0432
_refine_ls_shift/su_max          0.000
_refine_ls_shift/su_mean         0.000
_refine_ls_structure_factor_coef Fsqd
_refine_ls_weighting_details
'w=1/[\s^2^(Fo^2^)+(0.0866P)^2^+0.1697P] where P=(Fo^2^+2Fc^2^)/3'
_refine_ls_weighting_scheme      calc
_refine_ls_wR_factor_gt          0.1269
_refine_ls_wR_factor_ref         0.1327
_reflns_Friedel_coverage         0.000
_reflns_number_gt                2419
_reflns_number_total             2737
_reflns_threshold_expression     'I > 2\s(I)'
_cod_data_source_file            d1gc02303a2.cif
_cod_data_source_block           Compound2k
_cod_depositor_comments
'Adding full bibliography for 7243618--7243621.cif.'
_cod_original_cell_volume        726.29(6)
_cod_database_code               7243620
_shelx_shelxl_version_number     2018/3
_shelx_space_group_comment
; 
The symmetry employed for this shelxl refinement is uniquely defined 
by the following loop, which should always be used as a source of 
symmetry information in preference to the above space-group names. 
They are only intended as comments. 
;
_shelx_estimated_absorpt_t_min   0.450
_shelx_estimated_absorpt_t_max   0.743
_shelx_res_file
; 
TITL Compound2k.res in P-1 
    full.res 
    created by SHELXL-2018/3 at 23:15:35 on 09-Sep-2021 
CELL 1.54184 7.191556 8.265787 13.529905 87.0213 75.7967 68.7955 
ZERR 2 0.000344 0.000411 0.000542 0.0036 0.0038 0.0045 
LATT 1 
SFAC C H Cl N 
UNIT 38 22 4 2 
SIZE 0.24 0.16 0.08 
TEMP -123 
REM colourless prism 
  
L.S.  4 
PLAN  2 
MORE -1 
BOND $H 
CONF 
fmap 2 
acta 
OMIT 0 140 
OMIT 8  1  0 
OMIT 3  3  4 
OMIT 3  3  5 
OMIT 4  4  5 
OMIT 8  3  10 
OMIT 5  5  6 
OMIT 4  4  4 
OMIT 2  2  3 
  
WGHT    0.086600    0.169700 
FVAR       5.13837 
CL1   3    0.814743    0.289308   -0.084119    11.00000    0.07236    0.04789 = 
         0.03897   -0.00756   -0.02224   -0.01946 
CL2   3    0.570064    0.987961    0.866483    11.00000    0.05154    0.03859 = 
         0.03826   -0.01376   -0.00952   -0.01359 
N1    4    0.745700    0.573730    0.401444    11.00000    0.02570    0.02740 = 
         0.03328   -0.00624   -0.00668   -0.00834 
C1    1    0.787741    0.429496    0.345230    11.00000    0.02161    0.02986 = 
         0.03397   -0.00648   -0.00607   -0.00922 
C2    1    0.794696    0.422696    0.236451    11.00000    0.02401    0.03105 = 
         0.03537   -0.00820   -0.00673   -0.00907 
C3    1    0.758517    0.553996    0.167287    11.00000    0.03794    0.03032 = 
         0.03763   -0.00567   -0.00988   -0.00840 
AFIX  43 
H3    2    0.729662    0.670610    0.187593    11.00000   -1.20000 
AFIX   0 
C4    1    0.765123    0.512454    0.068458    11.00000    0.04769    0.03642 = 
         0.03784   -0.00294   -0.01365   -0.01057 
AFIX  43 
H4    2    0.739640    0.600493    0.020191    11.00000   -1.20000 
AFIX   0 
C5    1    0.809658    0.339674    0.040309    11.00000    0.03815    0.04352 = 
         0.03424   -0.00994   -0.00982   -0.01241 
C6    1    0.848590    0.207124    0.107351    11.00000    0.03040    0.03435 = 
         0.03823   -0.01043   -0.00635   -0.01135 
AFIX  43 
H6    2    0.880351    0.090391    0.086171    11.00000   -1.20000 
AFIX   0 
C7    1    0.839960    0.249445    0.206719    11.00000    0.02365    0.03197 = 
         0.03542   -0.00767   -0.00641   -0.00998 
C8    1    0.867228    0.134398    0.296028    11.00000    0.03048    0.03022 = 
         0.03717   -0.00786   -0.00642   -0.01230 
AFIX  23 
H8A   2    1.008217    0.046502    0.283408    11.00000   -1.20000 
H8B   2    0.767014    0.074624    0.310826    11.00000   -1.20000 
AFIX   0 
C9    1    0.827794    0.260875    0.381995    11.00000    0.02312    0.02949 = 
         0.03647   -0.00717   -0.00471   -0.01024 
C10   1    0.824062    0.235132    0.484384    11.00000    0.02917    0.02844 = 
         0.03705   -0.00326   -0.00600   -0.01113 
AFIX  43 
H10   2    0.848723    0.123373    0.511994    11.00000   -1.20000 
AFIX   0 
C11   1    0.782460    0.380950    0.544535    11.00000    0.02354    0.03010 = 
         0.03306   -0.00436   -0.00445   -0.01010 
C12   1    0.768955    0.398996    0.656483    11.00000    0.03326    0.02838 = 
         0.03319   -0.00337   -0.00510   -0.01107 
AFIX  23 
H12A  2    0.902192    0.332332    0.672834    11.00000   -1.20000 
H12B  2    0.661319    0.359402    0.698769    11.00000   -1.20000 
AFIX   0 
C13   1    0.713292    0.591900    0.672302    11.00000    0.02380    0.03042 = 
         0.03418   -0.00488   -0.00579   -0.00976 
C14   1    0.673968    0.687572    0.761474    11.00000    0.02919    0.03288 = 
         0.03206   -0.00378   -0.00619   -0.01031 
AFIX  43 
H14   2    0.681572    0.632675    0.824576    11.00000   -1.20000 
AFIX   0 
C15   1    0.623272    0.865751    0.755377    11.00000    0.02777    0.03415 = 
         0.03566   -0.00994   -0.00611   -0.01145 
C16   1    0.614977    0.949832    0.663807    11.00000    0.03084    0.02784 = 
         0.04123   -0.00675   -0.00904   -0.00935 
AFIX  43 
H16   2    0.580542    1.072105    0.662295    11.00000   -1.20000 
AFIX   0 
C17   1    0.657715    0.852751    0.574394    11.00000    0.02901    0.02940 = 
         0.03570   -0.00438   -0.00786   -0.01017 
AFIX  43 
H17   2    0.655504    0.907363    0.510932    11.00000   -1.20000 
AFIX   0 
C18   1    0.703747    0.674156    0.579741    11.00000    0.02179    0.02880 = 
         0.03292   -0.00401   -0.00715   -0.00842 
C19   1    0.745762    0.543196    0.499979    11.00000    0.02171    0.02660 = 
         0.03614   -0.00396   -0.00555   -0.00916 
  
HKLF 4 
  
  
  
  
REM  Compound2k.res in P-1 
REM wR2 = 0.1327, GooF = S = 1.087, Restrained GooF = 1.087 for all data 
REM R1 = 0.0432 for 2419 Fo > 4sig(Fo) and 0.0496 for all 2737 data 
REM 199 parameters refined using 0 restraints 
  
END 
  
WGHT      0.0867      0.1698 
  
REM Highest difference peak  0.426,  deepest hole -0.349,  1-sigma level  0.067 
Q1    1   0.6305  0.8836  0.9060  11.00000  0.05    0.43 
Q2    1   0.7023  0.6182  0.6364  11.00000  0.05    0.31 
;
_shelx_res_checksum              87298
_shelx_hkl_file
; 
   0   0   2 80.5784 24.7229  11 
   0   0   2 71.6513 35.1239  29 
   0   0  -2 86.7542 21.8416  26 
   0   0   3 3508.59 193.890  11 
   0   0  -3 3381.60 152.432  26 
   0   0   4 34245.4 695.575  11 
   0   0   4 32673.7 965.849  29 
   0   0  -4 34375.4 559.368  26 
   0   0  -4 34566.5 776.202  24 
   0   0   5 29934.2 732.950  11 
   0   0   5 30856.4 672.663  27 
   0   0   5 29294.7 1033.43  29 
   0   0   5 27877.2 862.094  30 
   0   0  -5 31326.0 830.337  28 
   0   0  -5 29781.5 600.359  26 
   0   0  -5 29568.7 813.506  24 
   0   0  -5 30800.2 728.003  25 
   0   0   6 4240.25 310.178  11 
   0   0   6 4550.43 287.338  27 
   0   0   6 4140.41 359.305  30 
   0   0   6 4224.24 437.491  29 
   0   0  -6 4779.84 370.077  28 
   0   0  -6 4566.66 266.038  26 
   0   0  -6 4374.89 309.160  25 
   0   0  -6 4640.27 354.448  24 
   0   0   7 9954.84 523.655  11 
   0   0  -7 10418.8 603.089  28 
   0   0   7 8986.91 716.660  29 
   0   0   7 9768.52 595.280  30 
   0   0   7 9549.13 463.482  27 
   0   0  -7 9678.65 555.747  24 
   0   0  -7 9960.02 520.593  25 
   0   0   8 542.941 136.087  11 
   0   0   8 475.575 151.922  29 
   0   0   8 718.199 143.899  27 
   0   0  -8 577.608 153.698  28 
   0   0  -8 631.526 143.491  25 
   0   0   9 2239.02 296.253  11 
   0   0   9 2234.36 419.272  29 
   0   0  -9 2404.63 344.315  28 
   0   0   9 2358.56 271.305  27 
   0   0  -9 2474.95 318.469  25 
   0   0  10 217.265 101.052  11 
   0   0 -10 94.8479 29.6503  31 
   0   0  10 32.4166 42.6191  27 
   0   0 -10 33.4607 86.3589  28 
   0   0  10 120.502 37.8431  32 
   0   0 -10 119.097 41.6430  23 
   0   0 -10 130.022 122.457  25 
   0   0  11 4040.67 453.700  11 
   0   0  11 4242.48 416.055  27 
   0   0  11 4536.26 673.159  29 
   0   0 -11 3884.56 502.393  28 
   0   0  11 4626.86 293.334  32 
   0   0 -11 4069.03 196.968  31 
   0   0 -11 4465.25 208.785  23 
   0   0 -11 4588.69 493.690  25 
   0   0 -12 4315.67 199.319  31 
   0   0  12 4497.55 284.972  32 
   0   0 -12 4523.36 206.132  23 
   0   0  12 4115.60 285.743  21 
   0   0 -13 57.3730 34.2022  31 
   0   0  13 63.1305 41.3592  32 
   0   0 -13 25.2876 28.7883  23 
   0   0  13 71.9543 53.1201  21 
   0   0  14 634.860 93.1828  13 
   0   0 -14 632.641 68.1673  31 
   0   0  14 679.015 96.9980  32 
   0   0  14 693.949 103.408  21 
   0   0 -14 693.671 78.0296  23 
   0   0 -15 120.771 29.2444  31 
   0   0  15 181.606 39.7580  32 
   0   0  15 85.6823 30.1369  21 
   0   0 -15 137.692 34.1453  23 
   0   0  16 22.7332 19.0922  15 
   0   0 -16 24.4546 16.0405  16 
   0   0 -16 53.4694 19.1482  23 
  -1  -1 -16 380.574 44.1986  16 
  -1  -1 -16 523.795 45.8869  23 
   1   1  16 557.728 72.9079  21 
  -1  -1 -15 348.148 57.1251  16 
   1   1  15 338.642 62.8456  21 
  -1  -1 -15 360.877 46.3955  23 
  -1  -1 -14 519.192 68.9277  31 
  -1  -1 -14 580.640 68.4857  23 
   1   1  14 579.703 100.811  21 
  -1  -1 -13 5265.58 214.758  31 
   1   1  13 4895.93 314.501  21 
  -1  -1 -13 5720.85 222.099  23 
  -1  -1 -12 405.254 61.6534  31 
   1   1  12 327.534 67.7457  32 
  -1  -1 -12 465.886 63.9078  23 
   1   1  12 300.912 78.8247  21 
   1   1  11 8064.78 637.152  11 
   1   1  11 7048.05 508.122  27 
  -1  -1 -11 7718.63 258.028  31 
   1   1  11 7706.30 345.998  32 
  -1  -1 -11 7681.15 261.271  23 
  -1  -1 -11 7823.19 658.072  25 
   1   1  10 7279.18 571.465  11 
  -1  -1 -10 7273.65 235.521  31 
   1   1  10 7673.42 764.967  29 
   1   1  10 6945.69 476.154  27 
  -1  -1 -10 7845.71 617.872  25 
  -1  -1 -10 7593.74 251.054  23 
   1   1   9 11056.9 660.495  11 
  -1  -1  -9 11569.0 740.956  28 
   1   1   9 10938.1 558.353  27 
   1   1   9 10816.2 814.039  30 
   1   1   9 11315.3 865.221  29 
  -1  -1  -9 11376.4 679.526  25 
   1   1   8 32189.7 1038.60  11 
   1   1   8 33098.3 891.539  27 
  -1  -1  -8 36417.2 1197.21  28 
   1   1   8 29967.1 1296.51  30 
   1   1   8 33070.0 1355.16  29 
  -1  -1  -8 34966.1 1092.10  25 
   1   1   7 31826.5 947.487  11 
  -1  -1  -7 35527.8 1087.39  28 
   1   1   7 33771.0 814.144  27 
   1   1   7 29829.7 1215.86  30 
   1   1   7 32049.0 1210.79  29 
  -1  -1  -7 31465.1 702.430  26 
  -1  -1  -7 32221.9 947.191  25 
   1   1   6 21718.3 720.801  11 
   1   1   6 20004.2 917.824  30 
   1   1   6 20676.1 862.097  29 
  -1  -1  -6 23438.5 801.785  28 
   1   1   6 22073.3 594.585  27 
  -1  -1  -6 20881.3 684.317  25 
  -1  -1  -6 20505.4 561.033  26 
   1   1   5 7138.51 376.903  11 
  -1  -1  -5 5876.22 246.944   4 
  -1  -1  -5 6055.84 279.289   2 
   1   1   5 7072.48 298.707  27 
   1   1   5 6453.08 476.142  30 
  -1  -1  -5 7233.30 400.105  28 
   1   1   5 6637.27 424.865  29 
  -1  -1  -5 6795.58 297.629  26 
  -1  -1  -5 6313.54 230.653  24 
  -1  -1  -5 6336.16 338.857  25 
   1   1   4 24099.1 638.652  11 
  -1  -1  -4 21668.2 564.146   2 
  -1  -1  -4 20225.4 508.923   4 
  -1  -1  -4 21143.8 567.440   1 
   1   1   4 23586.7 710.516  29 
   1   1   4 22887.1 825.608  30 
   1   1   4 24964.7 491.572  27 
  -1  -1  -4 22008.7 556.400  25 
  -1  -1  -4 22573.4 502.591  26 
  -1  -1  -3 7142.08 338.687   1 
  -1  -1  -3 6889.15 343.611   2 
  -1  -1  -3 6748.85 306.987   4 
   1   1   3 7300.21 227.995  27 
  -1  -1  -2 1792.73 180.103   1 
  -1  -1  -2 2014.46 184.458   2 
  -1  -1  -2 1484.86 108.186   9 
  -1  -1  -2 1768.75 156.590   4 
   1   1   2 2621.07 159.353  29 
   1   1   2 1530.48 81.8328  27 
   1   1   2 2646.66 151.238  24 
  -1  -1  -2 1213.86 98.7281  26 
  -1  -1  -1 2607.14 117.650   9 
  -1  -1  -1 4674.40 268.593   2 
  -1  -1  -1 4232.91 245.833   4 
  -1  -1  -1 4009.58 307.524   1 
   1   1   1 4237.23 164.617  29 
   1   1   1 4842.98 259.814  30 
  -1  -1  -1 2529.70 135.221  25 
   1   1   1 4969.02 242.734  24 
  -1  -1   0 590.987 99.6381   1 
  -1  -1   0 558.441 94.2786   2 
  -1  -1   0 638.691 65.9923   9 
   1   1   0 517.164 68.1815  30 
   1   1   0 555.079 85.6165  24 
  -1  -1   1 30017.0 492.132  11 
  -1  -1   1 31573.4 682.771   4 
  -1  -1   1 31859.3 724.461   1 
  -1  -1   1 30994.9 707.827   2 
  -1  -1   1 31319.6 511.349   9 
   1   1  -1 30946.6 489.931  30 
  -1  -1   1 29036.9 372.652  27 
   1   1  -1 31062.3 729.440  24 
  -1  -1   2 38278.7 610.565  11 
  -1  -1   2 38720.3 790.076   2 
  -1  -1   2 39910.1 767.701   4 
  -1  -1   2 38016.5 789.018   1 
  -1  -1   2 36537.4 523.289  27 
   1   1  -2 38339.4 908.942  24 
  -1  -1   3 14958.6 435.890  11 
  -1  -1   3 14073.4 470.286   1 
  -1  -1   3 14220.8 467.266   2 
  -1  -1   3 14740.1 457.946   4 
  -1  -1   3 14817.8 393.543  27 
   1   1  -3 13558.7 363.889  26 
   1   1  -3 15025.7 626.115  24 
  -1  -1   4 101.274 44.9953  11 
  -1  -1   4 53.2312 26.3890   2 
  -1  -1   4 79.2158 36.5949   4 
  -1  -1   4 113.405 36.2660   1 
   1   1  -4 118.328 69.3714  28 
  -1  -1   4 91.8036 34.0581  27 
  -1  -1   4 35.5152 52.9838  29 
   1   1  -4 109.071 63.6263  24 
   1   1  -4 74.1144 25.6764  26 
  -1  -1   5 32702.5 809.852  11 
  -1  -1   5 32234.3 1238.62  29 
   1   1  -5 32647.6 916.456  28 
  -1  -1   5 32568.9 761.026  27 
   1   1  -5 30710.0 648.039  26 
   1   1  -5 34089.5 1118.47  24 
   1   1  -5 35795.3 840.878  25 
  -1  -1   6 2075.87 226.865  11 
   1   1  -6 2287.92 271.389  28 
  -1  -1   6 2321.35 227.408  27 
  -1  -1   6 2279.97 360.419  29 
   1   1  -6 2292.76 191.839  26 
   1   1  -6 1939.55 282.811  24 
   1   1  -6 2253.63 236.127  25 
  -1  -1   7 28514.7 922.291  11 
   1   1  -7 29641.1 1068.00  28 
  -1  -1   7 29816.0 885.700  27 
  -1  -1   7 28159.7 1391.53  29 
   1   1  -7 30150.3 1238.30  24 
   1   1  -7 29971.4 946.304  25 
  -1  -1   8 104.992 61.1079  11 
  -1  -1   8 43.4428 81.5155  27 
   1   1  -8 160.440 100.893  28 
  -1  -1   8-52.0747 76.6335  29 
   1   1  -8 72.4720 69.8991  24 
   1   1  -8 64.7998 40.7017  25 
  -1  -1   9 471.136 150.334  11 
  -1  -1   9 216.940 144.321  29 
   1   1  -9 504.546 157.008  28 
  -1  -1   9 456.775 87.4215  32 
   1   1  -9 471.760 63.0128  31 
  -1  -1   9 462.913 132.670  27 
   1   1  -9 440.472 63.5033  23 
   1   1  -9 548.283 159.904  25 
  -1  -1  10 8867.96 660.537  11 
  -1  -1  10 8992.73 413.130  32 
  -1  -1  10 9086.48 610.554  27 
  -1  -1  10 10048.0 1027.19  29 
   1   1 -10 8750.63 276.280  31 
   1   1 -10 8562.74 737.232  28 
   1   1 -10 9087.78 668.435  25 
   1   1 -10 8719.66 288.829  23 
   1   1 -11 17176.4 389.257  31 
  -1  -1  11 17345.6 580.157  32 
  -1  -1  11 16766.4 550.644  21 
   1   1 -11 17299.4 411.217  23 
   1   1 -12 1582.17 122.025  31 
  -1  -1  12 1763.68 182.332  32 
  -1  -1  12 1740.17 173.211  21 
   1   1 -12 1897.43 135.776  23 
  -1  -1  13 5.82349 24.3774  13 
   1   1 -13 30.2220 16.8253  31 
  -1  -1  13 70.2526 35.9883  32 
  -1  -1  13 62.4184 36.1148  21 
   1   1 -13 40.7772 27.5353  23 
  -1  -1  14 1196.75 127.700  13 
  -1  -1  14 1169.69 119.812  15 
   1   1 -14 1213.73 82.0533  31 
  -1  -1  14 1394.61 135.357  32 
   1   1 -14 1439.94 99.0590  23 
  -1  -1  15 909.009 85.7595  13 
  -1  -1  15 867.667 81.3228  15 
  -1  -1  15 1066.99 97.8303  32 
   1   1 -15 1091.94 71.9096  23 
  -2  -2 -16 7487.82 187.822  16 
   2   2  16 7331.63 261.473  21 
  -2  -2 -15 1857.61 116.701  16 
   2   2  15 1956.02 134.304  33 
  -2  -2 -15 2233.43 115.894  23 
   2   2  15 1995.60 166.775  21 
  -2  -2 -14 1875.85 127.843  16 
   2   2  14 1671.42 151.827  33 
   2   2  14 1805.97 182.144  21 
  -2  -2 -14 1970.99 121.790  23 
  -2  -2 -13 74.9688 35.9366  16 
  -2  -2 -13 15.3296 19.6957  31 
   2   2  13-1.42054 30.0319  21 
  -2  -2 -13-30.5192 36.7653  23 
  -2  -2 -12 3133.68 169.424  31 
  -2  -2 -12 3268.34 168.346  23 
   2   2  12 3041.41 254.860  21 
   2   2  11 3500.98 424.378  11 
  -2  -2 -11 3399.55 175.322  31 
  -2  -2 -11 3694.81 180.107  23 
  -2  -2 -11 3599.05 464.203  25 
   2   2  11 3500.11 268.610  21 
   2   2  10 133.097 90.1933  11 
   2   2  10 341.338 99.5202  27 
  -2  -2 -10 191.222 34.1991  31 
   2   2  10 358.109 152.424  30 
  -2  -2 -10 324.339 53.3937  23 
  -2  -2 -10 322.414 135.820  25 
   2   2   9 202.023 109.587  11 
   2   2   9 217.947 75.3179  27 
  -2  -2  -9 114.893 27.2877  31 
   2   2   9 77.7130 82.7026  30 
  -2  -2  -9 182.289 36.0130  23 
  -2  -2  -9 229.158 88.9193  25 
   2   2   8 484.447 138.251  11 
   2   2   8 505.540 144.724  30 
   2   2   8 538.077 110.521  27 
  -2  -2  -8 525.246 138.296  25 
   2   2   7 12124.3 626.067  11 
   2   2   7 12170.4 651.350  29 
   2   2   7 11386.5 835.882  30 
   2   2   7 11723.8 450.848  27 
  -2  -2  -7 11687.6 613.185  25 
   2   2   6 42275.9 1095.32  11 
  -2  -2  -6 40983.9 1188.84   1 
  -2  -2  -6 43417.8 1204.84   2 
   2   2   6 40228.0 749.097  27 
   2   2   6 42476.5 1086.87  29 
   2   2   6 38362.2 1468.26  30 
  -2  -2  -6 41485.4 1063.56  25 
   2   2   5 44029.9 1059.30  11 
  -2  -2  -5 50191.4 1361.13   2 
  -2  -2  -5 48681.4 1368.36   1 
  -2  -2  -5 54079.9 1268.36   4 
   2   2   5 49120.3 1069.57  29 
   2   2   5 48155.2 1484.84  30 
   2   2   5 47800.0 724.021  27 
  -2  -2  -5 47090.6 1047.57  25 
  -2  -2  -4 826.353 164.150   4 
  -2  -2  -4 896.918 179.407   1 
  -2  -2  -4 1102.37 205.908   2 
   2   2   4 759.925 78.8884  27 
   2   2   4 1050.16 220.341  30 
   2   2   4 1039.58 139.339  29 
   2   2   4 1022.87 112.871  24 
  -2  -2  -4 701.109 121.929  25 
  -2  -2  -3 15837.8 464.820   9 
  -2  -2  -3 29709.3 1040.63   2 
  -2  -2  -3 32492.7 1044.32   1 
  -2  -2  -3 28228.2 916.547   4 
   2   2   3 27547.3 1031.41  30 
   2   2   3 26492.3 580.313  29 
   2   2   3 33197.5 734.827  24 
  -2  -2  -2 34006.3 1087.60   1 
  -2  -2  -2 17357.3 454.669   9 
  -2  -2  -2 21435.8 978.089   4 
  -2  -2  -2 30489.1 1094.90   2 
   2   2   2 19162.2 274.921  27 
   2   2   2 14602.1 497.297  29 
   2   2   2 32907.7 971.368  30 
   2   2   2 34305.7 836.667  24 
  -2  -2  -2 17551.5 523.514  25 
  -2  -2  -1 14988.1 427.920   9 
  -2  -2  -1 13407.4 670.586   2 
  -2  -2  -1 12800.1 659.543   1 
  -2  -2  -1 12917.1 622.243   4 
   2   2   1 13879.2 581.895  30 
   2   2   1 15488.5 615.202  24 
  -2  -2  -1 16266.4 508.096  25 
  -2  -2   0 6363.54 462.603   2 
  -2  -2   0 6883.77 456.913   4 
  -2  -2   0 7414.02 306.161   9 
  -2  -2   0 6807.13 485.402   1 
   2   2   0 6979.76 346.574  28 
   2   2   0 6340.93 370.280  30 
   2   2   0 6758.92 426.717  24 
  -2  -2   1 919.270 166.403   4 
  -2  -2   1 771.779 166.014   1 
  -2  -2   1 841.143 110.199   9 
  -2  -2   1 831.864 169.661   2 
   2   2  -1 833.093 123.820  30 
  -2  -2   1 884.070 83.6386  27 
   2   2  -1 789.188 122.482  28 
   2   2  -1 838.089 159.489  24 
  -2  -2   2 19246.5 578.182  11 
  -2  -2   2 18676.0 812.730   1 
  -2  -2   2 19974.8 607.479   9 
  -2  -2   2 18876.1 805.111   2 
  -2  -2   2 19053.5 775.846   4 
   2   2  -2 18347.7 484.908  30 
  -2  -2   2 19698.8 464.852  27 
   2   2  -2 19436.1 642.111  28 
   2   2  -2 19084.4 825.705  24 
  -2  -2   3 67155.5 1138.20  11 
  -2  -2   3 66493.3 1260.13   9 
  -2  -2   3 63565.1 1475.24   2 
  -2  -2   3 63127.1 1483.39   1 
  -2  -2   3 64210.4 1428.51   4 
   2   2  -3 65357.1 1282.56  28 
  -2  -2   3 67009.5 984.944  27 
   2   2  -3 65342.6 1638.04  24 
  -2  -2   4 12789.5 533.514  11 
  -2  -2   4 13278.0 628.822   4 
  -2  -2   4 13336.7 628.996   9 
  -2  -2   4 13070.2 655.341   2 
  -2  -2   4 12455.2 648.451   1 
  -2  -2   4 13679.4 503.023  27 
  -2  -2   4 14120.4 853.289  29 
   2   2  -4 13142.7 623.175  28 
   2   2  -4 12561.4 491.424  26 
   2   2  -4 13547.3 798.391  24 
  -2  -2   5 142.208 69.2791  11 
  -2  -2   5 61.6690 41.2831   9 
   2   2  -5 88.1254 53.1588  28 
  -2  -2   5 135.784 62.0916  27 
  -2  -2   5 29.2390 63.2278  29 
   2   2  -5 134.005 89.9842  24 
   2   2  -5 9.78703 38.6212  26 
  -2  -2   6 1217.68 197.174  11 
  -2  -2   6 1168.12 225.333   9 
   2   2  -6 1363.83 236.794  28 
  -2  -2   6 1261.35 190.116  27 
  -2  -2   6 1308.50 323.829  29 
   2   2  -6 1351.05 178.441  26 
   2   2  -6 1173.28 276.637  24 
   2   2  -6 1292.31 201.757  25 
  -2  -2   7 6559.34 486.132  11 
  -2  -2   7 6000.48 544.885   9 
  -2  -2   7 6743.74 754.496  29 
  -2  -2   7 6707.84 472.943  27 
   2   2  -7 7035.09 568.947  28 
   2   2  -7 6874.80 492.627  25 
   2   2  -7 6839.02 692.472  24 
  -2  -2   8 3177.47 144.676  14 
  -2  -2   8 2675.61 338.730  11 
  -2  -2   8 2975.35 148.154  18 
  -2  -2   8 2869.90 397.384   9 
   2   2  -8 3150.84 161.353  31 
  -2  -2   8 3471.34 576.525  29 
  -2  -2   8 2947.53 337.936  27 
   2   2  -8 3111.15 409.215  28 
  -2  -2   8 3378.35 250.268  32 
   2   2  -8 3164.47 359.936  25 
   2   2  -8 2852.15 161.728  23 
   2   2  -8 3544.46 532.811  24 
  -2  -2   9 1530.29 270.330  11 
  -2  -2   9 1531.33 112.527  18 
  -2  -2   9 1384.72 290.425   9 
  -2  -2   9 1859.45 445.387  29 
   2   2  -9 1939.17 344.518  28 
  -2  -2   9 1677.58 181.431  32 
   2   2  -9 1637.51 123.830  31 
  -2  -2   9 1948.85 284.229  27 
   2   2  -9 1590.18 129.934  23 
   2   2  -9 1676.48 282.472  25 
  -2  -2  10 3532.91 289.834  13 
  -2  -2  10 3494.81 266.632  32 
   2   2 -10 3169.27 174.990  31 
   2   2 -10 3415.64 189.834  23 
  -2  -2  11 522.428 95.9861  15 
  -2  -2  11 537.300 114.168  13 
   2   2 -11 449.821 64.5022  31 
  -2  -2  11 522.952 100.091  32 
   2   2 -11 608.643 80.5401  23 
  -2  -2  12 993.452 120.215  15 
  -2  -2  12 1106.24 146.077  13 
  -2  -2  12 998.392 132.798  32 
   2   2 -12 993.776 86.4403  31 
   2   2 -12 1137.76 102.825  23 
  -2  -2  13 3.89908 20.9498  13 
  -2  -2  13-5.53686 17.8373  15 
  -2  -2  13 38.3557 33.9410  32 
   2   2 -13 61.6919 34.5076  23 
  -2  -2  14 70.8009 26.6260  13 
  -2  -2  14 134.874 39.5245  32 
   2   2 -14 110.460 29.0936  23 
  -3  -3 -16 32.5259 12.9992  16 
  -3  -3 -16 25.9481 13.1897  23 
  -3  -3 -15 403.753 52.5961  16 
   3   3  15 331.896 61.2111  33 
   3   3  15 333.097 59.3189  21 
  -3  -3 -15 443.404 51.3534  23 
  -3  -3 -14 3979.02 177.624  16 
   3   3  14 3385.66 220.721  33 
   3   3  14 3632.98 232.053  21 
  -3  -3 -14 4058.16 168.147  23 
  -3  -3 -13 4814.91 209.524  16 
  -3  -3 -13 4500.45 190.967  23 
   3   3  13 4254.32 273.410  21 
  -3  -3 -12 1507.82 120.451  16 
  -3  -3 -12 1467.07 109.001  23 
   3   3  12 1369.57 164.731  21 
  -3  -3 -11 14309.4 375.372  16 
  -3  -3 -11 14027.5 349.928  23 
   3   3  11 13694.9 521.906  21 
  -3  -3 -10 104.503 38.1026  16 
   3   3  10 89.0184 68.4720  11 
  -3  -3 -10 162.283 39.3564  23 
   3   3  10 79.3914 37.2185  21 
  -3  -3  -9 40935.3 612.091  16 
   3   3   9 38288.3 1374.17  11 
   3   3   9 38595.1 1942.03  30 
  -3  -3  -9 42339.2 569.272  23 
  -3  -3  -9 41902.6 1478.61  25 
   3   3   9 39930.2 859.672  21 
   3   3   8 4212.99 427.618  11 
  -3  -3  -8 4971.76 194.396  16 
   3   3   8 4374.65 622.890  30 
  -3  -3  -8 4738.02 176.978  23 
  -3  -3  -8 4287.16 441.635  25 
   3   3   7 685.246 165.356  11 
   3   3   7 952.003 288.354  30 
  -3  -3  -7 800.698 179.458  25 
   3   3   6 16138.0 776.703  11 
  -3  -3  -6 25301.7 1117.08   4 
  -3  -3  -6 21692.8 1106.58   2 
  -3  -3  -6 27684.6 1287.25   1 
   3   3   6 28928.2 1401.54  30 
  -3  -3  -6 17701.2 810.847  25 
  -3  -3  -5 85298.3 2208.00   1 
  -3  -3  -5 83176.4 2246.25   2 
   3   3   5 78527.0 2151.92  30 
  -3  -3  -4 33256.2 1372.07   1 
  -3  -3  -4 33567.7 1359.73   2 
   3   3   4 31225.4 1257.88  30 
  -3  -3  -3 53.4856 33.4359   9 
  -3  -3  -3-30.9447 49.6749   2 
  -3  -3  -3 79.5158 92.5010   4 
  -3  -3  -3 73.3333 80.8856   1 
   3   3   3-12.0782 53.8578  30 
  -3  -3  -3-3.11701 42.9041  25 
   3   3   3 48.0380 30.1598  24 
  -3  -3  -2 38.0012 40.9420   2 
  -3  -3  -2 55.5083 38.9389   9 
  -3  -3  -2 77.4288 73.8943   1 
  -3  -3  -2 61.4048 34.6558   4 
   3   3   2 24.9251 37.9168  30 
   3   3   2 26.9736 63.5086  24 
  -3  -3  -1 8388.19 681.311   2 
  -3  -3  -1 8619.85 656.817   4 
  -3  -3  -1 10001.8 427.371   9 
  -3  -3  -1 8913.70 706.409   1 
   3   3   1 8712.51 572.998  30 
   3   3   1 8886.35 602.475  24 
  -3  -3   0 646.165 194.570   2 
  -3  -3   0 700.308 190.470   4 
  -3  -3   0 674.263 112.852   9 
  -3  -3   0 777.479 215.535   1 
   3   3   0 686.094 139.136  28 
   3   3   0 808.019 169.516  30 
   3   3   0 823.346 202.776  24 
  -3  -3   1 98.2126 63.5353   1 
  -3  -3   1 171.406 90.6099   4 
  -3  -3   1 214.073 77.3671   9 
  -3  -3   1 183.051 97.2353   2 
   3   3  -1 203.459 81.4724  30 
   3   3  -1 184.684 81.1030  28 
   3   3  -1 110.506 62.4317  24 
  -3  -3   2 191.488 72.4556   9 
  -3  -3   2 117.168 86.9653   2 
  -3  -3   2 213.355 114.385   1 
  -3  -3   2 154.494 96.8738   4 
   3   3  -2 195.435 81.8622  28 
   3   3  -2 192.565 90.9265  24 
  -3  -3   3 174.287 100.093   4 
  -3  -3   3 166.887 107.757   1 
  -3  -3   3 271.671 96.6134   9 
  -3  -3   3 154.774 94.9489   2 
   3   3  -3 243.156 95.9189  28 
  -3  -3   3 303.744 154.290  29 
   3   3  -3 195.470 129.067  24 
  -3  -3   4 461.278 136.574   9 
  -3  -3   4 381.555 159.470   1 
  -3  -3   4 324.026 135.047   2 
  -3  -3   4 508.435 156.966   4 
   3   3  -4 361.915 126.389  28 
  -3  -3   4 491.779 113.420  27 
  -3  -3   4 614.406 205.323  29 
   3   3  -4 421.016 170.816  24 
  -3  -3   5 13618.0 718.734  11 
  -3  -3   5 13403.1 754.525   9 
   3   3  -5 12851.2 780.264  28 
  -3  -3   5 13342.0 634.420  27 
  -3  -3   5 12962.4 1014.06  29 
   3   3  -5 12646.9 975.148  24 
   3   3  -5 12395.0 616.465  26 
  -3  -3   6 871.621 77.9153  14 
  -3  -3   6 733.248 175.485  11 
  -3  -3   6 882.955 76.7897  18 
  -3  -3   6 830.166 139.371  13 
  -3  -3   6 816.658 207.834   9 
  -3  -3   6 901.517 170.232  27 
  -3  -3   6 818.933 112.855  32 
  -3  -3   6 720.945 249.833  29 
   3   3  -6 681.709 76.3705  31 
   3   3  -6 633.902 185.393  28 
   3   3  -6 900.507 283.674  24 
  -3  -3   7 1492.69 104.920  14 
  -3  -3   7 1634.20 197.215  13 
  -3  -3   7 1480.75 262.250  11 
  -3  -3   7 1455.78 105.398  18 
  -3  -3   7 1571.21 292.116   9 
  -3  -3   7 1762.78 181.078  32 
   3   3  -7 1526.91 306.703  28 
   3   3  -7 1452.62 115.850  31 
  -3  -3   7 1397.65 239.287  27 
  -3  -3   7 1571.00 390.354  29 
   3   3  -7 1229.35 222.247  25 
   3   3  -7 1451.96 120.480  23 
   3   3  -7 1612.38 383.928  24 
  -3  -3   8 123.242 38.8093  18 
  -3  -3   8 145.494 34.7323  14 
  -3  -3   8 181.973 68.9053  13 
  -3  -3   8 169.787 64.1163  32 
   3   3  -8 129.630 41.8610  31 
   3   3  -8 156.673 49.5593  23 
  -3  -3   9 64.0774 27.4439  18 
  -3  -3   9 42.3693 33.8574  13 
  -3  -3   9 104.390 53.1884  32 
   3   3  -9-12.6170 24.3094  31 
  -3  -3  10 9937.96 480.751  13 
  -3  -3  10 9788.41 289.434  18 
  -3  -3  10 10658.3 452.846  32 
   3   3 -10 9705.07 280.202  31 
   3   3 -10 10434.4 327.162  23 
  -3  -3  11 1551.42 177.676  13 
  -3  -3  11 1544.22 164.481  32 
   3   3 -11 1564.58 124.622  23 
  -3  -3  12 83.6744 37.7867  13 
  -3  -3  12 31.1919 27.2594  32 
   3   3 -12 43.5242 27.8192  23 
  -3  -3  13 296.972 57.5900  13 
  -3  -3  13 285.710 53.6982  32 
   3   3 -13 294.759 39.4114  23 
  -4  -4 -15 110.460 22.8268  18 
  -4  -4 -15 79.2209 22.9716  16 
   4   4  15 90.5589 29.1453  33 
  -4  -4 -15 71.7511 22.7726  23 
  -4  -4 -14 6.69956 21.7912  18 
  -4  -4 -14 52.8991 28.1530  16 
   4   4  14 41.0626 33.8987  33 
   4   4  14-7.88309 19.1563  21 
  -4  -4 -14 42.1692 27.0084  23 
  -4  -4 -13 3434.58 164.163  16 
   4   4  13 3522.19 234.992  33 
  -4  -4 -13 3578.11 160.054  23 
   4   4  13 3220.02 207.066  21 
  -4  -4 -12 774.579 79.0756  16 
  -4  -4 -12 930.809 91.2378  23 
   4   4  12 816.506 110.175  21 
  -4  -4 -11 9667.17 302.342  16 
  -4  -4 -11 11084.0 305.873  23 
  -4  -4 -10 3606.33 188.898  16 
  -4  -4 -10 3951.63 184.461  23 
   4   4   9 1529.83 290.067  11 
  -4  -4  -9 1220.77 106.209  16 
  -4  -4  -9 1420.06 111.158  23 
  -4  -4  -8 464.279 61.8352  16 
   4   4   8 135.519 87.4293  11 
   4   4   8 250.870 161.498  30 
  -4  -4  -8 393.619 140.750  25 
  -4  -4  -8 524.681 66.1186  23 
   4   4   7 1614.15 285.137  11 
  -4  -4  -7 1889.89 122.432  16 
  -4  -4  -7 1841.74 115.068  23 
  -4  -4  -7 1961.40 309.968  25 
  -4  -4  -6 48.3984 18.3750  16 
   4   4   6 62.8887 72.9989  11 
  -4  -4  -6-36.1849 63.2152   2 
  -4  -4  -6 157.229 111.072   4 
  -4  -4  -6 267.940 155.469   1 
   4   4   6 34.0482 66.1294  30 
  -4  -4  -6 67.9582 23.9348  23 
  -4  -4  -6-67.3772 68.3758  25 
  -4  -4  -5 23229.1 1424.51   1 
  -4  -4  -5 21200.7 1246.04   4 
  -4  -4  -5 21950.2 1360.75   2 
   4   4   5 21341.0 1257.60  30 
  -4  -4  -4 41100.2 1857.43   2 
  -4  -4  -4 37554.9 1667.86   4 
  -4  -4  -4 38917.5 1868.86   1 
   4   4   4 37328.0 1688.01  30 
  -4  -4  -3 46.5721 39.5438   9 
  -4  -4  -3 65.0995 71.5190   1 
  -4  -4  -3 4.89992 32.5884   4 
   4   4   3 86.2500 90.1683  30 
  -4  -4  -2 393.669 154.813   4 
  -4  -4  -2 348.663 180.292   1 
  -4  -4  -2 432.799 193.373   2 
  -4  -4  -2 494.786 114.701   9 
   4   4   2 468.055 157.502  30 
   4   4   2 507.207 133.605  28 
   4   4   2 491.792 184.512  24 
  -4  -4  -1 53.0555 99.8578   2 
  -4  -4  -1 33.5094 51.3307   4 
  -4  -4  -1 42.8823 37.6651   9 
  -4  -4  -1 115.359 109.374   1 
   4   4   1-40.8941 68.0381  28 
   4   4   1 86.8048 70.3297  30 
   4   4   1-0.74495 108.485  24 
  -4  -4   0 468.264 192.091   2 
  -4  -4   0 425.166 182.655   4 
  -4  -4   0 835.599 154.134   9 
  -4  -4   0 426.500 207.062   1 
   4   4   0 733.934 173.791  28 
   4   4   0 673.157 219.274  24 
  -4  -4   1 4313.33 578.541   4 
  -4  -4   1 4069.26 596.985   1 
  -4  -4   1 4014.69 593.964   2 
  -4  -4   1 4917.50 380.791   9 
   4   4  -1 4732.02 444.809  28 
   4   4  -1 4647.81 576.777  24 
  -4  -4   2 10894.4 260.663  18 
  -4  -4   2 10241.2 948.161   2 
  -4  -4   2 10165.3 949.412   1 
  -4  -4   2 11214.1 613.067   9 
  -4  -4   2 10276.5 890.617   4 
   4   4  -2 10335.1 701.293  28 
   4   4  -2 10362.2 896.017  24 
  -4  -4   3 119.309 31.1036  18 
  -4  -4   3 112.737 53.8016  13 
  -4  -4   3 107.372 26.9185  14 
  -4  -4   3 20.8348 51.2912   4 
  -4  -4   3 212.041 97.8700   9 
  -4  -4   3 125.414 110.318   1 
  -4  -4   3 4.77278 37.6495   2 
   4   4  -3 161.989 45.7940  31 
   4   4  -3 167.973 94.3171  28 
   4   4  -3 46.0589 68.9569  24 
  -4  -4   3 115.806 52.5537  22 
  -4  -4   4 906.166 141.705  13 
  -4  -4   4 973.865 89.8730  14 
  -4  -4   4 1166.35 90.9569  18 
  -4  -4   4 1239.95 226.141   9 
   4   4  -4 996.900 230.376  28 
   4   4  -4 981.379 99.3648  31 
  -4  -4   4 1221.76 149.333  22 
   4   4  -4 920.412 272.144  24 
   4   4  -4 991.693 203.405  26 
  -4  -4   5 62.8775 18.4542  14 
  -4  -4   5 113.892 63.9116  13 
  -4  -4   5 70.7357 22.2290  18 
  -4  -4   5 228.788 106.884   9 
   4   4  -5 192.258 111.069  28 
   4   4  -5 120.316 45.9961  31 
  -4  -4   5 116.611 43.0518  22 
  -4  -4   6 3366.45 282.901  13 
  -4  -4   6 3684.51 176.897  14 
  -4  -4   6 3912.35 176.298  18 
   4   4  -6 3589.70 188.398  31 
  -4  -4   7 612.193 73.6246  14 
  -4  -4   7 609.061 73.6680  18 
  -4  -4   7 568.905 124.113  13 
   4   4  -7 553.707 70.7720  31 
   4   4  -7 516.680 76.0310  23 
  -4  -4   8 429.408 99.0077  13 
  -4  -4   8 455.745 62.2910  18 
   4   4  -8 330.235 55.9400  31 
  -4  -4   8 439.456 91.3789  32 
   4   4  -8 334.384 57.0220  23 
  -4  -4   9 635.927 69.7966  18 
  -4  -4   9 496.796 100.797  13 
  -4  -4   9 622.060 98.2424  32 
   4   4  -9 520.884 74.4797  23 
  -4  -4  10 2853.62 221.281  13 
  -4  -4  10 2697.94 191.622  32 
   4   4 -10 2738.91 151.796  23 
  -4  -4  11 111.455 42.0240  13 
  -4  -4  11 94.3607 28.9571  32 
   4   4 -11 92.8870 27.2690  23 
  -4  -4  12 15.2563 16.4188  13 
   4   4 -12 31.5461 11.7884  23 
  -5  -5 -14 683.510 53.1091  16 
   5   5  14 748.839 79.3524  33 
  -5  -5 -13 67.5847 27.7612  16 
  -5  -5 -13 38.8299 26.4524  18 
   5   5  13 69.8075 40.1806  33 
  -5  -5 -12 1710.10 125.822  18 
  -5  -5 -12 1966.79 118.012  16 
   5   5  12 2190.21 177.081  33 
  -5  -5 -11 177.860 49.1346  18 
  -5  -5 -11 262.986 44.7405  16 
   5   5  11 310.039 81.2951  33 
  -5  -5 -11 279.308 49.1437  23 
  -5  -5 -10 14999.7 354.773  16 
  -5  -5 -10 16029.0 349.084  23 
  -5  -5  -9 56.4058 37.3078  18 
  -5  -5  -9 11.1957 25.8029  16 
  -5  -5  -9-37.0604 29.4893  23 
  -5  -5  -8 9557.12 334.958  18 
  -5  -5  -8 9295.03 285.536  16 
  -5  -5  -7 11648.3 300.343   7 
  -5  -5  -7 20215.0 620.904   6 
  -5  -5  -7 10786.5 306.385  16 
  -5  -5  -7 11431.2 360.681  18 
  -5  -5  -7 19950.4 609.203  19 
  -5  -5  -6 37133.0 872.531   6 
  -5  -5  -6 40678.6 2256.09   1 
  -5  -5  -6 35816.2 2100.08   2 
  -5  -5  -6 36098.1 1948.95   4 
   5   5   6 39297.0 2007.87  30 
  -5  -5  -6 37451.0 856.488  19 
  -5  -5  -5 1749.33 122.565  16 
  -5  -5  -5 1847.30 143.584  18 
  -5  -5  -5 1786.28 128.827  17 
  -5  -5  -5 2153.24 477.797   4 
  -5  -5  -5 1870.94 524.605   2 
  -5  -5  -5 1781.33 134.736   7 
  -5  -5  -5 2519.67 249.018   6 
  -5  -5  -5 3293.14 639.296   1 
   5   5   5 2227.13 444.707  30 
  -5  -5  -5 2908.29 253.916  19 
  -5  -5  -5 2551.16 258.228  22 
  -5  -5  -4 770.925 77.8714  16 
  -5  -5  -4 958.836 102.880  18 
  -5  -5  -4 954.668 100.947  17 
  -5  -5  -4 890.693 390.132   4 
  -5  -5  -4 1603.42 443.860   2 
  -5  -5  -4 732.268 307.162   1 
  -5  -5  -4 1044.99 105.706   7 
  -5  -5  -4 1199.41 186.729   6 
   5   5   4 830.050 267.406  30 
   5   5   4 823.235 215.594  28 
  -5  -5  -4 1304.84 180.748  22 
  -5  -5  -3 279.632 54.5045  17 
  -5  -5  -3 242.853 34.4819  18 
  -5  -5  -3 153.032 31.7337  16 
  -5  -5  -3 320.373 58.8508   7 
  -5  -5  -3 235.632 176.231   2 
  -5  -5  -3 61.5660 85.1863   4 
  -5  -5  -3 512.573 258.996   1 
  -5  -5  -3 212.395 68.5105   6 
   5   5   3-17.3793 106.080  28 
  -5  -5  -3 387.861 85.8938  22 
  -5  -5  -2 4499.42 196.399  18 
  -5  -5  -2 4168.90 185.152  17 
  -5  -5  -2 4241.74 176.428  16 
  -5  -5  -2 4328.63 698.541   4 
  -5  -5  -2 3952.32 711.843   2 
  -5  -5  -2 4146.00 732.109   1 
  -5  -5  -2 4285.98 204.296   7 
  -5  -5  -2 4166.06 313.011   6 
   5   5   2 4325.44 482.604  28 
  -5  -5  -2 4350.24 304.016  22 
  -5  -5  -1 15614.6 334.958  16 
  -5  -5  -1 15415.8 361.807  18 
  -5  -5  -1 15318.5 1398.53   2 
  -5  -5  -1 14918.4 1400.98   1 
  -5  -5  -1 15462.7 391.583   7 
  -5  -5  -1 15312.6 1311.58   4 
  -5  -5  -1 16127.3 612.024   6 
   5   5   1 15755.5 911.181  28 
   5   5   1 14522.4 1110.71  24 
  -5  -5  -1 16114.9 596.956  22 
  -5  -5   0 5027.74 186.899  16 
  -5  -5   0 5337.02 209.096  18 
  -5  -5   0 5507.10 842.008   2 
  -5  -5   0 5161.50 227.617   7 
  -5  -5   0 5307.49 351.947   6 
  -5  -5   0 4651.48 723.723   4 
  -5  -5   0 5431.53 841.629   1 
   5   5   0 5516.85 540.090  28 
  -5  -5   0 5290.15 352.654  22 
   5   5   0 4697.59 667.641  24 
  -5  -5   1 6013.56 217.689  18 
  -5  -5   1 5948.66 210.303  16 
  -5  -5   1 5876.16 212.025  14 
  -5  -5   1 5548.08 838.700   2 
  -5  -5   1 5967.91 240.535   7 
  -5  -5   1 6401.37 381.599   6 
  -5  -5   1 6115.36 825.350   4 
  -5  -5   1 5673.95 853.154   1 
   5   5  -1 5619.53 571.989  28 
   5   5  -1 5224.64 742.453  24 
  -5  -5   1 6425.83 387.527  22 
  -5  -5   2 959.143 86.6854  18 
  -5  -5   2 869.272 84.6488  14 
  -5  -5   2 939.828 314.591   4 
  -5  -5   2 950.167 93.4816   7 
  -5  -5   2 959.078 141.985   6 
  -5  -5   2 496.545 268.801   2 
   5   5  -2 906.789 94.1532  31 
  -5  -5   2 967.485 147.959  22 
  -5  -5   3 3692.06 258.063  13 
  -5  -5   3 4600.30 190.249  18 
  -5  -5   3 4529.02 195.608  14 
  -5  -5   3 4434.72 191.522   7 
  -5  -5   3 4573.08 295.008   6 
   5   5  -3 4181.10 212.516  31 
  -5  -5   3 4836.55 328.334  22 
  -5  -5   4 10.6662 21.1901  14 
  -5  -5   4-10.6019 20.8728  18 
  -5  -5   4 35.7579 36.6725  13 
   5   5  -4 28.5041 32.9111  31 
  -5  -5   4 10.8095 50.3559  22 
  -5  -5   5 522.432 65.5242  18 
  -5  -5   5 494.383 66.2001  14 
  -5  -5   5 437.504 96.0867  13 
   5   5  -5 382.141 61.6255  31 
  -5  -5   5 560.976 100.371  22 
  -5  -5   6 246.215 45.3372  18 
  -5  -5   6 233.486 45.6291  14 
  -5  -5   6 158.628 57.8134  13 
   5   5  -6 199.404 36.6522  31 
   5   5  -6 129.872 29.4471  23 
  -5  -5   7 486.407 96.2041  13 
  -5  -5   7 669.705 70.8142  18 
   5   5  -7 603.932 73.0500  23 
  -5  -5   8 1090.14 83.9571  18 
  -5  -5   8 1050.20 125.620  13 
   5   5  -8 1283.07 98.5195  23 
  -5  -5   9 2094.70 101.262  18 
  -5  -5   9 2030.10 151.624  13 
   5   5  -9 2072.36 108.210  23 
  -5  -5  10 88.9596 28.3308  13 
   5   5 -10 61.1916 19.7659  23 
  -6  -6 -12 200.404 29.2517  16 
  -6  -6 -12 148.247 27.8180  18 
   6   6  12 234.399 39.1245  33 
  -6  -6 -11-4.34685 23.6353  18 
  -6  -6 -11-18.1010 25.6746  16 
   6   6  11 51.1301 30.9938  33 
  -6  -6 -10 149.930 36.1053  18 
  -6  -6 -10 93.4024 18.5669  16 
  -6  -6  -9 144.898 25.7220  16 
  -6  -6  -9 233.170 44.6173  18 
  -6  -6  -8 3038.51 166.150  18 
  -6  -6  -8 2840.53 143.493  16 
  -6  -6  -7 2587.56 141.917   7 
  -6  -6  -7 2933.68 169.361  18 
  -6  -6  -7 2769.09 146.409  16 
  -6  -6  -6 5.59986 35.1355   6 
  -6  -6  -6 6.42565 21.8410   7 
  -6  -6  -6 26.4029 26.6341  18 
  -6  -6  -6 17.7532 21.4957  16 
  -6  -6  -5 210.561 52.2060   7 
  -6  -6  -5 221.203 81.3097   6 
  -6  -6  -5 249.491 54.9642  18 
  -6  -6  -5 301.350 51.5295  16 
  -6  -6  -5 272.973 92.7244  22 
  -6  -6  -4 18.7400 22.0843   7 
  -6  -6  -4 24.1397 33.3524   6 
  -6  -6  -4-35.5104 38.5176  18 
  -6  -6  -4 4.66076 27.8317  16 
  -6  -6  -4 49.5847 51.3795  22 
  -6  -6  -3 3421.82 190.955   7 
  -6  -6  -3 3356.51 297.049   6 
  -6  -6  -3 3735.35 187.480  18 
  -6  -6  -3 3402.99 164.391  16 
  -6  -6  -3 3281.96 278.615  22 
  -6  -6  -2-26.8805 35.6902   6 
  -6  -6  -2 18.8214 29.2858   7 
  -6  -6  -2-54.7103 37.1645  18 
  -6  -6  -2-138.971 52.6860  16 
  -6  -6  -2-46.5880 69.1602  22 
  -6  -6  -1 1262.35 113.701   7 
  -6  -6  -1 1273.84 180.469   6 
  -6  -6  -1 1349.57 108.751  18 
  -6  -6  -1 1169.13 90.6113  16 
  -6  -6  -1 1298.63 173.486  22 
  -6  -6   0 12.3191 25.2290   7 
  -6  -6   0 41.0050 43.6390   6 
  -6  -6   0 38.2776 28.0443  18 
  -6  -6   0 62.3545 45.2142  22 
  -6  -6   1 2676.62 145.907  18 
  -6  -6   1 2588.92 156.149   7 
  -6  -6   1 2452.95 232.196   6 
   6   6  -1 2327.83 153.235  31 
  -6  -6   1 2884.55 261.106  22 
  -6  -6   2 294.323 47.8652  14 
  -6  -6   2 261.837 49.8753  18 
  -6  -6   2 202.098 63.1417   6 
  -6  -6   2 234.901 45.1934   7 
   6   6  -2 204.249 44.7500  31 
  -6  -6   2 298.228 88.8838  22 
  -6  -6   3 5.30874 20.0057  18 
  -6  -6   3 11.0983 19.2681   7 
  -6  -6   3-28.2160 26.8389   6 
   6   6  -3 23.8661 19.6650  31 
  -6  -6   3 42.6691 43.2162  22 
  -6  -6   4 3689.39 154.701  18 
  -6  -6   4 3720.54 245.236  22 
  -6  -6   5 462.053 55.1863  18 
   6   6  -5 362.406 58.0497  23 
  -6  -6   5 427.072 76.0815  22 
  -6  -6   6 9.52877 14.5721  18 
   6   6  -6-24.5732 32.1713  23 
  -6  -6   7 788.357 56.0910  18 
   6   6  -7 652.182 56.6551  23 
  -7  -7  -9 7.06897 14.0791  16 
  -7  -7  -9-17.2356 16.1007  18 
   7   7   9 4.59059 19.4968  34 
  -7  -7  -8 1874.38 97.9993  18 
  -7  -7  -8 1757.71 82.9199  16 
  -7  -7  -7 4924.36 153.283   7 
  -7  -7  -7 4611.01 144.904  16 
  -7  -7  -7 4691.80 165.818  18 
  -7  -7  -6 9562.00 410.197   6 
  -7  -7  -6 9754.44 251.378   7 
  -7  -7  -6 9163.34 239.652  18 
  -7  -7  -6 9269.15 212.186  16 
  -7  -7  -5 3338.02 156.818   7 
  -7  -7  -5 2645.22 221.260   6 
  -7  -7  -5 3110.46 141.456  18 
  -7  -7  -5 3151.34 127.621  16 
  -7  -7  -5 2887.96 198.493  22 
  -7  -7  -4 299.781 83.2559   6 
  -7  -7  -4 292.865 53.6225   7 
  -7  -7  -4 243.881 31.7622  16 
  -7  -7  -4 291.766 42.9080  18 
  -7  -7  -4 231.619 58.4338  22 
  -7  -7  -3 1747.69 193.615   6 
  -7  -7  -3 2084.36 131.972   7 
  -7  -7  -3 2227.44 119.830  18 
  -7  -7  -3 1761.87 179.896  22 
  -7  -7  -2 307.257 45.9957  18 
  -7  -7  -2 273.491 51.8039   7 
  -7  -7  -2 206.620 62.0584   6 
   7   7   2 317.941 54.6045  31 
  -7  -7  -2 318.841 77.4199  22 
  -7  -7  -1 26.9061 17.5661  18 
  -7  -7  -1 10.0432 19.3571   7 
  -7  -7  -1 1.29584 25.2773   6 
   7   7   1 5.85376 20.0148  31 
  -7  -7  -1-9.18854 33.6988  22 
  -7  -7   0-51.2028 27.1213  18 
  -7  -7   0-1.58837 20.9989   6 
  -7  -7   0 8.98929 16.0698   7 
   7   7   0 27.7213 21.2033  31 
  -7  -7   0 23.8745 34.4873  22 
  -7  -7   1 277.072 58.8006   6 
  -7  -7   1 397.442 46.7857   7 
  -7  -7   1 434.323 47.4820  18 
  -7  -7   1 421.400 78.3618  22 
  -7  -7   2 1204.75 101.347   6 
  -7  -7   2 1409.73 70.8515   7 
  -7  -7   2 1531.54 140.390  22 
  -7  -7   3 1081.58 101.791  22 
   7   7  -3 1022.52 70.8537  23 
  -7  -7   4 327.615 33.5733  18 
   7   7  -4 243.628 29.5648  23 
  -7  -8   1 124.523 20.7234  18 
  -7  -8   1 158.381 43.2150  22 
  -7  -8   0 195.262 27.0712  18 
  -7  -8   0 129.220 36.5880   6 
  -7  -8   0 206.367 31.7955   7 
   7   8   0 167.613 29.6182  31 
  -7  -8   0 207.911 50.4931  22 
  -7  -8  -1 1948.75 91.2406  18 
  -7  -8  -1 1361.92 129.422   6 
  -7  -8  -1 1865.46 97.1649   7 
   7   8   1 1692.81 94.1559  31 
  -7  -8  -1 1530.99 135.912  22 
  -7  -8  -2 2990.07 115.266  18 
  -7  -8  -2 2251.00 171.799   6 
  -7  -8  -2 2885.44 125.230   7 
   7   8   2 2502.77 118.242  31 
  -7  -8  -2 2327.99 169.778  22 
  -7  -8  -3 182.260 30.2279  18 
  -7  -8  -3 215.224 58.0100   6 
  -7  -8  -3 178.746 32.2000   7 
   7   8   3 170.643 36.2546  31 
  -7  -8  -3 196.734 47.2131  22 
  -7  -8  -4 7487.83 205.654   7 
  -7  -8  -4 6122.95 291.730   6 
  -7  -8  -4 7706.50 185.812  18 
  -7  -8  -4 5832.95 238.045  22 
  -7  -8  -5 1397.60 83.6925   7 
  -7  -8  -5 1187.99 121.664   6 
  -7  -8  -5 1428.83 79.4578  18 
  -7  -8  -6 545.120 46.9836   7 
  -7  -8  -6 519.663 46.3764  18 
  -7  -8  -7 2332.38 94.2117  18 
  -6  -7   6 1186.28 65.0132  18 
   6   7  -6 1022.44 62.1882  23 
   6   7  -5 2722.35 113.555  31 
   6   7  -5 2638.20 115.397  23 
  -6  -7   5 2803.49 163.462  22 
  -6  -7   4 1024.58 73.7056  18 
   6   7  -4 826.032 74.1226  31 
  -6  -7   4 876.271 110.974  22 
  -6  -7   3-0.90692 15.8450  18 
  -6  -7   3 30.5335 32.0074   6 
  -6  -7   3 13.5585 16.3879   7 
   6   7  -3 4.60563 22.8922  31 
  -6  -7   3 21.6982 37.9204  22 
  -6  -7   2 153.919 35.4607  14 
  -6  -7   2 255.940 43.8028  18 
  -6  -7   2 219.036 58.4420   6 
  -6  -7   2 142.624 33.2901   7 
   6   7  -2 262.874 56.7212  31 
  -6  -7   2 223.384 67.5119  22 
  -6  -7   1 125.050 31.5760  18 
  -6  -7   1 109.172 34.3105   7 
  -6  -7   1 30.4882 30.6204   6 
   6   7  -1 95.9919 32.8768  31 
  -6  -7   1 48.6343 41.0676  22 
  -6  -7   0 559.993 64.2988  18 
  -6  -7   0 402.195 93.8793   6 
  -6  -7   0 509.899 73.3559   7 
   6   7   0 503.019 75.4450  31 
  -6  -7   0 463.942 101.630  22 
  -6  -7  -1 2167.82 229.151   6 
  -6  -7  -1 2239.47 151.706   7 
  -6  -7  -1 2771.62 145.307  18 
  -6  -7  -1 2217.22 219.155  22 
  -6  -7  -2 99.6268 33.2742   7 
  -6  -7  -2 109.192 59.4405   6 
  -6  -7  -2 125.134 33.4178  16 
  -6  -7  -2 150.869 36.3801  18 
  -6  -7  -2 133.782 56.9440  22 
  -6  -7  -3 648.573 85.8647   7 
  -6  -7  -3 625.140 140.780   6 
  -6  -7  -3 584.103 55.3467  16 
  -6  -7  -3 706.597 76.3454  18 
  -6  -7  -3 505.043 104.022  22 
  -6  -7  -4-86.8768 37.6293  16 
  -6  -7  -4-25.0173 36.1830  18 
  -6  -7  -4-0.06163 31.3737   7 
  -6  -7  -4 1.48957 39.2122   6 
   6   7   4 28.5219 30.8139  34 
  -6  -7  -4 36.3939 36.1693  22 
  -6  -7  -5 4524.13 167.684  16 
  -6  -7  -5 4641.06 200.745  18 
  -6  -7  -5 4986.75 350.802   6 
  -6  -7  -5 4594.12 213.378   7 
   6   7   5 4117.27 281.353  34 
  -6  -7  -5 4500.31 278.061  22 
  -6  -7  -6 11095.6 308.394   7 
  -6  -7  -6 11624.1 484.428   6 
  -6  -7  -6 10498.7 248.177  16 
  -6  -7  -6 11465.4 311.262  18 
  -6  -7  -7 44.8551 37.2907   6 
  -6  -7  -7-24.8254 27.4160   7 
  -6  -7  -7 54.4613 24.2894  18 
  -6  -7  -7 54.5260 22.6061  16 
  -6  -7  -8 6037.31 171.454  16 
  -6  -7  -8 6464.15 217.689  18 
  -6  -7  -9 2420.17 125.975  18 
  -6  -7  -9 2281.14 99.2535  16 
  -6  -7 -10 3820.17 144.488  18 
  -6  -7 -11 2602.84 105.662  18 
   5   6  -9 986.241 60.7102  23 
  -5  -6   8 73.1017 25.7348  13 
  -5  -6   8 75.1059 18.6040  18 
   5   6  -8 73.2234 22.3610  31 
   5   6  -8 92.6685 28.0615  23 
  -5  -6   7 196.040 45.6970  13 
  -5  -6   7 139.405 28.2281  18 
   5   6  -7 143.770 31.3811  31 
   5   6  -7 191.297 38.1770  23 
  -5  -6   6-16.7059 24.4311  18 
  -5  -6   6-13.8308 22.0873  14 
   5   6  -6-24.9593 30.7438  31 
  -5  -6   6-11.7582 25.0952  22 
   5   6  -6-66.5253 43.5409  23 
  -5  -6   5 2954.83 156.284  14 
  -5  -6   5 3165.92 147.791  18 
   5   6  -5 2686.92 156.661  31 
  -5  -6   5 2736.89 220.051  22 
  -5  -6   4 156.348 37.1253  18 
  -5  -6   4 174.341 38.6055  14 
   5   6  -4 155.429 43.2034  31 
  -5  -6   4 165.739 60.2468  22 
  -5  -6   3 2888.38 148.251  18 
  -5  -6   3 2537.44 149.721  14 
  -5  -6   3 2605.44 229.959   6 
  -5  -6   3 2637.38 153.817   7 
   5   6  -3 2702.70 169.357  31 
  -5  -6   3 2971.14 261.568  22 
  -5  -6   2 9297.35 271.115  18 
  -5  -6   2 8374.59 271.971  14 
  -5  -6   2 8945.12 459.519   6 
  -5  -6   2 8505.51 298.160   7 
   5   6  -2 8746.06 313.637  31 
  -5  -6   2 9349.15 496.168  22 
  -5  -6   1 2700.74 262.627   6 
  -5  -6   1 2594.13 171.537   7 
  -5  -6   1 2813.95 150.697  18 
  -5  -6   1 2485.29 146.581  14 
  -5  -6   1 2718.52 270.985  22 
  -5  -6   0 114.735 65.5753   6 
  -5  -6   0 106.434 34.2915   7 
  -5  -6   0 78.4327 19.2298  16 
  -5  -6   0 184.205 40.9720  18 
  -5  -6   0 186.175 82.7191  22 
  -5  -6  -1 104.418 45.2175   7 
  -5  -6  -1 120.409 51.6312   6 
  -5  -6  -1 10.4449 29.3954  16 
  -5  -6  -1 101.751 21.6617  18 
  -5  -6  -1 134.593 71.4631  22 
  -5  -6  -2 2195.58 139.827  17 
  -5  -6  -2 2552.89 152.232  18 
  -5  -6  -2 2230.69 125.348  16 
  -5  -6  -2 2314.96 167.476   7 
  -5  -6  -2 2410.45 260.571   6 
   5   6   2 2661.70 232.841  34 
  -5  -6  -2 2388.15 244.642  22 
  -5  -6  -3 3265.53 315.910   6 
  -5  -6  -3 3484.47 210.134   7 
  -5  -6  -3 3591.95 184.036  18 
  -5  -6  -3 3066.91 182.311  17 
  -5  -6  -3 3264.59 158.387  16 
  -5  -6  -3 3166.47 273.933  22 
  -5  -6  -4 3609.91 208.115   7 
  -5  -6  -4 4063.23 335.553   6 
  -5  -6  -4 3828.23 198.763  18 
  -5  -6  -4 3818.83 172.758  16 
  -5  -6  -4 3348.72 179.190  17 
  -5  -6  -4 3915.17 307.458  22 
  -5  -6  -5 73.0620 43.9800   6 
  -5  -6  -5 24.3175 25.4141   7 
  -5  -6  -5 0.27251 27.0984  17 
  -5  -6  -5 61.4862 30.8470  16 
  -5  -6  -5-23.4733 33.7247  18 
  -5  -6  -5-8.61030 50.5050  22 
  -5  -6  -6 13024.3 353.330  17 
  -5  -6  -6 14325.4 390.098  18 
  -5  -6  -6 13572.0 324.430  16 
  -5  -6  -6 13755.5 610.525   6 
  -5  -6  -6 14216.7 366.798   7 
  -5  -6  -7 1343.07 104.829  16 
  -5  -6  -7 1595.90 134.427  18 
  -5  -6  -7 1413.51 116.226  17 
  -5  -6  -7 1559.69 180.785   6 
  -5  -6  -8 7791.13 290.679  18 
  -5  -6  -8 7536.41 237.543  16 
  -5  -6  -8 7820.84 249.041  17 
  -5  -6  -9 1340.84 99.7495  16 
  -5  -6  -9 1654.94 129.626  18 
   5   6   9 1590.12 153.492  33 
  -5  -6 -10 11.5393 26.3643  18 
  -5  -6 -10 63.6938 18.9520  16 
   5   6  10 32.5895 18.9629  33 
  -5  -6 -11 40.1029 17.0865  16 
  -5  -6 -11-16.8261 23.6395  18 
   5   6  11 7.50812 18.8578  33 
  -5  -6 -12 151.147 35.3852  18 
  -5  -6 -12 101.507 21.8057  16 
  -5  -6 -13 303.690 39.9604  18 
   5   6  13 458.789 60.5464  33 
  -4  -5  11 434.200 65.2481  13 
   4   5 -11 341.477 38.8275  23 
  -4  -5  10 2068.47 166.274  13 
   4   5 -10 1919.19 103.008  31 
   4   5 -10 2284.89 116.726  23 
  -4  -5   9 69.5624 44.4430  13 
  -4  -5   9 54.9957 24.0974  18 
   4   5  -9 160.581 39.7437  31 
  -4  -5   8 4689.08 181.341  18 
  -4  -5   8 4448.30 187.195  14 
   4   5  -8 4068.84 195.431  31 
   4   5  -8 4619.43 202.768  23 
  -4  -5   7 2109.42 135.669  14 
  -4  -5   7 2273.83 128.521  18 
   4   5  -7 1917.94 139.175  31 
   4   5  -7 1918.39 134.401  23 
  -4  -5   6 11.6974 19.9093  14 
  -4  -5   6 59.0788 20.9855  18 
  -4  -5   6 5.50238 33.1627  13 
   4   5  -6 1.90718 34.9476  31 
  -4  -5   5 5930.12 211.815  18 
  -4  -5   5 5630.40 221.700  14 
   4   5  -5 5647.69 247.996  31 
  -4  -5   5 6026.76 354.058  22 
  -4  -5   4 5017.77 207.973  14 
  -4  -5   4 5057.97 193.362  18 
  -4  -5   4 3890.73 269.329  13 
   4   5  -4 5281.87 551.605  28 
   4   5  -4 5061.16 233.565  31 
  -4  -5   4 5226.58 341.979  22 
   4   5  -4 5026.12 731.284  24 
  -4  -5   3 212.810 39.1893  18 
  -4  -5   3 135.890 34.7841  14 
  -4  -5   3 298.207 181.801   1 
  -4  -5   3 284.724 175.887   2 
  -4  -5   3 186.226 67.0221   6 
  -4  -5   3-119.092 105.760   4 
  -4  -5   3 222.155 49.8154   7 
   4   5  -3 543.607 170.821  28 
   4   5  -3 70.2756 33.9679  31 
   4   5  -3 207.319 171.188  24 
  -4  -5   3 132.356 53.9925  22 
  -4  -5   2 681.899 69.2991  18 
  -4  -5   2 583.955 69.8104  14 
  -4  -5   2 591.835 250.749   2 
  -4  -5   2 607.282 76.5072   7 
  -4  -5   2 899.520 317.029   1 
  -4  -5   2 766.808 132.137   6 
  -4  -5   2 614.972 241.862   4 
   4   5  -2 616.238 165.852  28 
  -4  -5   2 641.883 126.705  22 
   4   5  -2 749.913 260.330  24 
  -4  -5   1 2971.24 145.245  18 
  -4  -5   1 2761.64 145.227  14 
  -4  -5   1 2708.08 127.796  16 
  -4  -5   1 2350.94 128.287  17 
  -4  -5   1 2583.53 506.417   4 
  -4  -5   1 2641.77 548.076   1 
  -4  -5   1 2394.08 512.879   2 
  -4  -5   1 2809.38 166.440   7 
  -4  -5   1 3272.73 273.362   6 
   4   5  -1 2699.94 353.759  28 
   4   5  -1 2803.34 500.017  24 
  -4  -5   1 3111.69 268.848  22 
  -4  -5   0 1475.89 104.336  18 
  -4  -5   0 1306.43 96.4589  17 
  -4  -5   0 1618.49 194.132   6 
  -4  -5   0 1449.06 379.486   4 
  -4  -5   0 1347.17 396.828   2 
  -4  -5   0 1318.40 377.048   1 
  -4  -5   0 1449.61 120.727   7 
   4   5   0 1430.38 245.451  28 
  -4  -5   0 1630.24 191.055  22 
   4   5   0 1225.57 316.999  24 
  -4  -5  -1 339.045 49.9608  18 
  -4  -5  -1 238.345 41.9159  17 
  -4  -5  -1 269.308 52.8167   7 
  -4  -5  -1 266.838 149.733   4 
  -4  -5  -1 15.9734 68.5548   1 
  -4  -5  -1 221.551 72.6029   6 
  -4  -5  -1 194.266 153.331   2 
   4   5   1 193.396 81.8192  28 
   4   5   1 248.666 129.769  30 
   4   5   1 422.695 182.055  24 
  -4  -5  -1 345.705 88.2686  22 
  -4  -5  -2 6.08202 18.7855  17 
  -4  -5  -2-5.74729 26.8812  18 
  -4  -5  -2 2.76260 42.1969   1 
  -4  -5  -2 30.0253 32.6938   6 
  -4  -5  -2 123.692 115.394   4 
  -4  -5  -2-1.71394 17.8922   7 
  -4  -5  -2 148.506 129.336   2 
   4   5   2-100.848 96.5699  30 
   4   5   2-147.645 84.4946  28 
   4   5   2-89.2063 87.5909  24 
  -4  -5  -2-3.15272 22.1160  22 
  -4  -5  -3 8307.55 265.519  18 
  -4  -5  -3 6500.52 221.502  17 
  -4  -5  -3 7455.73 916.700   1 
  -4  -5  -3 6604.26 860.595   2 
  -4  -5  -3 7701.62 273.817   7 
  -4  -5  -3 6430.58 798.366   4 
  -4  -5  -3 7374.74 408.200   6 
   4   5   3 6670.67 714.048  30 
   4   5   3 7119.33 566.645  28 
  -4  -5  -3 6374.96 368.253  19 
  -4  -5  -3 7214.82 392.989  22 
  -4  -5  -4 14364.5 375.959  18 
  -4  -5  -4 13598.8 321.534  17 
  -4  -5  -4 13418.4 304.906  16 
  -4  -5  -4 12753.8 1187.11   1 
  -4  -5  -4 14960.0 587.362   6 
  -4  -5  -4 11994.5 1146.62   2 
  -4  -5  -4 12940.3 360.091   7 
  -4  -5  -4 12780.7 1137.26   4 
   4   5   4 11396.9 974.291  30 
  -4  -5  -4 14090.0 516.761  22 
  -4  -5  -4 10754.0 449.474  19 
  -4  -5  -5 2909.60 170.834  18 
  -4  -5  -5 2450.07 142.490  17 
  -4  -5  -5 2415.47 133.268  16 
  -4  -5  -5 2536.98 150.219   7 
  -4  -5  -5 2563.58 523.602   1 
  -4  -5  -5 2912.68 258.581   6 
  -4  -5  -5 3107.11 528.709   4 
  -4  -5  -5 2627.26 531.604   2 
   4   5   5 2407.30 471.832  30 
  -4  -5  -6 33.8803 31.1647  17 
  -4  -5  -6 35.1029 25.7976  18 
  -4  -5  -6 22.4169 25.8972  16 
  -4  -5  -6 20.4249 23.3350   7 
  -4  -5  -6 24.8794 52.7384   1 
  -4  -5  -6 19.6411 22.3469   6 
  -4  -5  -6-355.574 188.499   2 
  -4  -5  -6-300.547 164.297   4 
   4   5   6-172.469 128.774  30 
  -4  -5  -6 35.7796 26.6077  23 
  -4  -5  -6 191.030 104.762  25 
  -4  -5  -7 9812.61 276.005  16 
  -4  -5  -7 10141.4 286.839  17 
  -4  -5  -7 10487.8 818.724  25 
  -4  -5  -7 9368.35 268.989  23 
  -4  -5  -8 6967.73 235.748  17 
  -4  -5  -8 6692.28 235.498  16 
  -4  -5  -8 6526.57 227.555  23 
  -4  -5  -9 10444.4 295.231  16 
  -4  -5  -9 11260.3 292.360  23 
  -4  -5 -10-34.7962 27.5024  16 
   4   5  10 74.3644 54.7924  33 
  -4  -5 -10 145.642 50.6583  23 
  -4  -5 -11-17.2609 28.7979  16 
   4   5  11-18.7428 35.0276  33 
  -4  -5 -11 7.65920 22.7138  23 
  -4  -5 -12 1551.45 103.013  16 
   4   5  12 1738.22 178.460  33 
  -4  -5 -12 1832.79 113.649  23 
  -4  -5 -13 5092.38 171.842  16 
  -4  -5 -13 5215.21 206.207  18 
   4   5  13 5390.27 267.485  33 
  -4  -5 -13 5631.84 175.875  23 
  -4  -5 -14 6666.56 165.752  16 
   4   5  14 7141.85 267.688  33 
  -4  -5 -14 7254.89 172.973  23 
  -3  -4  13 30.2790 25.4695  13 
  -3  -4  13 66.9903 23.4333  32 
   3   4 -13-6.15191 15.5741  23 
  -3  -4  12 1001.29 118.738  13 
  -3  -4  12 962.604 107.333  32 
   3   4 -12 838.407 65.1596  31 
   3   4 -12 991.955 75.9790  23 
  -3  -4  11 14.2627 26.4224  13 
  -3  -4  11-12.4533 35.9460  32 
   3   4 -11 18.4853 16.8399  31 
   3   4 -11 25.5394 30.8135  23 
  -3  -4  10 1194.73 96.0375  18 
  -3  -4  10 1248.83 166.917  13 
   3   4 -10 1318.87 110.721  31 
  -3  -4  10 1272.01 153.047  32 
   3   4 -10 1354.48 116.205  23 
  -3  -4   9 1511.72 106.906  14 
  -3  -4   9 1447.32 107.716  18 
  -3  -4   9 1314.67 178.320  13 
   3   4  -9 1434.16 120.440  31 
  -3  -4   9 1513.36 173.687  32 
   3   4  -9 1306.00 113.629  23 
  -3  -4   8 4076.22 178.047  18 
  -3  -4   8 3506.73 291.629  13 
  -3  -4   8 3951.14 175.110  14 
   3   4  -8 4108.27 207.940  31 
  -3  -4   8 4235.19 293.564  32 
   3   4  -8 3621.38 194.437  23 
  -3  -4   7 46.2496 34.0803  13 
  -3  -4   7 12.3820 15.6982  14 
  -3  -4   7 37.0247 18.0860  18 
  -3  -4   7-71.3743 61.9184   9 
   3   4  -7 16.8544 19.2251  31 
  -3  -4   7 15.9970 25.3166  32 
   3   4  -7-104.942 87.6211  28 
   3   4  -7-17.2045 42.8020  23 
   3   4  -7 75.1574 70.9400  24 
  -3  -4   6 2767.29 145.070  14 
  -3  -4   6 2657.41 138.243  18 
  -3  -4   6 2434.96 234.153  13 
  -3  -4   6 2487.94 325.198   9 
   3   4  -6 2629.33 164.306  31 
   3   4  -6 2416.84 370.134  28 
  -3  -4   6 2953.20 538.772  29 
  -3  -4   6 3013.78 236.870  32 
   3   4  -6 2358.95 473.848  24 
  -3  -4   5 12.2728 33.8696  13 
  -3  -4   5-22.7186 23.2637  14 
  -3  -4   5-13.9635 17.6265  18 
  -3  -4   5-18.5823 34.0219   9 
   3   4  -5 86.2917 74.9933  28 
   3   4  -5 11.3377 28.9130  31 
  -3  -4   5-5.88143 113.775  29 
   3   4  -5-75.0063 90.7636  24 
  -3  -4   4 11206.9 878.199   2 
  -3  -4   4 11550.1 904.031   1 
  -3  -4   4 14032.7 677.149   9 
  -3  -4   4 12024.7 878.336   4 
   3   4  -4 12791.6 751.602  28 
   3   4  -4 11728.5 961.990  24 
  -3  -4   3 23522.1 1329.99   1 
  -3  -4   3 24234.1 1281.30   4 
  -3  -4   3 26424.2 863.942   9 
  -3  -4   3 23626.2 1317.08   2 
   3   4  -3 25105.0 1007.71  28 
   3   4  -3 24296.6 1335.35  24 
  -3  -4   2-10.3230 78.7382   4 
  -3  -4   2-12.6588 81.2093   2 
  -3  -4   2-4.65662 20.0451   9 
  -3  -4   2 118.861 140.732   1 
   3   4  -2 57.3643 53.8425  28 
   3   4  -2 37.6263 66.3796  24 
  -3  -4   1 11368.2 483.669   9 
  -3  -4   1 10202.3 873.224   2 
  -3  -4   1 10807.3 865.522   4 
  -3  -4   1 9986.47 868.258   1 
   3   4  -1 11100.9 686.672  30 
   3   4  -1 10128.8 582.479  28 
   3   4  -1 9996.31 798.573  24 
  -3  -4   0 56626.0 1025.45   9 
  -3  -4   0 51277.7 1887.22   4 
  -3  -4   0 52851.5 1993.68   2 
  -3  -4   0 53687.6 2035.13   1 
   3   4   0 48904.8 1260.31  28 
   3   4   0 51530.0 1564.86  30 
   3   4   0 50924.9 1739.75  24 
  -3  -4  -1 43365.2 1713.76   4 
  -3  -4  -1 43881.0 1825.78   1 
  -3  -4  -1 47468.8 913.465   9 
  -3  -4  -1 43754.3 1804.45   2 
   3   4   1 42186.5 1115.84  28 
   3   4   1 42234.9 1475.35  30 
   3   4   1 42292.0 1519.92  24 
  -3  -4  -2 21407.6 1273.90   1 
  -3  -4  -2 21833.2 636.309   9 
  -3  -4  -2 20809.0 1272.83   2 
  -3  -4  -2 19584.7 1217.95   4 
   3   4   2 18973.7 1025.85  30 
   3   4   2 20136.9 1016.12  24 
  -3  -4  -3 55.1677 35.6743   4 
  -3  -4  -3 52.5145 83.4225   1 
  -3  -4  -3 56.9473 75.5758   2 
  -3  -4  -3-6.60552 54.5909   9 
   3   4   3 60.1850 55.3164  30 
   3   4   3 12.0276 33.2658  24 
  -3  -4  -3 61.5764 73.4331  25 
  -3  -4  -4 4282.45 556.465   2 
  -3  -4  -4 5068.31 573.410   4 
  -3  -4  -4 4602.90 587.174   1 
   3   4   4 4702.73 570.690  30 
  -3  -4  -4 4171.70 422.523  25 
  -3  -4  -5 13304.0 913.658   4 
  -3  -4  -5 11605.7 912.493   2 
  -3  -4  -5 12260.9 948.227   1 
   3   4   5 14295.7 1018.62  30 
  -3  -4  -5 12488.3 737.086  25 
  -3  -4  -6 26048.0 1258.58   4 
  -3  -4  -6 23544.5 1300.46   2 
  -3  -4  -6 24865.0 1332.30   1 
   3   4   7 4780.98 492.566  11 
   3   4   7 5932.01 758.866  30 
  -3  -4  -7 6587.50 574.547  25 
  -3  -4  -7 4725.31 172.751  23 
   3   4   8 2886.86 391.706  11 
  -3  -4  -8 3070.19 160.882  16 
   3   4   8 3545.97 598.081  30 
  -3  -4  -8 3032.62 148.847  23 
  -3  -4  -8 3412.80 428.872  25 
   3   4   8 3613.11 229.413  21 
   3   4   9 760.265 212.054  11 
  -3  -4  -9 725.999 85.1790  16 
   3   4   9 587.060 281.084  30 
   3   4   9 791.734 114.582  21 
  -3  -4  -9 782.596 79.2076  23 
  -3  -4  -9 821.173 223.535  25 
  -3  -4 -10 8192.17 266.310  16 
   3   4  10 8635.39 390.273  21 
  -3  -4 -10 8246.78 252.591  23 
  -3  -4 -11 1541.99 115.742  16 
   3   4  11 1670.13 173.590  21 
  -3  -4 -11 1635.23 115.196  23 
  -3  -4 -12 310.759 50.0248  16 
   3   4  12 324.640 81.2695  33 
   3   4  12 267.140 72.6146  21 
  -3  -4 -12 383.241 57.7887  23 
  -3  -4 -13 51.1658 24.7702  16 
   3   4  13 19.5252 25.4266  33 
  -3  -4 -13-11.9338 28.2055  23 
   3   4  13 1.73882 36.8017  21 
  -3  -4 -14 114.315 36.0571  16 
   3   4  14 70.1857 36.2998  33 
  -3  -4 -14 94.4289 31.6264  23 
   3   4  14 107.795 42.5271  21 
  -3  -4 -15 3697.24 124.596  16 
   3   4  15 3825.47 181.941  33 
  -3  -4 -15 4089.53 128.864  23 
   3   4  15 3842.28 184.085  21 
  -2  -3  14 543.666 74.0683  13 
  -2  -3  14 534.530 70.3508  32 
   2   3 -14 561.426 46.6513  23 
  -2  -3  13 48.4590 30.7230  13 
   2   3 -13-18.6156 27.7857  31 
  -2  -3  13-6.64756 28.7905  32 
   2   3 -13 52.2458 27.9962  23 
  -2  -3  12-21.9972 49.9617  13 
   2   3 -12 7.51984 21.2230  31 
  -2  -3  12-10.4910 53.3077  32 
   2   3 -12 9.89173 24.1679  23 
  -2  -3  11 1078.00 160.830  13 
   2   3 -11 1163.62 109.821  31 
  -2  -3  11 1237.29 156.291  32 
   2   3 -11 1338.75 118.955  23 
  -2  -3  10 10806.1 277.119  14 
  -2  -3  10 10937.6 478.091  32 
   2   3 -10 11385.7 345.098  31 
   2   3 -10 11639.4 343.163  23 
  -2  -3   9 1021.91 94.6051  18 
  -2  -3   9 1108.05 87.5308  14 
  -2  -3   9 1168.80 155.587  32 
   2   3  -9 1211.41 272.480  28 
  -2  -3   9 645.605 147.091  27 
   2   3  -9 1327.91 115.843  31 
   2   3  -9 1127.32 238.240  25 
   2   3  -9 1082.88 106.459  23 
  -2  -3   8 1555.24 106.831  18 
  -2  -3   8 1680.07 108.704  14 
  -2  -3   8 1482.89 273.054  11 
  -2  -3   8 1450.65 268.020   9 
   2   3  -8 1478.67 291.864  28 
  -2  -3   8 1921.75 274.119  27 
  -2  -3   8 1681.71 406.279  29 
  -2  -3   8 1765.23 187.332  32 
   2   3  -8 1506.55 122.222  31 
   2   3  -8 1479.72 118.937  23 
   2   3  -8 1433.53 249.711  25 
   2   3  -8 1609.16 367.558  24 
  -2  -3   7 4337.22 425.211  11 
  -2  -3   7 4504.64 168.235  14 
  -2  -3   7 4496.93 167.150  18 
  -2  -3   7 4316.32 432.164   9 
   2   3  -7 4607.36 484.642  28 
   2   3  -7 4538.34 201.865  31 
  -2  -3   7 4555.79 396.150  27 
  -2  -3   7 5160.43 304.145  32 
  -2  -3   7 4502.38 644.387  29 
   2   3  -7 4439.83 599.098  24 
   2   3  -7 4039.18 187.542  23 
   2   3  -7 4658.78 432.904  25 
  -2  -3   6 10116.6 612.337  11 
  -2  -3   6 10259.6 622.220   9 
  -2  -3   6 10287.7 554.127  27 
   2   3  -6 9927.17 655.310  28 
  -2  -3   6 10254.3 899.811  29 
   2   3  -6 10014.4 846.276  24 
  -2  -3   5 148.933 73.1044  11 
  -2  -3   5 230.950 93.9429   9 
   2   3  -5 265.643 108.959  28 
  -2  -3   5 205.613 70.6750  27 
   2   3  -5 170.455 82.7296  24 
   2   3  -5 306.276 90.4901  26 
  -2  -3   4 9203.96 517.524  11 
  -2  -3   4 9219.67 648.906   2 
  -2  -3   4 9153.51 628.029   4 
  -2  -3   4 8704.27 636.346   1 
  -2  -3   4 10135.2 523.694   9 
   2   3  -4 8619.25 528.335  28 
  -2  -3   4 9337.52 429.800  27 
   2   3  -4 9041.27 722.715  24 
  -2  -3   3 2090.90 234.039  11 
  -2  -3   3 1941.26 305.064   1 
  -2  -3   3 2017.33 308.316   2 
  -2  -3   3 2351.46 231.446   9 
  -2  -3   3 2045.13 306.590   4 
   2   3  -3 1905.59 220.315  30 
  -2  -3   3 2154.74 181.578  27 
   2   3  -3 2085.04 239.306  28 
   2   3  -3 2034.37 327.044  24 
  -2  -3   2 21283.5 612.446   9 
  -2  -3   2 20166.7 992.410   2 
  -2  -3   2 20504.0 1023.66   1 
   2   3  -2 20024.8 704.710  28 
  -2  -3   2 21215.9 483.436  27 
   2   3  -2 21231.2 771.803  30 
   2   3  -2 20653.0 977.994  24 
  -2  -3   1 781.627 196.392   1 
  -2  -3   1 704.390 186.333   2 
  -2  -3   1 858.018 110.714   9 
   2   3  -1 850.150 133.464  28 
   2   3  -1 781.350 156.370  30 
  -2  -3   1 719.248 69.2625  27 
   2   3  -1 630.184 159.713  24 
  -2  -3   0 464.875 46.9950  10 
  -2  -3   0 541.434 153.308   2 
  -2  -3   0 607.325 84.9603   9 
  -2  -3   0 609.359 184.209   1 
   2   3   0 498.187 102.997  28 
   2   3   0 581.878 146.231  30 
   2   3   0 500.333 140.001  24 
  -2  -3  -1 6390.07 227.439  10 
  -2  -3  -1 6726.51 578.917   1 
  -2  -3  -1 6735.73 270.984   9 
  -2  -3  -1 6764.49 570.137   2 
   2   3   1 6503.28 494.597  30 
   2   3   1 6407.27 477.490  24 
  -2  -3  -2 327.857 63.0349   9 
  -2  -3  -2 322.188 123.562   1 
  -2  -3  -2 402.755 151.155   2 
  -2  -3  -2 318.195 63.0433  10 
   2   3   2 284.498 92.9605  29 
   2   3   2 325.065 122.956  30 
  -2  -3  -2 325.556 91.5558  25 
   2   3   2 298.335 105.097  24 
  -2  -3  -3 8794.66 656.557   1 
  -2  -3  -3 8208.67 620.062   2 
  -2  -3  -3 6800.25 325.427  10 
   2   3   3 7230.04 480.440  29 
   2   3   3 9224.84 668.671  30 
   2   3   3 9555.74 529.358  24 
  -2  -3  -3 7767.63 481.172  25 
  -2  -3  -4 4603.11 469.868   1 
  -2  -3  -4 4793.39 454.826   4 
  -2  -3  -4 4368.77 453.743   2 
   2   3   4 5087.63 521.656  30 
   2   3   4 4691.64 389.110  29 
  -2  -3  -4 4441.73 333.590  26 
   2   3   4 4844.25 377.119  24 
  -2  -3  -4 5179.38 389.857  25 
  -2  -3  -5 19504.6 883.464   4 
  -2  -3  -5 20247.5 952.310   2 
  -2  -3  -5 20345.5 965.320   1 
   2   3   5 23461.0 901.353  29 
   2   3   5 20198.2 1052.19  30 
  -2  -3  -5 22934.2 769.026  26 
  -2  -3  -5 22620.4 841.889  25 
   2   3   6 24647.1 941.800  11 
  -2  -3  -6 26761.7 1085.58   2 
  -2  -3  -6 25918.4 1000.58   4 
  -2  -3  -6 27318.4 1113.14   1 
   2   3   6 25204.0 1240.06  30 
  -2  -3  -6 27934.0 976.647  25 
  -2  -3  -6 25859.6 853.352  26 
   2   3   7 17163.9 817.122  11 
   2   3   7 16938.7 1077.84  30 
  -2  -3  -7 17393.1 718.965  26 
  -2  -3  -7 17990.8 827.230  25 
   2   3   8 4265.80 431.713  11 
   2   3   8 4111.94 559.087  30 
  -2  -3  -8 4456.25 376.532  26 
  -2  -3  -8 5177.10 475.862  25 
   2   3   9 4677.70 472.383  11 
  -2  -3  -9 5222.48 197.347  31 
   2   3   9 4489.14 616.702  30 
  -2  -3  -9 4782.84 189.021  23 
   2   3   9 5201.33 301.573  21 
  -2  -3  -9 5581.14 530.464  25 
   2   3  10 67.0820 64.6857  11 
  -2  -3 -10-19.2251 28.3830  31 
   2   3  10-56.3342 74.9044  30 
   2   3  10-5.77838 39.8763  21 
  -2  -3 -10 15.7567 46.1582  25 
  -2  -3 -10-8.03494 25.6786  23 
  -2  -3 -11 16639.4 390.024  16 
   2   3  11 15976.6 569.231  21 
  -2  -3 -11 16448.2 361.702  23 
  -2  -3 -12 2621.65 152.988  16 
   2   3  12 2455.33 211.194  33 
  -2  -3 -12 2723.20 152.119  23 
   2   3  12 2628.92 229.907  21 
  -2  -3 -13 5821.18 223.391  16 
   2   3  13 5126.86 285.862  33 
  -2  -3 -13 5887.46 216.234  23 
   2   3  13 5632.99 321.984  21 
  -2  -3 -14 13.9427 25.0028  16 
   2   3  14 22.3544 20.1280  33 
   2   3  14 12.4592 24.0038  21 
  -2  -3 -14 55.2856 30.7189  23 
  -2  -3 -15 1006.01 77.7239  16 
   2   3  15 945.787 91.1324  33 
  -2  -3 -15 1084.34 75.7314  23 
   2   3  15 963.532 107.806  21 
  -2  -3 -16 3530.92 103.813  23 
   2   3  16 3202.54 153.044  21 
  -1  -2  15 1630.61 120.305  13 
  -1  -2  15 1703.35 122.875  32 
   1   2 -15 1889.80 86.8333  23 
  -1  -2  14 1870.45 161.715  13 
  -1  -2  14 1801.47 130.805  15 
   1   2 -14 1969.07 111.186  31 
  -1  -2  14 1994.26 162.604  32 
   1   2 -14 2134.82 117.095  23 
  -1  -2  13 571.737 102.107  13 
  -1  -2  13 648.446 93.6198  15 
  -1  -2  13 713.327 106.472  32 
   1   2 -13 591.518 72.4062  31 
   1   2 -13 778.380 80.2606  23 
  -1  -2  12 803.687 127.801  32 
   1   2 -12 697.728 89.1498  31 
   1   2 -12 858.516 93.1503  23 
   1   2 -11 5738.64 237.151  31 
  -1  -2  11 6187.74 354.853  32 
   1   2 -11 5649.90 237.926  23 
  -1  -2  10 6902.00 592.663  11 
  -1  -2  10 7053.20 551.652  27 
  -1  -2  10 7364.36 897.669  29 
   1   2 -10 6584.61 652.591  28 
  -1  -2  10 7066.55 378.749  32 
   1   2 -10 6873.98 257.961  31 
   1   2 -10 6817.03 260.719  23 
   1   2 -10 7606.07 630.686  25 
  -1  -2   9 703.427 184.054  11 
  -1  -2   9 519.338 60.8105  18 
   1   2  -9 813.683 220.385  28 
  -1  -2   9 389.367 193.351  29 
  -1  -2   9 725.090 113.310  32 
  -1  -2   9 626.254 138.335  27 
   1   2  -9 697.412 79.9151  31 
   1   2  -9 710.482 77.9881  23 
   1   2  -9 283.733 116.017  25 
  -1  -2   8 1790.70 265.474  11 
  -1  -2   8 1908.99 402.569  29 
   1   2  -8 1765.79 283.469  28 
  -1  -2   8 1854.85 249.773  27 
   1   2  -8 2026.91 356.129  24 
   1   2  -8 1863.83 271.054  25 
  -1  -2   7 12265.7 637.390  11 
  -1  -2   7 12774.5 604.841  27 
   1   2  -7 12651.1 728.133  28 
  -1  -2   7 12624.6 959.039  29 
   1   2  -7 12490.7 843.494  24 
   1   2  -7 13372.5 665.238  25 
  -1  -2   6 4165.72 341.451  11 
  -1  -2   6 4231.02 318.069  27 
   1   2  -6 4112.57 378.202  28 
   1   2  -6 4089.60 458.713  24 
  -1  -2   5 549.936 115.120  11 
  -1  -2   5 582.793 113.679   1 
  -1  -2   5 674.082 125.845   2 
  -1  -2   5 597.793 114.208   4 
  -1  -2   5 437.605 87.0392  27 
   1   2  -5 623.519 129.506  28 
   1   2  -5 581.737 162.305  24 
   1   2  -5 519.869 84.4035  26 
  -1  -2   4 15486.2 554.281  11 
  -1  -2   4 15725.5 640.166   2 
  -1  -2   4 15397.3 640.202   1 
   1   2  -4 14536.4 574.567  28 
  -1  -2   4 14725.4 481.899  27 
   1   2  -4 14842.7 753.774  24 
  -1  -2   3 851.132 120.797  11 
  -1  -2   3 1043.75 173.591   1 
  -1  -2   3 974.066 165.006   2 
  -1  -2   3 935.782 109.783  27 
   1   2  -3 769.446 118.720  28 
   1   2  -3 739.651 122.801  30 
   1   2  -3 927.808 175.595  24 
  -1  -2   2 9688.03 379.635  11 
  -1  -2   2 10294.2 537.796   1 
  -1  -2   2 10181.6 532.237   2 
   1   2  -2 8969.51 419.930  30 
  -1  -2   2 9782.54 292.420  27 
   1   2  -2 9458.95 369.370  28 
   1   2  -2 9735.77 535.574  24 
  -1  -2   1 33408.7 967.624   1 
  -1  -2   1 31499.7 430.748  10 
  -1  -2   1 31547.6 514.482   9 
  -1  -2   1 33488.8 961.917   2 
   1   2  -1 31556.8 817.748  30 
   1   2  -1 28486.0 603.423  28 
  -1  -2   1 31186.0 411.377  27 
   1   2  -1 30134.0 878.582  24 
  -1  -2   0 104173. 765.774  10 
  -1  -2   0 105834. 1717.31   1 
  -1  -2   0 101594. 763.944   9 
  -1  -2   0 107456. 1701.29   2 
   1   2   0 99151.5 1489.06  29 
  -1  -2   0 102209. 444.087  27 
   1   2   0 105045. 1541.81  30 
  -1  -2  -1 15638.2 666.854   2 
  -1  -2  -1 14687.6 335.363  10 
  -1  -2  -1 16248.5 675.885   1 
  -1  -2  -1 13924.2 266.199   9 
   1   2   1 13931.2 506.712  29 
   1   2   1 13839.3 539.440  24 
  -1  -2  -2 157.488 81.5861   2 
  -1  -2  -2 172.102 71.6927   1 
  -1  -2  -2 203.599 47.8810  10 
   1   2   2 144.125 61.6289  29 
   1   2   2 152.793 19.8225  27 
   1   2   2 105.618 61.8252  24 
  -1  -2  -3 9143.00 503.699   1 
  -1  -2  -3 8162.07 319.689  10 
  -1  -2  -3 8828.84 483.824   2 
   1   2   3 9279.58 471.014  29 
   1   2   3 8467.78 539.429  30 
   1   2   3 8516.11 219.545  27 
  -1  -2  -3 10095.0 416.372  26 
   1   2   3 8418.24 410.566  24 
  -1  -2  -4 26340.7 652.228  10 
  -1  -2  -4 28392.8 860.303   2 
  -1  -2  -4 28346.5 872.998   1 
   1   2   4 27291.4 979.219  30 
   1   2   4 29885.4 910.497  29 
   1   2   4 29315.3 499.531  27 
  -1  -2  -4 28953.9 727.046  25 
   1   2   5 83487.3 1440.24  11 
  -1  -2  -5 77534.2 1397.71   1 
  -1  -2  -5 79174.4 1393.94   2 
  -1  -2  -5 75252.4 1274.29   4 
  -1  -2  -5 76837.9 1245.60  10 
   1   2   5 82658.2 1649.37  29 
   1   2   5 84370.1 998.532  27 
   1   2   5 72923.5 1788.10  30 
  -1  -2  -5 82106.3 1335.51  25 
  -1  -2  -5 82361.1 1333.75  26 
   1   2   6 9330.10 518.291  11 
   1   2   6 8813.69 648.890  30 
   1   2   6 9945.37 390.154  27 
   1   2   6 9172.60 614.699  29 
  -1  -2  -6 9936.32 485.040  26 
  -1  -2  -6 9441.76 496.274  25 
   1   2   7 25.3834 59.7680  11 
   1   2   7 26.5609 29.5319  27 
   1   2   7 160.749 76.1935  29 
   1   2   7 15.9287 58.1888  30 
  -1  -2  -7 27.4820 47.0622  26 
  -1  -2  -7 99.7033 54.7483  25 
   1   2   8 2251.69 293.082  11 
   1   2   8 2500.52 386.580  29 
   1   2   8 2044.06 337.713  30 
   1   2   8 2460.18 242.897  27 
  -1  -2  -8 2523.09 305.257  25 
  -1  -2  -8 2209.35 244.466  26 
   1   2   9 22130.5 977.532  11 
   1   2   9 24239.5 1292.53  29 
   1   2   9 23401.0 809.191  27 
   1   2   9 22682.1 1236.22  30 
   1   2   9 23062.8 639.675  21 
  -1  -2  -9 23953.6 1033.37  25 
  -1  -2  -9 23028.4 398.112  23 
   1   2  10 2019.23 307.840  11 
  -1  -2 -10 1935.18 123.126  31 
   1   2  10 2334.18 433.226  29 
   1   2  10 2165.16 260.036  27 
  -1  -2 -10 1989.17 126.377  23 
   1   2  10 2316.19 211.286  21 
  -1  -2 -10 2132.21 335.624  25 
   1   2  11 11957.4 448.959  33 
  -1  -2 -11 13481.6 324.666  31 
   1   2  11 12607.3 510.469  21 
  -1  -2 -11 13823.6 340.959  23 
   1   2  12 650.891 105.392  33 
  -1  -2 -12 770.570 82.7135  31 
  -1  -2 -12 729.349 78.8796  23 
   1   2  12 718.204 119.066  21 
  -1  -2 -13 1409.23 106.432  31 
   1   2  13 1266.26 134.600  33 
   1   2  13 1200.34 150.572  21 
  -1  -2 -13 1282.26 102.931  23 
  -1  -2 -14 8.49688 21.2790  16 
  -1  -2 -14 69.4149 24.5805  23 
   1   2  14 33.3814 30.7716  21 
  -1  -2 -15 189.432 38.5468  16 
  -1  -2 -15 253.008 37.9591  23 
   1   2  15 284.600 61.7431  21 
  -1  -2 -16-3.39615 14.4409  16 
   1   2  16-29.5483 22.2320  15 
  -1  -2 -16 15.0904 14.9110  23 
   1   2  16-10.7188 22.6467  21 
   0   1 -16 423.213 42.1138  16 
   0   1 -16 417.077 36.6702  23 
   0  -1  15 43.3115 25.6543  13 
   0  -1  15 8.56420 16.8897  32 
   0   1 -15 24.2833 21.2295  31 
   0   1 -15 56.0301 27.8293  23 
   0  -1  15 40.4541 26.9222  21 
   0   1 -14 83.0544 35.1464  31 
   0  -1  14 74.0614 42.1273  32 
   0   1 -14 133.593 39.4872  23 
   0  -1  14 35.6570 27.0161  21 
   0   1 -13 658.438 80.3344  31 
   0  -1  13 572.939 102.437  32 
   0  -1  13 555.270 102.646  21 
   0   1 -13 684.672 83.9129  23 
   0  -1  12 7733.62 384.369  32 
   0   1 -12 7700.88 272.737  31 
   0   1 -12 8092.87 278.123  23 
   0   1 -11-5.76371 25.7811  31 
   0  -1  11 12.0179 24.8207  32 
   0   1 -11 5.62514 24.9930  23 
   0  -1  10 7394.07 585.731  11 
   0  -1  10 7751.14 543.563  27 
   0  -1  10 8010.93 381.509  32 
   0   1 -10 7167.66 656.707  28 
   0  -1  10 7840.84 854.065  29 
   0   1 -10 7536.32 258.734  31 
   0   1 -10 7968.22 616.200  25 
   0   1 -10 7640.44 263.255  23 
   0  -1   9 11528.4 674.305  11 
   0   1  -9 12065.4 797.786  28 
   0  -1   9 11749.1 976.252  29 
   0  -1   9 11963.1 629.840  27 
   0   1  -9 12347.2 712.722  25 
   0  -1   8 15228.5 714.442  11 
   0  -1   8 14577.8 1019.83  29 
   0  -1   8 15295.8 654.345  27 
   0   1  -8 15297.6 839.536  28 
   0   1  -8 15700.6 730.709  25 
   0  -1   7 23767.1 815.083  11 
   0  -1   7 22254.7 1160.63  29 
   0  -1   7 23723.3 749.882  27 
   0   1  -7 24435.1 960.061  28 
   0   1  -7 24759.9 830.312  25 
   0   1  -7 22869.7 894.413  24 
   0  -1   6 2682.00 251.466  11 
   0  -1   6 2927.34 243.757  27 
   0   1  -6 2865.39 290.235  28 
   0   1  -6 2717.00 285.978  24 
   0   1  -6 2853.62 260.500  25 
   0  -1   5 2559.89 220.549  11 
   0  -1   5 1946.46 114.587   1 
   0   1  -5 2288.24 112.374   3 
   0  -1   5 2065.42 120.611   2 
   0  -1   5 2495.26 206.078  27 
   0   1  -5 2350.29 239.451  28 
   0   1  -5 2383.88 249.527  24 
   0   1  -5 2497.97 218.349  25 
   0   1  -5 2246.02 126.247  26 
   0  -1   4 35801.5 732.369  11 
   0   1  -4 34242.2 789.789  28 
   0   1  -4 34135.1 394.429  26 
   0   1  -4 35084.9 876.522  24 
   0  -1   3 54673.9 800.110  11 
   0   1  -3 53452.9 830.080  28 
   0   1  -3 52425.0 982.541  24 
   0  -1   2 67377.9 769.732  11 
   0  -1   2 68240.0 729.337  27 
   0   1  -2 66011.6 756.861  28 
   0   1  -2 65430.8 1008.72  24 
   0  -1   1 124057. 874.966  11 
   0   1  -1 131010. 1300.25  30 
   0  -1   1 121189. 815.631  27 
   0   1  -1 143230. 818.662  28 
   0  -1   1 119441. 627.676  26 
   0   1  -1 134518. 1364.25  24 
   0  -1   0 46406.6 509.151  25 
   0  -1   0 47417.1 497.870  26 
   0  -1  -1 16205.5 309.113  10 
   0   1   1 16193.5 448.157  29 
   0   1   1 15860.6 461.527  30 
   0  -1  -1 17415.2 302.595  28 
   0   1   1 16136.2 243.605  27 
   0  -1  -1 16223.5 319.896  25 
   0  -1  -2 1580.94 115.444  10 
   0  -1  -2 1553.83 120.006  28 
   0   1   2 1244.56 135.787  30 
   0   1   2 1501.49 92.1631  27 
   0  -1  -2 1413.19 109.223  25 
   0   1   3 1280.40 132.551  11 
   0  -1  -3 1172.73 115.484  10 
   0  -1  -3 1260.87 133.286  28 
   0   1   3 1156.33 146.105  30 
   0   1   3 1227.18 100.461  27 
   0  -1  -3 1337.91 126.401  26 
   0  -1  -3 1155.85 113.712  25 
   0   1   4 729.489 114.732  11 
   0  -1  -4 752.983 88.1194   1 
   0  -1  -4 719.668 103.503  10 
   0   1   4 625.564 37.6029   3 
   0   1   4 678.315 144.439  29 
   0   1   4 636.616 121.749  30 
   0   1   4 752.632 91.7213  27 
   0  -1  -4 780.187 120.228  28 
   0  -1  -4 730.905 107.569  26 
   0  -1  -4 751.885 106.825  25 
   0   1   5 21208.2 661.405  11 
   0  -1  -5 20794.6 631.275  10 
   0   1   5 21055.5 548.722  27 
   0  -1  -5 22420.3 711.112  28 
   0   1   5 19747.0 857.987  29 
   0  -1  -5 21111.4 608.630  26 
   0  -1  -5 20653.6 615.221  25 
   0   1   6 172.836 78.1428  11 
   0  -1  -6 130.308 56.2123  28 
   0   1   6 101.847 50.1120  27 
   0   1   6 110.512 76.6602  30 
   0   1   6 67.4328 53.0172  29 
   0  -1  -6 107.665 69.8417  25 
   0  -1  -6 66.8153 26.7128  26 
   0   1   7 34576.2 1005.54  11 
   0   1   7 33620.4 1376.32  29 
   0   1   7 33825.5 1148.44  30 
   0  -1  -7 35758.5 1116.58  28 
   0   1   7 35780.2 893.927  27 
   0  -1  -7 34987.3 1000.96  25 
   0  -1  -7 34922.4 926.342  26 
   0   1   8 1735.68 248.935  11 
   0   1   8 1725.02 338.208  29 
   0   1   8 1962.94 232.175  27 
   0  -1  -8 1797.11 274.275  28 
   0  -1  -8 1880.08 258.213  25 
   0   1   9 925.280 196.500  11 
   0   1   9 973.337 173.610  27 
   0   1   9 1126.62 300.995  29 
   0  -1  -9 1007.61 225.092  28 
   0  -1  -9 887.440 199.632  25 
   0  -1  -9 958.419 86.3054  23 
   0   1   9 1089.56 137.622  21 
   0   1  10 11070.5 717.262  11 
   0   1  10 11078.9 426.281  32 
   0   1  10 11202.0 1007.02  29 
   0  -1 -10 10660.2 283.405  31 
   0   1  10 11043.1 631.652  27 
   0  -1 -10 10548.8 769.995  28 
   0  -1 -10 11853.4 767.807  25 
   0  -1 -10 11298.5 306.698  23 
   0   1  10 10757.9 454.961  21 
   0   1  11 5302.52 303.976  32 
   0  -1 -11 5180.28 202.801  31 
   0   1  11 5163.53 321.644  21 
   0  -1 -11 5843.04 226.711  23 
   0   1  12 4278.90 267.393  32 
   0  -1 -12 4108.96 185.256  31 
   0   1  12 4014.75 281.910  21 
   0  -1 -12 4246.12 198.746  23 
   0   1  13 30.4707 22.9882  32 
   0  -1 -13 27.4018 19.9796  31 
   0   1  13-10.1993 37.3690  21 
   0  -1 -13-41.4254 38.5519  23 
   0   1  14 3425.75 202.093  32 
   0  -1 -14 3747.92 164.901  23 
   0   1  14 3286.99 220.772  21 
   0   1  15 2321.70 160.051  15 
   0  -1 -15 2584.35 116.924  23 
   0   1  15 2250.36 154.882  21 
   0   1  16 6000.44 198.435  15 
   0  -1 -16 7017.09 146.013  23 
  -1   0 -16 4794.55 152.616  16 
   1   0  16 4591.94 205.911  21 
   1   0  15 3079.88 189.997  13 
  -1   0 -15 3510.58 154.070  31 
   1   0  15 3165.60 209.819  21 
   1   0  14 690.136 97.2550  32 
  -1   0 -14 641.900 76.9110  31 
  -1   0 -14 793.636 82.4760  23 
   1   0  14 644.475 106.987  21 
  -1   0 -13 48.4609 26.2029  31 
   1   0  13 19.8246 21.5322  32 
   1   0  13 39.3523 44.8190  21 
  -1   0 -13-6.51958 25.7842  23 
  -1   0 -12 232.404 57.9192  31 
   1   0  12 181.524 49.9141  32 
  -1   0 -12 282.715 63.9342  23 
   1   0  11 33480.5 1291.02  11 
  -1   0 -11 33418.7 549.651  31 
   1   0  11 34365.0 1725.40  29 
   1   0  11 31253.4 1092.52  27 
   1   0  11 33278.2 751.650  32 
  -1   0 -11 35413.9 1376.77  25 
  -1   0 -11 32801.7 561.183  23 
   1   0  10 815.824 186.499  11 
   1   0  10 972.051 122.157  32 
   1   0  10 1021.61 276.948  29 
  -1   0 -10 947.270 152.836  34 
  -1   0 -10 693.593 218.555  28 
  -1   0 -10 828.311 85.2879  31 
   1   0  10 782.275 153.670  27 
  -1   0 -10 897.450 194.917  25 
  -1   0 -10 992.289 95.0944  23 
   1   0   9 365.459 121.961  11 
  -1   0  -9 461.553 151.671  28 
   1   0   9 420.702 133.681  30 
   1   0   9 388.875 157.855  29 
   1   0   9 403.562 107.702  27 
  -1   0  -9 533.787 145.258  25 
   1   0   8 746.236 151.625  11 
  -1   0  -8 800.240 205.693  28 
   1   0   8 628.911 186.568  29 
   1   0   8 522.045 146.847  30 
   1   0   8 686.412 134.672  27 
  -1   0  -8 699.020 151.558  25 
   1   0   7 10147.1 514.784  11 
  -1   0  -7 10812.7 635.187  28 
   1   0   7 10118.3 464.447  27 
   1   0   7 10029.9 683.023  29 
  -1   0  -7 10133.5 518.936  25 
   1   0   6 14376.8 551.275  11 
   1   0   6 15001.1 519.994  27 
   1   0   6 14047.1 724.658  29 
  -1   0  -6 14311.1 549.514  25 
   1   0   5 3446.99 243.932  11 
  -1   0  -5 3061.75 141.723   3 
   1   0   5 3701.47 328.004  29 
  -1   0  -5 4312.92 314.584  28 
   1   0   5 4051.98 249.210  27 
  -1   0  -5 3384.82 238.888  25 
  -1   0  -5 3935.34 190.186  24 
   1   0   4 1321.42 132.175  11 
  -1   0  -4 1181.03 88.9742   3 
  -1   0  -4 1395.27 159.617  28 
   1   0   4 1310.68 126.568  27 
  -1   0  -4 1223.10 126.860  25 
  -1   0  -4 1126.31 79.5282  24 
   1   0   3 53.2514 28.2014  11 
  -1   0  -3 34.9316 28.3178   2 
  -1   0  -3 33.6772 14.2338   3 
  -1   0  -3 19.9569 19.2902   4 
  -1   0  -3 44.4683 35.1863  28 
  -1   0  -3 41.0949 30.3929  25 
   1   0   2 16683.9 353.246  11 
  -1   0  -2 15635.8 496.452   2 
  -1   0  -2 17757.0 362.713   3 
  -1   0  -2 17934.7 375.331   9 
  -1   0  -2 15948.3 462.505   4 
   1   0   2 15663.2 335.817  27 
  -1   0  -2 15462.8 316.742  25 
   1   0   1 581.021 40.8486  11 
  -1   0  -1 529.673 55.5066   3 
  -1   0  -1 492.195 78.2824   4 
  -1   0  -1 422.907 81.3745   2 
  -1   0  -1 544.227 53.5961   9 
  -1   0  -1 433.916 50.7592  29 
  -1   0  -1 524.434 35.8228  25 
  -1   0   0 462.818 83.3673   2 
  -1   0   0 495.239 52.6715   3 
   1   0   0 487.104 47.7939  10 
  -1   0   0 422.840 73.3804   4 
  -1   0   0 567.942 58.7034   9 
  -1   0   0 462.923 63.1382  29 
   1   0   0 596.560 58.7272  28 
  -1   0   1 1880.20 86.3235  11 
  -1   0   1 1567.42 92.5950   3 
  -1   0   1 1568.19 157.339   2 
  -1   0   1 1734.47 120.962   9 
   1   0  -1 1703.01 91.4265  10 
  -1   0   1 1570.50 140.478   4 
  -1   0   1 1510.95 148.553  29 
   1   0  -1 1705.91 119.190  28 
   1   0  -1 1760.58 78.0339  25 
  -1   0   2 2465.25 135.148  11 
   1   0  -2 2500.93 135.554  10 
  -1   0   2 2360.17 197.282   2 
  -1   0   2 2636.42 184.019   4 
  -1   0   2 2331.34 110.716   3 
  -1   0   2 1949.81 83.4849  30 
   1   0  -2 2564.45 171.727  28 
   1   0  -2 2490.11 131.041  25 
  -1   0   3 24461.4 520.449  11 
  -1   0   3 24122.4 548.120   4 
   1   0  -3 23461.9 507.069  10 
   1   0  -3 24491.3 609.950  28 
  -1   0   3 24645.8 414.715  30 
   1   0  -3 24802.1 499.576  25 
   1   0  -3 23256.2 513.656  26 
  -1   0   4 14380.0 462.121  11 
   1   0  -4 13852.4 451.946  10 
  -1   0   4 13894.2 433.734  27 
   1   0  -4 14325.0 532.819  28 
  -1   0   4 14441.5 727.611  29 
  -1   0   4 14951.6 396.123  30 
   1   0  -4 14673.6 451.639  25 
   1   0  -4 13624.1 430.835  26 
  -1   0   5 60.9180 37.7785  11 
  -1   0   5 78.5864 50.1416  27 
   1   0  -5 144.268 82.3897  28 
  -1   0   5 48.6724 51.5601  29 
   1   0  -5 72.6512 41.9915  25 
   1   0  -5 76.6588 44.3697  26 
  -1   0   6 32620.0 881.767  11 
  -1   0   6 31071.5 1324.37  29 
  -1   0   6 32117.8 827.031  27 
   1   0  -6 33259.2 1004.50  28 
   1   0  -6 32224.5 1170.18  24 
   1   0  -6 32387.5 798.745  26 
   1   0  -6 34281.7 892.418  25 
  -1   0   7 17748.3 717.191  11 
  -1   0   7 17925.2 683.019  27 
  -1   0   7 17686.1 1102.74  29 
   1   0  -7 18189.4 821.269  28 
   1   0  -7 18668.9 664.424  26 
   1   0  -7 18898.3 741.566  25 
   1   0  -7 18377.4 957.079  24 
  -1   0   8 22705.4 895.949  11 
  -1   0   8 23639.4 855.724  27 
   1   0  -8 23740.2 1026.33  28 
  -1   0   8 24833.4 1410.49  29 
   1   0  -8 25986.8 1216.87  24 
   1   0  -8 24886.2 940.853  25 
  -1   0   9 2796.08 341.860  11 
  -1   0   9 3440.35 572.402  29 
  -1   0   9 2966.72 329.207  27 
  -1   0   9 3215.07 234.533  32 
   1   0  -9 2907.12 397.650  28 
   1   0  -9 3015.96 363.405  25 
  -1   0   9 2904.65 219.074  21 
   1   0  -9 2801.77 153.472  23 
  -1   0  10 12297.6 764.165  11 
  -1   0  10 14170.4 1217.06  29 
  -1   0  10 13080.3 493.882  32 
   1   0 -10 12041.0 852.819  28 
  -1   0  10 12732.4 716.863  27 
   1   0 -10 12541.2 339.002  23 
  -1   0  10 12304.3 472.379  21 
   1   0 -10 13149.4 807.494  25 
  -1   0  11 186.083 51.3035  13 
  -1   0  11 219.171 63.6405  32 
  -1   0  11 180.359 50.0104  21 
   1   0 -11 192.371 39.2624  23 
  -1   0  12 374.495 84.3658  13 
  -1   0  12 340.801 77.5724  32 
   1   0 -12 344.924 56.9877  23 
  -1   0  12 348.691 76.8731  21 
  -1   0  13 811.673 111.959  13 
  -1   0  13 872.404 118.002  32 
  -1   0  13 930.409 118.143  21 
   1   0 -13 867.415 88.4403  23 
  -1   0  14 12.1264 18.7521  15 
  -1   0  14 63.2465 38.7422  32 
   1   0 -14 6.58416 22.6434  23 
  -1   0  14-4.60694 20.3183  21 
  -1   0  15 58.5025 23.8944  15 
  -1   0  15 45.5851 19.0275  32 
   1   0 -15 33.6579 17.6064  23 
  -2  -1 -16 636.676 59.0854  16 
   2   1  16 607.602 81.0809  21 
  -2  -1 -16 662.822 53.5448  23 
  -2  -1 -15-1.20775 25.8808  16 
  -2  -1 -15 2.99165 22.9715  31 
   2   1  15-14.1321 37.8797  21 
  -2  -1 -15 2.89646 21.8152  23 
  -2  -1 -14 622.609 82.5584  16 
  -2  -1 -14 518.839 73.2887  31 
   2   1  14 433.617 84.4711  33 
   2   1  14 534.944 103.220  21 
  -2  -1 -14 541.021 69.6916  23 
  -2  -1 -13 483.842 66.6077  31 
  -2  -1 -13 331.690 62.2324  23 
   2   1  13 436.078 98.0076  21 
  -2  -1 -12 2174.00 141.322  31 
  -2  -1 -12 2418.83 150.616  23 
   2   1  11 461.858 151.655  11 
  -2  -1 -11 366.190 56.9672  31 
   2   1  11 461.027 127.433  27 
  -2  -1 -11 506.592 168.603  25 
  -2  -1 -11 494.731 73.7508  23 
   2   1  10 8258.50 608.201  11 
  -2  -1 -10 7924.62 253.641  31 
   2   1  10 7537.95 487.016  27 
   2   1  10 6997.72 765.763  30 
  -2  -1 -10 8028.08 628.796  25 
  -2  -1 -10 8146.73 263.327  23 
   2   1   9 12009.6 678.044  11 
   2   1   9 11325.8 551.274  27 
   2   1   9 11255.3 918.350  30 
  -2  -1  -9 11933.2 694.651  25 
   2   1   8 3248.81 326.184  11 
   2   1   8 2804.87 439.927  30 
   2   1   8 3097.78 265.174  27 
  -2  -1  -8 3364.68 336.537  25 
   2   1   7 19271.4 734.384  11 
   2   1   7 19399.2 799.977  29 
   2   1   7 16950.3 998.902  30 
   2   1   7 18173.6 599.648  27 
  -2  -1  -7 18124.5 710.448  25 
   2   1   6 29937.4 840.521  11 
  -2  -1  -6 27996.6 851.720   4 
  -2  -1  -6 27493.5 935.457   2 
   2   1   6 28825.3 853.625  29 
   2   1   6 28085.6 1197.53  30 
   2   1   6 30405.6 721.540  27 
  -2  -1  -6 27306.1 792.465  25 
   2   1   5 27074.7 732.740  11 
  -2  -1  -5 25441.4 566.827   3 
  -2  -1  -5 24592.8 805.557   4 
  -2  -1  -5 25409.8 906.656   2 
   2   1   5 27781.9 625.929  27 
   2   1   5 25432.2 668.789  29 
  -2  -1  -5 25696.8 689.918  25 
   2   1   4 30124.5 722.603  11 
  -2  -1  -4 27896.3 853.849   4 
  -2  -1  -4 25500.0 557.031   3 
  -2  -1  -4 27743.7 929.943   2 
  -2  -1  -4 25352.2 881.449   1 
   2   1   4 26941.5 518.563  29 
   2   1   4 31369.9 616.621  27 
  -2  -1  -4 28892.9 675.320  25 
  -2  -1  -3 2510.46 252.764   4 
  -2  -1  -3 2509.06 204.679   9 
  -2  -1  -3 2681.54 298.605   2 
  -2  -1  -3 2801.58 304.055   1 
  -2  -1  -3 2941.31 193.246   3 
   2   1   3 2840.78 172.927  27 
   2   1   3 2264.88 130.896  24 
  -2  -1  -3 2439.01 180.538  25 
  -2  -1  -2 340.293 99.6575   4 
  -2  -1  -2 329.700 121.202   1 
  -2  -1  -2 349.160 108.246   2 
  -2  -1  -2 387.081 69.6048   3 
  -2  -1  -2 396.306 69.2257   9 
   2   1   2 425.124 82.7466  24 
  -2  -1  -2 357.512 58.9405  25 
  -2  -1  -1 26262.9 892.207   1 
  -2  -1  -1 27795.0 554.280   3 
  -2  -1  -1 25264.0 859.310   2 
  -2  -1  -1 27619.1 560.023   9 
  -2  -1  -1 26678.2 338.642  29 
  -2  -1  -1 26831.4 475.634  25 
   2   1   1 27720.2 700.391  24 
  -2  -1   0 909112. 3518.29  29 
   2   1   0 907201. 3737.46  30 
  -2  -1   0 910122. 4802.03   4 
  -2  -1   0 914735. 5199.68   2 
   2   1  -1 36251.7 750.001  28 
   2   1  -1 32650.2 525.402  30 
  -2  -1   1 33357.7 853.806  29 
  -2  -1   1 35273.3 717.583   9 
  -2  -1   1 32616.4 981.684   2 
  -2  -1   1 35440.3 627.845   3 
  -2  -1   1 31849.0 981.233   1 
   2   1  -1 34437.5 340.554  10 
  -2  -1   1 32254.8 904.313   4 
  -2  -1   2 2195.60 162.052  11 
  -2  -1   2 1993.45 227.071   4 
  -2  -1   2 2023.89 244.568   2 
  -2  -1   2 2157.42 155.402   3 
  -2  -1   2 2223.43 202.494   9 
  -2  -1   2 1986.41 242.533   1 
   2   1  -2 2287.94 208.531  28 
  -2  -1   2 1990.59 248.534  29 
  -2  -1   2 2062.35 154.178  27 
  -2  -1   3 2024.99 175.155  11 
  -2  -1   3 2039.83 228.727   4 
  -2  -1   3 2134.90 258.442   2 
  -2  -1   3 2193.32 227.682   9 
   2   1  -3 2215.76 222.718  28 
  -2  -1   3 2073.73 283.107  29 
  -2  -1   3 2087.07 173.533  27 
   2   1  -3 1992.01 265.017  24 
   2   1  -3 1961.27 184.339  26 
  -2  -1   4 3270.27 248.503  11 
  -2  -1   4 3239.16 314.865   2 
  -2  -1   4 2912.30 296.243   9 
  -2  -1   4 3336.23 291.632   4 
  -2  -1   4 2998.82 229.567  27 
  -2  -1   4 2916.50 368.526  29 
   2   1  -4 3183.11 291.686  28 
   2   1  -4 3175.76 366.917  24 
   2   1  -4 3593.57 249.393  25 
   2   1  -4 3184.25 248.604  26 
  -2  -1   5 680.969 127.812  11 
  -2  -1   5 637.150 168.296   9 
  -2  -1   5 752.825 132.577  27 
  -2  -1   5 777.593 204.045  29 
   2   1  -5 807.747 161.098  28 
   2   1  -5 615.163 119.203  26 
   2   1  -5 798.554 132.183  25 
   2   1  -5 801.174 205.701  24 
  -2  -1   6 156.503 54.3491  11 
  -2  -1   6 150.105 100.641   9 
  -2  -1   6 193.122 72.5415  27 
  -2  -1   6 175.460 113.829  29 
   2   1  -6 191.842 93.6254  28 
   2   1  -6 165.568 77.3709  25 
   2   1  -6 167.432 102.926  24 
   2   1  -6 193.834 70.8276  26 
  -2  -1   7 3825.00 354.733  11 
  -2  -1   7 3021.37 398.791   9 
  -2  -1   7 4178.52 566.732  29 
  -2  -1   7 4238.59 365.761  27 
   2   1  -7 3875.17 417.004  28 
   2   1  -7 4045.39 515.431  24 
   2   1  -7 4188.05 365.017  25 
   2   1  -7 4334.07 346.689  26 
  -2  -1   8 85.8047 59.8277  11 
  -2  -1   8-5.04832 14.6005  18 
  -2  -1   8 45.6054 98.8860   9 
   2   1  -8-89.0595 75.1304  28 
  -2  -1   8 6.71895 23.4969  32 
  -2  -1   8-13.7455 42.0928  27 
  -2  -1   8 141.559 143.986  29 
   2   1  -8 25.1004 19.6120  23 
   2   1  -8 21.3403 49.0757  24 
   2   1  -8 35.9749 39.1763  25 
  -2  -1   9 329.794 85.7985  13 
  -2  -1   9 249.178 46.9321  18 
  -2  -1   9 170.035 90.0572  11 
  -2  -1   9 389.414 148.428   9 
  -2  -1   9 410.993 133.893  27 
   2   1  -9 311.114 138.666  28 
  -2  -1   9 489.287 231.615  29 
  -2  -1   9 464.027 98.9064  32 
   2   1  -9 314.296 57.4125  23 
  -2  -1  10 7300.65 396.451  13 
  -2  -1  10 6879.87 372.049  32 
   2   1 -10 6753.81 262.119  23 
  -2  -1  11 3344.30 257.868  15 
  -2  -1  11 3727.73 278.599  13 
  -2  -1  11 3523.53 263.264  32 
   2   1 -11 3667.64 193.108  23 
  -2  -1  12 3070.90 228.997  15 
  -2  -1  12 3322.19 243.302  13 
  -2  -1  12 3472.30 247.221  32 
   2   1 -12 3595.91 184.328  23 
  -2  -1  13 626.521 92.7314  13 
  -2  -1  13 621.589 92.3760  15 
  -2  -1  13 709.514 100.566  32 
   2   1 -13 679.353 72.5071  23 
  -2  -1  14 1196.05 103.378  13 
  -2  -1  14 1071.07 98.2551  15 
  -2  -1  14 1221.17 112.492  32 
   2   1 -14 1265.32 83.6709  23 
  -3  -2 -16 2460.36 109.554  16 
  -3  -2 -16 2402.45 100.659  23 
  -3  -2 -15 125.711 37.2669  16 
   3   2  15 91.9670 35.2981  33 
  -3  -2 -15 146.295 37.1077  23 
   3   2  15 147.789 41.2263  21 
  -3  -2 -14 2338.33 148.838  16 
   3   2  14 2151.15 192.346  21 
  -3  -2 -14 2197.98 135.130  23 
  -3  -2 -13 5005.86 229.932  16 
   3   2  13 4477.16 291.447  21 
  -3  -2 -13 5119.96 210.780  23 
  -3  -2 -12 171.603 44.3060  16 
  -3  -2 -12 200.304 50.3000  31 
  -3  -2 -12 131.742 37.4421  23 
   3   2  12 127.713 55.6266  21 
  -3  -2 -11 21107.2 481.381  16 
  -3  -2 -11 20866.5 423.413  31 
  -3  -2 -11 20496.4 431.798  23 
  -3  -2 -10 63.2387 42.9906  16 
   3   2  10-22.9495 42.4455  11 
   3   2  10-26.9410 136.034  30 
  -3  -2 -10 36.1735 29.9386  31 
  -3  -2 -10-0.31853 36.4335  25 
  -3  -2 -10 60.5067 32.3542  23 
   3   2   9 3361.83 377.695  11 
  -3  -2  -9 3251.43 191.011  16 
  -3  -2  -9 3454.67 160.968  31 
   3   2   9 3067.20 513.363  30 
  -3  -2  -9 3575.97 165.590  23 
  -3  -2  -9 3391.98 391.358  25 
   3   2   8 11807.7 662.285  11 
   3   2   8 11296.6 946.182  30 
   3   2   8 10995.5 483.200  27 
  -3  -2  -8 11570.1 678.812  25 
   3   2   7 12796.1 651.856  11 
   3   2   7 12321.3 939.914  30 
   3   2   7 12090.3 475.363  27 
  -3  -2  -7 12684.4 650.226  25 
   3   2   6 2024.29 245.695  11 
  -3  -2  -6 2360.43 366.419   2 
  -3  -2  -6 2229.99 326.322   4 
   3   2   6 2512.49 204.185  27 
   3   2   6 1983.15 372.226  30 
  -3  -2  -6 2177.13 261.819  25 
   3   2   5 8472.16 492.898  11 
  -3  -2  -5 9224.16 723.964   2 
  -3  -2  -5 9767.90 730.197   1 
  -3  -2  -5 7354.86 585.536   4 
   3   2   5 9605.59 376.138  27 
   3   2   5 8580.97 782.729  30 
  -3  -2  -5 8367.67 476.345  25 
  -3  -2  -4 402.019 146.719   4 
  -3  -2  -4 540.770 187.586   1 
  -3  -2  -4 619.439 130.729   9 
  -3  -2  -4 621.094 181.070   2 
   3   2   4 666.486 94.9506  27 
   3   2   4 786.208 215.317  30 
  -3  -2  -4 670.709 133.393  25 
  -3  -2  -3 1070.04 224.067   4 
  -3  -2  -3 1404.33 175.245   9 
  -3  -2  -3 1431.55 313.839   1 
  -3  -2  -3 1077.26 259.557   2 
   3   2   3 1401.59 304.536  30 
   3   2   3 1282.31 127.207  27 
  -3  -2  -3 1164.57 166.769  25 
   3   2   3 1328.81 176.607  24 
  -3  -2  -2 1.73808 54.0870   2 
  -3  -2  -2 56.8145 61.5209   4 
  -3  -2  -2 62.1558 85.5713   1 
  -3  -2  -2 42.1352 37.9928   9 
   3   2   2-12.8423 51.7862  30 
   3   2   2 13.3986 34.2828  24 
  -3  -2  -2 29.0994 42.1119  25 
  -3  -2  -1 4718.14 482.578   2 
  -3  -2  -1 5144.02 308.222   9 
  -3  -2  -1 4812.42 452.412   4 
  -3  -2  -1 4731.56 486.764   1 
   3   2   1 4538.56 358.970  30 
   3   2   1 4974.54 402.997  24 
  -3  -2   0 6954.55 373.223   9 
  -3  -2   0 6446.80 528.651   4 
  -3  -2   0 6026.94 553.193   1 
  -3  -2   0 6473.85 567.035   2 
  -3  -2   0 6369.87 355.699  29 
   3   2   0 6156.33 377.057  30 
   3   2   0 6885.93 411.601  28 
   3   2   0 6614.50 497.968  24 
  -3  -2   1 31896.0 1291.48   1 
  -3  -2   1 35474.3 900.119   9 
  -3  -2   1 34111.5 1219.94   4 
  -3  -2   1 32525.4 1279.48   2 
  -3  -2   1 33231.3 1003.56  29 
   3   2  -1 35073.5 946.299  28 
   3   2  -1 34563.2 1201.46  24 
  -3  -2   2 18960.2 986.386   2 
  -3  -2   2 19695.8 926.472   4 
  -3  -2   2 21290.0 752.796   9 
  -3  -2   2 18082.0 964.836   1 
  -3  -2   2 20186.0 909.186  29 
   3   2  -2 19482.2 759.883  28 
   3   2  -2 20282.2 981.957  24 
  -3  -2   3 9724.73 707.983   1 
  -3  -2   3 10664.9 586.218   9 
  -3  -2   3 10295.1 737.052   2 
  -3  -2   3 10237.2 675.104   4 
  -3  -2   3 10701.4 731.816  29 
   3   2  -3 10170.2 588.751  28 
   3   2  -3 10327.0 741.945  24 
   3   2  -3 10108.4 510.359  26 
  -3  -2   4 1616.49 215.684  11 
  -3  -2   4 1473.36 258.866   4 
  -3  -2   4 1492.69 278.859   2 
  -3  -2   4 1592.89 247.771   9 
  -3  -2   4 1636.20 318.617  29 
  -3  -2   4 1572.71 199.961  27 
   3   2  -4 1675.99 247.354  28 
   3   2  -4 1279.11 200.805  26 
   3   2  -4 1595.94 313.851  24 
  -3  -2   5 16995.7 751.299  11 
  -3  -2   5 14050.4 795.074   9 
  -3  -2   5 15613.8 1066.47  29 
   3   2  -5 15328.8 821.947  28 
  -3  -2   5 15190.5 674.052  27 
   3   2  -5 14745.9 672.578  26 
   3   2  -5 15992.6 650.951  25 
   3   2  -5 14969.1 1014.82  24 
  -3  -2   6 129.885 32.8163  14 
  -3  -2   6 265.147 99.6522  11 
  -3  -2   6 119.221 27.0133  18 
  -3  -2   6 155.282 56.0795  13 
  -3  -2   6 145.707 42.2455   9 
   3   2  -6 166.613 97.4535  28 
  -3  -2   6 401.185 208.059  29 
  -3  -2   6 122.642 46.4732  27 
   3   2  -6 348.354 104.702  25 
   3   2  -6 21.8480 36.9615  26 
   3   2  -6 0.46852 63.1041  24 
  -3  -2   7 14430.3 493.095  15 
  -3  -2   7 15199.7 335.940  18 
  -3  -2   7 16577.4 346.948  14 
  -3  -2   7 17859.2 635.767  13 
  -3  -2   7 13609.8 894.189   9 
   3   2  -7 16747.9 966.998  28 
  -3  -2   7 17707.9 1306.07  29 
  -3  -2   7 16311.7 810.144  27 
  -3  -2   7 16686.5 547.790  32 
   3   2  -7 15621.1 382.503  23 
   3   2  -7 16086.6 1187.02  24 
  -3  -2   8 104.677 36.0720  15 
  -3  -2   8 149.431 62.5040  13 
  -3  -2   8 106.787 36.3975  18 
  -3  -2   8 57.4261 65.7637   9 
  -3  -2   8 158.747 49.5121  32 
   3   2  -8-43.9986 58.8440  28 
  -3  -2   8 125.804 133.775  29 
  -3  -2   8 68.9890 63.0247  27 
   3   2  -8 301.490 170.901  24 
   3   2  -8 182.151 44.8512  23 
  -3  -2   9 2553.31 153.462  18 
  -3  -2   9 3096.39 272.650  13 
  -3  -2   9 2594.02 214.620  15 
  -3  -2   9 2831.28 238.712  32 
   3   2  -9 3024.16 179.201  23 
  -3  -2  10 4610.95 278.598  15 
  -3  -2  10 5411.89 350.738  13 
  -3  -2  10 5119.92 314.680  32 
   3   2 -10 5313.56 236.280  23 
  -3  -2  11 1257.51 135.337  15 
  -3  -2  11 1535.10 173.422  13 
  -3  -2  11 1468.63 161.010  32 
   3   2 -11 1490.99 117.680  23 
  -3  -2  12 1684.61 136.978  15 
  -3  -2  12 1822.90 170.184  13 
  -3  -2  12 2058.22 171.493  32 
   3   2 -12 2062.82 124.528  23 
  -3  -2  13-9.46095 20.3859  13 
  -3  -2  13 36.5888 23.5466  32 
  -4  -3 -16 1966.72 84.9194  16 
  -4  -3 -15 192.443 37.1328  16 
   4   3  15 167.676 43.3693  33 
   4   3  15 210.471 38.0837  21 
  -4  -3 -15 208.789 34.4507  23 
  -4  -3 -14 56.1075 28.0146  16 
   4   3  14 33.1001 30.9990  21 
  -4  -3 -14 2.52522 23.3196  23 
  -4  -3 -13 82.3039 30.3384  16 
   4   3  13 63.3366 32.2213  21 
  -4  -3 -13 63.9601 28.2220  23 
  -4  -3 -12 634.691 84.9044  16 
   4   3  12 674.318 105.471  21 
  -4  -3 -12 616.850 80.5605  23 
  -4  -3 -11 219.272 67.6900  16 
   4   3  11 162.648 63.0638  21 
  -4  -3 -11 195.781 53.0559  23 
  -4  -3 -10 2927.83 178.807  16 
  -4  -3 -10 2831.30 159.591  23 
  -4  -3  -9 143.772 44.8562  16 
   4   3   9 93.4367 67.6305  11 
  -4  -3  -9 171.108 135.547  25 
  -4  -3  -9 113.680 37.4979  23 
  -4  -3  -8-1.54624 27.6288  16 
  -4  -3  -8-16.4940 48.5570  12 
  -4  -3  -8 74.4680 53.4053  19 
  -4  -3  -8-21.0811 24.4585  23 
   4   3   7 273.779 110.083  11 
  -4  -3  -7 409.926 63.4474  16 
  -4  -3  -7 524.702 203.239   2 
  -4  -3  -7 319.662 149.663   4 
   4   3   7 374.548 177.679  30 
  -4  -3  -7 473.947 155.466  25 
  -4  -3  -7 443.217 59.2645  23 
   4   3   6 68712.1 1630.93  11 
  -4  -3  -6 77424.2 2339.53   4 
  -4  -3  -6 80051.0 2617.05   2 
  -4  -3  -6 96193.0 2790.45   1 
   4   3   6 91694.2 2708.54  30 
  -4  -3  -6 71211.4 1730.65  25 
   4   3   5 9229.98 573.401  11 
  -4  -3  -5 9807.59 812.292   4 
  -4  -3  -5 13066.4 1037.16   1 
  -4  -3  -5 11241.6 954.019   2 
   4   3   5 14752.0 970.738  30 
  -4  -3  -5 9803.55 591.253  25 
  -4  -3  -4 55.2288 88.5959   4 
  -4  -3  -4 136.634 103.641   2 
  -4  -3  -4 361.602 165.566   1 
  -4  -3  -4 209.489 95.3676   9 
   4   3   4 16.1767 93.1153  30 
  -4  -3  -4 141.984 83.0678  25 
  -4  -3  -3 10918.2 564.432   9 
  -4  -3  -3 8990.66 807.689   2 
  -4  -3  -3 8735.45 738.144   4 
   4   3   3 9190.47 861.609  30 
  -4  -3  -2 9956.06 915.120   1 
  -4  -3  -2 10090.4 857.238   2 
  -4  -3  -2 11794.4 565.759   9 
  -4  -3  -2 9853.96 791.488   4 
   4   3   2 10462.8 601.418  28 
   4   3   2 10253.2 706.971  30 
   4   3   2 11004.3 716.669  24 
  -4  -3  -1 19247.3 726.722   9 
  -4  -3  -1 16917.5 1123.70   2 
  -4  -3  -1 16848.5 1134.81   1 
  -4  -3  -1 16950.8 1046.77   4 
   4   3   1 17542.8 787.503  28 
   4   3   1 17623.9 854.080  30 
   4   3   1 18521.5 976.954  24 
  -4  -3   0 2699.22 448.821   2 
  -4  -3   0 2979.28 289.918   9 
  -4  -3   0 2693.07 463.459   1 
  -4  -3   0 2840.80 434.453   4 
   4   3   0 3002.92 324.321  28 
   4   3   0 2980.17 410.446  24 
  -4  -3   1 2030.60 399.032   2 
  -4  -3   1 2036.81 369.259   4 
  -4  -3   1 1957.24 381.059   1 
  -4  -3   1 2381.38 276.024   9 
   4   3  -1 2341.55 296.037  28 
   4   3  -1 1944.41 342.685  24 
  -4  -3   2 792.452 238.584   1 
  -4  -3   2 1123.39 297.232   2 
  -4  -3   2 1348.66 226.291   9 
  -4  -3   2 1282.17 293.470   4 
   4   3  -2 1519.12 247.824  28 
   4   3  -2 1227.68 286.032  24 
  -4  -3   3 25116.6 1023.28   9 
  -4  -3   3 23793.7 1383.10   2 
  -4  -3   3 24530.8 1292.07   4 
   4   3  -3 23655.8 1067.17  28 
   4   3  -3 23582.9 917.282  26 
   4   3  -3 22912.3 1324.38  24 
  -4  -3   4 119.861 30.0259  14 
  -4  -3   4 103.951 27.9563  18 
  -4  -3   4 98.5715 46.7994  13 
  -4  -3   4 71.9306 76.6884   9 
   4   3  -4 175.019 99.1608  28 
   4   3  -4 53.0852 51.6739  26 
  -4  -3   4 176.731 62.6623  22 
   4   3  -4 25.1989 113.552  24 
  -4  -3   5 1124.22 94.7301  14 
  -4  -3   5 1098.98 87.3971  18 
  -4  -3   5 1175.85 166.180  13 
  -4  -3   5 747.866 191.958   9 
   4   3  -5 930.644 233.684  28 
   4   3  -5 909.670 192.706  26 
   4   3  -5 1011.76 303.531  24 
  -4  -3   6 95.6495 30.9132  14 
  -4  -3   6 113.232 32.6347  18 
  -4  -3   6 127.626 63.2256  13 
  -4  -3   6-173.904 102.210   9 
  -4  -3   6 86.1867 33.5031  32 
   4   3  -6 446.611 167.440  28 
   4   3  -6 267.019 164.366  24 
  -4  -3   7 483.273 115.505  13 
  -4  -3   7 433.960 63.8638  18 
  -4  -3   7 419.391 88.3543  32 
   4   3  -7 337.209 59.8330  23 
  -4  -3   8-3.51923 19.7102  18 
  -4  -3   8-50.2469 64.9755  13 
  -4  -3   8 17.7288 27.7030  32 
   4   3  -8-6.07486 37.6096  23 
  -4  -3   9 68.1474 35.5886  13 
  -4  -3   9 71.9530 29.9353  18 
  -4  -3   9 28.8634 23.1699  32 
   4   3  -9 85.3138 39.9689  23 
  -4  -3  10 1914.16 196.220  13 
  -4  -3  10 1850.95 166.797  32 
   4   3 -10 2200.97 139.575  23 
  -4  -3  11 941.167 118.131  13 
  -4  -3  11 944.233 105.034  32 
   4   3 -11 963.716 82.5432  23 
  -4  -3  12 87.9372 33.9396  13 
  -4  -3  12 46.6768 20.5017  32 
   4   3 -12 24.6940 15.9863  23 
  -5  -4 -15 2652.24 101.843  16 
   5   4  15 2591.03 136.850  33 
  -5  -4 -14 5588.93 180.765  16 
   5   4  14 4793.96 223.407  33 
  -5  -4 -13 3206.42 154.217  16 
  -5  -4 -13 3297.22 152.458  23 
  -5  -4 -12 1758.09 124.028  16 
  -5  -4 -12 1565.99 115.736  23 
  -5  -4 -11 12682.7 345.646  16 
  -5  -4 -11 11874.1 322.644  23 
  -5  -4 -10 67.4832 43.0233  18 
  -5  -4 -10 12.6903 26.8672  16 
  -5  -4 -10 65.7849 37.0168  23 
  -5  -4  -9 19154.9 432.561  16 
  -5  -4  -9 18117.1 403.356  23 
  -5  -4  -8 3433.97 182.046  16 
  -5  -4  -8 3214.13 194.647  18 
  -5  -4  -8 3382.61 170.249  23 
  -5  -4  -7 270.319 57.1707  18 
  -5  -4  -7 266.816 53.0848  16 
  -5  -4  -7 366.527 207.243   2 
  -5  -4  -7 180.058 35.2147   7 
  -5  -4  -7 238.529 67.6095   6 
   5   4   7 508.624 259.947  30 
  -5  -4  -7 255.245 89.5532  19 
  -5  -4  -7 293.422 51.6881  23 
  -5  -4  -6 3803.07 186.719  16 
  -5  -4  -6 3742.44 199.867  18 
  -5  -4  -6 4145.51 276.692   6 
  -5  -4  -6 3695.92 172.181   7 
  -5  -4  -6 5341.86 790.014   2 
  -5  -4  -6 4073.05 634.002   4 
   5   4   6 6077.67 791.549  30 
  -5  -4  -6 7023.99 374.294  19 
  -5  -4  -5 2423.22 147.185  16 
  -5  -4  -5 2222.76 154.730  18 
  -5  -4  -5 2447.71 218.445   6 
  -5  -4  -5 2348.31 137.021   7 
  -5  -4  -5 3800.85 634.363   1 
  -5  -4  -5 3533.94 645.001   2 
  -5  -4  -5 2352.05 467.265   4 
   5   4   5 3890.56 557.458  30 
  -5  -4  -5 3211.01 253.798  19 
  -5  -4  -5 2857.29 231.446  22 
  -5  -4  -4 460.862 58.1587  16 
  -5  -4  -4 381.448 58.1178  17 
  -5  -4  -4 344.685 59.7252  18 
  -5  -4  -4 570.271 227.450   4 
  -5  -4  -4 447.310 100.080   6 
  -5  -4  -4 390.586 62.6451   7 
  -5  -4  -4 444.342 152.562   9 
  -5  -4  -4 567.962 264.705   2 
  -5  -4  -4 178.303 138.917   1 
   5   4   4 426.576 147.292  28 
   5   4   4 381.575 176.609  30 
  -5  -4  -4 445.794 110.545  19 
  -5  -4  -4 399.392 83.1066  22 
  -5  -4  -3 1621.79 115.931  16 
  -5  -4  -3 1443.92 110.608  18 
  -5  -4  -3 1417.66 359.057   4 
  -5  -4  -3 1444.57 164.172   6 
  -5  -4  -3 1529.73 110.845   7 
  -5  -4  -3 1552.31 406.469   1 
  -5  -4  -3 1378.43 377.524   2 
  -5  -4  -3 1618.29 243.786   9 
   5   4   3 1420.45 257.985  28 
  -5  -4  -3 1397.12 157.308  22 
  -5  -4  -3 912.049 130.250  19 
  -5  -4  -2 35.1445 21.8313  18 
  -5  -4  -2-10.9751 32.9575  16 
  -5  -4  -2 143.492 186.891   1 
  -5  -4  -2-120.086 111.422   4 
  -5  -4  -2-75.5653 101.256   2 
  -5  -4  -2 27.8854 24.5538   6 
  -5  -4  -2-93.3809 62.8341   9 
  -5  -4  -2 52.6987 23.2908   7 
   5   4   2-142.943 89.3312  28 
  -5  -4  -2 75.2878 77.4450  19 
  -5  -4  -2 27.4018 39.4737  22 
  -5  -4  -1 704.077 71.8726  18 
  -5  -4  -1 752.649 72.3752  16 
  -5  -4  -1 627.047 266.359   2 
  -5  -4  -1 771.585 168.826   9 
  -5  -4  -1 814.249 125.297   6 
  -5  -4  -1 874.901 287.011   4 
  -5  -4  -1 2884.41 299.039   5 
  -5  -4  -1 754.130 79.1344   7 
  -5  -4  -1 403.436 188.538   1 
   5   4   1 773.607 203.223  28 
  -5  -4  -1 707.633 109.612  22 
   5   4   1 575.700 213.849  24 
  -5  -4  -1 3324.19 317.029  19 
  -5  -4   0 8034.74 361.064  13 
  -5  -4   0 9551.08 258.752  16 
  -5  -4   0 9600.00 264.228  18 
  -5  -4   0 9323.68 1041.16   2 
  -5  -4   0 9353.95 431.515   6 
  -5  -4   0 10412.8 635.712   9 
  -5  -4   0 9189.98 1013.08   1 
  -5  -4   0 9094.88 938.237   4 
  -5  -4   0 9170.22 499.149   5 
  -5  -4   0 9503.43 283.961   7 
   5   4   0 9626.15 693.178  28 
  -5  -4   0 9329.26 432.330  22 
   5   4   0 8605.13 833.950  24 
  -5  -4   1 132.046 34.3761  18 
  -5  -4   1 142.505 28.5641  14 
  -5  -4   1 101.220 51.2623  13 
  -5  -4   1 63.6075 24.1723  16 
  -5  -4   1 202.692 93.0111   9 
  -5  -4   1 61.8058 44.5522   6 
  -5  -4   1 25.1742 58.9253   4 
  -5  -4   1 1.40691 44.6858   2 
  -5  -4   1 119.655 38.3221   7 
   5   4  -1 121.803 69.1633  28 
   5   4  -1-30.4971 66.2621  24 
  -5  -4   1 130.082 63.3608  22 
  -5  -4   2 783.307 93.5255  16 
  -5  -4   2 295.479 78.9941  13 
  -5  -4   2 280.878 45.2635  14 
  -5  -4   2 330.317 49.8411  18 
  -5  -4   2 342.352 78.4724   6 
  -5  -4   2 158.705 87.4531   9 
  -5  -4   2 227.637 162.469   2 
  -5  -4   2 318.981 50.2477   7 
  -5  -4   2 342.658 183.202   4 
   5   4  -2 420.381 155.367  28 
   5   4  -2 295.022 117.770  26 
   5   4  -2 272.552 148.208  24 
  -5  -4   2 414.524 98.1643  22 
  -5  -4   3 436.021 100.373  13 
  -5  -4   3 588.550 68.9555  14 
  -5  -4   3 552.906 68.3046  18 
  -5  -4   3 520.200 160.201   9 
  -5  -4   3 472.170 90.2091   6 
   5   4  -3 466.197 168.497  28 
  -5  -4   3 695.833 120.861  22 
   5   4  -3 538.867 220.776  24 
   5   4  -3 759.187 208.331  26 
  -5  -4   4 5083.49 197.613  18 
  -5  -4   4 5354.72 212.648  14 
  -5  -4   4 4634.66 326.813  13 
  -5  -4   4 5492.21 327.200  22 
  -5  -4   5 6459.86 392.803  13 
  -5  -4   5 7195.92 239.628  18 
  -5  -4   5 7509.95 360.612  22 
  -5  -4   6 51.8646 44.0635  13 
  -5  -4   6 13.0826 25.5697  18 
  -5  -4   7 18.8445 18.9318  18 
  -5  -4   7 25.0611 37.7708  13 
   5   4  -7-12.7266 44.4530  23 
  -5  -4   8 1384.58 167.261  13 
  -5  -4   8 1446.19 99.6105  18 
   5   4  -8 1353.10 112.520  23 
  -5  -4   9 6.32361 23.5732  13 
  -5  -4   9 29.3577 16.1844  18 
   5   4  -9 62.1241 33.7333  23 
  -5  -4  10 3440.01 193.402  13 
   5   4 -10 3299.07 125.531  23 
  -6  -5 -13-9.35032 21.8528  16 
   6   5  13 78.6031 29.6318  33 
  -6  -5 -12-36.4455 24.9923  16 
  -6  -5 -12-50.4595 30.1223  18 
   6   5  12 0.29425 21.8070  33 
  -6  -5 -11 1348.50 99.7877  16 
   6   5  11 1325.66 145.571  33 
  -6  -5 -10 5321.33 206.388  16 
  -6  -5 -10 4123.66 197.503  18 
  -6  -5  -9 35.9847 22.4707  18 
  -6  -5  -9 14.7746 24.1322  16 
  -6  -5  -8 48.1022 24.7284  18 
  -6  -5  -8-7.46906 39.3964  16 
  -6  -5  -7 1643.78 113.440   7 
  -6  -5  -7 1526.91 125.401  18 
  -6  -5  -7 1591.21 121.989  16 
  -6  -5  -6 2106.91 136.952   7 
  -6  -5  -6 2137.34 139.781  16 
  -6  -5  -6 2132.32 151.375  18 
  -6  -5  -5 1332.84 115.318   7 
  -6  -5  -5 1123.09 178.968   6 
  -6  -5  -5 1283.58 109.249  16 
  -6  -5  -5 1192.49 110.166  18 
  -6  -5  -5 1356.29 200.305  22 
  -6  -5  -4 14764.0 581.864   6 
  -6  -5  -4 15675.8 391.155   7 
  -6  -5  -4 16151.4 394.525  18 
  -6  -5  -4 15298.1 568.176  22 
  -6  -5  -3 55.2818 40.6987   6 
  -6  -5  -3 41.9581 35.2264   7 
  -6  -5  -3-19.6117 41.5522  18 
  -6  -5  -3-37.1464 35.7634  16 
  -6  -5  -3 52.9895 40.0026  22 
  -6  -5  -2 364.216 63.2118   7 
  -6  -5  -2 250.081 78.3022   6 
  -6  -5  -2 344.830 54.1107  18 
  -6  -5  -2 330.152 48.4153  16 
  -6  -5  -2 237.296 78.0580  22 
  -6  -5  -1 138.274 64.3726   6 
  -6  -5  -1 186.998 47.3858   7 
  -6  -5  -1 207.787 45.4654  18 
  -6  -5  -1 83.0046 31.3800  16 
  -6  -5  -1 168.542 75.2161  22 
  -6  -5   0 2132.60 146.498   7 
  -6  -5   0 2045.99 219.191   6 
  -6  -5   0 1984.57 129.153  18 
  -6  -5   0 2282.78 135.748  16 
  -6  -5   0 2370.14 238.374  22 
  -6  -5   1 1432.08 174.016   6 
  -6  -5   1 1578.19 119.448   7 
  -6  -5   1 1506.09 111.777  18 
  -6  -5   1 1719.80 200.009  22 
  -6  -5   2 1785.51 184.257   6 
  -6  -5   2 1795.79 120.522   7 
  -6  -5   2 1500.43 161.002  13 
  -6  -5   2 1903.30 121.739  18 
  -6  -5   3 191.618 56.9707   6 
  -6  -5   3 150.357 33.6441  18 
  -6  -5   3 183.388 56.2576  13 
  -6  -5   3 252.657 68.4126  22 
  -6  -5   4 17.2819 22.9410  18 
  -6  -5   4-4.79298 34.9704  13 
  -6  -5   4 80.8043 56.3843  22 
  -6  -5   5 118.688 44.4061  13 
  -6  -5   5 113.386 29.0780  18 
  -6  -5   5 111.950 31.2542  22 
  -6  -5   6 750.119 101.276  13 
  -6  -5   6 898.136 73.1382  18 
   6   5  -6 819.921 79.5671  23 
  -6  -5   7 97.9991 32.5747  13 
  -6  -5   7 138.570 27.8760  18 
   6   5  -7 117.225 21.6008  23 
  -6  -5   8 206.305 43.6138  13 
   6   5  -8 166.017 30.2708  23 
  -7  -6 -11 761.047 53.0358  16 
  -7  -6 -10 6203.83 166.043  16 
  -7  -6 -10 4936.36 151.340  18 
  -7  -6  -9-24.7179 19.0019  16 
  -7  -6  -9-10.0199 15.7382  18 
  -7  -6  -8 7795.11 188.975   7 
  -7  -6  -8 7968.96 216.291  16 
  -7  -6  -7 6824.53 206.539   7 
  -7  -6  -7 6733.24 210.513  16 
  -7  -6  -6 2241.20 208.536   6 
  -7  -6  -6 2120.02 129.410   7 
  -7  -6  -6 2344.14 128.866  16 
  -7  -6  -6 2601.64 203.489  22 
  -7  -6  -5 32.0261 26.1365   7 
  -7  -6  -5 54.4823 46.3009   6 
  -7  -6  -5 36.8455 29.9090  16 
  -7  -6  -5 23.7711 21.0584  18 
  -7  -6  -5-8.63315 27.6061  22 
  -7  -6  -4 58.7103 42.5439   6 
  -7  -6  -4 46.5013 25.8495   7 
  -7  -6  -4 19.9471 31.8854  16 
  -7  -6  -4 75.9580 25.1510  18 
  -7  -6  -4 63.4183 52.8709  22 
  -7  -6  -3 43.6369 25.8105   7 
  -7  -6  -3 119.098 63.7998   6 
  -7  -6  -3 60.8016 21.3368  18 
  -7  -6  -3 10.5753 33.5138  16 
  -7  -6  -3 99.2660 52.0560  22 
  -7  -6  -2 109.937 54.2178   6 
  -7  -6  -2 89.4304 30.4143   7 
  -7  -6  -2 55.2037 20.9617  18 
  -7  -6  -2 182.462 47.6341  16 
  -7  -6  -2 129.040 56.5058  22 
  -7  -6  -1 2694.36 151.751   7 
  -7  -6  -1 2339.35 218.102   6 
  -7  -6  -1 2902.37 144.096  18 
  -7  -6  -1 2968.73 250.118  22 
  -7  -6   0-5.14347 24.7620   6 
  -7  -6   0 12.8843 22.8470   7 
  -7  -6   0 4.88250 18.1612  18 
  -7  -6   0 42.0396 57.4533  22 
  -7  -6   1 1114.82 132.031   6 
  -7  -6   1 1258.14 90.5996   7 
  -7  -6   1 1428.52 95.6351  18 
  -7  -6   1 1406.41 162.972  22 
  -7  -6   2 614.792 83.3481   6 
  -7  -6   2 697.733 56.4232   7 
  -7  -6   2 831.090 70.4337  18 
  -7  -6   2 858.403 117.088  22 
  -7  -6   3 94.0720 27.3513  18 
  -7  -6   3 26.1405 27.0261  22 
  -7  -6   4 986.599 67.0376  18 
  -7  -6   4 903.134 88.6644  22 
   7   6  -4 822.879 66.9627  23 
  -7  -6   5 16.0964 10.3495  18 
   7   6  -5-2.71281 14.6441  23 
  -8  -7  -5 944.393 94.5892   6 
  -8  -7  -5 1246.66 71.0009   7 
  -8  -7  -4 374.820 42.7799   7 
  -8  -7  -4 291.990 53.4436   6 
  -8  -7  -4 367.978 34.5820  18 
  -8  -7  -4 284.599 51.5620  22 
  -8  -7  -3 214.213 47.2338   6 
  -8  -7  -3 214.096 30.5700   7 
  -8  -7  -3 229.392 28.8546  18 
  -8  -7  -3 185.907 42.8497  22 
  -8  -7  -2 4.78906 11.9486   7 
  -8  -7  -2-25.6614 15.7080  18 
  -8  -7  -2-4.52977 17.9889  22 
  -8  -7  -1 908.318 54.5375   7 
  -8  -7  -1 734.858 77.3953   6 
  -8  -7  -1 867.793 90.9668  22 
  -6  -8   4 1114.40 61.1229  18 
   6   8  -4 937.050 66.0287  31 
  -6  -8   4 905.393 90.1207  22 
   6   8  -3 475.470 57.1429  31 
   6   8  -3 335.289 37.1886  23 
  -6  -8   3 400.901 73.5002  22 
  -6  -8   2 4946.65 150.088  18 
  -6  -8   2 3659.34 210.586   6 
  -6  -8   2 4433.50 153.082   7 
   6   8  -2 4383.78 171.358  31 
  -6  -8   2 4074.71 247.655  22 
  -6  -8   1 200.721 30.0916  18 
  -6  -8   1 156.423 52.3172   6 
  -6  -8   1 197.441 36.9501   7 
   6   8  -1 194.985 38.6210  31 
  -6  -8   1 203.561 64.7918  22 
  -6  -8   0 720.288 62.9299  18 
  -6  -8   0 775.388 76.7151   7 
  -6  -8   0 570.016 103.292   6 
   6   8   0 665.426 74.7407  31 
  -6  -8   0 767.372 110.985  22 
  -6  -8  -1 1509.49 96.0094  18 
  -6  -8  -1 1544.82 112.642   7 
   6   8   1 1532.75 115.122  31 
  -6  -8  -1 1270.25 148.271  22 
  -6  -8  -2 5983.66 344.043   6 
  -6  -8  -2 7533.60 250.800   7 
  -6  -8  -2 7664.33 217.393  18 
  -6  -8  -2 6101.55 327.069  22 
  -6  -8  -3 2931.69 137.530  18 
  -6  -8  -3 2359.07 218.596   6 
  -6  -8  -3 2892.74 157.856   7 
   6   8   3 2694.26 198.370  34 
  -6  -8  -3 2287.18 195.034  22 
  -6  -8  -4 662.434 68.3798  18 
  -6  -8  -4 505.793 105.930   6 
  -6  -8  -4 673.914 72.7075   7 
   6   8   4 591.420 94.6610  34 
  -6  -8  -4 429.831 78.5054  22 
  -6  -8  -5 501.311 59.0516  18 
   6   8   5 427.355 82.0617  34 
  -6  -8  -5 420.009 53.7574   7 
  -6  -8  -5 329.741 78.8922   6 
  -6  -8  -6 59.8823 21.2794  18 
   6   8   6 67.8791 41.6371  34 
  -6  -8  -6 6.34029 20.3735   6 
  -6  -8  -6-20.3331 27.2036   7 
  -6  -8  -7 2820.31 130.691  18 
   6   8   7 2794.19 193.917  34 
  -6  -8  -7 2308.81 155.145   6 
  -6  -8  -8 864.284 69.2067  18 
   6   8   8 849.279 103.651  34 
  -6  -8  -9 48.8143 19.0168  18 
   6   8   9 112.455 39.3132  34 
  -5  -7   7 411.850 41.3768  18 
   5   7  -7 427.513 47.5915  31 
   5   7  -7 442.355 44.3170  23 
  -5  -7   6 2898.70 117.711  18 
  -5  -7   6 2898.20 131.807  14 
   5   7  -6 2623.02 133.408  31 
   5   7  -6 2322.97 114.113  23 
  -5  -7   6 2475.73 170.118  22 
  -5  -7   5 1184.34 91.6337  14 
  -5  -7   5 1242.49 85.2002  18 
   5   7  -5 1155.70 99.6146  31 
   5   7  -5 1090.97 82.4343  23 
  -5  -7   5 1199.13 136.684  22 
  -5  -7   4 1130.87 84.1823  18 
  -5  -7   4 1045.99 89.3259  14 
   5   7  -4 1070.55 101.846  31 
  -5  -7   4 1109.11 145.571  22 
  -5  -7   3 64.5775 30.9476  14 
  -5  -7   3 59.0595 21.0093  18 
  -5  -7   3 37.2894 28.5952   7 
  -5  -7   3 30.9201 28.8498   6 
   5   7  -3 76.1167 39.7404  31 
  -5  -7   3 15.1250 47.2210  22 
  -5  -7   2 822.867 83.7993  14 
  -5  -7   2 1009.87 84.1801  18 
  -5  -7   2 696.359 122.316   6 
  -5  -7   2 822.289 87.4431   7 
   5   7  -2 920.211 99.1355  31 
  -5  -7   2 971.857 155.319  22 
  -5  -7   1 252.213 40.2447  18 
  -5  -7   1 170.365 40.0343  14 
  -5  -7   1 185.387 67.2224   6 
  -5  -7   1 279.317 60.1460   7 
   5   7  -1 209.063 37.4852  31 
  -5  -7   1 181.672 82.3746  22 
  -5  -7   0 381.745 56.0809  18 
  -5  -7   0 249.712 89.1133   6 
  -5  -7   0 397.709 71.7988   7 
   5   7   0 391.978 89.9326  34 
  -5  -7   0 396.819 99.5882  22 
  -5  -7  -1 609.801 71.2171  18 
  -5  -7  -1 576.409 135.192   6 
  -5  -7  -1 616.941 89.8581   7 
   5   7   1 628.232 111.471  34 
  -5  -7  -1 317.191 107.593  22 
  -5  -7  -2 3030.81 160.966  18 
  -5  -7  -2 2673.52 154.301  17 
  -5  -7  -2 2422.62 271.533   6 
  -5  -7  -2 2371.16 174.211   7 
   5   7   2 2654.71 238.440  34 
  -5  -7  -2 2447.08 251.990  22 
  -5  -7  -3 467.973 68.0476  18 
  -5  -7  -3 476.904 65.5211  17 
  -5  -7  -3 436.422 115.296   6 
  -5  -7  -3 452.352 81.9917   7 
   5   7   3 531.757 112.974  34 
  -5  -7  -3 393.091 90.8507  22 
  -5  -7  -4 7182.00 260.061  18 
  -5  -7  -4 7016.05 263.169  17 
  -5  -7  -4 5485.83 400.044   6 
  -5  -7  -4 6361.90 270.439   7 
   5   7   4 6681.20 389.006  34 
  -5  -7  -4 5637.48 362.949  22 
  -5  -7  -5 14773.8 380.806  18 
  -5  -7  -5 14769.4 363.738  17 
  -5  -7  -5 12366.4 359.578   7 
  -5  -7  -5 11995.6 553.778   6 
  -5  -7  -6 46.1953 33.7223  17 
  -5  -7  -6 46.3126 34.8538  18 
  -5  -7  -6 111.589 57.6310   6 
  -5  -7  -6 15.8966 22.9262   7 
  -5  -7  -7 11957.1 312.495  17 
  -5  -7  -7 13311.8 347.142  18 
  -5  -7  -8 28.0633 22.3645  18 
  -5  -7  -8 49.0948 27.6899  17 
  -5  -7  -9 1153.20 83.9431  17 
  -5  -7  -9 1072.21 97.0206  18 
  -5  -7 -10 587.278 66.8654  18 
   5   7  10 701.854 80.9256  33 
  -5  -7 -11-3.15761 18.4748  18 
   5   7  11 3.36595 14.6717  33 
  -5  -7 -12 881.760 62.0921  18 
  -4  -6  10 24.3385 20.5703  13 
   4   6 -10 47.4011 15.2902  31 
   4   6 -10 16.1901 16.2094  23 
  -4  -6   9 1902.45 93.7731  18 
  -4  -6   9 1762.75 136.972  13 
   4   6  -9 1976.09 113.268  31 
   4   6  -9 1990.65 102.863  23 
  -4  -6   8 1850.07 153.422  13 
  -4  -6   8 2002.26 116.805  14 
  -4  -6   8 1972.81 105.949  18 
   4   6  -8 1929.78 127.590  31 
   4   6  -8 1909.14 115.962  23 
  -4  -6   7 548.648 60.8268  18 
  -4  -6   7 569.747 66.1808  14 
  -4  -6   7 459.384 79.4253  13 
   4   6  -7 504.478 70.0647  31 
   4   6  -7 524.828 61.4447  23 
  -4  -6   6 232.410 41.3330  18 
  -4  -6   6 277.159 54.4523  14 
   4   6  -6 242.994 48.8273  31 
   4   6  -6 208.562 55.3550  23 
  -4  -6   6 220.320 67.7583  22 
  -4  -6   5 3794.23 185.941  14 
  -4  -6   5 3967.49 166.198  18 
   4   6  -5 3894.64 210.927  31 
  -4  -6   5 4207.01 300.616  22 
  -4  -6   4 255.207 47.1973  14 
  -4  -6   4 353.664 52.9207  18 
  -4  -6   4 349.379 77.7703   6 
  -4  -6   4 288.402 54.4902   7 
   4   6  -4 312.046 62.6394  31 
  -4  -6   4 294.097 77.3355  22 
  -4  -6   3 1139.08 89.9340  18 
  -4  -6   3 936.890 94.4245  14 
  -4  -6   3 1233.41 174.688   6 
  -4  -6   3 972.784 101.961   7 
   4   6  -3 1087.91 112.924  31 
  -4  -6   3 1037.81 169.197  22 
  -4  -6   2 57.8653 23.5257  18 
  -4  -6   2 47.1689 24.0209  14 
  -4  -6   2 47.7185 25.4465   7 
  -4  -6   2 69.2052 62.6672   6 
  -4  -6   2-87.2543 110.904   4 
   4   6  -2 20.6759 44.5760  28 
   4   6  -2-68.6309 170.374  24 
  -4  -6   1 806.202 80.9391  18 
  -4  -6   1 703.805 73.5048  17 
  -4  -6   1 638.957 76.5663  14 
  -4  -6   1 489.462 263.249   1 
  -4  -6   1 620.268 276.899   4 
  -4  -6   1 815.451 149.533   6 
  -4  -6   1 784.875 97.8150   7 
  -4  -6   1 53.8763 97.5438   2 
   4   6  -1 794.033 195.077  28 
   4   6  -1 737.466 112.962  34 
   4   6  -1 768.242 288.101  24 
  -4  -6   0 217.100 36.4030  18 
  -4  -6   0 271.595 49.7418  17 
  -4  -6   0 205.930 42.5919  14 
  -4  -6   0 247.818 55.9400   7 
  -4  -6   0 258.703 181.935   4 
  -4  -6   0 285.548 203.161   2 
  -4  -6   0 227.366 69.9348   6 
  -4  -6   0 430.712 217.800   1 
   4   6   0 234.202 111.282  28 
   4   6   0 324.531 81.9779  34 
   4   6   0 138.201 170.078  24 
  -4  -6  -1 10637.8 288.058  17 
  -4  -6  -1 11218.1 301.791  18 
  -4  -6  -1 10656.1 1179.07   4 
  -4  -6  -1 11775.3 582.159   6 
  -4  -6  -1 10250.6 1211.52   2 
  -4  -6  -1 9934.86 1208.36   1 
  -4  -6  -1 10752.1 357.093   7 
   4   6   1 10938.2 480.509  34 
   4   6   1 10247.1 692.146  28 
   4   6   1 9263.92 914.328  24 
  -4  -6  -2 2911.86 153.047  17 
  -4  -6  -2 3390.21 167.837  18 
  -4  -6  -2 3094.07 637.124   4 
  -4  -6  -2 3239.87 305.543   6 
  -4  -6  -2 2929.29 642.915   2 
  -4  -6  -2 3201.16 189.895   7 
  -4  -6  -2 2833.13 629.621   1 
   4   6   2 3194.78 508.875  30 
   4   6   2 2875.10 373.849  28 
  -4  -6  -2 3076.51 279.541  22 
  -4  -6  -3 6.83765 24.6912  17 
  -4  -6  -3 17.8778 21.6663  18 
  -4  -6  -3-217.601 179.667   1 
  -4  -6  -3 9.09176 24.4416   7 
  -4  -6  -3 43.4119 80.4140   4 
  -4  -6  -3 43.6050 51.4104   6 
  -4  -6  -3-73.1724 102.812   2 
   4   6   3-283.648 122.903  28 
   4   6   3 119.006 91.4162  30 
  -4  -6  -3 13.1827 34.4654  22 
  -4  -6  -4 869.085 89.0323  17 
  -4  -6  -4 887.522 98.2401  18 
  -4  -6  -4 790.533 151.842   6 
  -4  -6  -4 1229.72 386.496   4 
  -4  -6  -4 1083.29 383.374   2 
  -4  -6  -4 927.882 359.551   1 
  -4  -6  -4 710.455 90.5587   7 
   4   6   4 1052.82 321.189  30 
   4   6   4 599.592 188.826  28 
  -4  -6  -4 660.484 126.683  22 
  -4  -6  -5 25972.3 468.886  17 
  -4  -6  -5 25387.4 506.519  18 
   4   6   5 20522.1 1425.93  30 
  -4  -6  -5 19221.2 1502.83   4 
  -4  -6  -5 20030.2 1627.95   2 
  -4  -6  -5 22477.2 760.634   6 
  -4  -6  -5 20448.3 1659.23   1 
  -4  -6  -5 21310.0 472.250   7 
  -4  -6  -6 14492.0 577.344   6 
  -4  -6  -6 14358.4 366.114   7 
  -4  -6  -7 2445.91 177.104  18 
  -4  -6  -7 2736.18 156.955  17 
   4   6   7 2305.57 187.162  33 
  -4  -6  -8 8849.88 313.023  18 
  -4  -6  -8 8460.74 265.706  17 
  -4  -6  -9 5497.26 238.652  18 
  -4  -6  -9 4599.35 190.025  17 
   4   6   9 5044.45 292.149  33 
  -4  -6  -9 4841.57 181.090  23 
  -4  -6 -10 5118.56 224.288  18 
   4   6  10 4933.00 279.665  33 
  -4  -6 -10 4541.92 172.097  23 
  -4  -6 -11 3220.13 172.897  18 
   4   6  11 3033.90 215.503  33 
  -4  -6 -11 3095.96 136.269  23 
  -4  -6 -12 19.2959 19.1858  18 
   4   6  12-24.4081 25.2479  33 
  -4  -6 -13 24.6797 18.2586  18 
   4   6  13 18.3083 17.8456  33 
  -3  -5  12 19.9977 22.7991  13 
  -3  -5  12 41.9696 25.6835  32 
   3   5 -12 21.4630 11.6442  31 
  -3  -5  11 710.914 98.1126  13 
   3   5 -11 846.429 76.5328  31 
  -3  -5  11 773.768 97.5982  32 
   3   5 -11 892.406 70.8573  23 
  -3  -5  10 1362.64 90.9795  14 
  -3  -5  10 1104.72 137.864  13 
   3   5 -10 1526.42 116.808  31 
  -3  -5  10 1317.73 142.642  32 
   3   5 -10 1410.77 101.005  23 
  -3  -5   9 3819.64 161.747  18 
  -3  -5   9 3849.25 167.363  14 
  -3  -5   9 3293.54 250.634  13 
   3   5  -9 4054.41 200.851  31 
  -3  -5   9 3590.01 254.839  32 
   3   5  -9 3803.38 182.335  23 
  -3  -5   8 10.3784 32.3495  13 
  -3  -5   8 44.8620 23.8646  18 
  -3  -5   8 57.7447 23.7468  14 
   3   5  -8 12.7485 23.6477  31 
  -3  -5   8 22.6719 35.2499  32 
   3   5  -8 75.8316 25.4162  23 
  -3  -5   7 2446.82 145.182  14 
  -3  -5   7 2071.31 206.414  13 
  -3  -5   7 2622.68 137.817  18 
   3   5  -7 2499.25 169.075  31 
  -3  -5   7 2734.69 231.270  32 
   3   5  -7 2404.80 156.602  23 
  -3  -5   6 2813.49 153.509  14 
  -3  -5   6 1952.01 195.546  13 
  -3  -5   6 2844.41 140.963  18 
   3   5  -6 2719.62 176.480  31 
  -3  -5   6 2524.60 528.566  29 
   3   5  -6 2341.03 362.539  28 
   3   5  -6 2685.61 538.835  24 
  -3  -5   6 2819.84 242.922  22 
  -3  -5   5 2090.23 131.293  14 
  -3  -5   5 2152.40 121.043  18 
   3   5  -5 2252.86 159.201  31 
   3   5  -5 1851.87 317.275  28 
   3   5  -5 1750.31 434.329  24 
  -3  -5   4 4424.28 167.013  18 
  -3  -5   4 4293.16 186.092  14 
  -3  -5   4 4078.68 583.149   4 
  -3  -5   4 3821.89 589.929   2 
  -3  -5   4 3796.46 591.925   1 
   3   5  -4 3936.56 202.886  31 
   3   5  -4 3846.79 429.903  28 
   3   5  -4 3856.44 612.107  24 
  -3  -5   3 1556.31 97.1756  18 
  -3  -5   3 1429.71 107.636  14 
  -3  -5   3 1046.03 305.250   1 
  -3  -5   3 1417.96 356.322   4 
  -3  -5   3 1479.79 377.116   2 
  -3  -5   3 1335.82 110.272   7 
   3   5  -3 1509.56 122.290  31 
   3   5  -3 1489.50 262.843  28 
   3   5  -3 1254.25 325.097  24 
  -3  -5   2 28518.1 1708.18   2 
  -3  -5   2 29741.7 1679.37   4 
  -3  -5   2 26295.3 1654.87   1 
   3   5  -2 29145.2 1089.19  28 
   3   5  -2 29068.6 1583.11  24 
  -3  -5   1 413.356 208.377   2 
  -3  -5   1 603.376 227.348   1 
  -3  -5   1 468.691 221.230   4 
   3   5  -1 665.681 158.718  28 
   3   5  -1 557.796 195.791  30 
   3   5  -1 446.164 211.200  24 
  -3  -5   0 235.150 167.833   4 
  -3  -5   0 214.044 150.779   1 
  -3  -5   0 158.713 147.336   2 
   3   5   0 332.631 170.763  30 
   3   5   0 223.276 94.3809  28 
   3   5   0 173.822 103.821  24 
  -3  -5  -1 2322.08 490.666   2 
  -3  -5  -1 2246.69 473.238   4 
  -3  -5  -1 2654.89 543.263   1 
   3   5   1 2301.06 389.742  30 
   3   5   1 2056.60 270.377  28 
   3   5   1 2296.91 407.319  24 
  -3  -5  -2 1375.77 366.841   4 
  -3  -5  -2 1271.68 380.128   2 
  -3  -5  -2 881.665 306.644   1 
   3   5   2 975.941 175.405  28 
   3   5   2 1024.89 273.865  30 
   3   5   2 1234.19 287.986  24 
  -3  -5  -3 597.842 254.347   2 
  -3  -5  -3 699.189 251.256   1 
  -3  -5  -3 543.496 255.565   4 
   3   5   3 671.842 235.915  30 
   3   5   3 813.625 229.792  24 
  -3  -5  -4 4581.85 639.104   4 
  -3  -5  -4 3729.53 616.299   2 
  -3  -5  -4 4075.42 642.728   1 
   3   5   4 3976.26 567.187  30 
  -3  -5  -5 2592.53 137.523  17 
  -3  -5  -5 2773.72 512.252   2 
  -3  -5  -5 2392.69 497.529   1 
  -3  -5  -5 2444.29 464.417   4 
   3   5   5 2488.90 464.986  30 
  -3  -5  -5 2603.98 370.586  25 
  -3  -5  -6 603.283 73.4749  17 
  -3  -5  -6 197.042 138.846   1 
  -3  -5  -6 360.105 171.457   4 
  -3  -5  -6 837.865 277.181   2 
   3   5   6 554.061 93.7106  33 
   3   5   6 536.282 225.756  30 
  -3  -5  -6 605.160 65.3830  23 
  -3  -5  -6 781.146 214.384  25 
   3   5   7 959.247 262.293  11 
  -3  -5  -7 1193.56 100.063  17 
   3   5   7 1097.91 136.614  33 
   3   5   7 1234.69 353.106  30 
  -3  -5  -7 869.058 223.975  25 
  -3  -5  -7 920.298 79.3798  23 
  -3  -5  -8 21270.9 414.713  17 
   3   5   8 19936.6 1098.26  11 
   3   5   8 23059.0 1619.63  30 
   3   5   8 21925.9 625.292  33 
  -3  -5  -8 20043.4 370.432  23 
  -3  -5  -8 22688.0 1183.54  25 
  -3  -5  -9 6126.20 214.013  16 
  -3  -5  -9 6419.16 226.182  17 
   3   5   9 6712.88 362.426  33 
   3   5   9 6927.48 338.674  21 
  -3  -5  -9 6270.70 212.361  23 
  -3  -5 -10 2569.28 139.943  16 
   3   5  10 2671.53 231.230  33 
   3   5  10 2873.12 214.371  21 
  -3  -5 -10 2528.95 137.765  23 
  -3  -5 -11 1515.97 104.039  16 
   3   5  11 1811.37 186.425  33 
   3   5  11 1627.09 164.311  21 
  -3  -5 -11 1647.68 108.258  23 
  -3  -5 -12 4365.94 170.206  16 
   3   5  12 4937.11 282.277  33 
   3   5  12 4803.18 275.052  21 
  -3  -5 -12 4699.52 174.241  23 
  -3  -5 -13 3541.08 137.920  16 
   3   5  13 4146.69 235.406  33 
   3   5  13 3824.94 215.797  21 
  -3  -5 -13 3891.12 145.051  23 
   3   5  14 111.547 33.4944  33 
   3   5  14 96.0513 31.8841  21 
  -3  -5 -14 148.392 27.7465  23 
  -2  -4  14 537.441 65.6850  13 
  -2  -4  14 548.796 61.4621  32 
  -2  -4  13 325.278 67.9347  13 
   2   4 -13 250.795 44.0209  31 
  -2  -4  13 238.294 52.1983  32 
   2   4 -13 261.369 36.6834  23 
  -2  -4  12 51.9475 38.8655  13 
   2   4 -12 101.391 37.4423  31 
  -2  -4  12 103.903 46.2361  32 
   2   4 -12 115.999 32.2682  23 
  -2  -4  11 3303.64 256.677  13 
   2   4 -11 3546.71 188.736  31 
  -2  -4  11 3302.70 246.436  32 
   2   4 -11 3674.50 172.355  23 
  -2  -4  10 3041.52 146.013  14 
   2   4 -10 3117.04 189.706  31 
  -2  -4  10 2875.62 244.724  32 
   2   4 -10 3143.86 172.429  23 
  -2  -4   9 128.781 36.8613  18 
  -2  -4   9 155.193 36.5426  14 
  -2  -4   9 81.4710 36.0601  32 
   2   4  -9 205.988 55.2231  31 
   2   4  -9 133.184 45.1886  23 
  -2  -4   8 2628.62 381.203  11 
  -2  -4   8 2771.64 144.579  18 
  -2  -4   8 2865.89 145.160  14 
  -2  -4   8 2473.44 333.883   9 
  -2  -4   8 3083.72 573.995  29 
   2   4  -8 2951.65 180.788  31 
   2   4  -8 3095.06 417.232  28 
  -2  -4   8 2873.18 248.382  32 
   2   4  -8 2847.17 162.778  23 
   2   4  -8 3012.79 544.987  24 
   2   4  -8 2300.20 349.620  25 
  -2  -4   7 1699.94 289.814  11 
  -2  -4   7 1829.79 115.174  14 
  -2  -4   7 1762.37 107.123  18 
  -2  -4   7 1655.57 263.314   9 
   2   4  -7 1644.10 135.837  31 
   2   4  -7 1586.73 283.812  28 
  -2  -4   7 1914.92 198.036  32 
   2   4  -7 1624.76 377.120  24 
   2   4  -7 1565.70 117.949  23 
  -2  -4   6 45.6750 21.4308  14 
  -2  -4   6 2.46242 33.9417  11 
  -2  -4   6 183.788 82.4851   9 
  -2  -4   6 19.0116 31.5775  32 
   2   4  -6 46.5847 21.3488  31 
   2   4  -6 1.39254 56.1912  28 
   2   4  -6 44.8963 48.7636  20 
   2   4  -6-120.669 109.580  24 
  -2  -4   5 5069.65 394.192   9 
   2   4  -5 5271.64 464.473  28 
   2   4  -5 5487.43 667.198  24 
  -2  -4   4 4573.53 554.216   2 
  -2  -4   4 4476.10 337.805   9 
  -2  -4   4 4530.87 553.925   1 
   2   4  -4 4616.19 408.887  28 
   2   4  -4 4600.00 583.033  24 
  -2  -4   3 1069.75 277.720   2 
  -2  -4   3 1017.65 277.771   1 
  -2  -4   3 975.157 141.370   9 
   2   4  -3 969.459 211.985  30 
   2   4  -3 1195.68 196.435  28 
   2   4  -3 1068.74 265.488  24 
  -2  -4   2-54.2188 61.5163   1 
  -2  -4   2 103.099 35.8470   9 
  -2  -4   2-13.1988 43.1364   2 
   2   4  -2 100.199 57.8043  28 
   2   4  -2 12.7813 60.2790  30 
   2   4  -2 41.2541 54.8501  24 
  -2  -4   1 695.032 221.953   1 
  -2  -4   1 803.946 233.322   2 
  -2  -4   1 832.084 104.142   9 
   2   4  -1 731.604 187.351  30 
   2   4  -1 794.607 139.389  28 
   2   4  -1 803.723 221.391  24 
  -2  -4   0 17604.2 1135.42   1 
  -2  -4   0 18564.4 1163.70   2 
   2   4   0 17114.4 910.339  30 
   2   4   0 15887.7 624.429  28 
   2   4   0 17498.3 964.729  24 
  -2  -4  -1 465.243 83.4915  10 
  -2  -4  -1 398.228 183.707   2 
  -2  -4  -1 404.646 184.401   1 
   2   4   1 488.750 166.851  29 
   2   4   1 512.172 162.063  30 
   2   4   1 364.537 139.140  24 
  -2  -4  -2 519.663 93.4867  10 
  -2  -4  -2 487.579 198.358   1 
  -2  -4  -2 531.766 204.169   2 
   2   4   2 540.244 171.408  29 
   2   4   2 643.662 178.212  30 
   2   4   2 525.353 147.822  24 
  -2  -4  -3 7912.14 752.679   1 
  -2  -4  -3 7043.75 386.318  10 
  -2  -4  -3 7593.94 732.609   2 
   2   4   3 7101.38 567.867  29 
   2   4   3 6508.58 617.204  30 
  -2  -4  -3 7337.31 486.929  25 
   2   4   3 5618.16 536.746  24 
  -2  -4  -4 70295.1 1328.43  10 
  -2  -4  -4 79853.7 2330.25   2 
  -2  -4  -4 80590.9 2383.12   1 
   2   4   4 74970.5 1851.05  29 
   2   4   4 70710.1 2108.97  30 
  -2  -4  -4 77444.1 1645.80  25 
   2   4   4 72164.6 1791.35  24 
  -2  -4  -4 78680.1 1590.41  26 
  -2  -4  -5 10865.6 842.438   2 
  -2  -4  -5 9779.31 539.016  10 
  -2  -4  -5 10737.4 852.488   1 
   2   4   5 10546.5 716.494  29 
   2   4   5 9498.60 825.990  30 
  -2  -4  -5 11195.2 669.697  25 
  -2  -4  -5 10227.3 592.191  26 
  -2  -4  -6 1134.92 261.368   4 
  -2  -4  -6 951.343 254.907   2 
  -2  -4  -6 1143.88 276.438   1 
   2   4   6 1104.74 243.019  29 
   2   4   6 1144.96 303.441  30 
  -2  -4  -6 1164.75 229.645  25 
  -2  -4  -6 1130.35 206.248  26 
   2   4   7 8663.08 652.864  11 
   2   4   7 9370.42 920.796  30 
  -2  -4  -7 10065.6 699.589  25 
  -2  -4  -7 8222.49 585.774  26 
  -2  -4  -8 9518.19 259.030  17 
  -2  -4  -8 9042.45 246.609  16 
   2   4   8 8412.00 662.935  11 
   2   4   8 9280.15 931.059  30 
  -2  -4  -8 10126.6 736.438  25 
   2   4   8 8895.46 373.553  21 
  -2  -4  -8 7781.37 571.503  26 
  -2  -4  -8 8594.38 232.604  23 
  -2  -4  -9 18367.4 372.199  17 
   2   4   9 17706.4 990.203  11 
  -2  -4  -9 17934.7 365.258  16 
   2   4   9 17181.9 572.422  33 
   2   4   9 18782.9 1373.03  30 
  -2  -4  -9 17397.0 354.567  23 
   2   4   9 18541.8 579.098  21 
  -2  -4 -10 1164.68 98.0336  16 
   2   4  10 1279.26 157.575  33 
   2   4  10 1290.84 157.652  21 
  -2  -4 -10 1141.95 93.0191  23 
  -2  -4 -11 205.552 41.4685  16 
   2   4  11 233.939 73.5000  33 
   2   4  11 196.997 61.8275  21 
  -2  -4 -11 158.135 37.3113  23 
  -2  -4 -12 2638.21 145.587  16 
   2   4  12 2624.04 215.443  33 
   2   4  12 2849.04 227.121  21 
  -2  -4 -12 2817.32 146.033  23 
  -2  -4 -13 1866.05 115.028  16 
   2   4  13 1804.21 165.206  33 
   2   4  13 1928.52 180.357  21 
  -2  -4 -13 1989.82 114.465  23 
  -2  -4 -14 2873.87 124.117  16 
   2   4  14 2849.54 179.331  33 
   2   4  14 3048.52 197.822  21 
  -2  -4 -14 3155.01 129.930  23 
   2   4  15 32.2510 13.4334  33 
   2   4  15 7.52089 14.9257  21 
  -2  -4 -15 0.45828 14.6944  23 
  -1  -3  15 19.4636 14.5870  13 
  -1  -3  15 33.8446 25.4866  32 
  -1  -3  14 106.245 42.2933  13 
  -1  -3  14 160.129 45.1040  32 
   1   3 -14 74.9614 24.2240  31 
   1   3 -14 82.5090 21.9523  23 
  -1  -3  13 0.92225 34.2356  13 
  -1  -3  13 8.40669 34.5943  32 
   1   3 -13 34.6837 23.7866  31 
   1   3 -13-5.55341 31.7215  23 
   1   3 -12 200.265 48.9348  31 
  -1  -3  12 237.377 70.0298  32 
   1   3 -12 241.364 48.1631  23 
   1   3 -11 169.861 55.2245  31 
  -1  -3  11 78.2617 32.7560  32 
   1   3 -11 121.756 47.5941  23 
   1   3 -10 9218.31 460.132  12 
   1   3 -10 9370.70 321.842  31 
  -1  -3  10 9069.75 436.921  32 
   1   3 -10 8979.33 289.403  23 
  -1  -3   9 310.337 45.1444  14 
  -1  -3   9 275.128 47.1479  18 
  -1  -3   9 254.282 114.485  11 
  -1  -3   9 406.275 95.1706  32 
   1   3  -9 363.932 109.233  28 
  -1  -3   9 370.810 197.942  29 
  -1  -3   9 235.972 98.3478  27 
   1   3  -9 371.278 61.6322  31 
   1   3  -9 419.067 62.2057  23 
   1   3  -9 523.223 173.001  25 
  -1  -3   8 8623.38 612.782  11 
  -1  -3   8 8885.59 231.535  14 
  -1  -3   8 8735.22 552.303  27 
  -1  -3   8 8944.09 919.425  29 
   1   3  -8 8816.57 288.815  31 
  -1  -3   8 9223.87 417.855  32 
   1   3  -8 8981.93 665.248  28 
   1   3  -8 9086.22 828.948  24 
   1   3  -8 8803.44 626.584  25 
   1   3  -8 8347.71 262.924  23 
  -1  -3   7 2129.32 287.839  11 
  -1  -3   7 2213.16 252.929  27 
   1   3  -7 2708.56 337.076  28 
   1   3  -7 2630.70 416.830  24 
  -1  -3   6 7843.38 513.408  11 
  -1  -3   6 7892.92 454.061  27 
   1   3  -6 8212.51 543.022  28 
   1   3  -6 7437.99 687.863  24 
  -1  -3   5 8144.12 494.176  11 
  -1  -3   5 8148.79 592.392   1 
  -1  -3   5 8356.48 592.286   2 
  -1  -3   5 8253.07 423.234  27 
   1   3  -5 8125.88 494.399  28 
   1   3  -5 8078.98 682.328  24 
  -1  -3   4 67452.4 1332.13  11 
  -1  -3   4 65868.0 1736.00   1 
  -1  -3   4 66768.0 1722.25   2 
  -1  -3   4 66837.2 1096.23  27 
   1   3  -4 66732.4 1297.65  28 
   1   3  -4 64772.1 1835.88  24 
  -1  -3   3 61411.0 1204.58  11 
  -1  -3   3 56070.5 880.106  10 
  -1  -3   3 59037.5 1667.86   1 
  -1  -3   3 59959.4 1654.74   2 
  -1  -3   3 59993.0 931.155  27 
   1   3  -3 56955.6 1403.41  30 
   1   3  -3 60366.4 1109.45  28 
   1   3  -3 59399.4 1683.72  24 
  -1  -3   2 1978.29 155.385   9 
  -1  -3   2 2081.97 156.594  10 
  -1  -3   2 1984.22 149.950  27 
   1   3  -2 1928.38 247.567  30 
   1   3  -2 2059.96 184.608  28 
   1   3  -2 1881.68 284.017  24 
  -1  -3   1 4261.34 212.679  10 
  -1  -3   1 4182.93 176.170   9 
  -1  -3   1 4227.58 189.683  27 
   1   3  -1 4380.82 383.537  30 
   1   3  -1 4039.18 410.943  29 
   1   3  -1 4062.96 246.600  28 
   1   3  -1 4194.58 404.008  24 
  -1  -3   0 102802. 1061.44  10 
  -1  -3   0 97928.1 655.694   9 
  -1  -3   0 104069. 725.314  27 
   1   3   0 110465. 1952.84  30 
   1   3   0 105844. 1958.72  29 
  -1  -3   0 106956. 1248.82  26 
   1   3   0 106149. 1976.27  24 
  -1  -3  -1 54960.0 820.558  10 
   1   3   1 55069.2 1352.59  29 
   1   3   1 58239.0 1460.57  30 
  -1  -3  -1 53602.5 412.529  27 
  -1  -3  -1 60250.0 1087.42  25 
  -1  -3  -1 55434.8 1033.19  26 
   1   3   1 52324.5 1386.95  24 
  -1  -3  -2 25208.6 605.811  10 
   1   3   2 24371.4 894.619  29 
   1   3   2 24578.1 978.653  30 
   1   3   2 24356.9 903.937  24 
  -1  -3  -3 3998.53 432.421   1 
  -1  -3  -3 3127.27 235.232  10 
   1   3   3 3366.83 350.655  29 
   1   3   3 3087.96 367.440  30 
  -1  -3  -3 3623.38 292.798  25 
   1   3   3 3001.80 321.069  24 
  -1  -3  -3 3625.19 291.594  26 
  -1  -3  -4 4888.41 317.742  10 
  -1  -3  -4 5113.72 479.502   1 
  -1  -3  -4 4643.08 457.169   2 
   1   3   4 5207.06 446.432  29 
   1   3   4 4055.29 434.273  30 
  -1  -3  -4 5262.11 371.944  25 
  -1  -3  -4 5652.92 368.757  26 
  -1  -3  -5 5142.28 472.376   1 
  -1  -3  -5 4821.32 350.601  10 
  -1  -3  -5 4811.19 450.972   2 
   1   3   5 4781.42 454.361  29 
   1   3   5 4739.87 234.178  27 
   1   3   5 4233.67 472.488  30 
  -1  -3  -5 5198.09 387.241  25 
  -1  -3  -5 5544.09 396.494  26 
   1   3   6 1671.67 241.036  11 
  -1  -3  -6 1433.87 210.821  10 
   1   3   6 1364.23 284.441  30 
   1   3   6 1522.28 285.023  29 
   1   3   6 1360.37 146.754  27 
  -1  -3  -6 1569.46 232.966  25 
  -1  -3  -6 1608.54 222.802  26 
   1   3   7 235.423 99.4367  11 
   1   3   7 211.245 63.5654  27 
   1   3   7 191.772 114.225  29 
   1   3   7 212.916 90.9540  30 
  -1  -3  -7 208.622 88.6466  26 
  -1  -3  -7 336.335 113.900  25 
   1   3   8-22.5617 40.2939  11 
   1   3   8 92.0103 89.6826  30 
   1   3   8 37.1510 62.1455  29 
  -1  -3  -8 164.973 49.6034  26 
   1   3   8 94.3576 41.1230  21 
  -1  -3  -8-60.0202 56.5077  25 
  -1  -3  -9 11778.2 288.797  17 
   1   3   9 10943.2 725.175  11 
  -1  -3  -9 11376.1 277.913  31 
   1   3   9 11544.2 929.904  29 
   1   3   9 10964.8 435.302  33 
   1   3   9 11910.5 473.813  21 
  -1  -3  -9 12054.6 777.364  25 
  -1  -3  -9 11381.9 278.473  23 
   1   3  10 844.951 206.692  11 
   1   3  10 1014.15 140.742  33 
  -1  -3 -10 1210.06 261.414  25 
   1   3  10 916.782 129.801  21 
  -1  -3 -10 945.956 87.1916  23 
   1   3  11 9870.64 422.837  33 
  -1  -3 -11 10000.0 281.261  23 
   1   3  11 10828.1 476.102  21 
   1   3  12 204.960 59.2636  33 
  -1  -3 -12 178.083 40.2686  23 
   1   3  12 248.397 75.9358  21 
  -1  -3 -13 203.273 43.9632  16 
   1   3  13 238.566 59.2676  33 
  -1  -3 -13 224.254 45.9177  23 
   1   3  13 243.195 66.1499  21 
  -1  -3 -14 3037.91 138.755  16 
   1   3  14 3304.33 181.825  33 
   1   3  14 3489.61 224.508  21 
  -1  -3 -14 3185.90 135.390  23 
   1   3  15 6925.65 245.971  15 
  -1  -3 -15 6588.57 164.645  16 
   1   3  15 7139.93 271.004  21 
  -1  -3 -15 7497.96 173.534  23 
   0  -2  15 2722.57 181.089  13 
   0   2 -15 3247.55 137.155  31 
   0  -2  15 2929.55 175.371  32 
   0  -2  15 2509.58 147.631  21 
   0   2 -15 3385.56 122.356  23 
   0   2 -14 790.038 82.6459  31 
   0  -2  14 662.419 100.617  32 
   0  -2  14 671.850 96.2007  21 
   0   2 -14 770.463 74.7183  23 
   0   2 -13 270.557 54.9535  31 
   0  -2  13 264.922 69.0320  32 
   0   2 -13 245.667 46.4785  23 
   0  -2  12 125.366 58.5108  32 
   0   2 -12 108.260 39.1256  31 
   0   2 -12 68.1383 23.3974  23 
   0   2 -11 6200.74 255.829  31 
   0  -2  11 6136.19 347.772  32 
   0   2 -11 6351.30 245.198  23 
   0  -2  10 16089.7 882.664  11 
   0   2 -10 14868.4 561.248  12 
   0   2 -10 15926.6 388.099  31 
   0  -2  10 15822.6 788.304  27 
   0   2 -10 14657.2 602.225  34 
   0  -2  10 15843.1 561.376  32 
   0   2 -10 14366.5 937.362  28 
   0  -2  10 15057.0 1231.52  29 
   0   2 -10 16973.7 937.237  25 
   0   2 -10 15551.9 379.701  23 
   0  -2   9 1979.67 286.870  11 
   0   2  -9 2102.27 208.795  12 
   0  -2   9 2242.52 464.302  29 
   0  -2   9 2058.27 267.749  27 
   0   2  -9 2003.87 211.379  34 
   0   2  -9 1917.81 320.554  28 
   0   2  -9 2200.73 140.987  31 
   0  -2   9 2240.23 202.822  32 
   0   2  -9 2271.17 314.498  25 
   0   2  -9 2209.04 135.927  23 
   0  -2   8 1701.25 253.544  11 
   0  -2   8 1755.16 363.125  29 
   0  -2   8 1881.50 239.825  27 
   0   2  -8 1890.85 299.844  28 
   0   2  -8 1708.35 256.415  25 
   0  -2   7 6468.23 452.901  11 
   0   2  -7 6228.80 487.955  28 
   0  -2   7 6323.67 414.808  27 
   0   2  -7 6433.31 543.143  24 
   0   2  -7 6342.98 447.374  25 
   0  -2   6 7045.90 434.572  11 
   0  -2   6 6811.93 392.530  27 
   0   2  -6 7163.40 478.683  28 
   0   2  -6 6423.76 513.941  24 
   0  -2   5 930.822 144.755  11 
   0   2  -5 1051.99 130.101   3 
   0  -2   5 1214.51 169.798  27 
   0   2  -5 842.012 146.771  28 
   0   2  -5 722.205 152.920  24 
   0  -2   4 8570.69 399.938  11 
   0  -2   4 8818.66 382.626  27 
   0   2  -4 8223.92 394.834  28 
   0   2  -4 8120.00 528.115  24 
   0  -2   3 16227.8 503.115  11 
   0  -2   3 15897.8 468.131  27 
   0   2  -3 15584.0 469.630  28 
   0   2  -3 16017.8 704.452  24 
   0  -2   2 5335.55 270.250  11 
   0   2  -2 5019.95 361.545  30 
   0  -2   2 5234.09 244.065  27 
   0   2  -2 4920.54 222.212  28 
   0  -2   2 4385.96 171.443  26 
   0   2  -2 5621.21 402.730  24 
   0  -2   1 13943.3 397.247  10 
   0  -2   1 13236.0 338.447  27 
   0   2  -1 13301.4 281.767  28 
   0  -2   1 14042.8 355.885  26 
   0  -2   0 1077.72 107.811  10 
   0  -2   0 1052.32 117.200  26 
   0   2   0 1043.77 168.868  24 
   0  -2  -1 29964.2 569.232  10 
   0  -2  -1 31896.3 631.539  25 
   0  -2  -2 9878.32 356.133  10 
   0   2   2 9535.54 512.249  30 
   0   2   2 10376.6 524.980  29 
   0  -2  -2 10877.2 387.285  25 
   0  -2  -3 22279.4 586.905  10 
   0   2   3 21513.5 817.548  29 
   0   2   3 20851.0 782.213  30 
   0  -2  -3 21203.4 584.288  28 
   0   2   3 22356.7 466.004  27 
   0  -2  -3 23295.0 599.367  25 
   0  -2  -3 21965.1 612.135  26 
   0   2   4 11129.6 492.986  11 
   0   2   4 12312.6 361.853   3 
   0  -2  -4 11046.4 454.228  10 
   0   2   4 11270.0 644.458  29 
   0   2   4 10326.0 584.920  30 
   0  -2  -4 12792.1 480.681  28 
   0   2   4 11799.9 382.206  27 
   0  -2  -4 11908.2 462.013  25 
   0  -2  -4 11724.5 474.487  26 
   0   2   5 2014.26 223.540  11 
   0  -2  -5 2108.06 220.694  10 
   0   2   5 1976.47 298.141  29 
   0   2   5 2353.70 192.156  27 
   0   2   5 2112.29 282.089  30 
   0  -2  -5 2585.01 245.825  28 
   0  -2  -5 2013.41 210.433  25 
   0  -2  -5 2074.21 215.130  26 
   0   2   6 88220.1 1618.99  11 
   0  -2  -6 95179.3 1637.41  10 
   0  -2  -6 90030.1 1620.83  28 
   0   2   6 85224.1 1927.65  30 
   0   2   6 85058.0 2086.32  29 
   0   2   6 91803.8 1325.47  27 
   0  -2  -6 89740.9 1533.31  25 
   0  -2  -6 90484.8 1538.50  26 
   0   2   7 17926.1 768.617  11 
   0   2   7 17967.9 1046.38  29 
   0   2   7 18678.3 963.249  30 
   0  -2  -7 16703.9 786.840  28 
   0   2   7 18725.4 659.094  27 
   0  -2  -7 18755.8 772.464  25 
   0  -2  -7 18222.6 741.830  26 
   0   2   8 5715.96 470.120  11 
   0  -2  -8 5531.77 479.565  28 
   0   2   8 6181.25 666.550  29 
   0   2   8 6225.11 416.986  27 
   0  -2  -8 6168.17 485.095  25 
   0  -2  -8 6238.79 459.389  26 
   0  -2  -9 2786.47 141.930  17 
   0   2   9 2631.93 342.435  11 
   0   2   9 2821.46 198.610  32 
   0   2   9 2830.19 207.436  33 
   0   2   9 2736.51 485.438  29 
   0   2   9 2767.95 302.295  27 
   0  -2  -9 2802.83 354.654  25 
   0  -2  -9 2771.81 145.028  23 
   0   2   9 2853.21 225.975  21 
   0   2  10 1899.97 304.687  11 
   0   2  10 2361.34 473.520  29 
   0   2  10 2265.32 189.289  33 
   0   2  10 2178.85 182.864  32 
   0   2  10 1749.58 261.825  27 
   0  -2 -10 2486.65 359.867  25 
   0   2  10 2151.95 206.836  21 
   0  -2 -10 2069.60 131.758  23 
   0   2  11 9488.86 389.964  33 
   0   2  11 8917.56 380.073  32 
   0  -2 -11 9386.22 280.087  23 
   0   2  11 8606.47 421.935  21 
   0   2  12 1071.07 127.540  32 
   0   2  12 1000.33 140.729  21 
   0  -2 -12 1039.98 97.2142  23 
   0   2  13 1423.18 134.183  32 
   0   2  13 1364.18 155.356  21 
   0  -2 -13 1254.94 97.9323  23 
   0   2  14 18.6849 25.0567  15 
   0  -2 -14-16.9581 28.1822  23 
   0   2  14 21.5688 28.3233  21 
   0  -2 -15 1143.59 70.7045  16 
   0   2  15 1294.47 109.599  15 
   0   2  15 1187.55 104.797  21 
   0  -2 -15 1413.62 76.8624  23 
  -1   1 -16 159.373 29.3627  16 
   1  -1  16 194.462 41.9456  13 
  -1   1 -16 227.905 37.0505  31 
  -1   1 -16 180.899 25.7898  23 
   1  -1  16 134.666 37.3489  21 
  -1   1 -15 1179.90 94.6073  16 
  -1   1 -15 1243.79 96.4299  31 
   1  -1  15 1233.95 112.875  32 
   1  -1  15 1082.95 121.557  21 
  -1   1 -15 1301.78 89.7100  23 
  -1   1 -14 225.442 50.2682  31 
   1  -1  14 311.761 69.6102  32 
   1  -1  14 286.503 70.8430  21 
  -1   1 -14 341.133 56.6372  23 
  -1   1 -13 941.467 100.053  31 
   1  -1  13 1133.11 139.498  32 
  -1   1 -13 993.994 99.0022  23 
  -1   1 -12 4384.00 208.141  31 
   1  -1  12 4034.55 276.250  32 
  -1   1 -12 3976.99 190.815  23 
   1  -1  11 2330.05 332.809  11 
  -1   1 -11 2310.54 149.776  31 
   1  -1  11 2157.73 285.440  27 
  -1   1 -11 2218.39 248.936  34 
   1  -1  11 2135.67 442.079  29 
   1  -1  11 2311.61 206.967  32 
  -1   1 -11 2798.75 382.727  25 
  -1   1 -11 2347.69 153.380  23 
   1  -1  10 208.274 114.676  11 
   1  -1  10 69.4980 44.1798  32 
  -1   1 -10 124.610 70.1341  34 
  -1   1 -10 109.972 37.1325  31 
   1  -1  10 49.7518 53.8390  27 
   1  -1  10 331.566 166.240  29 
  -1   1 -10-10.8719 60.9161  28 
  -1   1 -10 38.4296 24.4127  23 
  -1   1 -10-18.1747 48.9533  25 
   1  -1   9 5542.61 456.899  11 
   1  -1   9 5306.17 625.161  29 
   1  -1   9 5443.32 417.374  27 
  -1   1  -9 5557.47 550.040  28 
  -1   1  -9 6187.66 495.677  25 
   1  -1   8 7516.50 488.329  11 
   1  -1   8 7059.55 440.155  27 
   1  -1   8 6947.88 665.214  29 
  -1   1  -8 7631.55 582.824  28 
  -1   1  -8 7357.79 495.214  25 
   1  -1   7 34982.8 963.209  11 
   1  -1   7 33445.9 904.490  27 
  -1   1  -7 33475.5 1130.99  28 
  -1   1  -7 33560.9 957.637  25 
   1  -1   6 5277.28 339.247  11 
  -1   1  -6 4629.28 226.363   3 
   1  -1   6 5141.83 328.235  27 
  -1   1  -6 4983.72 391.286  28 
  -1   1  -6 6126.43 406.821  24 
  -1   1  -6 5049.43 337.299  25 
   1  -1   5 31682.8 752.187  11 
  -1   1  -5 30100.7 581.529   3 
  -1   1  -5 31219.4 843.064  28 
   1  -1   5 31416.1 751.993  27 
  -1   1  -5 30927.5 738.659  25 
   1  -1   4 51954.0 855.460  11 
  -1   1  -4 53810.7 772.402   3 
  -1   1  -4 49816.7 919.684  28 
   1  -1   4 51805.3 877.912  27 
  -1   1  -4 52458.2 1101.27  24 
  -1   1  -4 49161.4 824.782  25 
   1  -1   3 2256.37 159.002  11 
  -1   1  -3 2519.79 163.475   3 
  -1   1  -3 2001.20 159.883  28 
  -1   1  -3 2137.03 218.508  24 
   1  -1   2 34999.0 526.083  11 
  -1   1  -2 34797.7 901.276  29 
  -1   1  -2 32770.5 835.437  24 
   1  -1   1 111378. 765.134  11 
   1  -1   1 108769. 1091.53  10 
  -1   1  -1 119633. 862.714   9 
  -1   1  -1 129735. 1143.25   3 
  -1   1  -1 104482. 1402.72  29 
   1  -1   1 117944. 455.053  28 
   1  -1   1 118632. 874.099  26 
   1  -1   0 179474. 1362.29  10 
  -1   1   0 169707. 988.531   9 
  -1   1   0 185571. 1357.29   3 
  -1   1   0 169465. 1764.54  29 
   1  -1   0 167060. 751.569  28 
   1  -1   0 179324. 1225.34  26 
  -1   1   1 4621.20 191.717   9 
   1  -1  -1 4950.06 223.111  10 
  -1   1   1 4961.94 219.160   3 
  -1   1   1 4081.52 282.199  30 
  -1   1   1 4554.79 316.126  29 
   1  -1  -1 4496.54 180.400  28 
   1  -1  -1 4947.47 175.495  25 
  -1   1   2 157.177 41.9868  11 
  -1   1   2 158.991 45.5767   9 
  -1   1   2 167.565 39.5434   3 
   1  -1  -2 179.240 45.5070  10 
   1  -1  -2 171.648 45.2147  28 
  -1   1   2 236.318 75.4237  30 
   1  -1  -2 167.759 36.8741  25 
  -1   1   3 16479.3 455.114  11 
  -1   1   3 16026.8 365.354   3 
   1  -1  -3 16035.4 477.437  10 
   1  -1  -3 16081.8 499.980  28 
  -1   1   3 16284.0 603.601  30 
  -1   1   3 15233.1 707.747  29 
  -1   1   3 16078.9 450.479  27 
   1  -1  -3 15977.1 421.136  25 
   1  -1  -3 15719.2 485.107  26 
  -1   1   4 8880.24 390.833  11 
   1  -1  -4 8822.98 393.987  10 
  -1   1   4 7733.10 227.261   3 
  -1   1   4 8269.02 579.343  29 
   1  -1  -4 9080.31 422.105  28 
  -1   1   4 9341.65 471.092  30 
  -1   1   4 9001.37 370.192  27 
   1  -1  -4 8705.07 358.122  25 
   1  -1  -4 8499.29 389.241  26 
  -1   1   5 34856.0 845.150  11 
   1  -1  -5 36356.1 897.455  10 
  -1   1   5 33838.9 1294.34  29 
   1  -1  -5 35796.1 933.731  28 
  -1   1   5 33291.9 785.537  27 
   1  -1  -5 35686.2 822.773  25 
   1  -1  -5 33232.2 839.352  26 
  -1   1   6 1371.86 189.631  11 
   1  -1  -6 1671.53 211.246  10 
  -1   1   6 1514.51 310.608  29 
   1  -1  -6 1391.77 208.302  28 
  -1   1   6 1510.06 187.205  27 
   1  -1  -6 1363.22 181.631  25 
   1  -1  -6 1434.21 187.240  26 
  -1   1   7 707.337 148.114  11 
   1  -1  -7 602.492 151.887  28 
  -1   1   7 582.303 123.515  27 
  -1   1   7 777.186 234.220  29 
   1  -1  -7 651.377 139.366  26 
   1  -1  -7 577.519 135.606  25 
  -1   1   8-25.0309 34.1745  11 
  -1   1   8 12.7065 27.1466  27 
  -1   1   8-22.0761 54.8404  29 
   1  -1  -8 52.8675 39.9115  26 
   1  -1  -8 125.846 72.4402  25 
  -1   1   9 55.9063 52.7791  11 
   1  -1  -9 29.3928 21.6890  17 
   1  -1  -9 116.560 83.0566  28 
  -1   1   9 123.626 89.3941  29 
  -1   1   9 60.6447 51.1248  27 
  -1   1   9 49.7215 33.9397  32 
  -1   1   9 17.2467 35.6145  21 
   1  -1  -9 28.4125 43.4146  25 
   1  -1  -9 61.2663 30.8401  23 
   1  -1 -10 1802.08 119.681  17 
  -1   1  10 2062.31 309.962  11 
  -1   1  10 1136.36 238.859   9 
   1  -1 -10 1696.35 323.946  28 
  -1   1  10 2029.97 456.392  29 
  -1   1  10 1923.21 268.957  27 
  -1   1  10 1990.34 190.124  32 
   1  -1 -10 2031.30 316.502  25 
  -1   1  10 1939.17 188.524  21 
   1  -1 -10 1678.93 125.701  23 
  -1   1  11 8393.79 391.836  32 
  -1   1  11 8290.45 395.922  21 
   1  -1 -11 8450.40 273.626  23 
  -1   1  12 214.300 63.7655  32 
  -1   1  12 156.118 52.6517  21 
   1  -1 -12 202.276 48.0283  23 
  -1   1  13 127.845 53.5923  15 
  -1   1  13 101.155 39.0354  32 
   1  -1 -13 76.6308 31.1699  23 
  -1   1  13 99.4125 44.3197  21 
  -1   1  14 998.906 112.494  15 
  -1   1  14 979.402 102.973  32 
  -1   1  14 980.437 99.0888  21 
   1  -1 -14 963.839 76.7858  23 
  -1   1  15 495.108 62.0997  15 
   1  -1 -15 433.114 40.3987  16 
   1  -1 -15 513.409 43.3476  23 
  -2   0 -16-19.5239 17.5231  16 
  -2   0 -16-56.9805 23.9880  23 
  -2   0 -15-12.2490 24.3478  16 
  -2   0 -15-14.3802 22.2017  31 
  -2   0 -15-23.2863 19.0633  23 
   2   0  15 16.0583 28.6601  21 
  -2   0 -14 1751.02 135.272  16 
  -2   0 -14 1657.21 126.360  31 
  -2   0 -14 1614.74 114.521  23 
  -2   0 -13 1892.26 138.561  31 
  -2   0 -13 1850.78 129.947  23 
  -2   0 -12 19464.2 430.254  31 
  -2   0 -12 18777.4 430.813  23 
   2   0  11-31.0385 43.6572  11 
   2   0  11 108.490 65.3582  27 
  -2   0 -11-18.7731 25.4641  31 
  -2   0 -11 45.0822 30.4073  23 
  -2   0 -11 131.671 71.3370  19 
  -2   0 -11 156.253 96.6454  25 
   2   0  10 9224.39 625.311  11 
  -2   0 -10 9032.91 275.240  31 
   2   0  10 8529.08 540.273  27 
  -2   0 -10 8579.61 479.452  34 
   2   0  10 8942.06 880.317  30 
  -2   0 -10 9262.44 657.805  25 
  -2   0 -10 7435.82 406.557  19 
  -2   0 -10 9150.90 287.719  23 
   2   0   9 14096.0 714.583  11 
   2   0   9 13041.2 1007.70  30 
   2   0   9 13132.2 627.452  27 
  -2   0  -9 13828.6 734.178  25 
   2   0   8 14223.1 666.952  11 
   2   0   8 14848.5 830.003  29 
   2   0   8 14645.4 623.303  27 
  -2   0  -8 14856.8 690.934  25 
   2   0   7 26006.9 811.388  11 
   2   0   7 25595.2 986.786  29 
   2   0   7 24903.7 764.062  27 
  -2   0  -7 24734.6 807.222  25 
   2   0   6 994.415 142.843  11 
  -2   0  -6 1223.70 129.633   3 
   2   0   6 1040.58 175.574  29 
   2   0   6 1227.77 157.255  27 
  -2   0  -6 1147.91 159.700  25 
   2   0   5 2429.88 202.632  11 
  -2   0  -5 2377.38 266.163   4 
  -2   0  -5 2317.82 180.006   3 
   2   0   5 2679.27 217.061  27 
  -2   0  -5 2285.87 196.109  25 
   2   0   4 6639.69 291.346  11 
  -2   0  -4 5680.54 450.653   2 
  -2   0  -4 6344.87 288.156   3 
  -2   0  -4 6065.80 414.976   4 
   2   0   4 6795.91 324.851  27 
  -2   0  -4 6047.52 276.301  25 
   2   0   3 7684.73 268.870  11 
  -2   0  -3 7102.65 496.817   2 
  -2   0  -3 7500.75 307.898   3 
  -2   0  -3 8136.31 347.466   9 
  -2   0  -3 7072.51 443.645   4 
   2   0   3 7501.29 318.579  27 
  -2   0  -3 7226.01 255.869  25 
   2   0   2 27913.3 391.610  11 
  -2   0  -2 24850.8 922.194   2 
  -2   0  -2 27334.6 582.447   3 
  -2   0  -2 27650.3 578.505   9 
  -2   0  -2 25345.8 829.603   4 
  -2   0  -2 25481.1 569.044  29 
  -2   0  -2 26231.1 387.814  25 
   2   0   1 246036. 1617.31  10 
  -2   0  -1 244961. 2903.83   2 
  -2   0  -1 266645. 1792.10   3 
  -2   0  -1 263025. 1747.46   9 
  -2   0  -1 251350. 1848.73  29 
  -2   0   0 329515. 3027.43   4 
  -2   0   0 335467. 1991.07   3 
  -2   0   0 337364. 2058.67   9 
   2   0   0 334955. 1755.66  10 
  -2   0   0 324496. 2405.23  29 
   2   0   0 345608. 1990.56  28 
   2   0   0 335007. 2005.25  26 
  -2   0   1 42400.1 436.185  11 
  -2   0   1 42807.6 1233.86   2 
  -2   0   1 44888.5 808.365   9 
   2   0  -1 44935.3 632.163  10 
  -2   0   1 43960.9 718.742   3 
  -2   0   1 45624.8 1124.76   4 
  -2   0   1 43208.5 1028.80  29 
   2   0  -1 45237.0 785.093  28 
   2   0  -1 44861.0 795.262  26 
   2   0  -1 45479.7 384.407  25 
  -2   0   2 3662.91 176.044  11 
  -2   0   2 3238.99 344.353   2 
  -2   0   2 3555.59 318.185   4 
  -2   0   2 3419.94 248.732   9 
   2   0  -2 3499.83 193.233  10 
  -2   0   2 3389.86 197.703   3 
  -2   0   2 3571.73 336.091  29 
   2   0  -2 3572.38 249.271  28 
   2   0  -2 3557.57 236.414  26 
   2   0  -2 3582.65 159.249  25 
  -2   0   3 604.777 85.1121  11 
  -2   0   3 582.129 82.6597   3 
   2   0  -3 588.305 93.4933  10 
  -2   0   3 578.736 116.854   9 
  -2   0   3 610.305 136.213   4 
  -2   0   3 543.231 153.342  29 
   2   0  -3 595.568 119.608  28 
  -2   0   3 595.792 97.8492  27 
   2   0  -3 680.543 85.3469  25 
   2   0  -3 612.240 118.085  26 
  -2   0   4 1007.45 129.156  11 
   2   0  -4 1065.01 135.955  10 
  -2   0   4 962.377 168.958   9 
  -2   0   4 839.274 95.9684   3 
  -2   0   4 897.010 199.249  29 
   2   0  -4 1034.58 159.165  28 
  -2   0   4 1079.48 146.675  27 
   2   0  -4 1131.78 154.285  26 
   2   0  -4 1111.93 129.908  25 
  -2   0   5 660.067 116.026  11 
  -2   0   5 516.139 139.704   9 
   2   0  -5 671.816 147.499  28 
  -2   0   5 410.195 139.712  29 
  -2   0   5 635.206 122.368  27 
   2   0  -5 504.334 98.9108  25 
   2   0  -5 609.191 123.214  26 
  -2   0   6 6162.55 397.344  11 
  -2   0   6 4960.40 444.032   9 
  -2   0   6 6506.89 678.409  29 
  -2   0   6 6009.67 398.408  27 
   2   0  -6 5921.30 469.428  28 
   2   0  -6 5969.69 411.202  26 
   2   0  -6 6466.96 401.058  25 
  -2   0   7 23165.0 856.727  11 
  -2   0   7 19212.4 931.625   9 
  -2   0   7 24132.3 1425.46  29 
   2   0  -7 22581.4 990.087  28 
  -2   0   7 22827.5 851.833  27 
   2   0  -7 22997.0 861.288  26 
   2   0  -7 23760.4 858.955  25 
   2   0  -7 23712.9 1263.85  24 
  -2   0   8 1057.36 133.659  13 
  -2   0   8 803.016 206.317   9 
   2   0  -8 973.396 220.022  28 
  -2   0   8 1010.41 133.137  32 
  -2   0   8 1395.65 391.634  29 
  -2   0   8 904.204 181.830  27 
   2   0  -8 1093.38 263.374  24 
   2   0  -8 764.902 79.7173  23 
  -2   0   9 3778.99 265.086  13 
  -2   0   9 2681.31 398.120   9 
  -2   0   9 4261.48 688.802  29 
  -2   0   9 3900.75 272.535  32 
   2   0  -9 3473.14 451.534  28 
  -2   0   9 4023.34 413.781  27 
   2   0  -9 3601.20 184.817  23 
  -2   0  10 11677.4 474.230  13 
   2   0 -10 10382.2 301.314  17 
  -2   0  10 12039.9 482.170  32 
   2   0 -10 11572.0 328.832  23 
  -2   0  11 596.784 112.787  15 
  -2   0  11 613.437 106.093  13 
  -2   0  11 609.016 110.881  32 
   2   0 -11 497.615 71.5467  23 
  -2   0  12 2320.04 202.676  15 
  -2   0  12 2291.98 184.845  13 
  -2   0  12 2259.23 196.378  32 
   2   0 -12 2346.61 140.178  23 
  -2   0  13 162.011 54.0719  15 
  -2   0  13 205.478 58.3241  32 
   2   0 -13 125.568 32.1497  23 
  -2   0  14 1347.80 112.125  15 
  -2   0  14 1491.65 117.456  32 
   2   0 -14 1576.72 86.3522  23 
  -3  -1 -16 4408.67 149.029  16 
  -3  -1 -16 4503.55 131.306  23 
  -3  -1 -15 1724.21 121.608  16 
   3   1  15 1712.68 156.973  21 
  -3  -1 -15 1808.19 106.952  23 
  -3  -1 -14 42.2894 31.4493  16 
  -3  -1 -14 31.2372 28.4849  31 
  -3  -1 -14 63.4887 29.2040  23 
   3   1  14 55.0738 39.4020  21 
  -3  -1 -13 313.129 62.2890  16 
  -3  -1 -13 273.609 55.4592  31 
  -3  -1 -13 261.839 51.4995  23 
  -3  -1 -12 403.674 72.1161  16 
  -3  -1 -12 343.860 59.7631  31 
  -3  -1 -12 372.059 59.7849  23 
   3   1  11 13000.4 791.550  11 
  -3  -1 -11 13003.7 387.702  16 
  -3  -1 -11 12786.2 337.663  31 
   3   1  11 11822.3 640.102  27 
   3   1  11 12296.4 1112.12  30 
  -3  -1 -11 10561.3 499.429  19 
  -3  -1 -11 12333.3 834.834  25 
  -3  -1 -11 12750.4 342.376  23 
  -3  -1 -10 3238.75 262.464  12 
   3   1  10 3761.67 410.133  11 
  -3  -1 -10 3683.46 202.423  16 
  -3  -1 -10 3701.89 173.933  31 
   3   1  10 3521.97 332.748  27 
   3   1  10 3341.46 550.697  30 
  -3  -1 -10 3956.86 440.571  25 
  -3  -1 -10 3758.10 179.837  23 
  -3  -1 -10 2796.21 255.993  19 
   3   1   9 557.829 147.847  11 
  -3  -1  -9 522.424 73.4798  16 
   3   1   9 454.798 103.019  27 
  -3  -1  -9 626.644 65.9426  31 
   3   1   9 461.090 225.020  30 
  -3  -1  -9 790.653 179.132  25 
  -3  -1  -9 538.352 64.4656  23 
   3   1   8 2646.63 295.647  11 
   3   1   8 2476.87 253.964  27 
   3   1   8 2126.72 404.073  30 
  -3  -1  -8 2616.18 304.945  25 
   3   1   7 1026.23 176.888  11 
  -3  -1  -7 1157.76 156.533   3 
   3   1   7 1036.35 153.167  27 
  -3  -1  -7 1286.59 196.351  25 
   3   1   6 23691.8 754.382  11 
  -3  -1  -6 22377.3 1114.18   2 
  -3  -1  -6 22354.9 698.228   3 
  -3  -1  -6 22782.9 1009.73   4 
   3   1   6 23355.7 690.877  27 
  -3  -1  -6 23592.5 770.662  25 
   3   1   5 6040.84 344.706  11 
  -3  -1  -5 5479.38 545.435   2 
  -3  -1  -5 5542.88 332.158   3 
  -3  -1  -5 5391.98 492.361   4 
   3   1   5 6338.99 343.934  27 
  -3  -1  -5 6157.11 358.569  25 
  -3  -1  -4 136.264 84.8346   4 
  -3  -1  -4 184.448 74.3070   9 
  -3  -1  -4 223.082 67.1481   3 
  -3  -1  -4 224.462 136.512   2 
   3   1   4 226.472 62.6427  11 
   3   1   4 174.423 47.7523  27 
  -3  -1  -4 199.758 58.1147  25 
  -3  -1  -3 4613.52 490.572   2 
  -3  -1  -3 4939.01 303.436   3 
  -3  -1  -3 5050.43 318.573   9 
  -3  -1  -3 4738.30 450.023   4 
   3   1   3 5117.77 259.146  11 
  -3  -1  -3 5027.68 266.678  25 
   3   1   3 4912.25 312.177  24 
  -3  -1  -2 906.450 128.651   9 
  -3  -1  -2 964.060 211.582   4 
  -3  -1  -2 737.341 200.377   2 
  -3  -1  -2 995.110 136.542   3 
   3   1   2 765.976 94.6928  10 
   3   1   2 975.587 153.652  24 
   3   1   1 12226.8 325.079  10 
  -3  -1  -1 12525.9 470.708   3 
  -3  -1  -1 11289.8 761.248   2 
  -3  -1  -1 12110.1 478.098   9 
  -3  -1  -1 12197.8 728.928   4 
   3   1   1 12045.4 483.450  28 
  -3  -1   0 853.916 218.558   2 
  -3  -1   0 983.246 132.181   3 
   3   1   0 987.635 77.0297  10 
  -3  -1   0 967.185 135.755   9 
  -3  -1   0 832.816 194.965   4 
  -3  -1   0 994.859 143.202  29 
   3   1   0 946.461 145.527  30 
   3   1   0 1037.67 141.850  28 
  -3  -1   1 930.016 202.770   4 
  -3  -1   1 997.248 232.811   2 
  -3  -1   1 1047.46 133.093   3 
  -3  -1   1 1059.56 160.912   9 
  -3  -1   1 803.113 156.613  29 
   3   1  -1 1094.60 158.762  28 
   3   1  -1 1115.52 156.124  26 
  -3  -1   2 1468.51 274.428   2 
  -3  -1   2 1534.81 168.098   3 
  -3  -1   2 1610.45 206.141   9 
  -3  -1   2 1448.43 254.847   4 
  -3  -1   2 1363.19 241.926  29 
   3   1  -2 1491.10 195.166  28 
   3   1  -2 1554.24 191.385  26 
  -3  -1   3 8547.04 519.518   9 
  -3  -1   3 8088.07 664.585   2 
  -3  -1   3 9491.70 651.073   4 
  -3  -1   3 8788.89 651.896  29 
   3   1  -3 8617.90 515.943  28 
   3   1  -3 8342.27 661.416  24 
   3   1  -3 8292.59 464.361  26 
  -3  -1   4 339.157 128.198   4 
  -3  -1   4 124.634 85.8388   2 
  -3  -1   4 287.713 102.032   9 
  -3  -1   4 218.296 109.462  29 
   3   1  -4 222.324 80.2539  28 
   3   1  -4 299.774 94.5338  26 
   3   1  -4 277.587 119.776  24 
  -3  -1   5 547.789 173.395   9 
  -3  -1   5 893.918 249.528  29 
   3   1  -5 698.223 176.319  28 
   3   1  -5 754.439 151.356  26 
   3   1  -5 531.893 177.841  24 
  -3  -1   6 15007.5 520.816  15 
  -3  -1   6 14088.4 304.134  18 
  -3  -1   6 16025.9 526.698  13 
  -3  -1   6 14365.6 842.007   9 
  -3  -1   6 16784.9 1191.14  29 
  -3  -1   6 15105.3 482.473  32 
   3   1  -6 15607.4 851.839  28 
   3   1  -6 14157.0 341.442  23 
   3   1  -6 16169.9 1112.16  24 
   3   1  -6 15954.7 743.979  26 
  -3  -1   7 979.627 145.396  15 
  -3  -1   7 1001.51 90.5185  18 
  -3  -1   7 1118.94 148.567  13 
  -3  -1   7 866.442 206.497   9 
   3   1  -7 852.883 206.505  28 
  -3  -1   7 906.017 293.182  29 
  -3  -1   7 954.805 129.655  32 
   3   1  -7 1111.23 218.861  26 
   3   1  -7 992.793 277.686  24 
   3   1  -7 968.434 97.5038  23 
  -3  -1   8 4750.47 315.651  15 
  -3  -1   8 4308.15 190.774  18 
  -3  -1   8 5062.08 328.996  13 
  -3  -1   8 3893.99 493.049   9 
  -3  -1   8 5212.93 755.837  29 
  -3  -1   8 4912.42 305.021  32 
   3   1  -8 4715.54 530.301  28 
   3   1  -8 4734.40 212.727  23 
   3   1  -8 4749.52 659.643  24 
  -3  -1   9 36.3270 28.1519  15 
  -3  -1   9-13.4325 28.5512  13 
  -3  -1   9 24.5503 49.7852  32 
   3   1  -9 18.2909 34.3272  23 
  -3  -1  10 4037.29 280.516  15 
  -3  -1  10 4643.36 305.589  13 
  -3  -1  10 4410.02 291.351  32 
   3   1 -10 4358.47 205.596  23 
  -3  -1  11 5173.58 296.436  15 
  -3  -1  11 5472.61 310.741  13 
  -3  -1  11 5659.13 312.927  32 
   3   1 -11 5923.47 226.812  23 
  -3  -1  12 420.937 77.8025  15 
  -3  -1  12 394.624 74.4825  13 
  -3  -1  12 437.925 79.3434  32 
   3   1 -12 440.718 57.7571  23 
  -3  -1  13 6.42960 15.9981  15 
  -3  -1  13 50.5257 25.1435  13 
  -3  -1  13 28.7478 21.1246  32 
   3   1 -13-25.7924 26.2412  23 
  -4  -2 -16 1968.90 92.2123  16 
  -4  -2 -15 924.151 86.1313  16 
  -4  -2 -15 1046.03 76.0448  23 
   4   2  15 863.838 97.4561  21 
  -4  -2 -14 4471.44 203.511  16 
  -4  -2 -14 4578.42 179.154  23 
  -4  -2 -13 1153.42 112.644  16 
   4   2  13 946.581 127.356  21 
  -4  -2 -13 1011.75 98.5633  23 
  -4  -2 -12 541.413 79.6297  16 
   4   2  12 474.982 93.4403  21 
  -4  -2 -12 362.482 59.5661  23 
  -4  -2 -11 1958.12 156.919  16 
  -4  -2 -11 1784.61 130.801  23 
   4   2  10 12130.6 746.316  11 
  -4  -2 -10 12296.4 540.348  12 
  -4  -2 -10 13915.5 398.209  16 
   4   2  10 12711.1 1159.27  30 
  -4  -2 -10 11949.9 814.189  25 
  -4  -2 -10 12549.7 335.298  23 
  -4  -2  -9 9293.27 465.653  12 
   4   2   9 9476.59 624.442  11 
  -4  -2  -9 10321.1 328.667  16 
   4   2   9 8849.05 935.844  30 
  -4  -2  -9 10361.4 714.764  25 
  -4  -2  -9 9615.07 290.800  23 
  -4  -2  -9 8087.83 440.554  19 
   4   2   8 2437.36 300.920  11 
  -4  -2  -8 2641.11 252.233  12 
  -4  -2  -8 2662.24 168.628  16 
   4   2   8 2246.73 456.851  30 
  -4  -2  -8 2577.73 334.603  25 
  -4  -2  -8 2362.04 244.287  19 
  -4  -2  -8 2407.14 133.779  23 
   4   2   7 18814.9 780.474  11 
  -4  -2  -7 19065.1 1258.91   2 
  -4  -2  -7 19095.7 1126.49   4 
   4   2   7 16889.0 1177.57  30 
  -4  -2  -7 21490.5 909.662  25 
   4   2   6 16878.7 693.971  11 
  -4  -2  -6 15896.9 1137.75   2 
  -4  -2  -6 16365.2 1032.32   4 
   4   2   6 13814.1 996.695  30 
  -4  -2  -6 17478.3 772.157  25 
   4   2   5 2891.51 280.659  11 
  -4  -2  -5 2123.32 412.616   2 
  -4  -2  -5 2744.18 314.137   9 
  -4  -2  -5 2717.87 418.520   4 
   4   2   5 2144.36 374.884  30 
  -4  -2  -5 2642.54 278.223  25 
  -4  -2  -4 3127.87 490.929   2 
  -4  -2  -4 3361.53 334.689   9 
  -4  -2  -4 2764.25 416.075   4 
   4   2   4 3138.31 263.257  27 
   4   2   4 2916.72 408.995  30 
  -4  -2  -3 239.606 97.7274   4 
  -4  -2  -3 396.023 108.605   3 
  -4  -2  -3 331.575 169.174   2 
  -4  -2  -3 317.657 97.6134   9 
   4   2   3 289.762 118.709  30 
   4   2   3 265.867 69.7163  27 
  -4  -2  -2 69.0576 47.9171   4 
  -4  -2  -2 33.0801 52.8299   2 
  -4  -2  -2-9.69540 75.8552   9 
  -4  -2  -2-19.1560 35.6066   3 
   4   2   2-47.3329 109.856  28 
   4   2   2-79.1429 63.7465  30 
   4   2   2-131.215 74.3128  24 
  -4  -2  -1 13160.2 1002.93   2 
  -4  -2  -1 13871.4 619.929   9 
  -4  -2  -1 12759.6 907.167   4 
   4   2   1 12355.3 665.162  30 
   4   2   1 13083.5 642.060  28 
   4   2   1 13706.0 794.891  24 
  -4  -2   0 74850.4 2405.94   2 
  -4  -2   0 77802.4 1521.12   9 
  -4  -2   0 75084.8 2196.84   4 
   4   2   0 76464.6 1555.96  28 
   4   2   0 76246.9 2003.53  24 
  -4  -2   1 13915.1 1050.24   2 
  -4  -2   1 14481.6 687.530   9 
  -4  -2   1 14399.8 971.432   4 
   4   2  -1 14005.3 706.903  28 
   4   2  -1 13996.0 903.397  24 
  -4  -2   2 12.0436 58.7505   4 
  -4  -2   2 25.3892 39.3611   9 
  -4  -2   2-115.442 102.190   2 
   4   2  -2 18.8931 44.1281  28 
   4   2  -2 81.2295 109.520  24 
   4   2  -2 19.7785 38.3362  26 
  -4  -2   3 92.4951 89.2669   2 
  -4  -2   3 380.278 177.603   4 
  -4  -2   3 284.153 99.5090   9 
   4   2  -3 392.066 135.658  28 
   4   2  -3 268.150 100.450  26 
   4   2  -3 264.998 149.330  24 
  -4  -2   4 1549.11 97.2146  18 
  -4  -2   4 1668.71 180.837  13 
  -4  -2   4 1371.10 251.785   9 
   4   2  -4 1717.47 293.903  28 
  -4  -2   4 1582.96 325.739  29 
   4   2  -4 1479.35 231.459  26 
   4   2  -4 1450.65 327.387  24 
  -4  -2   5 531.744 91.6360  15 
  -4  -2   5 746.236 128.430  13 
  -4  -2   5 586.966 66.6638  18 
  -4  -2   5 489.394 159.789   9 
   4   2  -5 601.758 176.680  28 
  -4  -2   5 780.470 237.064  29 
  -4  -2   5 674.987 96.3331  32 
   4   2  -5 365.092 136.216  26 
   4   2  -5 607.714 217.761  24 
  -4  -2   6 815.288 123.295  15 
  -4  -2   6 798.290 80.4028  18 
  -4  -2   6 996.562 149.825  13 
  -4  -2   6 670.471 201.675   9 
   4   2  -6 800.887 221.404  28 
  -4  -2   6 895.275 273.371  29 
  -4  -2   6 960.015 127.428  32 
   4   2  -6 641.624 159.767  26 
   4   2  -6 1009.06 305.515  24 
   4   2  -6 649.854 82.4260  23 
  -4  -2   7 1616.84 175.617  15 
  -4  -2   7 1879.72 211.499  13 
  -4  -2   7 1683.79 118.358  18 
  -4  -2   7 1774.63 179.026  32 
   4   2  -7 1704.64 135.128  23 
  -4  -2   8 440.417 89.1418  15 
  -4  -2   8 504.101 110.103  13 
  -4  -2   8 348.163 58.8554  18 
  -4  -2   8 457.045 97.6566  32 
   4   2  -8 407.374 72.6311  23 
  -4  -2   9 1157.48 139.086  15 
  -4  -2   9 1219.15 104.274  18 
  -4  -2   9 1439.16 178.150  13 
  -4  -2   9 1325.90 155.305  32 
   4   2  -9 1304.90 112.447  23 
  -4  -2  10 4284.87 242.231  15 
  -4  -2  10 4880.16 300.727  13 
  -4  -2  10 5074.88 286.022  32 
   4   2 -10 4903.45 205.056  23 
  -4  -2  11 1291.68 114.533  15 
  -4  -2  11 1365.94 139.669  13 
  -4  -2  11 1379.46 134.871  32 
   4   2 -11 1369.88 95.4556  23 
  -4  -2  12 1292.99 108.618  13 
  -4  -2  12 1337.11 107.507  32 
   4   2 -12 1289.78 78.2767  23 
  -5  -3 -15 32.4254 20.3246  16 
   5   3  15 21.4667 15.2405  33 
  -5  -3 -14 987.356 90.0203  16 
  -5  -3 -14 1045.41 79.0215  23 
  -5  -3 -13 740.822 83.3473  16 
  -5  -3 -13 545.753 62.9113  23 
  -5  -3 -12 155.808 30.0538  16 
  -5  -3 -12 189.861 44.3123  23 
  -5  -3 -11 15520.0 416.492  16 
  -5  -3 -11 14384.2 382.810  23 
  -5  -3 -10 2734.24 272.940  12 
  -5  -3 -10 3003.32 186.877  16 
  -5  -3 -10 2444.38 234.659  19 
  -5  -3 -10 3019.42 173.016  23 
  -5  -3  -9 259.186 70.3485  12 
  -5  -3  -9 249.583 60.1750  16 
  -5  -3  -9 246.448 53.9358  23 
  -5  -3  -9 151.757 83.0219  19 
  -5  -3  -8 857.158 171.277  12 
  -5  -3  -8 697.261 91.3786  16 
   5   3   8 311.238 180.544  30 
  -5  -3  -8 708.666 87.7355  23 
  -5  -3  -8 729.402 150.903  19 
  -5  -3  -7 56.8051 50.5282  12 
  -5  -3  -7 36.7221 23.1697  16 
  -5  -3  -7 346.819 200.249   2 
  -5  -3  -7 392.388 141.938   5 
  -5  -3  -7-332.557 175.031   4 
  -5  -3  -7 1.77978 15.2801   6 
  -5  -3  -7-39.1036 33.1298   7 
   5   3   7-195.927 141.254  30 
  -5  -3  -7-45.5427 69.7034  19 
  -5  -3  -7-38.8917 31.6694  23 
  -5  -3  -6 48.0175 36.9887  18 
  -5  -3  -6 33.5279 43.5436  12 
  -5  -3  -6-9.31578 24.4954  16 
  -5  -3  -6-38.8935 72.7523   4 
  -5  -3  -6 147.033 84.9570   8 
  -5  -3  -6 17.7479 24.9456   6 
  -5  -3  -6-83.7305 91.0026   5 
  -5  -3  -6-52.2945 37.1752   7 
  -5  -3  -6-200.058 151.174   2 
   5   3   6 27.4116 67.6870  30 
  -5  -3  -6-4.98110 38.0726  19 
  -5  -3  -5 4602.12 207.486  18 
  -5  -3  -5 4672.38 212.551  16 
  -5  -3  -5 4614.63 701.452   2 
  -5  -3  -5 4421.32 193.207   7 
  -5  -3  -5 4088.66 316.516   5 
  -5  -3  -5 4295.21 324.878   8 
  -5  -3  -5 3964.49 257.197   6 
  -5  -3  -5 4150.02 611.276   4 
   5   3   5 3736.14 525.423  30 
  -5  -3  -5 4232.97 264.339  22 
  -5  -3  -4 2605.69 146.624  16 
  -5  -3  -4 2388.10 505.338   2 
  -5  -3  -4 2477.02 140.708   7 
  -5  -3  -4 2190.62 193.038   6 
  -5  -3  -4 2160.44 221.551   5 
  -5  -3  -4 2304.21 229.347   8 
  -5  -3  -4 2771.11 341.344   9 
  -5  -3  -4 2274.74 440.259   4 
   5   3   4 2466.68 341.644  28 
   5   3   4 2236.95 410.787  30 
  -5  -3  -4 1956.43 199.969  19 
  -5  -3  -4 2258.89 195.149  22 
  -5  -3  -3 1861.47 125.494  16 
  -5  -3  -3 1916.22 183.371   6 
  -5  -3  -3 2157.24 470.979   2 
  -5  -3  -3 1986.17 203.965   8 
  -5  -3  -3 2104.26 280.186   9 
  -5  -3  -3 1570.99 179.420   5 
  -5  -3  -3 2003.71 121.070   7 
  -5  -3  -3 1942.82 415.386   4 
   5   3   3 1849.89 290.381  28 
  -5  -3  -3 1893.93 175.743  22 
  -5  -3  -3 1400.41 161.280  19 
  -5  -3  -2 895.720 78.9122  16 
  -5  -3  -2 958.510 275.727   4 
  -5  -3  -2 554.587 245.833   2 
  -5  -3  -2 849.830 175.276   9 
  -5  -3  -2 838.226 126.548   8 
  -5  -3  -2 620.251 103.644   5 
  -5  -3  -2 852.739 122.300   6 
  -5  -3  -2 955.865 83.0775   7 
   5   3   2 561.762 158.853  28 
  -5  -3  -2 857.473 119.282  22 
  -5  -3  -2 527.130 90.7434  19 
  -5  -3  -1 201.380 63.5890  13 
  -5  -3  -1 193.782 33.7128  18 
  -5  -3  -1 138.157 29.9378  16 
  -5  -3  -1 107.291 46.3598   5 
  -5  -3  -1 170.978 112.937   4 
  -5  -3  -1 172.489 65.8683   8 
  -5  -3  -1 209.194 63.9751   6 
  -5  -3  -1 207.382 153.977   2 
  -5  -3  -1 294.435 107.589   9 
  -5  -3  -1 189.166 41.2153   7 
   5   3   1 158.893 88.1946  28 
  -5  -3  -1 205.417 64.4433  19 
  -5  -3  -1 167.904 47.2465  22 
   5   3   1 188.211 115.331  24 
  -5  -3   0 6712.65 207.188  18 
  -5  -3   0 6563.59 208.249  16 
  -5  -3   0 6241.61 324.499  13 
  -5  -3   0 6738.14 348.214   6 
  -5  -3   0 6998.87 885.301   2 
  -5  -3   0 5657.49 352.326   8 
  -5  -3   0 5240.13 335.358   5 
  -5  -3   0 7097.44 538.424   9 
  -5  -3   0 6844.10 227.693   7 
  -5  -3   0 7096.57 809.521   4 
   5   3   0 7180.36 576.521  28 
  -5  -3   0 6695.39 347.867  22 
  -5  -3   0 5671.07 351.852  19 
   5   3   0 6744.97 703.910  24 
  -5  -3   1 8555.31 236.157  18 
  -5  -3   1 8289.68 238.580  16 
  -5  -3   1 8238.36 396.120  13 
  -5  -3   1 8703.68 393.635   6 
  -5  -3   1 8422.14 966.208   2 
  -5  -3   1 7764.80 400.312   8 
  -5  -3   1 6623.11 378.954   5 
  -5  -3   1 8914.70 260.101   7 
  -5  -3   1 8840.93 628.005   9 
  -5  -3   1 9127.05 920.576   4 
   5   3  -1 9384.24 671.134  28 
  -5  -3   1 8879.88 409.158  22 
   5   3  -1 8940.97 612.562  26 
   5   3  -1 8189.33 812.730  24 
  -5  -3   2 5665.17 342.645  13 
  -5  -3   2 5723.89 198.703  18 
  -5  -3   2 6305.29 217.799  16 
  -5  -3   2 5622.99 307.857   6 
  -5  -3   2 5455.23 776.430   2 
  -5  -3   2 5768.46 530.371   9 
  -5  -3   2 5169.03 333.230   5 
  -5  -3   2 5840.27 203.667   7 
  -5  -3   2 6105.40 750.757   4 
   5   3  -2 5560.41 539.786  28 
  -5  -3   2 6026.32 338.382  22 
   5   3  -2 6236.56 524.620  26 
   5   3  -2 5506.01 686.380  24 
  -5  -3   3 1866.38 117.307  18 
  -5  -3   3 2019.36 211.374  13 
  -5  -3   3 2075.12 332.874   9 
   5   3  -3 1871.76 323.645  28 
  -5  -3   3 2154.17 199.096  22 
   5   3  -3 2142.49 318.641  26 
   5   3  -3 1910.70 422.876  24 
  -5  -3   4 2646.80 140.376  18 
  -5  -3   4 2736.80 252.548  13 
  -5  -3   4 2756.63 216.917  22 
  -5  -3   5 1482.70 108.972  18 
  -5  -3   5 1576.06 197.595  13 
  -5  -3   6 123.832 58.2669  13 
  -5  -3   6 150.709 36.6533  18 
   5   3  -6 128.585 37.6042  23 
  -5  -3   7 3592.51 169.328  18 
  -5  -3   7 3815.92 295.332  13 
   5   3  -7 3368.09 179.044  23 
  -5  -3   8 121.693 57.4770  13 
  -5  -3   8 55.4645 25.2937  18 
   5   3  -8 104.507 32.9486  23 
  -5  -3   9 2727.45 213.712  13 
  -5  -3   9 2831.71 181.954  32 
   5   3  -9 2733.65 141.218  23 
  -5  -3  10 282.494 60.6417  13 
   5   3 -10 221.171 31.9734  17 
   5   3 -10 221.461 41.5864  23 
  -5  -3  11 75.5119 26.4201  13 
  -6  -4 -14 173.622 24.6014  16 
   6   4  14 206.569 44.2638  33 
  -6  -4 -13 459.320 59.8046  16 
   6   4  13 382.608 68.3779  33 
  -6  -4 -12 3.18627 22.7970  16 
  -6  -4 -11 6088.61 241.772  16 
  -6  -4 -11 5041.76 276.680  19 
  -6  -4 -10 3056.74 176.491  16 
  -6  -4 -10 3184.57 249.805  19 
  -6  -4  -9 450.651 75.0923  16 
  -6  -4  -9 782.334 131.328  19 
  -6  -4  -8 158.028 49.6784   6 
  -6  -4  -8 194.554 40.3570   7 
  -6  -4  -8 178.259 47.0103  18 
  -6  -4  -8 193.297 53.7101  16 
  -6  -4  -8 251.213 102.927  19 
  -6  -4  -7 4355.85 185.519   7 
  -6  -4  -7 4325.32 209.645  18 
  -6  -4  -7 4419.90 218.720  16 
  -6  -4  -6 19849.0 616.965   6 
  -6  -4  -6 22280.7 438.000   7 
  -6  -4  -6 24848.0 492.402  18 
  -6  -4  -6 27002.4 531.283  16 
  -6  -4  -6 23323.7 645.005  22 
  -6  -4  -5 83.1961 54.1120   6 
  -6  -4  -5 29.9322 29.5955   7 
  -6  -4  -5 32.0903 21.8279  18 
  -6  -4  -5 15.7742 31.3762  16 
  -6  -4  -5 50.2558 47.9230  19 
  -6  -4  -5 49.8794 41.6357  22 
  -6  -4  -4 257.074 72.1203   6 
  -6  -4  -4 303.617 57.0682   7 
  -6  -4  -4 317.054 48.7547  18 
  -6  -4  -4 251.852 37.4908  16 
  -6  -4  -4 60.7640 81.9883  19 
  -6  -4  -4 283.929 73.8502  22 
  -6  -4  -3 2365.55 224.594   6 
  -6  -4  -3 2367.06 148.710   7 
  -6  -4  -3 2536.27 143.342  18 
  -6  -4  -3 2618.77 148.172  16 
  -6  -4  -3 2235.95 219.326  22 
  -6  -4  -3 2732.54 258.906  19 
  -6  -4  -2 2730.42 247.149   6 
  -6  -4  -2 2580.78 155.116   7 
  -6  -4  -2 3049.09 154.907  16 
  -6  -4  -2 2505.96 209.897  13 
  -6  -4  -2 2884.31 150.327  18 
  -6  -4  -2 2755.71 243.656  22 
  -6  -4  -1 4424.84 312.761   6 
  -6  -4  -1 4719.32 207.095   7 
  -6  -4  -1 4844.11 194.647  18 
  -6  -4  -1 4509.58 193.689  16 
  -6  -4  -1 4200.94 275.388  13 
  -6  -4  -1 4412.73 314.557  22 
  -6  -4   0 65.8033 43.1399   6 
  -6  -4   0-12.0741 42.7839   7 
  -6  -4   0 55.5682 38.7289  13 
  -6  -4   0 35.1531 22.8997  18 
  -6  -4   0 26.4056 37.0901  16 
  -6  -4   0 31.1693 36.7061  22 
  -6  -4   1 1319.61 159.183   6 
  -6  -4   1 1382.72 105.851   7 
  -6  -4   1 1447.56 106.236  18 
  -6  -4   1 1294.54 166.409  13 
  -6  -4   1 1481.76 177.113  22 
  -6  -4   2 98.7125 43.9642   6 
  -6  -4   2 155.868 36.5479   7 
  -6  -4   2 76.3658 33.6485  13 
  -6  -4   2 123.052 30.9359  18 
  -6  -4   2 204.969 62.5072  22 
  -6  -4   3 3557.30 162.998  18 
  -6  -4   3 3290.26 271.692  13 
  -6  -4   3 3922.04 270.261  22 
  -6  -4   4 404.849 96.7298  13 
  -6  -4   4 524.916 64.5245  18 
  -6  -4   4 569.019 100.461  22 
  -6  -4   5 656.727 69.5401  18 
  -6  -4   5 639.460 116.071  13 
   6   4  -5 624.407 75.9241  23 
  -6  -4   6-12.5096 36.5764  13 
  -6  -4   6-6.66803 18.7464  18 
   6   4  -6-56.4297 35.7212  23 
  -6  -4   7 60.7660 38.7151  13 
  -6  -4   7-9.02123 20.6082  18 
   6   4  -7-3.86794 26.8812  23 
  -6  -4   8 105.770 34.2005  13 
   6   4  -8 71.9025 16.5072  23 
  -7  -5 -12 813.587 60.6208  16 
  -7  -5 -11 4784.91 163.534  16 
  -7  -5 -10 458.454 57.2616  16 
  -7  -5 -10 8528.45 334.100  19 
  -7  -5  -9 1461.22 106.347  16 
  -7  -5  -9 8826.99 371.330  19 
  -7  -5  -8 802.808 103.241   6 
  -7  -5  -8 829.877 69.7668   7 
  -7  -5  -8 1000.38 93.8707  16 
  -7  -5  -8 846.316 80.1393  18 
  -7  -5  -7 39.5834 30.6907   6 
  -7  -5  -7 18.2100 19.8998   7 
  -7  -5  -7 12.6981 16.4819  18 
  -7  -5  -7-37.3534 27.2095  16 
  -7  -5  -6 140.338 56.8638   6 
  -7  -5  -6 138.336 39.5717   7 
  -7  -5  -6 122.660 33.3845  18 
  -7  -5  -6 144.299 48.1689  16 
  -7  -5  -6 81.7114 29.9538  22 
  -7  -5  -5 138.612 58.5619   6 
  -7  -5  -5 120.247 36.7288   7 
  -7  -5  -5 136.990 39.0604  18 
  -7  -5  -5 172.849 47.1587  16 
  -7  -5  -5 187.325 67.6672  22 
  -7  -5  -4 188.044 75.1062   6 
  -7  -5  -4 120.927 33.7588   7 
  -7  -5  -4 156.892 36.5602  18 
  -7  -5  -4 223.369 50.7758  16 
  -7  -5  -4 118.877 58.5048  22 
  -7  -5  -3 1279.92 164.516   6 
  -7  -5  -3 1269.65 107.746   7 
  -7  -5  -3 1257.89 97.0111  18 
  -7  -5  -3 1318.44 103.101  16 
  -7  -5  -3 1299.28 165.941  22 
  -7  -5  -2 33.2561 32.2660   6 
  -7  -5  -2 28.8627 28.8121   7 
  -7  -5  -2 27.4436 21.8041  18 
  -7  -5  -2 88.2520 56.9521  22 
  -7  -5  -1 474.516 101.616   6 
  -7  -5  -1 547.196 68.9775   7 
  -7  -5  -1 520.806 62.4816  18 
  -7  -5  -1 615.289 120.710  22 
  -7  -5   0 8937.73 264.266   7 
  -7  -5   0 9305.51 256.874  18 
  -7  -5   0 9748.94 446.495  22 
  -7  -5   1 52.4493 29.7245   6 
  -7  -5   1 113.100 29.2536   7 
  -7  -5   1 123.957 44.1553  13 
  -7  -5   1 58.6534 19.1961  18 
  -7  -5   1 103.670 55.2083  22 
  -7  -5   2 542.988 79.0373   6 
  -7  -5   2 607.178 55.9150   7 
  -7  -5   2 716.201 66.5418  18 
  -7  -5   2 607.063 92.5670  13 
  -7  -5   2 721.482 105.389  22 
  -7  -5   3 978.696 76.4971  18 
  -7  -5   3 878.108 107.456  13 
  -7  -5   3 934.856 109.728  22 
  -7  -5   4 2377.12 165.086  13 
  -7  -5   4 2717.11 118.172  18 
  -7  -5   4 2505.83 156.469  22 
   7   5  -4 2279.12 125.145  23 
  -7  -5   5 781.020 58.6575  18 
  -7  -5   5 809.843 86.5903  13 
   7   5  -5 706.937 62.3831  23 
  -7  -5   6 232.049 27.7014  18 
   7   5  -6 225.793 28.3621  23 
  -8  -6  -8 17.7815 21.5220  16 
  -8  -6  -7 2311.50 149.036   6 
  -8  -6  -7 2846.72 114.762  16 
  -8  -6  -6 620.319 87.3861   6 
  -8  -6  -6 669.722 58.6726   7 
  -8  -6  -5-0.07743 26.7535   6 
  -8  -6  -5-28.4550 24.0507   7 
  -8  -6  -5 41.6654 14.9411  18 
  -8  -6  -5 89.3046 33.6354  16 
  -8  -6  -5 77.7936 32.9741  22 
  -8  -6  -4 4372.87 240.297   6 
  -8  -6  -4 4887.21 164.492   7 
  -8  -6  -4 4615.77 143.611  18 
  -8  -6  -4 4691.37 249.515  22 
  -8  -6  -3 140.276 46.4328   6 
  -8  -6  -3 137.864 31.5687   7 
  -8  -6  -3 143.416 22.6609  18 
  -8  -6  -3 106.434 40.4033  22 
  -8  -6  -2 5.83582 21.4974   6 
  -8  -6  -2-0.73170 18.4877   7 
  -8  -6  -2-43.2523 24.0553  18 
  -8  -6  -2-7.68407 25.4000  22 
  -8  -6  -1 88.7082 36.0150   6 
  -8  -6  -1 68.2241 21.3007   7 
  -8  -6  -1 65.0025 16.5897  18 
  -8  -6  -1 46.9222 26.2936  22 
  -8  -6   0 814.102 88.0530   6 
  -8  -6   0 979.682 60.9627   7 
  -8  -6   0 1030.04 63.6253  18 
  -8  -6   0 992.229 106.354  22 
  -8  -6   1 28.4150 18.4323  22 
   6   9  -2 367.845 39.0844  31 
  -6  -9   2 293.537 48.0657  22 
  -6  -9   1 313.996 51.7648   6 
  -6  -9   1 431.279 41.0806   7 
   6   9  -1 374.849 43.7236  31 
  -6  -9   1 335.076 55.2398  22 
  -6  -9   0 2402.10 85.4625  18 
  -6  -9   0 1709.86 133.253   6 
  -6  -9   0 2432.87 103.002   7 
   6   9   0 2470.35 115.171  31 
  -6  -9   0 1912.17 136.863  22 
  -6  -9  -1 648.229 46.9263  18 
  -6  -9  -1 524.613 76.2060   6 
  -6  -9  -1 628.150 55.9630   7 
   6   9   1 507.059 54.4037  31 
  -6  -9  -1 541.584 76.2813  22 
  -6  -9  -2 1023.43 60.4665  18 
  -6  -9  -2 804.560 96.4959   6 
  -6  -9  -2 1154.97 76.6784   7 
   6   9   2 966.138 76.2568  31 
  -6  -9  -2 737.467 84.8200  22 
  -6  -9  -3 159.954 22.6339  18 
  -6  -9  -3 136.194 40.8146   6 
  -6  -9  -3 269.599 39.5555   7 
   6   9   3 189.763 38.0330  31 
   6   9   3 149.041 34.4901  34 
  -6  -9  -3 64.4757 17.9136  22 
  -6  -9  -4 198.820 27.0367  18 
   6   9   4 261.919 48.5801  34 
   6   9   4 220.845 38.1922  31 
  -6  -9  -4 135.028 39.2241   6 
  -6  -9  -4 229.210 33.5771   7 
  -6  -9  -5 308.689 33.5053  18 
   6   9   5 374.527 57.2532  34 
  -6  -9  -5 199.642 44.5064   6 
  -6  -9  -5 267.990 29.8167   7 
  -6  -9  -6 14.8944 10.2109  18 
   6   9   6 36.3490 22.7999  34 
  -5  -8   6 2.39642 11.4625  14 
   5   8  -6-9.46303 14.0876  31 
  -5  -8   5 295.313 37.1545  14 
  -5  -8   5 312.021 32.3511  18 
   5   8  -5 266.486 40.5292  31 
  -5  -8   5 295.851 58.1309  22 
  -5  -8   4 181.797 28.4719  18 
  -5  -8   4 159.567 28.1658  14 
   5   8  -4 177.971 40.8162  31 
  -5  -8   4 154.856 52.8901  22 
  -5  -8   3 1564.70 99.3601  14 
  -5  -8   3 1704.50 91.0671  18 
  -5  -8   3 1346.87 141.543   6 
  -5  -8   3 1623.16 104.146   7 
   5   8  -3 1681.41 125.379  31 
  -5  -8   3 1560.90 167.505  22 
  -5  -8   2 380.049 52.2073  14 
  -5  -8   2 417.467 48.0787  18 
  -5  -8   2 414.715 94.1617   6 
  -5  -8   2 360.797 55.0711   7 
   5   8  -2 383.292 61.9936  31 
  -5  -8   2 369.910 82.8746  22 
  -5  -8   1 282.005 42.8936  14 
  -5  -8   1 279.447 39.6651  18 
  -5  -8   1 186.498 65.7273   6 
  -5  -8   1 281.429 53.1921   7 
   5   8  -1 223.683 52.2584  31 
   5   8  -1 302.516 70.8069  34 
  -5  -8   1 229.903 65.6155  22 
  -5  -8   0 1163.84 87.2451  18 
  -5  -8   0 972.229 151.598   6 
  -5  -8   0 1218.04 111.112   7 
   5   8   0 1075.48 140.185  34 
   5   8   0 1054.70 113.926  31 
  -5  -8   0 870.316 140.793  22 
  -5  -8  -1 9197.18 247.302  18 
  -5  -8  -1 7379.65 423.868   6 
  -5  -8  -1 9437.23 307.929   7 
   5   8   1 8666.28 402.223  34 
  -5  -8  -1 7918.78 403.998  22 
  -5  -8  -2 1531.55 102.806  18 
  -5  -8  -2 1436.24 106.763  17 
  -5  -8  -2 1215.95 181.094   6 
  -5  -8  -2 1545.33 126.698   7 
   5   8   2 1349.15 161.379  34 
  -5  -8  -2 1202.72 164.577  22 
  -5  -8  -3 1508.15 104.600  18 
  -5  -8  -3 1403.81 107.205  17 
  -5  -8  -3 1101.74 176.303   6 
  -5  -8  -3 1456.57 119.783   7 
   5   8   3 1232.27 152.546  34 
  -5  -8  -3 1168.41 147.712  22 
  -5  -8  -4 8387.56 250.072  18 
  -5  -8  -4 8427.58 253.642  17 
  -5  -8  -4 7038.54 405.708   6 
  -5  -8  -4 7957.16 268.415   7 
   5   8   4 7757.45 397.637  34 
  -5  -8  -4 6700.26 331.384  22 
  -5  -8  -5 4931.11 194.822  18 
  -5  -8  -5 4903.72 186.197  17 
   5   8   5 4492.96 294.892  34 
  -5  -8  -5 4494.27 190.201   7 
  -5  -8  -6 139.504 31.0299  17 
  -5  -8  -6 110.755 24.9924  18 
   5   8   6 99.1630 37.6546  34 
  -5  -8  -6 185.424 55.9636   6 
  -5  -8  -6 132.813 33.2435   7 
  -5  -8  -7 458.457 62.5270  18 
  -5  -8  -7 586.297 63.1633  17 
   5   8   7 563.281 99.7046  34 
  -5  -8  -8 100.929 29.0629  18 
  -5  -8  -8 55.7354 25.4122  17 
   5   8   8 53.0680 35.0731  34 
  -5  -8  -9 2182.72 93.8335  17 
  -5  -8  -9 2060.66 104.250  18 
   5   8   9 2292.41 181.305  34 
  -5  -8 -10 2442.65 101.349  18 
   5   8  10 2833.24 177.254  34 
   4   7  -9 127.589 43.0139  12 
   4   7  -9 56.0196 19.8169  31 
  -4  -7   8 153.541 30.8147  14 
   4   7  -8 108.026 28.3234  31 
  -4  -7   7 111.059 28.6165  14 
   4   7  -7 89.7260 35.4674  31 
  -4  -7   6 7500.07 237.966  14 
  -4  -7   6 7196.07 193.993  18 
   4   7  -6 7318.23 258.749  31 
  -4  -7   6 6770.00 333.243  22 
  -4  -7   5 117.291 33.9443  14 
  -4  -7   5 95.9533 23.5548  18 
   4   7  -5 93.8101 37.8679  31 
  -4  -7   5 113.573 37.0512  22 
  -4  -7   4 5828.77 227.076  14 
  -4  -7   4 6213.69 196.650  18 
  -4  -7   4 5399.20 328.464   6 
  -4  -7   4 5830.80 227.251   7 
   4   7  -4 5787.25 257.821  31 
  -4  -7   4 6122.38 374.806  22 
  -4  -7   3 4500.35 171.402  18 
  -4  -7   3 4062.61 192.699  14 
  -4  -7   3 4053.39 306.372   6 
  -4  -7   3 4253.02 206.647   7 
   4   7  -3 3969.00 225.880  31 
   4   7  -3 4384.53 299.030  34 
  -4  -7   3 4254.93 328.600  22 
  -4  -7   2 14152.5 310.373  18 
  -4  -7   2 12967.0 344.806  14 
   4   7  -2 12732.5 392.461  31 
   4   7  -2 13363.6 540.143  34 
  -4  -7   2 12551.7 582.378   6 
  -4  -7   2 13099.0 390.457   7 
  -4  -7   1 1548.35 107.330  18 
  -4  -7   1 1540.41 119.509  14 
  -4  -7   1 1493.16 110.905  17 
   4   7  -1 1617.55 188.870  34 
  -4  -7   1 1373.17 207.092   6 
  -4  -7   1 1438.17 135.485   7 
  -4  -7   0 2637.07 143.557  18 
  -4  -7   0 2486.84 139.667  17 
  -4  -7   0 2238.54 142.152  14 
   4   7   0 2452.22 232.094  34 
  -4  -7   0 2265.66 265.763   6 
  -4  -7   0 2457.33 181.306   7 
  -4  -7  -1 237.869 41.8074  18 
  -4  -7  -1 260.230 48.4248  17 
  -4  -7  -1 258.982 62.8545   7 
  -4  -7  -1 315.137 112.039   6 
   4   7   1 285.980 74.3341  34 
  -4  -7  -2 16644.6 375.553  18 
  -4  -7  -2 16741.6 373.607  17 
  -4  -7  -2 14722.4 676.045   6 
  -4  -7  -2 16154.3 444.550   7 
   4   7   2 15747.3 609.381  34 
  -4  -7  -2 14527.2 623.489  22 
  -4  -7  -3 4207.37 189.938  17 
  -4  -7  -3 4414.56 201.417  18 
  -4  -7  -3 3883.16 342.822   6 
  -4  -7  -3 4051.53 225.889   7 
   4   7   3 4306.48 325.705  34 
  -4  -7  -3 4129.39 313.451  22 
  -4  -7  -4-0.27045 32.4819   7 
  -4  -7  -4 78.6051 71.4202   6 
  -4  -7  -4 77.3103 41.7550  18 
  -4  -7  -4 46.3035 36.9772  17 
  -4  -7  -4 16.3556 26.8500  22 
  -4  -7  -5 1293.13 120.298  18 
  -4  -7  -5 1344.20 113.397  17 
  -4  -7  -5 1324.55 190.726   6 
  -4  -7  -5 1143.21 108.754   7 
  -4  -7  -6 1420.38 124.765  18 
  -4  -7  -6 1319.98 102.311  17 
  -4  -7  -6 1358.67 173.438   6 
  -4  -7  -6 1258.48 107.076   7 
  -4  -7  -7 3525.31 171.438  17 
  -4  -7  -7 3735.05 201.394  18 
   4   7   7 3204.52 202.597  33 
  -4  -7  -8 1123.97 105.108  18 
  -4  -7  -8 813.777 78.1624  17 
   4   7   8 1131.50 122.884  33 
  -4  -7  -9 69.1085 36.8417  18 
  -4  -7  -9 128.767 33.5993  17 
   4   7   9 101.009 40.0104  33 
  -4  -7 -10 26.8829 25.8693  18 
  -4  -7 -10 14.4843 18.3692  17 
   4   7  10 46.9888 29.7975  33 
  -4  -7 -11 161.858 32.2374  18 
   4   7  11 158.391 40.1352  33 
  -4  -7 -12 739.595 61.0911  18 
   4   7  12 838.538 79.2916  33 
   4   7  12 973.897 101.681  34 
   3   6 -11 436.124 69.1231  12 
  -3  -6  11 355.580 55.6280  13 
   3   6 -11 291.929 41.3712  31 
  -3  -6  11 264.161 46.4268  32 
  -3  -6  10 527.075 52.1074  14 
   3   6 -10 581.182 97.9968  12 
  -3  -6  10 489.251 75.4212  13 
   3   6 -10 552.818 67.8609  31 
  -3  -6  10 416.733 61.6356  32 
  -3  -6   9 2702.60 131.951  14 
  -3  -6   9 2403.68 179.206  13 
   3   6  -9 3286.81 172.674  31 
  -3  -6   9 2933.63 202.398  32 
  -3  -6   8 233.563 43.8755  14 
  -3  -6   8 216.796 58.7897  13 
   3   6  -8 282.831 57.2665  31 
  -3  -6   7 161.333 39.7297  14 
   3   6  -7 123.202 44.9206  31 
  -3  -6   7 135.365 51.8538  22 
  -3  -6   6 8801.58 275.641  14 
  -3  -6   6 9011.93 239.380  18 
   3   6  -6 8768.51 320.506  31 
  -3  -6   5 284.881 45.6216  18 
  -3  -6   5 292.774 51.6471  14 
   3   6  -5 266.073 86.5216  34 
   3   6  -5 235.682 63.9312  31 
  -3  -6   4 2086.83 138.254  14 
  -3  -6   4 2027.35 115.875  18 
  -3  -6   4 2125.24 220.249   6 
  -3  -6   4 1956.18 142.376   7 
   3   6  -4 2034.04 154.520  31 
   3   6  -4 2104.29 215.086  34 
   3   6  -4 1882.26 457.403  24 
  -3  -6   3 476.793 68.3905  14 
  -3  -6   3 468.092 53.6992  18 
  -3  -6   3 397.162 220.829   2 
  -3  -6   3 429.105 219.078   4 
  -3  -6   3 65.9422 72.8340   1 
  -3  -6   3 368.867 60.7885   7 
   3   6  -3 490.359 84.1918  31 
   3   6  -3 448.390 96.7290  34 
   3   6  -3 303.478 175.078  24 
  -3  -6   2 1465.59 100.560  18 
  -3  -6   2 1441.73 117.753  14 
  -3  -6   2 1333.65 95.5772  17 
  -3  -6   2 1136.07 354.186   2 
  -3  -6   2 699.210 310.257   1 
  -3  -6   2 1048.46 344.879   4 
  -3  -6   2 1375.91 129.408   7 
   3   6  -2 1490.57 176.674  34 
   3   6  -2 1385.81 376.937  24 
  -3  -6   1 762.961 83.3230  14 
  -3  -6   1 711.592 68.9595  17 
  -3  -6   1 772.305 72.7283  18 
  -3  -6   1 1030.27 348.368   4 
  -3  -6   1 349.387 219.253   1 
  -3  -6   1 688.325 97.6395   7 
  -3  -6   1 649.434 305.560   2 
   3   6  -1 818.658 126.638  34 
   3   6  -1 814.868 279.530  24 
  -3  -6   0 5.98261 18.1441  17 
  -3  -6   0 12.9209 15.2907  14 
  -3  -6   0-8.99482 14.9961  18 
  -3  -6   0 39.1609 83.7736   4 
  -3  -6   0-16.7199 19.8729   7 
  -3  -6   0 31.3545 111.930   1 
  -3  -6   0 64.4672 162.375   2 
   3   6   0 3.71283 28.6085  34 
   3   6   0-63.9531 85.5524  30 
   3   6   0-121.218 117.859  24 
  -3  -6  -1 189.440 37.0676  18 
  -3  -6  -1 168.809 32.4069  17 
  -3  -6  -1 138.243 36.1682  14 
  -3  -6  -1 149.588 53.0358   7 
  -3  -6  -1 355.657 209.714   4 
  -3  -6  -1 436.492 249.164   1 
  -3  -6  -1 191.686 170.311   2 
   3   6   1 435.982 130.637  28 
   3   6   1 159.997 61.9473  34 
   3   6   1-46.8472 74.9157  30 
   3   6   1 164.474 148.277  24 
  -3  -6  -2 418.224 61.0264  18 
  -3  -6  -2 459.503 57.5307  17 
  -3  -6  -2 79.2624 111.915   2 
  -3  -6  -2 345.741 64.5748   7 
  -3  -6  -2 3.38706 49.6078   1 
  -3  -6  -2 285.734 188.105   4 
   3   6   2 279.675 106.593  28 
   3   6   2 293.597 171.906  30 
   3   6   2 536.457 161.596  24 
  -3  -6  -3 1804.14 114.843  17 
  -3  -6  -3 1964.57 129.725  18 
  -3  -6  -3 2159.61 506.875   4 
  -3  -6  -3 1503.08 452.225   1 
  -3  -6  -3 1564.09 136.055   7 
  -3  -6  -3 1547.59 452.217   2 
   3   6   3 1477.71 242.027  28 
   3   6   3 1457.52 359.374  30 
   3   6   3 1585.59 379.156  24 
  -3  -6  -4 500.754 62.0890  17 
  -3  -6  -4 516.888 69.4863  18 
   3   6   4 465.103 212.596  30 
  -3  -6  -4 962.974 343.023   4 
  -3  -6  -4 737.386 301.959   1 
  -3  -6  -4 587.459 297.311   2 
  -3  -6  -4 449.044 72.4018   7 
  -3  -6  -5 28304.6 530.285  18 
  -3  -6  -5 26854.4 449.375  17 
  -3  -6  -5 25369.9 1775.64   2 
  -3  -6  -5 24743.2 1771.01   1 
  -3  -6  -5 25674.9 490.453   7 
  -3  -6  -5 24892.0 1658.48   4 
   3   6   5 25275.2 601.338  33 
   3   6   5 25802.4 1623.73  30 
  -3  -6  -6 4417.98 191.820  17 
   3   6   6 4052.10 251.722  33 
   3   6   6 4328.90 694.576  30 
  -3  -6  -6 3624.68 152.725  23 
   3   6   7 19618.1 572.622  33 
  -3  -6  -7 18612.8 339.945  23 
  -3  -6  -8 810.265 80.9281  17 
   3   6   8 824.909 123.183  33 
  -3  -6  -8 773.083 72.1943  23 
  -3  -6  -9 2209.58 130.151  17 
   3   6   9 2241.69 197.332  33 
   3   6   9 2212.34 176.904  21 
  -3  -6  -9 2195.18 120.074  23 
  -3  -6 -10 449.615 59.2578  17 
   3   6  10 612.760 102.939  33 
   3   6  10 509.242 85.5637  21 
  -3  -6 -10 454.543 55.3892  23 
  -3  -6 -11 418.058 51.5919  17 
   3   6  11 468.925 83.2338  33 
   3   6  11 528.043 82.7439  21 
  -3  -6 -11 447.136 52.1406  23 
   3   6  12 3484.98 210.289  33 
   3   6  12 3417.46 187.773  21 
  -3  -6 -12 3359.36 126.721  23 
  -3  -6 -13 9865.66 243.927  18 
   3   6  13 10000.9 309.796  33 
   3   6  13 9866.71 274.696  21 
  -3  -6 -14 1611.55 78.6340  18 
  -2  -5  13 118.653 33.9032  13 
   2   5 -13 156.239 31.1188  31 
  -2  -5  13 157.291 36.0520  32 
  -2  -5  12 28.9038 19.9440  13 
   2   5 -12 61.1475 25.2141  31 
  -2  -5  12 36.8496 29.8279  32 
   2   5 -11 325.613 80.0555  12 
  -2  -5  11 308.490 40.0998  14 
  -2  -5  11 202.637 63.6213  13 
   2   5 -11 284.750 51.7858  31 
  -2  -5  11 247.120 64.6682  32 
  -2  -5  10 465.608 97.1953  13 
  -2  -5  10 482.252 54.3477  14 
   2   5 -10 508.626 74.5260  31 
  -2  -5  10 529.934 102.139  32 
  -2  -5   9 1410.70 102.537  14 
   2   5  -9 1412.42 132.782  31 
  -2  -5   9 1354.38 169.434  32 
  -2  -5   8 10636.3 288.691  14 
  -2  -5   8 10593.7 476.953  32 
  -2  -5   7 1206.31 95.9740  14 
   2   5  -7 982.683 109.748  31 
   2   5  -7 1323.22 176.500  34 
  -2  -5   7 1345.46 170.422  32 
   2   5  -7 1433.41 359.452  24 
  -2  -5   6 512.576 64.3171  14 
  -2  -5   6 573.377 106.541  32 
   2   5  -6 507.992 78.3164  31 
   2   5  -6 591.822 127.079  34 
   2   5  -6 561.237 121.189  20 
   2   5  -6 400.393 182.047  24 
  -2  -5   5 76.3363 29.4973  14 
   2   5  -5 47.9331 34.9658  34 
   2   5  -5 7.13926 23.7834  31 
  -2  -5   5 108.898 54.8074  32 
   2   5  -5 57.4582 57.1402  20 
   2   5  -5 153.262 47.2117  24 
  -2  -5   4 13720.4 321.681  14 
  -2  -5   4 11182.2 1011.75   2 
  -2  -5   4 11737.6 1036.26   1 
   2   5  -4 12908.4 362.623  31 
   2   5  -4 13475.8 725.938  28 
   2   5  -4 13227.9 1106.51  24 
  -2  -5   3 7171.85 833.762   1 
  -2  -5   3 6532.89 787.629   2 
   2   5  -3 7744.83 688.084  30 
   2   5  -3 8426.15 536.918  28 
   2   5  -3 8108.92 835.605  24 
  -2  -5   2 525.063 227.417   1 
  -2  -5   2 406.936 208.894   2 
   2   5  -2 627.146 134.107  28 
   2   5  -2 446.562 173.849  30 
   2   5  -2 553.924 232.769  24 
  -2  -5   1 9686.53 975.868   1 
  -2  -5   1 9852.78 978.453   2 
   2   5  -1 11806.9 855.287  30 
   2   5  -1 11600.3 574.961  28 
   2   5  -1 11668.8 945.604  24 
  -2  -5   0 3958.03 624.584   1 
  -2  -5   0 3757.16 606.631   2 
   2   5   0 5170.53 571.718  30 
   2   5   0 4791.90 364.563  28 
   2   5   0 4809.38 592.815  24 
  -2  -5  -1 22785.5 1512.85   1 
  -2  -5  -1 22694.1 1493.41   2 
   2   5   1 24870.7 1302.18  30 
   2   5   1 27043.3 1404.48  29 
   2   5   1 25180.6 824.415  28 
   2   5   1 25025.0 1320.86  24 
  -2  -5  -2 12213.8 553.092  10 
  -2  -5  -2 12015.9 1096.29   1 
  -2  -5  -2 12029.3 1086.72   2 
   2   5   2 12668.6 942.304  30 
   2   5   2 13007.9 951.803  29 
   2   5   2 13017.4 945.034  24 
  -2  -5  -3 4186.39 345.408  10 
  -2  -5  -3 4550.26 678.626   1 
  -2  -5  -3 4431.80 658.209   2 
   2   5   3 4305.88 560.394  30 
   2   5   3 4629.43 552.104  29 
   2   5   3 4331.06 526.898  24 
  -2  -5  -4 2767.11 302.973  10 
  -2  -5  -4 3378.76 566.685   1 
  -2  -5  -4 2684.98 503.331   2 
   2   5   4 2925.62 482.626  30 
   2   5   4 3109.69 450.755  29 
  -2  -5  -4 3010.06 365.919  25 
  -2  -5  -4 3142.25 345.232  26 
  -2  -5  -5 23559.0 387.512  17 
  -2  -5  -5 24992.7 1529.23   2 
  -2  -5  -5 23047.6 936.189  10 
  -2  -5  -5 23864.9 1499.14   1 
   2   5   5 23915.7 1285.91  29 
   2   5   5 24125.2 1452.16  30 
  -2  -5  -5 25263.2 1084.90  25 
  -2  -5  -5 24410.9 981.374  26 
  -2  -5  -6 7029.22 221.471  17 
   2   5   6 7416.77 840.431  30 
   2   5   6 7050.90 334.101  33 
  -2  -5  -6 7051.94 594.745  25 
   2   5   6 6497.15 300.909  21 
  -2  -5  -6 7310.71 554.627  26 
   2   5   7 4664.23 525.198  11 
  -2  -5  -7 5122.94 193.704  17 
   2   5   7 5529.75 308.683  33 
   2   5   7 5462.60 750.091  30 
  -2  -5  -7 4735.69 462.605  26 
  -2  -5  -7 5251.32 540.243  25 
   2   5   7 4968.06 276.059  21 
  -2  -5  -7 4590.26 162.573  23 
  -2  -5  -8 3672.69 165.152  17 
   2   5   8 3197.15 444.476  11 
   2   5   8 3642.91 264.188  33 
   2   5   8 4196.04 672.935  30 
  -2  -5  -8 3845.59 482.241  25 
   2   5   8 3642.30 246.068  21 
  -2  -5  -8 3244.25 141.145  23 
  -2  -5  -9 322.031 48.3571  17 
   2   5   9 317.876 77.7554  33 
   2   5   9 345.664 81.5054  21 
  -2  -5  -9 271.286 46.0931  23 
  -2  -5 -10 1250.60 97.3204  17 
   2   5  10 1450.41 165.839  33 
  -2  -5 -10 1257.83 92.9255  23 
   2   5  10 1298.03 153.818  21 
  -2  -5 -11 260.504 42.2691  17 
   2   5  11 326.719 72.8020  33 
   2   5  11 306.720 70.3530  21 
  -2  -5 -11 244.531 37.8162  23 
   2   5  12 101.731 39.3281  33 
   2   5  12 47.4804 31.7285  21 
  -2  -5 -12 45.5237 21.0002  23 
   2   5  13 453.701 76.9133  33 
   2   5  13 334.343 65.0991  21 
  -2  -5 -13 370.669 43.3572  23 
   2   5  14 2395.57 139.659  33 
   2   5  14 2399.19 148.483  21 
  -2  -5 -14 2307.29 86.4771  23 
  -1  -4  14 14.2674 17.4028  13 
   1   4 -14-28.9308 22.1035  31 
  -1  -4  14 10.9184 18.9102  32 
  -1  -4  13 105.796 44.2639  13 
   1   4 -13 119.547 34.8010  31 
  -1  -4  13 153.068 53.6147  32 
   1   4 -12 2557.51 221.753  12 
   1   4 -12 2516.73 159.992  31 
  -1  -4  12 2401.36 210.981  32 
   1   4 -11 3328.33 283.529  12 
   1   4 -11 3119.89 187.382  31 
  -1  -4  11 2749.29 240.389  32 
   1   4 -10 5487.97 372.701  12 
   1   4 -10 5704.59 250.433  31 
  -1  -4  10 4814.35 325.222  32 
  -1  -4   9 6975.97 217.666  14 
   1   4  -9 6859.76 280.956  31 
   1   4  -9 7329.03 429.721  34 
  -1  -4   9 6718.82 384.852  32 
  -1  -4   8 64.2911 26.1085  14 
  -1  -4   8 211.777 118.353  11 
  -1  -4   8 38.3214 41.9484  32 
   1   4  -8 79.9022 56.9277  34 
   1   4  -8 32.7356 40.9252  31 
  -1  -4   8-40.1692 44.9089  27 
   1   4  -8-5.00549 40.1493  20 
   1   4  -8-94.1349 114.860  25 
  -1  -4   7 8424.78 638.408  11 
  -1  -4   7 8552.90 239.218  14 
   1   4  -7 8445.01 434.880  34 
  -1  -4   7 8127.58 502.031  27 
   1   4  -7 8060.82 286.144  31 
  -1  -4   7 8626.70 415.777  32 
   1   4  -7 8030.60 433.738  20 
   1   4  -7 8364.88 828.762  24 
  -1  -4   6 5370.70 481.757  11 
  -1  -4   6 5451.94 392.387  27 
   1   4  -6 5487.33 450.382  28 
   1   4  -6 4894.91 603.902  24 
  -1  -4   5 37.9996 39.6755  11 
  -1  -4   5 110.637 95.4242   1 
  -1  -4   5 18.3697 45.2052   2 
  -1  -4   5-101.763 50.6279   9 
   1   4  -5 130.026 79.1833  28 
  -1  -4   5 79.2526 46.6032  27 
   1   4  -5-13.0454 64.5166  24 
  -1  -4   4 5862.99 348.959  10 
  -1  -4   4 5364.96 596.909   1 
  -1  -4   4 4477.38 555.569   2 
  -1  -4   4 6255.31 354.000  27 
   1   4  -4 5677.98 395.231  28 
   1   4  -4 5863.17 623.214  24 
  -1  -4   3 680.185 113.487  10 
  -1  -4   3 657.665 222.951   1 
  -1  -4   3 646.845 107.202  27 
   1   4  -3 677.909 119.813  28 
   1   4  -3 645.324 180.080  30 
   1   4  -3 501.275 176.981  24 
  -1  -4   2 38105.4 798.428  10 
   1   4  -2 36132.1 1351.52  30 
   1   4  -2 37123.4 855.142  28 
   1   4  -2 36235.2 1478.96  24 
  -1  -4   1 10318.9 410.204  10 
   1   4  -1 10543.1 729.605  30 
   1   4  -1 9881.07 421.627  28 
   1   4  -1 10732.8 814.517  29 
   1   4  -1 10651.9 781.952  24 
  -1  -4   0 1133.94 138.899  10 
   1   4   0 1214.16 253.333  30 
   1   4   0 1154.05 143.260  28 
   1   4   0 1110.37 240.243  29 
   1   4   0 1334.00 268.018  24 
  -1  -4   0 979.848 150.705  26 
  -1  -4  -1 15643.0 534.229  10 
   1   4   1 16313.5 908.605  30 
   1   4   1 16168.5 917.731  29 
  -1  -4  -1 16491.5 640.098  26 
   1   4   1 15966.7 922.773  24 
  -1  -4  -2 3508.86 272.563  10 
   1   4   2 3703.15 437.240  29 
   1   4   2 3725.92 445.441  30 
   1   4   2 3993.47 465.394  24 
  -1  -4  -2 3963.50 345.459  25 
  -1  -4  -2 4186.92 329.377  26 
  -1  -4  -3 3691.10 504.691   1 
  -1  -4  -3 2982.51 268.780  10 
   1   4   3 3528.65 425.681  29 
   1   4   3 3263.67 431.558  30 
  -1  -4  -3 3627.43 317.306  26 
  -1  -4  -3 3602.32 334.868  25 
  -1  -4  -4 318.121 147.552   2 
  -1  -4  -4 435.338 115.532  10 
  -1  -4  -4 384.196 166.188   1 
   1   4   4 435.345 158.577  29 
   1   4   4 437.988 170.686  30 
  -1  -4  -4 310.291 122.076  25 
  -1  -4  -4 545.683 135.206  26 
  -1  -4  -5 1199.60 195.469  10 
  -1  -4  -5 1341.81 304.840   1 
  -1  -4  -5 1106.91 275.889   2 
   1   4   5 1287.18 306.325  30 
   1   4   5 1198.20 255.791  29 
  -1  -4  -5 1358.66 213.611  26 
  -1  -4  -5 1199.44 211.727  25 
   1   4   6 8724.09 620.374  11 
  -1  -4  -6 10085.7 619.281  10 
   1   4   6 9823.81 802.706  29 
   1   4   6 10835.7 908.799  30 
  -1  -4  -6 10619.2 666.684  25 
  -1  -4  -6 9814.42 600.973  26 
   1   4   7 9985.84 675.496  11 
  -1  -4  -7 10525.0 264.863  17 
  -1  -4  -7 9924.01 658.611  10 
   1   4   7 10693.2 885.758  29 
   1   4   7 10629.4 415.796  33 
   1   4   7 10865.3 949.004  30 
  -1  -4  -7 10970.4 717.726  25 
  -1  -4  -7 10407.0 640.948  26 
   1   4   7 11188.7 422.180  21 
  -1  -4  -8 30813.2 474.650  17 
   1   4   8 28408.9 1186.21  11 
   1   4   8 31961.7 1595.61  29 
   1   4   8 30251.1 739.010  33 
   1   4   8 32673.8 1691.11  30 
  -1  -4  -8 33696.7 1336.48  25 
  -1  -4  -8 28655.7 419.674  23 
  -1  -4  -8 28208.2 1093.57  26 
   1   4   8 30828.9 745.454  21 
  -1  -4  -9 7999.51 246.276  17 
   1   4   9 6796.49 598.647  11 
   1   4   9 8738.85 868.249  29 
   1   4   9 7988.63 387.441  33 
   1   4   9 8453.17 400.966  21 
  -1  -4  -9 6533.28 546.876  26 
  -1  -4  -9 8289.25 695.161  25 
  -1  -4  -9 7403.22 222.677  23 
  -1  -4 -10 9167.25 261.849  17 
   1   4  10 9460.08 422.047  33 
   1   4  10 9681.65 440.310  21 
  -1  -4 -10 8721.29 247.157  23 
  -1  -4 -11 3301.03 150.066  17 
   1   4  11 3508.92 250.492  33 
   1   4  11 3682.91 270.763  21 
  -1  -4 -11 3198.25 152.767  23 
   1   4  12 7374.19 337.879  33 
  -1  -4 -12 7090.66 213.703  23 
   1   4  13 3339.14 201.919  15 
   1   4  13 3474.28 205.272  33 
  -1  -4 -13 3103.79 131.890  23 
   1   4  13 3556.67 233.535  21 
   1   4  14 1300.47 106.497  15 
   1   4  14 1283.77 102.186  33 
   1   4  14 1185.66 117.173  21 
  -1  -4 -14 1203.67 72.0234  23 
   1   4  15 1073.56 86.5074  21 
   0  -3  15 1522.42 124.678  13 
   0   3 -15 1844.82 96.7317  31 
   0  -3  15 1575.18 118.980  32 
   0   3 -14 380.089 52.3349  31 
   0  -3  14 453.961 78.9399  32 
   0  -3  14 352.246 64.3277  21 
   0   3 -13 92.1568 46.6774  19 
   0   3 -13 163.924 41.6862  31 
   0  -3  13 190.579 53.3708  32 
   0   3 -12 88.2758 50.4470  12 
   0  -3  12 150.267 55.3929  32 
   0   3 -12 149.635 52.7123  31 
   0   3 -12 140.112 60.0156  34 
   0   3 -11 5806.50 376.546  12 
   0   3 -11 4907.03 238.321  31 
   0   3 -11 5449.46 385.319  34 
   0  -3  11 5418.54 344.167  32 
   0   3 -10 221.879 91.7466  12 
   0  -3  10 6.17845 35.9949  27 
   0  -3  10 240.597 90.1944  32 
   0   3 -10 142.105 46.4532  31 
   0   3 -10 213.776 97.8818  34 
   0  -3   9 479.877 138.271  11 
   0   3  -9 557.733 80.9251  31 
   0  -3   9 461.183 138.152  27 
   0   3  -9 555.133 127.599  34 
   0  -3   9 873.630 306.849  29 
   0  -3   9 545.899 109.698  32 
   0   3  -9 460.346 99.4239  20 
   0   3  -9 549.476 162.181  25 
   0  -3   8 657.835 164.193  11 
   0   3  -8 736.379 181.992  28 
   0   3  -8 899.570 91.3239  31 
   0   3  -8 953.685 150.223  34 
   0  -3   8 837.145 174.733  27 
   0  -3   8 869.744 129.948  32 
   0   3  -8 829.761 141.041  20 
   0   3  -8 759.518 184.408  25 
   0  -3   7 172.227 77.0696  11 
   0   3  -7 202.358 101.315  28 
   0  -3   7 114.004 60.6970  27 
   0   3  -7 301.908 146.295  24 
   0  -3   6 2476.61 281.712  11 
   0   3  -6 2270.47 234.484   3 
   0  -3   6 2549.65 262.030  27 
   0   3  -6 2527.54 285.606  28 
   0   3  -6 2410.91 366.904  24 
   0  -3   5 132.961 66.6729  11 
   0   3  -5 126.565 63.3334   3 
   0   3  -5 168.469 77.0736  28 
   0  -3   5 218.296 81.8174  27 
   0   3  -5 176.353 111.668  24 
   0  -3   4 5087.85 363.284  11 
   0  -3   4 4329.10 305.092  10 
   0  -3   4 4758.93 309.661  27 
   0   3  -4 4989.12 308.944  28 
   0   3  -4 4212.72 450.189  24 
   0  -3   3 2519.09 240.497  11 
   0  -3   3 2380.19 219.113  10 
   0  -3   3 2518.33 207.287  27 
   0   3  -3 2507.07 335.422  30 
   0   3  -3 2769.59 201.305  28 
   0   3  -3 2733.37 361.987  24 
   0  -3   2 4508.18 284.160  10 
   0   3  -2 4573.03 433.152  30 
   0  -3   2 4641.35 262.060  27 
   0   3  -2 4579.30 217.045  28 
   0   3  -2 4474.24 478.239  29 
   0  -3   2 4137.08 213.748  26 
   0   3  -2 4785.27 469.209  24 
   0  -3   1 28930.6 695.772  10 
   0   3  -1 29752.2 1102.30  30 
   0  -3   1 25742.1 593.934  27 
   0   3  -1 26752.9 440.893  28 
   0   3  -1 27718.3 1106.72  29 
   0   3  -1 29700.1 1140.51  24 
   0  -3   1 30390.8 642.690  26 
   0  -3   0 23827.9 617.999  10 
   0   3   0 24029.7 984.644  29 
   0   3   0 25200.3 996.260  30 
   0   3   0 22471.6 396.180  28 
   0   3   0 23923.3 1019.73  24 
   0  -3   0 25231.1 663.960  26 
   0  -3  -1 4465.84 272.598  10 
   0   3   1 4558.16 423.818  29 
   0   3   1 4427.67 422.609  30 
   0   3   1 4524.09 440.122  24 
   0  -3  -1 5220.58 308.543  26 
   0  -3  -2 2574.85 221.733  10 
   0   3   2 2901.11 344.951  29 
   0   3   2 2551.26 330.152  30 
   0  -3  -2 2641.28 243.806  25 
   0  -3  -2 2680.37 236.901  26 
   0  -3  -3 1189.34 165.082  10 
   0   3   3 1117.07 223.242  29 
   0   3   3 1067.67 224.236  30 
   0  -3  -3 1401.53 178.462  26 
   0  -3  -3 1503.08 188.431  25 
   0   3   4 99626.4 1418.26   3 
   0  -3  -4 105171. 1614.34  10 
   0   3   4 104126. 2258.52  29 
   0   3   4 101356. 2181.92  30 
   0   3   5 952.623 171.281  11 
   0  -3  -5 974.617 170.522  10 
   0   3   5 832.188 225.395  29 
   0   3   5 1044.75 235.764  30 
   0  -3  -5 969.139 174.725  25 
   0  -3  -5 1144.23 187.777  26 
   0   3   6 1260.05 202.324  11 
   0  -3  -6 1334.69 214.438  10 
   0   3   6 1155.18 267.306  29 
   0   3   6 1542.64 302.618  30 
   0  -3  -6 1298.05 206.406  26 
   0  -3  -6 1331.55 210.036  25 
   0   3   7 1947.81 274.858  11 
   0  -3  -7 2125.02 298.954  10 
   0   3   7 2023.91 375.792  29 
   0   3   7 2588.88 396.076  30 
   0  -3  -7 2011.00 270.900  26 
   0  -3  -7 2222.83 292.105  25 
   0   3   8 4924.34 462.894  11 
   0  -3  -8 5324.69 199.844  17 
   0   3   8 5642.59 678.455  29 
   0   3   8 5436.78 294.370  33 
   0   3   8 5156.94 260.147  32 
   0  -3  -8 6182.46 529.933  25 
   0   3   8 5556.43 316.656  21 
   0  -3  -8 4977.86 437.882  26 
   0  -3  -8 5048.69 176.470  23 
   0   3   9 5220.82 492.125  11 
   0  -3  -9 5570.90 210.059  17 
   0   3   9 5729.22 729.384  29 
   0   3   9 5513.64 306.266  33 
   0   3   9 5399.69 276.731  32 
   0  -3  -9 5895.58 543.819  25 
   0  -3  -9 5119.44 472.285  26 
   0   3   9 5782.92 331.532  21 
   0  -3  -9 5311.47 193.665  23 
   0  -3 -10 5559.83 212.969  17 
   0   3  10 5530.36 286.837  32 
   0   3  10 5675.73 313.889  33 
   0   3  10 5791.98 344.652  21 
   0  -3 -10 5529.71 206.191  23 
   0  -3 -11 1176.84 91.0487  17 
   0   3  11 1318.84 144.559  33 
   0   3  11 1388.89 139.776  32 
   0   3  11 1310.15 161.649  21 
   0  -3 -11 1142.11 93.7790  23 
   0   3  12 866.806 108.065  33 
   0   3  12 899.706 132.571  21 
   0  -3 -12 832.479 78.7610  23 
   0  -3 -13 61.9616 24.3493  16 
   0   3  13 88.6454 41.8358  15 
   0  -3 -13 54.1254 25.2308  23 
   0   3  13 67.2973 35.7785  21 
   0   3  14 21.8137 24.3603  15 
   0  -3 -14 1.77316 21.4582  23 
   0   3  14 34.8207 27.0039  21 
   0   3  15 469.178 56.8921  21 
   1  -2  16 266.190 48.2585  13 
  -1   2 -16 369.405 41.1446  31 
  -1   2 -15 65.7027 18.3855  16 
  -1   2 -15 99.1138 28.9674  31 
   1  -2  15 154.819 46.7482  32 
   1  -2  15 95.8729 42.9494  21 
  -1   2 -14 2160.94 139.474  31 
   1  -2  14 2215.26 180.248  32 
  -1   2 -13 1486.67 126.746  31 
   1  -2  13 1473.56 164.047  32 
  -1   2 -13 1184.20 94.2285  23 
  -1   2 -13 1346.94 178.266  19 
  -1   2 -12 366.729 86.8395  12 
  -1   2 -12 349.770 83.1685  19 
   1  -2  12 355.885 80.3776  32 
  -1   2 -12 433.511 71.4276  31 
  -1   2 -12 346.892 106.885  34 
  -1   2 -11 94.8592 67.8814  12 
   1  -2  11 40.4247 40.8378  32 
  -1   2 -11 111.598 81.4724  34 
  -1   2 -11 19.9719 23.2926  31 
   1  -2  10 23882.0 1052.12  11 
  -1   2 -10 22704.2 748.494  12 
  -1   2 -10 22243.4 473.913  31 
   1  -2  10 21362.1 1407.05  29 
   1  -2  10 23110.1 942.434  27 
  -1   2 -10 21626.9 766.735  34 
   1  -2  10 24062.8 695.596  32 
  -1   2 -10 20048.0 714.400  20 
  -1   2 -10 24489.3 1094.21  25 
  -1   2  -9 8047.89 426.259  12 
   1  -2   9 7558.54 557.133  11 
  -1   2  -9 8082.85 269.074  31 
   1  -2   9 7273.70 785.277  29 
  -1   2  -9 7497.17 425.030  34 
   1  -2   9 7565.35 513.597  27 
  -1   2  -9 7621.26 604.611  28 
   1  -2   9 8890.58 403.392  32 
  -1   2  -9 7176.58 398.615  20 
  -1   2  -9 8010.57 585.211  25 
   1  -2   8 5731.38 453.274  11 
   1  -2   8 5520.52 415.830  27 
  -1   2  -8 6429.48 518.344  28 
  -1   2  -8 5911.78 463.158  25 
   1  -2   7 15821.1 682.746  11 
   1  -2   7 16181.8 673.090  27 
  -1   2  -7 15227.9 757.269  28 
  -1   2  -7 15685.9 698.540  25 
   1  -2   6 3342.70 296.607  11 
  -1   2  -6 3146.19 244.596   3 
   1  -2   6 3328.87 283.567  27 
  -1   2  -6 3308.96 305.886  28 
  -1   2  -6 3145.63 289.260  25 
  -1   2  -6 3598.14 396.146  24 
   1  -2   5 35422.8 875.157  11 
  -1   2  -5 34678.0 819.817   3 
   1  -2   5 36279.4 880.331  27 
  -1   2  -5 37056.3 871.402  28 
   1  -2   4 51604.9 951.037  11 
  -1   2  -4 53777.1 1017.43   3 
   1  -2   4 53347.1 999.480  27 
  -1   2  -4 48490.1 855.919  28 
  -1   2  -4 57205.4 1533.04  24 
   1  -2   3 42272.8 782.791  11 
   1  -2   3 40836.5 825.610  27 
  -1   2  -3 42057.6 1292.52  24 
   1  -2   2 4118.09 228.429  11 
   1  -2   2 3836.99 264.414  10 
  -1   2  -2 4554.49 303.305   3 
  -1   2  -2 3654.82 366.013  30 
  -1   2  -2 3950.28 383.102  29 
   1  -2   2 4269.10 198.286  26 
  -1   2  -2 4077.47 406.225  24 
   1  -2   1 555.589 97.4942  10 
  -1   2  -1 410.063 100.894   3 
  -1   2  -1 524.765 144.547  30 
  -1   2  -1 466.700 124.798  29 
   1  -2   1 558.465 79.4950  26 
  -1   2   0 24465.9 702.880   3 
   1  -2   0 24647.2 624.391  10 
  -1   2   0 24946.3 368.702   9 
  -1   2   0 24074.0 880.734  29 
  -1   2   0 23307.8 900.120  30 
   1  -2   0 24828.1 576.714  26 
   1  -2  -1 7490.45 342.338  10 
  -1   2   1 7098.33 214.571   9 
  -1   2   1 7145.81 366.562   3 
  -1   2   1 7327.65 496.702  29 
  -1   2   1 7529.40 514.742  30 
   1  -2  -1 7281.22 301.800  25 
   1  -2  -1 7228.34 337.474  26 
  -1   2   2 2215.85 192.069   3 
   1  -2  -2 2188.24 195.562  10 
  -1   2   2 2223.72 141.630   9 
  -1   2   2 2259.48 291.545  29 
  -1   2   2 2329.39 283.914  30 
   1  -2  -2 2118.41 164.967  28 
   1  -2  -2 2462.54 181.349  25 
   1  -2  -2 2315.28 207.567  26 
  -1   2   3 3115.87 236.353  11 
   1  -2  -3 2905.84 237.629  10 
  -1   2   3 3190.14 215.903   3 
  -1   2   3 3071.24 196.172   9 
  -1   2   3 2979.96 352.234  29 
  -1   2   3 3264.35 354.835  30 
   1  -2  -3 2879.60 228.390  28 
   1  -2  -3 3077.94 252.825  26 
   1  -2  -3 3318.02 231.559  25 
  -1   2   4 3172.74 257.497  11 
   1  -2  -4 3167.25 270.116  10 
  -1   2   4 2950.17 217.495   9 
  -1   2   4 3191.99 205.493   3 
  -1   2   4 2850.96 378.030  29 
  -1   2   4 3258.64 358.135  30 
   1  -2  -4 2983.31 265.345  28 
   1  -2  -4 3298.50 251.305  25 
   1  -2  -4 3156.38 270.142  26 
  -1   2   5 2542.11 249.700  11 
   1  -2  -5 2625.27 265.266  10 
  -1   2   5 1941.13 196.860   9 
  -1   2   5 2395.15 369.015  29 
  -1   2   5 2667.25 332.265  30 
   1  -2  -5 2063.91 246.989  28 
   1  -2  -5 2120.83 218.856  25 
   1  -2  -5 2453.46 259.686  26 
  -1   2   6 6866.96 449.737  11 
   1  -2  -6 7286.35 483.806  10 
  -1   2   6 6387.94 396.914   9 
  -1   2   6 6862.66 678.639  29 
   1  -2  -6 6323.70 479.370  28 
   1  -2  -6 7053.32 472.499  26 
   1  -2  -6 7270.81 455.046  25 
  -1   2   7 951.155 178.540  11 
   1  -2  -7 1321.38 218.500  10 
  -1   2   7 782.101 153.707   9 
   1  -2  -7 914.248 195.300  28 
  -1   2   7 1108.50 269.973  29 
   1  -2  -7 912.273 178.680  25 
   1  -2  -7 864.101 175.958  26 
   1  -2  -8 801.818 75.7990  17 
  -1   2   8 929.263 189.979  11 
  -1   2   8 665.173 154.317   9 
   1  -2  -8 763.270 188.743  28 
  -1   2   8 812.755 112.138  32 
  -1   2   8 848.665 262.111  29 
   1  -2  -8 696.832 159.788  26 
   1  -2  -8 796.753 178.034  25 
  -1   2   8 822.714 114.278  21 
   1  -2  -8 697.198 71.9265  23 
   1  -2  -9 22285.4 429.317  17 
   1  -2  -9 21685.8 1052.19  28 
  -1   2   9 22949.9 628.174  32 
   1  -2  -9 22708.9 417.995  23 
  -1   2   9 22692.8 652.011  21 
   1  -2 -10 6.10619 27.6325  17 
  -1   2  10 106.022 42.6240  32 
   1  -2 -10 113.514 41.7480  23 
  -1   2  10 96.7724 43.2731  21 
   1  -2 -11 14271.5 333.087  17 
  -1   2  11 15487.5 518.027  32 
  -1   2  11 15190.9 534.950  21 
   1  -2 -11 15193.9 351.146  23 
  -1   2  12 536.764 92.7688  15 
  -1   2  12 615.688 95.5737  32 
  -1   2  12 564.621 97.1838  21 
   1  -2 -12 469.737 62.9897  23 
  -1   2  13 1206.21 130.804  15 
  -1   2  13 1190.32 119.451  32 
  -1   2  13 1135.32 122.685  21 
   1  -2 -13 1108.35 81.9583  23 
  -1   2  14 4410.06 211.023  15 
   1  -2 -14 3932.27 126.951  16 
  -1   2  14 4601.60 191.534  32 
  -1   2  14 4237.90 193.196  21 
   1  -2 -14 4508.68 137.387  23 
  -2   1 -16 2954.22 110.308  16 
   2  -1  16 2836.08 167.815  21 
  -2   1 -15 4453.51 166.362  16 
  -2   1 -15 4886.61 186.928  31 
   2  -1  15 4238.38 248.677  21 
  -2   1 -14 312.964 57.5773  16 
  -2   1 -14 326.512 61.4293  31 
  -2   1 -14 290.389 46.2487  23 
  -2   1 -13 662.828 87.3854  31 
   2  -1  13 642.412 100.576  32 
  -2   1 -13 685.063 129.175  19 
  -2   1 -13 697.880 76.6716  23 
  -2   1 -12 6.89768 77.9851  12 
   2  -1  12 65.2164 31.4284  32 
  -2   1 -12-28.7776 50.6533  31 
  -2   1 -12 30.9823 53.5394  34 
  -2   1 -12-12.5300 34.1933  23 
  -2   1 -12-25.4796 72.9335  19 
  -2   1 -11 3591.87 298.778  12 
   2  -1  11 4023.71 434.037  11 
  -2   1 -11 3975.51 200.769  31 
   2  -1  11 3852.75 396.261  27 
  -2   1 -11 3708.23 335.037  34 
   2  -1  11 4134.20 272.821  32 
  -2   1 -11 3947.32 465.698  25 
  -2   1 -11 3768.79 326.020  19 
  -2   1 -10 8414.66 442.866  12 
   2  -1  10 10114.3 656.551  11 
  -2   1 -10 9421.07 296.217  31 
   2  -1  10 9234.31 585.319  27 
  -2   1 -10 8486.19 487.351  34 
   2  -1  10 10066.5 417.636  32 
  -2   1 -10 8293.22 428.699  20 
  -2   1 -10 10562.9 711.649  25 
  -2   1 -10 8404.63 474.330  19 
  -2   1  -9 1794.59 196.915  12 
   2  -1   9 2138.80 283.994  11 
  -2   1  -9 2312.16 139.754  31 
  -2   1  -9 2101.98 225.950  34 
   2  -1   9 2055.12 261.473  27 
  -2   1  -9 2275.94 308.753  25 
   2  -1   8-24.4991 33.5180  11 
   2  -1   8-81.9453 71.5891  29 
   2  -1   8-11.4043 84.1317  27 
  -2   1  -8-49.2589 47.4141  25 
   2  -1   7 71.9770 39.4988  11 
  -2   1  -7 78.1715 59.7076  25 
   2  -1   7 92.8028 61.8948  27 
  -2   1  -6 2.30366 27.9625   3 
   2  -1   6-18.0087 21.6889  11 
   2  -1   6 5.21331 44.6954  27 
  -2   1  -6 38.2479 28.2313  25 
   2  -1   5 3558.66 246.246  11 
  -2   1  -5 3381.34 246.378   3 
   2  -1   5 3398.24 275.662  27 
  -2   1  -5 3398.85 242.853  25 
  -2   1  -4 460.503 90.9238   3 
   2  -1   4 572.357 84.9647  11 
   2  -1   4 344.568 86.7250  27 
  -2   1  -4 404.120 72.7870  25 
   2  -1   3 20046.0 440.122  11 
  -2   1  -3 21629.7 611.397   3 
  -2   1  -3 18783.5 788.041  29 
   2  -1   3 20741.2 407.354  26 
  -2   1  -3 19198.5 422.995  25 
   2  -1   2 19378.6 325.393  11 
   2  -1   2 19135.7 578.363  10 
  -2   1  -2 21895.5 612.366   3 
  -2   1  -2 21142.1 527.646   9 
  -2   1  -2 20362.7 758.417  29 
   2  -1   2 21069.5 460.262  26 
  -2   1  -2 20280.8 316.874  25 
   2  -1   1 4284.44 264.349  10 
  -2   1  -1 4282.64 276.886   3 
  -2   1  -1 4249.65 226.126   9 
  -2   1  -1 3981.46 332.890  29 
   2  -1   1 4180.37 168.617  28 
   2  -1   1 4410.61 232.371  26 
  -2   1   0 88.6548 34.8352   9 
  -2   1   0 104.161 46.2803   3 
   2  -1   0 116.406 42.3426  10 
   2  -1   0 93.3039 33.2177  28 
  -2   1   0 59.7623 43.0545  29 
   2  -1   0 94.9158 42.2773  26 
  -2   1   1 6344.46 301.960   9 
   2  -1  -1 6863.22 317.573  10 
  -2   1   1 6341.06 325.674   3 
  -2   1   1 6318.13 456.151  29 
   2  -1  -1 6626.71 282.767  28 
   2  -1  -1 6889.88 339.789  26 
  -2   1   2 14562.8 324.066  11 
   2  -1  -2 15178.3 491.465  10 
  -2   1   2 14879.4 473.741   3 
  -2   1   2 14757.6 491.569   9 
  -2   1   2 15245.4 766.648  29 
   2  -1  -2 15298.6 501.067  28 
   2  -1  -2 15911.5 553.929  26 
  -2   1   3 18208.9 474.668  11 
   2  -1  -3 18149.1 580.904  10 
  -2   1   3 17624.1 582.652   9 
  -2   1   3 17399.3 505.418   3 
  -2   1   3 18927.6 931.386  29 
   2  -1  -3 18988.1 618.530  28 
   2  -1  -3 19197.4 649.246  26 
   2  -1  -3 18094.8 461.975  25 
   2  -1  -4 14652.1 558.979  10 
  -2   1   4 12751.4 412.692   3 
  -2   1   4 12967.4 547.707   9 
  -2   1   4 14025.3 878.077  29 
   2  -1  -4 12717.5 581.059  28 
   2  -1  -4 14231.5 599.820  26 
   2  -1  -5 5133.32 361.402  10 
  -2   1   5 4321.67 344.896   9 
  -2   1   5 5311.98 590.547  29 
   2  -1  -5 4813.68 386.581  28 
   2  -1  -5 5161.27 388.694  26 
   2  -1  -6 55850.6 1307.85  10 
  -2   1   6 47773.5 1258.63   9 
  -2   1   6 55391.9 2067.84  29 
   2  -1  -6 48471.2 1414.44  28 
   2  -1  -6 52995.2 1331.93  26 
  -2   1   7 3898.30 386.837   9 
  -2   1   7 4620.39 649.322  29 
   2  -1  -7 4392.78 440.982  28 
  -2   1   7 4245.99 259.347  32 
   2  -1  -7 3836.72 380.013  26 
  -2   1   8 1041.98 214.080   9 
   2  -1  -8 1062.00 227.208  28 
  -2   1   8 1535.48 405.822  29 
  -2   1   8 1249.86 146.869  32 
   2  -1  -8 1242.54 234.071  26 
   2  -1  -8 1587.57 372.188  24 
  -2   1   8 1341.54 147.277  21 
   2  -1  -8 1133.35 96.1958  23 
  -2   1   9 113.217 51.5300  15 
   2  -1  -9 118.238 35.6000  17 
  -2   1   9-38.0798 50.6781   9 
   2  -1  -9 129.300 79.6679  28 
  -2   1   9 75.1930 31.7711  32 
  -2   1   9 101.313 45.3291  21 
   2  -1  -9 131.912 41.3343  23 
  -2   1  10 1368.60 170.918  15 
   2  -1 -10 1282.73 106.780  17 
  -2   1  10 1254.69 157.796  32 
   2  -1 -10 1181.71 102.666  23 
  -2   1  10 1428.21 153.848  21 
  -2   1  11 1024.36 144.069  15 
   2  -1 -11 996.865 92.2342  17 
  -2   1  11 985.297 134.827  32 
   2  -1 -11 1035.90 97.3930  23 
  -2   1  11 1013.42 126.820  21 
  -2   1  12 35.9689 35.0434  15 
  -2   1  12-16.2738 36.2329  32 
   2  -1 -12 0.16254 24.4792  23 
  -2   1  13 52.7944 32.4791  15 
  -2   1  13 55.3015 26.9600  32 
   2  -1 -13 75.8822 23.3519  23 
  -2   1  14-18.2457 29.0708  15 
  -2   1  14 19.2130 13.6717  32 
   2  -1 -14 9.31194 12.2260  23 
  -3   0 -16 473.855 46.1123  16 
   3   0  16 461.318 68.5311  21 
  -3   0 -15 29.9055 23.2152  16 
  -3   0 -15 85.3428 29.9561  31 
   3   0  15 70.5254 38.6610  21 
  -3   0 -14 494.762 71.1623  16 
  -3   0 -14 418.011 64.6855  31 
  -3   0 -14 430.033 55.5221  23 
  -3   0 -13 269.598 53.8983  16 
  -3   0 -13 332.531 59.8475  31 
  -3   0 -13 250.463 45.0614  23 
  -3   0 -13 315.428 83.4952  19 
  -3   0 -12 6629.45 394.234  12 
  -3   0 -12 6953.63 289.407  16 
  -3   0 -12 7480.96 268.417  31 
  -3   0 -12 6530.16 414.113  19 
  -3   0 -12 7291.50 247.512  23 
  -3   0 -11 1697.47 202.537  12 
  -3   0 -11 1605.68 150.762  16 
  -3   0 -11 2073.27 141.861  31 
  -3   0 -11 1777.05 320.976  25 
  -3   0 -11 2055.25 132.422  23 
  -3   0 -11 1673.41 216.557  19 
  -3   0 -10 6469.81 396.865  12 
  -3   0 -10 7615.17 285.517  16 
   3   0  10 7579.48 564.383  11 
  -3   0 -10 7882.72 265.148  31 
  -3   0 -10 6844.95 447.106  34 
   3   0  10 7190.44 511.997  27 
   3   0  10 6679.87 820.505  30 
  -3   0 -10 7561.26 602.702  25 
  -3   0 -10 6708.48 416.078  19 
  -3   0  -9 4029.02 297.054  12 
   3   0   9 4785.03 415.738  11 
  -3   0  -9 4906.90 215.279  16 
  -3   0  -9 4898.97 195.846  31 
   3   0   9 4755.88 404.280  27 
  -3   0  -9 4356.28 337.350  34 
  -3   0  -9 4794.01 447.525  25 
  -3   0  -9 4102.92 310.597  19 
   3   0   8 6639.41 459.328  11 
   3   0   8 5947.34 429.172  27 
  -3   0  -8 6082.11 458.863  25 
   3   0   7 27102.4 832.514  11 
  -3   0  -7 25947.7 769.366   3 
   3   0   7 25546.1 844.831  27 
  -3   0  -7 26142.4 858.662  25 
  -3   0  -6 10.4454 21.9624   3 
   3   0   6 35.4672 30.0646  11 
   3   0   6 13.5441 53.5055  27 
  -3   0  -6 108.341 45.0326  25 
   3   0   5 41594.2 822.376  11 
  -3   0  -5 40895.9 938.906   3 
  -3   0  -5 40444.2 1383.46   4 
   3   0   5 41190.7 990.042  27 
  -3   0  -5 41205.1 857.335  25 
   3   0   4 13286.1 394.810  11 
  -3   0  -4 12690.6 863.028   2 
  -3   0  -4 14538.3 585.175   9 
  -3   0  -4 13073.0 519.770   3 
  -3   0  -4 12935.9 774.149   4 
   3   0   4 13235.9 535.272  27 
   3   0   4 13280.2 404.001  26 
  -3   0  -4 12867.1 419.105  25 
  -3   0  -3 8.10305 65.7264   2 
  -3   0  -3-2.52583 42.0126   9 
  -3   0  -3 1.65451 44.6156   4 
  -3   0  -3-4.89518 25.9728   3 
   3   0   3 26.4657 42.7916  26 
   3   0   2 30423.5 723.722  10 
  -3   0  -2 31806.4 1360.86   2 
  -3   0  -2 33251.0 811.111   3 
  -3   0  -2 34035.3 809.255   9 
  -3   0  -2 31718.5 1202.06   4 
   3   0   2 33640.4 734.716  28 
   3   0   2 33660.5 728.152  26 
   3   0   1 67369.4 1015.86  10 
  -3   0  -1 69922.5 1156.67   9 
  -3   0  -1 71152.4 1168.42   3 
  -3   0  -1 67865.5 1761.64   4 
  -3   0  -1 68889.9 1264.31  29 
   3   0   1 71150.5 1088.09  28 
   3   0   1 70600.5 1113.94  26 
   3   0   0 42523.1 750.659  10 
  -3   0   0 41141.7 904.149   9 
  -3   0   0 42712.4 909.932   3 
  -3   0   0 40609.9 1368.94   4 
  -3   0   0 41578.2 1092.11  29 
   3   0   0 43700.4 891.114  28 
   3   0   0 41878.0 902.386  26 
  -3   0   1-16.1414 60.1308   4 
  -3   0   1 13.0344 95.3301   2 
  -3   0   1 17.5367 39.3499   9 
   3   0  -1 4.04621 14.9294  10 
  -3   0   1 25.6502 23.7219   3 
  -3   0   1-5.21828 35.6997  29 
   3   0  -1-6.26581 34.7323  28 
   3   0  -1 31.6744 32.1028  26 
  -3   0   2 363.353 121.753   4 
  -3   0   2 239.317 81.2004   9 
   3   0  -2 319.586 67.5608  10 
  -3   0   2 303.941 79.3036   3 
   3   0  -2 269.407 89.3544  28 
  -3   0   2 317.316 130.818  29 
   3   0  -2 337.589 102.892  26 
   3   0  -3 2970.62 227.958  10 
  -3   0   3 2945.63 286.884   9 
  -3   0   3 3441.09 257.315   3 
  -3   0   3 3308.77 414.531  29 
   3   0  -3 3262.38 303.348  28 
   3   0  -3 3514.21 310.234  26 
  -3   0   4 206.751 96.9926   9 
   3   0  -4 226.776 104.389  28 
  -3   0   4 119.724 78.2976  29 
   3   0  -4 193.713 70.9235  26 
  -3   0   5 423.579 126.574   9 
  -3   0   5 544.653 210.140  29 
   3   0  -5 566.102 148.490  28 
   3   0  -5 619.639 148.951  26 
  -3   0   6 133.762 57.4114  15 
  -3   0   6 140.272 49.8709  13 
  -3   0   6 68.1002 24.3427  18 
  -3   0   6 188.692 93.0753   9 
   3   0  -6 80.0583 62.7687  28 
  -3   0   6 291.324 164.100  29 
  -3   0   6 106.645 43.2073  32 
   3   0  -6 186.455 43.6282  23 
   3   0  -6 219.601 102.704  26 
   3   0  -6 171.369 174.280  24 
  -3   0   7 1634.07 181.808  15 
  -3   0   7 1281.53 103.962  18 
  -3   0   7 1591.83 171.807  13 
  -3   0   7 1437.24 267.056   9 
   3   0  -7 1424.89 269.295  28 
  -3   0   7 1855.33 428.716  29 
  -3   0   7 1488.20 165.122  32 
   3   0  -7 1485.33 253.047  26 
   3   0  -7 1397.46 350.953  24 
   3   0  -7 1444.82 112.083  23 
  -3   0   8 1807.20 194.074  15 
  -3   0   8 1608.88 176.855  13 
   3   0  -8 2219.73 352.113  28 
  -3   0   8 1540.64 171.235  32 
   3   0  -8 1388.38 360.039  24 
   3   0  -8 1544.73 120.700  23 
  -3   0   9 6636.31 379.080  15 
  -3   0   9 5976.49 336.973  13 
  -3   0   9 6124.60 347.995  32 
   3   0  -9 6119.38 234.214  23 
  -3   0  10 15.9112 37.3159  15 
  -3   0  10 3.62755 31.7681  13 
   3   0 -10-23.5271 32.3041  17 
  -3   0  10 36.0070 40.5210  32 
   3   0 -10 10.7334 27.7324  23 
  -3   0  11 1774.24 179.541  15 
   3   0 -11 1430.10 100.843  17 
  -3   0  11 1696.06 155.598  13 
  -3   0  11 1854.17 175.875  32 
   3   0 -11 1741.88 115.424  23 
  -3   0  12 40.6933 38.3904  15 
  -3   0  12-7.17665 23.3517  32 
   3   0 -12 3.47732 20.8663  23 
  -3   0  13 765.305 82.6059  15 
  -3   0  13 726.523 81.4661  32 
   3   0 -13 703.825 52.3040  23 
  -4  -1 -16 363.911 40.4814  16 
   4   1  16 300.827 51.0966  21 
  -4  -1 -15 65.5585 31.4731  16 
   4   1  15 7.14662 20.0451  21 
  -4  -1 -15 41.6265 20.4486  23 
  -4  -1 -14 1957.00 131.661  16 
   4   1  14 1617.14 154.720  21 
  -4  -1 -14 1715.81 107.691  23 
  -4  -1 -13 920.725 101.144  16 
  -4  -1 -13 848.025 140.493  19 
  -4  -1 -13 926.368 88.5600  23 
  -4  -1 -12 16006.8 617.941  12 
  -4  -1 -12 17311.7 440.132  16 
  -4  -1 -12 17082.8 402.750  31 
  -4  -1 -12 15952.2 367.864  23 
  -4  -1 -11 243.532 68.6080  16 
  -4  -1 -11 248.078 97.0637  12 
  -4  -1 -11 345.757 64.3336  31 
  -4  -1 -11 187.821 101.356  19 
  -4  -1 -11 253.426 52.8205  23 
  -4  -1 -10 3411.57 297.125  12 
  -4  -1 -10 3502.51 209.384  16 
  -4  -1 -10 3875.91 186.256  31 
   4   1  10 3567.12 602.814  30 
  -4  -1 -10 3286.62 293.963  19 
  -4  -1 -10 3404.33 175.314  23 
  -4  -1  -9 2893.30 264.756  12 
  -4  -1  -9 3009.26 178.580  16 
  -4  -1  -9 3206.81 161.115  31 
   4   1   9 2874.08 305.217  27 
   4   1   9 3184.96 577.417  30 
  -4  -1  -9 2644.16 259.555  19 
  -4  -1  -9 2758.60 145.904  23 
  -4  -1  -8 1175.87 162.110  12 
  -4  -1  -8 1279.29 107.202  16 
  -4  -1  -8 1380.42 102.525  31 
   4   1   8 1150.47 184.070  27 
   4   1   8 1007.03 290.325  30 
  -4  -1  -8 1287.70 165.689  19 
  -4  -1  -7 7108.90 466.338   3 
  -4  -1  -7 7482.92 708.594   4 
   4   1   7 6890.59 445.547  27 
  -4  -1  -6 1387.27 340.729   2 
  -4  -1  -6 1319.07 199.521   3 
  -4  -1  -6 1624.66 330.106   4 
   4   1   6 1510.34 201.069  27 
  -4  -1  -5 5.14053 43.7020   2 
  -4  -1  -5 115.190 92.0693   4 
  -4  -1  -5 25.3733 41.8589   3 
   4   1   5 25.6283 31.8013  27 
  -4  -1  -4 680.004 138.851   3 
  -4  -1  -4 637.897 232.295   2 
  -4  -1  -4 813.605 231.859   4 
   4   1   4 573.805 117.943  10 
  -4  -1  -4 627.049 145.358   9 
   4   1   4 698.542 127.274  27 
  -4  -1  -3 212.950 151.093   2 
  -4  -1  -3 132.716 88.1762   4 
  -4  -1  -3 132.068 63.8562   9 
  -4  -1  -3 156.344 73.5568   3 
   4   1   3 173.897 79.6323  24 
  -4  -1  -2 20.3012 71.9134   4 
  -4  -1  -2-30.7551 85.9931   9 
  -4  -1  -2 128.583 82.2993   3 
   4   1   2-60.0655 95.6267  28 
   4   1   2 3.34019 37.5206  26 
   4   1   2 38.8905 28.2235  24 
  -4  -1  -1 72214.0 2472.45   2 
  -4  -1  -1 76530.1 1471.82   9 
  -4  -1  -1 80586.3 1478.11   3 
  -4  -1  -1 79031.4 2294.30   4 
   4   1   1 75529.5 1717.49  30 
   4   1   1 76199.7 1444.69  28 
   4   1   1 74420.9 1877.39  24 
   4   1   1 76832.9 1432.09  26 
  -4  -1   0 238668. 4474.97   2 
  -4  -1   0 242724. 2681.92   9 
  -4  -1   0 248605. 4120.80   4 
   4   1   0 250223. 2696.99  28 
   4   1   0 247901. 2688.52  26 
  -4  -1   1 11650.9 990.949   2 
  -4  -1   1 13212.8 600.588   3 
  -4  -1   1 13440.2 951.539   4 
  -4  -1   1 12071.7 621.572   9 
   4   1  -1 12036.2 632.501  28 
   4   1  -1 11762.7 844.300  24 
   4   1  -1 12415.6 621.152  26 
  -4  -1   2 6898.33 766.716   2 
  -4  -1   2 7317.69 444.885   3 
  -4  -1   2 6593.15 486.755   9 
  -4  -1   2 7068.19 692.837   4 
   4   1  -2 6688.69 502.860  28 
   4   1  -2 7155.21 482.794  26 
   4   1  -2 6368.72 653.155  24 
  -4  -1   3 205.906 107.143   4 
  -4  -1   3 49.0755 77.5898   2 
  -4  -1   3 120.211 75.0171   9 
   4   1  -3 173.344 93.9482  28 
   4   1  -3 98.5390 94.2838  26 
   4   1  -3 102.531 91.7609  24 
  -4  -1   4 1923.52 188.453  15 
  -4  -1   4 1993.21 109.450  18 
  -4  -1   4 2081.12 190.433  13 
  -4  -1   4 1838.30 282.565   9 
  -4  -1   4 2153.16 394.975  29 
  -4  -1   4 1867.95 162.244  32 
   4   1  -4 2117.73 302.215  28 
   4   1  -4 1939.94 401.026  24 
   4   1  -4 2218.17 292.290  26 
  -4  -1   5 4423.30 305.527  15 
  -4  -1   5 4659.07 294.784  13 
  -4  -1   5 4249.21 173.067  18 
  -4  -1   5 4210.91 461.487   9 
  -4  -1   5 4873.94 631.599  29 
  -4  -1   5 4407.48 263.902  32 
   4   1  -5 4678.48 484.314  28 
   4   1  -5 4557.37 447.837  26 
   4   1  -5 4715.76 652.796  24 
  -4  -1   6 2254.49 219.766  15 
  -4  -1   6 2121.36 128.010  18 
  -4  -1   6 2296.03 215.130  13 
  -4  -1   6 1924.33 331.784   9 
  -4  -1   6 2356.67 471.997  29 
  -4  -1   6 2119.51 194.105  32 
   4   1  -6 2171.66 342.256  28 
   4   1  -6 2161.63 305.827  26 
   4   1  -6 2344.50 472.291  24 
   4   1  -6 1967.43 135.227  23 
  -4  -1   7 6414.71 231.702  18 
  -4  -1   7 6552.36 380.898  15 
  -4  -1   7 7075.96 362.192  32 
   4   1  -7 6743.35 251.350  23 
  -4  -1   8 9.28930 34.4266  15 
  -4  -1   8 2.94562 42.4133  13 
  -4  -1   8 32.0805 23.2078  18 
  -4  -1   8 19.4772 32.2255  32 
   4   1  -8-53.6323 39.1151  23 
  -4  -1   9 4021.28 279.079  15 
  -4  -1   9 4472.12 292.454  13 
  -4  -1   9 4294.24 281.066  32 
   4   1  -9 4459.65 196.003  23 
  -4  -1  10 1819.72 169.783  15 
   4   1 -10 1581.52 107.267  17 
  -4  -1  10 2008.55 179.608  13 
  -4  -1  10 1983.38 179.552  32 
   4   1 -10 1876.57 121.526  23 
  -4  -1  11 399.663 68.9117  15 
   4   1 -11 308.602 43.4613  17 
  -4  -1  11 521.350 81.1246  13 
  -4  -1  11 428.094 73.6767  32 
   4   1 -11 452.552 53.6830  23 
  -4  -1  12 349.751 50.8286  15 
  -4  -1  12 356.578 49.7783  13 
  -4  -1  12 495.482 67.0525  32 
   4   1 -12 374.786 39.4262  23 
  -5  -2 -15 8.01403 19.0500  16 
  -5  -2 -14 15.2932 27.6647  16 
  -5  -2 -14-60.1825 26.8390  23 
  -5  -2 -13 1197.85 103.454  16 
  -5  -2 -13 972.085 81.2737  23 
  -5  -2 -12 826.722 135.377  12 
  -5  -2 -12 985.325 108.063  16 
  -5  -2 -12 589.345 113.017  19 
  -5  -2 -12 858.145 89.0528  23 
  -5  -2 -11-59.3945 81.5691  12 
  -5  -2 -11 45.2189 38.2018  16 
  -5  -2 -11-83.1093 92.5065  19 
  -5  -2 -11-8.04327 43.2903  23 
  -5  -2 -10 5546.17 384.888  12 
  -5  -2 -10 5798.36 260.999  16 
  -5  -2 -10 5585.60 223.021  23 
  -5  -2  -9 79.7463 44.3075  12 
  -5  -2  -9 128.365 53.7596  16 
  -5  -2  -9 21.1604 46.3219  19 
  -5  -2  -9 67.1285 30.4122  23 
  -5  -2  -8 2264.23 241.618  12 
  -5  -2  -8 2271.13 159.113  16 
   5   2   8 2039.15 452.364  30 
  -5  -2  -8 2431.64 139.152  23 
  -5  -2  -8 1871.75 235.185  19 
  -5  -2  -7 7856.15 456.783  12 
  -5  -2  -7 8642.78 299.406  16 
  -5  -2  -7 7435.13 331.808   6 
  -5  -2  -7 8880.72 1015.65   2 
  -5  -2  -7 7137.89 398.048   5 
  -5  -2  -7 8227.93 228.239   7 
  -5  -2  -7 8196.32 413.487   8 
  -5  -2  -7 9563.64 928.437   4 
   5   2   7 8068.34 859.272  30 
  -5  -2  -7 7431.57 435.441  19 
  -5  -2  -7 8176.62 246.341  23 
  -5  -2  -6 10346.9 501.094  12 
  -5  -2  -6 10681.2 310.768  16 
  -5  -2  -6 10381.7 403.598   6 
  -5  -2  -6 12797.5 1215.17   2 
  -5  -2  -6 10503.9 491.079   5 
  -5  -2  -6 10979.6 483.672   8 
  -5  -2  -6 10985.4 269.395   7 
  -5  -2  -6 12363.3 1060.23   4 
   5   2   6 10230.1 938.285  30 
  -5  -2  -6 10522.6 397.600  22 
  -5  -2  -6 8493.18 466.260  19 
  -5  -2  -5 4868.30 336.457  12 
  -5  -2  -5 5297.04 210.972  16 
  -5  -2  -5 5027.92 280.181   6 
  -5  -2  -5 5949.10 825.714   2 
  -5  -2  -5 4967.85 339.364   5 
  -5  -2  -5 5514.23 341.334   8 
  -5  -2  -5 6410.04 552.669   9 
  -5  -2  -5 5208.87 186.697   7 
  -5  -2  -5 5823.77 720.717   4 
   5   2   5 4706.76 598.696  30 
  -5  -2  -5 4992.03 276.995  22 
  -5  -2  -5 4286.00 306.546  19 
  -5  -2  -4 1073.09 128.360  15 
  -5  -2  -4 1070.49 163.671  12 
  -5  -2  -4 1153.77 92.3760  16 
  -5  -2  -4 1230.14 143.319  13 
  -5  -2  -4 1457.97 404.334   2 
  -5  -2  -4 1097.23 134.268   6 
  -5  -2  -4 1008.89 293.390   4 
  -5  -2  -4 1403.10 243.145   9 
  -5  -2  -4 1177.24 159.526   5 
  -5  -2  -4 1138.80 154.386   8 
  -5  -2  -4 1225.87 89.2727   7 
   5   2   4 1126.85 207.397  28 
   5   2   4 1209.82 283.394  30 
  -5  -2  -4 1219.14 136.711  22 
  -5  -2  -4 876.228 136.151  19 
  -5  -2  -3 1776.26 172.444   6 
  -5  -2  -3 1900.59 475.932   2 
  -5  -2  -3 2036.04 280.444   9 
  -5  -2  -3 1694.04 193.400   5 
  -5  -2  -3 1927.80 203.554   8 
  -5  -2  -3 1998.30 117.883   7 
  -5  -2  -3 1969.14 417.010   4 
   5   2   3 1758.77 265.922  28 
  -5  -2  -3 1935.33 173.745  22 
  -5  -2  -3 1346.86 157.869  19 
  -5  -2  -2 4607.73 279.714   6 
  -5  -2  -2 5475.24 788.258   2 
  -5  -2  -2 5245.56 452.586   9 
  -5  -2  -2 4547.18 317.935   5 
  -5  -2  -2 4501.55 305.275   8 
  -5  -2  -2 5029.37 187.529   7 
  -5  -2  -2 5002.50 679.797   4 
   5   2   2 5177.70 449.867  28 
  -5  -2  -2 4790.34 278.261  22 
   5   2   2 5568.74 450.412  26 
  -5  -2  -1 2067.15 115.006  16 
  -5  -2  -1 2281.37 193.313  13 
  -5  -2  -1 2233.80 195.072   6 
  -5  -2  -1 2078.75 490.809   2 
  -5  -2  -1 2029.15 202.837   8 
  -5  -2  -1 2063.48 209.855   5 
  -5  -2  -1 2322.66 296.968   9 
  -5  -2  -1 2353.56 128.763   7 
  -5  -2  -1 2118.58 439.395   4 
   5   2   1 2248.19 301.643  28 
  -5  -2  -1 2180.63 190.570  22 
   5   2   1 2166.41 286.244  26 
   5   2   1 2006.18 358.028  24 
  -5  -2   0 1664.14 158.028  15 
  -5  -2   0 1928.78 181.815  13 
  -5  -2   0 1803.43 107.225  16 
  -5  -2   0 1569.72 422.037   2 
  -5  -2   0 1805.93 173.270   6 
  -5  -2   0 2025.24 289.346   9 
  -5  -2   0 1693.54 194.948   5 
  -5  -2   0 1593.62 178.207   8 
  -5  -2   0 2019.89 120.067   7 
  -5  -2   0 2149.35 449.879   4 
   5   2   0 1912.95 289.730  28 
  -5  -2   0 1811.25 175.603  22 
   5   2   0 2018.80 275.351  26 
  -5  -2   0 1016.89 118.688  19 
   5   2   0 1783.73 357.988  24 
  -5  -2   1 53.3428 53.7793  13 
  -5  -2   1-5.98525 24.1502  15 
  -5  -2   1 32.9312 20.1317  18 
  -5  -2   1 11.9506 27.6319  16 
  -5  -2   1-177.600 152.440   2 
  -5  -2   1-8.35858 31.7433   6 
  -5  -2   1 63.6999 42.3990   9 
  -5  -2   1-115.218 120.831   5 
  -5  -2   1-44.4692 74.0915   8 
  -5  -2   1 13.1953 22.0687   7 
   5   2  -1 36.1237 51.4158  28 
  -5  -2   1 44.4245 34.6098  22 
   5   2  -1-71.3087 60.1286  26 
   5   2  -1-52.1069 71.6258  24 
  -5  -2   2 162.902 31.0168  18 
  -5  -2   2 122.202 48.9362  13 
  -5  -2   2 130.521 42.3371  15 
  -5  -2   2 410.458 192.408   4 
  -5  -2   2 35.8013 83.1781   2 
  -5  -2   2 170.436 45.5570   6 
  -5  -2   2-38.5890 94.8346   5 
  -5  -2   2 120.150 47.3271   8 
  -5  -2   2 185.995 98.3737   9 
  -5  -2   2 198.332 29.3929   7 
   5   2  -2 124.114 81.2443  28 
   5   2  -2 279.499 100.669  26 
  -5  -2   2 200.757 64.0521  22 
   5   2  -2 92.0831 99.4748  24 
  -5  -2   3 113.502 48.7882  15 
  -5  -2   3 180.805 66.5698  13 
  -5  -2   3 112.993 30.7475  18 
  -5  -2   3 157.246 95.1709   9 
   5   2  -3 162.337 97.7174  28 
   5   2  -3 267.809 120.359  26 
  -5  -2   3 149.685 54.6563  22 
   5   2  -3-34.0161 80.9070  24 
  -5  -2   4 384.439 85.6241  15 
  -5  -2   4 386.559 94.4406  13 
  -5  -2   4 428.799 56.3756  18 
   5   2  -4 300.226 133.145  28 
  -5  -2   5 877.478 130.687  15 
  -5  -2   5 1000.73 86.5863  18 
  -5  -2   5 1143.83 162.698  13 
  -5  -2   6 4189.43 282.677  15 
  -5  -2   6 4399.74 185.183  18 
  -5  -2   6 5138.93 340.310  13 
  -5  -2   6 5163.21 296.321  32 
   5   2  -6 4554.60 206.267  23 
  -5  -2   7 495.900 95.4258  15 
  -5  -2   7 479.027 60.6972  18 
  -5  -2   7 666.644 122.542  13 
  -5  -2   7 665.832 107.941  32 
   5   2  -7 487.829 67.5251  23 
  -5  -2   8 125.559 46.8792  15 
  -5  -2   8 181.224 65.0911  13 
  -5  -2   8 182.264 58.0286  32 
   5   2  -8 99.0827 36.6605  23 
  -5  -2   9 410.122 80.6886  13 
  -5  -2   9 307.632 57.7672  15 
  -5  -2   9 384.590 68.4909  32 
   5   2  -9 279.157 46.0094  23 
  -5  -2  10 39.1516 29.1502  13 
  -5  -2  10 64.3440 21.5937  15 
   5   2 -10 60.0871 26.6293  17 
  -5  -2  10 16.4983 16.8284  32 
   5   2 -10 11.8403 21.1827  23 
  -6  -3 -14 2919.02 126.670  16 
  -6  -3 -13 779.330 80.2177  16 
  -6  -3 -12 147.837 44.2256  16 
  -6  -3 -12 78.0456 43.6646  19 
  -6  -3 -11 4675.16 227.859  16 
  -6  -3 -11 3310.43 248.183  19 
  -6  -3 -10 3862.66 208.836  16 
  -6  -3 -10 3607.59 288.666  19 
  -6  -3  -9 3241.79 191.686  16 
  -6  -3  -9 2471.41 257.177  19 
  -6  -3  -8 373.576 50.1537   7 
  -6  -3  -8 382.085 74.0170   6 
  -6  -3  -8 445.298 76.1474  16 
  -6  -3  -7 8866.41 386.359   6 
  -6  -3  -7 9566.15 260.758   7 
  -6  -3  -6 357.640 80.4345   6 
  -6  -3  -6 253.255 88.4889   5 
  -6  -3  -6 539.832 139.093   8 
  -6  -3  -6 261.387 41.6048   7 
  -6  -3  -6 416.083 73.0596  16 
  -6  -3  -6 119.751 93.7155  19 
  -6  -3  -6 399.259 86.8543  22 
  -6  -3  -5 170.354 54.7432   6 
  -6  -3  -5 124.795 50.0300   5 
  -6  -3  -5 132.932 58.1111   8 
  -6  -3  -5 199.428 38.6432   7 
  -6  -3  -5 204.922 41.7214  16 
  -6  -3  -5 259.197 80.9188  22 
  -6  -3  -5 47.2016 61.9707  19 
  -6  -3  -4 112.436 45.4053  13 
  -6  -3  -4 108.617 41.4762  16 
  -6  -3  -4 9.00058 51.7522   4 
  -6  -3  -4 85.0677 41.6231   6 
  -6  -3  -4 114.866 53.5602   8 
  -6  -3  -4-22.0299 63.3910   5 
  -6  -3  -4 93.3182 29.7519   7 
   6   3   4 269.259 126.521  28 
  -6  -3  -4 44.0124 41.4697  19 
  -6  -3  -4 118.147 52.3143  22 
   6   3   4-132.573 80.2200  26 
  -6  -3  -3 45.8208 38.0133  13 
  -6  -3  -3 14.3342 29.5884  16 
  -6  -3  -3-161.899 141.161   4 
  -6  -3  -3 15.2928 29.2323   6 
  -6  -3  -3-56.7163 61.2266   9 
  -6  -3  -3-49.3529 80.3679   5 
  -6  -3  -3 13.3087 47.7413   8 
  -6  -3  -3 8.34531 21.2459   7 
   6   3   3-67.2878 68.1029  28 
  -6  -3  -3 0.82107 40.3670  19 
  -6  -3  -3 7.29682 44.7121  22 
  -6  -3  -2 10.5214 22.8157  13 
  -6  -3  -2 8.12702 39.0326  15 
  -6  -3  -2 14.3311 22.4688  16 
  -6  -3  -2-39.3065 91.1812   2 
  -6  -3  -2 24.8819 31.9211   6 
  -6  -3  -2 11.9842 36.7387   9 
  -6  -3  -2-80.6560 79.3311   5 
  -6  -3  -2-24.2832 71.6729   8 
  -6  -3  -2-19.5282 33.1804   7 
   6   3   2-58.4523 62.3151  28 
  -6  -3  -2 27.5107 38.7411  19 
  -6  -3  -2 7.05588 33.3850  22 
   6   3   2-126.279 83.6514  26 
  -6  -3  -1 422.608 90.1288  13 
  -6  -3  -1 256.316 59.4272  15 
  -6  -3  -1 297.067 42.5480  18 
  -6  -3  -1 340.639 44.5028  16 
  -6  -3  -1 195.002 78.5489   8 
  -6  -3  -1 333.430 81.2468   6 
  -6  -3  -1 174.298 47.0821   5 
  -6  -3  -1 314.446 41.7624   7 
  -6  -3  -1 387.349 91.7875  22 
  -6  -3   0 277.911 73.3486   6 
  -6  -3   0 143.012 99.3425   8 
  -6  -3   0 235.978 40.2735   7 
  -6  -3   0 438.608 101.849  13 
  -6  -3   0 286.056 68.9634  15 
  -6  -3   0 413.425 53.9720  18 
  -6  -3   0 254.225 42.2665  16 
  -6  -3   0 296.759 84.0492  22 
  -6  -3   1 2266.72 201.355   6 
  -6  -3   1 2304.24 251.449   5 
  -6  -3   1 2299.24 130.385   7 
  -6  -3   1 2010.17 177.985  15 
  -6  -3   1 2457.60 129.880  18 
  -6  -3   1 2519.96 242.192  13 
  -6  -3   1 2442.68 224.273  22 
  -6  -3   2 140.602 50.0098   6 
  -6  -3   2 190.630 35.0513   7 
  -6  -3   2 228.264 79.0730  13 
  -6  -3   2 142.283 47.2163  15 
  -6  -3   2 176.660 36.1813  18 
  -6  -3   2 173.831 59.4654  22 
  -6  -3   3 2111.80 178.856  15 
  -6  -3   3 2570.63 135.119  18 
  -6  -3   3 2879.54 258.896  13 
  -6  -3   3 2607.01 213.413  22 
  -6  -3   4 2611.36 136.657  18 
  -6  -3   4 2784.19 256.528  13 
  -6  -3   4 2827.52 207.014  22 
  -6  -3   5 322.165 82.6742  13 
  -6  -3   5 300.521 46.5054  18 
   6   3  -5 158.809 36.5690  23 
  -6  -3   6 131.648 52.5871  13 
  -6  -3   6 80.5879 24.0063  18 
   6   3  -6 102.525 34.2776  23 
  -6  -3   7 506.811 54.9296  18 
  -6  -3   7 727.644 110.139  13 
   6   3  -7 683.167 67.2581  23 
  -6  -3   8 376.309 71.6141  13 
   6   3  -8 287.082 39.1966  23 
  -6  -3   9 187.452 40.3500  13 
  -7  -4 -12 1109.59 82.8919  16 
   7   4  12 881.614 78.1408  33 
  -7  -4 -11 5067.86 191.371  16 
  -7  -4 -11 4850.09 246.206  19 
  -7  -4 -10 2371.85 141.947  16 
  -7  -4 -10 1984.81 177.981  19 
  -7  -4  -9 2289.90 150.878  16 
  -7  -4  -9 1811.59 192.095  19 
  -7  -4  -8 153.392 52.4309   6 
  -7  -4  -8 266.120 57.8723  16 
  -7  -4  -8 80.2100 66.4326  19 
  -7  -4  -7 966.607 120.133   6 
  -7  -4  -7 1083.83 86.0403   7 
  -7  -4  -7 1216.63 112.369  16 
  -7  -4  -7 1207.28 130.263  22 
  -7  -4  -6 54.3435 33.6513   6 
  -7  -4  -6 91.8441 34.7061   7 
  -7  -4  -6 39.1200 36.7622  16 
  -7  -4  -6 90.3778 75.6853  19 
  -7  -4  -6 24.4319 44.2027  22 
  -7  -4  -5 1455.67 163.733   6 
  -7  -4  -5 1508.82 108.142   7 
  -7  -4  -5 1752.00 126.577  16 
  -7  -4  -5 1616.41 172.882  22 
  -7  -4  -4 2550.53 221.922   6 
  -7  -4  -4 2786.88 150.222   7 
  -7  -4  -4 3169.23 165.825  16 
  -7  -4  -4 2967.08 239.993  22 
  -7  -4  -3 259.976 66.9078   6 
  -7  -4  -3 358.898 55.7125   7 
  -7  -4  -3 257.106 38.1928  16 
  -7  -4  -3 339.218 91.0620  22 
  -7  -4  -2 318.352 76.7370   6 
  -7  -4  -2 373.238 54.5591   7 
  -7  -4  -2 345.339 78.6236  13 
  -7  -4  -2 408.959 51.6853  18 
  -7  -4  -2 216.666 30.5498  16 
  -7  -4  -2 397.799 89.6967  22 
  -7  -4  -1 596.538 104.798   6 
  -7  -4  -1 631.838 71.3318   7 
  -7  -4  -1 649.196 68.1027  18 
  -7  -4  -1 951.698 98.3539  16 
  -7  -4  -1 578.469 104.717  13 
  -7  -4  -1 713.795 119.901  22 
  -7  -4   0 1050.38 131.580   6 
  -7  -4   0 1165.11 93.6048   7 
  -7  -4   0 1149.91 87.6900  18 
  -7  -4   0 981.625 138.263  13 
  -7  -4   0 1242.78 156.235  22 
  -7  -4   1 1009.82 125.060   6 
  -7  -4   1 1025.25 82.2976   7 
  -7  -4   1 1118.09 84.5819  18 
  -7  -4   1 1110.73 148.898  13 
  -7  -4   1 1093.92 134.002  22 
  -7  -4   2 565.184 87.0627   6 
  -7  -4   2 600.865 57.0932   7 
  -7  -4   2 712.859 67.4742  18 
  -7  -4   2 718.913 118.881  13 
  -7  -4   2 626.877 102.919  22 
  -7  -4   3-24.8668 35.0597  13 
  -7  -4   3 46.9012 21.5227  18 
  -7  -4   3-20.4552 31.6739  22 
  -7  -4   4 801.908 65.8433  18 
  -7  -4   4 633.253 97.9074  13 
   7   4  -4 698.981 70.4002  23 
  -7  -4   5 83.7187 34.5387  13 
  -7  -4   5 124.874 23.1273  18 
   7   4  -5 113.117 31.2538  23 
  -7  -4   6 48.5564 24.6517  13 
   7   4  -6-8.73709 15.8431  23 
  -8  -5 -10 94.0047 24.9723  16 
  -8  -5  -9 320.843 44.0133  16 
  -8  -5  -8 370.400 57.6599   6 
  -8  -5  -8 503.984 54.0773  16 
  -8  -5  -7 1618.83 137.328   6 
  -8  -5  -7 2070.04 118.211  16 
  -8  -5  -6 2617.75 188.159   6 
  -8  -5  -6 2580.73 173.785  22 
  -8  -5  -5 1526.01 147.989   6 
  -8  -5  -5 1743.55 100.678   7 
  -8  -5  -5 2007.28 110.417  16 
  -8  -5  -5 1629.93 146.178  22 
  -8  -5  -4 752.291 109.155   6 
  -8  -5  -4 852.745 72.6232   7 
  -8  -5  -4 956.223 78.3162  16 
  -8  -5  -4 841.516 109.595  22 
  -8  -5  -3 290.502 44.6469   7 
  -8  -5  -3 271.613 68.0761   6 
  -8  -5  -3 315.564 70.0649  22 
  -8  -5  -2 401.784 74.4084   6 
  -8  -5  -2 429.394 50.6971   7 
  -8  -5  -2 470.205 85.1984  22 
  -8  -5  -1 113.323 41.8710   6 
  -8  -5  -1 131.527 29.5465   7 
  -8  -5  -1 93.6927 40.1830  22 
  -8  -5   0 20.5860 26.7796   6 
  -8  -5   0 42.0873 14.9051  18 
  -8  -5   0 29.0339 28.8633  22 
  -8  -5   1 71.9724 30.5436   6 
  -8  -5   1 157.410 25.5412  18 
  -8  -5   1 114.424 36.9034  22 
  -8  -5   2 311.128 52.2083  22 
   8   5  -2 417.113 43.6929  23 
   5   9  -4 110.601 24.8143  31 
  -5  -9   4 81.1448 27.3100  22 
  -5  -9   3 501.572 40.4685  14 
  -5  -9   3 443.326 61.5787   6 
  -5  -9   3 525.085 44.7700   7 
   5   9  -3 610.044 62.6080  31 
  -5  -9   3 593.532 80.2570  22 
  -5  -9   2 1328.25 68.6189  14 
  -5  -9   2 1253.20 118.177   6 
  -5  -9   2 1569.06 87.8918   7 
   5   9  -2 1683.40 100.265  31 
  -5  -9   2 1242.82 126.637  22 
  -5  -9   1 611.347 93.5153   6 
  -5  -9   1 809.010 70.9262   7 
   5   9  -1 870.786 75.5264  31 
   5   9  -1 863.538 99.7873  34 
  -5  -9   1 737.525 97.0190  22 
  -5  -9   0 961.360 59.7578  18 
  -5  -9   0 708.727 107.013   6 
  -5  -9   0 1023.76 80.9816   7 
   5   9   0 769.179 78.6235  31 
   5   9   0 1033.56 117.659  34 
  -5  -9   0 869.980 109.525  22 
  -5  -9  -1 147.632 23.4837  18 
  -5  -9  -1 122.410 46.0874   6 
  -5  -9  -1 174.044 35.8623   7 
   5   9   1 192.938 56.6027  34 
   5   9   1 123.483 34.8443  31 
  -5  -9  -1 91.9762 38.2443  22 
  -5  -9  -2 2046.25 92.0521  18 
  -5  -9  -2 1548.73 159.541   6 
  -5  -9  -2 2340.71 123.716   7 
   5   9   2 2209.78 124.777  31 
   5   9   2 2281.22 181.571  34 
  -5  -9  -2 1655.65 148.469  22 
  -5  -9  -3 1618.09 85.1567  18 
  -5  -9  -3 1127.56 134.579   6 
  -5  -9  -3 1711.40 104.478   7 
   5   9   3 1734.43 108.485  31 
   5   9   3 1713.46 162.652  34 
  -5  -9  -3 1165.91 116.797  22 
  -5  -9  -4 625.354 52.9900  18 
   5   9   4 597.983 95.5468  34 
  -5  -9  -4 709.170 65.4863   7 
  -5  -9  -5 276.607 34.0980  18 
  -5  -9  -5 314.054 37.9677  17 
   5   9   5 351.454 67.3545  34 
  -5  -9  -5 206.457 54.4271   6 
  -5  -9  -5 290.724 38.3418   7 
  -5  -9  -6 668.312 53.9888  18 
  -5  -9  -6 674.184 54.4474  17 
   5   9   6 690.388 93.0838  34 
  -5  -9  -6 458.146 64.5654   6 
  -5  -9  -7 2698.69 100.513  18 
  -5  -9  -7 3067.63 105.114  17 
   5   9   7 2767.25 174.431  34 
   5   9   8 517.441 71.0795  34 
  -4  -8   8-6.16396 11.5383  14 
   4   8  -8-15.6138 23.5190  12 
   4   8  -8 26.3007 15.1779  31 
  -4  -8   7 338.509 39.0906  14 
   4   8  -7 317.907 42.9531  31 
  -4  -8   6 1319.18 84.1291  14 
   4   8  -6 1261.78 97.1386  31 
  -4  -8   6 1171.67 120.294  22 
  -4  -8   5-7.21769 18.3376  14 
   4   8  -5-16.6715 29.7348  31 
  -4  -8   5-12.7495 25.1010  22 
  -4  -8   4 421.781 55.2079  14 
  -4  -8   4 336.722 74.3007   6 
  -4  -8   4 419.947 56.5825   7 
   4   8  -4 543.233 76.4504  31 
   4   8  -4 492.948 88.8023  34 
  -4  -8   4 418.908 86.0920  22 
  -4  -8   3 371.377 54.0307  14 
  -4  -8   3 361.598 83.6304   6 
  -4  -8   3 499.816 69.5294   7 
   4   8  -3 375.642 86.2184  34 
   4   8  -3 358.143 64.8031  31 
  -4  -8   3 374.918 94.1264  22 
  -4  -8   2 1798.87 117.691  14 
  -4  -8   2 1427.42 183.712   6 
  -4  -8   2 1758.30 128.788   7 
   4   8  -2 1611.11 132.735  31 
   4   8  -2 1823.83 192.490  34 
  -4  -8   2 1449.11 183.916  22 
  -4  -8   1 148.725 27.2801  18 
  -4  -8   1 198.110 38.1721  14 
  -4  -8   1 157.909 43.9226   7 
  -4  -8   1 154.427 63.3540   6 
   4   8  -1 155.484 51.4544  31 
   4   8  -1 236.096 73.1619  34 
  -4  -8   1 155.165 82.0434  22 
  -4  -8   0 3584.68 147.105  18 
  -4  -8   0 3493.62 164.586  14 
  -4  -8   0 3673.97 162.826  17 
  -4  -8   0 3090.99 283.904   6 
  -4  -8   0 4071.11 207.420   7 
   4   8   0 3588.23 197.878  31 
   4   8   0 3541.56 282.645  34 
  -4  -8   0 2842.48 260.960  22 
  -4  -8  -1 4129.17 171.292  18 
  -4  -8  -1 4290.97 177.777  17 
  -4  -8  -1 3544.04 309.264   6 
  -4  -8  -1 4426.75 218.536   7 
   4   8   1 3977.40 298.548  34 
  -4  -8  -1 3209.77 279.696  22 
  -4  -8  -2 88.0307 25.4861  18 
  -4  -8  -2 163.583 40.1642  17 
  -4  -8  -2 89.3437 40.1756   7 
  -4  -8  -2 95.6282 63.6970   6 
   4   8   2 49.4952 48.2355  34 
  -4  -8  -2 142.619 53.2227  22 
  -4  -8  -3 188.028 36.3784  18 
  -4  -8  -3 187.000 43.7270  17 
  -4  -8  -3 175.868 44.3810   7 
  -4  -8  -3 154.610 74.0349   6 
   4   8   3 207.061 64.8443  34 
  -4  -8  -3 183.582 63.2145  22 
  -4  -8  -4 637.967 68.8369  18 
  -4  -8  -4 708.559 74.5322  17 
   4   8   4 750.818 133.653  34 
  -4  -8  -4 518.718 118.984   6 
  -4  -8  -4 605.713 80.7365   7 
  -4  -8  -5 1117.34 95.3678  18 
  -4  -8  -5 1052.96 85.6905  17 
   4   8   5 1154.98 162.253  34 
  -4  -8  -5 948.871 147.170   6 
  -4  -8  -5 1257.82 102.905   7 
  -4  -8  -6-17.6189 25.6977  18 
  -4  -8  -6-80.7997 42.8787  17 
   4   8   6-7.95211 33.9100  34 
  -4  -8  -6-5.23016 27.7100   6 
  -4  -8  -7 250.936 44.8151  18 
  -4  -8  -7 294.048 44.9212  17 
   4   8   7 263.886 73.0399  34 
  -4  -8  -8 2784.01 123.186  17 
  -4  -8  -8 2651.87 130.487  18 
   4   8   8 2844.21 220.233  34 
  -4  -8  -9 5337.45 175.221  18 
  -4  -8  -9 5705.80 161.055  17 
   4   8   9 5700.76 207.166  33 
  -4  -8 -10 1287.48 78.1815  18 
  -4  -8 -10 1433.21 69.2960  17 
   4   8  10 1434.59 94.5398  33 
   3   7 -10-20.5499 22.4305  12 
   3   7 -10-18.6609 18.2117  31 
  -3  -7   9 73.1742 21.8569  14 
   3   7  -9 64.2213 23.6679  31 
  -3  -7   8 200.445 36.6245  14 
   3   7  -8 216.759 47.6812  31 
  -3  -7   7 1844.23 115.736  14 
   3   7  -7 1737.10 134.699  31 
  -3  -7   7 1597.64 157.990  22 
  -3  -7   6 35.5246 26.4553  14 
   3   7  -6 36.0192 49.0506  34 
   3   7  -6-28.9724 45.0173  31 
  -3  -7   5 643.289 77.4556  14 
   3   7  -5 601.864 113.762  34 
   3   7  -5 503.902 77.7134  31 
  -3  -7   5 497.405 66.6120   7 
  -3  -7   4 372.815 58.5229  14 
   3   7  -4 367.506 67.5469  31 
   3   7  -4 370.313 91.2848  34 
  -3  -7   4 339.898 61.4857   7 
  -3  -7   4 247.840 77.1095   6 
  -3  -7   3 587.586 77.4494  14 
   3   7  -3 579.798 86.9026  31 
   3   7  -3 579.459 118.272  34 
  -3  -7   3 461.466 73.4680   7 
  -3  -7   2 2056.47 139.640  14 
  -3  -7   2 1782.81 110.859  17 
   3   7  -2 1839.61 154.939  31 
   3   7  -2 1926.49 215.491  34 
  -3  -7   2 1961.81 156.624   7 
  -3  -7   1-2.27254 20.1411  17 
  -3  -7   1-18.1586 31.8502  14 
   3   7  -1 23.9893 34.8842  34 
  -3  -7   1 25.1315 34.9469   7 
  -3  -7   0 181.155 31.9596  18 
  -3  -7   0 246.734 44.1939  17 
  -3  -7   0 138.531 30.9099  14 
   3   7   0 235.577 68.6271  34 
  -3  -7   0 200.631 61.5550   7 
  -3  -7  -1 21349.3 396.116  18 
  -3  -7  -1 20961.8 432.688  14 
  -3  -7  -1 21789.3 403.776  17 
   3   7   1 21359.9 722.127  34 
  -3  -7  -1 22680.8 513.519   7 
  -3  -7  -2 1159.22 92.0364  18 
  -3  -7  -2 1246.22 104.318  14 
  -3  -7  -2 1222.93 96.4908  17 
   3   7   2 1302.69 183.401  34 
  -3  -7  -2 1210.71 120.251   7 
  -3  -7  -3 2450.99 141.852  18 
  -3  -7  -3 2502.04 143.404  17 
   3   7   3 2515.08 245.536  34 
  -3  -7  -3 2478.70 168.800   7 
  -3  -7  -4 33781.7 537.482  18 
  -3  -7  -4 33899.5 508.814  17 
   3   7   4 32223.1 888.944  34 
  -3  -7  -4 33062.7 592.747   7 
  -3  -7  -5 4667.75 206.809  18 
  -3  -7  -5 4799.80 193.285  17 
  -3  -7  -5 4461.11 211.201   7 
  -3  -7  -6 132.297 35.2565  17 
  -3  -7  -6 72.4318 20.6880  18 
   3   7   6 93.9714 40.4536  33 
  -3  -7  -6 145.733 45.7326   6 
  -3  -7  -7 4233.44 177.366  17 
  -3  -7  -7 4116.12 201.728  18 
   3   7   7 3916.02 238.848  33 
  -3  -7  -8 785.840 79.3744  17 
  -3  -7  -8 767.656 89.5594  18 
   3   7   8 749.536 106.120  33 
  -3  -7  -9 2757.65 157.169  18 
  -3  -7  -9 2721.80 131.831  17 
   3   7   9 2788.56 200.097  33 
  -3  -7 -10 2034.10 129.172  18 
  -3  -7 -10 1913.79 103.169  17 
   3   7  10 2095.60 162.986  33 
  -3  -7 -11 376.180 51.1597  18 
  -3  -7 -11 356.472 41.0213  17 
   3   7  11 379.601 64.6276  34 
   3   7  11 365.356 64.7063  33 
  -3  -7 -12 1856.53 96.8687  18 
   3   7  12 1992.19 127.041  33 
   2   6 -12 95.3992 25.2022  31 
  -2  -6  12 61.8591 27.4468  32 
  -2  -6  11 73.2768 28.4579  13 
   2   6 -11 104.472 37.8878  12 
   2   6 -11 94.1429 27.5138  31 
  -2  -6  11 46.5191 19.4665  32 
  -2  -6  10 118.492 28.9056  14 
  -2  -6  10 77.1471 31.5396  13 
   2   6 -10 200.636 68.9626  12 
   2   6 -10 220.663 49.1835  31 
  -2  -6  10 186.601 62.1462  32 
  -2  -6   9 2723.70 133.702  14 
   2   6  -9 2910.72 173.000  31 
  -2  -6   9 2721.70 221.201  32 
  -2  -6   8 125.876 31.8642  14 
  -2  -6   8 81.9835 42.1529  32 
   2   6  -8 103.015 41.9789  31 
   2   6  -8 58.8087 48.0161  34 
  -2  -6   7 1206.48 99.5709  14 
   2   6  -7 1124.81 117.047  31 
   2   6  -7 1199.38 173.502  34 
  -2  -6   7 1085.22 152.458  32 
  -2  -6   6 17784.8 388.253  14 
   2   6  -6 17501.4 674.740  34 
   2   6  -6 16568.0 449.436  31 
  -2  -6   6 16302.7 577.381  32 
   2   6  -6 17480.7 652.519  20 
  -2  -6   5 980.782 94.7126  14 
  -2  -6   5 832.583 96.8906   7 
   2   6  -5 1126.20 171.969  34 
   2   6  -5 896.601 106.233  31 
   2   6  -5 1142.73 368.943  24 
  -2  -6   4 10529.6 303.869  14 
  -2  -6   4 8727.90 991.463   1 
   2   6  -4 9242.80 330.665  31 
   2   6  -4 10083.8 496.484  34 
   2   6  -4 10163.4 1079.09  24 
  -2  -6   3 9354.68 287.079  14 
  -2  -6   3 7219.78 921.274   1 
  -2  -6   3 7292.62 919.040   2 
   2   6  -3 9411.74 469.083  34 
   2   6  -3 8322.47 307.845  31 
   2   6  -3 9327.59 1018.24  24 
  -2  -6   2 16866.3 383.931  14 
  -2  -6   2 14221.2 279.625  17 
  -2  -6   2 12089.9 1208.23   1 
  -2  -6   2 11755.9 1178.59   2 
   2   6  -2 15205.4 1109.15  30 
   2   6  -2 15915.5 599.468  34 
   2   6  -2 17310.7 1341.34  24 
  -2  -6   1 2274.75 139.722  14 
  -2  -6   1 1935.57 104.437  17 
  -2  -6   1 1118.55 374.730   1 
  -2  -6   1 1400.56 411.663   2 
   2   6  -1 2333.50 224.745  34 
   2   6  -1 2082.62 419.915  30 
   2   6  -1 1814.44 414.871  24 
  -2  -6   0 4375.59 190.636  14 
  -2  -6   0 3816.25 150.361  17 
  -2  -6   0 2902.07 588.840   1 
  -2  -6   0 3002.34 603.630   2 
   2   6   0 3790.23 558.447  30 
   2   6   0 3929.84 288.077  34 
   2   6   0 3411.66 555.973  24 
  -2  -6  -1 323.442 50.7446  14 
  -2  -6  -1 260.291 39.5808  17 
  -2  -6  -1 47.2959 88.6218   1 
  -2  -6  -1 297.473 190.884   2 
   2   6   1 263.463 66.7854  34 
   2   6   1 338.273 174.274  30 
   2   6   1 118.840 68.6247  24 
  -2  -6  -2 9200.78 269.488  14 
  -2  -6  -2 8833.29 237.376  17 
  -2  -6  -2 7061.57 931.326   1 
  -2  -6  -2 6960.49 913.924   2 
   2   6   2 9174.70 448.962  34 
   2   6   2 8969.45 893.306  30 
   2   6   2 9619.90 946.932  29 
   2   6   2 8260.98 870.423  24 
  -2  -6  -3 1283.15 103.597  18 
  -2  -6  -3 1411.52 104.034  14 
  -2  -6  -3 1409.25 96.0634  17 
   2   6   3 1412.36 349.669  29 
   2   6   3 1307.71 128.700  33 
   2   6   3 1517.99 378.181  30 
  -2  -6  -3 840.054 331.402   1 
  -2  -6  -3 1369.60 422.986   2 
  -2  -6  -4 4236.77 173.394  17 
  -2  -6  -4 3966.70 189.267  18 
  -2  -6  -4 3509.81 655.912   1 
  -2  -6  -4 2860.30 601.044   2 
   2   6   4 3994.57 241.848  33 
   2   6   4 4182.95 651.394  30 
   2   6   4 4475.89 628.423  29 
  -2  -6  -5 75.2077 25.8818  17 
  -2  -6  -5 176.504 152.480   1 
   2   6   5 129.146 51.7866  33 
   2   6   5 97.8615 76.7424  30 
   2   6   5 123.288 47.5750  21 
  -2  -6  -6 9773.42 270.019  17 
   2   6   6 9849.04 407.929  33 
   2   6   6 9624.41 380.906  21 
  -2  -6  -7 60.2106 25.2242  17 
   2   6   7 120.760 50.4630  33 
   2   6   7 90.4549 43.6269  21 
  -2  -6  -8 14235.1 327.002  17 
   2   6   8 14947.9 521.225  33 
   2   6   8 14185.5 481.421  21 
  -2  -6  -9 106.708 30.6996  17 
   2   6   9 121.612 50.4365  33 
   2   6   9 97.8067 42.5617  21 
  -2  -6 -10 1656.60 103.791  17 
   2   6  10 1773.47 164.948  21 
  -2  -6 -11 4931.10 164.529  17 
   2   6  11 5623.36 289.815  33 
   2   6  11 5467.68 277.359  21 
   2   6  12 3170.88 191.670  33 
   2   6  12 3126.35 187.977  21 
   2   6  13 601.521 72.5615  33 
   2   6  13 601.853 71.3671  21 
  -1  -5  13 945.905 101.412  13 
   1   5 -13 1280.70 120.345  12 
   1   5 -13 1295.80 90.5274  31 
  -1  -5  13 1166.73 114.120  32 
   1   5 -13 1118.06 128.817  19 
  -1  -5  12 459.515 85.2725  13 
   1   5 -12 653.129 109.377  12 
   1   5 -12 656.005 78.1060  31 
  -1  -5  12 610.228 97.6354  32 
   1   5 -11 841.292 137.057  12 
   1   5 -11 822.280 94.8175  31 
   1   5 -11 724.134 118.924  34 
  -1  -5  11 753.690 117.508  32 
   1   5 -10 132.163 66.0893  12 
  -1  -5  10 160.291 31.2721  14 
  -1  -5  10 109.140 53.7842  32 
   1   5 -10 160.212 74.3324  34 
   1   5 -10 120.303 47.2883  31 
  -1  -5   9 5088.79 189.595  14 
   1   5  -9 5273.31 245.719  31 
   1   5  -9 5064.57 370.963  34 
  -1  -5   9 4671.73 319.659  32 
  -1  -5   8 263.065 44.6440  14 
  -1  -5   8 302.378 91.7777  32 
   1   5  -8 294.834 103.918  34 
   1   5  -8 208.697 55.3689  31 
   1   5  -8 279.164 97.8079  20 
  -1  -5   7 12.0391 20.2378  14 
  -1  -5   7 1.94848 43.7171  32 
   1   5  -7 47.3713 43.0191  34 
   1   5  -7-8.73714 25.8346  31 
   1   5  -7 25.4757 44.6755  20 
  -1  -5   6 5317.07 200.126  14 
   1   5  -6 5391.27 366.913  34 
   1   5  -6 4901.44 229.110  31 
  -1  -5   6 4725.28 317.713  32 
   1   5  -6 4856.84 338.686  20 
   1   5  -6 5568.10 746.770  24 
  -1  -5   5 2359.54 133.661  14 
  -1  -5   5 1575.33 376.510   1 
  -1  -5   5 1695.85 373.379   2 
   1   5  -5 1998.03 141.299  31 
   1   5  -5 2488.90 240.006  34 
  -1  -5   5 2016.69 201.598  32 
   1   5  -5 2150.97 215.868  20 
   1   5  -5 2182.49 471.257  24 
  -1  -5   4 567.087 226.983   2 
  -1  -5   4 709.153 257.252   1 
   1   5  -4 967.304 315.592  24 
  -1  -5   3 117.312 96.3425   2 
  -1  -5   3 223.023 147.104   1 
   1   5  -3 28.0943 61.1785  30 
   1   5  -3 156.497 132.426  24 
  -1  -5   2 12681.3 534.246  10 
   1   5  -2 12708.5 939.953  30 
   1   5  -2 11834.5 993.649  24 
  -1  -5   1 10807.9 491.776  10 
   1   5  -1 9876.16 815.048  30 
   1   5  -1 10395.5 897.188  24 
  -1  -5   0 1385.88 181.927  10 
   1   5   0 1526.74 318.367  30 
   1   5   0 1641.62 354.264  29 
   1   5   0 1420.88 337.322  24 
  -1  -5  -1 3666.45 304.408  10 
   1   5   1 3917.63 521.177  30 
   1   5   1 4033.17 555.332  29 
  -1  -5  -1 3435.62 347.717  26 
   1   5   1 4075.38 548.570  24 
  -1  -5  -2 728.574 148.557  10 
  -1  -5  -2 1057.37 321.539   1 
   1   5   2 838.738 255.402  29 
   1   5   2 794.526 238.247  30 
  -1  -5  -2 836.536 176.939  26 
   1   5   2 981.736 272.889  24 
  -1  -5  -3 3937.93 596.395   1 
  -1  -5  -3 4320.56 370.526  10 
  -1  -5  -3 4005.02 598.553   2 
   1   5   3 4705.31 594.821  29 
   1   5   3 4575.86 585.252  30 
  -1  -5  -3 4597.53 399.778  26 
  -1  -5  -4 18423.9 1291.24   1 
  -1  -5  -4 18903.7 819.518  10 
  -1  -5  -4 17923.0 1256.66   2 
   1   5   4 20131.8 1246.42  29 
   1   5   4 20032.8 1272.98  30 
  -1  -5  -4 20625.7 928.072  25 
  -1  -5  -4 20599.6 846.890  26 
  -1  -5  -5 15445.0 317.984  17 
  -1  -5  -5 15821.5 1187.97   1 
  -1  -5  -5 14672.6 771.261  10 
  -1  -5  -5 13614.2 1092.01   2 
   1   5   5 15341.0 1100.04  29 
   1   5   5 16143.5 496.838  33 
   1   5   5 15552.3 1170.72  30 
  -1  -5  -5 16420.4 862.492  25 
  -1  -5  -5 15626.6 779.359  26 
   1   5   5 15705.2 482.882  21 
   1   5   6 7429.95 640.608  11 
  -1  -5  -6 9338.82 254.023  17 
  -1  -5  -6 8519.66 626.526  10 
   1   5   6 8706.46 845.944  29 
   1   5   6 9463.94 401.059  33 
   1   5   6 9679.76 951.202  30 
  -1  -5  -6 9963.44 704.625  25 
   1   5   6 9015.11 381.132  21 
  -1  -5  -6 9105.07 617.188  26 
  -1  -5  -7 22778.7 411.923  17 
   1   5   7 20361.9 1058.06  11 
  -1  -5  -7 23795.4 1105.38  10 
   1   5   7 22478.3 1414.50  29 
   1   5   7 23082.0 648.110  33 
   1   5   7 24500.0 1554.18  30 
  -1  -5  -7 24976.1 1149.76  25 
   1   5   7 22895.2 633.493  21 
  -1  -5  -7 23694.2 1023.17  26 
  -1  -5  -8 907.650 88.2355  17 
   1   5   8 818.058 125.882  33 
   1   5   8 844.845 125.645  21 
  -1  -5  -9 3.94698 25.9554  17 
   1   5   9 39.5073 31.6992  33 
   1   5   9-25.3225 39.7142  21 
  -1  -5 -10 24.4626 22.6732  17 
   1   5  10 65.0998 31.0123  33 
   1   5  10 62.9069 45.7073  21 
  -1  -5 -11 1137.76 85.9963  17 
   1   5  11 1113.23 138.451  33 
   1   5  11 1021.66 129.796  21 
  -1  -5 -12 2156.74 104.261  17 
   1   5  12 2290.28 173.864  33 
   1   5  12 2374.49 188.524  21 
   1   5  13 1508.96 119.235  33 
   1   5  13 1457.08 127.368  21 
   1   5  14 101.983 28.3145  21 
   0  -4  15 74.3771 26.4999  13 
   0   4 -15 46.3106 16.4856  31 
   0   4 -14 65.1594 25.3904  31 
   0  -4  14 47.1543 21.3419  32 
   0   4 -14 55.8499 36.3668  19 
   0   4 -13 23.2330 31.0785  12 
   0   4 -13-4.88295 37.0366  19 
   0   4 -13-27.6824 27.8808  31 
   0   4 -13-13.7970 32.5684  34 
   0  -4  13-11.7066 31.5300  32 
   0   4 -12 1138.53 167.023  12 
   0   4 -12 1112.28 111.355  31 
   0   4 -12 1168.83 182.971  34 
   0  -4  12 871.553 136.557  32 
   0   4 -11 61.0538 56.9016  12 
   0  -4  11 26.1632 46.7325  32 
   0   4 -11-29.0837 37.2469  31 
   0   4 -11 31.3228 49.8571  34 
   0   4 -10 4154.73 338.812  12 
   0   4 -10 3797.92 205.657  31 
   0   4 -10 3887.75 338.365  34 
   0  -4  10 3363.05 275.798  32 
   0   4 -10 3443.70 312.439  20 
   0   4  -9 87.1751 60.2689  12 
   0  -4   9 144.754 62.2905  32 
   0   4  -9 156.843 51.8120  31 
   0  -4   9 8.90550 64.8781  27 
   0   4  -9 214.073 88.7696  34 
   0   4  -9 194.167 78.4014  20 
   0  -4   8 21299.1 914.589  10 
   0  -4   8 23681.2 1077.56  11 
   0   4  -8 21981.1 474.226  31 
   0  -4   8 22988.6 909.128  27 
   0   4  -8 22019.3 760.878  34 
   0  -4   8 21146.1 677.886  32 
   0   4  -8 22218.2 743.272  20 
   0   4  -8 21982.7 1048.68  25 
   0  -4   7 431.303 136.986  11 
   0  -4   7 373.109 46.5439  14 
   0  -4   7 492.342 135.376  10 
   0  -4   7 404.332 83.6543  32 
   0   4  -7 357.817 63.9188  31 
   0   4  -7 416.615 101.790  34 
   0  -4   7 527.133 132.167  27 
   0   4  -7 364.708 92.6482  20 
   0   4  -7 582.929 163.373  24 
   0  -4   6 648.601 165.786  11 
   0  -4   6 975.365 180.153  10 
   0   4  -6 718.412 162.879   3 
   0  -4   6 824.402 156.583  27 
   0   4  -6 604.934 207.775  24 
   0  -4   5 10210.7 624.034  11 
   0  -4   5 9730.36 545.888  10 
   0   4  -5 9926.25 574.526   3 
   0  -4   5 11127.5 543.687  27 
   0   4  -5 9027.03 809.260  24 
   0  -4   4 38811.1 1039.67  10 
   0   4  -4 38700.6 1629.35  24 
   0  -4   3 18807.5 694.629  10 
   0   4  -3 17046.8 1027.72  30 
   0  -4   3 20304.2 644.945  27 
   0   4  -3 18567.5 1115.54  24 
   0  -4   2 19.6852 32.4542  10 
   0   4  -2-89.4620 82.6669  30 
   0   4  -2 5.77206 61.0288  29 
   0  -4   2 3.11929 25.1843  26 
   0  -4   2 9.95909 27.8785  27 
   0   4  -2 31.4397 109.260  24 
   0  -4   1 27326.2 776.696  10 
   0   4  -1 26887.3 1234.43  30 
   0  -4   1 29806.3 711.595  27 
   0   4  -1 27308.5 1311.80  29 
   0  -4   1 26865.5 723.318  26 
   0   4  -1 28293.8 1342.90  24 
   0  -4   0 3527.97 276.254  10 
   0   4   0 3647.01 447.713  30 
   0   4   0 3456.96 455.549  29 
   0   4   0 3752.82 490.820  24 
   0  -4   0 3656.71 296.601  26 
   0  -4  -1 19936.0 676.039  10 
   0   4   1 19578.1 1082.32  29 
   0   4   1 19916.9 1049.94  30 
   0  -4  -1 20118.5 723.334  26 
   0   4   1 20602.6 1149.36  24 
   0  -4  -2 11685.3 539.590  10 
   0   4   2 11753.5 838.741  29 
   0   4   2 11435.6 806.727  30 
   0  -4  -2 11877.5 573.771  26 
   0  -4  -3 21027.9 771.168  10 
   0   4   3 21635.5 1175.44  29 
   0   4   3 21144.0 1121.24  30 
   0  -4  -3 24488.4 869.348  25 
   0  -4  -3 21954.8 816.492  26 
   0  -4  -4 471.187 126.816  10 
   0   4   4 520.779 117.659   3 
   0   4   4 534.692 185.345  29 
   0   4   4 510.814 193.581  30 
   0  -4  -4 439.991 122.981  26 
   0  -4  -4 468.517 123.021  25 
   0   4   5 1271.08 217.679  11 
   0  -4  -5 1246.15 219.921  10 
   0   4   5 1463.61 323.666  29 
   0   4   5 1301.64 282.551  30 
   0  -4  -5 1465.59 231.094  25 
   0  -4  -5 1361.13 217.279  26 
   0   4   6 430.773 134.549  11 
   0  -4  -6 489.180 59.6377  17 
   0  -4  -6 514.853 147.873  10 
   0   4   6 486.462 205.937  29 
   0   4   6 473.576 83.6177  33 
   0   4   6 773.907 263.612  30 
   0  -4  -6 477.618 132.515  25 
   0   4   6 471.252 86.4304  21 
   0  -4  -6 540.119 147.695  26 
   0  -4  -7 3790.60 171.468  17 
   0   4   7 3220.16 380.358  11 
   0  -4  -7 3911.64 434.633  10 
   0   4   7 3778.67 584.574  29 
   0   4   7 3376.14 236.467  33 
   0  -4  -7 4057.52 439.771  25 
   0  -4  -7 3479.15 385.707  26 
   0   4   7 3987.32 265.081  21 
   0  -4  -8 1101.24 96.7767  17 
   0   4   8 750.439 193.517  11 
   0   4   8 1170.52 328.245  29 
   0   4   8 1050.96 138.094  33 
   0  -4  -8 923.875 219.047  25 
   0   4   8 1093.85 148.299  21 
   0  -4  -8 1173.19 226.934  26 
   0  -4  -9 5115.59 205.277  17 
   0   4   9 5114.42 302.433  33 
   0   4   9 5282.33 326.450  21 
   0   4  10-15.6620 40.3373  15 
   0  -4 -10-13.3462 23.4013  17 
   0   4  10 2.81168 41.4327  33 
   0   4  10-21.2396 54.5976  21 
   0   4  11 566.472 96.8124  15 
   0  -4 -11 499.312 61.3047  17 
   0   4  11 545.660 91.9876  33 
   0   4  11 551.209 107.027  21 
   0   4  12 25.2666 35.2734  15 
   0  -4 -12 8.49459 17.6445  17 
   0   4  12 10.5767 25.1304  33 
   0   4  12 19.3943 39.2429  21 
   0   4  13 1065.35 100.662  15 
   0   4  13 1162.68 97.5036  33 
   0   4  13 1096.61 118.105  21 
   0   4  14 6359.33 228.316  21 
  -1   3 -15 757.732 66.1591  31 
   1  -3  15 589.466 75.1726  32 
   1  -3  15 512.327 70.9219  21 
  -1   3 -14-17.5433 27.4130  31 
   1  -3  14-12.6593 25.1573  32 
  -1   3 -14 43.9082 36.0556  19 
  -1   3 -13 287.219 81.0740  12 
  -1   3 -13 373.026 116.427  19 
   1  -3  13 231.071 66.0575  32 
  -1   3 -13 257.666 59.0257  31 
  -1   3 -13 239.645 94.3707  34 
  -1   3 -12 8424.69 463.562  12 
  -1   3 -12 8248.46 291.524  31 
  -1   3 -12 8374.99 500.375  34 
   1  -3  12 7994.46 404.549  32 
  -1   3 -11 2710.11 276.068  12 
  -1   3 -11 2596.38 169.721  31 
  -1   3 -11 2506.72 283.310  34 
   1  -3  11 2596.24 236.447  32 
  -1   3 -11 2463.77 258.019  20 
  -1   3 -10 8471.98 488.357  12 
  -1   3 -10 7775.81 479.975  34 
  -1   3 -10 8168.83 298.528  31 
   1  -3  10 8461.49 927.050  29 
   1  -3  10 8148.22 423.204  32 
  -1   3 -10 7479.84 452.426  20 
   1  -3   9 4750.49 458.967  11 
  -1   3  -9 4867.57 372.553  12 
  -1   3  -9 4612.18 217.507  31 
   1  -3   9 4761.11 427.818  27 
  -1   3  -9 4382.83 345.626  34 
   1  -3   9 4792.60 318.942  32 
  -1   3  -9 4517.95 335.445  20 
  -1   3  -9 4201.42 444.162  25 
   1  -3   8 197.673 90.4393  11 
  -1   3  -8 86.3949 35.7320  12 
   1  -3   8 24.9605 33.5042  32 
  -1   3  -8 71.2283 37.9629  34 
  -1   3  -8 103.920 36.4785  31 
   1  -3   8 149.749 76.4042  27 
  -1   3  -8 71.7525 39.1786  20 
  -1   3  -8 101.742 36.9872  25 
   1  -3   7 7189.82 510.114  11 
   1  -3   7 7644.59 497.814  27 
  -1   3  -7 7652.36 530.135  25 
  -1   3  -6 44.2273 50.0803   3 
   1  -3   6 83.6063 61.4781  11 
   1  -3   6 120.963 40.9332  27 
  -1   3  -6 157.115 51.0061  24 
   1  -3   5 5284.48 381.198  11 
   1  -3   5 4335.75 366.858  10 
  -1   3  -5 4547.63 371.184   3 
   1  -3   5 4938.22 358.143  27 
  -1   3  -5 5504.97 581.058  24 
   1  -3   4-15.4902 31.4934  10 
  -1   3  -4 17.6905 37.3146   3 
   1  -3   4 44.6768 35.9578  11 
   1  -3   4-17.4097 27.9761  27 
  -1   3  -4-6.13655 72.6795  24 
   1  -3   3 16656.6 658.394  10 
  -1   3  -3 16342.4 704.709   3 
   1  -3   3 16899.4 605.625  27 
  -1   3  -3 16867.4 1018.99  29 
  -1   3  -3 18109.9 1050.76  24 
  -1   3  -2 5103.36 391.934   3 
   1  -3   2 5717.18 371.888  10 
  -1   3  -2 5522.51 546.144  30 
   1  -3   2 5028.54 324.939  27 
  -1   3  -2 5355.76 546.414  29 
   1  -3   2 5682.47 283.835  26 
  -1   3  -2 5782.60 592.291  24 
   1  -3   1 41208.6 975.895  10 
  -1   3  -1 39651.4 1427.61  29 
  -1   3  -1 39111.2 1433.62  30 
   1  -3   1 41755.9 827.947  26 
   1  -3   0 9630.64 462.519  10 
  -1   3   0 8573.82 499.876   3 
  -1   3   0 9420.15 678.537  29 
  -1   3   0 9977.01 709.336  30 
   1  -3   0 9839.88 437.228  26 
   1  -3  -1 33187.7 859.155  10 
  -1   3   1 31316.4 918.436   3 
  -1   3   1 32591.6 1284.19  29 
  -1   3   1 34463.4 1329.63  30 
   1  -3  -1 31653.4 836.447  26 
  -1   3   2 29345.1 855.171   3 
   1  -3  -2 30873.2 858.384  10 
  -1   3   2 30707.5 1282.21  29 
  -1   3   2 32256.8 1290.08  30 
   1  -3  -2 29401.3 856.867  26 
  -1   3   3 8883.82 471.314  11 
   1  -3  -3 9791.14 510.764  10 
  -1   3   3 9165.79 458.685   3 
  -1   3   3 9706.77 749.963  29 
  -1   3   3 9989.88 725.682  30 
   1  -3  -3 11014.6 490.195  25 
   1  -3  -3 8851.33 501.923  26 
  -1   3   4 97.1741 53.3142  11 
   1  -3  -4 58.1898 50.4576  10 
  -1   3   4 147.661 49.5560   3 
  -1   3   4 110.608 81.8210  29 
  -1   3   4 36.3028 93.1532  30 
   1  -3  -4 53.7715 47.8968  26 
   1  -3  -4 159.430 66.2387  25 
  -1   3   5 861.982 160.497  11 
   1  -3  -5 630.783 146.489  10 
  -1   3   5 992.249 265.919  29 
  -1   3   5 712.431 198.439  30 
   1  -3  -5 775.709 166.045  26 
   1  -3  -5 828.109 155.090  25 
   1  -3  -6 19902.8 380.032  17 
   1  -3  -6 21520.7 922.738  10 
  -1   3   6 20249.7 1272.08  29 
   1  -3  -6 19237.8 856.092  26 
   1  -3  -7 14293.8 338.632  17 
   1  -3  -7 15476.5 835.090  10 
  -1   3   7 15438.2 1172.18  29 
  -1   3   7 14239.2 469.128  33 
  -1   3   7 14138.3 458.999  32 
  -1   3   7 14010.6 492.806  21 
   1  -3  -7 12627.3 721.771  26 
   1  -3  -8 10792.4 301.915  17 
  -1   3   8 11696.4 1074.21  29 
  -1   3   8 10887.4 420.591  33 
  -1   3   8 10695.8 419.663  32 
   1  -3  -8 9537.51 646.461  26 
  -1   3   8 11066.8 455.830  21 
  -1   3   9 4347.31 276.501  15 
   1  -3  -9 4275.63 194.880  17 
  -1   3   9 4336.92 266.930  33 
  -1   3   9 4288.25 270.129  32 
  -1   3   9 4328.98 291.496  21 
  -1   3  10 10653.6 434.560  15 
   1  -3 -10 10080.8 293.530  17 
  -1   3  10 10424.1 402.926  33 
  -1   3  10 10376.5 415.252  32 
  -1   3  10 10358.4 448.636  21 
  -1   3  11 1203.30 143.804  15 
   1  -3 -11 1163.18 95.1200  17 
  -1   3  11 1124.42 128.716  32 
  -1   3  11 1083.85 137.768  21 
  -1   3  12 2606.80 190.558  15 
   1  -3 -12 2245.26 114.084  17 
  -1   3  12 2439.32 173.510  32 
  -1   3  12 2509.35 192.238  21 
  -1   3  13 275.844 54.2252  15 
  -1   3  13 237.456 51.8704  21 
  -1   3  14 1242.30 90.6865  15 
  -2   2 -16 7.87724 12.7288  31 
   2  -2  16 35.9038 17.9535  21 
  -2   2 -15 308.168 48.0342  31 
  -2   2 -14 74.4951 43.1000  12 
  -2   2 -14 16.1844 20.7551  31 
   2  -2  14 40.0856 38.4779  32 
  -2   2 -14 91.5695 50.6946  19 
  -2   2 -13-0.67448 56.3908  12 
   2  -2  13 33.9457 32.0354  32 
  -2   2 -13 8.29190 25.0755  31 
  -2   2 -13 28.6492 57.8425  19 
  -2   2 -12 887.673 150.640  12 
  -2   2 -12 1051.06 110.193  31 
  -2   2 -12 922.480 173.547  34 
   2  -2  12 1044.55 145.407  32 
  -2   2 -12 1277.16 198.258  19 
  -2   2 -11 1181.56 186.927  12 
  -2   2 -11 1078.46 188.921  19 
  -2   2 -11 1066.09 107.597  31 
  -2   2 -11 1154.05 195.555  34 
   2  -2  11 1069.39 145.349  32 
  -2   2 -11 1027.83 159.447  20 
   2  -2  10 3027.22 363.343  11 
  -2   2 -10 2956.00 296.672  12 
  -2   2 -10 3160.74 184.053  31 
   2  -2  10 2711.06 328.549  27 
  -2   2 -10 2931.76 300.437  34 
   2  -2  10 3041.76 254.172  32 
  -2   2 -10 2854.92 265.276  20 
  -2   2 -10 2785.24 380.468  25 
   2  -2   9 5387.62 463.012  11 
  -2   2  -9 5407.64 382.536  12 
  -2   2  -9 5436.04 227.811  31 
  -2   2  -9 5154.54 374.498  34 
   2  -2   9 5708.55 473.983  27 
   2  -2   9 5783.25 333.139  32 
  -2   2  -9 5035.32 338.579  20 
  -2   2  -9 5635.51 503.710  25 
  -2   2  -8 72.0171 49.6513  12 
   2  -2   8 85.5786 55.1968  11 
  -2   2  -8-26.8407 50.5521  34 
   2  -2   8 19.5037 29.7316  27 
   2  -2   7 963.693 170.486  11 
  -2   2  -7 706.121 131.758   3 
   2  -2   7 990.859 176.728  27 
  -2   2  -7 897.640 174.883  25 
   2  -2   6 12886.0 566.130  11 
  -2   2  -6 11707.2 558.556   3 
   2  -2   6 12907.9 613.652  27 
  -2   2  -6 12709.0 585.758  25 
   2  -2   5 7485.79 391.779  11 
  -2   2  -5 7653.73 455.273   3 
   2  -2   5 7559.44 452.052  27 
  -2   2  -5 7725.39 408.587  25 
   2  -2   4 3696.66 246.696  11 
   2  -2   4 3545.48 315.660  10 
  -2   2  -4 3832.20 326.475   3 
   2  -2   4 3633.78 297.853  27 
  -2   2  -4 3781.30 256.244  25 
   2  -2   3 2846.20 270.131  10 
  -2   2  -3 3216.40 291.518   3 
  -2   2  -3 2704.07 367.746  29 
   2  -2   3 3031.97 187.332  26 
   2  -2   2 22299.3 721.051  10 
  -2   2  -2 21740.4 748.570   3 
  -2   2  -2 20815.0 982.527  29 
   2  -2   2 21953.7 552.620  26 
   2  -2   1 27998.8 792.562  10 
  -2   2  -1 27406.5 839.049   3 
  -2   2  -1 27438.9 587.977   9 
  -2   2  -1 25211.0 1048.64  29 
   2  -2   1 27374.8 668.372  26 
   2  -2   0 4328.22 305.140  10 
  -2   2   0 4614.34 333.126   3 
  -2   2   0 4265.78 221.676   9 
  -2   2   0 3913.21 414.691  29 
   2  -2   0 4261.04 284.624  26 
  -2   2   1 6177.17 380.662   3 
   2  -2  -1 5716.17 350.104  10 
  -2   2   1 5866.96 271.352   9 
  -2   2   1 5739.00 524.793  29 
  -2   2   1 4770.07 472.945  30 
   2  -2  -1 5565.32 348.690  26 
   2  -2  -2 1829.81 203.667  10 
  -2   2   2 1715.50 159.510   9 
  -2   2   2 1617.73 189.007   3 
  -2   2   2 1840.00 312.973  29 
  -2   2   2 1381.57 252.653  30 
   2  -2  -2 1728.64 212.095  26 
   2  -2  -3 342.501 93.0340  10 
  -2   2   3 317.351 75.7959   9 
  -2   2   3 353.767 90.5910   3 
  -2   2   3 325.459 136.722  29 
  -2   2   3 194.246 95.0287  30 
   2  -2  -3 394.429 111.095  26 
   2  -2  -4 30630.1 927.531  10 
  -2   2   4 27882.3 760.736   9 
  -2   2   4 28735.5 1375.39  29 
   2  -2  -4 28774.8 959.989  26 
   2  -2  -5 4732.22 391.003  10 
  -2   2   5 4045.03 314.037   9 
  -2   2   5 4627.24 584.931  29 
   2  -2  -5 4440.95 400.427  26 
  -2   2   6 441.647 82.3267  15 
   2  -2  -6 349.255 114.182  10 
  -2   2   6 0.51633 35.3784  29 
  -2   2   6 368.581 74.4041  32 
   2  -2  -6 333.620 143.092  26 
  -2   2   6 419.656 80.8561  21 
  -2   2   7 135.220 53.9948  15 
   2  -2  -7 114.126 31.9428  17 
   2  -2  -7 78.8240 59.5993  10 
  -2   2   7 119.992 112.704  29 
  -2   2   7 157.090 46.8349  32 
  -2   2   7 120.893 47.0184  21 
   2  -2  -7 236.305 99.2852  26 
  -2   2   8 307.913 73.5476  15 
   2  -2  -8 281.118 46.1762  17 
  -2   2   8 194.692 147.898  29 
  -2   2   8 309.435 77.2253  32 
  -2   2   8 292.151 73.7121  21 
   2  -2  -8 446.879 146.388  26 
  -2   2   9 100.942 51.6648  15 
   2  -2  -9 117.809 35.4707  17 
  -2   2   9 128.309 55.1920  32 
  -2   2   9 146.353 67.2909  21 
  -2   2  10 4575.53 292.210  15 
   2  -2 -10 4096.53 188.461  17 
  -2   2  10 4393.50 284.701  32 
  -2   2  10 4304.09 270.798  21 
   2  -2 -10 4021.38 169.401  23 
  -2   2  11 2546.92 207.675  15 
   2  -2 -11 2177.34 126.558  17 
  -2   2  11 2548.42 203.548  32 
  -2   2  11 2372.63 186.476  21 
   2  -2 -11 2414.40 123.954  23 
  -2   2  12 36.3888 24.3621  15 
  -2   2  12-13.3461 24.8131  32 
  -2   2  12 12.9700 18.3933  21 
  -2   2  13 1043.43 102.800  15 
  -2   2  13 1069.15 99.6254  32 
   3  -1  16 659.888 79.7318  21 
  -3   1 -15 661.320 55.4522  16 
  -3   1 -15 732.539 71.7559  31 
  -3   1 -14 3740.69 260.881  12 
  -3   1 -14 3275.71 146.277  16 
  -3   1 -14 3482.36 175.892  31 
  -3   1 -14 3310.89 265.479  19 
  -3   1 -13 4825.81 333.035  12 
  -3   1 -13 4415.59 188.623  16 
  -3   1 -13 4973.76 224.524  31 
  -3   1 -13 5205.65 366.182  19 
  -3   1 -12 1181.89 178.755  12 
  -3   1 -12 1098.79 99.6296  16 
  -3   1 -12 1229.91 114.718  31 
  -3   1 -12 1237.76 196.215  19 
  -3   1 -11 1625.77 213.804  12 
  -3   1 -11 1617.21 125.835  16 
  -3   1 -11 1812.25 138.797  31 
  -3   1 -11 1713.23 242.477  34 
  -3   1 -11 1744.19 243.851  19 
  -3   1 -10 19421.3 731.544  12 
  -3   1 -10 18903.1 417.163  16 
  -3   1 -10 21015.6 450.596  31 
   3  -1  10 21736.2 952.042  27 
  -3   1 -10 18379.9 747.895  34 
  -3   1 -10 20628.4 797.363  19 
  -3   1  -9 6785.41 421.976  12 
  -3   1  -9 7565.40 257.731  31 
  -3   1  -9 6679.18 430.107  34 
   3  -1   9 7512.94 543.417  27 
  -3   1  -9 7154.52 451.893  19 
  -3   1  -8 105.262 53.6202  12 
  -3   1  -8 96.2742 42.7784  34 
   3  -1   8 136.215 82.2938  27 
  -3   1  -8 67.4832 57.1337  19 
   3  -1   7 20583.4 828.603  27 
  -3   1  -7 18637.3 708.891   3 
   3  -1   6 882.982 165.218  27 
  -3   1  -6 787.636 144.093   3 
   3  -1   5 18102.5 723.049  27 
  -3   1  -5 17488.7 681.666   3 
   3  -1   4 1676.41 214.261  10 
  -3   1  -4 1527.64 198.281   3 
   3  -1   4 1520.09 206.230  27 
   3  -1   3 5299.41 364.334  10 
  -3   1  -3 5379.55 365.925   3 
  -3   1  -3 5835.24 363.474   9 
  -3   1  -3 5614.58 469.815  29 
   3  -1   3 5271.14 278.878  26 
   3  -1   2 347.039 97.5434  10 
  -3   1  -2 327.277 88.4337   3 
  -3   1  -2 331.678 118.194  29 
   3  -1   2 340.350 78.8041  26 
  -3   1  -1 180.279 59.4634   9 
  -3   1  -1 280.985 89.2818   3 
  -3   1  -1 267.751 97.1335  29 
   3  -1   1 309.282 72.6189  26 
   3  -1   0 5805.10 341.792  10 
  -3   1   0 5425.06 365.095   3 
  -3   1   0 5463.55 330.128   9 
  -3   1   0 5232.81 469.438  29 
   3  -1   0 5409.84 346.591  26 
   3  -1  -1 2548.47 223.138  10 
  -3   1   1 2338.02 241.007   3 
  -3   1   1 2661.61 237.182   9 
  -3   1   1 2596.09 350.227  29 
   3  -1  -1 2524.77 254.771  26 
   3  -1  -2 1129.56 150.930  10 
  -3   1   2 1151.73 166.607   3 
  -3   1   2 1095.32 160.463   9 
  -3   1   2 1183.80 249.224  29 
   3  -1  -2 1033.21 177.014  26 
  -3   1   3 240.117 79.2356   9 
   3  -1  -3 208.412 71.8743  10 
  -3   1   3 188.760 65.4956   3 
   3  -1  -3 214.809 90.1827  28 
  -3   1   3 293.979 123.354  29 
   3  -1  -3 203.508 80.4740  26 
   3  -1  -4 303.140 86.3381  10 
  -3   1   4 142.071 62.5787   9 
   3  -1  -4 138.750 66.3002  28 
  -3   1   4 267.034 148.321  29 
   3  -1  -4 180.871 85.8382  26 
  -3   1   5 13625.5 470.746  15 
   3  -1  -5 13009.8 630.143  10 
  -3   1   5 11692.9 624.979   9 
  -3   1   5 13926.4 1076.88  29 
   3  -1  -5 12526.2 701.651  28 
  -3   1   5 12375.7 440.948  32 
   3  -1  -5 13539.8 736.913  26 
  -3   1   6 8490.63 392.806  15 
  -3   1   6 7842.07 345.743  13 
  -3   1   6 6886.23 512.079   9 
  -3   1   6 8838.19 911.053  29 
  -3   1   6 7509.02 362.426  32 
   3  -1  -6 8161.10 609.175  26 
  -3   1   7 1850.15 192.173  15 
  -3   1   7 1865.56 173.784  13 
  -3   1   7 1122.34 216.861   9 
  -3   1   7 1724.43 415.016  29 
  -3   1   7 1896.90 188.700  32 
   3  -1  -7 1657.55 281.776  26 
   3  -1  -7 1881.67 426.475  24 
  -3   1   8 66.7513 42.4795  15 
  -3   1   8 42.1492 31.8522  32 
  -3   1   9 14321.1 540.807  15 
   3  -1  -9 13876.6 354.970  17 
  -3   1   9 13721.9 518.846  32 
   3  -1  -9 13428.7 316.788  23 
  -3   1  10 201.137 67.1148  15 
   3  -1 -10 169.818 40.2755  17 
  -3   1  10 197.004 61.8206  32 
   3  -1 -10 177.509 44.1196  23 
  -3   1  11 9507.74 383.518  15 
  -3   1  11 9061.94 371.401  32 
   3  -1 -11 8890.42 223.142  23 
  -3   1  12 92.1129 35.8295  15 
   3  -1 -12 44.7438 21.5600  17 
  -3   1  12 71.6667 29.0065  32 
  -3   1  13 1183.58 93.9687  15 
   4   0  16 2500.10 136.266  21 
  -4   0 -15 1264.75 78.8998  16 
   4   0  15 1234.82 120.226  21 
  -4   0 -14 185.644 35.1840  16 
  -4   0 -14 222.450 63.3465  12 
  -4   0 -14 248.910 73.1195  19 
  -4   0 -13 599.924 72.5353  16 
  -4   0 -13 588.875 114.111  12 
  -4   0 -13 642.578 81.9244  31 
  -4   0 -13 644.924 133.307  19 
  -4   0 -12 1012.53 170.806  12 
  -4   0 -12 967.085 96.3529  16 
  -4   0 -12 994.436 105.042  31 
  -4   0 -12 924.219 171.508  19 
  -4   0 -11 4.80561 36.6794  16 
  -4   0 -11 88.3849 32.0298  31 
  -4   0 -11 10.2686 57.1141  19 
  -4   0 -10 2190.41 245.801  12 
  -4   0 -10 2182.82 152.845  16 
  -4   0 -10 2435.85 151.549  31 
  -4   0 -10 2367.98 257.946  19 
  -4   0  -9 1690.87 213.513  12 
  -4   0  -9 1826.27 131.479  16 
  -4   0  -9 2119.59 134.362  31 
   4   0   9 1811.97 248.186  27 
  -4   0  -9 1640.66 207.647  19 
  -4   0  -8 1744.15 208.746  12 
  -4   0  -8 1831.44 121.000  16 
  -4   0  -8 1491.76 200.094  34 
   4   0   8 1847.62 261.003  27 
  -4   0  -8 1379.55 196.651  19 
  -4   0  -7 3254.10 271.529  12 
  -4   0  -7 3832.08 361.278   3 
  -4   0  -7 3150.07 275.217  34 
   4   0   7 3986.03 372.776  27 
  -4   0  -7 2913.52 273.310  19 
   4   0   6 3994.29 369.175  27 
  -4   0  -6 4055.86 367.096   3 
   4   0   5 1415.63 209.029  10 
  -4   0  -5 1516.97 217.866   3 
   4   0   5 1431.69 207.813  27 
  -4   0  -4 905.621 254.522   4 
  -4   0  -4 816.476 164.653   9 
  -4   0  -4 832.609 160.306   3 
   4   0   4 855.934 152.981  10 
   4   0   4 704.304 138.926  27 
   4   0   3 8296.11 444.110  10 
  -4   0  -3 8399.21 500.872   9 
  -4   0  -3 8494.11 504.098   3 
  -4   0  -3 8204.03 756.045   4 
   4   0   3 8235.59 423.301  26 
   4   0   2 48101.0 1020.11  10 
  -4   0  -2 46995.0 1165.71   9 
  -4   0  -2 47575.9 1189.37   3 
  -4   0  -2 46265.0 1802.50   4 
   4   0   2 46525.2 1074.94  26 
  -4   0  -1 10257.5 538.728   9 
  -4   0  -1 10178.0 553.348   3 
  -4   0  -1 9798.28 839.119   4 
   4   0   1 10553.0 531.201  26 
  -4   0   0 177.734 80.7718   4 
  -4   0   0 348.906 104.659   9 
  -4   0   0 232.988 57.8082   3 
   4   0   0 356.728 95.7225  28 
   4   0   0 347.928 103.278  26 
  -4   0   1 84.0076 84.0991   4 
  -4   0   1 13.1085 29.9780   9 
  -4   0   1-9.36987 27.3320   3 
   4   0  -1-12.7861 26.3393  28 
   4   0  -1-31.9637 59.7882  26 
  -4   0   2 4041.21 364.657   9 
  -4   0   2 4593.79 368.264   3 
   4   0  -2 4061.49 365.739  28 
   4   0  -2 4633.80 413.403  26 
  -4   0   3 3803.77 254.787  15 
  -4   0   3 3461.78 226.993  13 
  -4   0   3 3235.00 344.972   9 
  -4   0   3 3550.09 461.735  29 
   4   0  -3 3858.50 382.079  28 
   4   0  -3 3692.64 379.000  26 
  -4   0   4 2024.18 194.306  15 
  -4   0   4 1853.56 173.633  13 
  -4   0   4 1635.42 259.290   9 
  -4   0   4 1897.86 370.377  29 
  -4   0   4 1770.19 164.077  32 
   4   0  -4 2027.96 291.196  26 
  -4   0   5 5177.81 187.972  18 
  -4   0   5 5755.11 341.926  15 
  -4   0   5 5078.15 296.639  13 
  -4   0   5 4793.08 461.940   9 
  -4   0   5 5556.96 703.374  29 
  -4   0   5 4887.27 287.481  32 
   4   0  -5 5704.17 515.747  26 
   4   0  -5 5610.57 738.612  24 
  -4   0   6 13099.4 532.011  15 
  -4   0   6 11694.6 293.601  18 
  -4   0   6 11794.0 461.386  13 
  -4   0   6 13546.2 1145.99  29 
  -4   0   6 11275.3 449.945  32 
  -4   0   7 4.10098 32.5597  15 
  -4   0   7 0.44199 32.1842  13 
  -4   0   7 14.2324 40.7873  32 
   4   0  -7 5.33865 22.7039  23 
  -4   0   8 298.891 74.0091  13 
  -4   0   8 298.374 83.3300  15 
  -4   0   8 271.388 72.9271  32 
   4   0  -8 180.078 37.9451  23 
  -4   0   9 1023.20 140.406  15 
  -4   0   9 1061.87 129.509  13 
  -4   0   9 981.626 131.346  32 
   4   0  -9 915.755 81.5189  23 
  -4   0  10 26.7882 24.1583  13 
  -4   0  10 28.0515 40.9555  15 
   4   0 -10-19.4054 35.5484  17 
  -4   0  10 15.2489 28.9836  32 
   4   0 -10 26.7032 20.5342  23 
   4   0 -11-41.0517 21.2179  17 
  -4   0  11-12.9661 25.9885  15 
  -4   0  11-13.8202 19.5131  32 
  -4   0  12 622.340 67.7575  15 
  -5  -1 -15 1747.99 85.7578  16 
  -5  -1 -14 843.617 74.9689  16 
  -5  -1 -14 834.088 114.226  19 
   5   1  14 692.741 84.8834  21 
  -5  -1 -13 105.918 56.9709  12 
  -5  -1 -13 31.4353 27.1882  16 
  -5  -1 -13 31.1401 45.8035  19 
  -5  -1 -12 3032.27 273.114  12 
  -5  -1 -12 3168.67 175.277  16 
  -5  -1 -12 2481.24 265.574  19 
  -5  -1 -11 10841.9 548.410  12 
  -5  -1 -11 11490.9 344.769  16 
  -5  -1 -11 9997.31 525.319  19 
  -5  -1 -10 5290.61 393.173  12 
  -5  -1 -10 5324.06 249.082  16 
  -5  -1  -9 989.755 171.348  12 
  -5  -1  -9 947.746 106.915  16 
  -5  -1  -9 904.015 158.013  19 
  -5  -1  -8 1070.56 177.600  12 
  -5  -1  -8 1057.72 108.302  16 
   5   1   8 1140.53 353.226  30 
  -5  -1  -8 1069.51 167.080  19 
  -5  -1  -7 8365.63 470.305  12 
  -5  -1  -7 8175.03 276.444  16 
  -5  -1  -7 8354.89 356.191   6 
  -5  -1  -7 8949.22 454.672   5 
  -5  -1  -7 9053.11 616.133   3 
  -5  -1  -7 9277.40 448.348   8 
   5   1   7 9214.10 944.574  30 
  -5  -1  -7 7200.26 437.561  19 
  -5  -1  -6 245.298 87.5424  12 
  -5  -1  -6 132.836 27.9306  16 
  -5  -1  -6 44.9372 76.5292   4 
  -5  -1  -6 116.614 38.8268   6 
  -5  -1  -6 178.560 73.7283   8 
  -5  -1  -6 259.786 94.8641   5 
  -5  -1  -6 165.256 31.3617   7 
  -5  -1  -6 323.156 125.109   3 
   5   1   6 270.129 160.823  30 
  -5  -1  -6 207.507 82.7004  19 
  -5  -1  -6 207.609 55.2844  22 
   5   1   6 205.664 102.793  27 
  -5  -1  -5 5749.26 371.909  12 
  -5  -1  -5 6148.00 214.795  16 
  -5  -1  -5 5586.02 290.648   6 
  -5  -1  -5 6394.50 877.766   2 
  -5  -1  -5 6348.12 384.903   5 
  -5  -1  -5 6678.05 519.807   3 
  -5  -1  -5 6148.52 364.537   8 
  -5  -1  -5 5926.61 196.097   7 
  -5  -1  -5 6846.88 800.566   4 
   5   1   5 6198.08 704.065  30 
   5   1   5 6376.57 458.587  27 
  -5  -1  -5 5965.66 308.525  22 
  -5  -1  -5 4715.56 338.086  19 
  -5  -1  -4 877.184 113.778  15 
  -5  -1  -4 578.254 112.464  12 
  -5  -1  -4 617.320 107.473  13 
  -5  -1  -4 380.294 38.2478  16 
  -5  -1  -4 608.743 238.094   4 
  -5  -1  -4 645.308 100.410   6 
  -5  -1  -4 176.749 152.907   2 
  -5  -1  -4 528.644 144.033   9 
  -5  -1  -4 560.717 102.152   5 
  -5  -1  -4 506.857 103.563   8 
  -5  -1  -4 564.689 62.7227   7 
  -5  -1  -4 594.728 155.094   3 
   5   1   4 738.168 235.600  30 
  -5  -1  -4 502.241 92.1045  22 
   5   1   4 338.329 93.6728  27 
  -5  -1  -4 427.658 84.4828  19 
  -5  -1  -3 223.454 147.033   4 
  -5  -1  -3 164.599 146.438   2 
  -5  -1  -3 86.7144 41.8789   6 
  -5  -1  -3 80.7796 50.4322   9 
  -5  -1  -3 102.207 58.5287   5 
  -5  -1  -3 76.9347 51.9034   8 
  -5  -1  -3 38.3015 27.8537   3 
  -5  -1  -3 86.9867 29.0997   7 
  -5  -1  -3 47.7896 26.1332  13 
  -5  -1  -3 61.7953 28.7297  15 
  -5  -1  -3 111.595 48.8978  12 
  -5  -1  -3 95.4809 42.0097  22 
   5   1   3 80.1542 54.6900  26 
  -5  -1  -2 11654.7 438.402   6 
  -5  -1  -2 12675.2 1236.12   2 
  -5  -1  -2 13963.5 742.670   9 
  -5  -1  -2 11254.4 505.437   5 
  -5  -1  -2 13976.0 732.083   3 
  -5  -1  -2 11101.6 485.822   8 
  -5  -1  -2 12534.6 290.295   7 
  -5  -1  -2 13200.6 1122.49   4 
  -5  -1  -2 11669.1 426.329  15 
  -5  -1  -2 12907.3 462.640  13 
  -5  -1  -2 12283.9 450.399  22 
   5   1   2 13770.1 690.725  26 
  -5  -1  -1 4244.54 258.891   6 
  -5  -1  -1 4708.82 761.310   2 
  -5  -1  -1 5465.55 462.079   9 
  -5  -1  -1 4374.12 312.687   5 
  -5  -1  -1 5398.03 452.571   3 
  -5  -1  -1 4401.01 305.176   8 
  -5  -1  -1 4815.33 179.229   7 
  -5  -1  -1 5028.22 700.650   4 
  -5  -1  -1 4622.71 272.847  15 
  -5  -1  -1 4789.09 280.140  13 
  -5  -1  -1 5043.33 293.277  22 
   5   1   1 5167.57 440.173  26 
   5   1   1 4557.62 550.344  24 
  -5  -1   0 3164.69 220.798   6 
  -5  -1   0 3169.25 623.791   2 
  -5  -1   0 4135.21 408.598   9 
  -5  -1   0 3277.29 273.280   5 
  -5  -1   0 4154.03 395.862   3 
  -5  -1   0 3121.65 257.704   8 
  -5  -1   0 3547.04 155.695   7 
  -5  -1   0 3721.16 599.081   4 
  -5  -1   0 3335.64 238.764  15 
  -5  -1   0 3183.20 141.324  16 
  -5  -1   0 3476.31 242.754  13 
  -5  -1   0 3597.26 247.729  22 
   5   1   0 3616.72 505.125  24 
   5   1   0 3717.49 379.829  26 
  -5  -1   1 118.689 110.685   4 
  -5  -1   1 135.506 46.1875   6 
  -5  -1   1 195.848 100.135   9 
  -5  -1   1 229.848 75.1942   5 
  -5  -1   1 182.320 77.3685   8 
  -5  -1   1 126.258 27.6311   7 
  -5  -1   1 252.565 98.4505   3 
  -5  -1   1 194.932 66.0241  13 
  -5  -1   1 179.957 67.5501  15 
  -5  -1   1 306.619 56.2423  16 
  -5  -1   1 166.226 51.4818  22 
   5   1  -1 158.827 89.4507  26 
   5   1  -1 206.105 133.053  24 
  -5  -1   2 640.602 276.873   4 
  -5  -1   2 403.335 76.4013   6 
  -5  -1   2 396.721 127.808   9 
  -5  -1   2 474.298 98.8505   5 
  -5  -1   2 450.231 108.324   8 
  -5  -1   2 452.573 52.4297   7 
  -5  -1   2 549.778 103.305  15 
  -5  -1   2 435.719 88.3869  13 
   5   1  -2 295.361 126.066  26 
  -5  -1   2 466.017 90.1053  22 
   5   1  -2 460.450 208.984  24 
  -5  -1   3 49.0922 55.9787   9 
  -5  -1   3 48.0913 40.6357  13 
  -5  -1   3 44.6684 49.3870  15 
  -5  -1   3 13.4705 40.1236  22 
   5   1  -3 288.118 138.284  26 
   5   1  -3 209.941 107.775  24 
  -5  -1   4 413.975 92.3332  13 
  -5  -1   4 296.090 85.5459  15 
  -5  -1   4 359.552 50.0010  18 
  -5  -1   4 325.433 71.4673  32 
  -5  -1   5 1037.19 156.203  15 
  -5  -1   5 965.261 82.7783  18 
  -5  -1   5 970.280 140.767  13 
  -5  -1   5 1093.33 136.119  32 
   5   1  -5 874.248 82.9687  23 
  -5  -1   6 444.993 97.0853  13 
  -5  -1   6 434.580 105.408  15 
  -5  -1   6 282.593 47.9011  18 
  -5  -1   6 394.912 84.4398  32 
   5   1  -6 431.654 61.3060  23 
  -5  -1   7 554.645 112.171  15 
  -5  -1   7 635.764 110.864  13 
  -5  -1   7 665.212 105.143  32 
   5   1  -7 482.633 64.8100  23 
  -5  -1   8 2699.17 214.120  15 
  -5  -1   8 2851.72 215.147  13 
  -5  -1   8 2856.48 208.622  32 
   5   1  -8 2624.00 133.435  23 
  -5  -1   9 4382.38 241.866  15 
   5   1  -9 3803.12 157.590  17 
  -5  -1   9 4743.12 246.742  13 
  -5  -1   9 4732.11 246.306  32 
   5   1  -9 4161.49 146.747  23 
  -5  -1  10 1463.49 117.463  15 
  -5  -1  10 1660.89 121.571  13 
  -6  -2 -14 90.2438 19.0894  16 
  -6  -2 -13 71.0050 26.6416  16 
  -6  -2 -13 27.5270 33.2499  19 
  -6  -2 -12 4116.65 186.424  16 
  -6  -2 -12 2874.21 241.356  19 
  -6  -2 -11 465.114 112.975  12 
  -6  -2 -11 467.427 73.3188  16 
  -6  -2 -11 338.932 90.9796  19 
  -6  -2 -10 57.2360 45.5123  12 
  -6  -2 -10 106.536 36.3757  16 
  -6  -2 -10 9.26368 52.0833  19 
  -6  -2  -9-1.18424 53.1430  12 
  -6  -2  -9-16.6991 39.8379  16 
  -6  -2  -9-46.5059 88.5061  19 
  -6  -2  -8 559.452 99.0648   6 
  -6  -2  -8 553.984 107.128   8 
  -6  -2  -8 599.748 105.915   5 
  -6  -2  -8 533.448 123.313  12 
  -6  -2  -8 542.557 86.1928  16 
  -6  -2  -8 361.903 95.6957  19 
  -6  -2  -7 821.702 117.651   6 
  -6  -2  -7 868.042 142.517   5 
  -6  -2  -7 904.838 141.884   8 
  -6  -2  -7 878.784 160.861  12 
  -6  -2  -7 794.859 99.7624  16 
  -6  -2  -7 878.732 119.920  22 
  -6  -2  -7 596.176 129.109  19 
  -6  -2  -6 1269.39 148.725   6 
  -6  -2  -6 1221.87 166.482   5 
  -6  -2  -6 1395.96 183.505   8 
  -6  -2  -6 1368.32 101.182   7 
  -6  -2  -6 1528.80 207.299  12 
  -6  -2  -6 1261.15 115.680  16 
  -6  -2  -6 1416.11 158.334  22 
  -6  -2  -6 1092.79 160.759  19 
  -6  -2  -5 552.521 100.794   6 
  -6  -2  -5 423.004 72.7389   5 
  -6  -2  -5 505.119 106.910   8 
  -6  -2  -5 645.613 72.2258   7 
  -6  -2  -5 461.098 67.8193  16 
  -6  -2  -5 594.098 105.162  22 
  -6  -2  -5 480.240 97.3231  19 
  -6  -2  -4 1991.67 186.731   6 
  -6  -2  -4 1984.29 225.531   5 
  -6  -2  -4 2167.43 235.891   8 
  -6  -2  -4 2432.71 136.851   7 
  -6  -2  -4 2733.46 564.100   4 
  -6  -2  -4 2076.17 133.301  16 
  -6  -2  -4 2389.44 228.239  13 
  -6  -2  -4 2117.90 200.747  22 
  -6  -2  -4 1728.09 198.750  19 
  -6  -2  -3 542.470 252.366   4 
  -6  -2  -3 420.048 89.2562   6 
  -6  -2  -3 482.563 278.437   2 
  -6  -2  -3 513.619 136.115   9 
  -6  -2  -3 357.056 82.3264   5 
  -6  -2  -3 425.105 100.396   8 
  -6  -2  -3 540.867 65.2544   7 
  -6  -2  -3 417.452 87.9054  13 
  -6  -2  -3 383.351 74.5940  15 
  -6  -2  -3 420.222 60.4024  16 
  -6  -2  -3 569.828 108.812  22 
  -6  -2  -3 316.550 85.1691  19 
   6   2   3 320.888 117.056  26 
  -6  -2  -2 1838.40 464.823   4 
  -6  -2  -2 1692.87 176.330   6 
  -6  -2  -2 2058.19 544.939   2 
  -6  -2  -2 1866.85 319.099   9 
  -6  -2  -2 1551.13 198.190   5 
  -6  -2  -2 1617.77 203.963   8 
  -6  -2  -2 1834.02 122.566   7 
  -6  -2  -2 1643.26 168.614  15 
  -6  -2  -2 1744.18 114.887  16 
  -6  -2  -2 1889.65 195.175  13 
   6   2   2 2030.81 303.869  26 
  -6  -2  -2 1741.24 187.087  22 
  -6  -2  -2 1320.99 168.096  19 
  -6  -2  -1 5708.41 323.398   6 
  -6  -2  -1 5719.91 377.201   8 
  -6  -2  -1 5560.14 384.538   5 
  -6  -2  -1 6668.08 231.329   7 
  -6  -2  -1 5926.19 327.232  15 
  -6  -2  -1 6022.82 214.036  16 
  -6  -2  -1 6558.16 363.429  13 
  -6  -2  -1 6219.56 356.235  22 
   6   2   1 6804.94 559.672  26 
  -6  -2   0 75289.6 1157.54   6 
  -6  -2   0 71234.0 1377.32   5 
  -6  -2   0 74456.9 1379.49   8 
  -6  -2   0 84146.0 788.010   7 
  -6  -2   0 75924.4 1192.33  15 
  -6  -2   0 79194.5 781.516  16 
  -6  -2   0 82020.4 1308.77  13 
  -6  -2   0 84169.0 1294.83  22 
  -6  -2   0 62900.2 1116.56  19 
  -6  -2   1 1070.78 139.400   6 
  -6  -2   1 1110.69 175.768   8 
  -6  -2   1 858.311 139.725   5 
  -6  -2   1 1122.40 92.4731   7 
  -6  -2   1 905.578 135.336  15 
  -6  -2   1 1252.25 168.395  13 
  -6  -2   1 1316.80 164.626  22 
  -6  -2   2 1393.85 150.932   6 
  -6  -2   2 1115.05 154.879   5 
  -6  -2   2 1153.66 169.116   8 
  -6  -2   2 1359.15 162.384  15 
  -6  -2   2 1449.20 179.658  13 
  -6  -2   2 1478.63 165.305  22 
  -6  -2   3 2.84620 36.0600  13 
  -6  -2   3-27.9509 48.9564  15 
  -6  -2   3 27.8106 21.6030  18 
  -6  -2   3 6.64425 22.9238  22 
  -6  -2   4 535.631 97.7572  15 
  -6  -2   4 664.158 66.2551  18 
  -6  -2   4 610.593 115.489  13 
   6   2  -4 569.190 70.3186  23 
  -6  -2   5 1687.79 169.662  15 
  -6  -2   5 1764.30 107.761  18 
  -6  -2   5 1915.81 195.595  13 
   6   2  -5 1799.17 116.568  23 
  -6  -2   6-37.2020 35.9043  13 
  -6  -2   6-11.6963 36.5711  15 
  -6  -2   6-4.47598 20.8779  18 
   6   2  -6-13.3378 25.2366  23 
  -6  -2   7 1104.80 114.053  15 
  -6  -2   7 1339.44 143.141  13 
   6   2  -7 1106.09 76.6595  23 
  -6  -2   8 75.7509 38.4701  13 
  -6  -2   8 100.727 29.8695  15 
  -7  -3 -12 882.767 72.5237  16 
  -7  -3 -12 630.728 86.5546  19 
  -7  -3 -11 4459.05 183.978  16 
  -7  -3 -11 3200.13 219.178  19 
  -7  -3 -10 1252.89 104.460  16 
  -7  -3 -10 841.952 129.659  19 
  -7  -3  -9-2.89145 31.9250  16 
  -7  -3  -9-23.8883 42.6959  19 
  -7  -3  -8 1738.74 159.347   6 
  -7  -3  -8 1945.69 138.823  16 
  -7  -3  -8 1483.77 180.095  19 
  -7  -3  -7 3336.57 231.015   6 
  -7  -3  -7 4489.05 208.375  16 
  -7  -3  -7 4133.00 251.138  22 
  -7  -3  -7 3044.00 254.648  19 
  -7  -3  -6 1897.71 178.969   6 
  -7  -3  -6 2100.69 122.952   7 
  -7  -3  -6 2485.95 152.731  16 
  -7  -3  -6 2069.66 183.551  22 
  -7  -3  -6 1605.66 189.760  19 
  -7  -3  -5 1164.43 144.531   6 
  -7  -3  -5 1378.00 101.396   7 
  -7  -3  -5 1586.91 122.827  16 
  -7  -3  -5 1275.58 152.831  22 
  -7  -3  -5 1028.00 156.011  19 
  -7  -3  -4 458.002 90.8763   6 
  -7  -3  -4 717.230 167.951   5 
  -7  -3  -4 484.794 62.2188   7 
  -7  -3  -4 404.302 59.6302  16 
  -7  -3  -4 580.728 127.569  19 
  -7  -3  -4 463.377 96.1478  22 
  -7  -3  -3 254.145 62.9705   6 
  -7  -3  -3 345.956 53.0127   7 
  -7  -3  -3 350.252 85.9504  13 
  -7  -3  -3 210.442 32.3018  16 
  -7  -3  -3 335.606 81.7268  22 
  -7  -3  -2 1062.28 139.449   6 
  -7  -3  -2 1495.95 221.223   5 
  -7  -3  -2 1111.05 92.1790   7 
  -7  -3  -2 1077.68 90.2744  16 
  -7  -3  -2 1143.84 163.604  13 
  -7  -3  -2 1198.89 146.389  22 
  -7  -3  -1 9.14449 34.5808   6 
  -7  -3  -1 37.4469 25.9093   7 
  -7  -3  -1 33.7796 54.4564  13 
  -7  -3  -1 41.4008 26.5719  15 
  -7  -3  -1 26.4689 32.7764  22 
  -7  -3   0 250.471 68.6506   6 
  -7  -3   0 348.305 52.8937   7 
  -7  -3   0 346.939 90.4565  13 
  -7  -3   0 218.448 62.6529  15 
  -7  -3   0 286.883 71.5302  22 
  -7  -3   1 91.0998 34.2868   6 
  -7  -3   1 20.9348 27.8386  13 
  -7  -3   1 20.1416 30.6189  15 
  -7  -3   1-5.52821 49.8219  22 
  -7  -3   2 19.9683 23.7444   6 
  -7  -3   2 35.2784 38.3227  13 
  -7  -3   2 18.5654 17.5971  15 
  -7  -3   2-18.3556 43.6968  22 
  -7  -3   3 812.278 124.470  13 
  -7  -3   3 781.530 99.5487  22 
   7   3  -3 684.493 65.7752  23 
  -7  -3   4 88.4557 19.9779  18 
   7   3  -4 72.5449 26.2454  23 
  -7  -3   5 699.746 100.234  13 
   7   3  -5 500.290 45.9972  23 
  -7  -3   6 1257.55 115.911  13 
  -8  -4 -10-11.1540 18.2403  16 
  -8  -4 -10 7940.09 295.970  19 
  -8  -4  -9 534.659 58.2938  16 
  -8  -4  -9 8208.97 336.704  19 
  -8  -4  -8-16.3214 23.9715   6 
  -8  -4  -8-40.8094 19.9646  16 
  -8  -4  -7 3451.48 153.327  16 
  -8  -4  -7 3143.75 182.404  22 
  -8  -4  -6 1636.54 106.135  16 
  -8  -4  -6 1594.17 142.277  22 
  -8  -4  -5 563.036 92.2596   6 
  -8  -4  -5 641.654 66.1913  16 
  -8  -4  -5 618.754 92.5267  22 
  -8  -4  -4 431.308 79.6031   6 
  -8  -4  -4 557.953 63.9583  16 
  -8  -4  -4 455.206 79.4380  22 
  -8  -4  -3 29.7039 35.4030   6 
  -8  -4  -3-13.1132 26.7949  22 
  -8  -4  -2 17.6883 25.5281   6 
  -8  -4  -2-28.1010 31.6509  22 
  -8  -4  -1 453.470 82.5617   6 
  -8  -4  -1 444.062 80.5059  22 
  -8  -4   0 837.107 104.822   6 
  -8  -4   0 775.921 96.1578  22 
  -8  -4   1 7.71246 19.1395   6 
  -8  -4   1 61.6294 34.7796  22 
  -8  -4   2 182.935 47.4907  13 
  -8  -4   2 216.205 48.1346  22 
  -4  -9   5 73.9624 18.0970  14 
  -4  -9   5 43.4911 23.0800  22 
  -4  -9   4 278.090 36.5113  14 
  -4  -9   4 238.038 32.1533   7 
   4   9  -4 308.888 43.8343  31 
   4   9  -4 283.052 62.0471  34 
  -4  -9   4 198.668 51.7944  22 
  -4  -9   3 380.368 44.5599  14 
  -4  -9   3 270.925 59.4304   6 
  -4  -9   3 345.441 42.9572   7 
   4   9  -3 449.195 56.0170  31 
   4   9  -3 509.510 87.0993  34 
  -4  -9   3 301.208 65.1074  22 
  -4  -9   2 215.477 33.5640  14 
  -4  -9   2 185.195 59.9649   6 
  -4  -9   2 334.724 48.3656   7 
   4   9  -2 203.615 41.1292  31 
   4   9  -2 227.102 55.7867  34 
  -4  -9   2 206.434 62.7873  22 
  -4  -9   1 37.1434 19.6514  14 
  -4  -9   1-18.1508 23.1097   7 
  -4  -9   1 26.6402 32.4295   6 
   4   9  -1-11.7687 32.1071  34 
   4   9  -1-12.4720 23.4577  31 
  -4  -9   1-41.0094 37.2560  22 
  -4  -9   0 1373.53 83.9164  14 
  -4  -9   0 1196.01 151.292   6 
  -4  -9   0 1599.39 110.842   7 
   4   9   0 1646.37 110.138  31 
   4   9   0 1612.59 172.495  34 
  -4  -9   0 1262.42 141.655  22 
  -4  -9  -1 1182.86 150.022   6 
  -4  -9  -1 1527.77 108.325   7 
   4   9   1 1521.69 112.200  31 
   4   9   1 1642.41 173.456  34 
  -4  -9  -1 1073.78 132.097  22 
  -4  -9  -2 163.127 27.9683  17 
  -4  -9  -2 124.188 31.4001   7 
  -4  -9  -2 71.9975 33.6189   6 
   4   9   2 135.217 45.7829  34 
   4   9   2 171.393 40.2870  31 
  -4  -9  -2 90.5076 41.0306  22 
  -4  -9  -3 870.588 70.8139  17 
  -4  -9  -3 553.740 102.610   6 
  -4  -9  -3 735.239 73.5903   7 
   4   9   3 755.448 78.6850  31 
   4   9   3 756.532 112.049  34 
  -4  -9  -3 572.294 83.8863  22 
  -4  -9  -4 2713.89 120.492  17 
   4   9   4 2634.91 208.734  34 
  -4  -9  -4 2596.25 127.041   7 
  -4  -9  -5 2564.23 114.384  17 
   4   9   5 2369.88 192.206  34 
  -4  -9  -5 2325.46 107.940   7 
  -4  -9  -6 689.076 53.0857  18 
  -4  -9  -6 845.158 61.9361  17 
   4   9   6 953.280 116.894  34 
  -4  -9  -7 11.0244 13.9032  17 
   4   9   7 35.4290 32.3076  34 
  -4  -9  -8 2344.22 87.1558  17 
   4   9   8 2220.31 144.674  34 
   3   8  -9 65.6307 30.5104  12 
   3   8  -9 7.55670 10.7212  31 
  -3  -8   8 769.313 55.3223  14 
   3   8  -8 845.443 104.992  12 
   3   8  -8 829.790 67.4094  31 
  -3  -8   7 80.2398 18.4157  14 
   3   8  -7 26.0708 16.8702  31 
  -3  -8   7 98.9986 40.0620  22 
  -3  -8   6 1349.39 91.9675  14 
   3   8  -6 1354.67 105.837  31 
   3   8  -6 1237.76 152.573  34 
  -3  -8   6 1172.46 137.805  22 
  -3  -8   5 789.964 75.9228  14 
   3   8  -5 716.731 80.8841  31 
   3   8  -5 778.610 129.391  34 
  -3  -8   5 653.976 68.4558   7 
  -3  -8   4 1297.73 102.981  14 
   3   8  -4 1246.87 113.924  31 
   3   8  -4 1230.69 163.355  34 
  -3  -8   4 1140.47 149.139   6 
  -3  -8   4 1185.96 102.374   7 
  -3  -8   3 6972.11 242.336  14 
   3   8  -3 7014.64 269.395  31 
   3   8  -3 7111.20 406.378  34 
  -3  -8   3 7334.97 264.395   7 
  -3  -8   2 5343.77 213.007  14 
   3   8  -2 4952.02 231.031  31 
   3   8  -2 5585.23 367.679  34 
  -3  -8   2 5744.69 238.827   7 
  -3  -8   1 993.377 94.2286  14 
  -3  -8   1 962.359 79.5497  17 
   3   8  -1 983.966 101.231  31 
   3   8  -1 981.304 153.644  34 
  -3  -8   1 1124.78 108.679   7 
  -3  -8   0 8450.84 265.097  14 
  -3  -8   0 9310.98 250.809  17 
   3   8   0 8530.43 303.831  31 
   3   8   0 9000.66 467.506  34 
  -3  -8   0 9534.63 318.378   7 
  -3  -8  -1 54.5610 20.1524  17 
  -3  -8  -1 50.6304 25.2485  14 
   3   8   1 64.0508 49.5933  34 
  -3  -8  -1 51.8344 30.0745   7 
  -3  -8  -2 7213.10 233.610  14 
  -3  -8  -2 8070.79 239.540  17 
   3   8   2 7257.24 413.801  34 
  -3  -8  -2 7804.71 286.338   7 
  -3  -8  -3 467.404 59.5218  17 
   3   8   3 455.068 117.966  34 
  -3  -8  -3 474.657 72.2064   7 
  -3  -8  -4 329.345 48.6865  17 
   3   8   4 342.956 86.4837  34 
  -3  -8  -4 224.819 47.8851   7 
  -3  -8  -5 29.1415 21.2667  18 
  -3  -8  -5 93.4791 30.4057  17 
   3   8   5 102.924 50.5210  34 
  -3  -8  -5 33.0576 17.3385   7 
  -3  -8  -5 77.2354 54.9237   6 
  -3  -8  -6 179.393 35.6835  18 
  -3  -8  -6 164.686 31.5147  17 
   3   8   6 159.476 69.3898  34 
  -3  -8  -6 109.041 45.7243   6 
  -3  -8  -7 1096.47 86.5006  18 
  -3  -8  -7 1362.19 93.4450  17 
   3   8   7 1491.56 162.560  34 
   3   8   7 1265.29 115.597  33 
  -3  -8  -8-56.6687 25.5954  18 
  -3  -8  -8 43.6307 26.3396  17 
   3   8   8-2.21681 33.4547  34 
   3   8   8-4.36305 16.0430  33 
  -3  -8  -9-17.3439 18.9762  18 
  -3  -8  -9 8.14553 18.4177  17 
   3   8   9-24.5295 29.5255  34 
   3   8   9 19.8161 22.1699  33 
  -3  -8 -10-12.9618 14.5712  18 
  -3  -8 -10 5.45179 11.9323  17 
   3   8  10-12.1771 19.4096  33 
   2   7 -11 47.6868 29.2477  12 
   2   7 -11 19.8911 15.1549  31 
  -2  -7  10 3442.81 113.054  14 
   2   7 -10 4382.59 255.956  12 
   2   7 -10 4183.39 161.239  31 
  -2  -7  10 3276.64 171.893  32 
   2   7  -9 350.716 86.2767  12 
  -2  -7   9 236.070 33.6012  14 
  -2  -7   9 203.725 47.8573  32 
   2   7  -9 202.041 58.3278  34 
   2   7  -9 250.747 48.3097  31 
  -2  -7   8 105.520 25.1575  14 
  -2  -7   8 85.5164 26.6394  32 
   2   7  -8 192.043 65.9790  34 
   2   7  -8 171.509 45.6657  31 
  -2  -7   7 3059.34 150.710  14 
   2   7  -7 2970.38 175.994  31 
   2   7  -7 2876.67 262.424  34 
  -2  -7   7 2764.62 214.016  32 
  -2  -7   6 385.867 59.4481  14 
   2   7  -6 407.299 110.312  34 
   2   7  -6 323.492 61.3054  31 
  -2  -7   5 949.238 89.1523  14 
   2   7  -5 975.406 103.877  31 
   2   7  -5 879.768 156.730  34 
  -2  -7   5 915.538 94.8031   7 
  -2  -7   4 944.972 92.9102  14 
   2   7  -4 744.800 98.1570  31 
   2   7  -4 901.906 156.007  34 
  -2  -7   3-52.8251 36.4424  14 
   2   7  -3-33.5460 48.0107  34 
   2   7  -3-42.1069 34.8097  31 
  -2  -7   2 7353.05 260.848  14 
   2   7  -2 7101.56 278.979  31 
   2   7  -2 7034.89 431.791  34 
  -2  -7   1 1576.80 123.768  14 
  -2  -7   1 1407.02 94.5623  17 
   2   7  -1 1591.37 128.331  31 
   2   7  -1 1583.55 198.412  34 
  -2  -7   0 1316.39 111.063  14 
  -2  -7   0 1264.20 93.1609  17 
   2   7   0 1288.09 175.715  34 
   2   7   0 1068.65 329.685  30 
  -2  -7  -1 6366.33 237.514  14 
  -2  -7  -1 6166.09 208.055  17 
   2   7   1 6234.46 389.830  34 
  -2  -7  -2 1867.77 124.162  14 
  -2  -7  -2 1878.11 119.063  17 
   2   7   2 2156.65 228.857  34 
  -2  -7  -3 6609.80 236.460  14 
  -2  -7  -3 7126.83 228.235  17 
   2   7   3 7020.54 417.768  34 
  -2  -7  -4 6715.91 223.537  17 
  -2  -7  -4 6531.18 251.753   7 
   2   7   4 6740.88 404.270  34 
   2   7   4 6398.89 307.220  33 
  -2  -7  -5 330.690 51.5480  18 
  -2  -7  -5 393.176 55.3168  17 
   2   7   5 429.819 104.663  34 
   2   7   5 305.505 71.4070  33 
   2   7   5 302.057 71.4392  21 
  -2  -7  -6-19.6178 20.8991  18 
  -2  -7  -6-2.56885 29.2280  17 
   2   7   6-5.15346 34.2801  33 
   2   7   6 22.7505 42.8529  34 
   2   7   6 23.5027 18.6581  21 
  -2  -7  -7 4826.12 202.916  18 
  -2  -7  -7 5116.72 192.207  17 
   2   7   7 5647.60 346.760  34 
   2   7   7 5052.08 285.742  33 
   2   7   7 4906.39 265.528  21 
  -2  -7  -8 6237.75 224.931  18 
  -2  -7  -8 6578.73 211.291  17 
   2   7   8 6941.38 327.133  33 
   2   7   8 6301.93 296.448  21 
  -2  -7  -9 5165.37 197.496  18 
  -2  -7  -9 5541.65 185.659  17 
   2   7   9 5814.88 288.369  33 
   2   7   9 5416.36 263.696  21 
  -2  -7 -10 364.649 50.4683  18 
  -2  -7 -10 387.056 48.1002  17 
   2   7  10 388.080 72.1888  33 
   2   7  10 393.982 66.8120  21 
  -2  -7 -11 3645.86 141.475  18 
  -2  -7 -11 3741.16 120.368  17 
   2   7  11 4154.78 204.452  33 
   2   7  11 4252.74 193.879  21 
   2   7  12 3134.80 148.140  33 
   1   6 -12-3.73989 30.7292  12 
  -1  -6  12-25.8437 22.2732  13 
   1   6 -12-18.8749 20.8674  31 
  -1  -6  12-1.21180 19.4316  32 
   1   6 -11-41.7395 34.5978  12 
  -1  -6  11-36.3101 22.1735  13 
  -1  -6  11-9.30762 24.5150  32 
   1   6 -11 12.3105 30.1208  34 
   1   6 -11-33.3586 33.1771  31 
   1   6 -10 56.3195 53.0918  12 
  -1  -6  10-3.95649 21.4429  13 
  -1  -6  10 5.79432 12.9559  14 
  -1  -6  10-11.2001 28.5937  32 
   1   6 -10 0.84705 23.8951  31 
   1   6 -10 9.23212 30.7738  34 
  -1  -6   9 412.435 52.7253  14 
   1   6  -9 610.580 129.160  12 
  -1  -6   9 460.079 98.4435  32 
   1   6  -9 489.143 75.5577  31 
   1   6  -9 480.977 120.040  34 
  -1  -6   8 82.5892 25.4410  14 
  -1  -6   8 89.0988 49.0932  32 
   1   6  -8 65.2916 37.8530  31 
   1   6  -8 28.4784 47.1970  34 
   1   6  -8 68.0528 60.5900  20 
  -1  -6   7 5974.06 220.105  14 
   1   6  -7 5993.12 413.854  34 
   1   6  -7 5519.52 253.609  31 
  -1  -6   7 5226.76 343.376  32 
   1   6  -7 5773.92 389.136  20 
  -1  -6   6 1314.25 107.060  14 
   1   6  -6 1256.05 118.717  31 
   1   6  -6 1431.57 210.203  34 
  -1  -6   6 1320.40 175.563  32 
   1   6  -6 1448.55 196.371  20 
  -1  -6   5 8135.82 262.248  14 
   1   6  -5 6319.00 543.195   3 
   1   6  -5 7151.86 282.389  31 
   1   6  -5 8368.62 475.307  34 
  -1  -6   5 6889.94 388.070  32 
   1   6  -5 7629.87 434.151  20 
   1   6  -5 7254.07 915.160  24 
  -1  -6   4 116.009 35.1601  14 
  -1  -6   4-351.445 197.473   2 
  -1  -6   4-312.569 190.860   1 
   1   6  -4 148.692 68.4012  34 
   1   6  -4 70.3883 20.6447  31 
   1   6  -4 171.490 71.6821  20 
   1   6  -4 222.329 161.789  24 
  -1  -6   3 359.460 58.4504  14 
  -1  -6   3 34.4670 79.1919   2 
  -1  -6   3-157.878 138.250   1 
   1   6  -3 330.654 94.2331  34 
   1   6  -3 245.741 44.8438  31 
   1   6  -3 239.324 152.996  30 
   1   6  -3 396.889 87.7116  20 
   1   6  -3 505.259 235.439  24 
  -1  -6   2 1227.15 103.282  14 
  -1  -6   2 674.950 265.673   2 
  -1  -6   2 846.464 293.155   1 
   1   6  -2 1377.09 111.185  31 
   1   6  -2 1125.90 160.266  34 
   1   6  -2 915.825 287.209  30 
   1   6  -2 1004.78 298.679  24 
  -1  -6   1 549.487 63.3481  14 
  -1  -6   1 373.581 198.400   2 
  -1  -6   1 295.545 181.496   1 
   1   6  -1 590.226 114.535  34 
   1   6  -1 348.178 186.020  30 
   1   6  -1 495.700 205.095  24 
  -1  -6   0 4286.17 190.335  14 
  -1  -6   0 3971.53 149.633  17 
  -1  -6   0 2348.14 495.974   1 
  -1  -6   0 3021.07 566.881   2 
   1   6   0 3966.27 293.048  34 
   1   6   0 4076.02 600.015  30 
   1   6   0 3974.12 652.794  29 
   1   6   0 3991.31 231.713  21 
   1   6   0 4057.25 639.581  24 
  -1  -6  -1 22001.6 428.801  14 
  -1  -6  -1 20585.8 349.839  17 
  -1  -6  -1 15263.1 1290.72   1 
  -1  -6  -1 20794.8 825.797  10 
  -1  -6  -1 15384.0 1273.70   2 
   1   6   1 21290.0 674.134  34 
   1   6   1 21580.6 1400.90  30 
   1   6   1 21697.8 1501.56  29 
   1   6   1 19994.2 523.139  21 
   1   6   1 21564.8 1465.22  24 
  -1  -6  -2 594.649 69.0803  14 
  -1  -6  -2 614.378 64.9444  17 
  -1  -6  -2 567.136 241.903   2 
  -1  -6  -2 369.853 116.474  10 
  -1  -6  -2 399.585 226.878   1 
   1   6   2 649.905 267.655  29 
   1   6   2 538.590 109.530  34 
   1   6   2 551.882 84.9583  33 
   1   6   2 545.658 226.234  30 
  -1  -6  -2 557.503 148.146  26 
   1   6   2 592.136 94.0232  21 
  -1  -6  -3 285.265 50.6972  17 
  -1  -6  -3 279.739 47.5812  14 
  -1  -6  -3 121.904 118.659   2 
  -1  -6  -3 215.792 93.9684  10 
  -1  -6  -3 37.8565 72.0159   1 
   1   6   3 313.679 191.242  29 
   1   6   3 299.218 85.7286  34 
   1   6   3 258.405 67.1484  33 
   1   6   3 347.335 211.416  30 
  -1  -6  -3 293.390 119.789  26 
   1   6   3 212.482 58.0656  21 
  -1  -6  -4 38173.8 556.675  14 
  -1  -6  -4 41025.0 530.552  17 
  -1  -6  -4 32381.3 1899.58   1 
  -1  -6  -4 38935.7 1293.61  10 
   1   6   4 34131.0 1208.79   3 
  -1  -6  -4 29963.9 1804.34   2 
   1   6   4 39661.6 929.759  34 
   1   6   4 40067.5 800.556  33 
   1   6   4 41354.3 2042.24  30 
   1   6   4 40818.2 2022.39  29 
  -1  -6  -4 38409.7 1262.38  26 
   1   6   4 38252.9 785.355  21 
  -1  -6  -5 102.102 30.0027  17 
  -1  -6  -5-28.7574 44.2634  10 
   1   6   5 20.3085 73.8155  29 
   1   6   5 211.232 75.7759  34 
   1   6   5 131.095 45.8340  33 
   1   6   5-141.153 128.042  30 
  -1  -6  -5-205.362 99.6450  26 
   1   6   5 126.774 55.5525  21 
  -1  -6  -6 71.0513 27.0653  17 
   1   6   6 72.9605 50.9128  34 
   1   6   6 3.95671 46.7607  33 
   1   6   6 74.2448 41.5968  21 
  -1  -6  -7 6691.11 225.342  17 
   1   6   7 7110.35 359.978  33 
   1   6   7 6924.37 349.543  21 
  -1  -6  -8 558.729 66.0118  17 
   1   6   8 538.201 99.4918  33 
   1   6   8 591.262 108.507  21 
  -1  -6  -9 374.382 54.9978  17 
   1   6   9 378.194 82.5062  33 
   1   6   9 395.675 85.0772  21 
  -1  -6 -10 21.6756 23.6104  17 
   1   6  10 58.2673 38.8463  33 
   1   6  10 49.6790 32.1067  21 
  -1  -6 -11 63.3534 17.4842  17 
   1   6  11 152.208 46.3910  33 
   1   6  11 96.9031 33.3765  21 
  -1  -6 -12 863.040 55.3831  17 
   1   6  12 973.952 96.3513  33 
   1   6  12 996.492 100.335  21 
   1   6  13 3817.61 160.257  21 
   0   5 -14 1115.12 65.3581  31 
   0  -5  14 1077.39 91.3835  32 
   0   5 -13 2001.70 171.335  12 
   0   5 -13 1859.08 108.989  31 
   0   5 -13 1895.97 168.077  34 
   0  -5  13 1766.59 144.058  32 
   0   5 -13 2205.72 190.413  19 
   0   5 -12 1502.94 176.808  12 
   0   5 -12 1558.83 116.591  31 
   0   5 -12 1392.09 185.901  34 
   0  -5  12 1367.29 153.057  32 
   0   5 -11 90.7664 51.9139  12 
   0  -5  11 143.097 60.2564  32 
   0   5 -11 116.257 31.9035  31 
   0   5 -11 109.996 43.8128  34 
   0   5 -10 947.338 169.325  12 
   0   5 -10 934.147 99.3266  31 
   0  -5  10 702.744 124.846  32 
   0   5 -10 962.768 164.491  34 
   0   5 -10 895.358 155.507  20 
   0   5  -9 10989.6 550.445  12 
   0   5  -9 9984.36 326.924  31 
   0   5  -9 10181.1 557.083  34 
   0  -5   9 9310.51 459.334  32 
   0   5  -9 9712.50 522.452  20 
   0  -5   8 120.714 29.9151  14 
   0  -5   8 150.633 62.8955  32 
   0   5  -8 91.9228 26.1398  31 
   0   5  -8 68.0638 37.0085  34 
   0   5  -8 134.372 60.2383  20 
   0  -5   7 7866.27 241.067  14 
   0   5  -7 7257.50 276.385  31 
   0   5  -7 7839.56 473.550  34 
   0  -5   7 6705.80 396.038  32 
   0   5  -7 7597.25 447.739  20 
   0  -5   6 9505.42 265.831  14 
   0  -5   6 9158.76 587.746  10 
   0   5  -6 7224.69 557.675   3 
   0   5  -6 8470.72 286.986  31 
   0   5  -6 9398.42 505.317  34 
   0   5  -6 8745.79 459.062  20 
   0   5  -6 8548.62 897.261  24 
   0  -5   5 4771.99 188.909  14 
   0  -5   5 5007.23 424.787  10 
   0   5  -5 3762.33 395.765   3 
   0   5  -5 4226.36 196.615  31 
   0   5  -5 4698.89 345.474  34 
   0   5  -5 4402.74 311.879  20 
   0   5  -5 4310.41 635.946  24 
   0  -5   4 4794.94 188.105  14 
   0  -5   4 4855.88 406.639  10 
   0   5  -4 4465.17 434.672   3 
   0   5  -4 4650.26 325.487  34 
   0   5  -4 4467.30 298.539  20 
   0   5  -4 4227.99 627.030  24 
   0   5  -3 3633.21 387.470   3 
   0  -5   3 3888.07 348.151  10 
   0   5  -3 3865.13 563.253  30 
   0   5  -3 3736.40 590.687  24 
   0  -5   2 3044.00 302.692  10 
   0   5  -2 3156.42 357.558   3 
   0   5  -2 3389.83 520.947  30 
   0   5  -2 3476.72 555.703  24 
   0  -5   1 1418.37 202.969  10 
   0   5  -1 1430.85 351.470  29 
   0   5  -1 1166.27 302.045  30 
   0  -5   1 1326.29 184.213  26 
   0   5  -1 1391.67 356.520  24 
   0  -5   0 1290.86 197.070  10 
   0   5   0 1370.81 350.856  29 
   0   5   0 1354.20 309.944  30 
   0  -5   0 1139.13 184.656  26 
   0  -5  -1 2819.74 292.380  10 
   0   5   1 2542.86 337.680   3 
   0   5   1 3033.35 472.063  30 
   0   5   1 3070.29 501.373  29 
   0  -5  -1 2779.13 298.272  26 
   0  -5  -2 255.437 97.7877  10 
   0   5   2 251.257 99.8328   3 
   0   5   2 543.900 214.051  29 
   0   5   2 278.341 110.687  30 
   0  -5  -2 337.571 109.065  26 
   0  -5  -3-19.8702 37.1034  10 
   0   5   3 139.044 73.9297   3 
   0   5   3 41.0982 74.2490  29 
   0   5   3 125.110 46.1808  33 
   0   5   3 126.060 87.3927  30 
   0  -5  -3 146.507 61.3225  26 
   0   5   3 147.235 49.2902  21 
   0  -5  -4 6080.44 199.570  17 
   0  -5  -4 5320.27 464.743  10 
   0   5   4 4826.32 415.998   3 
   0   5   4 5124.99 667.009  29 
   0   5   4 5713.26 291.798  33 
   0   5   4 5367.22 661.538  30 
   0   5   4 5736.81 307.344  21 
   0  -5  -4 4976.63 444.032  26 
   0  -5  -5 7383.79 228.916  17 
   0   5   5 5604.69 518.971  11 
   0  -5  -5 6791.31 551.593  10 
   0   5   5 6889.11 790.702  29 
   0   5   5 7099.18 341.074  33 
   0   5   5 7319.98 785.350  30 
   0   5   5 7239.47 354.998  21 
   0  -5  -5 6308.87 511.084  26 
   0  -5  -6 16455.5 356.483  17 
   0  -5  -6 16696.4 914.614  10 
   0   5   6 16211.7 1261.19  29 
   0   5   6 15455.8 521.143  33 
   0   5   6 16281.0 1201.44  30 
   0   5   6 16038.9 546.907  21 
   0  -5  -6 14557.9 805.911  26 
   0  -5  -7 3643.68 172.350  17 
   0   5   7 3516.04 252.486  33 
   0   5   7 3939.60 276.183  21 
   0  -5  -8 21277.2 414.718  17 
   0   5   8 21541.1 625.267  33 
   0   5   8 22352.7 667.718  21 
   0  -5  -9 27.5977 28.8493  17 
   0   5   9 6.73458 41.0641  33 
   0   5   9 16.8328 29.2923  21 
   0  -5 -10 3970.10 166.798  17 
   0   5  10 4314.49 258.965  33 
   0   5  10 4498.56 286.902  21 
   0  -5 -11 7835.25 213.418  17 
   0   5  11 8561.14 334.135  33 
   0   5  11 8879.27 375.541  21 
   0  -5 -12 1807.34 88.6212  17 
   0   5  12 2063.70 139.350  33 
   0   5  12 2310.98 168.512  21 
   0   5  13 185.994 40.9746  21 
   1  -4  15 816.660 77.7680  13 
  -1   4 -14 514.830 81.3935  12 
  -1   4 -14 554.409 58.4647  31 
   1  -4  14 440.144 69.5405  32 
  -1   4 -14 589.307 99.0791  19 
  -1   4 -13 569.540 107.422  12 
   1  -4  13 460.879 83.1633  32 
  -1   4 -13 497.097 67.9006  31 
  -1   4 -13 417.074 107.218  34 
  -1   4 -13 469.537 110.127  19 
  -1   4 -12 379.167 110.025  12 
   1  -4  12 267.772 76.1160  32 
  -1   4 -12 297.140 59.2543  31 
  -1   4 -12 357.526 105.505  34 
  -1   4 -11 216.235 81.2938  12 
   1  -4  11 147.017 57.0090  32 
  -1   4 -11 140.326 43.4027  31 
  -1   4 -11 42.7447 80.1994  34 
  -1   4 -11 162.669 64.0134  20 
  -1   4 -10 1173.04 181.411  12 
  -1   4 -10 1062.59 111.287  31 
  -1   4 -10 1108.70 189.258  34 
   1  -4  10 974.409 150.842  32 
  -1   4 -10 910.683 162.061  20 
  -1   4  -9 4421.62 361.609  12 
  -1   4  -9 4124.60 208.955  31 
  -1   4  -9 4132.12 359.409  34 
   1  -4   9 4129.86 309.397  32 
  -1   4  -9 3951.49 327.942  20 
   1  -4   8-154.770 87.8465  11 
  -1   4  -8 176.210 91.0228  12 
   1  -4   8-19.4575 39.0359  10 
   1  -4   8 158.097 76.0655  32 
  -1   4  -8 65.5572 34.0660  31 
  -1   4  -8 102.561 52.7413  34 
   1  -4   8 70.0072 88.5758  27 
  -1   4  -8 127.221 78.8945  20 
  -1   4  -8 63.1882 59.9916  25 
  -1   4  -7 127.476 47.6533  12 
   1  -4   7 70.3185 60.0308  11 
   1  -4   7 109.422 72.7458  10 
  -1   4  -7 147.117 38.6369  31 
  -1   4  -7 143.179 51.9856  34 
   1  -4   7 239.106 116.024  27 
  -1   4  -7 20.1882 45.5179  25 
  -1   4  -7 95.9246 30.4843  20 
  -1   4  -6 392.805 89.6419  12 
   1  -4   6 316.374 114.132  10 
  -1   4  -6 137.986 57.2600   3 
  -1   4  -6 359.434 105.072  34 
   1  -4   6 193.807 84.3215  27 
  -1   4  -6 339.579 84.0120  20 
  -1   4  -6 305.503 160.708  24 
   1  -4   5 8534.62 564.433  10 
  -1   4  -5 7876.73 555.745   3 
   1  -4   5 8615.02 519.320  27 
  -1   4  -5 8736.31 857.457  24 
   1  -4   4 163.396 85.9351  10 
  -1   4  -4 156.672 82.1531   3 
   1  -4   4 123.265 76.1995  27 
  -1   4  -4-69.3754 94.4822  24 
   1  -4   3 144.390 86.4583  10 
  -1   4  -3 29.7222 77.1582   3 
   1  -4   3 106.504 31.8865  27 
  -1   4  -3-18.4482 71.3556  24 
   1  -4   2 42285.5 1123.47  10 
  -1   4  -2 37349.6 1211.79   3 
  -1   4  -2 41088.5 1739.30  30 
   1  -4   2 42679.6 1039.75  27 
  -1   4  -2 42671.5 1839.18  29 
   1  -4   2 38983.6 853.949  26 
   1  -4   1 13145.2 619.566  10 
  -1   4  -1 11341.4 660.581   3 
  -1   4  -1 12988.1 960.785  30 
  -1   4  -1 12866.5 977.224  29 
   1  -4   1 12564.0 527.747  26 
   1  -4   0 2245.40 256.926  10 
  -1   4   0 1699.56 278.753   3 
  -1   4   0 2586.70 426.042  29 
  -1   4   0 2250.01 405.806  30 
   1  -4   0 2329.66 243.284  26 
   1  -4  -1 4823.66 377.754  10 
  -1   4   1 3778.09 387.512   3 
  -1   4   1 4861.72 590.562  29 
  -1   4   1 4878.29 584.747  30 
   1  -4  -1 4661.77 366.472  26 
   1  -4  -2 2001.06 251.889  10 
  -1   4   2 1862.89 258.699   3 
  -1   4   2 2154.88 398.408  29 
  -1   4   2 2448.62 410.425  30 
   1  -4  -2 1651.16 250.087  26 
   1  -4  -3 3249.99 334.987  10 
  -1   4   3 2740.59 299.640   3 
  -1   4   3 3287.58 501.076  29 
  -1   4   3 3654.06 513.319  30 
   1  -4  -3 3274.31 339.230  26 
   1  -4  -4 24973.1 977.525  10 
  -1   4   4 23944.2 1404.85  29 
  -1   4   4 24514.6 581.284  33 
  -1   4   4 26111.5 1370.31  30 
  -1   4   4 24534.0 617.427  21 
   1  -4  -4 24499.5 961.249  26 
   1  -4  -5 287.952 51.8635  17 
   1  -4  -5 185.099 91.3139  10 
  -1   4   5 281.814 188.995  29 
  -1   4   5 274.481 69.0251  33 
   1  -4  -5 212.424 70.9633  26 
  -1   4   5 291.673 77.1780  21 
   1  -4  -6 5495.70 211.414  17 
   1  -4  -6 5483.26 513.401  10 
  -1   4   6 4319.29 648.831  29 
  -1   4   6 5104.21 286.659  33 
   1  -4  -6 5506.97 499.916  26 
  -1   4   6 5276.06 308.127  21 
   1  -4  -7 10899.4 311.942  17 
   1  -4  -7 11996.2 797.505  10 
  -1   4   7 12154.6 1118.51  29 
  -1   4   7 10272.9 415.654  33 
   1  -4  -7 10051.6 690.716  26 
  -1   4   7 11018.8 460.264  21 
  -1   4   8 355.513 71.1833  15 
   1  -4  -8 257.202 47.3431  17 
  -1   4   8 349.044 80.7979  33 
  -1   4   8 290.493 77.3163  21 
  -1   4   9 4043.75 251.435  15 
   1  -4  -9 3786.42 179.194  17 
  -1   4   9 3892.30 252.873  33 
  -1   4   9 3919.06 279.226  21 
  -1   4  10-30.0192 36.4036  15 
   1  -4 -10-87.3902 42.1252  17 
  -1   4  10 22.9866 23.5002  33 
  -1   4  10 12.5124 36.5036  21 
  -1   4  11 672.016 90.1301  15 
   1  -4 -11 506.330 55.3415  17 
  -1   4  11 662.702 87.9385  33 
  -1   4  11 674.769 92.6137  20 
  -1   4  11 580.878 92.9687  21 
  -1   4  12 50.6148 21.2396  15 
   1  -4 -12 59.1268 21.0773  17 
  -1   4  12 47.9431 28.0904  21 
  -1   4  13 635.088 69.4357  21 
  -2   3 -15 192.686 31.0340  31 
   2  -3  15 75.6292 27.2439  32 
  -2   3 -15 208.512 55.7246  19 
  -2   3 -14 496.335 94.1443  12 
  -2   3 -14 485.321 59.9255  31 
   2  -3  14 401.312 69.4529  32 
  -2   3 -14 412.108 83.4369  19 
  -2   3 -13 644.602 127.840  12 
  -2   3 -13 677.830 76.4208  31 
  -2   3 -13 570.475 134.605  34 
   2  -3  13 568.952 97.0353  32 
  -2   3 -13 343.440 124.255  19 
  -2   3 -12 1939.68 238.669  12 
  -2   3 -12 2052.49 143.616  31 
  -2   3 -12 2183.28 267.226  34 
   2  -3  12 2028.58 200.524  32 
  -2   3 -12 1709.75 256.833  19 
  -2   3 -11 1051.84 183.330  12 
  -2   3 -11 1071.99 195.628  19 
  -2   3 -11 961.964 100.745  31 
  -2   3 -11 913.023 180.414  34 
   2  -3  11 974.488 148.139  32 
  -2   3 -11 956.710 155.708  20 
  -2   3 -10 8481.46 524.398  12 
  -2   3 -10 8210.45 294.488  31 
  -2   3 -10 7952.83 504.504  34 
   2  -3  10 8232.34 429.556  32 
  -2   3 -10 8165.73 471.739  20 
  -2   3  -9 2407.92 273.063  12 
   2  -3   9 1854.45 313.268  10 
  -2   3  -9 2315.94 159.376  31 
  -2   3  -9 2042.27 242.503  34 
   2  -3   9 2513.27 328.218  27 
   2  -3   9 2258.79 228.113  32 
  -2   3  -9 2303.88 245.768  20 
  -2   3  -8 18383.6 752.561  12 
   2  -3   8 17384.1 921.548  10 
  -2   3  -8 17339.8 403.348  31 
  -2   3  -8 16442.1 685.118  34 
   2  -3   8 18544.6 865.503  27 
  -2   3  -8 17828.1 656.400  20 
  -2   3  -7 40.9823 44.7965  12 
   2  -3   7-28.6413 48.4861  10 
  -2   3  -7 82.5809 57.3744   3 
  -2   3  -7-0.93124 47.6259  34 
   2  -3   7-122.391 71.3798  27 
  -2   3  -7 16.1329 34.1635  20 
   2  -3   6 74.1698 77.1309  10 
  -2   3  -6-6.29443 62.6143   3 
   2  -3   6 107.873 65.2919  27 
   2  -3   5 14211.7 734.639  10 
   2  -3   5 14101.2 667.479  27 
  -2   3  -5 13187.5 716.045   3 
   2  -3   4 32931.0 1063.14  10 
   2  -3   4 34596.0 1016.94  27 
   2  -3   3 6672.64 464.750  10 
  -2   3  -3 5986.23 475.137   3 
   2  -3   3 6558.10 425.943  27 
  -2   3  -3 6631.79 706.292  29 
   2  -3   2 1280.42 203.246  10 
  -2   3  -2 1010.17 210.639   3 
  -2   3  -2 1246.04 278.697  29 
   2  -3   2 1061.87 145.382  26 
   2  -3   1 8056.27 484.317  10 
  -2   3  -1 6356.88 494.041   3 
  -2   3  -1 7193.31 682.072  29 
   2  -3   1 7092.08 398.675  26 
   2  -3   0 470.446 125.835  10 
  -2   3   0 283.974 109.451   3 
  -2   3   0 396.752 156.224  29 
   2  -3   0 540.651 117.417  26 
  -2   3   1 1170.01 216.272   3 
   2  -3  -1 1507.70 215.051  10 
  -2   3   1 1360.36 291.753  29 
  -2   3   1 1385.09 304.336  30 
   2  -3  -1 1195.28 194.826  26 
  -2   3   2 1438.53 217.406   3 
   2  -3  -2 1576.51 223.678  10 
  -2   3   2 1545.04 328.806  29 
  -2   3   2 1460.51 318.475  30 
   2  -3  -2 1397.79 226.045  26 
   2  -3  -3 21665.6 845.627  10 
  -2   3   3 19917.6 765.758   3 
  -2   3   3 21602.4 1279.83  29 
   2  -3  -3 20890.0 857.063  26 
   2  -3  -4 4311.39 395.997  10 
  -2   3   4 4922.40 635.315  29 
  -2   3   4 4532.77 261.013  32 
   2  -3  -4 4299.56 416.227  26 
  -2   3   5 2763.73 193.720  15 
   2  -3  -5 2773.80 145.111  17 
   2  -3  -5 2401.06 311.530  10 
  -2   3   5 2621.07 482.680  29 
  -2   3   5 2796.84 204.105  33 
  -2   3   5 2828.75 212.337  32 
  -2   3   5 2847.99 211.033  21 
   2  -3  -5 2696.21 343.282  26 
  -2   3   6 144.465 48.8648  15 
   2  -3  -6 106.685 20.5173  17 
   2  -3  -6 270.477 111.044  10 
  -2   3   6 211.081 120.829  29 
  -2   3   6 169.406 48.4965  33 
  -2   3   6 144.162 47.5257  32 
   2  -3  -6 302.651 136.151  26 
  -2   3   6 244.209 67.9630  21 
  -2   3   7 584.649 98.9578  15 
   2  -3  -7 485.140 62.7909  17 
  -2   3   7 621.598 100.762  33 
  -2   3   7 604.540 108.575  32 
  -2   3   7 600.750 104.476  21 
  -2   3   8 936.334 126.879  15 
   2  -3  -8 920.859 95.0781  17 
  -2   3   8 872.608 118.017  33 
  -2   3   8 978.135 136.871  32 
  -2   3   8 956.664 133.216  21 
  -2   3   9 15296.5 514.403  15 
   2  -3  -9 15269.5 369.838  17 
  -2   3   9 15737.2 534.129  32 
  -2   3   9 14854.6 512.455  21 
  -2   3  10 90.2442 42.7532  15 
   2  -3 -10 107.138 33.5339  17 
  -2   3  10 94.7674 45.4461  32 
  -2   3  10 172.690 52.2064  21 
  -2   3  11 1481.93 140.911  15 
   2  -3 -11 1234.13 85.4663  17 
  -2   3  11 1615.22 144.175  21 
  -2   3  12 191.589 46.9225  15 
   2  -3 -12 131.857 25.9515  17 
  -2   3  12 183.160 49.6473  20 
  -2   3  12 155.101 38.6530  21 
  -3   2 -15 323.330 40.9873  31 
  -3   2 -15 332.034 72.1034  19 
  -3   2 -14 150.305 52.6588  12 
  -3   2 -14 163.178 33.6174  31 
  -3   2 -14 150.574 65.0178  19 
  -3   2 -13 155.600 72.5140  12 
  -3   2 -13 240.834 52.0573  31 
  -3   2 -13 79.4059 69.8502  19 
  -3   2 -12 4737.15 371.544  12 
  -3   2 -12 4163.26 203.089  31 
  -3   2 -12 4531.43 398.139  34 
   3  -2  12 4420.43 274.273  32 
  -3   2 -12 5131.29 388.627  19 
  -3   2 -11 165.603 74.0942  12 
   3  -2  11 175.125 55.2316  32 
  -3   2 -11 189.926 48.1031  31 
  -3   2 -11 207.489 91.6203  34 
  -3   2 -11 150.298 42.7147  20 
  -3   2 -11 122.352 102.444  19 
  -3   2 -10 8559.08 526.781  12 
  -3   2 -10 7868.72 281.157  31 
  -3   2 -10 7436.34 493.978  34 
   3  -2  10 8422.31 413.883  32 
  -3   2 -10 7815.06 444.952  20 
  -3   2 -10 9122.67 558.850  19 
  -3   2  -9 72.6819 51.8246  12 
   3  -2   9 59.2932 35.2904  32 
   3  -2   9 66.7732 81.2278  27 
  -3   2  -9 124.282 75.7164  34 
  -3   2  -9 208.277 92.2822  19 
  -3   2  -9 147.840 61.4418  20 
  -3   2  -8 318.587 110.460  12 
  -3   2  -8 253.736 89.2122  19 
  -3   2  -8 204.782 95.8760  34 
   3  -2   8 173.518 96.0333  27 
  -3   2  -8 319.686 79.8308  20 
  -3   2  -7 143.189 63.7424  12 
  -3   2  -7 103.861 61.1588  19 
   3  -2   7-64.3530 60.3159  10 
  -3   2  -7 99.0944 60.8146   3 
  -3   2  -7 56.1895 34.3452  34 
   3  -2   7 141.829 97.8372  27 
  -3   2  -7 70.8681 37.6613  20 
   3  -2   6 5176.51 467.822  10 
  -3   2  -6 5050.85 423.567   3 
   3  -2   6 5648.14 453.169  27 
  -3   2  -5 957.325 188.868   3 
   3  -2   5 847.256 179.384  10 
   3  -2   5 819.586 164.590  27 
   3  -2   4 4571.07 397.698  10 
  -3   2  -4 4253.37 394.344   3 
   3  -2   4 4926.36 400.955  27 
   3  -2   3 23922.0 868.789  10 
  -3   2  -3 22255.8 885.608   3 
  -3   2  -3 24730.9 1227.48  29 
   3  -2   2 4694.27 370.547  10 
  -3   2  -2 4263.07 384.117   3 
  -3   2  -2 5321.54 338.742   9 
  -3   2  -2 4709.79 523.955  29 
   3  -2   2 4881.61 319.972  26 
   3  -2   1 20388.8 749.120  10 
  -3   2  -1 19342.9 820.278   3 
  -3   2  -1 21802.5 652.553   9 
  -3   2  -1 19949.1 1086.14  29 
   3  -2   1 18812.5 670.002  26 
   3  -2   0 13417.8 601.761  10 
  -3   2   0 12059.1 636.040   3 
  -3   2   0 13920.1 520.169   9 
  -3   2   0 12798.5 870.002  29 
   3  -2   0 12639.9 584.524  26 
   3  -2  -1 20525.0 750.195  10 
  -3   2   1 18644.0 783.670   3 
  -3   2   1 20227.9 1144.43  29 
   3  -2  -1 19673.1 787.270  26 
   3  -2  -2 22589.9 806.872  10 
  -3   2   2 22201.3 818.577   3 
  -3   2   2 22497.5 1244.75  29 
   3  -2  -2 22444.9 868.704  26 
   3  -2  -3 6246.13 440.324  10 
  -3   2   3 5860.40 409.581   3 
  -3   2   3 6548.43 703.257  29 
   3  -2  -3 6662.55 506.316  26 
  -3   2   4 303.055 70.5856  15 
   3  -2  -4 310.419 103.028  10 
  -3   2   4 30.1868 74.0590  29 
  -3   2   4 213.729 56.7940  32 
   3  -2  -4 259.719 106.496  26 
  -3   2   5 4573.53 271.287  15 
   3  -2  -5 4327.96 409.308  10 
  -3   2   5 4600.61 657.370  29 
  -3   2   5 4295.04 276.558  32 
   3  -2  -5 4570.96 463.033  26 
  -3   2   6 6752.32 342.038  15 
   3  -2  -6 7335.25 256.890  17 
  -3   2   6 8132.06 920.453  29 
  -3   2   6 6618.17 353.926  32 
   3  -2  -6 7175.75 611.279  26 
  -3   2   7 5007.03 303.565  15 
   3  -2  -7 5134.92 220.312  17 
  -3   2   7 4853.86 306.193  32 
  -3   2   8 95.4975 48.0913  15 
   3  -2  -8 87.4819 38.8674  17 
  -3   2   8 105.033 42.3893  32 
  -3   2   9 2411.13 207.114  15 
   3  -2  -9 2277.63 144.310  17 
  -3   2   9 2405.80 211.768  32 
  -3   2  10 5531.09 295.380  15 
   3  -2 -10 5335.82 202.698  17 
  -3   2  10 5639.52 302.665  32 
  -3   2  11 117.657 37.9778  15 
   3  -2 -11 53.2365 18.1369  17 
  -3   2  12-27.0913 22.2131  15 
   3  -2 -12-63.8710 20.9387  17 
  -3   2  12-4.48568 21.1845  20 
  -4   1 -15 508.051 87.7470  19 
  -4   1 -14 778.307 124.463  12 
  -4   1 -14 789.638 129.201  19 
  -4   1 -13-42.3560 59.2734  12 
  -4   1 -13 9.76865 21.0520  31 
  -4   1 -13-79.3114 87.7987  19 
  -4   1 -12 902.798 154.139  12 
  -4   1 -12 880.855 90.4714  31 
  -4   1 -12 721.390 180.571  19 
  -4   1 -11 223.822 97.4047  12 
  -4   1 -11 193.663 47.6074  31 
  -4   1 -11 61.2486 93.0799  19 
  -4   1 -10 8756.36 530.437  12 
  -4   1 -10 7993.95 523.315  34 
  -4   1 -10 8505.34 554.242  19 
  -4   1  -9 5713.51 421.847  12 
  -4   1  -9 5066.42 403.046  34 
   4  -1   9 5701.33 502.571  27 
  -4   1  -9 5401.63 430.795  19 
  -4   1  -8 9.00105 62.0484  12 
   4  -1   8 256.847 112.970  10 
  -4   1  -8 107.544 82.9860  34 
   4  -1   8 49.2865 67.6256  27 
  -4   1  -8 134.722 67.9111  19 
   4  -1   7 1560.05 265.840  10 
  -4   1  -7 1635.36 212.930  12 
  -4   1  -7 1818.11 266.004   3 
  -4   1  -7 1546.45 205.909  34 
   4  -1   7 1958.28 280.861  27 
  -4   1  -7 1571.39 214.368  19 
   4  -1   6 11301.5 686.085  10 
  -4   1  -6 10634.5 512.021  12 
  -4   1  -6 10919.5 409.172   6 
  -4   1  -6 10894.9 647.415   3 
  -4   1  -6 10667.6 458.017   5 
  -4   1  -6 10622.9 441.130   8 
   4  -1   6 12060.4 694.906  27 
  -4   1  -6 11174.0 418.598  22 
  -4   1  -6 10392.8 524.759  19 
   4  -1   5 4872.48 426.670  10 
  -4   1  -5 4583.28 414.518   3 
   4  -1   5 4860.49 428.171  27 
   4  -1   4 2486.53 295.321  10 
  -4   1  -4 2556.35 307.652   3 
   4  -1   4 2673.07 308.627  27 
   4  -1   3 332.154 100.217  10 
  -4   1  -3 338.727 113.058   9 
  -4   1  -3 335.990 115.746   3 
   4  -1   2 8673.42 492.987  10 
  -4   1  -2 8303.91 538.708   3 
  -4   1  -2 9155.66 520.998   9 
   4  -1   2 8704.27 479.542  26 
   4  -1   1 3734.38 315.559  10 
  -4   1  -1 3121.60 338.004   3 
  -4   1  -1 3656.45 325.825   9 
   4  -1   1 3506.65 326.332  26 
   4  -1   0 323.084 96.8244  10 
  -4   1   0 252.920 78.6711   9 
  -4   1   0 267.317 92.8748   3 
   4  -1   0 389.753 120.591  26 
  -4   1   1 611.266 134.667   9 
  -4   1   1 456.231 124.433   3 
  -4   1   1 664.748 99.0746  15 
   4  -1  -1 580.424 142.625  26 
  -4   1   2 227.941 58.6722   6 
  -4   1   2 207.273 69.5877   9 
  -4   1   2 149.149 52.1482   8 
  -4   1   2 157.978 49.7259   5 
  -4   1   2 138.741 38.0153   3 
  -4   1   2 189.543 48.4391  13 
  -4   1   2 246.060 62.6796  15 
   4  -1  -2 144.156 80.8593  26 
  -4   1   2 213.484 50.0499  22 
  -4   1   3 35.4985 26.2316  13 
  -4   1   3 38.2948 42.1691  15 
  -4   1   3 130.568 67.4381   9 
  -4   1   3-163.801 112.831  29 
  -4   1   3 31.6058 35.1365  32 
   4  -1  -3-73.3551 64.9327  26 
  -4   1   4 59.6674 28.9626  13 
  -4   1   4 121.115 55.3990  15 
  -4   1   4 23.4200 34.7788   9 
  -4   1   4 53.3652 29.6777  32 
   4  -1  -4 129.398 76.3034  26 
  -4   1   5 5325.58 322.572  15 
  -4   1   5 5164.77 288.040  13 
  -4   1   5 6068.46 760.951  29 
  -4   1   5 5044.02 301.601  32 
  -4   1   6 4073.59 285.097  15 
  -4   1   6 3404.11 239.033  13 
  -4   1   6 3263.39 247.030  32 
  -4   1   7 1136.91 154.162  15 
  -4   1   7 1006.78 125.286  13 
  -4   1   7 1053.62 142.047  32 
  -4   1   8 785.599 124.927  15 
   4  -1  -8 667.988 74.5086  17 
  -4   1   8 646.614 107.400  32 
  -4   1   9 1145.30 139.090  15 
   4  -1  -9 920.204 85.3324  17 
  -4   1   9 968.396 128.952  32 
  -4   1  10 549.812 93.7670  15 
   4  -1 -10 363.564 50.0683  17 
  -4   1  10 584.964 93.7570  32 
  -4   1  11 1535.63 121.054  15 
   4  -1 -11 1142.97 71.6317  17 
  -5   0 -14 1134.57 145.100  19 
   5   0  14 931.416 100.486  21 
  -5   0 -13 5840.46 355.369  12 
  -5   0 -13 4858.06 342.123  19 
  -5   0 -12 9.19070 48.9855  12 
  -5   0 -12-61.0521 67.1674  19 
  -5   0 -11 2452.64 275.533  12 
  -5   0 -11 2640.65 281.323  19 
  -5   0 -10 5581.29 418.074  12 
  -5   0 -10 4946.35 417.832  19 
  -5   0  -9 1511.08 222.417  12 
  -5   0  -9 1387.86 212.287  19 
  -5   0  -8 1309.80 195.401  12 
  -5   0  -8 1218.64 189.316  19 
  -5   0  -7 7273.35 466.533  12 
  -5   0  -7 8200.66 374.588   6 
  -5   0  -7 8244.05 445.295   5 
  -5   0  -7 7859.90 597.383   3 
  -5   0  -7 8402.06 434.524   8 
   5   0   7 8697.93 607.560  27 
  -5   0  -7 8101.97 373.647  22 
  -5   0  -7 6935.91 449.047  19 
  -5   0  -6 2648.36 271.004  12 
  -5   0  -6 2432.51 203.099   6 
  -5   0  -6 2198.85 310.480   3 
  -5   0  -6 2409.52 244.781   5 
  -5   0  -6 2441.55 237.521   8 
   5   0   6 2562.80 329.313  27 
  -5   0  -6 2444.47 205.157  22 
  -5   0  -6 2256.46 249.842  19 
  -5   0  -5 293.097 79.3270   6 
  -5   0  -5 279.102 88.3234   8 
  -5   0  -5 340.905 87.7041   5 
  -5   0  -5 87.8673 69.6369   3 
  -5   0  -5 258.195 88.2821  12 
  -5   0  -5 194.878 79.5410  19 
  -5   0  -5 268.309 68.8577  22 
   5   0   5 76.6407 62.0099  27 
  -5   0  -4 1481.20 162.109  15 
  -5   0  -4 1295.99 174.541  12 
  -5   0  -4 1421.54 156.334   6 
  -5   0  -4 1640.71 274.781   9 
  -5   0  -4 1757.14 272.670   3 
  -5   0  -4 1392.26 180.367   5 
  -5   0  -4 1394.83 174.765   8 
   5   0   4 1528.80 251.143  27 
  -5   0  -4 1372.92 155.122  22 
  -5   0  -4 1186.01 167.998  19 
  -5   0  -3 364.768 79.4177   6 
  -5   0  -3 224.821 86.1871   9 
  -5   0  -3 302.420 75.1546   8 
  -5   0  -3 367.114 93.5897   5 
  -5   0  -3 379.237 128.459   3 
  -5   0  -3 364.073 80.0082  13 
  -5   0  -3 329.004 67.5475  15 
  -5   0  -3 362.017 69.4614  12 
  -5   0  -3 325.917 73.4760  22 
  -5   0  -3 289.773 82.1083  19 
  -5   0  -2 62.4236 36.5826   6 
  -5   0  -2 33.9117 45.8074   9 
  -5   0  -2 82.6114 39.7432   8 
  -5   0  -2-13.3988 38.5628   5 
  -5   0  -2-77.8173 61.5091   3 
  -5   0  -2 45.7289 22.4942  13 
  -5   0  -2 27.1258 21.0860  15 
  -5   0  -2 28.8663 35.7667  22 
   5   0   2-92.9421 61.9288  26 
  -5   0  -1 1115.74 143.160   6 
  -5   0  -1 1125.90 161.510   8 
  -5   0  -1 1252.94 223.575   9 
  -5   0  -1 1355.33 235.728   3 
  -5   0  -1 1035.31 159.539   5 
  -5   0  -1 1391.15 158.295  15 
  -5   0  -1 1298.00 149.940  13 
  -5   0  -1 1247.65 150.177  22 
   5   0   1 1490.77 239.033  26 
  -5   0   0 16155.5 532.966   6 
  -5   0   0 17452.5 824.428   9 
  -5   0   0 14518.1 591.377   5 
  -5   0   0 18908.4 893.956   3 
  -5   0   0 14208.7 569.838   8 
  -5   0   0 16823.3 556.770  15 
  -5   0   0 16925.5 538.943  13 
  -5   0   0 16483.0 538.468  22 
   5   0   0 19440.7 901.330  26 
  -5   0   1 3646.86 252.184   6 
  -5   0   1 4200.23 412.924   9 
  -5   0   1 3420.66 286.607   5 
  -5   0   1 4320.97 423.021   3 
  -5   0   1 3557.36 281.580   8 
  -5   0   1 3994.85 276.311  15 
  -5   0   1 3682.29 254.041  13 
  -5   0   1 3784.68 256.468  22 
   5   0  -1 4340.65 438.684  26 
  -5   0   2 1097.45 134.247   6 
  -5   0   2 1470.50 243.741   9 
  -5   0   2 1168.29 163.646   5 
  -5   0   2 1044.22 149.272   8 
  -5   0   2 1333.09 161.607  15 
  -5   0   2 1185.84 145.676  13 
  -5   0   2 1217.65 143.232  22 
   5   0  -2 1386.79 268.544  26 
  -5   0   2 1363.38 149.457  20 
   5   0  -2 1166.10 338.923  24 
  -5   0   3 37.0603 27.7355  13 
  -5   0   3 33.2850 41.2377  15 
  -5   0   3 98.3181 42.6459  22 
  -5   0   4 313.741 79.0332  13 
  -5   0   4 409.650 96.7410  15 
  -5   0   4 384.482 80.7595  32 
  -5   0   5 6989.87 388.915  15 
  -5   0   5 6391.20 341.700  13 
  -5   0   5 6562.73 338.921  32 
  -5   0   6 1748.89 191.922  15 
  -5   0   6 1508.44 160.304  13 
  -5   0   6 1627.51 169.483  32 
  -5   0   7 719.456 118.467  15 
  -5   0   7 640.480 99.2337  13 
  -5   0   7 671.274 107.561  32 
  -5   0   8 232.164 53.6424  13 
  -5   0   8 264.763 66.9564  15 
   5   0  -8 207.124 38.2161  17 
  -5   0   9 1593.47 142.586  15 
   5   0  -9 1247.75 85.3885  17 
  -5   0   9 1343.06 110.777  13 
  -5   0  10 332.715 54.6213  15 
   5   0 -10 199.819 27.9890  17 
  -5   0  10 341.006 54.1139  20 
  -6  -1 -14 122.457 43.3967  19 
  -6  -1 -13 204.804 59.5544  19 
  -6  -1 -12 4010.23 301.326  12 
  -6  -1 -12 3575.24 148.239  16 
  -6  -1 -12 3552.91 282.889  19 
  -6  -1 -11 559.403 135.114  12 
  -6  -1 -11 372.124 56.0873  16 
  -6  -1 -11 505.981 121.127  19 
  -6  -1 -10 569.585 141.363  12 
  -6  -1 -10 531.034 67.0246  16 
  -6  -1 -10 352.600 106.730  19 
  -6  -1  -9 1376.10 207.710  12 
  -6  -1  -9 1410.38 109.901  16 
  -6  -1  -9 1178.55 190.338  19 
  -6  -1  -8 1909.34 184.069   6 
  -6  -1  -8 1633.93 189.079   5 
  -6  -1  -8 2019.22 209.174   8 
  -6  -1  -8 1916.13 244.192  12 
  -6  -1  -8 1735.20 128.062  16 
  -6  -1  -8 1681.59 219.734  19 
  -6  -1  -7 4142.09 274.356   6 
  -6  -1  -7 4317.58 336.832   5 
  -6  -1  -7 4496.44 334.182   8 
  -6  -1  -7 4298.92 363.454  12 
  -6  -1  -7 3962.24 193.521  16 
  -6  -1  -7 4325.72 280.795  22 
  -6  -1  -7 3574.00 322.140  19 
  -6  -1  -6 3210.69 246.764   6 
  -6  -1  -6 3358.44 299.209   5 
  -6  -1  -6 3699.40 304.974   8 
  -6  -1  -6 3526.33 332.746  12 
  -6  -1  -6 3186.27 165.148  16 
  -6  -1  -6 3560.50 255.571  22 
  -6  -1  -6 3000.07 285.265  19 
  -6  -1  -5 31.2653 22.5809   6 
  -6  -1  -5 198.302 87.8627   5 
  -6  -1  -5 60.2089 47.5056   8 
  -6  -1  -5 91.4435 77.8496  12 
  -6  -1  -5 87.9052 29.1060  16 
  -6  -1  -5 77.4391 46.9655  22 
  -6  -1  -5 74.2003 46.2149  19 
  -6  -1  -4 540.224 104.415   6 
  -6  -1  -4 669.362 139.922   5 
  -6  -1  -4 592.393 125.128   8 
  -6  -1  -4 483.304 93.6821  15 
  -6  -1  -4 531.853 61.9850  16 
  -6  -1  -4 511.562 103.375  22 
  -6  -1  -4 367.596 93.8257  19 
  -6  -1  -3 1912.52 193.472   6 
  -6  -1  -3 1938.94 232.749   5 
  -6  -1  -3 2036.08 237.987   8 
  -6  -1  -3 2074.49 198.734  15 
  -6  -1  -3 2083.84 123.901  16 
  -6  -1  -3 1902.95 193.496  13 
  -6  -1  -3 2005.92 199.922  22 
  -6  -1  -3 1318.93 176.976  19 
  -6  -1  -2 17627.8 589.729   6 
  -6  -1  -2 16930.5 685.799   5 
  -6  -1  -2 16884.0 660.723   8 
  -6  -1  -2 18294.1 598.880  15 
  -6  -1  -2 17973.2 351.252  16 
  -6  -1  -2 19152.3 624.323  13 
  -6  -1  -2 18256.7 603.604  22 
  -6  -1  -1 24381.3 691.648   6 
  -6  -1  -1 22964.6 802.163   5 
  -6  -1  -1 23552.5 781.250   8 
  -6  -1  -1 24796.5 714.241  15 
  -6  -1  -1 25858.4 420.210  16 
  -6  -1  -1 25818.5 718.804  13 
  -6  -1  -1 25859.0 715.998  22 
  -6  -1   0 3567.16 261.356   6 
  -6  -1   0 3657.30 321.147   5 
  -6  -1   0 3460.82 301.958   8 
  -6  -1   0 3813.39 283.981  15 
  -6  -1   0 3895.88 287.207  13 
  -6  -1   0 3983.61 283.944  22 
  -6  -1   1 470.959 90.7040   6 
  -6  -1   1 403.528 87.3993   5 
  -6  -1   1 314.475 57.0114   8 
  -6  -1   1 446.000 97.4419  13 
  -6  -1   1 512.794 105.192  15 
  -6  -1   1 597.877 105.549  22 
  -6  -1   2 40.2447 21.3687   6 
  -6  -1   2-71.5765 89.4549   5 
  -6  -1   2 3.69295 61.9365   8 
  -6  -1   2-2.80462 30.8672  13 
  -6  -1   2 13.0700 32.1660  15 
  -6  -1   2 46.6874 28.0422  22 
  -6  -1   3 29.3589 31.8591  13 
  -6  -1   3-15.6773 52.6527  15 
  -6  -1   3 25.5963 29.8743  22 
  -6  -1   4-0.44352 23.7733  13 
  -6  -1   4 20.9531 34.3951  15 
  -6  -1   5 948.674 128.501  15 
  -6  -1   5 831.053 119.951  13 
  -6  -1   6 1276.19 145.547  15 
  -6  -1   6 1341.90 144.410  13 
  -6  -1   7 869.518 107.268  15 
  -6  -1   7 945.432 108.059  13 
  -6  -1   8 1014.60 96.5498  15 
   6   1  -8 860.864 63.3686  17 
  -6  -1   8 1127.12 98.8792  13 
  -7  -2 -12 65.6637 24.5765  16 
  -7  -2 -12 96.8423 46.9946  19 
  -7  -2 -11 6516.56 190.232  16 
  -7  -2 -11 5209.91 306.238  19 
  -7  -2 -10 437.110 53.5971  16 
  -7  -2 -10 401.495 98.6294  19 
  -7  -2  -9-21.0894 24.6605  16 
  -7  -2  -9-95.6806 75.7026  19 
  -7  -2  -8-42.8525 43.8312   6 
  -7  -2  -8-40.4161 27.8846  16 
  -7  -2  -8-130.068 72.4548  19 
  -7  -2  -7 1277.65 145.798   6 
  -7  -2  -7 1149.94 162.477   5 
  -7  -2  -7 1381.34 179.531   8 
  -7  -2  -7 1557.24 114.098  16 
  -7  -2  -7 1393.40 147.270  22 
  -7  -2  -7 937.789 156.691  19 
  -7  -2  -6-2.46864 28.7798   6 
  -7  -2  -6-128.874 87.1812   5 
  -7  -2  -6-13.2007 68.9062   8 
  -7  -2  -6 25.6651 26.2235  16 
  -7  -2  -6 1.19344 42.9721  19 
  -7  -2  -6-28.9058 43.1783  22 
  -7  -2  -5-42.7003 46.8774   6 
  -7  -2  -5-165.308 77.4861   5 
  -7  -2  -5-0.93109 56.4924   8 
  -7  -2  -5 3.30787 19.2524  16 
  -7  -2  -5-7.13681 39.1688  19 
  -7  -2  -5-31.6317 42.9167  22 
  -7  -2  -4-6.89661 33.6063   6 
  -7  -2  -4-59.6647 75.2935   5 
  -7  -2  -4-77.5738 85.6004   8 
  -7  -2  -4-52.9702 38.0083  16 
  -7  -2  -4 49.4299 45.9150  19 
  -7  -2  -4 26.3052 32.3253  22 
  -7  -2  -3 18.2392 36.3989   6 
  -7  -2  -3-74.6629 60.4717   5 
  -7  -2  -3 11.1049 43.6686   8 
  -7  -2  -3-118.304 51.3585  16 
  -7  -2  -3-4.30983 38.5840  22 
  -7  -2  -2 1689.37 178.673   6 
  -7  -2  -2 1431.59 196.311   5 
  -7  -2  -2 1769.59 212.825   8 
  -7  -2  -2 1831.88 187.623  15 
  -7  -2  -2 2222.45 131.823  16 
  -7  -2  -2 1866.86 202.221  13 
  -7  -2  -2 1834.41 182.832  22 
  -7  -2  -1 278.982 76.1047   6 
  -7  -2  -1 120.712 46.5764   5 
  -7  -2  -1 151.241 70.6121   8 
  -7  -2  -1 269.401 84.5523  13 
  -7  -2  -1 170.668 64.8717  15 
  -7  -2  -1 200.061 70.8086  22 
  -7  -2   0 421.995 93.8501   6 
  -7  -2   0 269.929 75.5057   5 
  -7  -2   0 320.993 109.698   8 
  -7  -2   0 492.629 108.561  13 
  -7  -2   0 291.839 83.7584  15 
  -7  -2   0 341.072 82.4435  22 
  -7  -2   1 161.907 50.4797   6 
  -7  -2   1 321.997 115.229   5 
  -7  -2   1 289.712 89.6415  13 
  -7  -2   1 218.108 69.0398  15 
  -7  -2   1 266.825 71.2180  22 
  -7  -2   2 15.9119 27.4984   6 
  -7  -2   2 96.0064 44.9958  13 
  -7  -2   2 32.2841 30.3078  15 
  -7  -2   2 25.1606 21.8779  22 
  -7  -2   3 470.003 87.5427  15 
  -7  -2   3 460.372 90.7400  13 
  -7  -2   3 485.908 76.3141  22 
  -7  -2   4 23.8076 33.7331  13 
  -7  -2   4 71.8260 39.5193  15 
  -7  -2   5 942.658 96.3531  15 
  -7  -2   5 1229.92 125.693  13 
  -7  -2   6 810.842 89.5379  13 
  -8  -3 -10 1715.09 150.098  19 
  -8  -3  -9 412.808 43.6170  16 
  -8  -3  -9 1497.85 151.459  19 
  -8  -3  -8 2036.23 151.860   6 
  -8  -3  -8 1759.36 99.4887  16 
  -8  -3  -7 503.715 78.2164   6 
  -8  -3  -7 557.055 80.1442  22 
  -8  -3  -6 891.005 76.1915  16 
  -8  -3  -6 961.776 109.629  22 
  -8  -3  -5 472.788 84.8657   6 
  -8  -3  -5 438.257 75.6716  22 
  -8  -3  -4 535.521 90.6195   6 
  -8  -3  -4 563.517 91.2526  22 
  -8  -3  -3 173.419 54.8163   6 
  -8  -3  -3 215.354 55.8308  22 
  -8  -3  -2 644.186 101.431   6 
  -8  -3  -2 676.047 98.0275  22 
  -8  -3  -1-37.0418 44.3694   6 
  -8  -3  -1-9.80756 32.4061  22 
  -8  -3   0 15105.3 434.884   6 
  -8  -3   0 16383.4 452.363  22 
  -8  -3   1 161.284 65.6903  13 
  -8  -3   1 87.1927 41.1158  22 
  -8  -3   2 90.0595 43.3182  13 
  -8  -3   2-58.4646 39.0014  22 
  -8  -3   3 113.762 35.4781  13 
  -4 -10   1 525.818 43.8254   7 
  -4 -10   1 463.248 61.6436  22 
  -4 -10   0 56.0613 22.1770   6 
  -4 -10   0 119.597 23.2096   7 
   4  10   0 133.112 44.5606  34 
  -4 -10   0 77.1851 23.4135  22 
  -4 -10  -1 1766.31 83.3535   7 
   4  10   1 1793.65 136.573  34 
  -4 -10  -2 229.822 47.2192   6 
  -4 -10  -2 273.383 33.4795   7 
   4  10   2 237.333 48.4535  34 
  -4 -10  -3 1400.65 107.487   6 
   4  10   3 2078.38 141.444  34 
   4  10   4 2043.91 135.317  34 
  -3  -9   6 1341.23 71.1905  14 
   3   9  -6 1448.49 119.932  12 
   3   9  -6 1343.02 73.8303  31 
  -3  -9   5 314.375 39.6852  14 
   3   9  -5 344.318 67.7129  12 
   3   9  -5 355.821 45.1774  31 
   3   9  -5 315.451 67.2702  34 
  -3  -9   5 245.658 60.5960  22 
  -3  -9   4 5.55246 15.9423  14 
  -3  -9   4 11.2244 16.7383   7 
  -3  -9   4 15.0685 20.1960   6 
   3   9  -4-11.3589 18.9291  31 
  -3  -9   4-23.3216 36.4267  22 
  -3  -9   3 497.931 54.3413  14 
   3   9  -3 466.342 55.6440  31 
   3   9  -3 445.197 88.8245  34 
  -3  -9   3 347.236 76.9456   6 
  -3  -9   3 453.216 55.4217   7 
  -3  -9   2 221.683 38.1643  14 
   3   9  -2 246.342 68.9536  34 
   3   9  -2 235.758 41.6535  31 
  -3  -9   2 220.231 41.7439   7 
  -3  -9   2 236.011 67.8648   6 
  -3  -9   1 324.760 45.8108  14 
   3   9  -1 280.664 79.5892  34 
   3   9  -1 325.160 51.6340  31 
  -3  -9   1 316.003 49.5821   7 
  -3  -9   1 227.844 67.7844   6 
  -3  -9   0 216.380 31.6955  17 
  -3  -9   0 257.747 40.4844  14 
   3   9   0 234.533 70.8985  34 
   3   9   0 278.381 46.6876  31 
  -3  -9   0 260.780 48.7224   7 
  -3  -9   0 170.888 63.2502   6 
  -3  -9  -1 98.1624 25.0043  17 
  -3  -9  -1 84.9861 26.0619  14 
  -3  -9  -1 94.0605 31.1910   7 
  -3  -9  -1 49.8091 28.5208   6 
   3   9   1 123.811 48.3109  34 
   3   9   1 129.444 35.1177  31 
  -3  -9  -2 42.1189 23.0562  17 
  -3  -9  -2 4.80424 17.7732   7 
  -3  -9  -2 20.7594 31.3171   6 
   3   9   2 18.0357 31.8953  34 
  -3  -9  -2 43.1977 31.3849  22 
  -3  -9  -3-17.5001 19.9367  17 
   3   9   3-19.6262 38.1812  34 
  -3  -9  -3-48.3640 23.4293   7 
  -3  -9  -3-25.8663 39.2398   6 
  -3  -9  -4 2148.65 105.533  17 
   3   9   4 2166.60 188.329  34 
  -3  -9  -4 1999.60 109.582   7 
  -3  -9  -5 261.963 36.4880  17 
   3   9   5 242.940 59.8257  34 
  -3  -9  -6 80.0703 22.6866  17 
   3   9   6 110.203 29.9684  34 
  -3  -9  -7 2769.98 104.800  17 
   3   9   7 2888.76 175.253  34 
  -3  -9  -8 1668.82 73.1118  17 
  -2  -8   9 167.387 22.8578  14 
   2   8  -9 136.882 26.5561  31 
   2   8  -8-10.5266 40.2525  12 
  -2  -8   8 8.33024 12.1246  14 
   2   8  -8-10.3594 21.8206  34 
   2   8  -8 20.0504 17.6716  31 
   2   8  -7 132.469 50.7829  12 
  -2  -8   7 51.6352 16.1052  14 
   2   8  -7 75.8451 41.9572  34 
   2   8  -7 110.268 31.6581  31 
  -2  -8   6 158.947 34.3278  14 
   2   8  -6 152.978 62.7094  34 
   2   8  -6 121.764 30.5835  31 
  -2  -8   5 34.4823 22.9859  14 
   2   8  -5 6.93875 46.1067  34 
   2   8  -5-1.43073 26.5556  31 
  -2  -8   5 11.5386 21.3111   7 
  -2  -8   4 1573.80 113.936  14 
   2   8  -4 1590.68 119.287  31 
   2   8  -4 1525.52 194.617  34 
  -2  -8   4 1445.28 114.601   7 
  -2  -8   3 521.074 68.5575  14 
   2   8  -3 442.218 117.371  34 
   2   8  -3 364.472 57.0334  31 
  -2  -8   3 382.443 61.2974   7 
  -2  -8   2 1547.73 118.144  14 
   2   8  -2 1372.83 114.383  31 
   2   8  -2 1623.50 204.819  34 
  -2  -8   2 1554.42 126.300   7 
  -2  -8   1 244.917 52.4832  14 
   2   8  -1 240.568 96.3073  34 
   2   8  -1 17.5399 36.0608  31 
  -2  -8   0 10755.9 306.325  14 
  -2  -8   0 11061.0 258.650  17 
   2   8   0 10799.5 523.293  34 
  -2  -8  -1 1784.42 122.964  14 
  -2  -8  -1 1962.44 109.061  17 
   2   8   1 2044.81 230.430  34 
  -2  -8  -1 1857.13 143.308   7 
  -2  -8  -2 543.008 67.8443  14 
  -2  -8  -2 440.948 52.7895  17 
   2   8   2 548.286 121.444  34 
  -2  -8  -2 523.823 75.0223   7 
  -2  -8  -3 2077.57 123.782  14 
  -2  -8  -3 2266.37 124.394  17 
   2   8   3 2127.79 218.178  34 
  -2  -8  -3 2143.44 142.207   7 
  -2  -8  -4 8081.51 233.279  17 
   2   8   4 7699.55 411.078  34 
   2   8   4 7084.92 293.856  33 
  -2  -8  -4 7061.51 239.237   7 
  -2  -8  -5 1331.51 95.4487  17 
   2   8   5 1352.27 168.768  34 
   2   8   5 1268.24 126.235  33 
  -2  -8  -6 891.738 75.4918  17 
   2   8   6 924.800 130.788  34 
   2   8   6 840.672 102.375  33 
  -2  -8  -7 393.769 52.0721  17 
   2   8   7 411.422 79.4258  34 
   2   8   7 414.017 72.5043  33 
  -2  -8  -8 2921.05 123.146  17 
   2   8   8 2891.11 173.945  33 
   2   8   8 2770.90 156.650  21 
  -2  -8  -9 413.419 42.4116  17 
   2   8   9 432.629 64.9219  33 
  -2  -8 -10 441.574 38.5014  17 
   2   8  10 516.421 59.8509  33 
   1   7 -11 290.569 56.9713  12 
   1   7 -11 286.796 36.6540  31 
  -1  -7  11 184.176 40.3859  32 
   1   7 -10 225.274 65.6029  12 
  -1  -7  10 132.454 44.5400  32 
   1   7 -10 114.539 31.4795  31 
   1   7 -10 149.442 52.7924  34 
  -1  -7   9 407.416 44.6556  14 
   1   7  -9 423.826 91.4476  12 
   1   7  -9 446.854 60.2585  31 
   1   7  -9 437.935 104.162  34 
  -1  -7   9 365.906 75.6080  32 
  -1  -7   8 4034.22 158.333  14 
   1   7  -8 4402.62 312.750  12 
   1   7  -8 4239.56 187.741  31 
   1   7  -8 4110.21 319.366  34 
  -1  -7   8 3687.30 250.604  32 
   1   7  -8 3943.00 291.358  20 
  -1  -7   7 774.192 75.3560  14 
   1   7  -7 629.504 77.6673  31 
   1   7  -7 756.117 149.580  34 
  -1  -7   7 664.317 114.340  32 
   1   7  -7 603.882 115.697  20 
  -1  -7   6 679.069 74.6208  14 
   1   7  -6 608.519 81.8865  31 
   1   7  -6 582.515 128.835  34 
  -1  -7   6 568.708 105.892  32 
   1   7  -6 652.393 127.882  20 
  -1  -7   5 1085.61 98.8839  14 
   1   7  -5 963.122 97.7636  31 
   1   7  -5 1150.15 183.258  34 
  -1  -7   5 859.373 134.952  32 
   1   7  -5 928.850 143.419  20 
  -1  -7   4 4369.10 199.847  14 
   1   7  -4 3578.63 189.392  31 
   1   7  -4 3785.29 325.218  34 
  -1  -7   4 3368.17 264.429  32 
   1   7  -4 3971.10 301.023  20 
  -1  -7   3 17237.3 398.492  14 
   1   7  -3 15524.2 658.516  34 
  -1  -7   2 4365.98 206.155  14 
   1   7  -2 4284.91 338.902  34 
  -1  -7   1 10.1701 30.4653  14 
   1   7  -1-11.2176 50.3414  34 
  -1  -7   0 15203.0 374.483  14 
  -1  -7   0 14622.4 294.809  17 
   1   7   0 14296.4 599.171  34 
   1   7   0 14719.0 473.047  21 
  -1  -7  -1 3170.80 170.967  14 
  -1  -7  -1 3024.16 139.443  17 
   1   7   1 2955.44 270.264  34 
   1   7   1 2931.30 213.100  21 
  -1  -7  -2 7101.29 253.152  14 
  -1  -7  -2 7407.38 224.697  17 
   1   7   2 6982.69 404.885  34 
   1   7   2 7000.06 326.030  33 
   1   7   2 7224.94 337.897  21 
  -1  -7  -3 2213.12 140.336  14 
  -1  -7  -3 2247.97 125.977  17 
   1   7   3 2673.15 248.919  34 
   1   7   3 2380.64 196.421  33 
   1   7   3 2242.59 190.800  21 
  -1  -7  -4 1384.30 106.772  14 
  -1  -7  -4 1469.99 106.133  17 
   1   7   4 1536.78 182.012  34 
   1   7   4 1501.22 158.169  33 
   1   7   4 1551.66 158.889  21 
  -1  -7  -5 3290.30 161.338  14 
  -1  -7  -5 3401.82 162.247  17 
   1   7   5 3732.13 278.049  34 
   1   7   5 3750.06 250.093  33 
   1   7   5 3590.17 242.684  21 
  -1  -7  -6 36.2071 25.3391  17 
   1   7   6 48.1681 34.6680  33 
   1   7   6 77.7565 35.3694  21 
  -1  -7  -7 443.645 62.0255  17 
   1   7   7 509.798 88.0967  33 
   1   7   7 432.211 75.5058  21 
  -1  -7  -8 490.765 58.7626  17 
   1   7   8 547.158 88.3163  33 
   1   7   8 498.703 85.2019  21 
  -1  -7  -9 61.5827 25.5313  17 
   1   7   9 80.9344 36.2262  33 
   1   7   9 100.971 38.8263  21 
  -1  -7 -10 2033.75 97.1649  17 
   1   7  10 2168.59 154.124  33 
   1   7  10 2353.55 156.183  21 
  -1  -7 -11 5441.73 132.361  17 
   1   7  11 6127.25 220.710  33 
   1   7  11 5946.21 215.741  21 
   0  -6  13 77.2618 19.4768  32 
   0   6 -12 425.306 93.0345  19 
   0   6 -12 507.046 90.0900  12 
   0   6 -12 528.170 52.0784  31 
   0   6 -12 582.041 92.8929  34 
   0  -6  12 466.519 70.7659  32 
   0   6 -11 402.158 88.3273  12 
   0  -6  11 303.404 69.6147  32 
   0   6 -11 405.897 56.4699  31 
   0   6 -11 357.666 81.8878  34 
   0   6 -10 1949.40 214.508  12 
   0   6 -10 2051.32 130.238  31 
   0   6 -10 2095.24 237.500  34 
   0  -6  10 1798.65 179.609  32 
   0   6 -10 2058.35 216.689  20 
   0   6  -9 825.243 144.596  12 
   0   6  -9 858.165 89.5809  31 
   0   6  -9 782.825 157.030  34 
   0  -6   9 773.932 126.387  32 
   0   6  -9 975.699 152.128  20 
   0   6  -8 212.740 69.5066  12 
   0  -6   8 225.769 41.5590  14 
   0  -6   8 177.047 70.0312  32 
   0   6  -8 254.765 55.0704  31 
   0   6  -8 212.010 70.3502  34 
   0   6  -8 173.120 74.9689  20 
   0  -6   7 4047.60 177.520  14 
   0   6  -7 4191.62 326.347  12 
   0   6  -7 3950.97 193.307  31 
   0   6  -7 4283.59 359.115  34 
   0  -6   7 3620.95 289.058  32 
   0   6  -7 4133.63 336.881  20 
   0  -6   6 3251.24 163.780  14 
   0   6  -6 3054.62 171.221  31 
   0   6  -6 3328.86 319.213  34 
   0   6  -6 3190.45 289.841  20 
   0  -6   5 3025.81 159.224  14 
   0   6  -5 2817.00 283.768  34 
   0   6  -5 2683.43 257.463  20 
   0  -6   4 1283.45 105.438  14 
   0   6  -4 985.226 218.727   3 
   0   6  -4 1200.06 183.548  34 
   0   6  -4 1140.10 163.453  20 
   0   6  -4 1033.56 339.666  24 
   0  -6   3 1670.64 123.468  14 
   0  -6   3 1490.46 232.123  10 
   0   6  -3 1009.29 223.093   3 
   0   6  -3 1331.02 186.523  34 
   0   6  -3 1394.36 150.806  21 
   0   6  -3 1349.06 170.774  20 
   0   6  -3 1661.71 450.374  24 
   0  -6   2 20994.8 429.523  14 
   0  -6   2 19950.9 853.189  10 
   0   6  -2 18110.4 933.412   3 
   0   6  -2 18723.5 674.421  34 
   0   6  -2 18555.9 1385.89  30 
   0   6  -2 18434.2 615.349  20 
   0   6  -2 18287.4 547.401  21 
   0  -6   1 11649.4 325.442  14 
   0  -6   1 11752.9 657.073  10 
   0   6  -1 10640.4 714.333   3 
   0   6  -1 10877.0 499.871  34 
   0   6  -1 11040.1 399.226  33 
   0   6  -1 11005.9 1041.20  30 
   0   6  -1 11246.5 1171.24  29 
   0   6  -1 10940.9 459.652  20 
   0   6  -1 10965.8 422.982  21 
   0  -6   0 153.649 36.3589  14 
   0  -6   0 110.747 69.4654  10 
   0   6   0-38.5063 49.1172   3 
   0   6   0 288.313 188.303  29 
   0   6   0 136.481 51.6614  34 
   0   6   0 94.7119 30.9090  33 
   0   6   0-135.517 123.880  30 
   0  -6   0 326.052 104.806  26 
   0   6   0 89.9657 37.2721  21 
   0   6   0 131.483 49.4287  20 
   0  -6  -1 3728.53 188.572  14 
   0  -6  -1 3605.17 149.085  17 
   0  -6  -1 3490.37 371.199  10 
   0   6   1 3301.65 403.865   3 
   0   6   1 3707.13 276.122  34 
   0   6   1 3826.81 241.365  33 
   0   6   1 3925.02 619.428  30 
   0   6   1 3791.86 645.035  29 
   0   6   1 3535.20 244.114  20 
   0  -6  -1 3402.79 353.351  26 
   0   6   1 3756.56 249.666  21 
   0  -6  -2 8891.60 284.294  14 
   0  -6  -2 8726.92 235.121  17 
   0  -6  -2 8305.10 585.333  10 
   0   6   2 7205.32 587.774   3 
   0   6   2 7739.16 392.312  34 
   0   6   2 8644.36 370.245  33 
   0   6   2 8825.72 930.550  30 
   0   6   2 8878.52 993.714  29 
   0   6   2 8358.42 378.031  21 
   0  -6  -2 7626.42 548.007  26 
   0  -6  -3 20715.9 432.706  14 
   0  -6  -3 21019.0 375.222  17 
   0  -6  -3 20816.3 960.933  10 
   0   6   3 20291.0 582.037  33 
   0   6   3 21082.8 1441.81  30 
   0   6   3 21799.0 1561.48  29 
   0  -6  -3 19314.8 905.442  26 
   0   6   3 21340.0 613.724  21 
   0  -6  -4 4464.63 201.431  14 
   0  -6  -4 4798.13 185.915  17 
   0   6   4 4782.58 287.571  33 
   0   6   4 5113.23 723.921  30 
   0   6   4 4920.27 299.189  21 
   0  -6  -5 219.050 43.5097  17 
   0  -6  -5 173.526 42.0132  14 
   0   6   5 304.061 77.9020  33 
   0   6   5 281.249 78.2375  21 
   0  -6  -6 410.658 60.0209  14 
   0  -6  -6 411.317 55.8192  17 
   0   6   6 496.326 89.9947  33 
   0   6   6 476.299 96.0684  21 
   0  -6  -7 12073.7 303.098  17 
   0   6   7 11526.7 452.764  33 
   0   6   7 11819.7 469.745  21 
   0  -6  -8 1721.09 115.332  17 
   0   6   8 1603.52 164.598  33 
   0   6   8 1660.93 173.827  21 
   0  -6  -9 631.231 67.7098  17 
   0   6   9 706.222 103.020  33 
   0   6   9 682.692 107.586  21 
   0  -6 -10 16.5853 18.4559  17 
   0   6  10 48.3769 27.2667  33 
   0   6  10 77.4824 39.6298  21 
   0  -6 -11 1689.97 84.2036  17 
   0   6  11 1768.38 127.754  33 
   0   6  11 1910.82 144.594  21 
   0   6  12 650.245 68.8480  21 
   1  -5  14-22.6762 20.9565  32 
  -1   5 -13 1264.80 139.103  12 
  -1   5 -13 1267.40 77.8645  31 
  -1   5 -13 1407.88 162.030  34 
   1  -5  13 1066.11 112.011  32 
  -1   5 -13 1394.53 152.756  19 
  -1   5 -12 13.8478 48.4414  12 
  -1   5 -12-19.8142 57.4502  19 
   1  -5  12 57.1025 39.7611  32 
  -1   5 -12 31.1115 19.0284  31 
  -1   5 -12-1.48623 38.9498  34 
  -1   5 -11 133.268 65.2321  12 
   1  -5  11 68.5836 39.1933  32 
  -1   5 -11 158.836 37.7383  31 
  -1   5 -11 64.5346 55.1492  34 
  -1   5 -11 55.8841 36.7459  20 
  -1   5 -10 724.089 150.413  12 
   1  -5  10 482.090 106.948  32 
  -1   5 -10 506.579 64.8834  31 
  -1   5 -10 522.777 129.071  34 
  -1   5 -10 504.641 115.345  20 
  -1   5  -9 4109.39 340.032  12 
  -1   5  -9 4326.37 199.128  31 
  -1   5  -9 4449.74 377.166  34 
   1  -5   9 3523.53 289.768  32 
  -1   5  -9 3915.81 332.162  20 
  -1   5  -8 2258.20 248.131  12 
  -1   5  -8 2215.48 143.069  31 
  -1   5  -8 2066.35 261.058  34 
   1  -5   8 2223.52 230.951  32 
  -1   5  -8 2581.62 265.600  20 
  -1   5  -7 5873.23 400.103  12 
  -1   5  -7 5983.38 428.649  34 
  -1   5  -7 6053.45 403.529  20 
   1  -5   6 9267.68 263.141  14 
  -1   5  -6 8992.50 485.881  12 
   1  -5   6 10124.5 678.789  10 
  -1   5  -6 7915.72 627.317   3 
  -1   5  -6 9672.97 414.615   8 
  -1   5  -6 9179.84 514.969  34 
  -1   5  -6 8906.76 470.728  20 
   1  -5   5 9914.32 274.154  14 
  -1   5  -5 9853.66 479.678  12 
   1  -5   5 10264.7 663.280  10 
  -1   5  -5 8190.19 634.505   3 
  -1   5  -5 10405.3 453.089   5 
  -1   5  -5 10067.8 445.328   8 
  -1   5  -5 9609.17 516.634  34 
  -1   5  -5 9561.66 472.134  20 
  -1   5  -4 33.6272 51.8684  12 
   1  -5   4 70.5199 26.2589  14 
   1  -5   4 4.17246 26.8730  10 
  -1   5  -4-26.6071 44.6917   3 
  -1   5  -4 103.926 57.4336   8 
  -1   5  -4 19.2008 41.7245  34 
  -1   5  -4 110.290 41.9378  33 
  -1   5  -4 64.0433 49.1781  20 
   1  -5   3 844.524 85.8066  14 
   1  -5   3 656.319 164.264  10 
  -1   5  -3 756.105 190.071   3 
  -1   5  -3 767.153 133.745  34 
  -1   5  -3 887.774 115.710  33 
  -1   5  -3 777.965 125.815  20 
  -1   5  -3 889.833 127.118  21 
   1  -5   2 205.288 44.0434  14 
   1  -5   2-4.52603 26.5559  10 
  -1   5  -2 90.2919 93.6921   3 
  -1   5  -2 451.807 219.133  29 
  -1   5  -2 324.792 90.6153  34 
  -1   5  -2 171.905 50.7875  33 
  -1   5  -2 181.253 57.0895  21 
  -1   5  -2 171.125 53.9949  20 
   1  -5   1 435.747 62.8979  14 
   1  -5   1 496.243 142.967  10 
  -1   5  -1 376.986 135.281   3 
  -1   5  -1 268.787 177.188  29 
  -1   5  -1 507.758 88.6819  33 
  -1   5  -1 367.985 183.495  30 
  -1   5  -1 456.247 93.5291  20 
  -1   5  -1 528.866 97.8571  21 
   1  -5   0 4073.91 184.645  14 
   1  -5   0 4077.60 390.227  10 
  -1   5   0 3133.21 383.872   3 
  -1   5   0 3859.83 238.462  33 
  -1   5   0 3742.10 579.501  30 
  -1   5   0 4336.65 648.927  29 
   1  -5   0 3447.86 336.151  26 
  -1   5   0 3844.07 255.342  20 
  -1   5   0 4063.95 255.635  21 
   1  -5  -1 4173.75 402.333  10 
  -1   5   1 3194.58 386.426   3 
  -1   5   1 4305.63 652.886  29 
  -1   5   1 4261.16 254.848  33 
  -1   5   1 4179.05 609.752  30 
   1  -5  -1 3869.04 370.072  26 
  -1   5   1 4085.73 259.113  20 
  -1   5   1 4488.94 272.396  21 
   1  -5  -2 264.787 48.8414  17 
   1  -5  -2 255.770 110.965  10 
  -1   5   2 365.169 125.597   3 
  -1   5   2 269.853 70.7450   8 
  -1   5   2 490.626 218.275  29 
  -1   5   2 263.394 67.4387  33 
  -1   5   2 31.4072 66.1918  30 
  -1   5   2 227.315 59.9842  20 
   1  -5  -2 96.5592 42.9850  26 
  -1   5   2 298.966 75.3520  21 
   1  -5  -3 720.992 71.4158  17 
   1  -5  -3 653.024 178.231  10 
  -1   5   3 803.143 124.657   5 
  -1   5   3 685.012 168.629   3 
  -1   5   3 690.624 113.738   8 
  -1   5   3 696.591 105.424  33 
  -1   5   3 466.484 207.677  29 
  -1   5   3 630.677 230.091  30 
   1  -5  -3 744.990 165.983  26 
  -1   5   3 749.260 108.628  20 
  -1   5   3 699.022 108.618  21 
   1  -5  -4 12203.6 297.652  17 
   1  -5  -4 11729.3 744.277  10 
  -1   5   4 11455.1 448.764   5 
  -1   5   4 11311.8 436.627   8 
  -1   5   4 11554.9 1101.81  29 
  -1   5   4 11191.8 1002.99  30 
  -1   5   4 10393.9 415.807  33 
   1  -5  -4 11516.5 710.783  26 
  -1   5   4 11657.9 438.173  20 
  -1   5   4 11320.1 456.191  21 
   1  -5  -5 8594.94 262.096  17 
  -1   5   5 8021.70 371.109  33 
  -1   5   5 8325.93 372.029  20 
  -1   5   5 8734.86 407.644  21 
   1  -5  -6 19.8053 25.5459  17 
  -1   5   6-31.1955 43.8506  33 
  -1   5   6-0.40302 29.6580  20 
  -1   5   6-7.45205 29.5487  21 
   1  -5  -7 7676.33 253.101  17 
  -1   5   7 7207.61 353.432  33 
  -1   5   7 7490.01 350.426  20 
  -1   5   7 7493.02 385.148  21 
   1  -5  -8 118.860 38.1872  17 
  -1   5   8 104.248 52.6491  33 
  -1   5   8 95.4214 43.4157  20 
  -1   5   8 118.240 53.9925  21 
   1  -5  -9 115.655 38.0834  17 
  -1   5   9 112.174 40.9591  33 
  -1   5   9 48.2472 35.1956  20 
  -1   5   9 153.420 54.1922  21 
   1  -5 -10 585.455 59.3539  17 
  -1   5  10 599.896 86.5326  33 
  -1   5  10 756.011 103.264  21 
   1  -5 -11 251.086 34.9079  17 
  -1   5  11 352.564 57.3237  33 
  -1   5  11 336.543 63.9349  21 
   1  -5 -12-10.1688 16.0089  17 
  -1   5  12 18.4000 17.3527  21 
  -2   4 -14 1288.93 133.566  12 
  -2   4 -14 1205.13 69.9922  31 
   2  -4  14 1092.70 101.138  32 
  -2   4 -14 1372.68 142.942  19 
  -2   4 -13 3694.16 270.892  12 
  -2   4 -13 3447.20 140.530  31 
  -2   4 -13 3854.03 304.268  34 
   2  -4  13 2999.14 204.844  32 
  -2   4 -13 4085.24 295.988  19 
  -2   4 -12 2049.82 223.424  12 
  -2   4 -12 1707.75 111.373  31 
  -2   4 -12 1997.75 246.832  34 
   2  -4  12 1579.51 171.321  32 
  -2   4 -12 1856.21 237.451  19 
  -2   4 -11-2.13860 46.8444  12 
   2  -4  11 36.3544 25.6136  32 
  -2   4 -11 38.0458 20.4221  31 
  -2   4 -11 54.0289 63.9040  34 
  -2   4 -11 23.1858 31.3391  20 
  -2   4 -10 1253.45 191.341  19 
  -2   4 -10 1104.16 181.812  12 
  -2   4 -10 1129.85 102.252  31 
  -2   4 -10 1262.36 207.216  34 
   2  -4  10 1051.64 156.562  32 
  -2   4 -10 1249.00 186.245  20 
  -2   4  -9 10954.3 577.272  12 
  -2   4  -9 9925.29 572.156  34 
   2  -4   9 10041.5 484.012  32 
  -2   4  -9 10298.0 531.175  20 
  -2   4  -8 2630.15 286.288  12 
  -2   4  -8 2170.54 261.057  34 
  -2   4  -8 2509.59 258.602  20 
   2  -4   7 6701.58 582.087  10 
  -2   4  -7 6865.95 446.202  12 
  -2   4  -7 6034.02 425.025  34 
   2  -4   7 6465.77 509.647  27 
  -2   4  -7 6616.71 406.550  20 
  -2   4  -6 133.055 77.4823  12 
   2  -4   6-14.3190 43.8676  10 
  -2   4  -6 27.7078 73.6034   3 
  -2   4  -6 71.0341 27.6128   8 
  -2   4  -6 127.104 54.7249   5 
  -2   4  -6 71.4263 55.0094  34 
  -2   4  -6 98.2956 41.5315  33 
   2  -4   6-34.8715 46.8171  27 
  -2   4  -6 112.804 53.6152  20 
  -2   4  -5 2981.96 273.009  12 
   2  -4   5 3071.76 375.167  10 
  -2   4  -5 2241.29 343.258   3 
  -2   4  -5 3087.30 252.340   5 
  -2   4  -5 2964.79 242.043   8 
  -2   4  -5 2780.94 270.854  34 
  -2   4  -5 2862.79 216.935  33 
   2  -4   5 3032.45 338.096  27 
  -2   4  -5 2761.98 242.453  20 
   2  -4   4 0.51034 37.4081  10 
  -2   4  -4 90.0969 93.4511   3 
  -2   4  -4 66.8472 52.5865   8 
  -2   4  -4 9.70141 32.6584   5 
  -2   4  -4-47.9391 42.3108  34 
  -2   4  -4 49.6868 42.1420  33 
   2  -4   4 16.9204 50.3861  27 
  -2   4  -4 21.9076 37.3302  21 
  -2   4  -4-22.0137 33.1176  20 
   2  -4   3 1059.15 210.062  10 
  -2   4  -3 1035.97 148.567   5 
  -2   4  -3 1186.11 160.582   8 
  -2   4  -3 865.391 210.343   3 
  -2   4  -3 1075.32 334.856  29 
  -2   4  -3 1004.14 124.658  33 
  -2   4  -3 1022.76 135.585  20 
  -2   4  -3 1107.53 136.924  21 
   2  -4   3 976.871 183.123  27 
   2  -4   2 1114.35 202.877  10 
  -2   4  -2 834.146 200.146   3 
  -2   4  -2 1238.42 337.891  29 
   2  -4   2 1034.31 182.518  27 
   2  -4   1 2153.23 277.291  10 
  -2   4  -1 1572.85 284.964   3 
  -2   4  -1 2182.69 425.458  29 
   2  -4   1 1963.55 230.960  26 
   2  -4   0-11.8490 43.5682  10 
  -2   4   0-135.565 83.3937   3 
  -2   4   0-24.7256 36.7870   8 
  -2   4   0 0.08962 39.3447  33 
  -2   4   0 18.0478 27.6714  20 
   2  -4   0-51.1386 46.6676  26 
  -2   4   0 11.3397 24.8089  21 
   2  -4  -1 8042.33 551.394  10 
  -2   4   1 6138.23 522.038   3 
  -2   4   1 7950.41 400.642   5 
  -2   4   1 7424.67 381.462   8 
  -2   4   1 7553.41 826.459  29 
  -2   4   1 8130.24 855.951  30 
  -2   4   1 7515.97 336.745  33 
   2  -4  -1 7092.85 492.639  26 
  -2   4   1 7945.32 361.760  20 
  -2   4   1 7834.07 349.254  21 
   2  -4  -2 13317.2 294.079  17 
   2  -4  -2 14431.9 756.480  10 
  -2   4   2 10861.3 678.288   3 
  -2   4   2 12966.1 502.362   5 
  -2   4   2 12325.1 486.208   8 
  -2   4   2 14178.3 1146.92  29 
  -2   4   2 15444.2 1171.84  30 
  -2   4   2 13541.5 458.814  33 
   2  -4  -2 12719.9 699.020  26 
  -2   4   2 14432.3 490.014  20 
  -2   4   2 13477.5 466.051  21 
   2  -4  -3 540.734 64.1387  17 
   2  -4  -3 359.560 124.022  10 
  -2   4   3 570.025 103.310   8 
  -2   4   3 507.864 94.2101   5 
  -2   4   3 407.159 200.575  29 
  -2   4   3 539.656 96.6413  33 
   2  -4  -3 391.106 117.750  26 
  -2   4   3 518.840 96.0356  20 
  -2   4   3 491.620 89.9203  21 
   2  -4  -4 387.505 61.9129  17 
   2  -4  -4 494.495 157.846  10 
  -2   4   4 315.302 181.715  29 
  -2   4   4 364.440 78.8271  33 
  -2   4   4 434.828 90.3056  20 
   2  -4  -4 488.667 161.156  26 
  -2   4   4 372.297 82.2069  21 
   2  -4  -5 9868.61 289.495  17 
   2  -4  -5 10024.6 706.610  10 
  -2   4   5 9996.28 1044.74  29 
  -2   4   5 8892.89 387.143  33 
   2  -4  -5 8941.19 665.801  26 
  -2   4   5 9926.38 425.819  20 
  -2   4   5 9009.94 401.784  21 
   2  -4  -6 9299.77 286.583  17 
  -2   4   6 8453.29 379.524  33 
  -2   4   6 9412.25 421.091  20 
  -2   4   6 8516.59 394.664  21 
  -2   4   7 8167.92 350.775  15 
   2  -4  -7 8368.57 275.896  17 
  -2   4   7 7740.94 360.798  33 
  -2   4   7 8253.59 395.507  20 
  -2   4   7 7336.42 368.985  21 
  -2   4   8 7898.58 339.838  15 
   2  -4  -8 7830.18 260.992  17 
  -2   4   8 7373.66 339.712  33 
  -2   4   8 8031.08 380.198  20 
  -2   4   8 7385.56 362.218  21 
  -2   4   9-57.7400 43.2878  15 
   2  -4  -9-6.02927 38.4215  17 
  -2   4   9-10.9937 19.6853  33 
  -2   4   9 23.0027 24.8416  20 
  -2   4   9-19.0592 35.4197  21 
  -2   4  10 3171.09 187.030  15 
   2  -4 -10 2958.05 137.477  17 
  -2   4  10 2972.24 199.361  20 
  -2   4  10 2956.59 198.090  21 
  -2   4  11 3181.78 159.973  15 
   2  -4 -11 3081.01 120.988  17 
  -2   4  11 3234.36 178.004  20 
  -2   4  11 3259.76 177.024  21 
  -3   3 -14 36.9573 34.3906  12 
  -3   3 -14 43.9759 15.5616  31 
  -3   3 -13-36.7336 60.5997  12 
   3  -3  13-4.20443 18.7458  32 
  -3   3 -13-18.6144 16.0871  31 
  -3   3 -12 207.276 86.6999  12 
   3  -3  12 197.653 56.7005  32 
  -3   3 -12 163.123 40.4353  31 
  -3   3 -12 189.134 89.5161  34 
  -3   3 -12 42.0742 80.0478  19 
  -3   3 -11 164.913 62.0437  12 
   3  -3  11 257.188 72.3643  32 
  -3   3 -11 257.949 71.6819  34 
  -3   3 -11 285.136 79.5051  20 
  -3   3 -11 360.439 123.689  19 
  -3   3 -10 6290.74 464.769  12 
  -3   3 -10 6064.92 459.281  34 
   3  -3  10 6176.17 363.844  32 
  -3   3 -10 6484.41 410.189  20 
  -3   3 -10 6876.23 486.566  19 
  -3   3  -9 2153.94 270.626  12 
  -3   3  -9 1962.95 251.052  34 
   3  -3   9 1927.03 210.242  32 
  -3   3  -9 2144.94 237.849  20 
  -3   3  -9 2424.42 294.759  19 
  -3   3  -8 0.58081 59.1463  12 
  -3   3  -8-38.0688 61.1332  34 
  -3   3  -8 8.97584 33.7568  20 
  -3   3  -8 68.0283 74.0035  19 
   3  -3   7 1882.25 311.018  10 
  -3   3  -7 1971.60 252.456  12 
  -3   3  -7 1387.00 251.852   3 
  -3   3  -7 1653.63 232.893  34 
   3  -3   7 1852.11 278.710  27 
  -3   3  -7 1895.16 212.896  20 
  -3   3  -7 2093.52 262.103  19 
   3  -3   6 7953.46 622.214  10 
  -3   3  -6 7827.36 468.977  12 
  -3   3  -6 6227.04 550.182   3 
  -3   3  -6 7052.51 378.905   5 
  -3   3  -6 7430.93 385.262   8 
  -3   3  -6 7419.35 464.854  34 
   3  -3   6 7880.93 582.030  27 
  -3   3  -6 7574.97 414.854  20 
  -3   3  -6 7822.33 477.294  19 
  -3   3  -5 3181.97 284.460  12 
   3  -3   5 3218.60 380.468  10 
  -3   3  -5 2379.96 349.908   3 
  -3   3  -5 2922.89 249.169   5 
  -3   3  -5 2971.92 250.918   8 
  -3   3  -5 2609.57 262.699  34 
  -3   3  -5 2765.29 224.432  33 
   3  -3   5 3101.20 354.757  27 
  -3   3  -5 3022.08 249.897  20 
  -3   3  -5 3012.48 285.464  19 
   3  -3   4 1385.78 243.740  10 
  -3   3  -4 1123.80 245.766   3 
  -3   3  -4 1373.15 173.921   5 
  -3   3  -4 1459.29 180.092   8 
  -3   3  -4 1287.56 150.201  33 
   3  -3   4 1438.11 237.431  27 
  -3   3  -4 1491.76 162.614  20 
   3  -3   3 823.132 178.658  10 
  -3   3  -3 789.616 130.969   5 
  -3   3  -3 883.823 130.803   8 
  -3   3  -3 797.257 200.450   3 
  -3   3  -3 894.921 247.139  29 
  -3   3  -3 832.656 117.686  33 
   3  -3   3 991.108 197.795  27 
  -3   3  -3 933.930 128.370  20 
   3  -3   2 40381.1 1207.80  10 
  -3   3  -2 31589.2 1238.12   3 
  -3   3  -2 37125.2 877.602   5 
  -3   3  -2 35028.7 866.105   8 
  -3   3  -2 35224.9 759.482  33 
  -3   3  -2 41682.7 1864.89  29 
   3  -3   1 1234.23 207.539  10 
  -3   3  -1 1268.04 161.704   5 
  -3   3  -1 1249.93 163.947   8 
  -3   3  -1 889.338 202.420   3 
  -3   3  -1 1256.43 321.080  29 
  -3   3  -1 1243.95 140.242  33 
   3  -3   1 1248.86 196.073  26 
  -3   3  -1 1228.59 145.492  20 
   3  -3   0 238.359 81.8170  10 
  -3   3   0 200.826 95.3913   3 
  -3   3   0 298.949 82.9801   8 
  -3   3   0 374.375 94.4978   5 
  -3   3   0 459.724 212.130  29 
  -3   3   0 305.092 68.2729  33 
  -3   3   0 324.965 69.4882  20 
   3  -3   0 268.087 76.7207  26 
   3  -3  -1 1938.68 267.856  10 
  -3   3   1 1298.89 234.508   3 
  -3   3   1 1397.28 167.491   5 
  -3   3   1 1403.68 166.386   8 
  -3   3   1 1334.71 303.604  29 
  -3   3   1 1610.48 165.209  33 
   3  -3  -1 1298.73 214.488  26 
  -3   3   1 1679.27 168.319  20 
  -3   3   1 1492.08 150.668  21 
  -3   3   2 122.589 43.6014  15 
   3  -3  -2 68.5647 26.8351  17 
   3  -3  -2 134.354 73.7059  10 
  -3   3   2-39.5632 43.4997   3 
  -3   3   2 77.6876 36.3567   8 
  -3   3   2 149.109 60.0540   5 
  -3   3   2-108.348 105.185  29 
  -3   3   2 133.526 43.1344  33 
  -3   3   2 184.344 60.5956  20 
   3  -3  -2 102.439 69.1845  26 
  -3   3   2 136.396 53.1776  21 
  -3   3   3 461.348 86.0690  15 
   3  -3  -3 419.390 56.3439  17 
   3  -3  -3 432.938 131.847  10 
  -3   3   3 474.465 79.5199   8 
  -3   3   3 397.912 81.3724   5 
  -3   3   3 476.535 212.535  29 
  -3   3   3 564.271 100.330  33 
   3  -3  -3 440.492 149.615  26 
  -3   3   3 587.916 103.516  20 
  -3   3   3 457.221 81.6101  21 
  -3   3   4 5260.76 282.991  15 
   3  -3  -4 5506.72 211.261  17 
   3  -3  -4 5340.52 477.380  10 
  -3   3   4 6020.80 779.580  29 
  -3   3   4 5519.41 312.037  33 
   3  -3  -4 4960.76 498.940  26 
  -3   3   4 5471.27 327.776  20 
  -3   3   4 4998.95 286.379  21 
  -3   3   5 1892.30 173.140  15 
   3  -3  -5 2029.26 133.607  17 
  -3   3   5 2108.55 192.915  33 
  -3   3   5 1935.03 179.839  21 
  -3   3   6 588.003 98.4179  15 
   3  -3  -6 548.247 73.4199  17 
  -3   3   6 600.751 101.728  21 
  -3   3   7 959.065 125.176  15 
   3  -3  -7 1031.15 100.104  17 
  -3   3   7 972.910 123.265  21 
  -3   3   8 3088.48 220.510  15 
   3  -3  -8 2984.91 164.049  17 
  -3   3   8 2872.58 205.834  21 
  -3   3   9 7240.13 319.413  15 
   3  -3  -9 7418.51 238.746  17 
  -3   3   9 7621.97 358.608  20 
  -3   3  10 25.9084 23.1249  15 
   3  -3 -10-13.8155 29.1433  17 
  -3   3  10 47.4614 33.5876  20 
  -3   3  11 16.1211 13.3629  15 
  -3   3  11 52.2392 24.2289  20 
  -4   2 -14 1111.04 136.193  12 
  -4   2 -14 1127.02 142.258  19 
  -4   2 -13 1847.13 207.115  12 
  -4   2 -13 1922.98 214.346  19 
  -4   2 -12 602.520 141.310  12 
  -4   2 -12 417.380 148.903  19 
  -4   2 -11 3696.90 345.291  12 
  -4   2 -11 3513.22 345.392  34 
  -4   2 -11 4025.34 366.213  19 
  -4   2 -10 6611.00 474.061  12 
  -4   2 -10 6046.22 462.634  34 
  -4   2 -10 6620.75 488.353  19 
  -4   2  -9 914.711 187.176  12 
  -4   2  -9 835.068 169.319  34 
  -4   2  -9 893.607 187.732  19 
  -4   2  -8 4259.50 385.965  12 
  -4   2  -8 4101.87 364.211  34 
  -4   2  -8 4370.65 382.546  19 
  -4   2  -7-1.68883 51.9339  12 
   4  -2   7-89.1301 72.1714  10 
  -4   2  -7-29.3692 59.5513   8 
  -4   2  -7 46.4762 50.0870   5 
  -4   2  -7 76.9024 69.7528   3 
  -4   2  -7-15.5739 40.6160  34 
   4  -2   7-85.8187 68.4515  27 
  -4   2  -7 81.2326 66.3213  19 
  -4   2  -7 40.8094 38.6541  20 
   4  -2   6 134.329 82.7322  10 
  -4   2  -6 4.26742 44.2964   8 
  -4   2  -6-58.5916 55.6182   5 
  -4   2  -6-65.9741 65.8429   3 
  -4   2  -6 3.80746 50.4506  12 
  -4   2  -6-18.9042 71.7795  19 
   4  -2   6-35.4183 52.0972  27 
  -4   2  -6-3.28989 21.1248  20 
  -4   2  -5 2193.20 237.300  12 
   4  -2   5 2339.96 320.498  10 
  -4   2  -5 2252.37 331.043   3 
  -4   2  -5 2063.21 221.413   5 
  -4   2  -5 2172.74 223.673   8 
   4  -2   5 2292.84 318.847  27 
  -4   2  -5 1964.05 195.026  20 
  -4   2  -5 2065.72 231.755  19 
  -4   2  -4 10791.6 405.367  15 
  -4   2  -4 9306.86 472.556  12 
   4  -2   4 10429.0 659.129  10 
  -4   2  -4 8888.57 654.321   3 
  -4   2  -4 9087.54 457.240   5 
  -4   2  -4 8646.10 444.486   8 
  -4   2  -4 9013.67 406.880  33 
   4  -2   4 10180.4 665.075  27 
  -4   2  -4 10748.6 450.097  22 
  -4   2  -4 9747.50 428.770  20 
  -4   2  -4 8473.45 457.172  19 
  -4   2  -3-32.2396 43.7171  15 
   4  -2   3 91.6511 69.1852  10 
  -4   2  -3-13.7493 37.4601   8 
  -4   2  -3-38.6320 51.1804   3 
  -4   2  -3-19.6433 34.0165   5 
  -4   2  -3-19.0542 40.4890  33 
  -4   2  -3 23.9666 43.2312  20 
  -4   2  -2 736.364 103.519  15 
   4  -2   2 647.908 151.698  10 
  -4   2  -2 551.310 110.872   5 
  -4   2  -2 685.034 121.977   8 
  -4   2  -2 645.720 166.791   3 
  -4   2  -2 681.131 109.109  33 
  -4   2  -2 632.144 116.766  22 
  -4   2  -2 734.485 112.555  20 
  -4   2  -1 44.3707 36.6227  13 
  -4   2  -1 21.4869 37.2257  15 
   4  -2   1 71.8968 51.2118  10 
  -4   2  -1-5.53895 36.6608   8 
  -4   2  -1-94.0156 68.4602   3 
  -4   2  -1-23.0651 46.2875   5 
  -4   2  -1 99.8511 41.3285  33 
  -4   2  -1 55.1223 41.6015  20 
  -4   2  -1 28.5831 51.3998  22 
  -4   2   0 63.4706 34.3297  13 
  -4   2   0 110.097 42.9905  15 
   4  -2   0 116.059 64.2854  10 
  -4   2   0 77.8216 45.3064   8 
  -4   2   0-105.804 68.5722   3 
  -4   2   0 58.3576 40.0316   5 
  -4   2   0 99.1316 39.6751  33 
  -4   2   0 68.8271 33.0366  20 
  -4   2   0 85.2084 57.4263  22 
   4  -2   0 202.110 113.155  26 
  -4   2   1 1163.92 132.722  15 
  -4   2   1 1104.71 130.007  13 
   4  -2  -1 949.836 177.447  10 
  -4   2   1 881.082 139.936   5 
  -4   2   1 961.934 147.310   8 
  -4   2   1 949.832 197.277   3 
  -4   2   1 1072.76 138.320  33 
  -4   2   1 1261.64 153.490  22 
   4  -2  -1 1182.45 225.673  26 
  -4   2   1 1071.18 137.434  20 
  -4   2   2-3.36978 20.7890  15 
  -4   2   2 96.7504 60.3913   8 
  -4   2   2 59.6633 39.6437   5 
  -4   2   2 138.531 76.1398   3 
  -4   2   2 1.39528 24.9472  33 
  -4   2   2 36.7563 26.0281  20 
   4  -2  -2 83.5884 62.7659  26 
  -4   2   3 6884.07 337.537  15 
   4  -2  -3 7207.60 598.306  26 
  -4   2   3 6501.14 350.086  20 
  -4   2   4 11235.3 443.376  15 
  -4   2   5 2316.46 202.594  15 
   4  -2  -5 2371.28 148.657  17 
  -4   2   6 256.170 71.2393  15 
   4  -2  -6 190.351 46.5917  17 
  -4   2   7 17.4520 31.3375  15 
   4  -2  -7-66.3352 47.3726  17 
  -4   2   8 1167.05 136.190  15 
   4  -2  -8 1047.69 92.6015  17 
  -4   2   9 8076.43 322.365  15 
   4  -2  -9 8189.27 233.856  17 
  -4   2   9 8592.48 355.576  20 
  -4   2  10 986.973 99.7871  15 
   4  -2 -10 840.443 64.7256  17 
  -4   2  10 959.090 103.938  20 
  -5   1 -14 370.836 84.0302  12 
  -5   1 -14 285.988 78.8906  19 
  -5   1 -13-10.6559 55.1111  12 
  -5   1 -13 16.1588 45.0032  19 
  -5   1 -12-20.0623 63.6295  12 
  -5   1 -12 68.1326 86.2647  19 
  -5   1 -11 60.5014 52.0694  12 
  -5   1 -11 103.880 80.1718  19 
  -5   1 -10 6464.61 474.814  12 
  -5   1 -10 6483.95 484.119  19 
  -5   1  -9 1300.78 213.588  12 
  -5   1  -9 1303.16 208.547  19 
  -5   1  -8 90.1141 50.9069  12 
  -5   1  -8 174.109 77.3113  19 
  -5   1  -7 2914.47 270.920   5 
  -5   1  -7 3146.21 272.968   8 
  -5   1  -7 2856.13 302.099  12 
  -5   1  -7 2812.66 294.549  19 
  -5   1  -6 5917.85 425.247  12 
  -5   1  -6 6675.58 367.696   6 
  -5   1  -6 5350.06 533.801   3 
  -5   1  -6 6224.03 403.408   5 
  -5   1  -6 5763.73 381.613   8 
   5  -1   6 5900.41 532.148  27 
  -5   1  -6 5744.50 418.193  19 
  -5   1  -5 579.136 115.435   6 
  -5   1  -5 552.138 116.997   8 
  -5   1  -5 689.228 129.845   5 
  -5   1  -5 672.631 188.500   3 
  -5   1  -5 629.006 141.671  12 
  -5   1  -5 496.790 132.893  19 
  -5   1  -5 608.597 118.367  22 
   5  -1   5 470.417 151.777  27 
  -5   1  -4 3935.99 268.431  15 
  -5   1  -4 3698.87 308.205  12 
  -5   1  -4 3636.11 266.960   6 
  -5   1  -4 3614.09 430.429   3 
  -5   1  -4 3729.04 309.468   5 
  -5   1  -4 3470.95 294.747   8 
   5  -1   4 3881.96 431.367  27 
  -5   1  -4 3413.87 254.717  22 
  -5   1  -4 3355.24 293.653  19 
  -5   1  -3 10876.6 463.845   6 
  -5   1  -3 10928.9 742.124   3 
  -5   1  -3 11055.8 531.976   5 
  -5   1  -3 10601.3 509.292   8 
  -5   1  -3 12129.2 467.318  15 
  -5   1  -3 10747.3 453.230  22 
  -5   1  -2 6113.43 327.554  15 
  -5   1  -2 5872.16 338.459  13 
  -5   1  -2 5663.03 337.397   6 
  -5   1  -2 6362.10 513.624   9 
  -5   1  -2 5290.84 509.972   3 
  -5   1  -2 5257.17 365.661   5 
  -5   1  -2 5107.83 352.238   8 
  -5   1  -2 4788.24 298.126  33 
  -5   1  -2 5437.82 318.460  22 
  -5   1  -1 1073.22 150.052   6 
  -5   1  -1 979.144 160.551   5 
  -5   1  -1 1039.08 158.305   8 
  -5   1  -1 1040.46 227.343   3 
  -5   1  -1 1056.65 133.022  15 
  -5   1  -1 1196.44 150.096  13 
  -5   1  -1 1005.76 139.039  22 
   5  -1   1 974.970 193.459  26 
  -5   1   0 3648.62 271.161   6 
  -5   1   0 3478.88 402.208   3 
  -5   1   0 3308.54 289.235   5 
  -5   1   0 3019.37 269.363   8 
  -5   1   0 3816.41 263.628  15 
  -5   1   0 3548.18 253.323  13 
  -5   1   0 3598.03 260.693  22 
   5  -1   0 4245.83 431.419  26 
  -5   1   0 3669.23 250.091  20 
  -5   1   1 4913.98 324.430   6 
  -5   1   1 4574.84 464.854   3 
  -5   1   1 4033.62 320.745   5 
  -5   1   1 4476.07 326.174   8 
  -5   1   1 4756.81 300.062  15 
  -5   1   1 4798.24 289.454  13 
  -5   1   1 4424.76 291.545  22 
   5  -1  -1 4972.98 494.774  26 
  -5   1   1 4634.74 286.675  20 
  -5   1   2 4527.31 331.076   5 
  -5   1   2 4591.67 321.855   8 
  -5   1   2 4669.16 300.490  15 
  -5   1   2 4556.96 284.433  13 
  -5   1   2 4393.87 278.213  22 
  -5   1   2 4641.70 290.236  20 
  -5   1   3 869.244 130.295  15 
  -5   1   3 816.305 117.334  13 
  -5   1   3 898.523 129.777  20 
  -5   1   4 2050.56 199.168  15 
  -5   1   4 1794.38 172.355  13 
  -5   1   4 1859.41 185.140  20 
  -5   1   5 1586.88 173.759  15 
  -5   1   5 1486.91 152.737  13 
  -5   1   5 1439.71 164.568  20 
  -5   1   6 538.016 101.141  15 
   5  -1  -6 551.026 65.3167  17 
  -5   1   6 487.439 81.6117  13 
  -5   1   6 591.691 101.129  20 
  -5   1   7 195.440 58.6682  15 
   5  -1  -7 158.988 34.4340  17 
  -5   1   7 159.691 49.9947  20 
  -5   1   8 1725.94 151.116  15 
   5  -1  -8 1474.88 96.3574  17 
  -5   1   8 1752.47 151.604  20 
  -5   1   9 1943.45 138.664  15 
   5  -1  -9 1556.46 85.4132  17 
  -5   1   9 1980.68 140.295  20 
  -6   0 -13 16.3660 42.7748  12 
  -6   0 -13-89.6943 65.2330  19 
  -6   0 -12 316.360 88.4862  12 
  -6   0 -12 288.859 105.130  19 
  -6   0 -11 819.440 159.097  12 
  -6   0 -11 348.214 142.425  19 
  -6   0 -10 5587.35 422.326  12 
  -6   0 -10 4967.14 404.074  19 
  -6   0  -9 2551.67 289.050  12 
  -6   0  -9 2403.30 267.883  19 
  -6   0  -8 136.185 63.8839   5 
  -6   0  -8 13.0398 58.9785   8 
  -6   0  -8 27.6989 56.1159  12 
  -6   0  -8-15.5754 73.4597  19 
  -6   0  -7 1214.41 168.371   6 
  -6   0  -7 989.109 162.975   5 
  -6   0  -7 1119.18 169.225   8 
  -6   0  -7 1037.80 190.286  12 
  -6   0  -7 895.535 161.289  19 
  -6   0  -6 2337.00 221.141   6 
  -6   0  -6 2663.41 276.725   5 
  -6   0  -6 2764.29 274.029   8 
  -6   0  -6 2671.33 287.683  12 
  -6   0  -6 2479.74 225.837  22 
  -6   0  -6 2406.11 270.094  19 
  -6   0  -5 91.2903 39.8402   6 
  -6   0  -5 80.7286 65.5346   5 
  -6   0  -5 174.434 66.3408   8 
  -6   0  -5 140.580 80.8365  12 
  -6   0  -5 154.148 61.2194  22 
  -6   0  -5 182.468 81.9178  19 
  -6   0  -4 599.383 113.295   6 
  -6   0  -4 670.948 137.919   5 
  -6   0  -4 631.940 131.726   8 
  -6   0  -4 668.182 117.178  15 
  -6   0  -4 791.513 155.280  12 
  -6   0  -4 608.769 114.748  22 
  -6   0  -4 302.543 82.4588  19 
  -6   0  -3 163.188 48.6216   6 
  -6   0  -3 26.3768 46.6186   5 
  -6   0  -3 222.414 89.2231   8 
  -6   0  -3 212.842 65.7074  15 
  -6   0  -3 83.9614 39.0720  19 
  -6   0  -3 191.255 56.6400  22 
  -6   0  -2-32.2934 68.2229   6 
  -6   0  -2-29.2323 47.7995   5 
  -6   0  -2 32.9431 57.5285   8 
  -6   0  -2 8.03334 33.2143  13 
  -6   0  -2-5.66933 28.7839  15 
  -6   0  -2-8.63139 49.4866  22 
  -6   0  -1 93.0866 36.3762   6 
  -6   0  -1 79.2972 44.4368   5 
  -6   0  -1 136.859 55.6307   8 
  -6   0  -1 177.578 69.6329  13 
  -6   0  -1 158.809 63.3470  15 
  -6   0  -1 69.9866 34.6955  22 
  -6   0   0-12.6273 46.0562   6 
  -6   0   0-8.23185 41.1019   5 
  -6   0   0-38.6321 37.7358   8 
  -6   0   0 19.0788 33.1923  13 
  -6   0   0-6.29567 44.6489  15 
  -6   0   0-37.6482 47.6671  22 
  -6   0   1 4.06457 40.5742   6 
  -6   0   1 5.58448 41.3508   5 
  -6   0   1-10.4052 54.9024   8 
  -6   0   1 33.3086 37.3647  13 
  -6   0   1 11.4111 37.5059  15 
  -6   0   1 26.3979 34.2187  22 
  -6   0   2 12.7061 38.9771   5 
  -6   0   2-67.9659 61.8468   8 
  -6   0   2 4.86093 24.3593  13 
  -6   0   2-12.5745 32.5706  15 
  -6   0   2-20.6056 44.0136  22 
  -6   0   3 59.3929 40.7758  13 
  -6   0   3 43.7884 32.4014  15 
  -6   0   4 2152.52 205.200  15 
  -6   0   4 1831.48 171.243  13 
  -6   0   5 1505.88 161.937  15 
  -6   0   5 1162.19 129.495  13 
  -6   0   5 1335.83 136.282  20 
  -6   0   6 4335.26 251.436  15 
   6   0  -6 4060.05 162.489  17 
  -6   0   6 3889.29 215.610  13 
  -6   0   6 4416.87 230.369  20 
  -6   0   7 707.172 91.4195  15 
   6   0  -7 574.662 55.9835  17 
  -6   0   7 690.921 75.8041  13 
  -6   0   7 639.235 77.3334  20 
  -6   0   8 723.958 76.2386  15 
   6   0  -8 535.386 44.4092  17 
  -7  -1 -12 989.802 121.352  19 
  -7  -1 -11 376.726 99.5309  19 
  -7  -1 -10 83.7744 70.7086  19 
  -7  -1  -9 5.43465 58.7378  19 
  -7  -1  -8 2257.67 215.144   5 
  -7  -1  -8 2432.65 224.399   8 
  -7  -1  -8 1920.45 219.912  19 
  -7  -1  -7 2748.29 222.449   6 
  -7  -1  -7 2538.07 244.853   5 
  -7  -1  -7 2857.70 254.979   8 
  -7  -1  -7 2192.46 233.754  19 
  -7  -1  -6 799.762 119.314   6 
  -7  -1  -6 680.036 127.454   5 
  -7  -1  -6 983.267 161.197   8 
  -7  -1  -6 899.045 125.996  22 
  -7  -1  -6 461.958 118.119  19 
  -7  -1  -5 866.455 129.537   6 
  -7  -1  -5 775.100 135.867   5 
  -7  -1  -5 817.875 148.283   8 
  -7  -1  -5 511.967 112.869  19 
  -7  -1  -5 772.724 116.778  22 
  -7  -1  -4 1458.36 172.051   6 
  -7  -1  -4 1536.06 198.158   5 
  -7  -1  -4 1311.15 183.948   8 
  -7  -1  -4 1449.49 168.529  22 
  -7  -1  -4 973.869 139.866  19 
  -7  -1  -3 1678.72 185.595   6 
  -7  -1  -3 1718.28 205.801   5 
  -7  -1  -3 1641.43 207.418   8 
  -7  -1  -3 1815.70 185.766  22 
  -7  -1  -3 1003.89 143.487  19 
  -7  -1  -2 80.3547 37.3806   6 
  -7  -1  -2 21.2449 50.9575   5 
  -7  -1  -2 96.5842 51.0475   8 
  -7  -1  -2 164.771 65.0369  15 
  -7  -1  -2 160.342 65.1647  22 
  -7  -1  -1 1474.59 171.721   6 
  -7  -1  -1 1100.58 162.064   5 
  -7  -1  -1 1400.56 187.673   8 
  -7  -1  -1 1593.24 182.445  15 
  -7  -1  -1 1598.95 182.291  13 
  -7  -1  -1 1610.41 177.051  22 
  -7  -1   0 8693.64 396.198   6 
  -7  -1   0 8415.49 437.920   8 
  -7  -1   0 9140.67 425.820  15 
  -7  -1   0 9526.20 419.536  13 
  -7  -1   0 8985.50 392.103  22 
  -7  -1   1 2060.77 195.578   6 
  -7  -1   1 1249.78 160.158   5 
  -7  -1   1 1456.59 176.763   8 
  -7  -1   1 1572.52 173.885  15 
  -7  -1   1 1530.48 165.028  13 
  -7  -1   1 1484.90 149.848  22 
  -7  -1   2 77.0687 44.9150  13 
  -7  -1   2-2.21780 34.9872  15 
  -7  -1   2-42.4634 40.1840  22 
  -7  -1   3 230.721 61.0304  13 
  -7  -1   3 236.868 59.8279  15 
  -7  -1   4 338.020 68.4096  13 
  -7  -1   4 261.904 62.0012  15 
  -7  -1   5 748.996 88.0983  15 
   7   1  -5 670.734 55.7054  17 
  -7  -1   5 819.759 90.7097  13 
  -8  -2 -10 147.592 53.0766  19 
  -8  -2  -9 420.085 80.9349  19 
  -8  -2  -8 200.309 76.9567  19 
  -8  -2  -7 6006.62 352.413   5 
  -8  -2  -7 1461.51 163.772  19 
  -8  -2  -6 1115.29 128.093   6 
  -8  -2  -6 3110.86 275.455   5 
  -8  -2  -6 1525.99 152.422  22 
  -8  -2  -6 3216.20 250.706  19 
  -8  -2  -5-17.5160 26.6487   6 
  -8  -2  -5 11.3185 31.6854  22 
  -8  -2  -4 1.45620 35.0583   6 
  -8  -2  -4-121.727 46.5765  22 
  -8  -2  -3 717.934 103.718   6 
  -8  -2  -3 675.280 95.7453  22 
  -8  -2  -2 2503.28 195.355   6 
  -8  -2  -2 2354.06 179.113  22 
  -8  -2  -1 19302.7 518.436   6 
  -8  -2  -1 19287.8 602.164   5 
  -8  -2  -1 18448.0 488.282  22 
  -8  -2   0 6559.29 276.538  22 
  -8  -2   1 749.922 95.7782  22 
  -3 -10   2 6.76551 14.7374   7 
  -3 -10   2 26.6877 16.5893  22 
  -3 -10   1 2338.15 148.996   6 
   3  10  -1 3519.04 163.875   8 
  -3 -10   1 3296.59 115.153   7 
   3  10  -1 3287.20 191.735  34 
  -3 -10   1 2711.84 151.463  22 
  -3 -10   0 161.817 27.8606   7 
  -3 -10   0 143.851 40.1492   6 
   3  10   0 224.307 46.3513   8 
   3  10   0 187.729 49.1450  34 
  -3 -10   0 142.891 39.1817  22 
  -3 -10  -1 154.465 42.5443   6 
   3  10   1 241.679 48.8778   8 
  -3 -10  -1 167.819 28.6458   7 
   3  10   1 124.604 33.5751  34 
  -3 -10  -2 152.911 40.8407   6 
   3  10   2 233.533 45.3096   8 
  -3 -10  -2 202.564 29.1191   7 
   3  10   2 221.161 49.3167  34 
   3  10   3 1288.13 97.1543   5 
   3  10   3 1332.22 97.0061   8 
   3  10   3 1368.20 115.509  34 
   2   9  -6 43.6331 28.7151  12 
  -2  -9   6 62.8561 18.2081  14 
   2   9  -6 58.0282 33.9502  34 
  -2  -9   6 21.1451 24.2672  22 
  -2  -9   5 634.341 56.2119  14 
   2   9  -5 585.192 78.0154  12 
   2   9  -5 698.139 107.405  34 
  -2  -9   5 479.051 47.7959   7 
  -2  -9   4 285.542 41.5488  14 
   2   9  -4 410.942 83.9684  34 
  -2  -9   4 262.522 42.5517   7 
  -2  -9   4 257.998 60.5350   6 
   2   9  -4 351.555 63.1455   5 
   2   9  -4 369.402 64.3471   8 
  -2  -9   3 1627.67 99.5781  14 
   2   9  -3 1666.67 178.602  34 
  -2  -9   3 1600.40 105.866   7 
  -2  -9   2 1046.87 81.5748  14 
   2   9  -2 982.866 142.110  34 
  -2  -9   2 1053.04 89.9505   7 
  -2  -9   1 110.223 32.5945  14 
   2   9  -1 41.6736 47.3359  34 
  -2  -9   1 24.3597 23.1697   7 
  -2  -9   0 993.918 81.5199  14 
   2   9   0 1129.85 150.740  34 
  -2  -9   0 1106.50 93.0230   7 
  -2  -9  -1 477.694 54.5620  14 
  -2  -9  -1 609.988 54.6016  17 
   2   9   1 504.086 96.6961  34 
  -2  -9  -1 608.834 67.4857   7 
  -2  -9  -2 647.927 61.3355  14 
  -2  -9  -2 677.461 56.7730  17 
   2   9   2 708.172 115.542  34 
  -2  -9  -2 770.940 75.6254   7 
  -2  -9  -3 1047.32 72.0967  14 
  -2  -9  -3 1183.47 75.9115  17 
   2   9   3 1169.77 139.514  34 
  -2  -9  -3 1200.09 86.1980   7 
  -2  -9  -4 948.074 66.7465  17 
   2   9   4 857.080 111.134  34 
  -2  -9  -4 726.983 104.784   6 
   2   9   4 974.252 106.884   8 
  -2  -9  -4 863.901 67.6251   7 
  -2  -9  -5-12.6410 15.7693  17 
   2   9   5-29.9941 25.4587  34 
   2   9   5-10.0467 16.1329   8 
   2   9   5-38.8225 31.7307   5 
  -2  -9  -6 19.6214 18.9070  17 
  -2  -9  -7 45.8933 16.7029  17 
   1   8  -9-11.2046 27.4115  12 
   1   8  -9 22.5959 33.9023  34 
   1   8  -8 39.4323 33.0832  12 
  -1  -8   8-12.1554 15.6104  14 
  -1  -8   8-14.4368 37.4109  32 
   1   8  -8 17.3876 32.1141  34 
  -1  -8   7 1746.03 96.3839  14 
   1   8  -7 1824.17 174.622  12 
  -1  -8   7 1621.14 137.995  32 
   1   8  -7 1807.52 190.778  34 
   1   8  -6 81.5682 44.9884  12 
  -1  -8   6 85.0431 25.6530  14 
  -1  -8   6 122.655 33.4209   7 
   1   8  -6 74.4547 57.3900  34 
   1   8  -6 109.507 51.1040  20 
   1   8  -5 219.340 65.4249  12 
  -1  -8   5 206.446 41.6308  14 
   1   8  -5 240.105 82.1140  34 
   1   8  -5 203.580 53.4556   8 
   1   8  -5 270.847 66.0694   5 
   1   8  -4 43.2633 32.9774  12 
  -1  -8   4 58.2801 24.3255  14 
   1   8  -4 54.6377 52.2747  34 
  -1  -8   3 41.2796 26.5039  14 
   1   8  -3 3.76504 48.2608  34 
  -1  -8   2 528.187 69.5944  14 
   1   8  -2 528.317 116.923  34 
  -1  -8   1 1952.11 132.180  14 
   1   8  -1 1985.77 224.944  34 
  -1  -8   0 38.3310 18.6784  14 
   1   8   0 76.9259 54.4998  34 
  -1  -8  -1 91.4147 27.3708  17 
  -1  -8  -1 102.629 34.8926  14 
   1   8   1 69.5928 46.9945  34 
   1   8   1 85.4349 39.4230  21 
  -1  -8  -2 1069.97 94.7557  14 
  -1  -8  -2 1103.92 84.2011  17 
   1   8   2 1112.74 154.762  34 
   1   8   2 903.214 106.434  33 
   1   8   2 1094.32 123.339  21 
  -1  -8  -3 2755.72 145.177  14 
  -1  -8  -3 2838.40 131.667  17 
   1   8   3 3214.63 258.744  34 
   1   8   3 3100.10 202.578  33 
   1   8   3 2932.16 202.808  21 
  -1  -8  -4 4182.96 170.502  14 
  -1  -8  -4 4555.75 166.203  17 
   1   8   4 4726.00 269.554   8 
  -1  -8  -4 4751.12 182.817   7 
   1   8   4 5090.00 308.255  34 
   1   8   4 4661.44 252.195  33 
   1   8   4 4557.24 248.096  21 
  -1  -8  -5 246.697 43.2956  17 
  -1  -8  -5 205.094 35.5245  14 
   1   8   5 286.544 60.1533   8 
   1   8   5 200.731 49.9977   5 
   1   8   5 282.004 67.0574  33 
   1   8   5 224.390 59.4812  21 
  -1  -8  -6 291.929 42.4944  17 
   1   8   6 321.730 65.3894  33 
   1   8   6 300.408 60.3488  21 
  -1  -8  -7 6623.64 182.584  17 
   1   8   7 6705.58 275.627  33 
   1   8   7 6365.76 258.462  21 
  -1  -8  -8 4797.16 143.731  17 
   1   8   8 4919.97 218.785  33 
   1   8   8 4583.99 201.916  21 
  -1  -8  -9 2735.54 95.4288  17 
   1   8   9 2789.45 145.526  33 
   1   8   9 2701.46 134.725  21 
   0   7 -11 1326.54 127.566  12 
   0   7 -11 1169.40 125.909  34 
   0  -7  11 910.599 87.4147  32 
   0   7 -11 939.497 112.532  19 
   0   7 -10 1563.51 158.509  12 
   0   7 -10 1677.20 176.362  34 
   0  -7  10 1309.90 127.158  32 
   0   7  -9 911.490 133.951  12 
   0   7  -9 973.460 153.158  34 
   0  -7   9 688.925 103.247  32 
   0   7  -9 792.766 126.540  20 
   0   7  -8 515.647 106.063  12 
   0  -7   8 441.906 50.3221  14 
   0  -7   8 363.227 85.0382  32 
   0   7  -8 551.888 126.836  34 
   0   7  -8 547.745 109.956  20 
   0   7  -7-7.70308 41.3122  12 
   0  -7   7-0.76659 16.9553  14 
   0  -7   7 26.5963 41.7532  32 
   0   7  -7 65.8055 61.0728  34 
   0   7  -7 9.15598 46.3609  20 
   0  -7   6 2768.46 147.627  14 
   0   7  -6 2561.99 237.588  12 
   0   7  -6 2918.05 214.631   5 
   0   7  -6 2883.28 213.256   8 
   0   7  -6 2625.67 272.488  34 
   0  -7   6 2276.35 218.885  32 
   0   7  -6 2665.73 254.517  20 
   0   7  -5 207.708 77.6773  12 
   0  -7   5 269.652 49.2998  14 
   0   7  -5 256.576 71.1010   8 
   0   7  -5 298.588 76.8117   5 
   0   7  -5 312.424 90.5566  34 
   0   7  -5 242.985 78.2063  20 
   0  -7   4 3207.36 167.714  14 
   0   7  -4 2957.66 251.489  12 
   0   7  -4 2990.42 244.962   8 
   0   7  -4 2858.58 281.935  34 
   0   7  -4 2893.48 259.324  20 
   0  -7   3 201.592 44.9628  14 
   0   7  -3 237.991 84.2826  34 
   0   7  -3 164.175 63.9173  20 
   0  -7   2 1871.40 136.240  14 
   0   7  -2 1888.81 223.075  34 
   0   7  -2 1897.75 205.358  20 
   0   7  -2 1696.85 171.248  21 
   0  -7   1 543.975 78.7308  14 
   0   7  -1 540.432 115.242  34 
   0   7  -1 586.425 95.8123  33 
   0   7  -1 503.378 91.4857  21 
   0   7  -1 474.369 96.2255  20 
   0  -7   0 15747.3 387.722  14 
   0   7   0 14989.9 590.171  34 
   0   7   0 15784.0 495.392  33 
   0   7   0 15048.6 546.338  20 
   0   7   0 15081.8 516.509  21 
   0  -7  -1 118.041 37.2059  14 
   0   7   1 149.881 89.6505  34 
   0   7   1 164.603 73.8042  33 
   0   7   1 141.101 51.5904  21 
   0  -7  -2 757.255 87.1290  14 
   0  -7  -2 825.267 75.3278  17 
   0   7   2 872.169 124.479  34 
   0   7   2 882.280 121.603  33 
   0   7   2 840.380 118.394  21 
   0  -7  -3 2091.35 138.950  14 
   0  -7  -3 2050.88 116.640  17 
   0   7   3 2200.33 202.759   8 
   0   7   3 2117.23 189.247  33 
   0   7   3 2367.25 204.845  21 
   0  -7  -4 2639.24 153.759  14 
   0  -7  -4 2729.78 137.203  17 
   0   7   4 2629.91 214.968   5 
   0   7   4 2857.73 218.995   8 
   0   7   4 2872.34 220.291  33 
   0   7   4 2873.15 222.342  21 
   0  -7  -5-0.19950 28.4299  17 
   0  -7  -5 59.3095 25.9141  14 
   0   7   5 75.6003 34.6545  33 
   0   7   5 80.9706 42.0100  21 
   0  -7  -6-29.7544 30.7132  17 
   0  -7  -6-45.6371 23.2571  14 
   0   7   6-7.96480 37.5188  33 
   0   7   6-5.22544 29.0123  21 
   0  -7  -7 636.386 64.3090  17 
   0   7   7 683.726 101.628  33 
   0   7   7 601.423 99.0662  21 
   0  -7  -8 517.877 55.7384  17 
   0   7   8 483.798 82.8067  33 
   0   7   8 598.937 91.4000  21 
   0  -7  -9 493.789 47.8345  17 
   0   7   9 583.952 79.8311  33 
   0   7   9 563.811 82.8636  21 
   0  -7 -10 3187.40 103.758  17 
   0   7  10 3402.21 161.859  33 
   0   7  10 3371.82 165.839  21 
  -1   6 -12 508.238 84.3804  12 
  -1   6 -12 521.336 96.1776  34 
   1  -6  12 434.794 66.7611  32 
  -1   6 -12 555.208 95.0484  19 
  -1   6 -11 481.095 96.1861  12 
  -1   6 -11 490.109 96.9441  19 
  -1   6 -11 381.976 91.7939  34 
   1  -6  11 385.206 76.7729  32 
  -1   6 -10 33.0710 43.0136  12 
  -1   6 -10-82.9672 63.4883  19 
   1  -6  10-21.5541 35.0697  32 
  -1   6 -10 32.4079 63.6577  34 
  -1   6 -10 22.8726 34.1705  20 
  -1   6  -9 643.736 124.225  12 
  -1   6  -9 724.495 156.255  34 
   1  -6   9 602.364 113.287  32 
  -1   6  -9 614.649 125.613  20 
  -1   6  -8 6221.60 389.141  12 
  -1   6  -8 6439.71 434.981  34 
   1  -6   8 5796.76 360.908  32 
  -1   6  -8 7133.99 423.761  20 
  -1   6  -7 56.0055 56.3539  12 
   1  -6   7 65.3995 28.2700  14 
  -1   6  -7 71.1352 52.1995  34 
  -1   6  -7 78.2732 50.7941  20 
  -1   6  -6 19.1067 31.6410  12 
   1  -6   6 6.74019 18.8759  14 
  -1   6  -6-22.4296 46.9489   8 
  -1   6  -6-34.9779 41.7342   5 
  -1   6  -6 9.13376 51.7131  34 
  -1   6  -6-19.4160 48.5416  20 
  -1   6  -5-35.5762 53.7386  12 
   1  -6   5-3.80204 20.6565  14 
  -1   6  -5 16.3703 33.5110   8 
  -1   6  -5-1.90724 41.3909   5 
  -1   6  -5-6.53759 48.8716  34 
  -1   6  -5-13.2321 43.0036  20 
   1  -6   4 4625.81 200.743  14 
  -1   6  -4 4485.05 299.882   5 
  -1   6  -4 4620.32 301.977   8 
  -1   6  -4 4133.86 332.745  34 
  -1   6  -4 4336.34 265.920  33 
  -1   6  -4 3948.28 311.468  20 
   1  -6   3 9875.43 297.761  14 
  -1   6  -3 10166.0 453.556   5 
  -1   6  -3 9577.51 438.766   8 
  -1   6  -3 8849.50 470.895  34 
  -1   6  -3 9261.37 391.658  33 
  -1   6  -3 9015.54 460.665  20 
  -1   6  -3 9126.06 419.053  21 
   1  -6   2 394.327 63.3430  14 
  -1   6  -2 338.906 89.7351   8 
  -1   6  -2 339.267 96.1478  34 
  -1   6  -2 350.156 81.5484  33 
  -1   6  -2 339.381 85.8558  21 
  -1   6  -2 349.193 90.4750  20 
   1  -6   1 257.585 53.5833  14 
  -1   6  -1 204.133 62.3237   8 
  -1   6  -1 236.180 77.8201  34 
  -1   6  -1 209.753 59.8870  33 
  -1   6  -1 164.553 56.7296  21 
  -1   6  -1 181.758 65.6651  20 
   1  -6   0 7246.72 263.929  14 
  -1   6   0 7098.66 388.352   8 
  -1   6   0 6934.17 346.804  33 
  -1   6   0 6552.28 362.758  20 
  -1   6   0 7004.36 362.055  21 
   1  -6  -1 10000.6 310.507  14 
  -1   6   1 10249.0 476.442   5 
  -1   6   1 10481.3 472.956   8 
  -1   6   1 9772.43 413.387  33 
  -1   6   1 9672.89 435.594  20 
  -1   6   1 10366.0 440.788  21 
   1  -6  -2 1476.22 121.129  14 
   1  -6  -2 1312.63 90.6439  17 
  -1   6   2 1459.01 178.152   5 
  -1   6   2 1567.99 181.917   8 
  -1   6   2 1526.50 165.229  33 
  -1   6   2 1463.09 166.956  20 
  -1   6   2 1575.40 173.131  21 
   1  -6  -3 9939.18 311.205  14 
   1  -6  -3 9958.96 256.926  17 
  -1   6   3 10251.6 453.578   5 
  -1   6   3 10273.3 448.829   8 
  -1   6   3 10302.2 424.245  33 
  -1   6   3 10025.9 429.614  20 
  -1   6   3 10967.2 458.393  21 
   1  -6  -4 8372.51 284.522  14 
   1  -6  -4 8912.10 249.751  17 
  -1   6   4 8909.48 400.613   5 
  -1   6   4 8941.16 397.045   8 
  -1   6   4 9366.74 407.031  33 
  -1   6   4 9015.19 397.643  20 
  -1   6   4 9446.75 425.159  21 
   1  -6  -5 5571.10 227.959  14 
   1  -6  -5 6019.19 209.342  17 
  -1   6   5 6072.11 328.601  33 
  -1   6   5 5885.24 314.625  20 
  -1   6   5 6010.36 340.515  21 
   1  -6  -6 502.059 66.0213  14 
   1  -6  -6 468.990 60.5887  17 
  -1   6   6 542.490 103.523  33 
  -1   6   6 439.530 84.1754  20 
  -1   6   6 551.432 105.458  21 
   1  -6  -7 4030.85 176.790  14 
   1  -6  -7 4749.35 181.996  17 
  -1   6   7 4884.91 277.703  33 
  -1   6   7 4559.84 250.082  20 
  -1   6   7 4958.61 294.818  21 
   1  -6  -8 501.408 57.0875  14 
   1  -6  -8 477.716 58.5174  17 
  -1   6   8 505.359 88.3434  33 
  -1   6   8 576.897 97.3349  21 
   1  -6  -9 751.044 64.6120  17 
  -1   6   9 844.505 98.6085  33 
  -1   6   9 809.413 103.291  21 
   1  -6 -10 3665.72 121.883  17 
  -1   6  10 3638.61 173.358  33 
  -1   6  10 4014.70 199.008  21 
  -2   5 -13 367.797 73.0884  12 
   2  -5  13 293.696 52.4760  32 
  -2   5 -13 355.468 85.8004  34 
  -2   5 -13 366.771 79.8199  19 
  -2   5 -12-9.68937 38.6766  12 
   2  -5  12 20.7170 21.5310  32 
  -2   5 -12 42.3847 43.4091  34 
  -2   5 -12-7.90153 37.8022  19 
  -2   5 -11 199.852 62.1801  12 
   2  -5  11 253.489 67.9810  32 
  -2   5 -11 241.149 83.6869  34 
  -2   5 -11 198.599 64.8626  20 
  -2   5 -11 216.452 97.6379  19 
  -2   5 -10 23.3571 45.1016  12 
  -2   5 -10-125.489 86.3767  19 
   2  -5  10 59.9427 45.0340  32 
  -2   5 -10 26.2046 54.6302  34 
  -2   5 -10-4.89777 49.1133  20 
  -2   5  -9 3130.62 292.518  12 
  -2   5  -9 3311.02 319.708  34 
   2  -5   9 3117.76 269.226  32 
  -2   5  -9 3263.82 297.602  20 
  -2   5  -9 3204.04 297.484  19 
  -2   5  -8-45.7873 62.0434  12 
  -2   5  -8 25.8794 49.3070  34 
  -2   5  -8-34.7572 51.4324  20 
  -2   5  -7 324.830 89.8431  12 
  -2   5  -7 337.847 109.412  34 
  -2   5  -7 377.567 98.4821  20 
  -2   5  -6 14309.1 613.630  12 
  -2   5  -6 15741.9 573.643   5 
  -2   5  -6 15866.8 570.801   8 
  -2   5  -6 14571.2 663.792  34 
  -2   5  -6 14254.7 611.420  20 
   2  -5   5 1882.34 122.644  14 
  -2   5  -5 1947.89 223.108  12 
  -2   5  -5 2015.39 213.616   5 
  -2   5  -5 2061.46 214.864   8 
  -2   5  -5 1840.10 236.626  34 
  -2   5  -5 1980.71 191.439  33 
  -2   5  -5 1836.56 213.461  20 
   2  -5   4 1478.34 111.595  14 
   2  -5   4 1240.60 246.633  10 
  -2   5  -4 1688.29 193.055   5 
  -2   5  -4 1707.38 197.377   8 
  -2   5  -4 1019.79 241.484   3 
  -2   5  -4 1530.75 205.332  34 
  -2   5  -4 1574.90 168.987  33 
   2  -5   4 1715.57 261.737  27 
  -2   5  -4 1477.43 190.178  20 
   2  -5   3 5087.41 208.688  14 
   2  -5   3 4617.17 462.770  10 
  -2   5  -3 3703.30 469.104   3 
  -2   5  -3 5307.54 343.260   5 
  -2   5  -3 5346.84 342.164   8 
  -2   5  -3 4872.20 352.104  34 
  -2   5  -3 4823.30 296.474  33 
   2  -5   3 5166.93 456.927  27 
  -2   5  -3 4550.55 316.808  20 
  -2   5  -3 4789.81 305.418  21 
   2  -5   2 20575.0 423.454  14 
   2  -5   2 21286.3 973.114  10 
  -2   5  -2 17107.6 985.494   3 
  -2   5  -2 22227.1 711.718   5 
  -2   5  -2 22023.9 697.688   8 
  -2   5  -2 19813.5 591.890  33 
  -2   5  -2 21540.0 1626.45  29 
  -2   5  -2 19063.4 635.364  20 
  -2   5  -2 19740.7 612.112  21 
   2  -5   1 14606.0 363.764  14 
   2  -5   1 15196.1 819.840  10 
  -2   5  -1 15236.5 589.485   5 
  -2   5  -1 15391.2 583.313   8 
  -2   5  -1 14092.1 500.384  33 
  -2   5  -1 15768.7 1379.88  29 
  -2   5  -1 13836.8 534.678  20 
  -2   5  -1 14085.8 514.895  21 
   2  -5   0-9.53342 34.5889  10 
  -2   5   0 275.887 124.842   3 
  -2   5   0 147.821 75.6190   8 
  -2   5   0 106.597 66.3273   5 
  -2   5   0-122.144 124.110  29 
  -2   5   0 21.8809 39.0517  33 
  -2   5   0 39.5224 34.9737  20 
  -2   5   0 53.6278 39.7125  21 
   2  -5  -1 664.633 173.736  10 
  -2   5   1 421.567 148.656   3 
  -2   5   1 624.073 115.162   8 
  -2   5   1 514.366 110.056   5 
  -2   5   1 727.228 325.209  29 
  -2   5   1 459.647 91.4660  33 
  -2   5   1 463.819 96.4133  20 
   2  -5  -1 298.099 105.071  26 
  -2   5   1 465.891 79.1846  21 
   2  -5  -2 6655.92 205.277  17 
  -2   5   2 5316.88 517.611   3 
  -2   5   2 6941.58 392.160   5 
  -2   5   2 7042.23 385.370   8 
  -2   5   2 6448.50 337.131  33 
   2  -5  -2 5534.62 487.246  26 
  -2   5   2 6683.44 358.639  20 
  -2   5   2 6812.39 354.280  21 
   2  -5  -3 15733.6 330.865  17 
  -2   5   3 15666.6 564.690   5 
  -2   5   3 15481.3 549.774   8 
  -2   5   3 15089.3 513.585  33 
  -2   5   3 15511.5 547.072  20 
  -2   5   3 15229.8 532.107  21 
   2  -5  -4-4.17397 22.4802  17 
  -2   5   4 36.2559 44.9365  33 
  -2   5   4-23.4687 39.5847  20 
  -2   5   4 32.3201 44.4212  21 
   2  -5  -5 559.775 67.1465  17 
  -2   5   5 618.539 101.462  33 
  -2   5   5 632.169 105.774  20 
  -2   5   5 616.472 109.839  21 
   2  -5  -6 862.751 84.1494  17 
  -2   5   6 755.639 111.746  33 
  -2   5   6 730.488 113.338  20 
  -2   5   6 850.935 124.889  21 
   2  -5  -7 7340.68 233.958  17 
  -2   5   7 7015.13 328.250  33 
  -2   5   7 7111.81 340.860  20 
  -2   5   7 7051.81 343.335  21 
   2  -5  -8 1318.75 95.2412  17 
  -2   5   8 1399.59 138.256  33 
  -2   5   8 1253.18 134.560  20 
  -2   5   8 1372.35 142.659  21 
   2  -5  -9 308.493 43.6930  17 
  -2   5   9 352.992 60.2405  33 
  -2   5   9 365.916 65.1792  20 
  -2   5   9 365.093 68.6716  21 
   2  -5 -10 313.801 39.8335  17 
  -2   5  10 302.502 50.4096  20 
  -2   5  10 341.198 56.3876  21 
  -3   4 -14 262.141 60.3881  12 
  -3   4 -14 348.221 65.4609  19 
  -3   4 -13 2990.43 222.350  12 
   3  -4  13 2420.84 153.132  32 
  -3   4 -13 2746.88 223.482  19 
  -3   4 -12 25.5504 46.5076  12 
   3  -4  12-23.7023 33.4623  32 
  -3   4 -12 32.8357 59.8392  34 
  -3   4 -12 108.393 71.1401  19 
  -3   4 -11 617.896 131.312  12 
  -3   4 -11 609.244 148.855  34 
   3  -4  11 524.054 99.4155  32 
  -3   4 -11 776.804 151.323  19 
  -3   4 -11 547.385 107.191  20 
  -3   4 -10 658.099 148.046  12 
  -3   4 -10 691.570 157.707  34 
   3  -4  10 675.653 122.261  32 
  -3   4 -10 806.719 155.176  19 
  -3   4 -10 543.635 123.862  20 
  -3   4  -9 6115.37 436.052  12 
  -3   4  -9 6317.40 455.875  34 
   3  -4   9 6147.31 374.161  32 
  -3   4  -9 6069.77 400.586  20 
  -3   4  -9 6173.72 438.612  19 
  -3   4  -8 4317.56 357.393  12 
  -3   4  -8 3817.88 360.757  34 
  -3   4  -8 4129.64 331.399  20 
  -3   4  -8 4530.77 374.789  19 
  -3   4  -7 1436.00 207.522  12 
  -3   4  -7 1388.05 171.982   5 
  -3   4  -7 1397.70 178.171   8 
  -3   4  -7 1455.09 219.589  34 
  -3   4  -7 1373.53 188.518  20 
  -3   4  -7 1439.08 206.093  19 
  -3   4  -6 9579.03 523.480  12 
  -3   4  -6 10166.9 486.199   5 
  -3   4  -6 9930.51 475.218   8 
  -3   4  -6 10206.1 557.388  34 
  -3   4  -6 9085.51 482.723  20 
  -3   4  -6 9835.62 533.401  19 
  -3   4  -5 2050.53 231.914  12 
   3  -4   5 1996.56 313.059  10 
  -3   4  -5 2208.89 230.772   5 
  -3   4  -5 2216.10 232.168   8 
  -3   4  -5 1350.22 290.392   3 
  -3   4  -5 1826.60 235.647  34 
  -3   4  -5 1984.38 200.615  33 
   3  -4   5 1867.91 285.802  27 
  -3   4  -5 1870.58 214.756  20 
   3  -4   4 507.707 160.047  10 
  -3   4  -4 264.545 117.469   3 
  -3   4  -4 487.807 109.839   8 
  -3   4  -4 437.201 106.764   5 
  -3   4  -4 407.913 92.9441  33 
   3  -4   4 540.094 155.754  27 
  -3   4  -4 396.912 97.1154  20 
   3  -4   3 89.1165 29.8364  14 
   3  -4   3 178.671 91.3204  10 
  -3   4  -3 284.053 122.496   3 
  -3   4  -3 89.1558 43.0110   8 
  -3   4  -3 87.3666 31.9601   5 
  -3   4  -3 106.168 47.7820  33 
   3  -4   3 255.581 117.182  27 
  -3   4  -3 54.9265 28.4660  21 
  -3   4  -3 109.929 50.4834  20 
   3  -4   2 226.395 91.3075  10 
  -3   4  -2 49.8551 62.1703   3 
  -3   4  -2 107.126 43.2567   8 
  -3   4  -2 193.139 59.9867   5 
  -3   4  -2 7.97621 30.4242  29 
  -3   4  -2 245.786 65.9074  33 
  -3   4  -2 277.183 80.6689  20 
   3  -4   2 260.823 110.257  27 
  -3   4  -2 210.781 61.5571  21 
   3  -4   1 67.3587 58.2670  10 
  -3   4  -1 119.326 51.4240   8 
  -3   4  -1 165.904 59.3551   5 
  -3   4  -1 240.789 73.3046  33 
  -3   4  -1 220.376 68.1393  20 
  -3   4  -1 199.461 63.9158  21 
   3  -4   0 390.611 130.369  10 
  -3   4   0-49.3733 56.7222   3 
  -3   4   0 491.829 115.652   8 
  -3   4   0 432.469 108.081   5 
  -3   4   0 440.724 219.811  29 
  -3   4   0 459.708 96.2047  33 
  -3   4   0 481.842 96.9846  20 
  -3   4   0 401.762 84.9929  21 
   3  -4  -1 244.405 103.791  10 
  -3   4   1 344.473 132.512   3 
  -3   4   1 139.722 74.2598   8 
  -3   4   1 130.599 67.7071   5 
  -3   4   1 166.354 134.836  29 
  -3   4   1 172.434 59.2432  33 
  -3   4   1 111.176 51.2206  20 
   3  -4  -1-26.4967 40.5278  26 
  -3   4   1 150.650 57.0788  21 
   3  -4  -2 123.795 29.9063  17 
  -3   4   2 129.073 59.7566   8 
  -3   4   2 140.902 60.8615   5 
  -3   4   2 115.188 43.8153  33 
  -3   4   2 164.919 53.9355  20 
   3  -4  -2 214.637 99.6662  26 
  -3   4   2 207.415 65.4855  21 
   3  -4  -3 1685.85 114.546  17 
  -3   4   3 1680.02 187.791   5 
  -3   4   3 1652.12 176.340   8 
  -3   4   3 1732.88 179.124  33 
  -3   4   3 1834.48 193.999  20 
  -3   4   3 1754.12 174.395  21 
   3  -4  -4 280.796 51.3343  17 
  -3   4   4 251.619 75.8204  33 
  -3   4   4 296.753 79.3242  20 
  -3   4   4 263.757 68.5458  21 
   3  -4  -5 10001.9 286.955  17 
  -3   4   5 9583.68 410.943  33 
  -3   4   5 10052.6 450.978  20 
  -3   4   5 9434.26 396.045  21 
  -3   4   6 30.5458 31.0525  15 
   3  -4  -6 36.3664 33.7764  17 
  -3   4   6 5.58799 23.7642  33 
  -3   4   6-39.2553 58.2082  20 
  -3   4   6-11.5365 23.6907  21 
  -3   4   7 6204.06 280.829  15 
   3  -4  -7 6357.61 221.217  17 
  -3   4   7 6183.23 292.744  33 
  -3   4   7 6491.40 341.704  20 
  -3   4   7 6002.65 296.502  21 
  -3   4   8 1118.67 111.443  15 
   3  -4  -8 1076.00 86.4826  17 
  -3   4   8 1181.44 138.432  20 
  -3   4   8 1101.26 119.333  21 
  -3   4   9 71.3432 30.5140  15 
   3  -4  -9 116.578 28.5136  17 
  -3   4   9 94.2565 30.4483  20 
  -3   4   9 96.6299 28.6913  21 
   3  -4 -10 511.710 45.9503  17 
  -3   4  10 514.439 68.1373  20 
  -4   3 -14 516.051 83.4750  12 
  -4   3 -14 338.367 77.9459  19 
  -4   3 -13 2216.15 205.749  12 
  -4   3 -13 2478.48 214.411  19 
  -4   3 -12 240.050 86.5398  12 
  -4   3 -12 239.910 86.3150  19 
  -4   3 -11 44.1469 72.0507  12 
   4  -3  11 22.9802 29.9922  32 
  -4   3 -11 18.4930 55.2857  34 
  -4   3 -11 46.8500 68.1673  19 
  -4   3 -10 1490.04 217.888  12 
  -4   3 -10 1093.64 182.405  34 
   4  -3  10 1048.31 139.318  32 
  -4   3 -10 1136.79 160.369  20 
  -4   3 -10 1716.01 236.692  19 
  -4   3  -9 2895.42 302.828  12 
  -4   3  -9 2459.28 288.128  34 
   4  -3   9 2761.93 236.879  32 
  -4   3  -9 3067.19 268.697  20 
  -4   3  -9 2847.06 304.364  19 
  -4   3  -8 5527.19 425.534  12 
  -4   3  -8 5266.64 422.236  34 
  -4   3  -8 5333.97 364.688  20 
  -4   3  -8 5618.55 424.515  19 
  -4   3  -7 664.341 159.621  12 
  -4   3  -7 933.249 146.523   5 
  -4   3  -7 798.277 136.344   8 
  -4   3  -7 857.098 166.693  34 
  -4   3  -7 934.532 182.888  19 
  -4   3  -7 728.404 132.889  20 
  -4   3  -6 2031.36 228.030   5 
  -4   3  -6 2169.29 234.735   8 
  -4   3  -6 1895.69 241.093  12 
  -4   3  -6 2060.71 224.666  20 
  -4   3  -6 1950.35 239.678  19 
  -4   3  -5 81.3467 51.0821  12 
  -4   3  -5 181.512 71.9055   8 
  -4   3  -5 146.355 53.8606   5 
  -4   3  -5 129.183 54.4811  33 
  -4   3  -5 122.456 65.4347  20 
   4  -3   4 3803.94 422.249  10 
  -4   3  -4 2456.28 393.144   3 
  -4   3  -4 3372.31 301.811   5 
  -4   3  -4 3338.34 300.639   8 
  -4   3  -4 3090.61 256.100  33 
   4  -3   4 3375.58 408.811  27 
  -4   3  -4 3305.82 266.492  20 
  -4   3  -3 8073.17 350.066  15 
   4  -3   3 8793.88 615.767  10 
  -4   3  -3 7700.35 455.745   5 
  -4   3  -3 7557.67 449.279   8 
  -4   3  -3 7568.18 396.833  33 
   4  -3   3 7771.47 615.206  27 
  -4   3  -3 7556.57 404.878  20 
  -4   3  -2 2594.68 196.123  15 
   4  -3   2 2197.73 305.051  10 
  -4   3  -2 1959.35 333.716   3 
  -4   3  -2 2288.95 247.886   5 
  -4   3  -2 2332.44 251.595   8 
  -4   3  -2 2537.85 230.022  33 
  -4   3  -2 2444.28 228.029  20 
  -4   3  -2 2393.79 210.379  21 
  -4   3  -1 1565.04 153.464  15 
   4  -3   1 1969.86 294.475  10 
  -4   3  -1 1439.67 198.226   5 
  -4   3  -1 1439.09 191.271   8 
  -4   3  -1 1622.14 182.603  33 
  -4   3  -1 1549.59 178.704  20 
  -4   3  -1 1530.20 166.851  21 
  -4   3   0 761.498 104.141  15 
   4  -3   0 644.925 161.386  10 
  -4   3   0 703.952 135.087   5 
  -4   3   0 719.526 145.540   8 
  -4   3   0 215.992 107.307   3 
  -4   3   0 832.010 131.531  33 
  -4   3   0 691.301 113.695  20 
  -4   3   0 915.317 127.431  21 
  -4   3   1 6517.10 319.309  15 
  -4   3   1 5870.25 384.050   5 
  -4   3   1 6548.72 394.285   8 
  -4   3   1 6846.47 373.152  33 
  -4   3   1 6301.61 357.204  20 
  -4   3   1 7120.74 352.985  21 
  -4   3   2 12916.0 449.305  15 
   4  -3  -2 12720.4 304.597  17 
  -4   3   2 11881.9 525.881   5 
  -4   3   2 11853.3 512.801   8 
  -4   3   2 13690.1 522.610  33 
  -4   3   2 12807.3 508.415  20 
  -4   3   3 253.906 66.9190  15 
   4  -3  -3 201.907 41.6580  17 
  -4   3   3 194.563 78.1701   8 
  -4   3   3 244.111 77.6063   5 
  -4   3   3 260.148 77.4465  33 
  -4   3   3 273.013 78.0845  20 
  -4   3   4 254.508 68.2095  15 
   4  -3  -4 199.101 39.3584  17 
  -4   3   4 246.448 62.6605  33 
  -4   3   4 257.249 72.6953  20 
  -4   3   5 2843.02 208.099  15 
   4  -3  -5 3111.31 163.741  17 
  -4   3   5 3082.01 246.095  20 
  -4   3   6 1747.01 160.077  15 
   4  -3  -6 1947.67 126.376  17 
  -4   3   6 1970.90 190.435  20 
  -4   3   7 3055.81 199.589  15 
   4  -3  -7 3280.83 157.036  17 
  -4   3   7 3282.30 238.123  20 
  -4   3   8 196.372 51.2114  15 
   4  -3  -8 229.898 44.7152  17 
  -4   3   8 193.314 55.2034  20 
  -4   3   9 609.689 73.7735  15 
   4  -3  -9 508.826 48.4205  17 
  -4   3   9 671.500 87.8189  20 
  -5   2 -14-29.4193 31.9771  19 
  -5   2 -13 210.191 61.8019  12 
  -5   2 -13 219.604 73.1927  19 
  -5   2 -12 1576.10 193.516  12 
  -5   2 -12 1320.51 183.107  19 
  -5   2 -11 546.768 128.346  12 
  -5   2 -11 447.958 149.254  19 
  -5   2 -10 8107.22 505.808  12 
  -5   2 -10 7729.44 491.201  19 
  -5   2  -9 434.397 140.595  12 
  -5   2  -9 277.766 123.708  19 
  -5   2  -8-10.4410 36.0569   8 
  -5   2  -8-0.75374 47.9947   5 
  -5   2  -8-60.4146 92.1451  12 
  -5   2  -8 62.5288 61.1573  19 
  -5   2  -7 3494.71 309.568   5 
  -5   2  -7 3725.87 305.487   8 
  -5   2  -7 3324.52 326.561  12 
  -5   2  -7 3230.51 316.974  19 
  -5   2  -6 4173.86 345.924   5 
  -5   2  -6 3939.89 330.493   8 
  -5   2  -6 3814.01 337.933  12 
  -5   2  -6 3186.25 317.091  19 
  -5   2  -5 58.3188 79.3700   8 
  -5   2  -5 15.1681 56.2416   5 
  -5   2  -5 59.6729 51.4007  12 
  -5   2  -5 67.1927 70.7982  19 
  -5   2  -4 973.918 166.565   5 
  -5   2  -4 771.829 155.062   8 
  -5   2  -4 796.186 127.196  20 
  -5   2  -3 562.538 101.618  15 
  -5   2  -3 555.677 130.697   8 
  -5   2  -3 632.570 144.257   5 
  -5   2  -3 564.974 112.327  33 
  -5   2  -3 558.667 95.2753  20 
  -5   2  -2 9774.66 416.978  15 
  -5   2  -2 9632.95 528.712   5 
  -5   2  -2 9238.96 510.923   8 
  -5   2  -2 9134.89 446.925  33 
  -5   2  -2 9907.47 448.013  20 
  -5   2  -1 1572.53 165.682  15 
  -5   2  -1 1453.68 208.647   5 
  -5   2  -1 1470.18 212.864   8 
  -5   2  -1 1431.13 172.135  33 
  -5   2  -1 1573.25 177.095  20 
  -5   2   0-13.6622 20.8239  13 
  -5   2   0-19.7925 41.7406  15 
  -5   2   0-0.47428 59.1297   8 
  -5   2   0-38.6438 52.3840   5 
  -5   2   0 3.82646 33.8689  33 
  -5   2   0-9.55197 37.8060  20 
  -5   2   1 400.164 105.063   8 
  -5   2   1 545.839 122.799   5 
  -5   2   1 517.455 94.5038  15 
  -5   2   1 571.139 100.992  13 
  -5   2   1 467.708 96.6824  20 
  -5   2   2 268.415 83.0515   8 
  -5   2   2 290.151 87.1251   5 
  -5   2   2 310.220 72.5723  13 
  -5   2   2 275.653 68.5975  15 
   5  -2  -2 234.093 42.8206  17 
  -5   2   2 256.526 70.4358  20 
  -5   2   3 274.995 68.5635  15 
   5  -2  -3 287.100 52.5198  17 
  -5   2   3 255.811 67.9127  20 
  -5   2   4 32.8626 37.8062  15 
   5  -2  -4-23.8294 26.5793  17 
  -5   2   4 35.3520 36.1522  20 
  -5   2   5 923.098 120.225  15 
   5  -2  -5 927.194 84.0688  17 
  -5   2   5 855.862 120.370  20 
  -5   2   6 30.1709 23.9070  15 
   5  -2  -6 13.6188 25.9352  17 
  -5   2   6 15.5191 31.2512  20 
  -5   2   7 226.122 53.2315  15 
   5  -2  -7 211.471 37.6044  17 
  -5   2   7 270.461 57.6706  20 
  -5   2   8 1886.57 130.187  15 
   5  -2  -8 1733.45 89.6497  17 
  -5   2   8 1937.96 140.864  20 
  -6   1 -13 1121.17 129.472  12 
  -6   1 -13 982.484 119.527  19 
  -6   1 -12-24.2615 57.2807  12 
  -6   1 -12-166.017 69.9996  19 
  -6   1 -11 3408.01 289.759  12 
  -6   1 -11 2767.96 263.908  19 
  -6   1 -10 1089.88 183.931  12 
  -6   1 -10 1105.05 170.562  19 
  -6   1  -9-87.5812 90.9053  12 
  -6   1  -9-19.9396 77.8519  19 
  -6   1  -8 27.0482 40.3283   5 
  -6   1  -8 76.3078 56.1991   8 
  -6   1  -8 57.5115 58.2038  12 
  -6   1  -8 115.672 93.8102  19 
  -6   1  -7 113.726 55.2125   5 
  -6   1  -7 99.2120 52.6647   8 
  -6   1  -7 74.6345 62.6703  12 
  -6   1  -7 130.767 73.6768  19 
  -6   1  -6 26.0371 60.5075   5 
  -6   1  -6 24.4960 46.6484   8 
  -6   1  -6 73.8498 54.6861  12 
  -6   1  -6 34.2461 57.0662  19 
  -6   1  -5 210.266 86.1401   5 
  -6   1  -5 203.983 82.0702   8 
  -6   1  -5 288.484 99.3520  12 
  -6   1  -5 131.331 56.5308  19 
  -6   1  -4 1648.51 230.055   5 
  -6   1  -4 1835.82 229.780   8 
  -6   1  -3 966.792 181.473   5 
  -6   1  -3 957.237 173.157   8 
  -6   1  -3 1018.02 141.696  15 
  -6   1  -2 25.7979 44.1967   8 
  -6   1  -2 45.7567 54.6972   5 
  -6   1  -2-3.16146 28.6602  15 
  -6   1  -1 1176.76 188.108   5 
  -6   1  -1 1155.69 182.403   8 
  -6   1  -1 1329.83 160.664  15 
  -6   1   0 413.548 112.257   5 
  -6   1   0 574.965 131.127   8 
  -6   1   0 535.945 100.937  15 
  -6   1   0 532.290 102.008  13 
  -6   1   1 1414.78 191.243   5 
  -6   1   1 1361.51 184.548   8 
  -6   1   1 1381.24 158.373  15 
  -6   1   1 1320.75 157.306  13 
  -6   1   2 55.4424 39.6902   5 
  -6   1   2 145.355 65.4551   8 
  -6   1   2 95.9881 47.0847  13 
  -6   1   2 66.3454 41.8125  15 
  -6   1   2 68.7356 25.4280  20 
  -6   1   3 695.138 111.025  15 
   6  -1  -3 636.838 65.4692  17 
  -6   1   3 574.309 94.2065  13 
  -6   1   3 588.579 92.5575  20 
  -6   1   4 6452.97 313.590  15 
   6  -1  -4 6766.40 211.656  17 
  -6   1   4 6599.56 290.748  13 
  -6   1   4 6536.38 303.666  20 
  -6   1   5-14.2021 34.1160  15 
   6  -1  -5 43.7548 24.6933  17 
  -6   1   5-14.2801 20.4602  20 
  -6   1   6 132.244 36.6117  15 
   6  -1  -6 92.4449 21.5988  17 
  -6   1   6 152.163 41.3565  20 
  -6   1   7 2.02701 14.8559  15 
   6  -1  -7 43.7312 20.2995  17 
  -7   0 -12 286.431 62.8299  19 
  -7   0 -11 68.0791 41.5606  19 
  -7   0 -10 2670.17 231.114  19 
  -7   0  -9 1812.03 202.054  19 
  -7   0  -8-83.2824 71.9516   5 
  -7   0  -8-29.6989 39.4216   8 
  -7   0  -8 20.3357 53.7001  19 
  -7   0  -7 4537.39 329.410   5 
  -7   0  -7 5078.15 340.438   8 
  -7   0  -6 1170.76 178.541   5 
  -7   0  -6 1109.98 171.560   8 
  -7   0  -6 953.904 145.993  19 
  -7   0  -5 1431.91 205.272   5 
  -7   0  -5 1267.34 183.497   8 
  -7   0  -5 1052.90 142.543  19 
  -7   0  -4 1375.66 195.515   5 
  -7   0  -4 1082.94 170.741   8 
  -7   0  -3 3089.57 287.691   5 
  -7   0  -3 3016.56 283.999   8 
  -7   0  -3 3818.74 270.205  22 
  -7   0  -2 757.626 151.404   5 
  -7   0  -2 664.220 138.820   8 
  -7   0  -2 754.090 126.243  15 
  -7   0  -1 332.915 97.1326   5 
  -7   0  -1 212.408 49.7123   8 
  -7   0  -1 223.291 67.5907  15 
  -7   0   0-54.1497 78.6239   5 
  -7   0   0 23.6460 47.5440   8 
  -7   0   0 61.9656 27.5154  15 
  -7   0   1 52.9397 46.0159   5 
  -7   0   1 244.976 73.0375   8 
  -7   0   1 216.724 60.3265  13 
  -7   0   1 254.548 64.1835  15 
  -7   0   2 112.722 41.2247  13 
  -7   0   2 115.346 48.8450  15 
  -7   0   3 5.55474 20.9736  13 
  -7   0   3 41.0497 35.4268  15 
   7   0  -3-38.7192 19.4870  17 
  -7   0   4 1500.84 129.868  15 
   7   0  -4 1340.34 71.6844  17 
  -7   0   5 39.9269 13.2888  15 
  -8  -1  -9 286.556 59.4827  19 
  -8  -1  -8-8.32423 29.2247  19 
  -8  -1  -7 1167.69 157.712   5 
  -8  -1  -7 557.166 95.4586  19 
  -8  -1  -6 455.783 111.822   8 
  -8  -1  -6 189.019 77.2856   5 
  -8  -1  -5 114.201 55.8884   5 
  -8  -1  -5 334.079 94.0786   8 
  -8  -1  -4 123.116 56.9203   5 
  -8  -1  -4 263.112 83.6544   8 
  -8  -1  -3 635.433 118.915   8 
  -8  -1  -3 403.229 90.9429   5 
  -8  -1  -2 3031.21 238.296   5 
  -8  -1  -2 3600.23 260.773   8 
  -8  -1  -1 1475.54 165.680   5 
  -8  -1   0 3138.36 228.243   5 
   2  10  -2 544.608 76.9141  34 
  -2 -10   2 537.716 43.7250   7 
   2  10  -1 15.3081 18.6317  34 
  -2 -10   1 42.0502 19.5985   7 
  -2 -10   1 69.7781 28.0187   6 
   2  10  -1 68.2940 26.2825   8 
   2  10  -1 101.404 32.4226   5 
   2  10   0 1989.71 143.975  34 
   2  10   0 2015.73 128.150   5 
   2  10   0 2128.56 130.377   8 
  -2 -10   0 1981.28 88.5584   7 
   2  10   1 90.0523 29.8960  34 
  -2 -10  -1 108.429 20.2493   7 
  -2 -10  -1 136.626 41.3296   6 
   2  10   1 123.573 40.3540   8 
   2  10   1 126.281 34.2998   5 
   2  10   2 7.73096 12.4560   8 
   2  10   2-17.9494 15.8767   5 
  -1  -9   6 1105.01 63.0666  14 
   1   9  -6 1188.76 129.713  34 
  -1  -9   5 1598.39 83.7404  14 
   1   9  -5 1634.44 162.438  34 
   1   9  -5 1620.08 112.188   8 
  -1  -9   5 1598.24 87.9062   7 
  -1  -9   4 331.243 42.9051  14 
   1   9  -4 279.748 73.9441  34 
   1   9  -4 354.601 62.2423   8 
  -1  -9   4 338.538 46.9114   7 
   1   9  -4 272.387 53.9223   5 
  -1  -9   3-11.7195 19.1540  14 
   1   9  -3-23.4444 44.1129  34 
  -1  -9   3-20.7078 21.1211   7 
   1   9  -3-20.2082 23.0904   8 
   1   9  -3 2.58836 27.3986   5 
  -1  -9   2 191.122 39.1986  14 
   1   9  -2 165.726 60.9681  34 
  -1  -9   2 236.381 47.3742   7 
   1   9  -2 157.213 54.7187   8 
   1   9  -2 162.226 54.9146   5 
  -1  -9   1 7518.16 214.653  14 
   1   9  -1 7615.82 369.253  34 
   1   9  -1 8246.41 341.793   5 
   1   9  -1 8088.37 341.737   8 
  -1  -9   1 8273.90 239.223   7 
  -1  -9   0 944.470 76.3657  14 
   1   9   0 1079.74 141.093  34 
   1   9   0 1175.96 129.720   5 
   1   9   0 1033.22 126.892   8 
  -1  -9   0 984.739 85.1132   7 
  -1  -9  -1 242.081 37.5507  14 
   1   9   1 198.673 51.3542  34 
  -1  -9  -1 239.986 45.2690   7 
   1   9   1 184.083 55.1194   8 
   1   9   1 213.939 52.3713   5 
  -1  -9  -2 43.7379 19.4358  14 
   1   9   2-28.6068 49.0949  34 
  -1  -9  -2 22.0706 20.2609   7 
   1   9   2-7.46882 27.8200   8 
   1   9   2-42.8098 32.7036   5 
  -1  -9  -3 3992.58 139.001  14 
  -1  -9  -3 4169.33 120.745  17 
   1   9   3 4754.98 242.965  34 
   1   9   3 4447.92 230.648   5 
   1   9   3 4472.73 227.333   8 
  -1  -9  -3 4446.34 151.186   7 
  -1  -9  -4 2164.48 91.7381  14 
  -1  -9  -4 2431.81 92.6075  17 
   1   9   4 2503.00 134.671  33 
   1   9   4 2480.90 153.516   5 
   1   9   4 2535.11 153.125   8 
  -1  -9  -5 626.162 45.7990  17 
   1   9   5 611.725 65.1281  33 
  -1  -9  -6 11.8962 11.4941  17 
   0   8  -9 164.782 51.0114  34 
   0   8  -8 359.616 68.4389  12 
   0  -8   8 327.138 31.3166  14 
   0  -8   8 322.443 56.4803  32 
   0   8  -8 216.895 50.9736  19 
   0  -8   7 762.496 59.2283  14 
   0   8  -7 811.214 106.318  12 
   0   8  -7 767.405 125.009  34 
   0  -8   7 669.922 89.6076  32 
   0   8  -7 811.563 107.716  20 
   0   8  -6 34.6670 29.0670  12 
   0  -8   6 7.44270 16.7082  14 
   0  -8   6 23.2530 26.6364  32 
   0   8  -6 4.27365 40.1923  34 
   0   8  -6 37.8321 35.2160  20 
   0  -8   5 1662.80 105.253  14 
   0   8  -5 1599.68 149.223   5 
   0   8  -5 1581.40 150.967   8 
   0   8  -5 1718.06 197.998  34 
   0  -8   5 1277.91 142.678  32 
   0   8  -5 1566.12 165.594  20 
   0  -8   4 200.717 40.5249  14 
   0   8  -4 200.709 64.6756   8 
   0   8  -4 193.594 60.9368   5 
   0  -8   4 128.292 42.5052  32 
   0   8  -4 173.699 64.4512  34 
   0   8  -4 197.997 62.0642  20 
   0  -8   3 3820.50 175.018  14 
   0   8  -3 4038.63 261.160   5 
   0   8  -3 3872.70 255.665   8 
   0   8  -3 3728.41 290.954  34 
   0   8  -3 3648.11 256.065  20 
   0  -8   2 123.644 37.4510  14 
   0   8  -2 148.545 64.7231   8 
   0   8  -2 161.199 58.7543   5 
   0   8  -2 141.806 71.3464  34 
   0   8  -2 167.248 66.7010  20 
   0  -8   1 581.098 72.4256  14 
   0   8  -1 580.774 111.955   5 
   0   8  -1 643.182 110.333   8 
   0   8  -1 630.752 114.794  34 
   0  -8   0 156.279 38.9611  14 
   0   8   0 108.065 46.2365   8 
   0   8   0 112.806 50.5954   5 
   0   8   0 110.826 45.9628  34 
   0   8   0 130.202 48.0180  33 
   0   8   0 128.849 51.2920  21 
   0  -8  -1 208.911 42.0677  14 
   0   8   1 216.628 56.7707   8 
   0   8   1 126.766 53.4802   5 
   0   8   1 204.213 66.4939  34 
   0   8   1 178.009 52.1850  33 
   0   8   1 187.111 53.8895  21 
   0  -8  -2 215.177 44.2732  14 
   0   8   2 205.973 60.0976   8 
   0   8   2 181.193 51.1524   5 
   0   8   2 254.508 56.5122  33 
   0   8   2 197.602 54.6164  21 
   0  -8  -3 66.6035 25.0528  17 
   0  -8  -3 73.2919 28.5885  14 
   0   8   3 83.8424 42.3340   8 
   0   8   3 35.2024 30.5775   5 
   0   8   3 51.1266 22.6399  33 
   0   8   3 68.7242 34.4810  21 
   0  -8  -4 144.144 30.1005  17 
   0  -8  -4 108.627 26.7041  14 
   0   8   4 220.477 58.2127   8 
   0   8   4 196.987 55.1529   5 
   0   8   4 176.609 47.6564  33 
   0   8   4 205.293 53.3386  21 
   0  -8  -5 482.889 52.3002  14 
   0  -8  -5 466.661 48.6969  17 
   0   8   5 528.554 81.7023  33 
   0   8   5 598.178 88.5189  21 
   0  -8  -6 718.459 55.7575  17 
   0   8   6 809.498 93.6122  33 
   0   8   6 816.571 94.9894  21 
   0  -8  -7 698.846 51.1633  17 
   0   8   7 742.406 82.1280  33 
   0   8   7 753.636 83.0429  21 
   0  -8  -8 50.1122 15.1636  17 
   0   8   8 9.44716 16.9489  33 
   0   8   8 7.40732 13.9253  21 
  -1   7 -11 361.656 73.8078  34 
  -1   7 -10 8.31780 22.1727  12 
   1  -7  10 70.1981 36.4574  32 
  -1   7 -10 51.0385 42.4643  34 
  -1   7 -10 85.5070 44.3898  19 
  -1   7  -9-68.7585 42.7844  12 
   1  -7   9 7.25426 29.1293  32 
  -1   7  -9-15.2074 39.9200  34 
  -1   7  -9-73.3156 44.6070  19 
  -1   7  -9 4.71447 34.6454  20 
  -1   7  -8 45.3401 44.4113  12 
  -1   7  -8 22.1934 45.4665  19 
   1  -7   8 57.5744 39.1601  32 
  -1   7  -8 102.651 53.8233  34 
  -1   7  -8 94.6775 53.9126  20 
  -1   7  -7 393.095 87.1913  12 
  -1   7  -7 399.577 85.7557  19 
   1  -7   7 285.315 39.2456  14 
   1  -7   7 318.145 81.6121  32 
  -1   7  -7 294.821 77.3370  34 
  -1   7  -7 349.731 87.8041  20 
   1  -7   6 724.010 69.4465  14 
  -1   7  -6 842.275 129.316  12 
  -1   7  -6 686.779 101.661   5 
  -1   7  -6 855.873 114.094   8 
  -1   7  -6 822.200 151.750  34 
  -1   7  -6 733.891 128.427  20 
   1  -7   5 52.9287 28.2775  14 
  -1   7  -5 20.9673 36.0935   8 
  -1   7  -5 59.7125 40.1229   5 
  -1   7  -5 11.0429 58.0426  34 
  -1   7  -5 26.2932 45.9657  20 
   1  -7   4 185.525 42.7589  14 
  -1   7  -4 115.924 52.6859   8 
  -1   7  -4 208.419 66.3231   5 
  -1   7  -4 88.9373 47.4635  34 
  -1   7  -4 94.5064 36.9606  20 
   1  -7   3 2491.24 148.294  14 
  -1   7  -3 2426.13 219.145   5 
  -1   7  -3 2291.30 213.960   8 
  -1   7  -3 2180.92 232.325  34 
  -1   7  -3 2262.26 183.431  33 
  -1   7  -3 2121.45 222.327  20 
   1  -7   2 6553.75 242.344  14 
  -1   7  -2 6176.37 357.182   5 
  -1   7  -2 6021.43 353.800   8 
  -1   7  -2 5724.50 363.132  34 
  -1   7  -2 6160.00 313.383  33 
  -1   7  -2 5905.49 365.601  20 
   1  -7   1 9192.42 289.384  14 
  -1   7  -1 8559.68 428.290   5 
  -1   7  -1 8667.03 415.870   8 
  -1   7  -1 8222.90 421.847  34 
  -1   7  -1 8991.61 386.429  33 
  -1   7  -1 8832.14 437.300  20 
  -1   7  -1 8961.70 409.093  21 
   1  -7   0 2826.46 163.971  14 
  -1   7   0 2976.19 251.150   5 
  -1   7   0 2972.02 256.561   8 
  -1   7   0 3135.49 236.143  33 
  -1   7   0 2796.13 243.221  20 
  -1   7   0 3064.48 238.627  21 
   1  -7  -1 298.292 56.2939  14 
  -1   7   1 276.239 81.7308   8 
  -1   7   1 292.522 81.1925   5 
  -1   7   1 313.093 71.7981  33 
  -1   7   1 275.663 68.1946  21 
  -1   7   1 293.269 71.4210  20 
   1  -7  -2 6507.68 244.419  14 
  -1   7   2 6585.67 357.142   5 
  -1   7   2 6581.43 352.326   8 
  -1   7   2 6680.55 333.334  33 
  -1   7   2 6755.96 343.891  20 
  -1   7   2 6784.14 351.463  21 
   1  -7  -3 4008.84 186.377  14 
   1  -7  -3 3552.22 139.756  17 
  -1   7   3 3968.74 267.517   5 
  -1   7   3 3837.51 259.126   8 
  -1   7   3 4313.67 269.505  33 
  -1   7   3 3981.42 254.980  20 
  -1   7   3 4465.73 279.793  21 
   1  -7  -4 1961.96 128.356  14 
   1  -7  -4 2002.17 105.352  17 
  -1   7   4 2042.66 175.712   5 
  -1   7   4 2068.75 173.324   8 
  -1   7   4 2317.66 192.055  33 
  -1   7   4 2065.88 173.079  20 
  -1   7   4 2224.02 195.270  21 
   1  -7  -5 277.021 38.9684  17 
   1  -7  -5 316.670 49.0906  14 
  -1   7   5 328.463 76.5817  33 
  -1   7   5 329.344 77.4396  21 
   1  -7  -6 442.655 54.5588  14 
   1  -7  -6 418.896 48.3038  17 
  -1   7   6 434.492 79.8018  33 
  -1   7   6 434.461 80.0312  21 
   1  -7  -7 4726.57 147.274  17 
  -1   7   7 5140.31 245.622  33 
  -1   7   7 5234.03 252.345  21 
   1  -7  -8 2140.75 90.6767  17 
  -1   7   8 2311.41 145.013  33 
  -1   7   8 2417.16 155.129  21 
   1  -7  -9 139.386 21.5498  17 
  -1   7   9 179.629 38.2902  21 
  -2   6 -12 692.120 87.6572  12 
  -2   6 -12 675.451 99.6282  34 
   2  -6  12 591.125 67.8800  32 
  -2   6 -11 240.859 62.6874  12 
   2  -6  11 184.640 45.5046  32 
  -2   6 -11 121.931 58.6408  34 
  -2   6 -11 206.839 65.5233  19 
  -2   6 -10 3718.82 249.438  12 
  -2   6 -10 4172.79 305.110  34 
   2  -6  10 3507.52 231.108  32 
  -2   6 -10 3881.30 268.675  20 
  -2   6 -10 3861.87 258.096  19 
  -2   6  -9 1677.65 179.068  12 
  -2   6  -9 1729.26 210.290  34 
   2  -6   9 1518.65 169.061  32 
  -2   6  -9 1736.36 196.784  20 
  -2   6  -9 1809.89 185.096  19 
  -2   6  -8 2323.39 217.314  12 
  -2   6  -8 2507.95 258.572  34 
   2  -6   8 2335.63 223.566  32 
  -2   6  -8 2577.95 251.785  20 
  -2   6  -8 2467.02 223.254  19 
  -2   6  -7 820.728 132.562  12 
  -2   6  -7 861.027 119.284   8 
  -2   6  -7 619.989 134.531  34 
  -2   6  -7 837.961 154.287  20 
  -2   6  -7 594.784 110.128  19 
   2  -6   6 3128.29 147.428  14 
  -2   6  -6 3103.62 253.762  12 
  -2   6  -6 3499.24 257.298   5 
  -2   6  -6 3645.98 263.378   8 
  -2   6  -6 3128.85 291.269  34 
  -2   6  -6 3449.38 298.020  20 
   2  -6   5 72.7007 25.8601  14 
  -2   6  -5 45.7384 29.2726   8 
  -2   6  -5 92.6812 51.7936   5 
  -2   6  -5 81.2440 69.6723  34 
  -2   6  -5 56.2076 39.7874  33 
  -2   6  -5-13.8874 40.9201  20 
   2  -6   4 1813.75 128.382  14 
  -2   6  -4 1951.31 197.943   5 
  -2   6  -4 1882.84 200.276   8 
  -2   6  -4 1707.33 204.708  34 
  -2   6  -4 1816.72 178.106  33 
  -2   6  -4 1887.91 217.773  20 
   2  -6   3 244.699 52.3625  14 
  -2   6  -3 262.737 77.7702   8 
  -2   6  -3 307.797 87.1751   5 
  -2   6  -3 257.788 73.7065  33 
  -2   6  -3 258.234 100.977  20 
   2  -6   2 1815.37 131.525  14 
  -2   6  -2 1836.62 204.040   5 
  -2   6  -2 1929.69 210.511   8 
  -2   6  -2 1867.45 188.386  33 
  -2   6  -2 1723.22 200.229  20 
  -2   6  -2 2027.43 205.037  21 
   2  -6   1 17.5570 31.3412  14 
  -2   6  -1 57.6240 49.0360   8 
  -2   6  -1-38.1732 44.2976   5 
  -2   6  -1 1.18444 29.9905  33 
  -2   6  -1-22.7570 44.0839  21 
  -2   6  -1-2.92209 51.5462  20 
   2  -6   0 7241.61 262.308  14 
  -2   6   0 7028.90 397.322   5 
  -2   6   0 6902.86 396.612   8 
  -2   6   0 6977.75 356.418  33 
  -2   6   0 7141.73 392.455  20 
  -2   6   0 6812.19 365.201  21 
   2  -6  -1 1036.06 101.207  14 
  -2   6   1 984.399 153.805   5 
  -2   6   1 1106.38 157.948   8 
  -2   6   1 1027.22 142.439  33 
  -2   6   1 1007.58 148.180  20 
  -2   6   1 967.266 139.287  21 
   2  -6  -2 1202.83 107.881  14 
  -2   6   2 1305.43 164.443   5 
  -2   6   2 1235.00 159.963   8 
  -2   6   2 1299.65 152.523  33 
  -2   6   2 1232.92 156.746  20 
  -2   6   2 1388.10 165.513  21 
   2  -6  -3-17.8911 30.8523  17 
   2  -6  -3-43.3589 42.7516  14 
  -2   6   3 28.7008 33.8980   8 
  -2   6   3 23.4295 36.5978   5 
  -2   6   3 32.8237 33.8066  33 
  -2   6   3 45.2555 42.6306  20 
  -2   6   3 55.5475 33.1312  21 
   2  -6  -4 80.2205 24.1529  17 
   2  -6  -4 82.2651 24.0566  14 
  -2   6   4 113.516 52.9853  33 
  -2   6   4 139.474 52.6457  20 
  -2   6   4 125.050 45.6634  21 
   2  -6  -5 10.8421 24.1680  17 
   2  -6  -5-47.0298 30.8865  14 
  -2   6   5 28.9418 33.9475  33 
  -2   6   5-7.83095 26.3710  20 
  -2   6   5-9.62246 43.3679  21 
   2  -6  -6 1087.94 90.6928  14 
   2  -6  -6 1192.33 84.5474  17 
  -2   6   6 1287.52 135.591  33 
  -2   6   6 1327.90 138.617  20 
  -2   6   6 1301.12 137.770  21 
   2  -6  -7-21.5674 25.5882  17 
   2  -6  -7 14.5628 20.2090  14 
  -2   6   7-2.67970 34.4340  33 
  -2   6   7-2.82094 27.0852  20 
  -2   6   7 10.0128 22.5010  21 
   2  -6  -8 154.591 26.5811  17 
   2  -6  -8 134.527 24.3251  14 
  -2   6   8 188.618 45.6242  33 
  -2   6   8 168.331 37.8540  20 
  -2   6   8 242.737 53.1104  21 
   2  -6  -9 1861.29 75.7723  17 
  -2   6   9 2236.81 125.489  21 
  -3   5 -12 261.100 63.7862  12 
   3  -5  12 259.733 48.4282  32 
  -3   5 -12 404.120 83.3195  34 
  -3   5 -12 266.065 69.3912  19 
  -3   5 -11 69.5138 40.3524  12 
   3  -5  11 44.7813 24.8227  32 
  -3   5 -11 110.181 43.3097  34 
  -3   5 -11 29.2536 39.2238  19 
  -3   5 -11 64.6342 30.3061  20 
  -3   5 -10 77.0745 45.2277  12 
   3  -5  10 72.9176 45.2512  32 
  -3   5 -10 22.8524 39.3053  34 
  -3   5 -10 88.8522 58.8976  19 
  -3   5 -10 51.9363 40.1441  20 
  -3   5  -9 121.109 50.4945  12 
   3  -5   9 175.862 66.3045  32 
  -3   5  -9 245.134 88.7452  34 
  -3   5  -9 306.972 92.1506  20 
  -3   5  -9 200.439 62.0411  19 
  -3   5  -8 3064.42 262.308  12 
  -3   5  -8 2850.07 289.010  34 
  -3   5  -8 2832.34 268.004  20 
  -3   5  -8 2795.07 252.117  19 
  -3   5  -7 1745.24 210.876  12 
  -3   5  -7 2059.81 202.754   5 
  -3   5  -7 2085.88 203.899   8 
  -3   5  -7 1994.09 238.097  34 
  -3   5  -7 2226.27 242.625  20 
  -3   5  -7 2313.33 231.374  19 
  -3   5  -6-40.7869 52.5184  12 
  -3   5  -6 35.7013 41.8080   8 
  -3   5  -6 63.1024 43.6299   5 
  -3   5  -6 44.1877 44.0368  34 
  -3   5  -6-41.1199 57.4737  20 
  -3   5  -5 1439.03 180.449   5 
  -3   5  -5 1287.91 172.242   8 
  -3   5  -5 1295.44 163.131  33 
  -3   5  -5 1288.00 182.453  20 
   3  -5   4 1556.38 111.007  14 
  -3   5  -4 1851.96 208.480   5 
  -3   5  -4 1854.25 211.659   8 
  -3   5  -4 1751.03 187.330  33 
  -3   5  -4 1757.15 211.944  20 
   3  -5   3 850.987 88.1920  14 
  -3   5  -3 976.700 156.150   5 
  -3   5  -3 1154.27 170.528   8 
  -3   5  -3 1012.50 141.976  33 
  -3   5  -3 914.163 150.079  20 
   3  -5   2 301.444 54.6501  14 
  -3   5  -2 332.705 97.9298   8 
  -3   5  -2 305.590 94.7092   5 
  -3   5  -2 296.919 86.2718  33 
  -3   5  -2 409.938 96.6084  21 
  -3   5  -2 297.583 83.7056  20 
   3  -5   1 244.865 52.5318  14 
  -3   5  -1 327.138 80.8749   8 
  -3   5  -1 280.158 87.8883   5 
  -3   5  -1 270.022 72.0105  33 
  -3   5  -1 301.559 75.1006  21 
  -3   5  -1 303.730 97.3344  20 
  -3   5   0 270.687 81.7961   8 
  -3   5   0 332.104 99.5762   5 
  -3   5   0 296.612 67.9023  33 
  -3   5   0 304.948 88.0506  20 
  -3   5   0 288.236 63.5730  21 
  -3   5   1 9457.38 475.030   5 
  -3   5   1 8967.40 459.675   8 
  -3   5   1 8658.47 399.712  33 
  -3   5   1 9623.61 458.110  20 
  -3   5   1 8987.18 407.737  21 
  -3   5   2 91.7254 56.2971   8 
  -3   5   2 165.243 69.4329   5 
  -3   5   2 117.898 63.9027  33 
  -3   5   2 91.0729 53.5931  20 
  -3   5   2 101.505 57.9194  21 
   3  -5  -3 6248.61 197.178  17 
  -3   5   3 6388.53 353.480   5 
  -3   5   3 6445.59 347.060   8 
  -3   5   3 6074.68 326.570  33 
  -3   5   3 6806.85 371.910  20 
  -3   5   3 6285.47 327.229  21 
   3  -5  -4 13836.2 298.687  17 
  -3   5   4 15125.3 499.181  33 
  -3   5   4 14996.7 493.164  21 
   3  -5  -5 1646.08 103.855  17 
  -3   5   5 1662.06 159.605  33 
  -3   5   5 1735.40 175.374  20 
  -3   5   5 1705.45 159.166  21 
   3  -5  -6 166.498 33.4880  17 
  -3   5   6 181.482 51.1618  33 
  -3   5   6 178.860 55.6517  20 
  -3   5   6 231.942 60.2800  21 
   3  -5  -7 4447.35 152.730  17 
  -3   5   7 4318.78 210.282  33 
  -3   5   7 4552.01 246.400  20 
  -3   5   7 4471.07 221.480  21 
   3  -5  -8 118.458 20.6652  17 
   3  -5  -8 110.533 21.8010  14 
  -3   5   8 157.566 42.1737  20 
  -3   5   8 181.875 40.4478  21 
   3  -5  -9 733.980 46.4469  17 
  -4   4 -13 604.774 85.3392  12 
  -4   4 -13 531.163 80.7385  19 
  -4   4 -12 392.088 78.7789  12 
  -4   4 -12 345.219 81.4145  19 
  -4   4 -11-54.4128 56.1820  12 
   4  -4  11-9.14006 18.5574  32 
  -4   4 -11-45.7425 38.3121  20 
  -4   4 -11-52.3043 46.9475  19 
  -4   4 -10 1872.36 204.410  12 
  -4   4 -10 1798.88 209.837  34 
   4  -4  10 1585.05 157.364  32 
  -4   4 -10 1869.17 190.177  20 
  -4   4 -10 1651.42 194.369  19 
  -4   4  -9 5562.61 370.614  12 
  -4   4  -9 5702.36 398.474  34 
   4  -4   9 4696.98 297.491  32 
  -4   4  -9 5440.40 345.249  20 
  -4   4  -9 5322.26 359.435  19 
  -4   4  -8 461.303 113.553  12 
  -4   4  -8 391.453 112.441  34 
  -4   4  -8 488.550 114.417  20 
  -4   4  -8 313.846 87.5154  19 
  -4   4  -7 1466.02 181.232   5 
  -4   4  -7 1379.71 177.642   8 
  -4   4  -7 1252.55 181.704  12 
  -4   4  -7 1134.18 166.164  20 
  -4   4  -7 1248.36 172.619  19 
  -4   4  -6 14017.7 594.033   5 
  -4   4  -6 13757.6 591.045   8 
  -4   4  -6 13510.0 573.774  12 
  -4   4  -6 12510.5 563.709  20 
  -4   4  -5 177.618 87.3075   8 
  -4   4  -5 66.2821 57.6565   5 
  -4   4  -5 147.147 71.1257  20 
  -4   4  -4 1557.89 209.114   5 
  -4   4  -4 1548.31 204.339   8 
  -4   4  -4 1524.07 180.779  33 
  -4   4  -4 1332.99 169.059  20 
  -4   4  -3 4125.58 343.668   5 
  -4   4  -3 4622.29 354.617   8 
  -4   4  -3 3966.63 291.498  33 
  -4   4  -3 3616.64 290.063  20 
   4  -4   2 5459.81 219.012  14 
  -4   4  -2 6776.39 440.893   5 
  -4   4  -2 6662.53 424.820   8 
  -4   4  -2 6145.46 361.840  33 
  -4   4  -2 5920.48 369.321  20 
  -4   4  -1 6638.49 433.088   5 
  -4   4  -1 6310.91 426.029   8 
  -4   4  -1 6144.44 359.077  33 
  -4   4  -1 5839.71 365.626  20 
  -4   4  -1 6160.92 340.113  21 
  -4   4   0 199.222 80.1290   8 
  -4   4   0 228.210 87.4062   5 
  -4   4   0 231.333 76.4673  33 
  -4   4   0 280.824 85.6667  20 
  -4   4   0 271.754 73.1204  21 
  -4   4   1 30.8205 34.0933   8 
  -4   4   1-90.9352 58.1069   5 
  -4   4   1-7.71813 35.6833  33 
  -4   4   1 21.3737 36.9181  20 
  -4   4   1-0.72055 26.4859  21 
  -4   4   2 966.199 153.326   5 
  -4   4   2 1108.41 157.977   8 
  -4   4   2 1072.24 142.663  33 
  -4   4   2 967.440 138.130  20 
  -4   4   2 1041.35 131.987  21 
   4  -4  -3 2430.51 123.132  17 
  -4   4   3 2672.77 229.625   5 
  -4   4   3 2652.07 222.921   8 
  -4   4   3 3161.18 236.375  33 
  -4   4   3 3008.95 244.863  20 
  -4   4   3 2757.13 207.226  21 
   4  -4  -4 1587.87 99.0646  17 
  -4   4   4 1966.05 176.522  33 
  -4   4   4 1887.34 188.491  20 
  -4   4   4 1856.79 161.481  21 
   4  -4  -5 3.62186 29.8345  17 
  -4   4   5 118.642 45.4242  33 
  -4   4   5 114.890 38.5801  20 
   4  -4  -6 371.805 45.1725  17 
  -4   4   6 406.923 77.2080  20 
   4  -4  -7 783.439 62.0229  17 
  -4   4   7 829.837 101.891  20 
   4  -4  -8 4278.88 123.282  17 
  -4   4   8 4602.40 209.773  20 
  -5   3 -12 71.4787 47.0169  12 
  -5   3 -12 30.2583 41.9400  19 
  -5   3 -11 756.642 124.213  12 
  -5   3 -11 521.462 104.576  19 
  -5   3 -10-22.3401 51.8836  12 
  -5   3 -10-108.175 83.6390  19 
  -5   3  -9 3598.78 296.891  12 
  -5   3  -9 3286.28 283.359  19 
  -5   3  -8 1823.37 199.825   5 
  -5   3  -8 1922.67 201.719   8 
  -5   3  -8 1691.46 211.308  12 
  -5   3  -8 1673.07 210.881  19 
  -5   3  -7-50.2408 61.9233   8 
  -5   3  -7-23.0888 30.9875   5 
  -5   3  -7-68.4845 55.1209  12 
  -5   3  -7-73.6204 70.1222  19 
  -5   3  -7-0.38057 31.9650  20 
  -5   3  -6 2095.83 244.808   5 
  -5   3  -6 2153.42 243.759   8 
  -5   3  -6 2030.50 227.683  12 
  -5   3  -6 1925.14 208.025  20 
  -5   3  -5 96.2637 73.9106   8 
  -5   3  -5 49.3118 66.1224   5 
  -5   3  -5-24.6649 36.9898  20 
  -5   3  -4 618.871 145.247   8 
  -5   3  -4 667.066 149.311   5 
  -5   3  -4 444.163 97.2793  20 
  -5   3  -3 2398.82 272.830   5 
  -5   3  -3 2174.11 250.909   8 
  -5   3  -3 2165.32 220.932  33 
  -5   3  -3 2159.36 210.590  20 
  -5   3  -2 1556.10 157.982  15 
  -5   3  -2 1406.45 209.422   5 
  -5   3  -2 1511.07 211.920   8 
  -5   3  -2 1429.82 178.619  33 
  -5   3  -2 1384.48 168.527  20 
  -5   3  -1 785.616 111.257  15 
  -5   3  -1 933.175 167.147   8 
  -5   3  -1 808.149 156.699   5 
  -5   3  -1 876.625 143.418  33 
  -5   3  -1 871.912 135.974  20 
  -5   3   0 25.7037 27.5208  15 
  -5   3   0 26.2303 44.3261   8 
  -5   3   0-19.5057 39.3950   5 
  -5   3   0 26.9641 47.5918  33 
  -5   3   0 3.18716 27.9846  20 
  -5   3   1 1143.34 131.251  15 
  -5   3   1 1311.10 177.890   5 
  -5   3   1 1102.85 168.702   8 
  -5   3   1 1173.40 149.898  33 
  -5   3   1 1148.83 150.538  20 
  -5   3   2 90.1589 56.2495   8 
  -5   3   2 1.40968 51.3344   5 
  -5   3   2 32.0144 22.5228  15 
  -5   3   2 47.5435 36.2697  20 
  -5   3   3 550.723 86.4074  15 
  -5   3   3 544.635 96.0532  20 
  -5   3   4 4058.65 222.497  15 
   5  -3  -4 4038.30 156.014  17 
  -5   3   4 4285.98 260.252  20 
  -5   3   5 2072.21 150.906  15 
   5  -3  -5 2265.10 112.923  17 
  -5   3   5 2272.33 180.427  20 
  -5   3   6 28.5606 22.8611  15 
   5  -3  -6-40.2426 31.0427  17 
  -5   3   6 9.83083 25.8629  20 
  -5   3   7 3679.11 155.809  15 
   5  -3  -7 3557.38 110.672  17 
  -5   3   7 3848.96 189.563  20 
  -6   2 -12 292.873 67.4775  12 
  -6   2 -12 213.100 52.4927  19 
  -6   2 -11 2.59922 45.1773  12 
  -6   2 -11 22.0316 37.7042  19 
  -6   2 -10 1619.70 187.526  12 
  -6   2 -10 1384.86 165.418  19 
  -6   2  -9 92.3231 57.0259  12 
  -6   2  -9 105.713 66.6679  19 
  -6   2  -8 4715.37 319.140   5 
  -6   2  -8 4643.10 307.440   8 
  -6   2  -8 4322.47 326.688  12 
  -6   2  -8 3907.94 293.800  19 
  -6   2  -7 199.337 82.4995   5 
  -6   2  -7 3.74563 43.3201   8 
  -6   2  -7 190.100 81.2044  12 
  -6   2  -7 72.9855 49.7636  19 
  -6   2  -6 1736.72 223.509   5 
  -6   2  -6 1547.95 205.431   8 
  -6   2  -6 1691.24 204.003  12 
  -6   2  -5 82.7194 71.1404   8 
  -6   2  -5 99.9616 75.4149   5 
  -6   2  -4 5128.56 408.167   5 
  -6   2  -4 4817.34 383.689   8 
  -6   2  -3 7373.68 484.247   5 
  -6   2  -3 7147.80 460.818   8 
  -6   2  -2 389.191 131.700   8 
  -6   2  -2 423.133 129.367   5 
  -6   2  -2 274.055 73.1284  15 
  -6   2  -1 707.160 137.778   8 
  -6   2  -1 552.080 130.339   5 
  -6   2  -1 643.996 102.959  15 
  -6   2   0 987.598 164.303   5 
  -6   2   0 772.226 144.965   8 
  -6   2   0 728.391 106.186  15 
  -6   2   0 679.698 104.244  20 
  -6   2   1 1887.29 213.570   5 
  -6   2   1 1801.89 198.495   8 
  -6   2   1 1785.64 157.807  15 
  -6   2   1 1742.58 163.034  20 
  -6   2   2 4414.86 288.300   5 
  -6   2   2 4401.98 275.630   8 
  -6   2   2 4246.27 236.225  15 
  -6   2   2 4396.17 251.661  20 
  -6   2   3 2522.06 174.924  15 
  -6   2   3 2622.41 188.558  20 
  -6   2   4 139.490 39.2568  15 
  -6   2   4 164.015 44.5846  20 
  -6   2   5 48.7906 24.3614  15 
   6  -2  -5 24.7661 12.4392  17 
  -7   1 -10 2444.59 173.761  19 
  -7   1  -9 7.67365 37.1429  19 
  -7   1  -8-30.6007 53.9463   8 
  -7   1  -8-9.32248 31.2574  19 
  -7   1  -7 1381.20 169.206   5 
  -7   1  -7 1554.72 178.387   8 
  -7   1  -7 983.098 125.079  19 
  -7   1  -6 6.58502 47.3786   5 
  -7   1  -6-7.27799 40.3574   8 
  -7   1  -5 364.920 107.068   5 
  -7   1  -5 304.881 93.2401   8 
  -7   1  -4 262.200 94.4322   5 
  -7   1  -4 297.466 100.017   8 
  -7   1  -3 355.036 98.4482   5 
  -7   1  -3 438.735 109.750   8 
  -7   1  -2 395.083 103.443   5 
  -7   1  -2 417.761 106.556   8 
  -7   1  -1 2373.54 234.836   5 
  -7   1  -1 2250.24 224.475   8 
  -7   1  -1 2164.83 175.433  15 
  -7   1   0-27.6994 31.2151   8 
  -7   1   0 27.2204 28.9753  15 
  -7   1   1 286.176 64.8406   8 
  -7   1   1 232.276 54.4910  15 
  -7   1   2 516.720 76.0530  15 
  -7   1   3 951.203 93.1341  15 
  -8   0  -7 461.012 85.0311   5 
  -8   0  -6 190.154 56.5796   5 
  -8   0  -6 419.120 89.4284   8 
  -8   0  -5 266.053 72.9094   5 
  -8   0  -5 448.349 86.6266   8 
  -8   0  -4-5.43347 43.4051   5 
  -8   0  -4 47.5156 39.7722   8 
  -8   0  -3 234.655 64.3399   5 
  -8   0  -3 417.902 86.1228   8 
  -8   0  -2 94.5368 40.0619   5 
  -8   0  -2 277.122 82.5096   8 
  -8   0  -1 737.710 101.939   5 
   0  -9   5-26.1620 13.7414  14 
   0   9  -5 14.5065 21.9172  34 
   0  -9   5 32.7383 13.0215   7 
   0  -9   4-4.31690 13.5133  14 
   0   9  -4-48.5834 35.3060  34 
   0  -9   4 21.0560 17.6955   7 
   0   9  -4 18.1676 19.8833   8 
   0   9  -4-23.2265 25.3126   5 
   0  -9   3 288.798 38.7508  14 
   0   9  -3 252.960 62.4593  34 
   0   9  -3 204.247 50.5568   8 
   0   9  -3 225.087 52.5822   5 
   0  -9   2 15.9909 11.9860  14 
   0   9  -2-10.7983 26.4888  34 
   0   9  -2-8.30766 25.8447   8 
   0   9  -2 28.1995 27.0167   5 
   0  -9   1 755.324 63.2979  14 
   0   9  -1 704.964 92.0465  34 
   0   9  -1 794.423 99.5932   5 
   0   9  -1 787.742 100.515   8 
   0  -9   0 548.180 53.1429  14 
   0   9   0 598.079 88.9667   5 
   0   9   0 585.440 87.2672   8 
   0  -9  -1 404.609 44.7610  14 
   0   9   1 474.507 77.8062   5 
   0   9   1 506.637 80.2468   8 
   0  -9  -1 430.315 49.6503   7 
   0  -9  -2 173.126 29.9869  14 
   0  -9  -2 181.159 29.6387   7 
   0   9   2 161.970 39.2147   8 
   0   9   2 175.763 46.5771   5 
   0  -9  -3 4800.38 134.758  14 
   0   9   3 4790.11 199.308   5 
   0   9   3 5025.26 199.134   8 
   0   9   3 5077.18 179.324  33 
   1  -8   8 117.060 32.8333  32 
  -1   8  -8 114.068 45.2462  34 
  -1   8  -8 113.925 38.2107  20 
   1  -8   7 144.400 42.9972  32 
  -1   8  -7 181.573 60.5074  34 
  -1   8  -7 152.976 45.8771  20 
   1  -8   6 2065.03 93.1639  14 
  -1   8  -6 2197.74 143.867   5 
  -1   8  -6 2210.10 146.648   8 
  -1   8  -6 2301.42 196.081  34 
   1  -8   6 1851.72 150.644  32 
  -1   8  -6 2105.42 173.354  20 
   1  -8   5 2116.58 104.387  14 
  -1   8  -5 1966.62 152.746   5 
  -1   8  -5 2065.72 159.322   8 
  -1   8  -5 1974.05 182.530  34 
   1  -8   5 1830.52 157.901  32 
  -1   8  -5 2132.77 183.747  20 
   1  -8   4 1219.32 84.3827  14 
  -1   8  -4 1283.44 134.462   5 
  -1   8  -4 1154.71 135.411   8 
  -1   8  -4 1166.32 139.271  34 
  -1   8  -4 1286.23 146.429  20 
   1  -8   3 40.6979 20.6492  14 
  -1   8  -3 64.3629 38.8102   8 
  -1   8  -3 14.4146 22.9084   5 
  -1   8  -3 0.28892 23.2013  20 
   1  -8   2 782.855 75.8487  14 
  -1   8  -2 788.010 109.406   5 
  -1   8  -2 701.955 103.744   8 
  -1   8  -2 692.871 105.442  34 
  -1   8  -2 653.267 84.4558  33 
  -1   8  -2 687.232 103.110  20 
   1  -8   1 4177.39 168.716  14 
  -1   8  -1 4472.50 264.849   5 
  -1   8  -1 4537.15 268.204   8 
  -1   8  -1 4498.44 227.988  33 
  -1   8  -1 4223.01 253.931  20 
   1  -8   0 696.956 69.0196  14 
  -1   8   0 1007.15 133.151   5 
  -1   8   0 808.870 124.230   8 
  -1   8   0 932.635 110.075  33 
  -1   8   0 768.730 105.635  20 
   1  -8  -1-7.72926 26.0041  14 
  -1   8   1-50.2895 42.3968   8 
  -1   8   1-3.09093 25.3211   5 
  -1   8   1-5.49028 30.8423  33 
  -1   8   1-9.05175 28.2302  21 
  -1   8   1 16.6730 21.9953  20 
   1  -8  -2 374.335 49.2483  14 
  -1   8   2 312.462 71.3006   8 
  -1   8   2 294.710 63.2639   5 
  -1   8   2 379.504 69.2204  33 
  -1   8   2 332.649 65.7413  21 
   1  -8  -3 3004.74 130.193  14 
  -1   8   3 2865.15 181.410   5 
  -1   8   3 2963.92 182.830   8 
  -1   8   3 3423.27 197.487  33 
  -1   8   3 3271.64 200.410  21 
   1  -8  -4 78.9943 21.0380  14 
  -1   8   4 58.2906 31.5747  33 
  -1   8   4 115.593 39.9906  21 
   1  -8  -5 0.99025 16.4106  14 
  -1   8   5-34.5127 25.4590  33 
  -1   8   5 10.6104 18.6354  21 
  -1   8   6 178.320 38.4191  33 
  -1   8   6 238.095 44.7152  21 
   2  -7   9 93.4254 33.2774  32 
  -2   7  -9 85.4291 39.5207  34 
  -2   7  -9 93.8214 30.2743  20 
  -2   7  -8 695.155 107.746  34 
   2  -7   8 695.596 96.0812  32 
  -2   7  -8 834.099 115.048  20 
   2  -7   7-16.3758 42.3579  32 
  -2   7  -7-15.1256 28.3783  34 
  -2   7  -7 15.6641 33.3077  20 
  -2   7  -6-38.8120 38.0962   8 
  -2   7  -6-35.0632 26.9789   5 
  -2   7  -6-44.2974 40.7036  34 
  -2   7  -6 7.51392 34.4784  20 
   2  -7   5 1099.36 80.5462  14 
  -2   7  -5 1053.39 129.782   5 
  -2   7  -5 1055.59 128.572   8 
  -2   7  -5 1044.35 143.259  34 
  -2   7  -5 1161.04 158.235  20 
  -2   7  -4-5.79442 35.9630   8 
  -2   7  -4 7.97722 24.5675   5 
   2  -7   4 20.0445 20.0139  14 
  -2   7  -4-34.6966 51.4733  20 
   2  -7   3 2706.62 140.417  14 
  -2   7  -3 2714.66 218.646   5 
  -2   7  -3 2735.02 219.606   8 
  -2   7  -3 2803.51 202.745  33 
  -2   7  -3 2628.87 235.608  20 
   2  -7   2 411.207 61.0824  14 
  -2   7  -2 465.935 95.7876   8 
  -2   7  -2 479.669 97.9990   5 
  -2   7  -2 466.883 91.6419  33 
  -2   7  -2 504.106 111.902  20 
   2  -7   1 1594.60 112.075  14 
  -2   7  -1 1640.99 171.813   5 
  -2   7  -1 1557.98 170.506   8 
  -2   7  -1 1543.66 154.470  33 
  -2   7  -1 1619.01 182.326  20 
   2  -7   0 930.917 85.6522  14 
  -2   7   0 1092.03 139.845   5 
  -2   7   0 961.395 131.698   8 
  -2   7   0 931.079 119.564  33 
  -2   7   0 942.934 137.258  20 
  -2   7   0 1061.79 135.904  21 
   2  -7  -1 1529.13 109.319  14 
  -2   7   1 1597.13 168.750   5 
  -2   7   1 1727.48 175.094   8 
  -2   7   1 1548.81 155.131  33 
  -2   7   1 1573.46 166.723  20 
  -2   7   1 1690.36 166.206  21 
   2  -7  -2 37.3300 21.9671  14 
  -2   7   2-29.3639 37.3553   8 
  -2   7   2-45.0642 39.0943   5 
  -2   7   2 17.0438 35.3477  33 
  -2   7   2-16.6362 38.7975  21 
  -2   7   2-7.48194 24.2309  20 
   2  -7  -3-1.59901 17.5868  14 
  -2   7   3-6.21893 23.0187   8 
  -2   7   3-22.2825 30.3618   5 
  -2   7   3 2.49325 24.2001  33 
  -2   7   3-11.8904 31.0983  21 
  -2   7   3-11.3144 26.9173  20 
   2  -7  -4 2073.05 115.237  14 
  -2   7   4 2278.15 168.725  33 
  -2   7   4 2279.61 168.298  20 
  -2   7   4 2449.55 180.615  21 
   2  -7  -5 796.384 66.1567  14 
   2  -7  -5 699.383 48.7532  17 
  -2   7   5 826.274 97.1408  33 
  -2   7   5 866.580 92.5797  20 
  -2   7   5 1008.91 106.003  21 
   2  -7  -6 1386.11 75.5764  14 
   2  -7  -6 1284.17 61.0715  17 
  -2   7   6 1659.99 121.394  33 
  -2   7   6 1695.55 125.864  21 
  -3   6 -10 28.5849 29.2106  12 
   3  -6  10 14.1709 19.7605  32 
  -3   6 -10 4.44545 21.7827  34 
  -3   6 -10 6.07822 35.2894  20 
  -3   6  -9 65.5792 44.4574  12 
   3  -6   9 14.2568 25.8598  32 
  -3   6  -9 59.9516 42.1596  34 
  -3   6  -9 70.7033 46.0537  20 
  -3   6  -8 868.521 112.954  12 
  -3   6  -8 934.660 134.379  34 
   3  -6   8 865.947 119.185  32 
  -3   6  -8 982.234 141.246  20 
  -3   6  -7 342.415 69.6917   8 
  -3   6  -7 165.678 48.7581   5 
  -3   6  -7 233.554 58.8248  34 
  -3   6  -7 248.139 75.2954  20 
  -3   6  -6 1312.83 150.026   5 
  -3   6  -6 1229.54 145.242   8 
  -3   6  -6 1404.67 178.034  20 
  -3   6  -5 66.2518 48.8461   8 
  -3   6  -5 54.0827 41.9863   5 
  -3   6  -5 61.5283 45.6346  20 
   3  -6   4 403.976 55.1008  14 
  -3   6  -4 354.967 86.5600   8 
  -3   6  -4 466.937 101.374   5 
  -3   6  -4 333.016 77.6964  33 
  -3   6  -4 358.140 84.7486  20 
   3  -6   3 6009.61 210.933  14 
  -3   6  -3 6751.05 374.438   5 
  -3   6  -3 6834.24 371.364   8 
  -3   6  -3 6350.13 331.225  33 
  -3   6  -3 6608.34 389.062  20 
   3  -6   2 7563.02 243.129  14 
  -3   6  -2 8198.73 416.467   5 
  -3   6  -2 8527.88 425.197   8 
  -3   6  -2 8094.34 375.161  33 
  -3   6  -2 7885.08 422.164  20 
   3  -6   1 6318.34 227.042  14 
  -3   6  -1 7010.34 388.954   5 
  -3   6  -1 7066.23 384.249   8 
  -3   6  -1 6387.75 329.898  33 
  -3   6  -1 6441.88 373.164  20 
  -3   6  -1 6451.43 338.038  21 
   3  -6   0 6613.27 233.385  14 
  -3   6   0 6909.47 379.377   5 
  -3   6   0 6951.52 377.364   8 
  -3   6   0 6608.39 331.678  33 
  -3   6   0 7056.68 382.717  20 
  -3   6   0 6948.39 343.031  21 
   3  -6  -1 764.009 80.3636  14 
  -3   6   1 797.560 126.957   5 
  -3   6   1 739.632 120.032   8 
  -3   6   1 740.267 106.795  33 
  -3   6   1 757.761 118.943  20 
  -3   6   1 727.267 109.366  21 
   3  -6  -2 8374.21 258.597  14 
  -3   6   2 8575.64 388.546   5 
  -3   6   2 8448.24 374.998   8 
  -3   6   2 8430.29 356.834  33 
  -3   6   2 8777.98 402.916  20 
  -3   6   2 8557.41 360.006  21 
   3  -6  -3 86.1839 30.6516  14 
  -3   6   3 87.9187 35.8025   8 
  -3   6   3 136.442 46.6423   5 
  -3   6   3 57.1504 27.6231  33 
  -3   6   3 86.9973 41.4299  21 
  -3   6   3 86.8581 43.5959  20 
   3  -6  -4 423.878 54.3079  14 
  -3   6   4 427.612 75.2320  33 
  -3   6   4 414.535 75.2410  21 
  -3   6   4 334.265 71.7007  20 
   3  -6  -5 550.631 58.3807  14 
   3  -6  -5 443.579 39.6426  17 
  -3   6   5 574.107 79.4078  33 
  -3   6   5 539.328 84.0764  20 
  -3   6   5 595.637 83.5808  21 
   3  -6  -6 292.417 30.0369  17 
   3  -6  -6 276.715 35.8856  14 
  -3   6   6 358.780 54.7536  33 
  -3   6   6 368.282 62.9065  20 
  -3   6   6 380.895 57.1463  21 
  -4   5 -10 1690.39 148.923  12 
   4  -5  10 1472.38 121.290  32 
  -4   5 -10 1802.67 151.021  20 
  -4   5 -10 1492.02 134.388  19 
  -4   5  -9 2275.44 181.099  12 
   4  -5   9 2081.58 167.493  32 
  -4   5  -9 2526.91 202.214  20 
  -4   5  -9 2070.99 166.714  19 
  -4   5  -8 1947.17 178.183  12 
   4  -5   8 1902.86 177.360  32 
  -4   5  -8 2224.13 206.679  20 
  -4   5  -7 3272.74 241.313   5 
  -4   5  -7 3239.31 238.935   8 
  -4   5  -7 3460.31 269.952  20 
  -4   5  -6 384.213 92.5686   8 
  -4   5  -6 404.252 89.9860   5 
  -4   5  -6 449.035 112.213  20 
  -4   5  -5 245.028 77.3603   8 
  -4   5  -5 166.330 59.0747   5 
  -4   5  -5 232.596 69.4171  20 
  -4   5  -4 338.368 95.9398   8 
  -4   5  -4 252.495 71.5750   5 
  -4   5  -4 212.950 71.9646  20 
   4  -5   3 119.906 37.0706  14 
  -4   5  -3 89.8781 45.9512   8 
  -4   5  -3 125.274 65.6920   5 
  -4   5  -3 40.3754 51.0258  33 
  -4   5  -3 143.068 58.7014  20 
   4  -5   2 1577.68 107.557  14 
  -4   5  -2 1682.24 204.568   5 
  -4   5  -2 1787.89 206.492   8 
  -4   5  -2 1574.37 165.628  33 
  -4   5  -2 1626.20 190.529  20 
   4  -5   1 987.425 86.8377  14 
  -4   5  -1 1371.85 184.301   5 
  -4   5  -1 1208.23 166.519   8 
  -4   5  -1 1212.72 151.093  33 
  -4   5  -1 1285.90 169.859  20 
   4  -5   0 528.856 62.4291  14 
  -4   5   0 672.586 118.232   8 
  -4   5   0 620.736 122.526   5 
  -4   5   0 631.562 103.484  33 
  -4   5   0 708.940 120.463  20 
  -4   5   0 640.815 97.1053  21 
   4  -5  -1 1866.88 122.663  14 
  -4   5   1 1955.66 201.558   5 
  -4   5   1 2220.94 211.040   8 
  -4   5   1 2050.51 182.496  33 
  -4   5   1 1968.78 193.492  20 
  -4   5   1 2010.82 171.687  21 
  -4   5   2 749.161 120.792   5 
  -4   5   2 635.013 107.706   8 
  -4   5   2 727.542 104.788  33 
  -4   5   2 773.207 116.109  20 
  -4   5   2 693.902 94.9308  21 
  -4   5   3 1653.65 150.833  33 
  -4   5   3 1864.04 178.415  20 
  -4   5   3 1701.96 143.062  21 
  -4   5   4 1280.72 120.294  33 
  -4   5   4 1391.89 144.869  20 
  -4   5   4 1172.31 108.137  21 
   4  -5  -5-11.8180 23.3843  14 
  -4   5   5 0.05056 25.4497  33 
  -4   5   5-15.2650 28.6523  20 
   4  -5  -6 1968.96 96.0849  14 
  -4   5   6 2211.03 149.594  20 
  -5   4 -10-5.24741 30.2295  12 
  -5   4 -10 41.3930 28.7748  19 
  -5   4  -9-58.4427 41.6378  12 
  -5   4  -9-16.0566 38.4328  19 
  -5   4  -8 74.6376 50.3712  12 
  -5   4  -8-61.6059 41.6832   8 
   5  -4   8 21.2926 23.6245  32 
  -5   4  -8 18.4985 35.0215  20 
  -5   4  -7 5771.70 336.185   5 
  -5   4  -7 5714.00 330.846   8 
  -5   4  -7 4990.62 299.477  20 
  -5   4  -6 189.819 87.7620   8 
  -5   4  -6 288.459 95.1988   5 
  -5   4  -6 206.252 72.5875  20 
  -5   4  -5 1824.63 214.551   5 
  -5   4  -5 1902.03 213.469   8 
  -5   4  -5 1379.79 168.242  20 
  -5   4  -4 61.0521 46.7307   8 
  -5   4  -4 13.6099 44.9645   5 
  -5   4  -4 29.3314 37.2002  20 
  -5   4  -3-86.1337 86.3802   8 
  -5   4  -3-45.1697 64.3030   5 
  -5   4  -3 13.8740 32.6078  20 
  -5   4  -2 252.045 81.4278   8 
  -5   4  -2 295.523 73.4851   5 
  -5   4  -2 314.208 72.4590  33 
  -5   4  -2 334.966 88.7208  20 
   5  -4   1 69.7081 26.2348  14 
  -5   4  -1 42.7022 40.9600   8 
  -5   4  -1 72.7263 45.9686   5 
  -5   4  -1 79.8359 47.1728  33 
  -5   4  -1 104.097 43.3102  20 
   5  -4   0 206.653 38.7680  14 
  -5   4   0 216.791 67.7605   8 
  -5   4   0 189.119 70.3722   5 
  -5   4   0 266.329 71.8205  33 
  -5   4   0 213.245 64.4565  20 
  -5   4   1 2998.31 248.180   5 
  -5   4   1 3204.50 250.705   8 
  -5   4   1 3103.85 213.283  33 
  -5   4   1 2732.28 213.943  20 
  -5   4   2 690.115 112.587   5 
  -5   4   2 674.616 101.281   8 
  -5   4   2 689.173 95.1532  33 
  -5   4   2 682.634 102.648  20 
  -5   4   3 142.395 47.8431  20 
  -5   4   4 8036.55 313.359  20 
  -5   4   5 40.6624 22.1778  20 
  -6   3  -9 3356.86 200.612  12 
  -6   3  -8 720.471 104.600   5 
  -6   3  -8 867.078 114.321   8 
  -6   3  -7 2799.96 231.094   5 
  -6   3  -7 2914.89 235.483   8 
  -6   3  -6 2627.21 242.920   5 
  -6   3  -6 2508.92 232.113   8 
  -6   3  -5 168.904 70.3755   8 
  -6   3  -5 178.054 78.1241   5 
  -6   3  -4 896.636 152.180   8 
  -6   3  -4 831.481 144.976   5 
  -6   3  -3 617.180 120.557   8 
  -6   3  -3 527.739 121.637   5 
  -6   3  -2 176.986 78.3463   8 
  -6   3  -2 248.927 84.2713   5 
  -6   3  -2 173.455 45.0535  20 
  -6   3  -1 806.125 138.022   5 
  -6   3  -1 987.929 150.922   8 
  -6   3  -1 783.006 108.189  20 
  -6   3   0 401.064 94.3543   5 
  -6   3   0 438.979 97.0052   8 
  -6   3   0 342.765 66.7289  20 
  -6   3   1-45.1458 37.8132   8 
  -6   3   1 23.1258 21.4296  15 
  -6   3   1 11.3642 18.7078  20 
  -6   3   2 100.124 29.5360  15 
  -6   3   2 148.026 45.9556  20 
  -6   3   3 56.4256 20.1874  15 
  -6   3   3 42.9229 21.8839  20 
  -7   2  -7-146.456 71.7113   5 
  -7   2  -7 87.0907 42.7753   8 
  -7   2  -6 58.8141 44.2577   5 
  -7   2  -6-32.2168 40.1261   8 
  -7   2  -5 345.155 89.4180   5 
  -7   2  -5 470.081 97.4532   8 
  -7   2  -4 382.478 96.1771   5 
  -7   2  -4 361.712 92.4207   8 
  -7   2  -3 2216.99 216.916   5 
  -7   2  -3 2355.22 216.225   8 
  -7   2  -2 2460.36 221.267   5 
  -7   2  -2 2834.28 227.464   8 
  -7   2  -1 218.426 66.2968   5 
  -7   2  -1 140.634 41.7237   8 
  -7   2   0-29.0411 43.0734   8 
   1  -9   2 202.242 28.2299  14 
  -1   9  -2 193.963 41.3554   8 
  -1   9  -2 223.445 46.5137   5 
   1  -9   1 643.914 46.5549  14 
  -1   9  -1 714.667 77.8649   5 
  -1   9  -1 702.747 78.8272   8 
   1  -9   1 790.906 54.5680   7 
   1  -9   0 22.5535 12.1714  14 
  -1   9   0-35.8414 22.2601   8 
  -1   9   0-22.3761 15.3433   5 
   2  -8   6 74.9530 31.6564  32 
  -2   8  -6 61.1171 29.5225  20 
  -2   8  -5 187.735 42.9330   8 
  -2   8  -5 63.4178 23.5025   5 
   2  -8   5 127.987 35.9740  32 
  -2   8  -5 127.100 43.6042  20 
  -2   8  -4 16.0704 23.9312   8 
  -2   8  -4-35.0603 24.5077   5 
   2  -8   4-17.5569 15.3284  14 
  -2   8  -4 16.6580 22.4939  20 
  -2   8  -3 242.312 54.8690   8 
  -2   8  -3 246.939 54.5028   5 
   2  -8   3 220.316 31.3184  14 
  -2   8  -3 196.745 47.7431  20 
  -2   8  -2 1013.64 111.534   5 
  -2   8  -2 1009.95 113.135   8 
   2  -8   2 959.781 68.0077  14 
  -2   8  -2 953.381 109.629  20 
   2  -8   1 932.403 66.4138  14 
  -2   8  -1 882.241 104.200   5 
  -2   8  -1 927.786 107.985   8 
  -2   8  -1 858.233 90.0694  33 
  -2   8  -1 878.496 101.288  20 
   2  -8   0 11.6713 12.0766  14 
  -2   8   0-18.0876 23.9873   8 
  -2   8   0 1.08958 16.2081  33 
  -2   8   0 3.81532 22.7712  20 
   2  -8  -1 258.731 35.6804  14 
  -2   8   1 253.129 52.5346   8 
  -2   8   1 258.503 53.5277   5 
  -2   8   1 298.236 54.4252  33 
  -2   8   1 266.373 49.8000  20 
   2  -8  -2 883.313 59.9072  14 
  -2   8   2 987.843 90.8761  33 
   2  -8  -3 2717.44 97.8692  14 
  -2   8   3 3092.62 150.825  33 
   3  -7   7 965.130 100.072  32 
  -3   7  -7 1274.18 128.255  20 
  -3   7  -6 839.468 92.2799   5 
  -3   7  -6 974.972 98.9764   8 
   3  -7   6 854.636 104.742  32 
  -3   7  -6 928.308 116.404  20 
  -3   7  -5 1168.27 118.759   5 
  -3   7  -5 1115.49 117.690   8 
  -3   7  -5 1228.61 138.698  20 
  -3   7  -4 591.651 91.0771   5 
  -3   7  -4 664.268 92.8729   8 
   3  -7   4 482.505 42.7999  14 
  -3   7  -4 648.555 104.472  20 
  -3   7  -3 101.464 41.4927   8 
  -3   7  -3 122.277 42.8822   5 
   3  -7   3 95.8206 25.4239  14 
  -3   7  -3 46.5266 26.1205  20 
   3  -7   2 411.515 48.1740  14 
  -3   7  -2 433.878 79.1418   8 
  -3   7  -2 314.200 68.9945   5 
  -3   7  -2 451.250 75.7325  33 
  -3   7  -2 417.582 79.5502  20 
   3  -7   1-18.8493 16.6764  14 
  -3   7  -1-17.2957 34.6117   8 
  -3   7  -1-55.1926 36.8040   5 
  -3   7  -1 13.0197 23.1394  33 
  -3   7  -1 5.20460 33.3144  20 
   3  -7   0 451.930 50.2956  14 
  -3   7   0 441.124 78.9618   5 
  -3   7   0 452.776 79.3246   8 
  -3   7   0 450.978 74.8510  33 
  -3   7   0 465.688 80.7217  20 
   3  -7  -1 230.719 36.1857  14 
  -3   7   1 208.531 52.6827   8 
  -3   7   1 218.714 54.3183   5 
  -3   7   1 217.831 50.9437  33 
  -3   7   1 192.988 46.8801  20 
   3  -7  -2 336.010 42.5670  14 
  -3   7   2 397.343 64.0161   5 
  -3   7   2 342.735 57.2755   8 
  -3   7   2 335.360 56.7119  33 
  -3   7   2 316.076 59.8871  20 
   3  -7  -3 183.253 29.7321  14 
  -3   7   3 191.419 43.8114  33 
  -3   7   3 161.988 41.8901  20 
   4  -6   8-16.8353 19.9405  32 
  -4   6  -8-23.9948 28.8820  20 
  -4   6  -7 279.613 55.2890   8 
   4  -6   7 178.482 49.4345  32 
  -4   6  -7 281.168 62.9965  20 
  -4   6  -6 145.492 39.6385   8 
  -4   6  -6 171.417 50.7340   5 
  -4   6  -6 194.359 57.9706  20 
  -4   6  -5 266.768 60.8019   8 
  -4   6  -5 320.351 69.0955   5 
  -4   6  -5 375.812 76.1515  20 
  -4   6  -4 323.876 71.1997   8 
  -4   6  -4 314.487 72.4805   5 
  -4   6  -4 215.232 56.0552  20 
  -4   6  -3 1038.74 132.304   5 
  -4   6  -3 1030.83 127.573   8 
  -4   6  -3 960.593 129.708  20 
   4  -6   2 1143.70 75.2331  14 
  -4   6  -2 1339.72 146.729   5 
  -4   6  -2 1475.14 154.315   8 
  -4   6  -2 1276.79 128.534  33 
  -4   6  -2 1352.09 155.145  20 
   4  -6   1 920.903 70.9970  14 
  -4   6  -1 997.442 128.857   5 
  -4   6  -1 1033.26 128.743   8 
  -4   6  -1 966.920 111.167  33 
  -4   6  -1 1185.64 141.924  20 
   4  -6   0 2469.96 114.193  14 
  -4   6   0 2839.98 208.472   5 
  -4   6   0 2863.34 202.620   8 
  -4   6   0 2880.72 181.511  33 
  -4   6   0 2865.41 208.940  20 
   4  -6  -1 1282.18 81.6710  14 
  -4   6   1 1392.74 135.364   5 
  -4   6   1 1456.64 139.318   8 
  -4   6   1 1299.38 120.986  33 
  -4   6   1 1439.96 140.111  20 
   4  -6  -2 12.7814 13.6691  14 
  -4   6   2-42.8809 30.6913   8 
  -4   6   2-71.2788 30.3183   5 
  -4   6   2 7.22687 16.3663  33 
  -4   6   2 5.90865 21.5609  20 
   4  -6  -3 124.411 23.6962  14 
  -4   6   3 180.050 36.5054  33 
  -4   6   3 120.075 39.5279  20 
  -5   5  -7 423.291 71.3772   8 
  -5   5  -7 374.380 65.6564   5 
   5  -5   7 289.193 57.5193  32 
  -5   5  -7 450.397 74.2194  20 
  -5   5  -6 258.196 66.2029   8 
  -5   5  -6 214.447 53.7284   5 
  -5   5  -6 236.745 58.9505  20 
  -5   5  -5 355.193 75.9239   8 
  -5   5  -5 342.528 76.1355   5 
  -5   5  -5 220.396 57.4844  20 
  -5   5  -4 614.068 105.976   5 
  -5   5  -4 763.519 117.324   8 
  -5   5  -4 620.848 95.8177  20 
  -5   5  -3 5314.10 304.973   5 
  -5   5  -3 5857.39 310.161   8 
  -5   5  -2 3724.54 255.584   5 
  -5   5  -2 3836.11 261.092   8 
  -5   5  -2 3164.19 215.317  20 
  -5   5  -1 1309.11 150.255   5 
  -5   5  -1 1431.39 150.829   8 
  -5   5  -1 1238.67 133.911  20 
  -5   5   0 5387.20 285.178   5 
  -5   5   0 5627.11 282.473   8 
  -5   5   0 4947.97 254.866  20 
  -5   5   1 700.877 92.3155   5 
  -5   5   1 639.285 88.5419   8 
   5  -5  -1 555.500 47.7222  14 
  -5   5   1 684.450 90.0925  20 
   5  -5  -2 3091.73 110.513  14 
  -5   5   2 3905.89 202.791  20 
  -5   5   3 1933.41 131.355  20 
  -6   4  -6 439.719 77.8353   5 
  -6   4  -6 404.658 71.2853   8 
  -6   4  -5 493.424 90.0265   5 
  -6   4  -5 527.639 91.9436   8 
  -6   4  -4-59.8224 41.9355   5 
  -6   4  -4-85.2928 51.0549   8 
  -6   4  -3-23.7894 30.5277   5 
  -6   4  -3 34.0380 32.9625   8 
  -6   4  -3-15.7818 27.8766  20 
  -6   4  -2 1262.78 141.485   5 
  -6   4  -2 1367.91 143.942   8 
  -6   4  -2 919.934 93.7305  20 
  -6   4  -1 2244.99 179.140   5 
  -6   4  -1 2309.80 177.870   8 
  -6   4  -1 1824.43 130.250  20 
  -6   4   0 72.7464 34.1203   5 
  -6   4   0 21.8803 27.6693   8 
   0   0   0    0.00    0.00   0 
  
TITL exp_3809 in P-1 
REM P-1 (#2 in standard setting) 
CELL 1.54184   7.191556   8.265787  13.529905  87.0213  75.7967  68.7955 
ZERR    6.00   0.000344   0.000411   0.000542   0.0036   0.0038   0.0045 
LATT  1 
SFAC C H N Cl 
UNIT 60.00 42.00 12.00 12.00 
TREF 
HKLF 4 
END 
;
_shelx_hkl_checksum              3562
loop_
_space_group_symop_operation_xyz
'x, y, z'
'-x, -y, -z'
loop_
_atom_site_label
_atom_site_type_symbol
_atom_site_fract_x
_atom_site_fract_y
_atom_site_fract_z
_atom_site_U_iso_or_equiv
_atom_site_adp_type
_atom_site_occupancy
_atom_site_site_symmetry_order
_atom_site_calc_flag
_atom_site_refinement_flags_posn
_atom_site_refinement_flags_adp
_atom_site_refinement_flags_occupancy
_atom_site_disorder_assembly
_atom_site_disorder_group
Cl1 Cl 0.81474(10) 0.28931(7) -0.08412(4) 0.0517(2) Uani 1 1 d . . . . .
Cl2 Cl 0.57006(8) 0.98796(6) 0.86648(4) 0.0432(2) Uani 1 1 d . . . . .
N1 N 0.7457(2) 0.5737(2) 0.40144(12) 0.0289(4) Uani 1 1 d . . . . .
C1 C 0.7877(3) 0.4295(2) 0.34523(15) 0.0283(4) Uani 1 1 d . . . . .
C2 C 0.7947(3) 0.4227(2) 0.23645(15) 0.0301(4) Uani 1 1 d . . . . .
C3 C 0.7585(3) 0.5540(3) 0.16729(16) 0.0360(4) Uani 1 1 d . . . . .
H3 H 0.729662 0.670610 0.187593 0.043 Uiso 1 1 calc R U . . .
C4 C 0.7651(3) 0.5125(3) 0.06846(17) 0.0412(5) Uani 1 1 d . . . . .
H4 H 0.739640 0.600493 0.020191 0.049 Uiso 1 1 calc R U . . .
C5 C 0.8097(3) 0.3397(3) 0.04031(16) 0.0387(5) Uani 1 1 d . . . . .
C6 C 0.8486(3) 0.2071(3) 0.10735(15) 0.0343(4) Uani 1 1 d . . . . .
H6 H 0.880351 0.090391 0.086171 0.041 Uiso 1 1 calc R U . . .
C7 C 0.8400(3) 0.2494(2) 0.20672(15) 0.0302(4) Uani 1 1 d . . . . .
C8 C 0.8672(3) 0.1344(2) 0.29603(15) 0.0322(4) Uani 1 1 d . . . . .
H8A H 1.008217 0.046502 0.283408 0.039 Uiso 1 1 calc R U . . .
H8B H 0.767014 0.074624 0.310826 0.039 Uiso 1 1 calc R U . . .
C9 C 0.8278(3) 0.2609(2) 0.38199(15) 0.0296(4) Uani 1 1 d . . . . .
C10 C 0.8241(3) 0.2351(2) 0.48438(15) 0.0315(4) Uani 1 1 d . . . . .
H10 H 0.848723 0.123373 0.511994 0.038 Uiso 1 1 calc R U . . .
C11 C 0.7825(3) 0.3809(2) 0.54453(15) 0.0290(4) Uani 1 1 d . . . . .
C12 C 0.7690(3) 0.3990(2) 0.65648(15) 0.0320(4) Uani 1 1 d . . . . .
H12A H 0.902192 0.332332 0.672834 0.038 Uiso 1 1 calc R U . . .
H12B H 0.661319 0.359402 0.698769 0.038 Uiso 1 1 calc R U . . .
C13 C 0.7133(3) 0.5919(2) 0.67230(15) 0.0295(4) Uani 1 1 d . . . . .
C14 C 0.6740(3) 0.6876(2) 0.76147(15) 0.0317(4) Uani 1 1 d . . . . .
H14 H 0.681572 0.632675 0.824576 0.038 Uiso 1 1 calc R U . . .
C15 C 0.6233(3) 0.8658(3) 0.75538(15) 0.0323(4) Uani 1 1 d . . . . .
C16 C 0.6150(3) 0.9498(2) 0.66381(16) 0.0333(4) Uani 1 1 d . . . . .
H16 H 0.580542 1.072105 0.662295 0.040 Uiso 1 1 calc R U . . .
C17 C 0.6577(3) 0.8528(2) 0.57439(15) 0.0313(4) Uani 1 1 d . . . . .
H17 H 0.655504 0.907363 0.510932 0.038 Uiso 1 1 calc R U . . .
C18 C 0.7037(3) 0.6742(2) 0.57974(14) 0.0277(4) Uani 1 1 d . . . . .
C19 C 0.7458(3) 0.5432(2) 0.49998(15) 0.0281(4) Uani 1 1 d . . . . .
loop_
_atom_site_aniso_label
_atom_site_aniso_U_11
_atom_site_aniso_U_22
_atom_site_aniso_U_33
_atom_site_aniso_U_23
_atom_site_aniso_U_13
_atom_site_aniso_U_12
Cl1 0.0724(4) 0.0479(3) 0.0390(3) -0.0076(2) -0.0222(3) -0.0195(3)
Cl2 0.0515(3) 0.0386(3) 0.0383(3) -0.0138(2) -0.0095(2) -0.0136(2)
N1 0.0257(8) 0.0274(8) 0.0333(8) -0.0062(6) -0.0067(6) -0.0083(6)
C1 0.0216(8) 0.0299(9) 0.0340(9) -0.0065(7) -0.0061(7) -0.0092(7)
C2 0.0240(9) 0.0311(9) 0.0354(10) -0.0082(8) -0.0067(7) -0.0091(7)
C3 0.0379(10) 0.0303(9) 0.0376(10) -0.0057(8) -0.0099(8) -0.0084(8)
C4 0.0477(12) 0.0364(11) 0.0378(11) -0.0029(8) -0.0136(9) -0.0106(9)
C5 0.0381(11) 0.0435(11) 0.0342(10) -0.0099(9) -0.0098(9) -0.0124(9)
C6 0.0304(10) 0.0344(10) 0.0382(10) -0.0104(8) -0.0064(8) -0.0113(8)
C7 0.0236(9) 0.0320(9) 0.0354(10) -0.0077(8) -0.0064(7) -0.0100(7)
C8 0.0305(9) 0.0302(9) 0.0372(10) -0.0079(8) -0.0064(8) -0.0123(7)
C9 0.0231(8) 0.0295(9) 0.0365(10) -0.0072(7) -0.0047(7) -0.0102(7)
C10 0.0292(9) 0.0284(9) 0.0371(10) -0.0033(8) -0.0060(8) -0.0111(7)
C11 0.0235(9) 0.0301(9) 0.0331(10) -0.0044(7) -0.0044(7) -0.0101(7)
C12 0.0333(10) 0.0284(9) 0.0332(9) -0.0034(7) -0.0051(8) -0.0111(7)
C13 0.0238(9) 0.0304(9) 0.0342(9) -0.0049(7) -0.0058(7) -0.0098(7)
C14 0.0292(9) 0.0329(10) 0.0321(9) -0.0038(8) -0.0062(8) -0.0103(8)
C15 0.0278(9) 0.0342(10) 0.0357(10) -0.0099(8) -0.0061(8) -0.0114(7)
C16 0.0308(10) 0.0278(9) 0.0412(11) -0.0067(8) -0.0090(8) -0.0094(7)
C17 0.0290(9) 0.0294(9) 0.0357(10) -0.0044(8) -0.0079(8) -0.0102(7)
C18 0.0218(8) 0.0288(9) 0.0329(9) -0.0040(7) -0.0072(7) -0.0084(7)
C19 0.0217(9) 0.0266(9) 0.0361(10) -0.0040(7) -0.0056(7) -0.0092(7)
loop_
_atom_type_symbol
_atom_type_description
_atom_type_scat_dispersion_real
_atom_type_scat_dispersion_imag
_atom_type_scat_source
C C 0.0181 0.0091 'International Tables Vol C Tables 4.2.6.8 and 6.1.1.4'
H H 0.0000 0.0000 'International Tables Vol C Tables 4.2.6.8 and 6.1.1.4'
Cl Cl 0.3639 0.7018 'International Tables Vol C Tables 4.2.6.8 and 6.1.1.4'
N N 0.0311 0.0180 'International Tables Vol C Tables 4.2.6.8 and 6.1.1.4'
loop_
_geom_angle_atom_site_label_1
_geom_angle_atom_site_label_2
_geom_angle_atom_site_label_3
_geom_angle
_geom_angle_site_symmetry_1
_geom_angle_site_symmetry_3
_geom_angle_publ_flag
C19 N1 C1 113.26(16) . . ?
N1 C1 C9 125.54(18) . . ?
N1 C1 C2 125.67(17) . . ?
C9 C1 C2 108.78(16) . . ?
C3 C2 C7 120.85(18) . . ?
C3 C2 C1 130.85(17) . . ?
C7 C2 C1 108.25(17) . . ?
C4 C3 C2 119.04(18) . . ?
C4 C3 H3 120.5 . . ?
C2 C3 H3 120.5 . . ?
C3 C4 C5 119.3(2) . . ?
C3 C4 H4 120.3 . . ?
C5 C4 H4 120.3 . . ?
C6 C5 C4 122.56(19) . . ?
C6 C5 Cl1 118.54(16) . . ?
C4 C5 Cl1 118.90(17) . . ?
C5 C6 C7 117.97(18) . . ?
C5 C6 H6 121.0 . . ?
C7 C6 H6 121.0 . . ?
C6 C7 C2 120.23(19) . . ?
C6 C7 C8 129.47(17) . . ?
C2 C7 C8 110.27(16) . . ?
C7 C8 C9 102.91(15) . . ?
C7 C8 H8A 111.2 . . ?
C9 C8 H8A 111.2 . . ?
C7 C8 H8B 111.2 . . ?
C9 C8 H8B 111.2 . . ?
H8A C8 H8B 109.1 . . ?
C10 C9 C1 119.42(18) . . ?
C10 C9 C8 130.81(18) . . ?
C1 C9 C8 109.76(17) . . ?
C9 C10 C11 116.60(18) . . ?
C9 C10 H10 121.7 . . ?
C11 C10 H10 121.7 . . ?
C10 C11 C19 119.36(18) . . ?
C10 C11 C12 130.38(18) . . ?
C19 C11 C12 110.26(16) . . ?
C11 C12 C13 102.62(15) . . ?
C11 C12 H12A 111.2 . . ?
C13 C12 H12A 111.2 . . ?
C11 C12 H12B 111.2 . . ?
C13 C12 H12B 111.2 . . ?
H12A C12 H12B 109.2 . . ?
C14 C13 C18 120.47(17) . . ?
C14 C13 C12 129.34(18) . . ?
C18 C13 C12 110.19(16) . . ?
C15 C14 C13 117.85(19) . . ?
C15 C14 H14 121.1 . . ?
C13 C14 H14 121.1 . . ?
C14 C15 C16 122.54(18) . . ?
C14 C15 Cl2 118.50(16) . . ?
C16 C15 Cl2 118.96(15) . . ?
C15 C16 C17 119.30(18) . . ?
C15 C16 H16 120.3 . . ?
C17 C16 H16 120.3 . . ?
C18 C17 C16 118.81(18) . . ?
C18 C17 H17 120.6 . . ?
C16 C17 H17 120.6 . . ?
C17 C18 C13 121.00(18) . . ?
C17 C18 C19 130.42(18) . . ?
C13 C18 C19 108.58(16) . . ?
N1 C19 C11 125.81(17) . . ?
N1 C19 C18 125.87(17) . . ?
C11 C19 C18 108.32(17) . . ?
loop_
_geom_bond_atom_site_label_1
_geom_bond_atom_site_label_2
_geom_bond_distance
_geom_bond_site_symmetry_2
_geom_bond_publ_flag
Cl1 C5 1.744(2) . ?
Cl2 C15 1.739(2) . ?
N1 C19 1.344(2) . ?
N1 C1 1.346(2) . ?
C1 C9 1.407(3) . ?
C1 C2 1.464(3) . ?
C2 C3 1.390(3) . ?
C2 C7 1.406(3) . ?
C3 C4 1.383(3) . ?
C3 H3 0.9500 . ?
C4 C5 1.398(3) . ?
C4 H4 0.9500 . ?
C5 C6 1.379(3) . ?
C6 C7 1.388(3) . ?
C6 H6 0.9500 . ?
C7 C8 1.505(3) . ?
C8 C9 1.509(3) . ?
C8 H8A 0.9900 . ?
C8 H8B 0.9900 . ?
C9 C10 1.386(3) . ?
C10 C11 1.388(3) . ?
C10 H10 0.9500 . ?
C11 C19 1.403(3) . ?
C11 C12 1.506(3) . ?
C12 C13 1.510(2) . ?
C12 H12A 0.9900 . ?
C12 H12B 0.9900 . ?
C13 C14 1.390(3) . ?
C13 C18 1.398(3) . ?
C14 C15 1.387(3) . ?
C14 H14 0.9500 . ?
C15 C16 1.392(3) . ?
C16 C17 1.394(3) . ?
C16 H16 0.9500 . ?
C17 C18 1.393(3) . ?
C17 H17 0.9500 . ?
C18 C19 1.467(3) . ?
loop_
_geom_torsion_atom_site_label_1
_geom_torsion_atom_site_label_2
_geom_torsion_atom_site_label_3
_geom_torsion_atom_site_label_4
_geom_torsion
_geom_torsion_site_symmetry_1
_geom_torsion_site_symmetry_2
_geom_torsion_site_symmetry_3
_geom_torsion_site_symmetry_4
_geom_torsion_publ_flag
C19 N1 C1 C9 0.3(2) . . . . ?
C19 N1 C1 C2 178.82(16) . . . . ?
N1 C1 C2 C3 -1.3(3) . . . . ?
C9 C1 C2 C3 177.37(19) . . . . ?
N1 C1 C2 C7 -178.97(16) . . . . ?
C9 C1 C2 C7 -0.2(2) . . . . ?
C7 C2 C3 C4 0.8(3) . . . . ?
C1 C2 C3 C4 -176.60(19) . . . . ?
C2 C3 C4 C5 -0.5(3) . . . . ?
C3 C4 C5 C6 -0.3(3) . . . . ?
C3 C4 C5 Cl1 179.30(16) . . . . ?
C4 C5 C6 C7 0.9(3) . . . . ?
Cl1 C5 C6 C7 -178.72(14) . . . . ?
C5 C6 C7 C2 -0.6(3) . . . . ?
C5 C6 C7 C8 177.45(18) . . . . ?
C3 C2 C7 C6 -0.2(3) . . . . ?
C1 C2 C7 C6 177.73(15) . . . . ?
C3 C2 C7 C8 -178.60(16) . . . . ?
C1 C2 C7 C8 -0.7(2) . . . . ?
C6 C7 C8 C9 -176.95(17) . . . . ?
C2 C7 C8 C9 1.28(19) . . . . ?
N1 C1 C9 C10 0.4(3) . . . . ?
C2 C1 C9 C10 -178.30(16) . . . . ?
N1 C1 C9 C8 179.81(16) . . . . ?
C2 C1 C9 C8 1.1(2) . . . . ?
C7 C8 C9 C10 177.87(18) . . . . ?
C7 C8 C9 C1 -1.43(19) . . . . ?
C1 C9 C10 C11 -0.8(3) . . . . ?
C8 C9 C10 C11 179.99(17) . . . . ?
C9 C10 C11 C19 0.4(3) . . . . ?
C9 C10 C11 C12 -179.34(18) . . . . ?
C10 C11 C12 C13 -178.45(18) . . . . ?
C19 C11 C12 C13 1.75(19) . . . . ?
C11 C12 C13 C14 177.91(18) . . . . ?
C11 C12 C13 C18 -2.05(19) . . . . ?
C18 C13 C14 C15 0.7(3) . . . . ?
C12 C13 C14 C15 -179.26(17) . . . . ?
C13 C14 C15 C16 -1.4(3) . . . . ?
C13 C14 C15 Cl2 179.12(13) . . . . ?
C14 C15 C16 C17 0.4(3) . . . . ?
Cl2 C15 C16 C17 179.91(14) . . . . ?
C15 C16 C17 C18 1.2(3) . . . . ?
C16 C17 C18 C13 -1.9(3) . . . . ?
C16 C17 C18 C19 177.18(17) . . . . ?
C14 C13 C18 C17 0.9(3) . . . . ?
C12 C13 C18 C17 -179.11(16) . . . . ?
C14 C13 C18 C19 -178.34(15) . . . . ?
C12 C13 C18 C19 1.6(2) . . . . ?
C1 N1 C19 C11 -0.7(3) . . . . ?
C1 N1 C19 C18 -179.48(15) . . . . ?
C10 C11 C19 N1 0.3(3) . . . . ?
C12 C11 C19 N1 -179.85(16) . . . . ?
C10 C11 C19 C18 179.30(15) . . . . ?
C12 C11 C19 C18 -0.9(2) . . . . ?
C17 C18 C19 N1 -0.7(3) . . . . ?
C13 C18 C19 N1 178.50(16) . . . . ?
C17 C18 C19 C11 -179.64(18) . . . . ?
C13 C18 C19 C11 -0.5(2) . . . . ?
