#------------------------------------------------------------------------------
#$Date: 2022-01-06 23:13:27 +0200 (Thu, 06 Jan 2022) $
#$Revision: 271832 $
#$URL: file:///home/coder/svn-repositories/cod/cif/7/24/37/7243724.cif $
#------------------------------------------------------------------------------
#
# This file is available in the Crystallography Open Database (COD),
# http://www.crystallography.net/
#
# All data on this site have been placed in the public domain by the
# contributors.
#
data_7243724
loop_
_publ_author_name
'Liu, Ying-Hsuan'
'Dadvand, Afshin'
'Titi, Hatem M.'
'Hamzehpoor, Ehsan'
'Perepichka, Dmitrii F.'
_publ_section_title
;
 Halogen bonding vs. \p-stacking interactions in new
 bis(acenaphthylene)dione semiconductors
;
_journal_issue                   47
_journal_name_full               CrystEngComm
_journal_page_first              8255
_journal_page_last               8259
_journal_paper_doi               10.1039/D1CE01047F
_journal_volume                  23
_journal_year                    2021
_chemical_formula_sum            'C24 H12 O2'
_chemical_formula_weight         332.34
_chemical_name_systematic
(E)-2H,2'H-[1,1'-biacenaphthylenylidene]-2,2'-dione
_space_group_crystal_system      monoclinic
_space_group_IT_number           14
_space_group_name_Hall           '-P 2ybc'
_space_group_name_H-M_alt        'P 1 21/c 1'
_atom_sites_solution_hydrogens   geom
_atom_sites_solution_primary     iterative
_atom_sites_solution_secondary   difmap
_audit_creation_method           SHELXL-2017/1
_audit_update_record
;
2021-08-03 deposited with the CCDC.	2021-09-28 downloaded from the CCDC.
;
_cell_angle_alpha                90
_cell_angle_beta                 94.395(5)
_cell_angle_gamma                90
_cell_formula_units_Z            2
_cell_length_a                   3.8029(3)
_cell_length_b                   13.8237(10)
_cell_length_c                   14.1694(10)
_cell_measurement_reflns_used    1071
_cell_measurement_temperature    173(2)
_cell_measurement_theta_max      72.488
_cell_measurement_theta_min      4.475
_cell_volume                     742.70(10)
_computing_cell_refinement       'Bruker SAINT'
_computing_data_collection       'Bruker APEX3'
_computing_data_reduction        'Bruker SAINT'
_computing_structure_refinement  'SHELXL-2017/1 (Sheldrick, 2017)'
_computing_structure_solution    'SHELXT 2014/5 (Sheldrick, 2014)'
_diffrn_ambient_temperature      173(2)
_diffrn_measured_fraction_theta_full 0.999
_diffrn_measured_fraction_theta_max 0.995
_diffrn_measurement_device_type  'Bruker AXS D8'
_diffrn_measurement_method       '\f and \w scans'
_diffrn_radiation_type           CuK\a
_diffrn_radiation_wavelength     1.54178
_diffrn_reflns_av_R_equivalents  0.0928
_diffrn_reflns_av_unetI/netI     0.0501
_diffrn_reflns_Laue_measured_fraction_full 0.999
_diffrn_reflns_Laue_measured_fraction_max 0.995
_diffrn_reflns_limit_h_max       4
_diffrn_reflns_limit_h_min       -4
_diffrn_reflns_limit_k_max       17
_diffrn_reflns_limit_k_min       -17
_diffrn_reflns_limit_l_max       17
_diffrn_reflns_limit_l_min       -17
_diffrn_reflns_number            10769
_diffrn_reflns_point_group_measured_fraction_full 0.999
_diffrn_reflns_point_group_measured_fraction_max 0.995
_diffrn_reflns_theta_full        67.679
_diffrn_reflns_theta_max         72.488
_diffrn_reflns_theta_min         4.475
_exptl_absorpt_coefficient_mu    0.747
_exptl_absorpt_correction_type   multi-scan
_exptl_absorpt_process_details   'Bruker AXScale'
_exptl_crystal_colour            orange
_exptl_crystal_density_diffrn    1.486
_exptl_crystal_density_method    'not measured'
_exptl_crystal_description       needle
_exptl_crystal_F_000             344
_exptl_crystal_size_max          0.400
_exptl_crystal_size_mid          0.050
_exptl_crystal_size_min          0.030
_exptl_transmission_factor_max   0.7536
_exptl_transmission_factor_min   0.5865
_refine_diff_density_max         0.207
_refine_diff_density_min         -0.189
_refine_diff_density_rms         0.050
_refine_ls_extinction_method     none
_refine_ls_goodness_of_fit_ref   1.045
_refine_ls_hydrogen_treatment    constr
_refine_ls_matrix_type           full
_refine_ls_number_parameters     118
_refine_ls_number_reflns         1475
_refine_ls_number_restraints     0
_refine_ls_restrained_S_all      1.045
_refine_ls_R_factor_all          0.0750
_refine_ls_R_factor_gt           0.0519
_refine_ls_shift/su_max          0.000
_refine_ls_shift/su_mean         0.000
_refine_ls_structure_factor_coef Fsqd
_refine_ls_weighting_details
'w=1/[\s^2^(Fo^2^)+(0.0413P)^2^+0.6197P] where P=(Fo^2^+2Fc^2^)/3'
_refine_ls_weighting_scheme      calc
_refine_ls_wR_factor_gt          0.1190
_refine_ls_wR_factor_ref         0.1407
_reflns_Friedel_coverage         0.000
_reflns_number_gt                1071
_reflns_number_total             1475
_reflns_threshold_expression     'I > 2\s(I)'
_cod_data_source_file            d1ce01047f2.cif
_cod_data_source_block           s1_CCDC1
_cod_depositor_comments
'Adding full bibliography for 7243723--7243725.cif.'
_cod_original_sg_symbol_H-M      'P 21/c'
_cod_database_code               7243724
_shelx_shelxl_version_number     2017/1
_shelx_space_group_comment
;
The symmetry employed for this shelxl refinement is uniquely defined
by the following loop, which should always be used as a source of
symmetry information in preference to the above space-group names.
They are only intended as comments.
;
_shelx_estimated_absorpt_t_min   0.754
_shelx_estimated_absorpt_t_max   0.978
_shelx_res_file
;
TITL s1_a.res in P2(1)/c
    s1.res
    created by SHELXL-2017/1 at 19:33:56 on 19-Feb-2020
REM Old TITL s1 in P2(1)/c

REM SHELXT solution in P2(1)/c
REM R1 0.145,  Rweak 0.001,  Alpha 0.022,  Orientation as input
REM Formula found by SHELXT:  C12 O

CELL  1.54178   3.8029  13.8237  14.1694   90.000   94.395   90.000
ZERR    2.000   0.0003   0.0010   0.0010    0.000    0.005    0.000
LATT  1
SYMM -X, 1/2+Y, 1/2-Z
SFAC C H O
UNIT 48 24 4
TEMP -100
SIZE 0.4 0.05 0.03
ACTA
L.S. 10
BOND $H
FMAP 2
PLAN 20
WGHT    0.041300    0.619700
FVAR       1.03923
C1    1    0.512860    0.545358    0.481490    11.00000    0.02651    0.03306 =
         0.03377    0.00107    0.00555   -0.00033
C2    1    0.399109    0.637011    0.531245    11.00000    0.03367    0.03542 =
         0.03626   -0.00008    0.00562    0.00259
C3    1    0.486414    0.720775    0.472863    11.00000    0.03042    0.03292 =
         0.04063    0.00028    0.00158    0.00174
C4    1    0.446345    0.818132    0.484650    11.00000    0.04196    0.03517 =
         0.04554   -0.00283    0.00278    0.00256
AFIX  43
H4    2    0.356089    0.843577    0.540201    11.00000   -1.20000
AFIX   0
C5    1    0.543267    0.879464    0.411735    11.00000    0.04428    0.03191 =
         0.05550    0.00390    0.00157    0.00016
AFIX  43
H5    2    0.518461    0.947395    0.418898    11.00000   -1.20000
AFIX   0
C6    1    0.672842    0.844296    0.330363    11.00000    0.04007    0.03654 =
         0.04859    0.00826    0.00215   -0.00420
AFIX  43
H6    2    0.733869    0.888072    0.282583    11.00000   -1.20000
AFIX   0
C7    1    0.716004    0.743903    0.317156    11.00000    0.02827    0.03515 =
         0.04070    0.00660   -0.00009   -0.00411
C8    1    0.620999    0.683355    0.390459    11.00000    0.02549    0.03199 =
         0.03405    0.00296    0.00118   -0.00044
C9    1    0.842920    0.697601    0.237105    11.00000    0.03382    0.04490 =
         0.03716    0.00804    0.00698   -0.00419
AFIX  43
H9    2    0.911314    0.734611    0.185067    11.00000   -1.20000
AFIX   0
C10   1    0.770587    0.539360    0.311593    11.00000    0.03497    0.03528 =
         0.03772    0.00144    0.00781   -0.00182
AFIX  43
H10   2    0.794537    0.471111    0.307533    11.00000   -1.20000
AFIX   0
C11   1    0.865245    0.599017    0.236013    11.00000    0.03670    0.04400 =
         0.03702    0.00121    0.00923   -0.00172
AFIX  43
H11   2    0.948526    0.568752    0.181809    11.00000   -1.20000
AFIX   0
C12   1    0.643936    0.580492    0.390857    11.00000    0.02490    0.03242 =
         0.03151    0.00080    0.00309   -0.00073
O1    3    0.250315    0.643290    0.604104    11.00000    0.07554    0.03747 =
         0.04812    0.00068    0.02776    0.00791
HKLF 4




REM  s1_a.res in P2(1)/c
REM R1 =  0.0519 for    1071 Fo > 4sig(Fo)  and  0.0750 for all    1475 data
REM    118 parameters refined using      0 restraints

END

WGHT      0.0408      0.5976

REM Highest difference peak  0.207,  deepest hole -0.189,  1-sigma level  0.050
Q1    1   0.7621  0.4343  0.3415  11.00000  0.05    0.21
Q2    1   0.2147  0.7387  0.5999  11.00000  0.05    0.21
Q3    1   0.6188  0.6411  0.3859  11.00000  0.05    0.20
Q4    1   0.5171  0.7021  0.4183  11.00000  0.05    0.18
Q5    1   0.9545  0.4252  0.3602  11.00000  0.05    0.17
Q6    1   1.0000  0.5000  0.5000  10.50000  0.05    0.17
Q7    1   0.5672  0.7194  0.3387  11.00000  0.05    0.16
Q8    1   0.5320  0.4813  0.4589  11.00000  0.05    0.16
Q9    1   1.0642  0.8194  0.2521  11.00000  0.05    0.16
Q10   1   0.4885  0.7542  0.4795  11.00000  0.05    0.15
Q11   1   1.1769  0.5136  0.2784  11.00000  0.05    0.15
Q12   1   0.7361  0.4531  0.2549  11.00000  0.05    0.15
Q13   1   0.6544  0.4955  0.3874  11.00000  0.05    0.15
Q14   1   0.6030  0.6991  0.3594  11.00000  0.05    0.14
Q15   1   1.1243  0.7371  0.2068  11.00000  0.05    0.14
Q16   1   0.8826  0.7762  0.2082  11.00000  0.05    0.14
Q17   1  -0.0664  0.5798  0.5820  11.00000  0.05    0.14
Q18   1   0.7120  1.0006  0.2985  11.00000  0.05    0.14
Q19   1   0.3679  0.5792  0.5514  11.00000  0.05    0.14
Q20   1   0.6601  1.0402  0.3991  11.00000  0.05    0.14
;
_shelx_res_checksum              10739
_shelx_hkl_file
;
  -1   0   0 9151.48  554.94
  -2   0   0   34.40    7.30
  -2   0   0   25.10    6.10
  -3   0   0   96.59   11.60
  -3   0   0   85.09   14.00
  -3   0   0   83.89   11.80
  -3   0   0   75.39   11.90
  -3   0   0   55.89   12.50
  -4   0   0   -0.80    2.60
  -4   0   0    1.10    3.50
   0  -1   0    0.00    0.30
   0   1   0   -0.10    0.40
   0   1   0   -0.20    0.40
  -1  -1   0 2063.79  128.99
  -1  -1   0 2009.00  129.59
   1  -1   0 2200.08  126.49
  -1   1   0 2214.38  129.49
  -1   1   0 1962.20  130.29
  -2  -1   0    3.30    3.00
  -2  -1   0    2.20    2.60
   2   1   0    0.60    1.70
  -2   1   0    5.90    3.70
  -2   1   0    5.70    3.50
   2   1   0    2.70    1.10
  -3  -1   0    0.20    3.40
  -3  -1   0   -2.00    3.80
  -3  -1   0   -1.70    3.20
  -3  -1   0   -1.90    3.70
  -3  -1   0   -1.10    6.10
  -3   1   0    3.60    4.90
  -3   1   0   -2.90    3.90
  -3   1   0    0.60    2.70
  -3   1   0    1.10    3.10
  -3   1   0    0.00    3.60
  -4  -1   0   30.80    7.00
  -4  -1   0   19.80    4.80
  -4   1   0   31.60    7.20
  -4   1   0   36.60    6.90
   0  -2   0 1880.71  111.59
   0   2   0 1614.74  111.49
   0   2   0 1974.30  110.89
  -1  -2   0  358.26   26.10
   1  -2   0  380.26   23.20
  -1  -2   0  375.66   25.50
  -1   2   0  382.66   26.20
  -1   2   0  364.96   27.60
  -1   2   0  380.06   23.60
  -2  -2   0    2.30    2.80
  -2  -2   0    1.00    3.00
   2   2   0    2.10    1.40
  -2   2   0    3.30    3.30
  -3  -2   0    9.20    4.30
  -3  -2   0    9.20    4.50
  -3  -2   0   -5.60    5.30
  -3  -2   0    6.70    5.30
  -3   2   0    0.60    5.70
  -3   2   0   10.10    4.30
  -3   2   0    8.70    5.30
  -3   2   0    5.90    4.30
  -3   2   0    4.10    4.50
  -4  -2   0    1.10    3.10
  -4  -2   0    5.60    9.00
  -4  -2   0   -0.10    2.80
  -4   2   0    3.40    3.40
  -4   2   0    5.30    3.20
  -4   2   0   -1.40    3.30
   0  -3   0    0.50    1.10
   0   3   0   -0.10    1.20
   0   3   0    0.60    1.00
  -1  -3   0   13.00    3.10
  -1  -3   0   11.30    3.30
   1   3   0    8.90    2.10
  -1   3   0   13.90    2.30
  -2  -3   0    8.40    3.80
  -2  -3   0    5.40    3.70
   2   3   0    6.90    2.20
  -2   3   0    6.60    3.80
  -3  -3   0  111.49   14.60
  -3  -3   0   94.59   12.20
  -3  -3   0   99.99   14.70
  -3  -3   0   81.19   11.60
  -3   3   0   90.59   11.60
  -3   3   0   81.69   16.70
  -3   3   0   82.39   11.30
  -3   3   0   95.89   12.20
  -4  -3   0   12.20    4.00
  -4  -3   0    7.80    4.00
  -4   3   0   17.50    4.60
  -4   3   0   11.30    4.50
   0   4   0 1608.34   89.39
   0   4   0 1290.17   90.39
  -1  -4   0  169.98   13.40
   1   4   0  182.68   13.20
  -1   4   0  174.28   12.50
  -2  -4   0    4.10    2.80
  -2  -4   0    2.40    3.00
  -2   4   0    3.40    3.80
  -2   4   0    2.70    3.50
  -2   4   0   -1.40    2.50
   2   4   0    1.70    2.00
  -3  -4   0   56.49   11.40
  -3  -4   0   43.50    8.20
  -3  -4   0   27.20    7.40
  -3   4   0   59.49    9.50
  -3   4   0   39.20    8.40
   3   4   0   51.69   14.30
  -3   4   0   47.60    8.50
  -4  -4   0  111.89   12.00
  -4  -4   0  132.49   12.80
   4  -4   0  104.89   13.60
  -4   4   0  115.59   12.60
   0  -5   0    0.20    0.90
   0   5   0   -0.30    1.30
  -1  -5   0 1385.36   89.09
   1   5   0 1472.85   89.49
  -2  -5   0   15.10    5.60
  -2  -5   0   13.00    4.30
  -2  -5   0   15.60    5.10
  -2  -5   0   12.00    5.20
  -2  -5   0   10.00    4.30
  -2  -5   0    2.20    4.10
  -2   5   0   13.30    5.40
  -2   5   0   24.00    6.10
  -2   5   0   10.10    5.20
   2   5   0   15.00    3.80
  -2   5   0   17.30    4.90
  -3  -5   0   32.00    6.60
  -3  -5   0   28.30    5.90
  -3  -5   0   31.90    9.10
  -3  -5   0   44.40    7.80
  -3  -5   0   22.50    6.60
  -3  -5   0   46.40    8.50
  -3   5   0   43.70    9.30
  -3   5   0   19.80    8.20
  -3   5   0   41.90    7.50
   4  -5   0    0.20    3.80
  -4  -5   0    1.70    3.30
  -4  -5   0   -0.20    2.80
  -4   5   0   -0.70    3.10
  -4   5   0   13.10    4.70
  -4   5   0   12.50    5.40
  -4   5   0    3.80    3.50
   0  -6   0   66.59    5.40
   0   6   0   71.19    7.30
  -1  -6   0  145.99   11.80
   1   6   0  161.68   13.00
  -1   6   0  141.29   11.90
  -2  -6   0    1.20    6.80
  -2  -6   0    2.50    3.40
  -2  -6   0   -2.30    3.90
  -2  -6   0    4.30    3.70
  -2  -6   0    2.80    4.60
  -2  -6   0    3.20    3.50
  -2   6   0    4.00    4.30
  -2   6   0    1.20    3.40
  -2   6   0    4.80    3.90
  -2   6   0    5.40    3.70
   2   6   0    5.70    3.70
  -3  -6   0    0.60    3.70
  -3  -6   0    2.30    3.00
  -3  -6   0    7.60    4.20
  -3  -6   0   -2.10    3.90
  -3  -6   0   -1.90    3.30
  -3   6   0   16.50    5.40
  -3   6   0   12.30    5.60
  -3   6   0    3.60    8.10
  -3   6   0    3.40    3.30
  -3   6   0    6.40    5.80
  -4  -6   0    0.30    3.60
  -4  -6   0    6.20    3.60
   4  -6   0   13.00    3.80
  -4   6   0    4.30    4.50
  -4   6   0    7.10    3.60
  -4   6   0    4.10    3.30
  -4   6   0    4.30    2.70
   0  -7   0   -0.90    0.90
   0   7   0    1.50    1.90
  -1  -7   0    2.80    2.10
  -1   7   0   -1.10    1.80
   1   7   0    0.30    1.50
  -2  -7   0   -5.80    4.70
  -2  -7   0   -1.50    4.00
  -2  -7   0   -3.80    5.00
  -2  -7   0   -0.50    2.70
  -2  -7   0   -1.90    4.10
  -2  -7   0    6.10   11.60
   2  -7   0    8.00    6.90
  -2   7   0    2.20    3.30
  -2   7   0   -3.10    3.10
  -2   7   0   -4.70    3.70
  -2   7   0   -0.30    4.00
  -3  -7   0    4.20    5.20
   3  -7   0    1.90   12.00
   3  -7   0    6.40    4.60
  -3  -7   0    4.30    2.90
  -3  -7   0   14.60    5.40
  -3   7   0   13.20    5.50
  -3   7   0    5.30    4.00
  -3   7   0   10.90    6.40
  -3   7   0   -2.00    9.90
  -4   7   0   10.40    5.30
  -4   7   0    1.30    2.60
  -4   7   0    4.40    3.00
   0   8   0    7.30    2.70
  -1  -8   0   19.60    5.50
   1  -8   0    4.30    8.50
  -1  -8   0   20.70    6.00
   1  -8   0    6.20    5.10
  -1  -8   0   18.50   11.50
  -1  -8   0   25.60    5.80
  -1  -8   0   15.80    6.20
  -1   8   0   16.40    6.10
   1   8   0   16.00    4.40
  -2  -8   0   31.40    6.50
   2  -8   0   48.10   12.20
  -2  -8   0   34.40    9.00
   2  -8   0   21.80    7.90
  -2  -8   0   58.79   10.90
  -2   8   0   35.10   10.60
  -2   8   0   53.49   10.10
  -2   8   0   36.70    9.40
  -2   8   0   60.79    9.20
  -3  -8   0    7.90    3.70
  -3  -8   0    2.80    2.90
   3  -8   0    3.60    4.10
   3  -8   0    3.30    7.40
  -3  -8   0    4.80    5.80
  -3  -8   0    0.10    4.80
  -3  -8   0    1.60    3.50
  -3   8   0   12.30    5.20
  -3   8   0   -4.90    3.90
  -3   8   0    1.10    4.10
  -3   8   0   10.30    4.60
   4  -8   0    8.20    3.10
  -4   8   0   10.50    2.80
   0  -9   0   -0.90    4.40
   0  -9   0   -3.60    3.10
   0  -9   0   -5.90    3.30
   0  -9   0   -2.20    6.00
   0  -9   0   -4.90    3.60
   0   9   0   -1.70    3.00
   0   9   0    1.50    2.30
  -1  -9   0  151.78   20.70
   1  -9   0  180.88   21.40
  -1  -9   0  187.48   19.30
   1  -9   0  159.68   18.60
   1  -9   0  210.38   24.80
   1  -9   0  131.29   19.10
  -1  -9   0  185.28   17.60
  -1  -9   0  186.78   16.80
  -1  -9   0  207.58   23.50
   1   9   0  191.58   17.80
  -1   9   0  196.18   17.60
  -1   9   0  190.18   16.90
  -2  -9   0   -1.40    4.70
   2  -9   0   -3.20    3.50
  -2  -9   0    1.70    2.50
  -2  -9   0   -6.20    2.80
   2  -9   0    0.50    6.90
  -2  -9   0   -2.30    5.30
  -2  -9   0    0.00    3.90
  -2   9   0    0.00    3.50
  -2   9   0   -0.40    6.30
  -2   9   0   -5.00    2.70
  -3  -9   0   51.39    7.50
   3  -9   0   40.70    8.90
  -3  -9   0   54.39    8.60
  -3   9   0   43.10    8.70
  -3   9   0   51.89    7.80
   0 -10   0  177.98   23.90
   0 -10   0  206.78   17.90
   0 -10   0  212.28   20.30
   0 -10   0  216.58   21.80
   0 -10   0  246.78   27.30
   0 -10   0  204.48   19.30
   0  10   0  180.18   19.50
   0  10   0  192.88   17.20
  -1 -10   0  148.29   34.40
  -1 -10   0  125.19   17.00
   1 -10   0  127.49   18.20
  -1 -10   0   89.29   14.50
   1 -10   0   84.59   14.70
  -1 -10   0   61.79   14.70
  -1 -10   0   92.99   12.70
  -1  10   0   94.19   12.60
  -1  10   0   77.89   13.10
   1  10   0  113.99   10.80
  -2 -10   0   73.79   15.00
   2 -10   0   92.99   15.60
  -2 -10   0   99.09   12.50
  -2 -10   0   88.29   10.90
   2 -10   0   78.39   13.80
  -2 -10   0   99.79   13.70
  -2 -10   0   64.79   10.50
  -2  10   0   95.19   12.50
  -2  10   0  105.89   12.10
  -2  10   0  100.49   19.80
   3 -10   0   21.50    5.90
   3 -10   0   18.40    7.90
  -3 -10   0   30.50    5.60
  -3  10   0   20.90    5.90
   0 -11   0   -2.50    4.50
   0 -11   0   -2.50    3.40
   0 -11   0    0.10    3.50
   0 -11   0    3.20    6.20
   0 -11   0   -5.40    3.20
   0  11   0   -2.20    3.70
  -1 -11   0    0.90    5.00
  -1 -11   0   -3.10    2.50
  -1 -11   0   -0.50    4.00
   1 -11   0    2.90    4.90
  -1 -11   0   -2.10    3.70
   1 -11   0   -8.20    5.90
  -1 -11   0   -5.50    3.50
   1 -11   0   -1.00    3.80
   1 -11   0   -3.70    5.00
  -1 -11   0   -2.40    3.80
  -1 -11   0    0.70    4.50
  -1  11   0    2.40    3.30
  -1  11   0   -0.70    2.80
  -2 -11   0   88.09   18.30
   2 -11   0   78.29   15.20
  -2 -11   0   72.19   15.30
   2 -11   0   53.79   13.20
  -2 -11   0   89.59   12.70
  -2  11   0  106.29   16.40
  -2  11   0   87.49   11.10
   3 -11   0    0.30    4.10
  -3 -11   0   -9.70    6.70
   3 -11   0    1.70    2.10
  -3 -11   0    3.10    2.30
  -3 -11   0   -0.40    2.80
  -3  11   0    2.80    2.80
  -3  11   0   -5.60    3.80
   0 -12   0   37.50    7.40
   0 -12   0   46.20    9.20
   0 -12   0   46.70   13.10
   0 -12   0   40.40   11.70
   0 -12   0   43.90    7.30
   0 -12   0   47.70   10.40
   0  12   0   51.49    7.50
  -1 -12   0   26.30    7.30
   1 -12   0   23.40    6.40
  -1 -12   0   20.80    6.10
  -1 -12   0    9.70    6.50
  -1 -12   0   21.80    7.00
   1 -12   0   25.40    9.00
  -1 -12   0   15.30    4.50
   1 -12   0   17.50    8.80
  -1 -12   0   24.50   10.20
  -1  12   0   25.30    6.10
  -1  12   0   25.30    6.20
  -2 -12   0   61.39    8.70
  -2 -12   0   68.39   10.20
   2 -12   0   56.19    9.10
   2 -12   0   64.69   13.00
   2 -12   0   80.69   12.30
  -2  12   0   65.29    9.90
  -2  12   0   75.19    9.80
  -3 -12   0  210.48   15.50
   3 -12   0  231.58   17.70
   3 -12   0  185.08   15.10
  -3 -12   0  180.28   15.70
  -3  12   0  186.18   16.60
   0 -13   0    0.90    3.60
   0 -13   0    2.90    4.70
   0 -13   0   -4.50    2.90
   0 -13   0    2.80    4.90
   1 -13   0  153.88   16.10
   1 -13   0  138.29   17.70
  -1 -13   0  131.09   15.80
  -1 -13   0  121.89   13.20
  -1 -13   0  115.59   18.90
   1 -13   0  132.39   18.80
  -1 -13   0  156.08   16.90
  -1 -13   0  131.69   20.20
  -1  13   0  118.59   13.70
  -1  13   0  165.38   34.00
  -1  13   0  129.59   14.30
  -2 -13   0    8.70    4.20
   2 -13   0   15.90    4.30
  -2 -13   0    7.50    5.40
   2 -13   0   22.40    7.50
   2 -13   0    6.50    3.90
  -2 -13   0   11.60    3.40
  -2  13   0   11.70    4.20
  -2  13   0   11.50    4.10
   3 -13   0   -4.00    1.90
  -3 -13   0   -3.50    1.60
  -3 -13   0    1.20    3.20
   0 -14   0    4.80    4.50
   0 -14   0    2.00    5.30
   0 -14   0    8.60    6.40
   0 -14   0    6.30    3.70
   0  14   0    2.30    3.20
   0  14   0    7.30    3.70
  -1 -14   0   -3.50    3.30
  -1 -14   0   -4.80    4.40
  -1 -14   0    4.30    3.80
  -1 -14   0   -3.10    3.10
   1 -14   0   -3.40    4.30
  -1 -14   0   -2.50    2.00
   1 -14   0   -3.10    2.10
  -1  14   0    1.30    2.30
  -1  14   0    0.20    2.30
   2 -14   0    9.10    4.30
   2 -14   0    0.50    2.60
  -2 -14   0    1.60    1.70
  -2 -14   0   -1.60    3.60
  -2 -14   0    2.30    3.00
  -2  14   0    0.20    2.00
  -2  14   0    2.20    2.40
   0 -15   0    0.50    3.50
   0 -15   0   -1.80    2.30
   0 -15   0   -4.20    2.70
   0 -15   0    2.50    3.00
   0  15   0    2.00    2.50
   0  15   0   -0.10    3.00
   1 -15   0   38.60    6.60
  -1 -15   0   13.60    4.20
   1 -15   0   21.80    6.60
  -1 -15   0   35.30    7.90
  -1 -15   0   23.60    4.70
  -1  15   0   18.50    4.40
  -1  15   0   19.60    4.50
   1  15   0   25.90    4.60
   2 -15   0    2.10    3.20
  -2 -15   0    1.60    2.20
  -2 -15   0   -1.30    1.50
   2 -15   0   -2.20    1.70
  -2  15   0    0.90    2.50
  -2  15   0    0.00    1.10
   0 -16   0    0.60    2.90
   0 -16   0   -5.90    2.70
   0  16   0    0.20    1.80
  -1 -16   0   14.80    4.60
  -1 -16   0    1.70    1.90
   1 -16   0    8.40    2.70
   1 -16   0    5.20    3.20
  -1 -16   0    6.70    2.10
  -1  16   0    3.60    2.30
   1  16   0    8.90    2.40
  -1  16   0   13.00    3.00
   0 -17   0   -1.20    1.90
   0  17   0    0.80    1.50
  -4   0   1    2.00    3.50
  -4   0   1    0.80    2.80
  -4   0   1    1.50    2.90
  -3   0   1    2.80    5.30
  -3   0   1    0.20    2.80
  -3   0   1    4.90    5.10
  -3   0   1   -4.40    4.70
  -3   0   1    0.50    3.10
  -2   0   1    1.40    3.10
  -2   0   1   -1.00    2.40
  -1   0   1   -0.30    1.90
  -1   0   1    0.20    1.70
   0   0   1   -0.10    0.60
   0   0  -1    1.00    0.50
   0   0  -1    0.30    0.70
   0   0   1    0.20    0.40
   0   0   1    0.30    0.60
   1   0   1    1.30    1.30
  -1   0  -1    0.50    2.30
  -1   0  -1    0.80    2.30
  -2   0  -1    3.70    3.10
   2   0   1    1.80    1.40
  -3   0  -1   -5.80    3.80
  -3   0  -1    1.10    3.60
  -3   0  -1   -0.40    6.00
  -3   0  -1   -1.80    3.40
  -4   0  -1    1.50    3.30
  -4   0  -1   -3.00    2.30
  -4  -1   1    5.40    3.30
  -4  -1   1    4.90    4.50
  -4   1   1    5.10    3.60
  -4   1   1    5.60    4.30
  -4   1   1    7.30    4.00
  -3  -1   1    3.00    4.70
  -3  -1   1    0.80    3.60
  -3  -1   1   -1.80    5.00
  -3  -1   1    3.80    4.10
  -3  -1   1    6.00    4.90
  -3   1   1   -2.30    2.90
  -3   1   1   -1.90    2.70
  -3   1   1   -6.50    3.90
  -2  -1   1   15.20    4.70
  -2  -1   1   22.00    5.90
  -2   1   1   28.50    6.40
  -2   1   1   19.50    5.50
  -1  -1   1  627.84   42.30
  -1  -1   1  652.33   42.20
  -1   1   1  636.24   43.30
  -1   1   1  682.23   42.50
   1   1  -1  655.73   40.20
   0  -1   1 2563.44  165.48
   0   1   1 2776.52  165.88
   0   1  -1 2513.65  165.48
   0   1   1 3074.09  167.38
   1  -1   1 4412.46  246.58
  -1  -1  -1 4102.79  248.28
  -1  -1  -1 3799.62  249.08
  -1   1  -1 3938.11  249.88
  -2  -1  -1  230.78   20.40
  -2  -1  -1  224.28   21.40
   2   1   1  239.18   16.00
  -2   1  -1  226.28   22.30
   2   1   1  244.58   17.50
  -3  -1  -1   -0.70    2.80
  -3  -1  -1   -3.70    4.30
  -3  -1  -1    0.90    4.70
  -3  -1  -1    1.00    3.20
  -3   1  -1    4.30    3.50
  -3   1  -1    3.80    4.50
  -3   1  -1    1.40    4.50
  -3   1  -1   -3.60    4.00
  -3   1  -1    5.10    4.10
  -4  -1  -1    6.70    3.70
  -4  -1  -1    7.90    3.70
  -4   1  -1    7.40    3.30
  -4   1  -1   13.60    5.70
  -4  -2   1   57.19    8.10
  -4  -2   1   68.69    9.60
  -4   2   1   58.19   10.40
  -4   2   1   67.19    9.10
  -4   2   1   72.89   10.20
  -3  -2   1   81.09   11.00
  -3  -2   1   83.19   13.50
  -3  -2   1   62.69   10.10
  -3  -2   1   60.79   12.60
  -3  -2   1   53.29   11.50
  -3  -2   1   50.69    8.90
  -3   2   1   68.29   10.70
  -3   2   1   87.19   15.40
  -3   2   1   82.99   10.50
  -3   2   1   68.39   13.20
  -3   2   1   84.49   11.30
  -2  -2   1    3.90    3.10
  -2  -2   1   10.70    3.70
  -2   2   1    7.80    4.30
   2   2  -1    9.60    2.10
  -2   2   1   11.20    5.00
  -1  -2   1 1606.84   96.79
  -1  -2   1 1533.35   96.49
   1   2  -1 1567.64   94.99
  -1   2   1 1465.95   98.19
  -1   2   1 1576.84   96.79
   0  -2   1  199.38   13.60
   0   2   1  210.88   15.10
   0   2  -1  212.18   13.80
  -1  -2  -1   59.19    7.70
  -1  -2  -1   62.99    7.00
   1  -2   1   67.39    5.30
  -1   2  -1   88.89   12.90
  -1   2  -1   58.49    5.80
  -2  -2  -1    1.20    2.80
  -2  -2  -1    2.70    3.50
   2   2   1    7.80    2.00
  -2   2  -1    6.40    4.40
   2   2   1   -3.20    3.30
  -3  -2  -1    6.70    4.30
  -3  -2  -1   10.00    6.50
  -3  -2  -1    4.20    3.70
  -3  -2  -1   -0.40    4.70
  -3   2  -1    6.10    3.70
  -3   2  -1   12.10    4.70
  -3   2  -1    5.80    5.80
  -3   2  -1   11.30    6.50
  -4  -2  -1   17.70    4.70
  -4  -2  -1   26.40    7.00
  -4   2  -1   18.00    4.50
  -4   2  -1   20.30    5.80
  -4  -3   1   65.59    9.20
  -4  -3   1   56.69    8.30
  -4   3   1   77.99   14.70
  -4   3   1   61.69    9.60
  -4   3   1   85.79   10.10
  -3  -3   1  166.08   19.00
  -3  -3   1  150.58   18.90
  -3  -3   1  162.48   16.70
  -3  -3   1  145.79   15.60
  -3  -3   1  133.19   15.20
  -3  -3   1  171.68   18.60
  -3   3   1  172.08   17.20
  -3   3   1  164.98   15.70
  -3   3   1  172.38   17.00
  -3   3   1  154.68   21.90
  -2  -3   1   12.00    4.70
  -2  -3   1   11.10    3.70
   2   3  -1   11.80    2.70
  -2   3   1   11.40    5.50
  -2   3   1   16.20    5.60
  -1  -3   1  290.97   19.10
  -1  -3   1  233.98   18.30
   1   3  -1  256.27   17.50
  -1   3   1  259.17   18.90
  -1   3   1  238.78   16.40
   0  -3   1   -0.30    1.00
   0  -3   1    0.20    1.10
   0   3   1    0.00    1.30
   0   3  -1    1.20    1.20
   1  -3   1    2.60    1.00
  -1  -3  -1    4.10    2.20
  -1  -3  -1    2.40    3.90
  -1   3  -1    2.90    1.80
  -1   3  -1    2.70    2.70
  -2  -3  -1  320.67   26.80
  -2  -3  -1  343.17   28.20
   2   3   1  354.66   23.90
  -2   3  -1  359.56   31.20
  -3  -3  -1    9.70    5.50
  -3  -3  -1    4.30    4.50
  -3  -3  -1   -2.20    4.70
  -3  -3  -1    2.30    3.30
   3  -3   1   -5.80   12.10
   3   3   1   11.10    8.80
  -3   3  -1    4.10    4.10
  -3   3  -1    2.00    4.30
  -3   3  -1   -0.50    4.60
  -3   3  -1    4.30    3.60
  -4  -3  -1    7.60    4.60
  -4  -3  -1    4.60    3.20
  -4   3  -1    4.10    2.90
  -4   3  -1    7.10    4.10
  -4  -4   1    1.80    3.10
   4  -4  -1    7.50    5.30
  -4   4   1    2.40    3.20
  -4   4   1   13.50    5.00
  -4   4   1   10.20    4.50
  -3  -4   1   88.29   11.80
  -3  -4   1   89.19   11.90
  -3  -4   1   78.59   11.50
  -3  -4   1  108.69   15.70
  -3  -4   1  101.79   12.80
  -3  -4   1  123.79   15.30
  -3   4   1  110.59   21.20
  -3   4   1  110.79   12.40
  -3   4   1  121.39   14.10
  -3   4   1  105.09   12.40
  -2  -4   1   76.39    9.90
  -2  -4   1   79.29   10.30
  -2   4   1   78.69   13.40
  -2   4   1   84.79   10.40
   2   4  -1   68.59    8.40
  -2   4   1   76.39    9.00
  -1  -4   1  184.48   14.10
  -1   4   1  176.08   12.50
   1   4  -1  185.38   13.60
   0  -4   1  317.47   22.90
   0  -4   1  365.26   22.90
   0   4  -1  341.57   22.90
   0   4   1  325.77   24.90
   0   4   1  371.06   22.80
  -1  -4  -1  115.89   10.00
  -1  -4  -1  140.39   12.30
   1  -4   1  119.29    9.20
  -1   4  -1  108.09    9.50
  -2  -4  -1   47.10    9.20
  -2  -4  -1   70.49    9.30
  -2  -4  -1   65.19    9.90
  -2   4  -1   62.99    8.00
   2   4   1   49.80    7.00
  -2   4  -1   59.69    9.10
   3  -4   1    0.40    9.60
  -3  -4  -1   -0.20    3.40
  -3  -4  -1    5.90    4.10
  -3  -4  -1    2.00    5.20
  -3  -4  -1   -1.30    4.70
  -3  -4  -1   -0.80    4.70
   3   4   1   -9.20    8.40
  -3   4  -1    5.40    4.10
  -3   4  -1    4.20    3.10
  -3   4  -1   -3.10    2.60
  -3   4  -1    3.90    5.60
  -4  -4  -1   19.80    7.30
  -4  -4  -1   19.20    5.70
  -4   4  -1    2.60    6.60
  -4   4  -1   17.40    5.40
  -4  -5   1   -0.80    3.50
  -4  -5   1   -5.30    7.10
  -4  -5   1   -2.70    2.70
  -4   5   1   -0.40    3.00
  -4   5   1    2.70    3.00
  -4   5   1    6.60    5.20
  -4   5   1   -1.90    2.60
  -3  -5   1   51.29    9.10
  -3  -5   1   40.00    7.20
  -3  -5   1   55.09    8.90
  -3  -5   1   56.49   11.90
  -3  -5   1   47.10    8.60
  -3   5   1   54.69    8.50
  -3   5   1   44.00   12.10
  -3   5   1   58.69    9.20
  -3   5   1   59.69    9.10
  -2  -5   1   39.90    7.00
  -2  -5   1   45.20    7.70
  -2  -5   1   27.80    6.30
  -2  -5   1   36.50    7.00
  -2  -5   1   52.09    8.40
  -2   5   1   41.80    7.60
  -2   5   1   49.30    7.50
  -2   5   1   43.60    6.90
   2   5  -1   30.70    6.30
  -2   5   1   46.50   11.00
  -2   5   1   45.80    8.30
  -1  -5   1    1.30    1.80
  -1   5   1    0.80    1.30
   1   5  -1   -0.40    1.20
   0  -5   1   40.20    4.10
   0   5   1   40.00    4.60
   0   5  -1   34.90    4.70
   0   5   1   27.70    5.60
  -1  -5  -1  166.98   12.70
  -1   5  -1  153.28   12.60
   1   5   1  167.98   13.00
  -2  -5  -1   86.59   11.30
  -2  -5  -1   64.79   12.70
  -2  -5  -1   65.19    8.80
  -2  -5  -1   75.29   10.70
   2  -5   1   47.50   12.90
   2   5   1   66.99    8.50
  -2   5  -1   71.69    9.50
  -2   5  -1   89.09   15.80
  -2   5  -1   73.89    8.90
  -2   5  -1   98.99   10.50
  -3  -5  -1   33.00    7.70
  -3  -5  -1   20.20    8.20
   3  -5   1   10.70   10.50
  -3  -5  -1   16.40    5.90
  -3   5  -1   23.30    6.00
  -3   5  -1   32.30    8.10
  -3   5  -1   15.20    5.20
  -3   5  -1   12.60    8.10
  -4  -5  -1   60.99    7.70
  -4  -5  -1   58.49    8.20
  -4   5  -1   83.89    9.80
  -4   5  -1   70.99    9.40
  -4  -6   1   25.50    6.80
  -4   6   1   50.19    7.80
  -4   6   1   46.00    7.10
  -4   6   1   29.40    6.10
  -4   6   1   41.50    6.70
  -3  -6   1   37.10    6.90
   3  -6  -1   26.10    7.00
  -3  -6   1   48.10    8.50
  -3  -6   1   57.89    8.70
  -3  -6   1   39.00    6.60
  -3   6   1   35.90    7.60
  -3   6   1   21.40   10.50
  -2  -6   1   26.70    7.50
  -2  -6   1   18.00    5.60
   2  -6  -1   19.90   10.20
  -2  -6   1   21.30    6.30
  -2  -6   1   27.10    6.40
  -2  -6   1   28.80    5.50
  -2   6   1   39.50    8.00
   2   6  -1   23.70    5.90
  -2   6   1   30.30    7.20
  -2   6   1   19.40    6.60
  -2   6   1   37.80    7.40
  -1   6   1 1424.56   92.19
   1   6  -1 1537.75   93.79
   0  -6   1 2415.96  141.49
   0   6  -1 2437.56  143.09
   0   6   1 2395.86  142.59
   0   6   1 1989.00  145.19
  -1  -6  -1  309.47   21.40
   1   6   1  332.47   23.00
  -1   6  -1  306.17   22.40
   1   6   1  306.07   23.50
  -2  -6  -1  508.45   40.30
  -2  -6  -1  564.94   40.20
   2  -6   1  592.44   46.90
  -2  -6  -1  558.44   40.40
  -2  -6  -1  564.34   42.20
  -2   6  -1  634.34   42.90
  -2   6  -1  655.13   43.20
  -2   6  -1  541.35   41.00
  -2   6  -1  588.84   40.60
   2   6   1  646.04   41.60
  -3  -6  -1   -2.50    3.50
  -3  -6  -1   11.00    4.80
   3  -6   1    5.80    7.60
  -3  -6  -1    2.90    3.40
  -3  -6  -1    6.70    5.40
  -3   6  -1   18.50    6.10
  -3   6  -1   13.10    5.00
  -3   6  -1   14.50    5.00
   4  -6   1    1.90    3.20
  -4  -6  -1    8.10    2.90
  -4  -6  -1    8.20    2.80
  -4   6  -1    7.00    3.50
  -4   6  -1    0.00    3.60
  -4   6  -1   11.50    4.00
   4  -7  -1    8.60    4.10
  -4   7   1   18.20    4.30
  -4   7   1   10.20    3.80
  -3  -7   1   -0.20    4.20
  -3  -7   1   -3.50    2.50
   3  -7  -1   -5.30    3.40
  -3  -7   1   -3.80    2.60
  -3   7   1    0.90    3.10
  -3   7   1   10.50    5.00
  -3   7   1  -11.80    7.90
  -3   7   1    4.20    4.80
  -3   7   1   -5.30    4.40
   2  -7  -1   49.70   10.40
  -2  -7   1   60.29   11.80
  -2  -7   1   84.39   10.20
  -2  -7   1  109.09   14.70
  -2  -7   1   68.79   13.60
   2  -7  -1   81.09   15.50
  -2  -7   1   82.69    9.80
  -2  -7   1   65.29   11.40
  -2   7   1   91.39   11.10
  -2   7   1   58.19   10.70
  -2   7   1   93.09   11.10
  -2   7   1   89.99   11.40
  -2   7   1   89.59   16.20
  -1  -7   1    1.90    2.00
  -1   7   1    3.70    2.20
   1   7  -1    0.10    2.00
   0  -7   1   99.69    8.40
   0   7   1  104.59   10.00
   0   7  -1  100.69   10.00
   1   7   1  981.60   60.19
  -1   7  -1  929.11   59.49
   1   7   1  830.02   59.59
  -2  -7  -1  154.18   15.20
  -2  -7  -1  148.59   15.60
  -2  -7  -1  168.78   14.60
   2  -7   1  141.99   20.50
  -2  -7  -1  137.69   15.40
  -2  -7  -1  132.69   19.00
  -2  -7  -1  148.09   15.00
  -2   7  -1  186.78   15.50
   2   7   1  135.09   17.10
  -2   7  -1  152.58   16.00
  -2   7  -1  159.78   15.40
  -2   7  -1  150.08   14.80
  -2   7  -1  143.49   20.70
  -3  -7  -1   36.60    8.60
   3  -7   1   30.30    9.20
  -3  -7  -1   14.30    7.50
  -3  -7  -1   33.40    8.40
  -3   7  -1   24.30    7.70
  -3   7  -1   35.30   10.00
  -3   7  -1   17.10   15.60
   4  -7   1    1.70    3.10
  -4   7  -1    2.00    2.70
  -4   7  -1    1.20    2.90
   4  -8  -1   41.60    7.40
  -4   8   1   47.20    5.90
  -3  -8   1    6.10    4.30
   3  -8  -1    9.40    4.70
  -3  -8   1    3.40    3.90
  -3  -8   1   13.30    4.00
  -3  -8   1   20.30    5.20
  -3   8   1   17.00    5.40
  -3   8   1   24.90    6.70
  -3   8   1   13.60    5.20
  -2  -8   1    3.70    6.80
  -2  -8   1   -0.40    3.40
  -2  -8   1  -10.00    5.50
   2  -8  -1   -5.00    3.00
   2  -8  -1   -3.70    6.60
  -2  -8   1   -0.50    2.60
  -2  -8   1   -5.50    5.00
  -2   8   1   -4.80    4.00
  -2   8   1    2.30    3.70
  -2   8   1   -1.20    5.20
  -2   8   1    0.40    3.20
  -2   8   1    2.90    5.30
  -1  -8   1   93.99   13.20
   1  -8  -1   82.39   13.90
   1  -8  -1   96.89   12.90
  -1  -8   1   97.69   15.00
  -1  -8   1   89.39   10.80
  -1  -8   1   94.99   12.60
   1  -8  -1  120.79   15.20
  -1   8   1  102.29   12.00
  -1   8   1   88.69   11.70
   1   8  -1   96.79   11.60
   0  -8  -1  759.92   62.49
   0   8  -1  635.64   47.30
   0   8   1  728.53   47.60
   1  -8   1  146.69   19.80
  -1  -8  -1   81.49   15.40
  -1  -8  -1   96.89   12.20
   1  -8   1   66.09   12.60
   1  -8   1  103.49   15.30
  -1  -8  -1   90.49   12.60
  -1  -8  -1   96.69   11.00
  -1  -8  -1  124.59   17.00
  -1   8  -1  117.39   11.70
   1   8   1  110.29   11.60
  -1   8  -1  114.99   12.00
  -2  -8  -1   76.19   16.50
  -2  -8  -1  102.19   12.40
   2  -8   1  108.09   22.60
  -2  -8  -1   94.29   11.00
  -2  -8  -1  121.39   15.20
  -2   8  -1   88.99   14.00
  -2   8  -1  111.19   13.00
  -2   8  -1   90.09   12.60
  -2   8  -1   86.19   17.10
   3  -8   1   -2.60    6.30
  -3  -8  -1   -1.20    3.30
  -3  -8  -1   -3.00    2.10
  -3  -8  -1   -1.90    2.90
  -3  -8  -1   -3.10    5.40
  -3   8  -1   -0.10    2.70
  -3   8  -1    3.50    4.10
   4  -8   1   -2.00    2.30
  -4   8  -1   -2.60    3.30
  -3  -9   1    2.70    2.90
  -3  -9   1    3.60    5.40
  -3  -9   1    0.60    3.10
  -3  -9   1    0.30    4.50
   3  -9  -1    0.80    3.60
  -3   9   1   -0.70    2.50
  -3   9   1   -2.90    4.50
  -3   9   1    0.20    3.40
   2  -9  -1   29.60    9.50
  -2  -9   1   20.90    5.20
  -2  -9   1   23.80    7.90
   2  -9  -1   27.00    8.00
  -2  -9   1   23.80    5.70
  -2  -9   1   30.70    8.40
  -2   9   1   28.20    6.80
  -2   9   1   18.80    8.80
  -2   9   1   27.20    7.00
  -2   9   1   35.00    7.00
  -1  -9   1   -5.70    4.50
   1  -9  -1    1.20    3.80
  -1  -9   1    1.00    5.30
  -1  -9   1   -4.80    3.30
  -1  -9   1   -3.60    5.40
   1  -9  -1   -2.80    5.30
   1  -9  -1   -2.60    7.00
  -1  -9   1   -4.80    3.80
   1  -9  -1   -8.30    4.80
  -1  -9   1    2.10    4.80
  -1  -9   1   -5.00    3.00
  -1   9   1    1.40    3.00
  -1   9   1    1.90    4.00
   1   9  -1    1.10    3.70
   0  -9  -1    3.70    4.30
   0  -9  -1    7.60    7.20
   0  -9  -1   -2.40    3.10
   0  -9  -1    9.10    5.00
   0  -9  -1    4.20    4.60
   0  -9   1    8.30    7.80
   0  -9   1    0.70    4.00
   0  -9   1   -0.20    4.90
   0  -9   1    2.00    4.90
   0  -9   1    2.90    7.10
   0  -9   1    5.10    7.40
   0  -9   1    7.50    6.10
   0  -9  -1    2.30    3.60
   0   9   1    2.00    2.20
   0   9  -1    1.50    2.10
   0   9   1    1.30    4.30
  -1  -9  -1    0.80    2.90
  -1  -9  -1    6.80    6.90
   1  -9   1   12.00    5.10
   1  -9   1    3.90    6.80
  -1  -9  -1    2.20    5.00
   1  -9   1    2.80    5.20
   1  -9   1   13.30    9.60
  -1  -9  -1   -1.20    2.80
  -1  -9  -1    8.30    4.30
  -1  -9  -1   -2.70    3.20
  -1   9  -1   -1.30    3.70
  -1   9  -1   12.00    4.20
   1   9   1   -0.40    2.40
  -2  -9  -1    4.40    5.40
   2  -9   1    9.50    6.00
  -2  -9  -1    8.10    6.40
   2  -9   1    8.80    8.00
  -2  -9  -1    7.40    4.80
  -2  -9  -1    2.20    3.70
  -2  -9  -1   14.70    4.70
  -2   9  -1   -2.70    9.10
  -2   9  -1    8.60    4.60
  -2   9  -1   15.60    5.50
  -3  -9  -1    2.40    3.30
   3  -9   1    0.70    3.60
  -3  -9  -1   -3.20    2.90
  -3  -9  -1    1.10    2.20
  -3   9  -1   -1.20    2.20
  -3 -10   1   66.19    8.50
  -3 -10   1   65.69    9.50
   3 -10  -1   73.49   11.50
  -3  10   1   73.99   10.40
  -3  10   1   69.19   10.70
   2 -10  -1  278.87   27.20
  -2 -10   1  304.57   25.40
  -2 -10   1  289.77   24.40
   2 -10  -1  292.87   28.10
  -2  10   1  312.87   26.80
  -2  10   1  310.67   25.40
  -2  10   1  288.47   35.00
   1 -10  -1  285.67   29.40
  -1 -10   1  263.07   22.80
   1 -10  -1  290.67   29.50
  -1 -10   1  260.87   38.80
   1 -10  -1  202.28   20.60
   1 -10  -1  246.38   25.00
  -1 -10   1  343.97   31.10
  -1 -10   1  236.68   24.20
  -1 -10   1  248.38   28.50
  -1  10   1  251.77   26.00
  -1  10   1  314.07   24.20
  -1  10   1  255.57   22.30
   0 -10   1   59.59   16.20
   0 -10  -1   70.29   15.90
   0 -10  -1   34.50   10.40
   0 -10  -1   31.40    6.90
   0 -10   1   35.20   10.00
   0 -10   1   42.10    8.20
   0 -10   1   44.80    8.40
   0 -10  -1   41.50    8.10
   0 -10  -1   42.80    8.70
   0 -10  -1   47.30    7.50
   0 -10   1   27.90    9.80
   0 -10  -1   53.89   12.00
   0 -10   1   33.00    7.10
   0  10  -1   48.60    8.60
   0  10   1   48.50    7.20
   0  10   1   46.80    9.00
   0  10  -1   51.99    9.00
  -1 -10  -1   39.80    7.70
  -1 -10  -1   68.89   16.20
  -1 -10  -1   53.69   11.30
   1 -10   1   60.29   13.70
   1 -10   1   33.70    8.90
   1 -10   1   64.49   16.00
   1 -10   1   52.69   16.10
  -1 -10  -1   47.70   10.20
  -1 -10  -1   34.00   10.00
  -1  10  -1   51.09   10.00
  -2 -10  -1   92.49   16.20
  -2 -10  -1  105.49   11.70
  -2 -10  -1   97.99   12.30
   2 -10   1   92.89   14.50
  -2 -10  -1   95.19   12.60
   2 -10   1   92.09   16.00
  -2  10  -1   79.69   11.00
  -2  10  -1  113.79   13.50
  -3 -10  -1  120.69   12.30
  -3 -10  -1  120.59   15.80
   3 -10   1  160.08   16.00
   3 -10   1  139.19   16.20
  -3  10  -1  164.68   15.60
   3 -11  -1  378.56   30.20
  -3 -11   1  392.16   28.00
  -3 -11   1  398.06   28.90
  -3  11   1  335.37   27.20
  -3  11   1  388.36   29.90
   2 -11  -1   35.40   10.70
   2 -11  -1   32.10    7.50
  -2 -11   1   28.90    9.00
   2 -11  -1   49.30   11.80
  -2 -11   1   26.20    9.30
  -2  11   1   19.50    8.90
  -2  11   1   52.89    9.80
  -2  11   1   61.79   13.00
   1 -11  -1   81.29   13.70
  -1 -11   1   84.99   12.50
   1 -11  -1   87.79   13.10
   1 -11  -1  114.59   17.00
  -1 -11   1   92.99   14.30
  -1 -11   1   80.99   10.80
   1 -11  -1   87.79   11.30
   1 -11  -1   84.79   14.50
  -1  11   1   76.69   10.60
  -1  11   1   94.99   11.40
   0 -11   1  428.06   32.50
   0 -11   1  358.26   30.00
   0 -11  -1  370.46   30.90
   0 -11   1  277.37   33.60
   0 -11  -1  366.16   31.90
   0 -11  -1  408.26   37.50
   0 -11  -1  378.96   29.20
   0 -11   1  390.06   38.30
   0 -11   1  378.96   33.10
   0 -11   1  332.77   27.10
   0  11  -1  331.97   27.60
   0  11   1  337.47   27.20
  -1 -11  -1  140.19   20.20
  -1 -11  -1  123.99   15.80
  -1 -11  -1  139.19   13.60
   1 -11   1  101.49   19.20
  -1 -11  -1   80.59   17.90
   1 -11   1  116.99   16.40
  -1 -11  -1  134.39   15.00
   1 -11   1  102.39   15.00
  -1 -11  -1  136.79   14.00
   1 -11   1  110.19   16.80
  -1  11  -1  117.89   13.40
  -2 -11  -1   25.90    6.80
   2 -11   1   13.00    5.90
  -2 -11  -1    5.00    6.00
   2 -11   1   14.60    8.10
  -2 -11  -1   19.70    4.70
  -2 -11  -1    5.50    4.30
  -2  11  -1    9.10   10.50
  -2  11  -1   10.80    4.60
  -2  11  -1   19.40    6.60
   3 -11   1    3.90    6.60
  -3 -11  -1    1.80    1.90
   3 -11   1    4.00    4.30
  -3 -11  -1    4.00    3.40
  -3  11  -1    0.50    2.40
   3 -12  -1   10.90    3.10
   3 -12  -1   11.40    3.50
  -3 -12   1   12.10    3.10
  -3 -12   1    1.50    5.80
  -3 -12   1   16.00    3.70
  -3  12   1   14.60    4.20
  -3  12   1   15.10    4.00
  -2 -12   1   10.30    3.80
  -2 -12   1   13.40    5.40
   2 -12  -1    8.00    5.30
  -2 -12   1    0.50    5.20
   2 -12  -1    7.90    5.00
   2 -12  -1    2.30    3.10
  -2  12   1   14.40    5.20
  -2  12   1   10.00    4.70
  -1 -12   1   72.59   11.00
   1 -12  -1   60.49   14.60
  -1 -12   1   62.09   11.30
  -1 -12   1   53.99   13.60
   1 -12  -1   64.09   11.10
   1 -12  -1   67.29   12.60
  -1 -12   1   66.49    9.10
  -1  12   1   67.39    9.80
   1  12  -1   56.99    7.60
  -1  12   1   62.19    9.10
   0 -12   1  148.99   15.90
   0 -12  -1  150.78   17.40
   0 -12  -1  111.99   20.00
   0 -12  -1  165.58   22.30
   0 -12   1  106.59   20.20
   0 -12   1  143.39   14.10
   0 -12   1  152.48   17.40
   0 -12  -1  167.68   19.00
   0 -12   1  154.08   19.20
   0 -12   1  181.68   23.80
   0 -12  -1  137.19   14.10
   0 -12  -1  160.38   15.60
   0  12   1  143.09   13.90
   0  12  -1  136.89   14.20
  -1 -12  -1  149.99   20.70
  -1 -12  -1   99.69   17.50
   1 -12   1  136.59   18.00
  -1 -12  -1  128.19   14.00
  -1 -12  -1  131.09   15.50
   1 -12   1  115.39   15.40
  -1 -12  -1  135.19   16.10
  -1 -12  -1  133.29   13.60
   1 -12   1  160.48   21.10
  -1 -12  -1  141.99   15.00
  -1  12  -1  114.89   22.70
  -1  12  -1  137.29   14.40
  -1  12  -1  127.69   14.20
  -2 -12  -1  140.99   13.90
   2 -12   1  153.78   18.30
   2 -12   1  150.38   17.20
  -2 -12  -1  151.78   15.50
   2 -12   1  124.79   13.60
  -2  12  -1  140.49   15.60
  -2  12  -1  139.09   14.40
  -3 -12  -1    8.10    2.30
   3 -12   1    9.90    3.80
   3 -12   1    3.40    2.50
  -3 -12  -1    6.30    3.80
  -3  12  -1    5.20    2.50
   3 -13  -1    2.30    2.20
  -3 -13   1   -0.10    1.40
   3 -13  -1    3.60    2.30
  -3  13   1    1.70    1.40
   2 -13  -1   -4.40    2.80
   2 -13  -1    0.00    3.30
  -2 -13   1    1.10    4.10
  -2 -13   1    2.80    2.70
  -2 -13   1   -0.20    3.30
   2 -13  -1   -0.30    4.30
  -2  13   1    0.80    2.30
  -2  13   1    1.40    3.30
   1 -13  -1   96.79   14.10
  -1 -13   1   86.19   12.20
   1 -13  -1   67.59   12.90
  -1 -13   1  104.79   13.50
  -1 -13   1   58.59   14.90
  -1 -13   1   85.19    9.90
   1 -13  -1   79.19   11.70
   1  13  -1   53.29    8.00
  -1  13   1   78.19    9.90
  -1  13   1   80.49   10.60
   0 -13   1   60.09   16.40
   0 -13   1   37.00    9.70
   0 -13  -1   29.50    8.80
   0 -13  -1   54.09   10.70
   0 -13   1   35.80    8.00
   0 -13  -1   25.40    7.50
   0 -13  -1   54.29   14.90
   0 -13   1   44.70   11.70
   0 -13   1   27.60    8.60
   0  13  -1   40.20    8.50
   0  13   1   52.19   11.00
   1 -13   1   -0.60    4.80
  -1 -13  -1   -2.90    3.70
  -1 -13  -1    1.70    3.50
   1 -13   1   -3.50    5.20
  -1 -13  -1    0.60    2.20
  -1 -13  -1   -1.60    3.90
  -1 -13  -1    0.90    3.80
   1 -13   1    0.40    3.60
  -1 -13  -1   -4.30    2.80
  -1  13  -1   -0.10    2.80
  -1  13  -1    1.00    2.50
  -2 -13  -1   18.70    5.60
  -2 -13  -1   15.40    4.10
   2 -13   1   20.50    5.90
   2 -13   1   17.60    4.90
  -2 -13  -1   13.80    5.80
  -2  13  -1   27.30    5.50
  -2  13  -1   14.00    4.50
  -3 -13  -1    1.00    1.50
   3 -13   1   -2.20    1.80
  -3  13  -1    0.70    1.40
   2 -14  -1   15.90    5.10
   2 -14  -1    9.70    4.30
  -2 -14   1    3.90    3.90
  -2 -14   1    7.70    2.70
  -2 -14   1    7.80    3.80
   2 -14  -1    5.80    3.30
   2  14  -1    1.80    3.50
  -2  14   1    5.40    2.90
  -2  14   1   12.70    3.90
  -1 -14   1    0.00    3.80
  -1 -14   1    1.40    3.70
   1 -14  -1    8.90    4.40
   1 -14  -1    3.10    3.50
  -1 -14   1    4.60    5.50
  -1 -14   1    6.50    4.90
  -1 -14   1   -1.30    2.20
  -1  14   1    1.00    2.70
  -1  14   1    1.70    2.60
   0 -14  -1    0.40    2.30
   0 -14   1   -4.60    2.40
   0 -14  -1   -2.90    2.90
   0 -14   1    4.00    5.90
   0 -14  -1    5.30    4.70
   0 -14   1   -1.80    3.50
   0 -14  -1    2.20    3.70
   0  14  -1   -2.60    1.90
   0  14   1   -0.50    2.90
   0  14   1    3.90    3.60
   1 -14   1    3.40    5.50
  -1 -14  -1   -1.70    3.30
  -1 -14  -1   -1.20    2.20
  -1 -14  -1   -1.90    3.30
  -1 -14  -1   -7.50    4.80
   1 -14   1   -4.20    4.10
   1 -14   1    2.00    3.20
  -1 -14  -1   -4.30    3.10
  -1  14  -1   -2.50    2.40
   1  14   1    0.50    2.70
  -1  14  -1    3.30    2.80
  -2 -14  -1   -1.20    3.00
  -2 -14  -1    3.90    2.00
   2 -14   1    1.40    3.00
  -2  14  -1    1.00    2.00
  -2  14  -1    2.70    2.80
   2 -15  -1   12.80    3.20
  -2 -15   1    6.60    3.00
  -2 -15   1    8.70    2.60
  -2  15   1   13.50    3.30
  -1 -15   1   -4.20    3.20
   1 -15  -1   -1.30    2.80
  -1 -15   1   -3.20    1.80
   1 -15  -1    3.50    4.20
  -1 -15   1   -2.30    2.80
  -1  15   1   -0.80    2.40
  -1  15   1   -0.50    2.20
   0 -15   1    2.60    2.20
   0 -15  -1   12.50    4.30
   0 -15   1    7.80    5.20
   0 -15  -1    2.80    2.80
   0 -15  -1    3.00    3.30
   0 -15  -1    3.20    4.50
   0 -15   1    3.50    3.20
   0 -15   1    8.80    5.40
   0  15  -1    1.00    2.70
   0  15  -1   13.60    4.10
   0  15   1    9.70    3.30
  -1 -15  -1   -1.50    2.60
  -1 -15  -1   -2.50    2.30
   1 -15   1   -0.90    2.70
  -1 -15  -1   -0.10    4.00
   1 -15   1    3.20    4.30
  -1 -15  -1   -8.50    5.40
  -1  15  -1    1.80    2.30
  -1  15  -1    0.90    2.10
  -2 -15  -1    0.00    1.60
   2 -15   1    2.70    3.00
   2 -15   1   -2.60    1.60
  -2  15  -1    0.50    1.50
  -2  15  -1   -2.20    1.90
  -1 -16   1   15.00    3.10
  -1 -16   1   22.10    5.30
   1 -16  -1   24.00    4.00
   1 -16  -1   29.40    6.40
  -1  16   1   13.80    5.30
   1  16  -1   23.30    3.90
  -1  16   1   15.50    3.50
   0 -16  -1    8.40    3.40
   0 -16  -1    8.50    5.30
   0 -16  -1    9.50    3.70
   0 -16   1   11.70    3.90
   0  16   1   11.40    3.00
   0  16  -1   13.90    3.70
   1 -16   1   24.40    5.20
  -1 -16  -1   24.90    3.70
  -1 -16  -1   31.60    6.20
   1 -16   1   17.00    3.30
   1  16   1   29.10    4.30
  -1  16  -1   14.80    3.40
  -1  16  -1   19.80    4.00
   0  17   1   39.40    4.40
   0  17  -1   38.10    4.60
  -4   0   2   92.79   11.80
  -4   0   2   90.69   12.70
  -4   0   2   91.29   10.20
  -3   0   2   46.80    8.80
  -3   0   2   34.80    8.50
  -3   0   2   40.60    7.60
  -3   0   2   61.49   11.80
  -2   0   2  111.39   13.10
  -2   0   2  131.89   13.70
  -1   0   2   15.00    3.50
  -1   0   2   13.50    3.10
   1   0  -2   18.90    2.30
   0   0  -2  350.36   22.90
   0   0   2  358.46   23.10
   0   0  -2  355.66   22.50
   0   0   2  356.36   22.90
   2   0   2 7929.91  459.75
  -2   0  -2 7193.68  465.65
  -3   0  -2    7.70    5.40
  -3   0  -2   -2.70    5.50
  -3   0  -2    8.80    4.90
  -3   0  -2    9.30    5.10
  -4   0  -2    7.20    3.70
  -4   0  -2   13.00    4.90
  -4  -1   2   28.40    7.20
  -4  -1   2   37.50    8.60
  -4  -1   2   21.40    4.90
  -4   1   2   18.70    5.10
  -4   1   2   30.00    6.40
  -4   1   2   22.80    6.40
  -3  -1   2  126.49   14.80
  -3  -1   2  141.79   18.00
  -3  -1   2  122.29   16.90
  -3  -1   2  145.69   16.80
  -3  -1   2  114.69   13.70
  -3  -1   2  105.79   14.00
  -3  -1   2  118.19   15.00
  -3   1   2  106.69   17.30
  -3   1   2  119.09   16.80
  -3   1   2  133.49   13.80
  -3   1   2  142.59   15.10
  -3   1   2  153.68   15.50
  -3   1   2  133.19   14.30
  -2  -1   2   34.50    6.90
  -2  -1   2   34.10    7.20
  -2   1   2   24.10    5.80
  -2   1   2   41.00    7.80
  -1  -1   2  182.28   14.10
  -1  -1   2  168.98   13.20
   1   1  -2  183.68   12.20
  -1   1   2  176.18   14.60
  -1   1   2  189.98   14.20
   0  -1   2 2780.92  177.08
   0  -1  -2 3243.18  177.38
   0   1  -2 2711.93  177.08
   1  -1   2 9999.00  605.24
  -2  -1  -2   43.60    8.80
  -2   1  -2   29.70    8.10
   2   1   2   31.30    5.30
  -3  -1  -2   13.40    5.10
  -3  -1  -2   15.50    6.00
  -3  -1  -2   12.00    6.20
  -3   1  -2   18.80    5.70
  -3   1  -2   17.30    5.90
  -3   1  -2   10.70    7.20
  -3   1  -2   -0.60    5.00
  -4  -1  -2    4.60    3.40
  -4  -1  -2    6.80    4.00
  -4   1  -2    2.50    3.00
  -4   1  -2    4.60    3.70
  -4  -2   2   32.30    7.70
  -4  -2   2   38.00    8.60
  -4  -2   2   21.90    5.00
  -4   2   2   40.90    7.50
  -4   2   2   21.90    5.90
  -4   2   2   34.50    8.10
  -3  -2   2   15.90    7.30
  -3  -2   2   15.20    5.60
  -3  -2   2   18.80    5.20
  -3  -2   2   16.00    5.60
  -3  -2   2   18.80    6.40
  -3   2   2   13.70    4.70
  -3   2   2   21.30    7.20
  -3   2   2   21.70    6.10
  -3   2   2   16.20    7.40
  -3   2   2   13.30    6.20
  -2  -2   2    4.00    2.90
  -2  -2   2    4.50    3.60
  -2   2   2    1.40    3.30
   2   2  -2    3.90    1.60
  -2   2   2    2.80    3.80
  -1  -2   2    4.00    2.20
  -1  -2   2    3.60    1.60
  -1   2   2    4.50    0.80
   1   2  -2    3.70    1.40
  -1   2   2    5.20    2.40
  -1   2   2    5.00    1.00
   0  -2   2   39.00    4.20
   0   2  -2   43.30    4.40
   0   2   2   45.80    5.90
   0   2   2   41.70    3.30
   1  -2   2  345.67   22.60
  -1   2  -2  319.47   22.90
  -1   2  -2  349.07   28.80
   2  -2   2  226.18   15.80
  -2  -2  -2  250.07   22.20
  -2   2  -2  237.68   23.40
   2   2   2  209.58   20.20
  -3  -2  -2    1.60    3.60
  -3  -2  -2    1.40    2.70
  -3  -2  -2    1.50    7.00
  -3   2  -2    3.70    3.70
  -3   2  -2   -1.60    3.90
  -3   2  -2    1.80    3.80
  -4  -2  -2   11.80    4.10
  -4  -2  -2    7.00    4.20
  -4   2  -2   10.70    4.40
  -4   2  -2    7.80    3.50
  -4  -3   2    2.20    3.60
  -4  -3   2   -5.60    4.00
  -4  -3   2   -0.10    2.70
  -4   3   2   12.90    5.60
  -4   3   2   11.40    4.30
  -4   3   2   -1.00    3.60
  -4   3   2    2.00    3.00
  -3  -3   2   -3.90    3.80
  -3  -3   2   -3.30    3.10
  -3  -3   2   -1.20    3.70
  -3  -3   2   -1.10    5.20
  -3  -3   2    0.70    5.20
  -3  -3   2    0.90    4.30
  -3   3   2    3.70    3.40
  -3   3   2    3.70    6.80
  -3   3   2    0.70    5.80
  -3   3   2    2.70    3.70
  -3   3   2    0.10    3.30
  -3   3   2   -1.80    5.20
  -2  -3   2  236.68   20.80
  -2  -3   2  227.88   19.70
  -2   3   2  230.68   23.30
   2   3  -2  250.77   17.70
  -2   3   2  261.87   21.90
  -1  -3   2   68.29    7.50
  -1   3   2   77.59    7.70
  -1   3   2   68.89    5.20
   1   3  -2   67.99    6.60
   0  -3   2   31.40    4.00
   0   3   2   34.90    5.80
   0   3  -2   31.30    4.20
  -1  -3  -2  209.78   16.60
   1  -3   2  191.08   13.90
  -1   3  -2  189.38   14.40
  -1   3  -2  177.08   17.30
  -2  -3  -2   -1.00    3.50
  -2  -3  -2   -4.90    3.70
  -2  -3  -2    2.40    2.90
   2  -3   2   -0.60    1.30
  -2   3  -2    1.20    2.10
  -2   3  -2    0.20    3.80
  -2   3  -2    0.70    3.20
  -3  -3  -2   -0.20    2.90
  -3  -3  -2    2.50    3.70
  -3  -3  -2   -4.70    3.60
  -3   3  -2   -0.50    2.50
  -3   3  -2    3.70    5.40
  -3   3  -2   -3.70    4.30
  -3   3  -2    3.80    3.60
  -3   3  -2   -3.30    4.30
  -4  -3  -2    6.40    4.00
  -4  -3  -2    9.10    4.20
  -4   3  -2    9.60    3.60
  -4   3  -2    9.30    4.00
  -4  -4   2    6.00    4.60
  -4  -4   2   -2.60    3.30
  -4  -4   2    3.00    3.80
  -4   4   2    1.40    4.80
  -4   4   2    7.50    3.60
  -4   4   2    5.10    4.90
  -4   4   2   13.60    5.50
  -3  -4   2  157.08   16.50
  -3  -4   2  148.19   20.30
  -3  -4   2  193.68   21.10
  -3  -4   2  172.18   16.50
  -3  -4   2  186.18   18.00
  -3  -4   2  159.58   15.60
  -3   4   2  193.28   18.70
  -3   4   2  179.18   17.80
  -3   4   2  176.28   16.70
  -3   4   2  199.48   19.20
  -2  -4   2  664.93   48.00
  -2  -4   2  717.73   49.90
  -2  -4   2  773.02   49.00
  -2  -4   2  724.53   50.59
  -2   4   2  701.33   48.70
  -2   4   2  730.23   49.80
  -2   4   2  693.33   53.49
  -2   4   2  660.23   47.40
   2   4  -2  719.63   47.00
  -1  -4   2  218.88   17.10
   1   4  -2  236.28   16.70
  -1   4   2  222.48   15.20
  -1   4   2  232.48   17.20
   0  -4   2  247.28   18.10
   0   4   2  267.67   21.30
   0   4  -2  276.27   18.60
   1  -4   2  589.14   37.20
  -1   4  -2  542.45   41.20
  -1   4  -2  581.44   37.70
  -2  -4  -2    6.90    4.10
  -2  -4  -2    2.00    5.00
  -2   4  -2    0.90    2.90
   2   4   2    1.90    3.00
   2   4   2    3.70    5.10
  -2   4  -2   -0.90    3.20
  -2   4  -2    6.60    4.20
  -3  -4  -2   -1.60    5.30
  -3  -4  -2   -1.90    2.40
   3  -4   2    1.80    7.90
  -3  -4  -2   -1.00    4.80
  -3  -4  -2   -4.80    2.80
  -3   4  -2    4.10    3.60
  -3   4  -2    4.10    4.30
  -3   4  -2    2.80    3.30
  -4  -4  -2    0.20    2.80
  -4   4  -2    8.60    3.60
  -4   4  -2    1.70    3.60
  -4  -5   2   63.09    8.50
  -4  -5   2   57.19   10.50
  -4   5   2   70.19    9.90
  -4   5   2   49.99    9.50
  -4   5   2   52.09    8.60
  -4   5   2   65.19    9.40
  -3  -5   2  144.29   16.90
   3  -5  -2   89.89   14.60
  -3  -5   2  107.09   11.90
  -3  -5   2  123.09   13.70
  -3  -5   2   96.29   12.20
  -3   5   2  142.89   15.40
  -3   5   2  144.59   14.00
  -3   5   2  118.69   15.00
  -3   5   2  130.89   14.40
  -3   5   2   99.29   21.00
  -2  -5   2   28.00    6.90
  -2   5   2   37.80    7.60
  -2   5   2   37.50    7.20
   2   5  -2   49.60    8.70
  -2   5   2   41.00    6.90
   2   5  -2   19.00    4.60
  -2   5   2   28.10    7.00
  -1  -5   2   35.30    5.40
   1   5  -2   36.40    5.40
  -1   5   2   31.90    4.00
   0  -5   2  738.93   49.10
   0   5  -2  800.32   49.50
   0   5   2  758.62   52.99
  -1  -5  -2    3.60    2.70
   1  -5   2    1.70    1.70
  -1   5  -2    4.20    1.90
   1   5   2    6.30    3.40
  -1   5  -2    2.20    2.50
  -2  -5  -2  654.13   51.59
  -2  -5  -2  585.74   43.10
  -2  -5  -2  571.54   43.10
  -2  -5  -2  579.84   44.70
  -2   5  -2  618.64   43.40
  -2   5  -2  711.53   45.40
  -2   5  -2  609.54   44.10
  -2   5  -2  674.73   51.19
   2   5   2  673.03   43.30
  -3  -5  -2   57.79    9.30
  -3  -5  -2   51.79   11.80
  -3  -5  -2   49.60   10.60
   3  -5   2   45.60   10.70
  -3   5  -2   54.69    8.90
  -3   5  -2   58.79    9.30
  -3   5  -2   56.69    8.90
   3   5   2   67.19   21.30
  -4  -5  -2   10.70    4.10
  -4  -5  -2    7.60    3.20
   4  -5   2    2.10    3.50
  -4   5  -2   16.40    4.60
  -4  -6   2    0.20    5.10
  -4   6   2   10.10    4.20
  -4   6   2    8.10    3.80
  -4   6   2    6.90    3.40
  -3  -6   2   -6.30    4.20
  -3  -6   2    0.10    2.80
  -3  -6   2   -3.80    2.70
  -3  -6   2    5.70    4.40
  -3  -6   2   -5.00    3.50
   3  -6  -2   -1.60    3.30
  -3   6   2    2.40    9.50
  -3   6   2   -0.60    4.30
  -3   6   2   12.40    4.90
  -3   6   2   11.30    5.30
  -3   6   2    2.10    3.20
  -2  -6   2   -1.20   10.30
   2  -6  -2    0.60    4.30
  -2  -6   2    2.20    3.10
  -2  -6   2    2.00    3.10
  -2  -6   2    4.40    4.50
  -2  -6   2    7.40    3.70
  -2   6   2   -1.40    3.10
  -2   6   2    0.10    3.30
  -2   6   2    4.90    5.20
  -2   6   2    3.50    4.50
  -2   6   2    9.80    5.10
  -1  -6   2   71.09    8.20
   1   6  -2   85.49    8.80
  -1   6   2   70.59    7.10
   0  -6   2  400.36   24.80
   0   6  -2  363.86   25.50
   0   6   2  363.96   24.90
   0   6   2  304.57   28.20
  -1   6  -2   60.19    7.90
   1   6   2   74.39    7.70
   1   6   2   57.09    9.10
  -2  -6  -2    0.70    2.90
   2  -6   2   -2.90    7.10
  -2  -6  -2   -1.50    3.70
  -2  -6  -2   -1.00    3.30
  -2  -6  -2   -0.10    3.90
  -2  -6  -2    1.90    3.40
  -2  -6  -2    3.80    3.20
  -2  -6  -2   -3.50    4.60
  -2   6  -2   -2.60    2.60
  -2   6  -2   -6.70    4.10
   2   6   2   -2.30    2.50
  -2   6  -2   -4.50    4.40
   2   6   2    0.00    4.10
  -2   6  -2    1.20    3.00
  -3  -6  -2   -0.90    2.30
  -3  -6  -2   -1.60    4.00
   3  -6   2    8.90    7.00
  -3  -6  -2    2.40    4.60
  -3  -6  -2   -1.30    3.00
  -3   6  -2   -3.10    3.30
  -3   6  -2   -2.90    2.80
  -3   6  -2    2.60    3.20
   4  -6   2   -1.30    2.90
  -4  -6  -2   -1.50    2.10
  -4  -6  -2   -0.20    2.70
  -4   6  -2    0.90    3.60
  -4   6  -2    2.30    3.00
  -4   7   2   29.80    6.90
  -4   7   2   40.90    6.20
  -4   7   2   34.70    5.50
   3  -7  -2    0.00    3.80
  -3  -7   2   -2.70    3.80
  -3  -7   2   -3.20    6.90
  -3  -7   2   -2.70    2.50
  -3  -7   2    0.80    3.00
  -3  -7   2   -0.30    6.60
  -3   7   2    8.00   11.20
  -3   7   2    4.40    4.30
  -3   7   2   -2.00    4.80
  -3   7   2    9.10    5.00
  -3   7   2   -1.90    2.30
  -2  -7   2    4.80    5.40
  -2  -7   2   14.60    4.40
   2  -7  -2    7.70    5.60
   2  -7  -2   21.10    9.50
  -2  -7   2    2.00    8.30
  -2  -7   2   14.80    5.40
  -2  -7   2   13.50    4.90
  -2   7   2   10.70    5.30
  -2   7   2   22.60    6.10
  -2   7   2    5.50    4.90
  -2   7   2   19.20    6.30
   2   7  -2   12.30    7.50
  -2   7   2   16.50    5.10
  -1  -7   2   -0.20    2.00
   1   7  -2   -2.60    1.60
  -1   7   2   -1.50    1.50
   0  -7   2   45.10    5.60
   0   7  -2   39.10    6.20
   0   7   2   42.90    5.80
   0   7   2   27.70    7.60
   1  -7   2    1.10    5.00
  -1  -7  -2    4.30    6.50
  -1  -7  -2   -5.40    4.60
  -1  -7  -2   -3.40    2.20
   1   7   2    6.30    3.10
   1   7   2   -1.40    1.70
  -1   7  -2    4.50    2.80
  -1   7  -2   -4.90    2.50
  -2  -7  -2   -2.50    2.90
  -2  -7  -2   -3.00    3.10
  -2  -7  -2   -3.60    3.70
  -2  -7  -2   -6.30    5.40
   2  -7   2  -11.00    6.40
  -2  -7  -2   -1.60    2.60
  -2  -7  -2   -0.90    5.40
  -2  -7  -2    2.40    5.50
  -2   7  -2   -3.20    2.50
  -2   7  -2    3.10    4.30
  -2   7  -2    2.50    3.70
  -2   7  -2   -5.60    3.70
   2   7   2   -4.80    6.70
  -2   7  -2    0.30    3.90
   3  -7   2   -7.20    6.60
  -3  -7  -2    1.40    3.60
  -3  -7  -2   -6.70    3.60
  -3  -7  -2   -3.50    2.40
  -3   7  -2    1.10    4.60
  -3   7  -2   -3.70    2.30
  -4  -7  -2   -0.90    4.30
   4  -7   2   -2.00    2.80
   4  -8  -2   12.20    3.20
  -4   8   2    9.50    3.10
  -4   8   2   15.10    3.70
  -3  -8   2   22.80    5.40
  -3  -8   2   16.00    5.50
  -3  -8   2   18.80    5.40
   3  -8  -2   21.80    6.40
  -3   8   2   20.20    6.60
  -3   8   2   12.00    4.70
  -3   8   2   13.80    4.80
   2  -8  -2   -8.50    6.50
  -2  -8   2    0.80    2.80
  -2  -8   2   -3.30    5.00
  -2  -8   2   -2.20    6.90
  -2  -8   2    1.60    4.50
  -2  -8   2    3.80    3.10
  -2  -8   2    5.10    8.80
   2  -8  -2   -2.60    3.80
  -2   8   2    1.50    6.70
  -2   8   2    4.90    4.50
  -2   8   2   -1.70    4.50
  -2   8   2   -1.00    3.20
  -1  -8   2  211.08   24.00
  -1  -8   2  191.68   20.30
  -1  -8   2  199.38   18.00
   1  -8  -2  179.78   19.10
  -1  -8   2  177.08   16.40
   1  -8  -2  208.28   23.50
  -1  -8   2  216.58   18.10
   1  -8  -2  206.78   21.20
  -1  -8   2  195.18   22.70
  -1  -8   2  238.78   25.80
  -1   8   2  232.78   18.20
   1   8  -2  199.48   18.60
  -1   8   2  255.87   23.90
  -1   8   2  217.28   20.80
   0  -8  -2    7.70    4.30
   0  -8   2    3.80    6.30
   0  -8  -2    5.10    5.10
   0  -8  -2   12.80   10.60
   0  -8   2   13.80   10.40
   0  -8   2    3.60    2.70
   0  -8  -2    6.90    4.70
   0  -8   2    6.50    5.80
   0   8   2    4.10    2.50
   0   8  -2    2.90    3.00
  -1  -8  -2   13.80    4.60
  -1  -8  -2   15.90    4.30
   1  -8   2   20.10    8.60
  -1  -8  -2   19.60    8.00
  -1  -8  -2    9.40    4.50
   1  -8   2    4.20    5.50
  -1  -8  -2    8.40    6.70
   1  -8   2   20.70   11.10
  -1  -8  -2   10.40    4.60
  -1   8  -2   17.20    4.70
   1   8   2    8.10    2.80
  -1   8  -2   25.10    6.00
   2  -8   2   36.50   11.00
  -2  -8  -2   31.50    6.60
  -2  -8  -2   43.00    8.90
  -2  -8  -2   48.50    9.80
  -2  -8  -2   22.40    8.10
  -2  -8  -2   54.09   12.00
  -2  -8  -2   57.79    8.90
  -2   8  -2   30.80   10.50
  -2   8  -2   58.19    8.90
  -3  -8  -2    6.40    3.70
   3  -8   2    1.80    3.60
   3  -8   2   17.40    6.70
  -3  -8  -2    4.60    2.90
  -3   8  -2    9.10    4.80
  -3   8  -2   -5.40    4.60
  -3   8  -2   10.90    4.70
   4  -8   2    1.10    2.40
  -3  -9   2  100.49   15.80
  -3  -9   2  132.19   13.10
  -3  -9   2  122.69   11.90
   3  -9  -2  119.89   14.50
  -3   9   2  110.09   13.30
  -3   9   2   86.49   12.70
  -3   9   2  104.49   11.70
   2  -9  -2   85.69   15.40
  -2  -9   2  124.79   18.10
  -2  -9   2  125.19   13.50
  -2  -9   2  131.59   13.90
  -2  -9   2   96.39   16.70
   2  -9  -2   92.69   15.30
  -2   9   2  135.29   21.90
  -2   9   2  130.29   13.10
  -2   9   2  135.89   14.90
  -2   9   2  109.19   13.40
   1  -9  -2  173.28   20.90
  -1  -9   2  148.59   20.80
  -1  -9   2  130.09   18.50
  -1  -9   2  136.59   16.90
   1  -9  -2  135.19   16.70
  -1  -9   2  159.88   14.80
  -1  -9   2  185.98   21.70
  -1  -9   2  150.38   14.80
   1  -9  -2  144.19   17.40
   1  -9  -2  118.99   13.60
   1  -9  -2  120.69   15.60
  -1   9   2  158.88   15.00
   1   9  -2  145.89   16.50
  -1   9   2  147.09   14.50
  -1   9   2  160.08   15.90
   0  -9   2   66.09   15.10
   0  -9  -2  100.09   15.40
   0  -9   2   85.99   14.80
   0  -9  -2   84.79   10.70
   0  -9  -2   96.19   12.10
   0  -9   2   82.29   10.50
   0  -9   2   86.29   18.70
   0  -9  -2   72.49   11.80
   0  -9  -2   79.49   10.40
   0  -9  -2   64.59   15.20
   0  -9   2   81.59   13.40
   0  -9   2   51.19    9.30
   0  -9   2   99.49   17.20
   0   9  -2   69.39   10.70
   0   9   2   74.09   10.00
  -1  -9  -2   -4.80    3.10
  -1  -9  -2   -3.70    2.50
  -1  -9  -2   -0.60    5.30
   1  -9   2    7.30    8.80
  -1  -9  -2   -0.60    3.40
   1  -9   2    3.60    7.60
   1  -9   2   -5.60    3.80
  -1  -9  -2   -0.70    4.90
   1   9   2   -6.50    2.90
  -1   9  -2   -8.40    4.20
  -1   9  -2   -2.80    2.70
  -2  -9  -2  125.69   14.60
  -2  -9  -2  115.29   14.90
   2  -9   2  115.79   16.30
  -2  -9  -2  130.09   13.30
  -2  -9  -2  132.99   14.30
   2  -9   2  110.49   18.80
   2  -9   2  136.59   33.70
  -2   9  -2  139.79   15.30
  -2   9  -2  137.59   14.10
  -2   9  -2  179.48   25.50
  -2   9  -2  145.89   14.00
   3  -9   2    1.70    3.80
  -3  -9  -2   -2.70    2.20
  -3  -9  -2   -2.50    3.80
  -3  -9  -2   -3.30    5.60
  -3   9  -2    3.90    3.30
  -3 -10   2  257.07   19.50
  -3 -10   2  201.08   22.80
  -3 -10   2  247.58   20.20
   3 -10  -2  268.57   21.80
  -3  10   2  198.68   20.40
  -3  10   2  241.08   20.40
   2 -10  -2   15.10    6.00
  -2 -10   2   40.50   11.20
   2 -10  -2   26.10    8.10
  -2 -10   2   20.60    5.60
  -2 -10   2   20.70    5.30
  -2 -10   2    8.80    6.20
  -2 -10   2    8.50    6.50
  -2  10   2   25.70    7.50
  -2  10   2   19.70    5.70
  -2  10   2   12.40    9.80
  -1 -10   2  385.36   38.40
   1 -10  -2  397.36   43.00
  -1 -10   2  421.86   32.20
   1 -10  -2  355.56   30.00
  -1 -10   2  438.06   35.40
   1 -10  -2  440.96   38.30
   1 -10  -2  429.46   33.20
  -1 -10   2  364.66   37.00
  -1 -10   2  442.96   34.90
  -1 -10   2  423.26   40.70
  -1  10   2  412.16   31.40
  -1  10   2  408.26   31.90
  -1  10   2  386.06   34.30
   0 -10  -2   60.09    8.20
   0 -10  -2   51.69    8.40
   0 -10  -2   64.69   11.10
   0 -10  -2   69.39   15.10
   0 -10   2   64.39   13.20
   0 -10  -2   54.69    9.00
   0 -10  -2   63.89   12.60
   0 -10   2   66.19   17.80
   0 -10   2   70.69   16.10
   0 -10   2   43.80   11.30
   0 -10   2   59.69    9.30
   0 -10   2   41.20    8.60
   0 -10   2   70.49   11.10
   0  10   2   32.00   10.40
   0  10   2   58.49    8.20
  -1 -10  -2  150.78   24.90
   1 -10   2  131.39   16.80
   1 -10   2  169.88   41.10
  -1 -10  -2  169.48   21.90
  -1 -10  -2  158.08   16.30
   1 -10   2  148.69   20.50
  -1 -10  -2  150.28   14.70
  -1 -10  -2  149.69   16.80
   1 -10   2  130.19   19.20
  -1  10  -2  157.78   15.60
  -1  10  -2  162.18   22.00
  -2 -10  -2   19.30    5.70
   2 -10   2   27.00    8.90
   2 -10   2   10.90    5.30
  -2 -10  -2   23.20    5.60
   2 -10   2   31.30   14.60
  -2 -10  -2   20.10    6.00
  -2  10  -2   16.40    5.70
  -2  10  -2   18.00    5.80
  -2  10  -2    4.00    6.40
  -3 -10  -2   -0.20    3.60
  -3 -10  -2    1.60    2.40
  -3 -10  -2    2.80    3.10
   3 -10   2    5.30    4.10
  -3  10  -2    7.90    3.80
  -3 -11   2   19.00    5.20
  -3 -11   2   18.10    4.60
   3 -11  -2   18.60    5.40
   3 -11  -2   23.30    5.80
  -3  11   2   18.30    5.10
  -3  11   2   20.10    5.10
   2 -11  -2  179.58   16.80
  -2 -11   2  179.78   17.20
  -2 -11   2  185.98   19.10
   2 -11  -2  198.68   20.40
   2 -11  -2  177.18   19.50
  -2 -11   2  151.28   21.70
  -2  11   2  169.68   18.10
  -2  11   2  194.18   18.20
  -2  11   2  161.18   27.10
  -1 -11   2   -2.00    4.80
  -1 -11   2   -5.60    5.00
  -1 -11   2    0.80    2.80
   1 -11  -2    1.30    3.80
   1 -11  -2    2.90    3.60
   1 -11  -2    8.50    7.40
  -1 -11   2    0.40    4.00
  -1 -11   2    2.00    5.00
   1 -11  -2   -5.50    4.20
  -1  11   2   -2.80    3.10
  -1  11   2   -1.70    2.90
   0 -11  -2    0.80    4.40
   0 -11   2   -2.40    4.30
   0 -11   2    8.00    7.50
   0 -11  -2    4.80    3.60
   0 -11   2    4.00    6.10
   0 -11   2    0.80    4.20
   0 -11  -2    0.90    6.10
   0 -11  -2    3.80    3.70
   0 -11  -2   -4.60    2.80
   0 -11  -2    3.70    4.40
   0 -11   2   -5.20    4.50
   0  11  -2    2.00    3.20
   0  11   2    4.10    3.70
   1 -11   2    7.50    6.30
   1 -11   2    3.90    7.60
  -1 -11  -2   -2.60    4.60
  -1 -11  -2   -0.10    3.90
  -1 -11  -2    4.40    3.60
  -1 -11  -2    4.20    2.90
  -1 -11  -2    4.20    3.50
   1 -11   2    2.90    4.00
  -1  11  -2    1.40    2.80
  -1  11  -2   -5.20    5.50
  -2 -11  -2    1.80    4.70
  -2 -11  -2    2.80    3.30
   2 -11   2    4.70    5.80
  -2 -11  -2    4.60    3.20
  -2 -11  -2   -0.10    3.20
  -2 -11  -2    2.00    3.30
   2 -11   2    4.10    4.80
  -2  11  -2    1.50    3.10
  -2  11  -2    2.80    3.20
  -2  11  -2   -6.30    8.80
  -3 -11  -2   53.19    6.70
   3 -11   2   78.49   10.50
  -3 -11  -2   40.20    6.50
   3 -11   2   61.79    9.80
  -3 -11  -2   50.39    7.00
  -3  11  -2   67.19    8.50
   3 -12  -2    3.30    2.20
  -3 -12   2    0.80    4.80
  -3 -12   2   -2.20    2.00
   3 -12  -2    1.00    2.30
  -3 -12   2    2.50    2.10
  -3  12   2   -1.50    3.40
  -3  12   2    1.90    2.30
  -2 -12   2  191.88   16.70
   2 -12  -2  153.58   15.50
  -2 -12   2  134.59   20.40
   2 -12  -2  201.38   19.20
  -2 -12   2  178.48   17.50
   2 -12  -2  189.48   18.70
  -2  12   2  174.88   17.50
  -2  12   2  184.68   17.40
  -1 -12   2  159.18   15.20
   1 -12  -2  170.48   14.80
   1 -12  -2  162.18   20.90
  -1 -12   2  141.99   21.90
   1 -12  -2  177.78   19.80
  -1 -12   2  168.18   18.90
   1 -12  -2  166.08   17.40
  -1 -12   2  130.99   20.90
  -1 -12   2  181.58   17.60
   1  12  -2  128.49   13.70
  -1  12   2  150.78   15.50
  -1  12   2  161.08   16.20
   0 -12   2   55.79   10.20
   0 -12  -2   75.09   10.30
   0 -12   2   82.99   13.10
   0 -12  -2   85.29   15.70
   0 -12  -2   59.19    9.00
   0 -12  -2   51.99   11.40
   0 -12   2   92.79   19.70
   0 -12   2   72.29    9.10
   0 -12   2   44.10   12.50
   0 -12   2   53.19    9.90
   0 -12  -2   79.69   12.20
   0  12   2   68.69    8.90
   0  12  -2   71.39    9.10
  -1 -12  -2   31.40    6.00
  -1 -12  -2   42.80    9.40
   1 -12   2   34.80    9.40
  -1 -12  -2   24.80    6.30
  -1 -12  -2   34.90    8.30
   1 -12   2   31.60    8.20
  -1 -12  -2   30.90    6.30
   1 -12   2   40.30   12.30
  -1  12  -2   26.40   11.00
  -1  12  -2   39.60    8.20
   2 -12   2   -0.30    3.90
  -2 -12  -2    0.00    5.00
  -2 -12  -2   -0.90    2.00
   2 -12   2    7.00    5.80
  -2 -12  -2   -0.10    3.00
  -2 -12  -2    1.60    3.50
  -2  12  -2    3.20    3.40
  -2  12  -2    0.30    2.60
  -3 -12  -2  -13.20    8.00
   3 -12   2   -0.60    2.20
  -3 -12  -2    0.60    1.50
   3 -12   2    1.30    2.30
  -3  12  -2    2.10    1.70
   3 -13  -2    9.30    2.40
   3 -13  -2   15.50    3.20
  -3 -13   2   11.90    2.70
  -3  13   2   15.30    3.50
  -2 -13   2    5.30    4.30
   2 -13  -2   19.50    5.50
   2 -13  -2    9.70    3.60
  -2 -13   2   10.90    3.80
  -2 -13   2   15.30    4.30
  -2  13   2   10.20    3.90
  -2  13   2   16.10    4.70
   1 -13  -2    1.20    4.10
   1 -13  -2    2.90    2.70
  -1 -13   2    0.90    3.70
  -1 -13   2   -1.50    2.20
  -1 -13   2    0.60    3.70
  -1 -13   2   -4.00    3.50
  -1 -13   2    3.90    5.20
   1 -13  -2    3.60    3.50
  -1  13   2    2.80    3.30
   1  13  -2   -1.80    2.30
  -1  13   2    4.00    3.30
   0 -13   2   79.39    9.60
   0 -13  -2   37.00   12.60
   0 -13   2   67.39   10.40
   0 -13  -2   95.39   16.00
   0 -13  -2   77.09    9.70
   0  13  -2   59.39    9.50
   0  13   2   56.79    8.30
   0  13   2   75.19   13.70
  -1 -13  -2    4.00    4.30
   1 -13   2    6.40    4.30
  -1 -13  -2    5.50    3.20
  -1 -13  -2    7.60    4.10
   1 -13   2    4.30    5.60
  -1 -13  -2    6.50    5.40
  -1 -13  -2    7.70    4.10
   1 -13   2    4.20    5.70
  -1 -13  -2    1.00    3.00
   1  13   2    4.50    3.30
  -1  13  -2    3.90    2.90
  -1  13  -2   10.10    3.50
   2 -13   2   65.79   10.60
  -2 -13  -2   76.59   10.60
   2 -13   2   60.99   11.60
  -2 -13  -2   63.29    8.60
  -2  13  -2   71.29   11.00
  -2 -14   2   32.30    5.30
   2 -14  -2   34.10    4.80
   2 -14  -2   30.60    6.10
  -2  14   2   31.70    5.70
  -2  14   2   22.70    4.60
  -1 -14   2   16.40    7.00
  -1 -14   2   12.50    4.00
   1 -14  -2   14.80    4.80
   1 -14  -2   17.90    6.80
  -1 -14   2    7.40    4.90
  -1 -14   2   10.60    3.30
  -1 -14   2   17.40    6.20
  -1  14   2   18.00    4.70
   1  14  -2    3.00    3.40
  -1  14   2   11.20    3.70
   0 -14  -2   19.20    5.00
   0 -14  -2   31.50    6.20
   0 -14   2   37.20   12.30
   0 -14  -2   21.30    6.90
   0 -14   2   45.70   10.10
   0 -14  -2   20.30    5.30
   0 -14   2   18.50    5.10
   0  14  -2   26.80    5.80
   0  14   2   29.30    5.70
  -1 -14  -2   -0.20    2.60
  -1 -14  -2    1.60    3.30
   1 -14   2    2.20    3.40
  -1 -14  -2    0.50    2.20
  -1 -14  -2   -2.60    2.90
   1 -14   2    1.90    4.10
   1 -14   2   -3.60    4.20
   1  14   2   -2.20    2.60
  -1  14  -2    3.10    3.00
  -1  14  -2    0.20    2.20
  -2 -14  -2   15.50    4.30
   2 -14   2   21.90    6.30
   2 -14   2   25.30    5.20
  -2 -14  -2   23.50    4.60
  -2  14  -2   20.40    4.10
   2 -15  -2    2.50    1.80
  -2 -15   2   -1.00    1.60
  -2 -15   2   -2.60    2.00
  -2  15   2   -0.60    1.50
  -2  15   2    1.10    2.00
   1 -15  -2    7.50    4.80
  -1 -15   2    3.30    5.10
  -1 -15   2    4.90    4.70
  -1 -15   2    5.30    2.50
   1 -15  -2    7.20    3.70
  -1 -15   2    5.70    4.00
  -1  15   2    5.80    2.80
  -1  15   2    8.00    3.50
   0 -15   2   51.59   12.60
   0 -15   2   61.89   11.20
   0 -15  -2   72.59   10.70
   0 -15   2   78.59   12.80
   0 -15  -2   64.19    8.40
   0 -15  -2   71.69    9.90
   0  15  -2   57.49    8.10
   0  15  -2   45.10    6.60
   0  15   2   56.69    7.80
   1 -15   2   20.00    8.50
  -1 -15  -2    9.20    4.20
  -1 -15  -2    6.20    2.40
   1 -15   2   11.90    3.60
   1 -15   2    2.50    4.40
  -1 -15  -2    5.50    3.30
  -1 -15  -2   16.70    5.30
   1  15   2   18.10    3.50
  -1  15  -2   12.60    3.70
  -1  15  -2   13.40    4.10
  -2 -15  -2    2.10    1.80
   2 -15   2   -0.70    3.00
   2 -15   2   -1.20    1.70
  -2 -15  -2    7.00    3.00
  -2  15  -2   -1.30    3.10
  -2  15  -2   -0.50    1.50
  -1 -16   2   -4.10    2.70
  -1 -16   2   -0.80    1.30
   1 -16  -2    0.80    2.30
   1 -16  -2    1.50    2.00
   1  16  -2    0.50    1.70
  -1  16   2    0.80    1.70
   0 -16   2   18.80    5.50
   0 -16  -2   15.70    3.30
   0 -16  -2   13.90    4.00
   0 -16  -2   14.10    5.00
   0  16  -2   10.60    3.00
   0  16  -2   12.20    3.20
   0  16   2   14.40    3.50
  -1 -16  -2   -3.40    1.70
  -1 -16  -2   -1.30    1.90
   1 -16   2   -1.20    2.30
  -1  16  -2   -0.30    1.80
  -1  16  -2   -0.60    1.80
  -4   0   3   -5.90    3.50
  -4   0   3    2.90    4.00
  -4   0   3   -1.10    2.90
  -3   0   3    8.40    7.00
  -3   0   3    1.10    3.40
  -3   0   3    0.80    3.90
  -3   0   3    2.80    4.90
  -3   0   3    0.00    3.40
  -3   0   3   -5.50    5.10
  -3   0   3   -1.30    2.80
  -2   0   3    0.00    2.00
  -1   0   3   -1.00    1.90
  -1   0   3    0.80    1.40
  -1   0   3    0.00    0.90
   1   0  -3    1.40    1.20
  -1   0   3    0.90    1.80
   0   0   3   -0.90    1.10
   0   0  -3   -0.30    0.90
   0   0  -3    1.00    1.70
   0   0   3    0.80    1.80
   0   0   3    1.40    1.30
   1   0   3   -0.10    1.50
  -2   0  -3    0.00    2.90
  -3   0  -3   -3.50    5.80
  -3   0  -3   -0.70    3.50
  -3   0  -3   -1.00    3.40
  -4   0  -3   -0.60    2.50
  -4   0  -3   -1.50    2.40
  -4  -1   3   11.80    5.30
  -4  -1   3    6.90    3.90
  -4   1   3   12.70    4.80
  -4   1   3    7.90    3.80
  -4   1   3   17.50    5.80
  -3  -1   3   17.00    5.80
  -3  -1   3    4.30    5.10
  -3  -1   3    5.40    7.90
  -3  -1   3   11.60    4.70
  -3  -1   3    4.80    6.30
  -3  -1   3   14.50    4.90
  -3  -1   3   16.40    6.60
  -3  -1   3   17.20    6.30
  -3   1   3   20.30    8.10
  -3   1   3   20.60    5.80
  -3   1   3   18.00    5.70
  -3   1   3   11.50    5.40
  -3   1   3   17.50    7.90
  -3   1   3    7.90    7.20
  -3   1   3   17.00    4.90
  -2  -1   3    9.20    4.20
  -2   1   3    7.40    3.80
  -2   1   3   13.70    5.00
  -1  -1   3   23.00    4.40
  -1  -1   3   22.30    2.90
  -1  -1   3   22.10    3.40
   1   1  -3   27.10    3.70
  -1   1   3   25.00    2.70
  -1   1   3   17.00    3.70
  -1   1   3   20.80    4.50
   0  -1  -3   27.80    3.70
   0  -1   3   23.50    3.80
   0   1  -3   23.80    3.70
  -1  -1  -3  400.16   29.30
   1  -1   3  428.46   27.30
  -1   1  -3  407.26   30.60
   1   1   3  359.16   27.50
  -2  -1  -3 1501.15   94.39
  -2  -1  -3 1296.17   91.09
  -2  -1  -3 1265.87   90.69
   2  -1   3 1566.74   88.49
  -2   1  -3 1460.05   94.99
  -2   1  -3 1263.87   89.09
  -2   1  -3 1300.17   92.49
   2   1   3 1487.75   90.49
  -3  -1  -3   12.90    6.10
  -3  -1  -3   11.30    6.30
  -3  -1  -3   13.70    5.50
  -3   1  -3    7.60    4.80
  -3   1  -3    5.00    7.10
  -3   1  -3   13.10    5.10
  -4  -1  -3    6.30    4.20
  -4  -1  -3    5.40    3.30
  -4   1  -3    4.70    2.70
  -4   1  -3    9.10    4.70
  -4  -2   3   14.70    5.50
  -4  -2   3    9.20    4.10
  -4   2   3   13.70    4.60
  -4   2   3    7.30    4.20
  -4   2   3   19.40    6.50
  -3  -2   3  338.27   28.50
  -3  -2   3  317.67   24.60
  -3  -2   3  304.17   29.70
  -3  -2   3  316.97   26.00
  -3   2   3  279.87   29.70
  -3   2   3  293.37   27.20
  -3   2   3  261.27   25.80
  -3   2   3  297.67   24.30
  -3   2   3  310.67   30.50
  -3   2   3  316.47   28.90
  -3   2   3  334.87   27.40
  -3   2   3  315.67   26.30
  -2  -2   3    0.70    2.40
  -2  -2   3   -0.50    2.20
  -2   2   3   -0.70    3.10
  -2   2   3    0.50    2.70
   2   2  -3   -0.70    1.50
  -1  -2   3  390.76   27.60
  -1  -2   3  441.86   29.80
  -1   2   3  436.26   27.40
  -1   2   3  442.06   29.50
   1   2  -3  445.66   28.40
   0  -2   3 2592.84  156.38
   0   2  -3 2502.05  156.28
   0   2  -3 2283.07  156.08
   0   2   3 2831.62  155.18
  -1  -2  -3    1.40    2.20
   1  -2   3    1.60    1.60
  -1   2  -3    4.80    3.30
   1   2   3    8.70    4.10
  -2  -2  -3   64.69    9.90
   2  -2   3   75.09    9.00
  -2  -2  -3   73.69   10.50
  -2   2  -3   74.39    9.60
  -2   2  -3   79.59   12.50
  -2   2  -3   71.39    8.40
  -3  -2  -3  138.39   15.60
  -3  -2  -3  157.98   20.90
  -3  -2  -3  132.09   16.20
  -3   2  -3  128.39   20.60
  -3   2  -3  138.79   15.00
  -3   2  -3  153.78   16.90
  -4  -2  -3    4.60    3.20
  -4  -2  -3    2.30    3.20
  -4   2  -3    1.60    2.90
  -4   2  -3    1.10    2.20
  -4  -3   3   -0.70    3.20
  -4  -3   3    8.70    5.10
  -4   3   3    4.90    3.50
  -4   3   3    8.60    4.70
  -4   3   3    1.90    2.80
  -4   3   3    4.00    3.70
  -3  -3   3  -10.50    6.20
  -3  -3   3   -4.40    3.00
  -3  -3   3    5.80    6.00
  -3  -3   3    2.40    4.10
   3  -3  -3   -8.00    6.20
  -3  -3   3    0.90    3.80
  -3  -3   3   -6.30    2.90
  -3  -3   3   -4.20    4.00
  -3   3   3   -0.30    2.90
  -3   3   3   -3.10    3.80
  -3   3   3    0.40    5.40
  -3   3   3   -1.30    3.40
  -3   3   3    2.30    7.00
  -3   3   3    2.00    3.20
  -2  -3   3  811.72   59.69
  -2  -3   3  849.41   56.79
  -2  -3   3  858.21   59.49
   2   3  -3  913.01   55.59
  -2   3   3  835.52   57.79
  -2   3   3  890.11   59.99
  -2   3   3  825.32   61.19
  -2   3   3  921.61   59.09
  -1  -3   3  783.72   52.09
  -1  -3   3  754.52   50.39
   1   3  -3  812.72   51.09
  -1   3   3  848.62   51.89
   0  -3   3   99.59    8.80
   0   3   3  104.29   11.40
   0   3  -3  124.39   11.10
   0   3   3  100.39    7.20
   1  -3   3  100.49    9.00
  -1   3  -3   88.39   11.30
  -1   3  -3   93.79    9.20
  -2  -3  -3   13.10    5.30
  -2  -3  -3    8.90    5.60
  -2  -3  -3    9.50    3.60
  -2   3  -3   19.20   10.30
  -2   3  -3   16.10    4.70
  -2   3  -3   18.10    5.10
  -3  -3  -3   31.70    8.70
  -3  -3  -3   26.30    7.90
  -3  -3  -3   24.10    7.40
  -3   3  -3   34.50    8.40
  -3   3  -3   25.80    6.50
   3   3   3   33.90   12.40
  -3   3  -3   14.20    7.10
  -4  -3  -3   10.40    4.40
  -4  -3  -3   11.50    4.30
  -4   3  -3    5.40    2.90
  -4   3  -3    9.90    5.60
  -4  -4   3    1.00    3.60
  -4  -4   3   -3.10    4.00
  -4  -4   3    2.00    4.40
  -4   4   3   11.40    5.00
  -4   4   3   -2.40    2.50
  -4   4   3    0.20    2.90
  -4   4   3    1.30    3.10
   3  -4  -3   10.40    6.00
  -3  -4   3   22.20    6.50
  -3  -4   3   32.60    9.40
  -3  -4   3   20.20    5.40
  -3  -4   3   26.90    6.50
  -3  -4   3   42.30    7.70
  -3   4   3   30.50    7.40
  -3   4   3   27.80    7.10
  -3   4   3   28.60    7.10
  -3   4   3   37.60   15.70
  -2  -4   3  113.99   12.80
  -2  -4   3   70.19    9.90
  -2  -4   3   84.09   11.30
  -2  -4   3   89.89   10.50
  -2   4   3   88.19    9.70
   2   4  -3   86.49    9.30
  -2   4   3   86.89   13.70
  -2   4   3   92.89   11.90
  -2   4   3   96.79   11.70
  -2   4   3   88.29   10.40
  -2   4   3   99.99   11.70
  -1  -4   3  406.66   29.70
   1   4  -3  437.56   29.20
  -1   4   3  421.06   27.40
  -1   4   3  433.36   29.20
  -1   4   3  440.56   39.90
   0  -4   3   91.79    8.70
   0   4  -3  104.19    9.10
   0   4   3  104.89   11.90
   1  -4   3  263.87   20.10
  -1  -4  -3  323.57   23.20
  -1   4  -3  278.47   20.80
  -1   4  -3  253.37   23.40
  -2  -4  -3    1.70    3.40
  -2  -4  -3    5.10    4.60
  -2  -4  -3    5.30    4.60
  -2  -4  -3    4.40    3.20
  -2  -4  -3    2.70    4.90
  -2   4  -3    4.90    4.00
  -2   4  -3    9.70    4.50
  -2   4  -3   -0.50    2.30
  -2   4  -3    2.00    3.50
  -2   4  -3    3.10    4.30
   2   4   3    5.30    4.80
  -3  -4  -3   10.30    5.10
   3  -4   3    5.60    7.40
  -3  -4  -3    9.30    5.80
  -3  -4  -3    3.40    3.60
  -3   4  -3   12.60    5.90
  -3   4  -3    9.40    6.90
  -3   4  -3    8.80    5.30
  -3   4  -3   12.40    4.50
   3   4   3    9.10    9.90
  -3   4  -3   12.20    4.30
  -4  -4  -3    1.50    2.50
  -4  -4  -3    2.10    3.20
  -4   4  -3    9.40    6.50
  -4   4  -3    1.30    3.00
  -4  -5   3   -3.30    3.10
  -4  -5   3   -5.00    4.30
  -4   5   3    0.00    2.70
  -4   5   3    4.70    5.90
  -4   5   3   -2.40    2.30
  -3  -5   3   18.50    4.90
   3  -5  -3   11.50    5.80
  -3  -5   3   44.10    8.40
  -3  -5   3   23.40    7.20
  -3  -5   3   19.40    9.00
  -3  -5   3   22.60    5.60
  -3   5   3   27.40    7.00
  -3   5   3   13.80   10.70
  -3   5   3   33.30    8.00
  -2  -5   3   -0.70    2.50
   2  -5  -3   -3.80    5.20
  -2  -5   3    0.40    2.60
  -2   5   3    1.10    3.00
   2   5  -3    1.10    6.10
  -2   5   3    3.10    4.10
  -2   5   3    1.40    3.90
  -1  -5   3   26.60    5.00
   1   5  -3   18.60    4.00
  -1   5   3   24.40    3.50
  -1   5   3   17.00    7.40
   0  -5   3   76.89    8.10
   0   5   3   80.19   11.10
   0   5  -3   90.39    8.50
   1  -5   3   52.69    7.10
  -1   5  -3   53.69    7.40
  -1   5  -3   62.09   10.00
  -2  -5  -3    9.30    5.80
  -2  -5  -3   29.60    8.00
  -2  -5  -3   12.40    7.20
  -2  -5  -3   19.10    5.40
  -2  -5  -3   14.40    3.80
  -2  -5  -3   19.80    6.60
  -2  -5  -3    8.60    3.90
  -2   5  -3   26.10    6.30
  -2   5  -3   17.70    6.60
  -2   5  -3   16.50    4.80
   2   5   3   32.80    9.20
  -2   5  -3   21.30    6.00
   2   5   3   20.60    5.10
  -3  -5  -3   71.49   15.00
  -3  -5  -3   71.39   10.60
   3  -5   3   39.70   10.60
  -3  -5  -3   52.39    9.60
  -3   5  -3   61.89    8.90
   3   5   3   91.49   20.50
  -3   5  -3   34.60   13.40
  -3   5  -3   56.49   10.30
  -3   5  -3   63.29    8.90
  -4  -5  -3   13.90    4.20
   4  -5   3    4.10    3.50
  -4   5  -3   17.20    4.50
  -4   5  -3   12.00    3.70
  -4  -6   3    9.40    4.00
  -4  -6   3    0.10    3.30
  -4   6   3   10.80    4.40
  -4   6   3   12.00    4.30
  -4   6   3    5.00    3.40
  -3  -6   3  106.39   18.40
  -3  -6   3  124.69   12.60
   3  -6  -3   99.19   14.10
  -3  -6   3  114.39   12.70
  -3  -6   3  130.29   16.40
  -3   6   3   78.49   17.80
  -3   6   3  119.49   14.40
  -3   6   3  123.69   13.90
  -3   6   3  124.09   13.30
  -3   6   3  113.59   14.00
  -2  -6   3  116.79   13.10
  -2  -6   3  116.89   15.80
  -2  -6   3  113.59   17.30
  -2  -6   3  104.49   12.90
  -2  -6   3  110.09   12.40
  -2  -6   3  117.09   18.70
   2   6  -3  116.49   14.40
  -2   6   3  136.49   12.90
  -2   6   3  117.99   13.50
  -2   6   3  116.19   17.30
  -2   6   3  120.19   13.00
  -2   6   3  126.79   13.50
  -1  -6   3   86.49    9.50
   1   6  -3   88.09    9.80
  -1   6   3   96.29    8.30
   0  -6   3 1016.30   60.79
   0   6   3  890.91   66.09
   0   6  -3  923.31   61.29
  -1   6  -3 1134.49   78.99
  -1   6  -3 1167.58   74.69
  -2  -6  -3   53.09   10.10
  -2  -6  -3   39.00    7.40
  -2  -6  -3   49.80    9.80
  -2  -6  -3   41.60    7.80
  -2  -6  -3   67.79    8.20
   2  -6   3   75.49   19.80
  -2  -6  -3   41.80    8.00
   2  -6   3   48.30   11.50
  -2   6  -3   60.99    9.30
   2   6   3   55.99   14.80
  -2   6  -3   70.69    8.50
  -2   6  -3   88.69   18.40
   2   6   3   52.09    8.60
  -2   6  -3   59.59    9.50
  -3  -6  -3   54.39    9.70
  -3  -6  -3   48.00    9.40
  -3   6  -3   65.99    9.40
  -3   6  -3   73.09   14.70
  -3   6  -3   68.29   12.00
  -4  -6  -3    1.30    2.80
   4  -6   3    2.50    2.80
  -4  -6  -3    2.60    2.00
  -4   6  -3   -1.50    3.30
  -4   6  -3    5.60    3.20
   4  -7  -3   82.59    8.40
  -4  -7   3   50.49    9.70
  -4  -7   3   53.89    9.50
  -4   7   3   72.99    7.90
  -4   7   3   64.59    8.20
  -3  -7   3   41.60   10.90
  -3  -7   3   61.89   14.60
   3  -7  -3   35.90   12.00
  -3   7   3   72.09   11.90
  -3   7   3   71.29   17.70
  -3   7   3   58.49   10.90
  -2  -7   3   -0.80    4.00
  -2  -7   3   14.80    9.80
   2  -7  -3   -2.10    3.50
  -2  -7   3    6.30    3.90
  -2  -7   3    9.90    3.90
  -2  -7   3    1.50    3.40
  -2   7   3    3.30    6.10
  -2   7   3    0.30    3.20
  -2   7   3    4.80    4.00
   2   7  -3   16.10    6.40
  -2   7   3   14.80    5.40
  -2   7   3    7.30    4.20
  -1  -7   3   78.79   10.50
   1  -7  -3   74.49   13.60
   1  -7  -3   71.09   10.70
  -1  -7   3  102.29   18.00
  -1  -7   3  102.59   14.40
  -1  -7   3   86.29   10.60
  -1  -7   3   91.79    9.80
   1   7  -3   87.99   10.60
  -1   7   3  102.29    9.30
  -1   7   3   80.89    9.90
   0  -7   3   15.40    3.90
   0   7  -3   15.00    4.30
   0   7   3   12.60    5.90
   0   7   3   12.40    3.60
   1  -7   3  246.08   27.80
  -1  -7  -3  309.77   25.70
  -1  -7  -3  311.47   24.50
  -1  -7  -3  301.37   23.60
  -1  -7  -3  305.37   23.20
   1   7   3  299.57   26.60
  -1   7  -3  323.47   24.40
  -1   7  -3  301.87   28.20
  -1   7  -3  324.57   24.20
   1   7   3  331.87   23.80
   2  -7   3  326.27   39.30
  -2  -7  -3  288.47   23.40
  -2  -7  -3  281.37   24.10
  -2  -7  -3  290.97   24.10
   2  -7   3  309.27   34.90
  -2  -7  -3  274.37   23.80
  -2  -7  -3  312.77   26.30
  -2   7  -3  295.07   24.50
  -2   7  -3  287.67   30.90
  -2   7  -3  334.07   30.20
  -2   7  -3  335.27   24.30
  -3  -7  -3  192.18   19.60
   3  -7   3  219.18   24.70
  -3  -7  -3  229.78   20.50
  -3  -7  -3  209.88   17.20
  -3   7  -3  207.88   19.90
  -3   7  -3  172.78   29.00
  -3   7  -3  216.48   18.20
  -4  -7  -3   10.10    2.50
   4  -7   3    3.10    3.50
  -4  -7  -3   10.30    4.50
   4  -8  -3   37.30    5.30
  -4   8   3   42.30    7.50
  -3  -8   3   45.70    7.90
   3  -8  -3   31.80    7.20
  -3  -8   3   29.10    7.60
  -3  -8   3   38.50    7.20
  -3   8   3   48.20    9.20
  -3   8   3   33.30    7.20
  -3   8   3   35.90    7.60
  -2  -8   3  198.88   24.30
  -2  -8   3  176.18   17.20
   2  -8  -3  163.48   18.70
   2  -8  -3  156.48   20.50
  -2  -8   3  161.68   18.70
  -2  -8   3  209.48   22.80
  -2  -8   3  178.18   17.00
  -2  -8   3  191.78   21.50
  -2   8   3  181.28   18.30
  -2   8   3  164.98   24.70
  -2   8   3  175.58   17.30
  -1  -8   3   34.40   11.10
  -1  -8   3   23.70    5.00
   1  -8  -3   21.60    6.30
  -1  -8   3   46.60   11.10
  -1  -8   3   27.50    9.60
   1  -8  -3   28.10    6.50
  -1  -8   3   33.00    7.10
  -1  -8   3   18.60    4.80
  -1  -8   3   25.80    7.00
  -1   8   3   30.10    5.80
  -1   8   3   35.50    7.10
  -1   8   3   36.70    7.50
   0  -8   3   35.70    9.70
   0  -8   3   67.59   14.10
   0  -8   3   46.00    6.80
   0  -8  -3   50.89    7.10
   0  -8  -3   48.30    8.20
   0  -8  -3   45.60    8.90
   0  -8   3   64.49   15.90
   0  -8  -3   51.99    9.90
   0  -8  -3   69.89   14.80
   0   8   3   42.20    9.90
   0   8  -3   42.30    7.50
   0   8   3   51.59    7.30
  -1  -8  -3  224.08   20.30
  -1  -8  -3  218.68   19.00
  -1  -8  -3  237.28   21.50
  -1  -8  -3  222.78   19.00
   1  -8   3  186.78   24.00
   1  -8   3  276.97   30.90
  -1  -8  -3  247.28   20.00
   1   8   3  272.87   21.30
  -1   8  -3  243.48   20.40
  -1   8  -3  234.98   24.90
  -1   8  -3  258.47   21.50
   1   8   3  233.38   23.10
   2  -8   3   12.00   14.00
  -2  -8  -3   44.20    9.50
  -2  -8  -3   29.30    7.40
  -2  -8  -3   35.50    6.70
  -2  -8  -3   27.60    5.90
   2  -8   3   24.90    9.10
  -2  -8  -3   22.50    6.10
  -2   8  -3   16.30    7.00
  -2   8  -3   17.20    6.50
  -2   8  -3   35.80    7.60
  -2   8  -3   42.70    8.00
  -3  -8  -3    9.20    6.00
  -3  -8  -3   14.90    5.70
  -3  -8  -3   19.10    4.50
   3  -8   3    7.40    6.90
  -3  -8  -3   12.20    5.10
  -3   8  -3   23.40    6.20
  -3   8  -3   13.30    4.80
  -3   8  -3   -4.90    9.60
   3  -9  -3  103.09   12.80
  -3  -9   3   81.09   10.70
  -3  -9   3   93.49   10.40
  -3  -9   3   86.69   14.30
  -3   9   3   74.09   11.30
  -3   9   3  106.89   12.40
  -3   9   3   76.79    9.70
  -2  -9   3   33.50   10.20
   2  -9  -3   17.40    6.60
  -2  -9   3   31.00    6.60
  -2  -9   3   15.10    7.80
  -2  -9   3   26.70    6.40
   2  -9  -3   28.40    9.20
  -2   9   3   30.70    7.20
  -2   9   3   12.70    9.20
  -2   9   3   26.90    6.30
  -2   9   3   20.30    6.20
   1  -9  -3  150.38   18.50
  -1  -9   3  193.08   24.80
  -1  -9   3  170.08   22.60
  -1  -9   3  169.28   16.40
   1  -9  -3  201.78   23.20
  -1  -9   3  195.48   17.50
   1  -9  -3  183.08   18.30
   1  -9  -3  161.78   19.20
  -1  -9   3  171.08   21.80
  -1  -9   3  186.48   20.20
   1  -9  -3  163.38   16.20
  -1   9   3  178.68   17.00
  -1   9   3  181.78   17.00
  -1   9   3  181.28   16.80
   0  -9   3   75.59   15.40
   0  -9   3   49.30    8.10
   0  -9  -3   68.39   11.60
   0  -9   3   53.19   12.20
   0  -9   3   65.89   10.70
   0  -9  -3   57.29    9.10
   0  -9   3   66.39   10.30
   0  -9  -3   74.79   13.20
   0  -9  -3   65.39    9.00
   0  -9  -3   72.19   13.30
   0  -9   3   70.49   16.70
   0  -9  -3   85.39   17.20
   0   9   3   76.99    9.70
  -1  -9  -3   30.40    6.10
   1  -9   3   30.20    9.60
  -1  -9  -3   48.80    7.90
  -1  -9  -3   34.90    6.50
   1  -9   3   32.60   12.70
   1  -9   3   26.40    7.10
   1  -9   3   36.40   16.40
  -1  -9  -3   42.90    9.30
  -1  -9  -3   48.00    9.30
  -1   9  -3   29.20    8.80
  -1   9  -3   44.30    8.90
  -1   9  -3   43.80    7.00
  -2  -9  -3    5.80    6.50
   2  -9   3  -10.70    8.50
  -2  -9  -3   -6.00    2.70
   2  -9   3   -4.00    5.10
  -2  -9  -3   -0.10    2.30
  -2  -9  -3   -4.80    3.30
  -2  -9  -3    0.90    2.50
  -2  -9  -3   15.50    8.50
  -2   9  -3    1.20    3.10
  -2   9  -3   -2.00    3.20
  -2   9  -3   -0.80    3.20
  -2   9  -3   -2.90    5.40
  -3  -9  -3    1.40    4.20
   3  -9   3    3.10    3.90
  -3  -9  -3    3.80    5.50
  -3  -9  -3    2.40    2.40
   3  -9   3   -6.80    4.90
  -3  -9  -3    3.10    2.90
  -3   9  -3    5.50    3.90
   3 -10  -3   24.20    5.70
  -3 -10   3   12.50    5.70
  -3 -10   3   24.20    4.80
  -3 -10   3   25.60    5.70
   3 -10  -3   18.90    4.40
  -3  10   3   35.00    7.20
  -3  10   3   21.40    5.60
   2 -10  -3   -1.40    4.90
   2 -10  -3    6.30    3.60
   2 -10  -3    4.10    3.80
  -2 -10   3    0.20    3.50
  -2 -10   3   12.30    7.00
  -2 -10   3    4.10    2.80
  -2 -10   3    6.40    4.90
  -2  10   3    7.90    4.10
  -2  10   3    4.90   10.00
  -2  10   3    3.90    3.60
  -1 -10   3  181.98   18.00
  -1 -10   3  177.48   23.40
   1 -10  -3  228.28   24.70
  -1 -10   3  200.88   19.30
  -1 -10   3  202.88   26.70
  -1 -10   3  219.88   25.30
   1 -10  -3  197.18   19.50
   1 -10  -3  202.28   17.90
  -1  10   3  198.38   20.90
  -1  10   3  205.28   18.80
   0 -10  -3  323.07   25.20
   0 -10   3  307.77   35.10
   0 -10  -3  337.17   27.50
   0 -10   3  235.68   30.30
   0 -10  -3  364.36   32.80
   0 -10  -3  268.57   26.50
   0 -10   3  304.57   25.70
   0 -10  -3  295.37   23.90
   0 -10   3  307.57   29.70
   0 -10   3  336.27   32.20
   0 -10   3  305.47   26.20
   0 -10   3  289.87   24.30
   0 -10  -3  320.37   23.20
   0  10   3  273.87   23.30
  -1 -10  -3   14.30    6.50
   1 -10   3    3.00    4.40
   1 -10   3   -4.40    7.70
  -1 -10  -3    9.40    3.50
  -1 -10  -3   -1.20    4.40
  -1 -10  -3   10.90    3.80
  -1 -10  -3    7.30    4.60
   1 -10   3    9.40    6.00
  -1  10  -3    7.00    5.50
  -1  10  -3   15.70    5.50
  -2 -10  -3   17.90    5.00
   2 -10   3   14.50    5.90
  -2 -10  -3   21.80    6.40
   2 -10   3   30.00    9.10
   2 -10   3   36.80   12.30
  -2 -10  -3   16.00    4.50
  -2 -10  -3   19.90    6.10
  -2  10  -3   18.80    6.10
  -2  10  -3   28.50   10.50
  -2  10  -3   24.80    6.50
  -3 -10  -3   24.70    5.10
   3 -10   3   18.70    5.60
  -3 -10  -3   15.10    4.20
   3 -10   3   25.90    7.40
  -3 -11   3    6.90    3.10
  -3 -11   3    1.60    4.10
  -3 -11   3    9.50    3.00
   3 -11  -3   10.10    3.40
   3 -11  -3   13.30    4.10
  -3  11   3   16.20    5.20
  -3  11   3   13.10    4.00
   2 -11  -3  819.62   55.59
  -2 -11   3  757.02   52.99
  -2 -11   3  633.04   57.89
   2 -11  -3  832.02   55.49
  -2 -11   3  808.12   61.69
  -2 -11   3  792.52   54.19
  -2  11   3  806.12   54.69
  -2  11   3  744.03   54.69
  -2  11   3  687.03   65.39
  -1 -11   3  368.36   36.80
   1 -11  -3  317.87   30.30
  -1 -11   3  363.36   31.30
  -1 -11   3  351.46   27.70
   1 -11  -3  356.96   26.90
  -1 -11   3  292.97   33.40
  -1 -11   3  366.46   37.60
  -1 -11   3  366.76   29.00
   1 -11  -3  359.96   29.30
  -1  11   3  335.37   28.00
  -1  11   3  352.16   28.20
   0 -11   3  131.19   21.90
   0 -11   3  170.08   17.80
   0 -11  -3  183.08   15.60
   0 -11  -3  184.08   16.70
   0 -11   3  172.58   18.50
   0 -11  -3  214.18   24.30
   0 -11  -3  194.38   19.80
   0 -11   3  177.98   23.80
   0 -11   3  166.08   18.30
   0 -11  -3  180.78   17.30
   0 -11   3  197.38   22.70
   0 -11  -3  170.58   19.40
   0 -11   3  188.88   26.10
   0  11   3  155.28   16.70
   0  11   3  188.28   16.60
   0  11  -3  156.58   16.10
   1 -11   3  444.76   45.20
   1 -11   3  470.25   41.00
  -1 -11  -3  478.75   34.40
   1 -11   3  483.25   40.40
  -1 -11  -3  435.96   36.00
   1 -11   3  413.96   35.80
  -1 -11  -3  480.25   34.30
  -1 -11  -3  446.36   36.90
  -1  11  -3  423.26   43.70
  -1  11  -3  486.95   35.90
   2 -11   3   21.30    6.50
  -2 -11  -3   35.20    7.50
  -2 -11  -3   43.80    8.30
  -2 -11  -3   20.80    4.70
   2 -11   3   40.50   11.20
  -2 -11  -3   32.40    6.20
   2 -11   3   39.80   11.00
  -2  11  -3   33.60    6.80
  -2  11  -3   44.40    9.00
   3 -11   3    2.00    3.20
  -3 -11  -3   -0.80    2.20
  -3 -11  -3   -0.70    1.90
  -3  11  -3    2.10    2.60
   3 -12  -3   13.80    3.30
  -3 -12   3    9.10    3.10
  -3 -12   3    3.50    3.80
  -3 -12   3   12.30    3.10
   3 -12  -3   11.20    2.90
  -3  12   3    5.90    2.60
  -3  12   3    9.90    3.60
   2 -12  -3   27.60    7.70
  -2 -12   3   36.20    7.00
  -2 -12   3   20.40    5.60
   2 -12  -3   27.20    5.60
  -2 -12   3   17.60    7.10
   2 -12  -3   30.10    7.20
  -2  12   3   30.30    7.20
  -2  12   3   28.30    6.50
  -1 -12   3    8.40    6.60
  -1 -12   3    6.90    4.60
   1 -12  -3    8.10    4.10
   1 -12  -3    9.70    5.40
  -1 -12   3    1.50    5.20
  -1 -12   3    7.50    3.70
   1 -12  -3    2.60    3.10
  -1 -12   3    2.90    4.80
  -1  12   3    8.50    3.60
  -1  12   3    4.00    4.00
   0 -12  -3   -2.90    1.90
   0 -12  -3    1.80    3.00
   0 -12  -3    0.30    2.90
   0 -12   3    7.50    6.80
   0 -12   3    6.20    4.70
   0 -12   3   -5.10    3.20
   0 -12   3    0.80    3.70
   0 -12  -3   -3.70    3.40
   0 -12   3    2.90    6.70
   0 -12   3    3.80    4.00
   0 -12  -3   -4.90    2.70
   0  12  -3    0.70    2.30
   0  12   3   -3.10    2.40
  -1 -12  -3   11.90    7.90
   1 -12   3   11.40    5.00
   1 -12   3   12.90    7.60
  -1 -12  -3    9.30    5.10
   1 -12   3    3.80    5.90
  -1 -12  -3   12.80    4.60
  -1 -12  -3   13.20    4.10
  -1 -12  -3    8.70    3.80
  -1 -12  -3    6.40    4.70
  -1  12  -3    9.70    4.20
  -1  12  -3   -1.70   10.60
   1  12   3    3.20    4.40
  -2 -12  -3   14.30    3.70
  -2 -12  -3   28.70    6.60
   2 -12   3   18.30    6.30
   2 -12   3   21.10    8.20
  -2 -12  -3   23.80    6.00
  -2  12  -3   21.50    5.40
  -2  12  -3   23.10    6.00
   3 -12   3  115.69   13.50
   3 -12   3  104.49   10.50
  -3 -12  -3  100.29    9.50
  -3  12  -3   73.69    8.60
  -3 -13   3   -2.00    2.00
  -3 -13   3   -0.70    1.40
  -3  13   3    0.10    3.20
   2 -13  -3    1.60    2.60
   2 -13  -3    1.40    4.20
  -2 -13   3    0.50    2.40
  -2 -13   3   -2.20    3.90
   2 -13  -3    4.70    3.20
  -2 -13   3    1.60    2.80
  -2  13   3    0.70    3.40
  -2  13   3   -2.10    1.30
  -1 -13   3   18.70    5.10
  -1 -13   3   15.00    7.70
   1 -13  -3   35.50    6.10
  -1 -13   3   24.20    9.90
  -1 -13   3   38.50    9.10
   1 -13  -3   24.50    5.80
   1 -13  -3   20.80    6.90
   1  13  -3   28.50    5.50
  -1  13   3   27.50    5.90
  -1  13   3   22.50    5.60
   0 -13  -3   15.30    5.30
   0 -13  -3   16.50    4.80
   0 -13   3   10.20    6.70
   0 -13   3    8.00    4.50
   0 -13   3   16.60    6.50
   0 -13   3   16.80    5.40
   0 -13  -3   24.70    5.50
   0 -13  -3   23.90    6.90
   0 -13  -3    8.50    4.10
   0 -13   3   19.30    9.20
   0  13   3   27.80    6.30
   0  13  -3   15.30    4.70
   1 -13   3  117.09   18.20
   1 -13   3  114.29   16.90
  -1 -13  -3  113.09   14.40
  -1 -13  -3  111.39   12.00
  -1 -13  -3  109.29   14.40
   1 -13   3  129.09   13.90
  -1 -13  -3  116.89   13.60
  -1 -13  -3  106.79   11.90
   1  13   3  110.39   11.00
  -1  13  -3  108.09   12.60
  -1  13  -3   87.49   11.80
  -2 -13  -3   -3.10    3.40
   2 -13   3    3.20    3.40
   2 -13   3    5.90    4.90
  -2 -13  -3    1.90    2.90
  -2 -13  -3    3.30    2.30
  -2  13  -3    2.00    2.70
  -2  13  -3    3.00    3.00
   2 -14  -3    4.30    3.00
  -2 -14   3    4.40    2.90
  -2 -14   3    2.20    3.40
  -2 -14   3    5.60    2.20
   2 -14  -3    3.50    2.20
   2 -14  -3    5.60    4.50
  -2  14   3    6.90    3.40
  -2  14   3    6.40    2.30
  -1 -14   3   12.20    6.30
  -1 -14   3   18.80    5.10
   1 -14  -3   18.10    5.70
  -1 -14   3   15.70    7.40
  -1 -14   3   17.50    3.90
   1 -14  -3   23.90    5.80
  -1 -14   3   22.10    6.70
   1  14  -3   22.50    5.00
  -1  14   3   18.30    4.70
  -1  14   3   13.90    4.80
   0 -14  -3   41.70    7.20
   0 -14   3   37.80    9.80
   0 -14   3   33.30   11.50
   0 -14  -3   23.10    5.90
   0 -14  -3   23.40    5.00
   0 -14  -3   31.40    8.40
   0  14  -3   27.50    5.70
   0  14   3   20.00    4.50
  -1 -14  -3    4.80    4.00
   1 -14   3    3.50    3.00
  -1 -14  -3    3.30    4.00
  -1 -14  -3    2.90    2.70
   1 -14   3    4.10    4.90
  -1 -14  -3   -0.60    2.10
   1 -14   3   -0.20    5.00
   1  14   3    6.40    3.40
  -1  14  -3   -0.50    2.50
  -1  14  -3    0.70    2.20
   2 -14   3   -1.80    3.10
   2 -14   3   -3.00    2.30
  -2 -14  -3   -4.40    2.30
  -2 -14  -3    1.10    2.40
  -2 -14  -3   -3.20    1.50
  -2  14  -3   -1.40    1.50
  -2  14  -3   -5.50    3.00
  -2 -15   3    2.90    3.50
   2 -15  -3   13.00    2.80
  -2 -15   3   14.90    3.30
  -2  15   3    8.20    3.00
  -2  15   3    9.40    2.80
  -1 -15   3   21.30    5.80
  -1 -15   3   16.30    6.20
   1 -15  -3   18.00    4.80
   1 -15  -3   21.40    4.90
  -1 -15   3   11.10    5.50
  -1 -15   3   14.00    2.90
  -1  15   3   21.80    4.90
  -1  15   3   17.20    4.90
   0 -15   3    4.10    3.90
   0 -15  -3    5.20    4.40
   0 -15  -3    2.80    3.10
   0 -15  -3    2.50    3.40
   0 -15   3    6.10    5.10
   0 -15   3    1.60    3.00
   0  15   3    7.30    4.10
   0  15  -3    3.50    2.40
  -1 -15  -3   11.40    3.40
  -1 -15  -3   18.00    4.90
   1 -15   3   12.90    3.50
  -1 -15  -3   16.20    5.00
  -1 -15  -3   10.90    2.90
   1 -15   3   13.10    5.40
   1 -15   3   14.70    6.30
  -1 -15  -3   20.90    3.90
  -1  15  -3   12.40    3.90
  -1  15  -3   13.40    3.80
   1  15   3   18.60    4.10
   2 -15   3   -4.50    2.30
   2 -15   3    0.30    2.20
  -2  15  -3    1.20    1.60
   1 -16  -3    6.60    3.40
   1 -16  -3    7.80    2.50
  -1 -16   3    0.90    1.60
  -1 -16   3    5.10    5.50
   1  16  -3    2.30    2.00
  -1  16   3    4.10    2.20
   0 -16  -3    0.00    2.10
   0 -16   3    2.50    3.70
   0 -16   3    4.90    4.30
   0 -16  -3   -1.00    2.80
   0 -16  -3    3.70    3.50
   0  16  -3    3.30    2.30
   0  16  -3    7.80    2.80
   0  16   3    3.80    2.40
   1 -16   3   -1.50    2.20
  -1  16  -3    0.90    1.60
  -1  16  -3   -2.90    1.40
  -4   0   4    7.30    4.60
  -4   0   4   11.70    5.60
  -3   0   4  137.79   13.80
  -3   0   4  129.09   16.90
  -3   0   4  110.29   12.90
  -3   0   4  123.39   16.50
  -3   0   4  135.49   14.50
  -3   0   4  144.59   20.20
  -3   0   4  143.79   16.00
  -2   0   4  806.02   52.49
  -2   0   4  670.43   48.80
  -1   0   4   18.20    2.80
  -1   0   4   17.70    4.00
  -1   0   4   11.20    5.20
   0   0  -4  339.77   22.20
   0   0   4  326.97   23.10
   1   0   4   42.40    6.60
  -1   0  -4   44.60    7.40
  -2   0  -4  583.44   40.10
  -2   0  -4  547.05   38.80
  -2   0  -4  524.75   36.50
  -2   0  -4  439.16   46.70
  -3   0  -4 1651.53  110.09
  -3   0  -4 1760.42  117.59
  -3   0  -4 1621.24  111.59
  -4   0  -4  104.39   11.30
  -4  -1   4    0.80    4.20
  -4  -1   4    6.90    3.80
  -4  -1   4   11.60    5.30
  -4   1   4    4.00    3.40
  -4   1   4    0.20    5.70
  -4   1   4   14.60    5.70
  -3  -1   4   -3.00    5.30
  -3  -1   4   -6.40    6.50
  -3  -1   4   -0.50    3.80
  -3  -1   4   -1.00    3.00
  -3  -1   4    1.90    3.20
  -3  -1   4   -8.10    4.80
  -3  -1   4   -2.80    2.70
  -3  -1   4   -6.20    3.80
  -3   1   4   -2.70    3.40
  -3   1   4    1.00    3.30
  -3   1   4    0.30    3.20
  -3   1   4    2.20    3.60
  -3   1   4   -9.60    7.00
  -3   1   4   -3.00    6.50
  -3   1   4    0.70    5.60
  -3   1   4    0.50    3.20
  -2  -1   4   74.89   10.50
  -2  -1   4   51.99    8.80
  -2   1   4   74.39   10.20
  -2   1   4   62.29    9.20
  -1  -1   4   72.49    8.00
  -1  -1   4   71.29    6.40
  -1  -1   4   55.39    9.40
  -1   1   4   79.89    8.20
  -1   1   4   73.79    6.30
   1   1  -4   70.09    7.10
  -1   1   4   69.59    7.30
  -1   1   4   71.29   11.30
   0  -1   4   25.80    4.20
   0  -1  -4   30.70    4.10
   0   1   4   20.80    4.10
   0   1  -4   24.60    3.60
   0   1  -4   23.20    4.20
   0   1   4   38.20    7.10
  -1  -1  -4   40.30    7.20
   1  -1   4   37.00    5.80
  -1   1  -4   43.80    7.70
  -2  -1  -4 3495.45  207.18
  -2  -1  -4 3587.14  217.08
  -2  -1  -4 3007.30  202.88
  -2  -1  -4 3038.80  202.48
  -2  -1  -4 3198.48  205.78
  -2   1  -4 3506.35  204.38
  -2   1  -4 3360.06  206.18
  -2   1  -4 3125.09  204.58
  -3  -1  -4  679.13   53.09
  -3  -1  -4  608.24   47.20
  -3  -1  -4  591.84   45.40
  -3   1  -4  615.34   45.30
  -3   1  -4  597.64   51.59
  -3   1  -4  587.74   46.40
  -4  -1  -4    1.90    2.60
  -4  -1  -4    1.30    2.50
  -4   1  -4    0.10    1.80
  -4   1  -4    4.10    2.80
  -4  -2   4   22.80    5.90
  -4   2   4   25.40    6.50
  -4   2   4   41.50    8.70
  -4   2   4   16.40    5.80
  -3  -2   4   45.50    7.60
  -3  -2   4   28.00    9.10
  -3  -2   4   20.10    6.10
  -3  -2   4   47.00   10.60
  -3  -2   4   39.10    7.60
  -3  -2   4   31.50    8.90
  -3   2   4   38.90    9.20
  -3   2   4   34.80   12.50
  -3   2   4   37.30    9.40
  -3   2   4   32.00    6.10
  -3   2   4   32.70    8.10
  -3   2   4   47.80    9.50
  -3   2   4   41.80    7.40
  -2  -2   4  258.47   22.80
  -2  -2   4  250.57   24.10
  -2  -2   4  239.18   22.60
  -2  -2   4  255.97   21.60
  -2   2   4  288.17   23.40
  -2   2   4  248.98   22.40
   2   2  -4  242.88   18.00
  -2   2   4  269.47   21.00
  -2   2   4  278.07   22.10
  -1  -2   4    4.30    2.80
  -1  -2   4    3.30    1.70
  -1   2   4    4.50    3.00
   1   2  -4    3.90    1.80
  -1   2   4    1.00    2.90
  -1   2   4    4.40    1.80
   0  -2   4   67.29    7.10
   0   2   4   83.99   10.00
   0   2  -4   68.39    7.60
   0   2   4   72.69    6.00
   0   2  -4   66.49    6.80
   1  -2   4    4.50    2.40
  -1  -2  -4    8.60    3.70
   1   2   4   18.70    6.40
  -1   2  -4    7.20    3.60
  -2  -2  -4   32.70    7.80
  -2  -2  -4   30.10    7.80
  -2  -2  -4   46.70    9.20
  -2  -2  -4   23.80    5.10
  -2  -2  -4   40.20   10.20
  -2   2  -4   32.70    7.30
  -2   2  -4   21.90    6.30
  -2   2  -4   31.90    6.50
  -2   2  -4   37.10    8.90
  -3  -2  -4   10.20    4.40
  -3  -2  -4    2.40    6.00
  -3  -2  -4    7.40    3.90
  -3   2  -4   11.00    5.30
   3   2   4   17.30   11.10
  -3   2  -4    8.90    5.10
  -3   2  -4    3.00    5.90
  -4  -2  -4    3.90    3.30
  -4  -2  -4    9.50    4.30
  -4   2  -4   13.10    5.20
  -4   2  -4    5.60    2.90
  -4  -3   4    5.30    5.60
  -4  -3   4    4.30    3.80
  -4   3   4    2.00    2.70
  -4   3   4    4.80    4.50
  -4   3   4    9.70    4.10
  -3  -3   4   24.00    7.40
  -3  -3   4   23.90    5.90
  -3  -3   4   22.30    6.70
  -3  -3   4   28.70    9.30
  -3  -3   4   24.20    6.20
  -3   3   4   33.60    7.70
  -3   3   4   27.90    8.20
  -3   3   4    5.10    8.50
  -3   3   4   31.40    7.00
  -3   3   4   27.70    7.30
  -3   3   4   13.90    6.90
  -2  -3   4   63.39   10.40
  -2  -3   4   66.09   11.50
  -2  -3   4   56.49    9.20
  -2  -3   4   78.39   10.70
  -2  -3   4   50.79    8.70
  -2   3   4   78.69   10.60
  -2   3   4   73.69    8.90
   2   3  -4   65.49    7.80
  -2   3   4   69.59   11.40
  -2   3   4   72.49    9.50
  -2   3   4   72.39   10.10
  -1  -3   4   37.40    6.00
  -1  -3   4   30.60    4.60
  -1   3   4   24.80    7.80
  -1   3   4   32.30    5.20
   1   3  -4   36.20    5.00
   0  -3   4   12.20    2.90
   0   3  -4   19.90    3.90
   0   3   4   19.80    2.70
   0   3   4   12.60    4.20
   0   3  -4   17.30    3.70
  -1  -3  -4    3.30    2.60
  -1   3  -4    4.60    3.30
   1   3   4    7.40    4.70
  -1   3  -4    2.20    2.40
  -2  -3  -4   89.99   11.70
  -2  -3  -4   98.19   11.00
  -2  -3  -4   88.69   12.40
  -2  -3  -4  116.49   14.20
  -2  -3  -4   78.49    9.90
  -2   3  -4   87.39    9.70
  -2   3  -4  106.49   14.70
  -2   3  -4  101.29   11.80
  -2   3  -4  101.79   12.10
  -3  -3  -4   -1.90    4.70
  -3  -3  -4    5.30    4.20
  -3  -3  -4    3.40    3.00
  -3   3  -4    4.40    3.60
   3   3   4   -0.20    8.50
  -3   3  -4   -4.50    5.00
  -3   3  -4   -0.70    3.00
  -4  -3  -4    0.90    2.30
  -4  -3  -4    2.30    2.50
  -4   3  -4    0.80    2.20
  -4   3  -4    3.50    2.80
  -4  -4   4   87.89    9.80
  -4  -4   4  103.39   14.60
  -4  -4   4   76.19    9.50
  -4   4   4   63.69   11.30
  -4   4   4  101.59   14.20
  -4   4   4   83.89   10.70
   3  -4  -4  -11.60    5.60
  -3  -4   4   -5.50    5.90
  -3  -4   4    0.30    3.00
  -3  -4   4   -2.70    3.00
  -3  -4   4   -3.40    2.80
  -3  -4   4    1.40    4.30
  -3   4   4    5.80    4.60
  -3   4   4   -1.00    2.70
  -3   4   4    0.20    4.20
  -3   4   4    4.90    9.40
  -2  -4   4   37.30    8.10
  -2  -4   4   47.40    9.30
  -2  -4   4   31.00    8.40
  -2  -4   4   29.10    6.80
  -2  -4   4   39.50    9.20
   2   4  -4   32.80    6.40
  -2   4   4   34.00    6.80
  -2   4   4   38.00    9.30
  -2   4   4   47.90    7.80
  -2   4   4   43.10    7.20
  -2   4   4   33.50    7.80
  -2   4   4   34.60    8.70
  -1  -4   4 2351.26  143.49
  -1  -4   4 2193.28  141.79
   1   4  -4 2491.55  142.89
  -1   4   4 2420.16  142.29
  -1   4   4 2012.10  150.08
   0  -4   4  747.43   50.09
   0   4   4  700.43   44.20
   0   4   4  757.92   52.09
   0   4  -4  685.33   47.10
   1  -4   4   72.99    9.60
  -1  -4  -4  119.49   11.90
  -1   4  -4   93.79   10.10
  -1   4  -4   92.09   12.00
  -2  -4  -4   21.00    6.00
  -2  -4  -4   29.30    7.50
  -2  -4  -4   30.60    5.70
  -2  -4  -4   28.40    7.80
   2  -4   4   15.50   18.90
  -2  -4  -4   22.80    5.70
  -2   4  -4   33.00    7.30
  -2   4  -4   24.60    5.20
  -2   4  -4   28.10   12.10
  -2   4  -4   17.70    5.50
  -2   4  -4   21.60    5.30
  -3  -4  -4   11.30    4.80
   3  -4   4   11.80    7.60
  -3  -4  -4    8.80    4.70
  -3  -4  -4    0.30    4.60
  -3   4  -4    6.40    5.40
   3   4   4   27.30   11.80
  -3   4  -4    6.60    4.10
  -3   4  -4   14.60    5.00
  -3   4  -4   -5.90    4.70
  -4  -4  -4    3.30    2.40
  -4  -4  -4    2.80    2.90
  -4   4  -4   14.10    3.90
  -4   4  -4    7.30    3.30
  -4  -5   4   -4.50    4.20
  -4  -5   4   -0.30    3.20
  -4  -5   4   -2.40    2.90
   4  -5  -4    1.50    2.20
  -4   5   4    2.50    3.40
  -4   5   4    0.50    2.50
  -4   5   4    0.60    2.40
  -3  -5   4   75.49   15.80
  -3  -5   4  109.09   14.70
  -3  -5   4   84.69   10.90
   3  -5  -4   52.69   10.20
  -3  -5   4   64.89    9.60
  -3   5   4   89.19   12.20
  -3   5   4   83.09   11.70
  -3   5   4   54.49   15.50
  -3   5   4   95.99   10.90
  -2  -5   4  389.36   30.50
  -2  -5   4  342.97   27.20
  -2  -5   4  352.16   29.60
  -2  -5   4  347.27   33.30
  -2  -5   4  345.77   27.10
   2  -5  -4  330.27   36.10
  -2   5   4  340.77   28.80
  -2   5   4  355.36   28.30
   2   5  -4  343.47   27.40
  -2   5   4  367.26   28.80
  -2   5   4  378.56   26.70
  -2   5   4  372.86   28.10
  -1  -5   4   20.80    4.90
  -1   5   4   20.20    3.30
   1   5  -4   15.40    3.60
  -1   5   4   14.80    6.60
  -1   5   4   23.60    4.40
   0   5  -4  164.58   14.30
   0   5   4  176.58   18.60
  -1   5  -4  147.69   14.10
  -1   5  -4  150.98   16.40
  -2  -5  -4    1.70    8.70
  -2  -5  -4    0.00    2.70
  -2  -5  -4    5.60    5.30
  -2  -5  -4   -3.70    3.20
  -2  -5  -4   -1.40    2.30
  -2  -5  -4   -1.30    3.40
  -2  -5  -4    1.20    2.90
  -2  -5  -4   -5.30    2.60
   2   5   4    0.70    4.00
  -2   5  -4   -5.00    3.70
  -2   5  -4   -2.60    3.30
  -2   5  -4   -0.40    2.70
  -2   5  -4    1.30    2.30
  -2   5  -4   -3.60    3.70
  -3  -5  -4   85.59   12.30
  -3  -5  -4  104.79   18.30
   3  -5   4   92.49   17.10
  -3  -5  -4   90.49   12.80
  -3   5  -4   62.39   15.70
  -3   5  -4  105.49   11.60
  -3   5  -4  100.59   11.90
  -4  -5  -4   49.20    6.60
  -4  -5  -4   53.99    6.90
  -4   5  -4   40.80    6.50
   4  -6  -4   -2.90    2.00
  -4  -6   4    2.50    3.70
  -4  -6   4   -3.90    4.50
  -4   6   4    0.90    2.90
  -4   6   4   -0.10    2.20
  -4   6   4   -0.50    2.70
  -3  -6   4  -13.40    6.30
  -3  -6   4    7.20    3.80
   3  -6  -4    9.10    5.00
  -3  -6   4    0.40    3.00
  -3  -6   4    6.30    5.00
  -3   6   4    7.70    4.40
  -3   6   4  -20.60   11.70
  -3   6   4    3.30    4.00
  -3   6   4    3.10    3.80
  -3   6   4   12.00    5.70
   2  -6  -4    6.90    5.10
  -2  -6   4   14.90    5.70
  -2  -6   4   13.80    5.90
  -2  -6   4   23.70   14.00
  -2  -6   4   17.10    5.10
  -2  -6   4   15.50    9.60
  -2  -6   4   12.40    4.60
  -2   6   4   25.00    6.20
  -2   6   4   17.10    5.80
  -2   6   4   15.10    5.40
  -2   6   4   26.20    6.30
  -2   6   4    9.40    6.30
   2   6  -4    0.60    5.50
  -1  -6   4   -0.50    1.90
  -1   6   4    0.60    3.60
  -1   6   4    2.70    1.60
   1   6  -4    0.70    2.50
   0  -6   4   36.70    5.60
   0   6   4   31.20    9.00
   0   6  -4   29.90    5.60
   1  -6   4   66.69   13.70
  -1  -6  -4   91.39    9.70
  -1  -6  -4   93.89   11.50
  -1   6  -4   99.89   13.50
   2  -6   4    4.30   13.60
  -2  -6  -4   24.80    8.40
  -2  -6  -4   18.40    5.20
  -2  -6  -4   17.70    4.80
   2  -6   4    6.50    8.10
  -2  -6  -4   22.60    7.00
  -2  -6  -4   21.10    4.80
  -2  -6  -4   26.40    8.40
  -2   6  -4   31.10    7.00
   2   6   4   22.40    7.90
  -2   6  -4   29.60    6.70
  -2   6  -4   10.10    6.00
   3  -6   4   28.00    9.30
  -3  -6  -4   25.60    7.40
  -3  -6  -4   30.20    7.70
  -3   6  -4   29.50    7.00
  -3   6  -4   14.90    5.10
  -3   6  -4   39.10    7.10
  -4  -6  -4    1.80    2.80
   4  -6   4   -4.10    2.10
  -4   6  -4    1.40    2.10
  -4  -7   4   -0.70    4.60
   4  -7  -4   -1.10    1.80
  -4  -7   4   -4.20    2.80
  -4   7   4   -1.80    2.00
  -4   7   4   -0.20    2.20
  -4   7   4    0.00    2.20
  -3  -7   4   28.40    7.70
  -3  -7   4   19.50   16.60
  -3  -7   4   25.90    5.90
  -3  -7   4   29.80    6.40
   3  -7  -4   33.20    6.90
  -3   7   4   37.60    8.40
  -3   7   4   24.20    6.20
  -3   7   4   43.60    8.90
  -2  -7   4   -7.40    8.50
  -2  -7   4    2.40    5.30
  -2  -7   4   -1.20    3.40
   2  -7  -4    1.20    4.40
  -2  -7   4  -11.90    6.90
  -2   7   4   -3.40    3.80
  -2   7   4   -6.60    5.80
   1  -7  -4   -1.80    3.90
  -1  -7   4   -1.10    2.30
   1  -7  -4   -2.70    3.10
  -1  -7   4    1.90    3.60
  -1  -7   4    3.10    7.60
  -1  -7   4    3.10    3.10
  -1  -7   4    3.90    9.60
  -1   7   4    1.30    3.90
  -1   7   4    0.80    2.10
   1   7  -4   -3.80    2.70
   0  -7   4    3.00    2.60
   0   7  -4   -2.20    1.40
   0   7   4   -0.10    3.20
  -1  -7  -4   64.69   10.30
  -1  -7  -4   66.59    8.80
  -1  -7  -4   67.29    8.70
  -1  -7  -4   50.39    9.60
   1  -7   4   83.59   19.90
   1  -7   4   45.40   12.10
  -1  -7  -4   71.69    8.70
   1   7   4   81.69   12.40
  -1   7  -4   77.79    8.90
  -1   7  -4   70.09   10.30
  -2  -7  -4   12.20    4.80
  -2  -7  -4   12.90    5.50
  -2  -7  -4   12.80    5.90
  -2  -7  -4    3.60    3.30
   2  -7   4   38.10   10.90
  -2  -7  -4   15.00    7.00
  -2  -7  -4    7.30    3.50
   2  -7   4    7.10    6.80
  -2   7  -4   10.90    6.00
  -2   7  -4    8.20    4.20
  -2   7  -4   15.00    5.40
   2   7   4   14.00    6.60
  -3  -7  -4   -0.30    3.20
  -3  -7  -4    0.40    2.70
   3  -7   4    4.30    7.20
  -3  -7  -4   -3.10    3.00
  -3   7  -4   11.80    4.80
  -3   7  -4    4.10    3.40
  -4  -7  -4   -1.30    1.70
   4  -8  -4  168.58   13.50
  -4   8   4  131.29   13.50
  -4   8   4  169.78   15.50
   3  -8  -4  218.58   20.50
  -3  -8   4  234.38   24.60
  -3  -8   4  222.78   20.00
  -3  -8   4  228.08   19.60
  -3   8   4  216.48   21.40
  -3   8   4  225.88   21.40
  -3   8   4  224.18   20.10
  -2  -8   4    9.80    3.90
  -2  -8   4   14.80    8.90
  -2  -8   4   -4.10    8.40
   2  -8  -4    7.90    4.10
  -2  -8   4   18.70    5.30
  -2  -8   4    0.70    5.00
  -2  -8   4    8.50    5.60
  -2   8   4    8.80    4.70
  -2   8   4    5.50    4.80
  -2   8   4   12.20    5.20
  -2   8   4   -1.20    7.20
  -1  -8   4   -3.70    5.70
  -1  -8   4   -1.20    2.60
  -1  -8   4    5.40    3.30
   1  -8  -4   -1.70    2.80
   1  -8  -4    6.00    5.30
   1  -8  -4   -0.30    3.20
   1  -8  -4    2.40    5.20
  -1  -8   4   -1.50    3.10
  -1  -8   4   -8.50    5.50
  -1  -8   4   -9.80    6.20
  -1  -8   4   -3.20    4.20
   1   8  -4   -0.30    7.50
  -1   8   4   -1.90    2.60
  -1   8   4   -0.80    3.30
  -1   8   4    2.30    3.70
   0  -8  -4  107.59   10.20
   0  -8   4  106.39   19.50
   0  -8  -4   91.09   10.90
   0  -8   4  110.39   23.10
   0  -8  -4   77.69   12.70
   0  -8   4   91.09   10.40
   0  -8  -4  100.99   13.10
   0   8  -4  101.39   12.00
   0   8   4   97.39   10.70
   0   8   4   97.89   10.60
   0   8   4   97.49   15.50
  -1  -8  -4    4.40    3.70
  -1  -8  -4    1.10    2.40
  -1  -8  -4    4.90    3.60
  -1  -8  -4    2.60    2.60
   1  -8   4    7.30    6.90
   1  -8   4   14.80   10.20
  -1  -8  -4    1.00    9.50
   1  -8   4    5.60    5.10
   1  -8   4    4.70   10.90
  -1   8  -4    9.40    5.00
  -1   8  -4    3.20    3.00
  -1   8  -4    2.00    3.90
   1   8   4   -0.30    3.40
   1   8   4    3.20    3.60
  -2  -8  -4    9.60    3.50
  -2  -8  -4    6.60    4.80
   2  -8   4   25.10   11.70
  -2  -8  -4    5.50    3.10
   2  -8   4   18.10    8.30
  -2  -8  -4    8.40    6.50
  -2  -8  -4    9.90    4.90
  -2  -8  -4   15.40    4.70
  -2   8  -4   15.40    5.70
  -2   8  -4   10.50    4.40
  -2   8  -4    3.00    5.50
  -2   8  -4    4.00    5.10
  -3  -8  -4   54.29    8.80
  -3  -8  -4   65.79    9.70
   3  -8   4   41.90   11.00
  -3  -8  -4   47.20    7.40
  -3   8  -4   67.09    9.40
  -3  -9   4   17.60    5.00
  -3  -9   4   13.50    4.50
  -3  -9   4    6.60    4.60
   3  -9  -4    8.20    3.30
   3  -9  -4   14.10    5.30
  -3   9   4   13.00    4.50
  -3   9   4   13.00    4.70
  -3   9   4   17.60    6.00
  -2  -9   4  670.83   45.30
   2  -9  -4  547.75   43.80
  -2  -9   4  637.74   44.90
   2  -9  -4  633.84   46.50
  -2  -9   4  642.84   52.19
   2  -9  -4  601.14   46.00
  -2  -9   4  618.74   50.39
  -2  -9   4  646.44   52.59
  -2   9   4  560.34   44.00
  -2   9   4  638.34   47.00
  -2   9   4  627.94   55.69
  -2   9   4  669.93   46.40
   1  -9  -4    3.40    5.00
  -1  -9   4   -8.40    6.80
  -1  -9   4    5.70    7.80
  -1  -9   4   -4.90    4.50
  -1  -9   4    2.60    3.30
   1  -9  -4   -6.90    4.60
  -1  -9   4   -2.00    5.70
   1  -9  -4   -4.10    2.20
  -1  -9   4   -0.30    3.20
   1  -9  -4    1.30    3.80
  -1   9   4   -4.20    5.10
  -1   9   4    1.70    3.20
  -1   9   4    1.90    3.40
   0  -9  -4  801.32   56.69
   0  -9   4  773.12   53.89
   0  -9  -4  752.62   56.29
   0  -9   4  795.72   59.79
   0  -9   4  849.02   68.89
   0  -9  -4  777.22   53.69
   0  -9   4  897.61   65.29
   0  -9   4  813.82   54.89
   0  -9  -4  819.22   54.39
   0  -9  -4  852.41   52.79
   0  -9   4  660.73   54.59
   0   9   4  845.92   55.09
   0   9  -4  797.62   56.59
   0   9   4  825.12   53.89
   0   9   4  695.53   61.09
  -1  -9  -4   67.79    9.40
   1  -9   4   66.29   15.70
  -1  -9  -4   65.09    9.30
   1  -9   4   95.19   22.50
  -1  -9  -4   70.89   11.80
  -1   9  -4   83.99   14.50
   1   9   4   46.20   11.70
   1   9   4   71.49    9.20
   2  -9   4   -4.20    6.00
  -2  -9  -4    2.30    2.30
  -2  -9  -4   -3.10    2.20
  -2  -9  -4   -6.40    4.80
  -2  -9  -4   -1.00    3.30
  -2  -9  -4   -1.90    3.30
   2  -9   4    3.60    8.40
  -2  -9  -4   -2.10    3.80
  -2   9  -4   -0.20    3.10
  -2   9  -4    2.70    3.00
  -3  -9  -4   11.70    3.80
  -3  -9  -4   13.30    4.10
   3  -9   4   22.40    7.80
   3  -9   4   10.50    5.50
  -3   9  -4   13.40    4.60
   3 -10  -4   54.69    8.30
   3 -10  -4   75.69   11.60
  -3 -10   4   71.79    9.50
  -3 -10   4   61.19    8.40
  -3  10   4   63.69    9.00
  -3  10   4   57.79    9.00
  -2 -10   4   95.99   17.10
  -2 -10   4  116.29   13.20
   2 -10  -4  130.29   14.60
  -2 -10   4  108.19   12.70
   2 -10  -4   88.79   14.20
   2 -10  -4  108.09   12.80
  -2 -10   4  115.19   17.20
  -2  10   4  114.09   13.30
  -2  10   4   82.79   18.90
  -2  10   4   95.59   12.40
  -1 -10   4  474.65   45.50
  -1 -10   4  465.35   34.90
   1 -10  -4  432.86   33.90
   1 -10  -4  439.36   36.90
   1 -10  -4  467.75   35.50
   1 -10  -4  475.55   33.70
  -1 -10   4  506.25   44.10
  -1 -10   4  459.85   37.90
  -1 -10   4  459.05   34.10
  -1 -10   4  392.76   39.80
  -1  10   4  436.36   34.30
  -1  10   4  493.95   35.20
   0 -10  -4  103.39   12.30
   0 -10   4   92.69   20.60
   0 -10  -4   87.39   11.50
   0 -10   4   82.79   12.70
   0 -10   4   86.59   12.60
   0 -10  -4   94.79   13.20
   0 -10  -4   97.99   10.40
   0 -10   4  102.89   26.90
   0 -10  -4   93.19   14.10
   0 -10   4  110.99   20.60
   0  10   4   91.19   10.40
  -1 -10  -4   -6.00    5.80
  -1 -10  -4   24.10   10.40
  -1 -10  -4   -0.10    2.00
  -1 -10  -4   -3.10    2.00
   1 -10   4   -2.10    5.80
   1 -10   4   14.70    6.00
  -1 -10  -4   -0.60    3.50
   1 -10   4   -9.90    4.90
  -1 -10  -4   -3.20    4.20
   1 -10   4    0.10    8.60
  -1  10  -4   -2.80    4.60
   1  10   4   -3.60    5.80
  -1  10  -4   -1.10    1.60
  -2 -10  -4   49.60   10.00
   2 -10   4   31.70   10.60
  -2  10  -4   34.70   11.50
  -3 -10  -4   -1.70    1.70
  -3 -10  -4   -2.20    2.20
   3 -10   4   -5.60    4.00
   3 -10   4    0.30    3.60
  -3  10  -4    2.70    2.70
  -3 -11   4   -2.50    3.00
  -3 -11   4   -0.90    2.00
  -3 -11   4   -1.30    1.80
   3 -11  -4   -1.70    1.90
   3 -11  -4   -3.50    2.20
  -3  11   4   -1.90    2.60
  -3  11   4   -0.40    2.10
  -2 -11   4   11.30    3.90
   2 -11  -4   11.30    4.70
  -2 -11   4   11.60    4.60
  -2 -11   4    8.10    5.40
   2 -11  -4   20.00    5.40
  -2 -11   4   19.20    8.40
   2 -11  -4    9.60    5.70
  -2  11   4   10.40    4.30
  -2  11   4   14.20    4.20
  -1 -11   4  165.88   18.30
   1 -11  -4  173.88   16.80
  -1 -11   4  147.99   22.20
   1 -11  -4  163.38   14.50
   1 -11  -4  121.09   16.60
  -1 -11   4  152.38   15.90
  -1 -11   4  148.19   14.90
   1 -11  -4  124.39   15.60
  -1 -11   4  116.19   19.40
  -1 -11   4  150.78   22.50
  -1  11   4  150.18   15.20
  -1  11   4  144.19   14.80
   0 -11  -4  212.38   18.90
   0 -11  -4  170.18   20.00
   0 -11  -4  200.18   17.90
   0 -11   4  188.98   19.10
   0 -11   4  150.98   24.10
   0 -11   4  200.88   17.80
   0 -11   4  198.18   24.90
   0 -11  -4  205.38   16.80
   0 -11   4  211.48   23.30
   0 -11   4  211.88   28.40
   0 -11  -4  183.38   20.00
   0  11   4  180.48   17.50
   1 -11   4   -5.40    7.40
  -1 -11  -4   -1.00    2.20
  -1 -11  -4    1.30    3.50
  -1 -11  -4   -0.10    3.40
  -1 -11  -4   -1.90    3.50
   1 -11   4   -9.10    5.10
  -1 -11  -4    1.00    2.20
  -1 -11  -4    1.10    3.10
  -1  11  -4   -0.40    2.50
  -1  11  -4   -3.70    7.80
   1  11   4    8.90    3.60
  -2 -11  -4   -1.80    3.10
  -2 -11  -4    2.60    2.30
   2 -11   4   -4.50    5.10
  -2 -11  -4    0.20    2.60
  -2 -11  -4    0.30    2.80
   2 -11   4    3.00    3.70
  -2  11  -4    1.10    3.60
  -2  11  -4    0.70    3.10
  -3 -11  -4   -3.00    1.60
   3 -11   4    9.10    4.30
  -3 -11  -4    3.70    2.40
   3 -11   4    2.10    3.30
   3 -11   4   -4.60    3.00
  -3  11  -4    0.80    1.70
  -3 -12   4    2.10    3.20
  -3 -12   4    7.90    2.80
   3 -12  -4   16.40    3.40
  -3 -12   4    5.60    2.20
   3 -12  -4   10.40    3.20
  -3  12   4   11.10    3.20
  -3  12   4    9.10    3.40
  -2 -12   4   13.30    4.00
   2 -12  -4   16.90    4.80
   2 -12  -4   17.60    6.30
  -2 -12   4   12.10    6.30
   2 -12  -4   18.20    4.60
  -2 -12   4   16.50    4.90
  -2  12   4   14.60    4.50
  -2  12   4   16.90    4.70
  -1 -12   4    6.50    6.30
  -1 -12   4   12.10    9.40
  -1 -12   4    9.30    4.80
   1 -12  -4   15.70   10.90
  -1 -12   4    3.90    8.70
  -1 -12   4   15.70    6.00
   1 -12  -4    9.20    4.50
  -1  12   4   17.10    5.20
  -1  12   4   25.00    7.60
   0 -12  -4  110.29   12.50
   0 -12   4   98.19   16.30
   0 -12   4  110.49   13.10
   0 -12   4  103.99   19.30
   0 -12   4  109.59   17.80
   0 -12  -4  116.59   12.00
   0 -12   4  107.99   18.40
   0 -12   4   83.19   11.60
   0 -12  -4  111.09   14.00
   0 -12  -4   85.59   10.60
   0 -12  -4  116.89   15.10
   0  12  -4   96.39   11.60
   0  12   4  101.79   11.50
  -1 -12  -4   73.39   17.30
   1 -12   4   71.29   17.70
   1 -12   4   66.19   11.60
  -1 -12  -4   79.69   13.90
  -1 -12  -4   79.09   10.40
  -1 -12  -4   90.39   12.50
   1 -12   4   75.79   21.80
  -1 -12  -4   94.09   11.60
  -1  12  -4   47.90   14.20
   1  12   4   71.19    8.90
  -1  12  -4   85.19   12.00
  -2 -12  -4   12.50    4.50
  -2 -12  -4   15.50    5.60
  -2 -12  -4   16.30    3.90
   2 -12   4   11.10    4.30
   2 -12   4   12.50    6.80
  -2  12  -4   20.10    5.40
  -2  12  -4   13.10    6.00
  -3 -12  -4   -3.90    1.70
   3 -12   4   -1.10    2.70
  -3 -12  -4    1.80    3.70
  -3  12  -4   -1.30    1.20
   2 -13  -4    9.20    5.00
   2 -13  -4   13.60    4.90
   2 -13  -4   13.00    4.10
  -2 -13   4    4.30    2.80
  -2 -13   4    8.30    3.50
  -2 -13   4    7.10    4.40
  -2  13   4   12.40    4.30
  -2  13   4    8.90    3.70
  -1 -13   4   36.90   12.40
   1 -13  -4   24.30    7.50
   1 -13  -4   33.70    7.10
   1 -13  -4   33.80    5.80
  -1 -13   4   18.70    7.80
  -1 -13   4   25.50    5.50
  -1 -13   4   42.90    8.60
  -1  13   4   27.40    6.70
   1  13  -4   27.70    5.50
  -1  13   4   27.90    5.80
   0 -13  -4    0.40    2.20
   0 -13   4   -1.20    4.80
   0 -13  -4   -2.30    2.60
   0 -13   4    3.30    5.60
   0 -13   4    3.70    5.30
   0 -13   4   -1.30    3.20
   0 -13  -4    3.30    3.60
   0 -13  -4   -0.70    2.80
   0  13  -4    2.10    2.50
   0  13   4   -2.70    2.00
  -1 -13  -4    4.00    3.00
   1 -13   4   10.90    7.90
  -1 -13  -4    1.40    2.90
  -1 -13  -4    7.90    4.60
   1 -13   4    1.40    4.80
  -1 -13  -4    7.20    4.20
  -1 -13  -4    2.80    2.80
   1 -13   4    0.10    3.80
  -1  13  -4   -1.10    3.00
   1  13   4    0.00    3.70
  -1  13  -4    3.50    2.80
   2 -13   4    9.70    6.70
  -2 -13  -4    2.30    2.70
  -2 -13  -4    8.20    4.00
  -2 -13  -4    3.50    3.50
   2 -13   4    3.20    3.60
  -2  13  -4    5.20    3.40
  -2  13  -4    5.20    3.10
   2 -14  -4   -2.00    1.70
  -2 -14   4   -1.10    1.70
  -2 -14   4   -0.50    1.50
   2 -14  -4    2.20    2.50
  -2 -14   4    2.20    3.00
  -2  14   4    2.00    1.70
  -2  14   4    2.30    2.40
  -1 -14   4   26.60    9.20
  -1 -14   4   33.60    5.90
   1 -14  -4   40.60    5.70
   1 -14  -4   31.70    6.30
  -1 -14   4   19.20    7.20
  -1 -14   4   21.50    8.10
   1 -14  -4   43.60    9.10
  -1  14   4   35.00    6.50
   1  14  -4   42.50    6.80
  -1  14   4   24.40    5.30
   0 -14   4   10.70    6.00
   0 -14  -4   30.10    5.60
   0 -14  -4   18.30    4.50
   0 -14   4   32.00    8.90
   0 -14  -4   17.60    5.30
   0  14   4   26.70    5.80
   0  14  -4   19.20    4.50
  -1 -14  -4   68.99    8.50
  -1 -14  -4   69.09   10.10
   1 -14   4   62.59    9.00
  -1 -14  -4   78.19   10.50
   1 -14   4   67.69   12.10
   1 -14   4   50.59   12.90
  -1 -14  -4   66.59    9.40
  -1 -14  -4   67.49   10.60
  -1  14  -4   71.59    8.90
  -1  14  -4   59.89    8.40
   1  14   4   50.19    7.90
  -2 -14  -4   13.90    3.50
   2 -14   4    4.50    3.70
   2 -14   4    4.30    2.70
  -2 -14  -4    9.50    2.50
  -2 -14  -4   10.00    3.30
  -2  14  -4   -3.60    5.50
  -2  14  -4    6.70    2.50
   2 -15  -4    7.60    3.10
  -2 -15   4    5.70    1.80
  -2 -15   4    2.80    2.10
  -2  15   4    9.60    2.90
  -1 -15   4    8.70    4.70
  -1 -15   4    6.00    2.40
   1 -15  -4    4.70    2.40
   1 -15  -4    6.00    3.90
  -1 -15   4    1.40    3.60
  -1 -15   4    4.50    4.10
   1  15  -4    1.60    2.40
  -1  15   4    4.10    2.50
   0 -15  -4   11.10    3.40
   0 -15   4   14.20    6.10
   0 -15  -4   19.90    4.60
   0 -15   4   19.20    9.30
   0 -15  -4   24.10    6.90
   0  15   4   17.40    4.20
   0  15  -4   14.00    4.10
  -1 -15  -4   23.40    4.80
   1 -15   4   28.50    6.80
   1 -15   4   33.70    8.10
  -1  15  -4   19.40    4.30
  -1  15  -4   25.90    4.50
   1 -16  -4   14.40    3.60
   1 -16  -4   16.00    3.00
  -1  16   4   19.70    3.60
   1  16  -4   13.30    2.80
   0 -16   4    6.40    4.70
   0 -16   4    6.00    3.40
   0 -16  -4    8.40    2.60
   0 -16  -4    6.40    3.00
   0 -16  -4    8.30    3.20
   0  16  -4    5.80    2.20
   0  16   4   11.90    2.70
   0  16  -4    3.50    1.90
  -1 -16  -4   -2.50    2.00
  -1  16  -4    0.30    1.50
  -1  16  -4   -0.60    1.50
  -4   0   5    5.90    4.80
  -4   0   5    1.40    2.80
  -3   0   5   -1.20    3.20
  -3   0   5   -3.30    5.00
  -3   0   5    3.60    4.70
  -3   0   5   -0.70    5.50
  -3   0   5    0.20    3.00
  -3   0   5    4.50    3.90
  -3   0   5   -3.00    5.60
  -2   0   5    1.50    3.90
  -2   0   5   -5.50    3.40
  -2   0   5   -1.90    3.00
  -2   0   5   -3.00    2.10
  -2   0   5   -1.00    3.00
  -2   0   5    0.70    2.60
  -1   0   5    0.20    1.50
  -1   0   5    0.80    2.20
  -1   0   5   -1.60    2.50
   0   0   5   -2.40    1.70
   0   0   5    2.50    3.00
   0   0  -5   -0.40    1.00
   1   0   5   -1.20    3.60
  -1   0  -5   -0.60    1.90
   1   0   5   -2.80    2.60
   2   0   5   -2.50    4.80
  -2   0  -5   -3.20    1.90
  -2   0  -5   -2.30    3.20
  -2   0  -5   -2.70    1.70
  -2   0  -5    1.40    3.20
  -2   0  -5    0.30    2.60
  -3   0  -5    1.50    2.70
  -3   0  -5    0.30    3.10
   3   0   5    0.30   10.30
  -4   0  -5   -1.00    1.90
  -4   0  -5    2.30    3.10
  -4  -1   5   86.09   10.90
  -4  -1   5  104.29   13.10
  -4  -1   5   68.69    9.40
  -4   1   5   94.89   12.60
  -4   1   5   90.69   11.40
  -3  -1   5   24.90    6.60
  -3  -1   5   39.40    9.90
  -3  -1   5   34.00    9.00
  -3  -1   5   39.60    8.80
  -3  -1   5   38.90    7.60
  -3  -1   5   38.80    8.20
  -3   1   5   50.19    9.30
  -3   1   5   33.10    9.20
  -3   1   5   41.00    9.70
  -3   1   5   32.80    8.00
  -3   1   5   33.50    7.30
  -3   1   5   32.80    7.40
  -3   1   5   41.40   11.20
  -2  -1   5  239.58   24.00
  -2  -1   5  239.48   25.30
  -2  -1   5  292.87   31.20
  -2  -1   5  318.07   25.10
  -2  -1   5  302.87   25.50
  -2   1   5  300.07   24.20
  -2   1   5  320.47   25.70
  -2   1   5  323.67   25.00
  -2   1   5  306.77   23.00
  -1  -1   5   19.40    3.50
  -1  -1   5   20.70    5.00
  -1   1   5   20.10    3.60
  -1   1   5   20.80    3.60
   1   1  -5   19.50    3.80
  -1   1   5   20.30    4.70
  -1   1   5   16.90    7.00
   0  -1   5   34.90    5.50
   0   1  -5   32.90    4.30
   0   1  -5   28.30    5.10
   0   1   5   30.30    5.30
   1  -1   5  258.57   21.30
  -1  -1  -5  289.67   22.90
  -1   1  -5  289.77   23.20
   1   1   5  253.67   24.00
  -2  -1  -5   75.39   10.80
  -2  -1  -5   81.89   12.40
  -2  -1  -5   70.59    9.10
  -2  -1  -5   62.79   10.30
  -2  -1  -5   72.69    8.90
  -2   1  -5   71.39   10.40
  -2   1  -5   63.29    9.60
  -2   1  -5  102.09   11.30
  -2   1  -5   76.39   12.10
  -3  -1  -5  270.47   25.40
  -3  -1  -5  254.67   29.00
  -3  -1  -5  269.57   24.10
  -3   1  -5  269.57   23.90
  -3   1  -5  263.07   29.50
  -3   1  -5  257.77   24.70
  -4  -1  -5  112.39   12.10
  -4  -1  -5  100.79   10.90
  -4   1  -5  113.59   11.20
  -4   1  -5  116.59   11.90
  -4  -2   5   22.50    4.30
  -4  -2   5   38.90    9.70
  -4  -2   5   21.70    5.70
   4  -2  -5   10.40    4.40
  -4   2   5   42.30    7.60
  -4   2   5   41.60    9.00
  -3  -2   5   18.10    5.80
  -3  -2   5   15.60    5.90
  -3  -2   5    0.00    6.00
  -3  -2   5   16.00    6.90
  -3  -2   5    5.40    4.50
  -3  -2   5   14.30    5.60
  -3   2   5   11.50    5.80
  -3   2   5   11.90    5.50
  -3   2   5    9.90    4.80
  -3   2   5   -3.30    5.60
  -3   2   5   30.00    7.30
  -3   2   5    5.70    5.30
  -3   2   5    8.90    7.00
  -2  -2   5  245.88   21.80
  -2  -2   5  217.48   20.70
  -2  -2   5  247.58   21.50
  -2   2   5  259.77   22.10
  -2   2   5  201.08   19.70
  -2   2   5  217.58   20.20
  -1  -2   5  388.96   26.00
  -1  -2   5  384.16   27.50
  -1  -2   5  304.87   28.90
  -1   2   5  343.27   32.60
  -1   2   5  396.66   27.10
  -1   2   5  405.86   25.80
   1   2  -5  391.56   26.60
   0  -2   5   95.89    9.30
   0   2   5  102.49    8.30
   0   2  -5   87.19    9.70
   0   2   5  122.49   13.30
   0   2   5   84.89    9.60
   0   2  -5   94.19    8.60
   1  -2   5  169.98   16.20
  -1  -2  -5  163.98   15.40
  -1   2  -5  152.88   15.80
  -2  -2  -5    3.10    3.20
  -2  -2  -5    3.50    3.40
  -2  -2  -5    7.70    3.10
  -2  -2  -5    2.90    2.60
  -2  -2  -5    0.40    3.80
   2   2   5    8.40    6.50
  -2   2  -5    1.80    3.00
  -2   2  -5    3.40    4.00
  -2   2  -5   11.40    4.00
  -2   2  -5    3.50    3.50
  -3  -2  -5  152.98   18.10
  -3  -2  -5  196.08   23.70
  -3  -2  -5  167.28   17.60
  -3   2  -5  156.48   16.70
  -3   2  -5  166.98   23.20
  -3   2  -5  166.98   17.80
  -4  -2  -5   19.80    5.80
  -4  -2  -5   19.70    5.10
  -4   2  -5   19.00    4.50
  -4   2  -5   23.20    5.40
   4  -3  -5    1.20    2.80
  -4  -3   5    6.60    4.20
  -4  -3   5    1.40    3.50
  -4  -3   5    3.10    3.20
  -4   3   5   14.70    5.40
  -4   3   5    4.80    3.40
  -3  -3   5   11.10    5.20
  -3  -3   5   15.80    5.80
  -3  -3   5    9.10    7.10
  -3  -3   5   12.30    5.70
  -3  -3   5   12.50    4.30
  -3   3   5    8.90    5.40
  -3   3   5    7.80    4.50
  -3   3   5    9.70    5.30
  -3   3   5   26.60    7.60
  -3   3   5   11.80    7.50
  -3   3   5   16.20    5.50
  -2  -3   5  291.57   25.20
  -2  -3   5  308.07   25.80
  -2  -3   5  259.67   22.40
  -2  -3   5  295.77   25.80
  -2  -3   5  252.47   24.80
   2   3  -5  307.67   22.10
  -2   3   5  315.87   25.40
  -2   3   5  295.77   24.10
  -2   3   5  304.47   24.70
  -2   3   5  271.27   24.60
  -2   3   5  260.47   21.70
  -2   3   5  308.67   23.70
  -1  -3   5  708.53   47.90
  -1  -3   5  691.93   46.30
  -1   3   5  736.03   47.00
  -1   3   5  649.24   54.29
   1   3  -5  725.63   47.00
  -1   3   5  718.03   46.20
   0   3  -5 2716.63  182.68
   0   3   5 3045.20  181.68
   0   3   5 3207.28  189.18
   0   3  -5 2934.21  183.78
  -1  -3  -5  113.09   12.00
  -1   3  -5   93.39   10.70
  -1   3  -5   94.29   12.00
  -2  -3  -5   98.99   11.10
  -2  -3  -5  120.59   14.20
  -2  -3  -5  107.79   13.10
  -2  -3  -5  143.89   16.20
  -2  -3  -5   98.19   11.80
   2  -3   5   90.99   23.20
  -2  -3  -5  115.89   11.80
  -2   3  -5  104.89   11.10
  -2   3  -5   93.19   12.10
  -2   3  -5  114.89   15.80
  -2   3  -5  103.29   12.40
  -3  -3  -5    4.30    4.50
  -3  -3  -5    1.30    4.90
  -3  -3  -5    2.20    2.80
   3  -3   5   -5.10    8.70
  -3   3  -5    5.40    4.00
  -3   3  -5   -6.00    5.80
  -3   3  -5   -0.60    2.60
   3   3   5   -5.20    9.00
  -4  -3  -5    3.80    2.60
  -4  -3  -5    1.40    2.60
  -4   3  -5    3.60    2.70
  -4   3  -5   -2.40    2.40
   4  -4  -5    0.50    2.60
  -4  -4   5    5.90    3.50
  -4  -4   5    2.90    3.20
  -4   4   5    6.50    4.20
  -4   4   5    8.10    5.10
  -4   4   5    3.60    3.30
  -3  -4   5   -0.10    3.00
  -3  -4   5   -4.40    4.90
  -3  -4   5    0.90    2.80
  -3  -4   5    0.00    3.20
  -3  -4   5    0.00    7.10
  -3   4   5    0.80    3.30
  -3   4   5    1.00    3.80
  -3   4   5   16.10    6.80
  -3   4   5   -3.80    4.00
  -2  -4   5   79.19   10.40
  -2  -4   5   79.49   12.70
  -2  -4   5   94.49   12.30
  -2  -4   5  110.19   13.00
  -2  -4   5   99.29   20.20
  -2  -4   5   70.39   10.00
  -2   4   5   81.49   10.90
   2   4  -5   71.19   10.60
  -2   4   5   91.99    9.70
  -2   4   5   65.49   12.70
  -2   4   5   76.59   10.30
  -2   4   5   67.39   14.80
  -2   4   5   91.99   10.90
  -1  -4   5   48.90    7.20
   1   4  -5   48.80    6.80
  -1   4   5   33.60   11.00
  -1   4   5   45.80    6.20
  -1   4   5   52.89    7.70
   0   4   5   80.69    6.40
   0   4  -5   82.09    9.20
   0   4  -5   67.39    8.30
   0   4   5   84.69   12.20
  -1  -4  -5    3.10    2.60
  -1   4  -5   -0.70    2.70
   1   4   5    3.60    3.60
  -1   4  -5    0.70    2.40
  -2  -4  -5   43.10    7.30
  -2  -4  -5   49.40    9.00
  -2  -4  -5   51.29    8.20
   2  -4   5   48.90   18.40
  -2  -4  -5   38.00    6.50
  -2  -4  -5   64.19   11.80
  -2  -4  -5   68.99   11.30
  -2   4  -5   54.69    8.60
  -2   4  -5   39.30    7.90
  -2   4  -5   54.39    7.60
  -2   4  -5   66.49   12.10
  -2   4  -5   50.39    8.70
  -3  -4  -5   -0.90    2.40
   3  -4   5   -0.80    7.90
  -3  -4  -5   -0.70    2.40
  -3   4  -5   -6.90    6.60
   3   4   5   10.10   16.60
  -3   4  -5    3.50    3.10
  -4  -4  -5    6.00    3.00
  -4  -4  -5    4.20    2.70
  -4   4  -5   11.90    3.80
  -4   4  -5    7.10    3.10
  -4  -5   5    1.90    2.60
   4  -5  -5    5.00    2.50
  -4  -5   5   -0.20    2.90
  -4   5   5    3.90    3.30
  -4   5   5    4.50    3.40
  -4   5   5    2.70    2.80
  -3  -5   5    0.80    2.70
  -3  -5   5   -1.70    3.40
  -3  -5   5    4.50    3.40
  -3  -5   5    2.40    6.20
  -3   5   5    1.40    2.90
  -3   5   5    5.80    5.00
  -3   5   5    0.40    3.40
  -2  -5   5  119.49   14.30
  -2  -5   5   90.39   18.20
  -2  -5   5   94.79   13.10
  -2  -5   5  100.09   11.90
  -2  -5   5  114.09   12.20
  -2   5   5   93.29   12.60
  -2   5   5  112.19   11.20
  -2   5   5  108.29   12.30
  -2   5   5   98.49   12.30
  -2   5   5  103.09   18.80
   2   5  -5   87.79   13.80
  -2   5   5  116.59   12.40
  -1  -5   5  129.49   13.10
  -1   5   5  124.29   11.10
  -1   5   5  124.79   18.90
   1   5  -5  129.09   12.60
   0  -5   5    2.50    2.70
   0   5  -5    2.70    1.90
   0   5   5    4.30    4.20
  -1  -5  -5   74.79   14.50
  -1   5  -5   90.99   12.50
  -2  -5  -5   59.99   10.10
  -2  -5  -5   34.20    6.60
  -2  -5  -5   49.00    8.00
  -2  -5  -5   60.29   10.40
   2  -5   5   54.59   18.20
  -2  -5  -5   48.20    7.70
  -2   5  -5   50.59    8.20
  -2   5  -5   44.90    7.70
  -2   5  -5   62.59    9.10
  -2   5  -5   43.60   10.80
  -2   5  -5   59.09    9.80
   3  -5   5    4.70   10.20
   3  -5   5   -0.60    6.20
  -3  -5  -5    0.90    2.70
  -3  -5  -5    0.80    4.10
  -3   5  -5   -0.80    2.20
  -3   5  -5   -9.10    4.40
  -3   5  -5   -1.80    6.90
  -3   5  -5    2.10    3.20
  -4  -5  -5    4.40    2.50
   4  -5   5    3.40    3.00
  -4  -5  -5    8.00    2.60
  -4   5  -5   -8.10    4.50
  -4  -6   5    3.30    3.30
   4  -6  -5   -0.40    2.00
  -4   6   5   -1.20    2.50
  -4   6   5    0.70    2.50
  -4   6   5    3.90    2.70
  -3  -6   5   27.00   10.30
   3  -6  -5   26.60    7.60
  -3  -6   5   10.30    8.30
  -3  -6   5   52.29   12.70
  -3   6   5   55.69   11.70
  -3   6   5   22.90    7.40
  -3   6   5   43.60   11.20
   2  -6  -5  103.09   13.40
  -2  -6   5  106.59   20.40
  -2  -6   5  129.09   16.40
  -2  -6   5  106.49   12.70
  -2  -6   5  108.89   14.70
  -2  -6   5  121.19   13.10
  -2   6   5  120.89   14.10
  -2   6   5  118.39   13.00
   2   6  -5  122.69   18.70
  -2   6   5  107.69   17.10
  -2   6   5  126.99   14.10
  -1  -6   5   95.59   14.30
  -1  -6   5  127.99   22.00
  -1  -6   5   95.89   11.40
  -1  -6   5   89.19   10.80
   1  -6  -5   94.89   17.10
  -1  -6   5   95.09   10.90
   1  -6  -5   73.09    9.30
  -1   6   5   80.09   10.10
  -1   6   5   94.19    8.90
  -1   6   5   80.79   15.90
   1   6  -5   82.19   11.00
   0  -6   5  109.19   11.10
   0   6   5  106.09   15.60
   0   6  -5  105.29   11.50
   1  -6   5  179.08   25.70
  -1  -6  -5  152.58   14.30
  -1  -6  -5  137.49   18.60
  -1   6  -5  165.38   18.20
  -1   6  -5  159.48   16.50
   1   6   5  187.48   20.10
  -2  -6  -5  121.09   15.10
   2  -6   5   94.99   17.70
   2  -6   5  103.99   23.10
  -2  -6  -5  117.99   14.70
  -2  -6  -5  115.89   12.60
  -2   6  -5  119.99   12.40
   2   6   5  148.59   20.90
  -2   6  -5  114.79   17.80
  -2   6  -5  114.59   17.20
  -2   6  -5  131.19   16.40
  -3  -6  -5  105.59   13.40
  -3  -6  -5   86.09   12.50
   3  -6   5   97.69   16.60
  -3   6  -5   97.19   10.90
  -3   6  -5  101.69   11.40
  -4  -6  -5    2.20    2.00
  -4  -6  -5    2.10    2.10
  -4   6  -5   -1.60    2.00
  -4  -7   5   51.29    6.30
   4  -7  -5   62.49    6.30
  -4  -7   5   56.79   11.10
  -4   7   5   54.29    7.80
  -4   7   5   42.80    6.50
  -3  -7   5   52.79   11.60
  -3  -7   5   47.10    8.20
  -3  -7   5   31.00    6.30
   3  -7  -5   35.90    6.80
  -3   7   5   47.00    8.90
  -3   7   5   47.30   10.00
  -3   7   5   37.70    8.50
  -2  -7   5   19.50    5.30
   2  -7  -5   23.40    7.00
  -2  -7   5   22.90    6.30
  -2  -7   5   12.90   11.70
  -2  -7   5   24.50    7.70
  -2  -7   5   49.80   17.80
  -2  -7   5   26.20    7.60
  -2   7   5   38.00    7.90
  -2   7   5   19.30    8.60
  -2   7   5   31.20    7.70
  -2   7   5   26.80    6.50
  -1  -7   5    5.90    5.20
  -1  -7   5   11.30    4.20
  -1  -7   5    4.10    3.70
  -1  -7   5    7.20    9.00
   1  -7  -5   -3.30    4.10
   1  -7  -5    3.40    3.30
   1  -7  -5    4.60    3.40
   1  -7  -5   28.20   10.70
  -1  -7   5   11.20    9.20
  -1  -7   5    5.00    3.30
  -1   7   5    2.80    4.00
  -1   7   5    2.90    4.80
  -1   7   5    6.30    3.90
  -1   7   5    7.90    4.20
   0  -7   5   38.20   13.00
   0  -7  -5   19.00    4.90
   0  -7   5   24.30   10.90
   0  -7   5   21.00    4.70
   0  -7  -5   23.30    5.40
   0  -7  -5   21.00    4.70
   0  -7   5   11.80    7.40
   0  -7  -5   25.90    7.60
   0  -7   5   18.60    8.90
   0   7   5   12.30    5.80
   0   7  -5   12.60    5.30
  -1  -7  -5   12.90    4.30
   1  -7   5    6.30    7.10
   1  -7   5   19.80    6.50
   1  -7   5   -0.10   10.50
  -1  -7  -5   15.80    5.60
   1  -7   5   38.80   15.20
  -1  -7  -5   10.60    3.60
   1  -7   5    6.80    7.20
  -1  -7  -5    7.70    3.20
  -1  -7  -5   15.40    5.70
  -1   7  -5   12.30    4.70
  -1   7  -5    9.20    4.90
   1   7   5   19.00    7.80
  -2  -7  -5  282.47   23.80
  -2  -7  -5  285.97   22.90
  -2  -7  -5  278.77   23.00
   2  -7   5  249.38   30.10
   2  -7   5  295.17   33.70
  -2  -7  -5  277.97   25.70
  -2  -7  -5  303.27   26.60
   2   7   5  323.67   32.30
  -2   7  -5  289.57   23.00
  -2   7  -5  305.57   25.10
   3  -7   5    0.00    4.80
  -3  -7  -5   -2.30    2.80
  -3  -7  -5   -0.20    2.60
  -3  -7  -5    1.70    3.50
  -3   7  -5   14.70    5.00
  -3   7  -5    2.70    4.00
   4  -8  -5   21.70    3.60
  -4   8   5   28.00    5.10
  -3  -8   5  132.69   18.00
  -3  -8   5  135.39   14.00
   3  -8  -5  140.99   14.30
  -3  -8   5  140.89   14.30
   3  -8  -5  129.99   13.90
  -3   8   5  142.39   15.70
  -3   8   5  120.39   14.00
  -3   8   5  155.18   16.10
  -2  -8   5   55.39   12.80
  -2  -8   5   25.10    8.70
  -2  -8   5   33.10   11.70
  -2  -8   5   30.70   11.70
   2  -8  -5   26.10    5.90
  -2  -8   5   37.90    7.60
  -2  -8   5   31.70    7.00
   2  -8  -5   33.10    7.60
  -2   8   5   28.00    6.90
  -2   8   5   40.50    8.30
  -2   8   5   31.60    7.40
   1  -8  -5  289.97   25.30
  -1  -8   5  271.07   24.00
  -1  -8   5  304.67   23.30
  -1  -8   5  270.37   27.70
   1  -8  -5  280.27   23.70
  -1  -8   5  290.47   33.20
  -1  -8   5  304.97   32.40
   1  -8  -5  267.87   22.10
   1  -8  -5  266.07   22.90
  -1  -8   5  287.17   23.00
  -1   8   5  288.27   23.20
  -1   8   5  277.47   23.30
   1   8  -5  287.77   25.40
  -1   8   5  269.77   22.70
   0  -8   5   36.10    9.90
   0  -8  -5   47.50    6.90
   0  -8  -5   52.09    9.50
   0  -8  -5   51.29    8.00
   0  -8   5   48.10    9.10
   0  -8  -5   53.99    7.80
   0  -8  -5   46.70    9.30
   0  -8   5   39.00    7.90
   0  -8   5   55.89    8.70
   0  -8   5   50.59   15.10
   0  -8   5   55.19   18.20
   0   8   5   53.49    9.10
   0   8   5   34.00   10.60
   0   8  -5   40.00    8.50
   0   8   5   63.39    8.30
  -1  -8  -5   56.69   10.10
  -1  -8  -5   64.09    9.10
  -1  -8  -5   65.19    8.60
  -1  -8  -5   63.79   10.30
  -1  -8  -5   66.49    8.80
   1  -8   5   54.99   12.80
   1  -8   5   80.39   16.80
   1  -8   5   81.89   19.80
  -1   8  -5   63.49   11.90
  -1   8  -5   71.09    9.40
   1   8   5   74.99   13.20
  -1   8  -5   39.50    9.70
  -2  -8  -5    3.80    5.20
  -2  -8  -5    0.20    3.20
  -2  -8  -5   -0.70    2.10
   2  -8   5    9.00    6.20
  -2  -8  -5   -2.80    2.80
   2  -8   5    9.40    9.70
  -2  -8  -5   -1.30    2.20
  -2  -8  -5   -2.00    4.20
  -2   8  -5   -2.60    5.90
  -2   8  -5    4.50    3.90
  -2   8  -5   -3.30    2.20
  -3  -8  -5   43.50    8.00
  -3  -8  -5   47.40    7.20
   3  -8   5   27.30    8.20
  -3  -8  -5   42.90    8.10
  -3   8  -5   42.10    7.50
  -3   8  -5   43.80    7.10
  -3  -9   5    8.80    3.80
  -3  -9   5   10.00    5.20
   3  -9  -5   16.30    4.90
  -3  -9   5   12.20    4.00
   3  -9  -5    7.10    3.90
  -3   9   5   15.50    5.30
  -3   9   5    8.80    4.60
   2  -9  -5   95.99   11.70
   2  -9  -5   88.79   12.50
  -2  -9   5   64.29   13.70
  -2  -9   5  101.39   16.50
  -2  -9   5  108.59   17.50
  -2  -9   5   99.89   11.60
  -2  -9   5   91.89   11.80
  -2  -9   5   64.89   14.90
  -2   9   5   86.89   11.60
  -2   9   5  107.59   12.80
  -2   9   5   78.79   19.40
  -1  -9   5  123.69   23.20
  -1  -9   5  111.49   19.00
   1  -9  -5  133.99   14.10
  -1  -9   5   91.69   13.50
   1  -9  -5  112.79   13.30
   1  -9  -5   92.99   14.30
  -1  -9   5  108.39   30.50
   1  -9  -5  144.89   13.40
  -1  -9   5   93.69   16.50
  -1   9   5  105.09   16.50
  -1   9   5  116.59   12.70
  -1   9   5  122.29   13.10
   0  -9   5  138.59   21.50
   0  -9   5  167.38   21.00
   0  -9  -5  169.58   14.60
   0  -9  -5  175.78   18.00
   0  -9   5  154.58   17.20
   0  -9  -5  134.19   17.10
   0  -9   5  168.18   26.60
   0  -9  -5  171.98   15.70
   0  -9   5  168.48   16.50
   0  -9   5  222.28   25.30
   0  -9   5  177.68   16.80
   0  -9  -5  167.58   15.80
   0   9   5  173.58   23.00
   0   9   5  167.58   15.50
   1  -9   5  173.58   23.00
   1  -9   5  176.28   22.80
  -1  -9  -5  172.08   16.50
  -1  -9  -5  184.68   18.60
   1  -9   5  144.89   25.30
  -1  -9  -5  177.98   18.50
  -1  -9  -5  173.68   16.10
  -1   9  -5  158.48   21.90
  -1   9  -5  194.18   17.70
   1   9   5  175.28   22.10
  -2  -9  -5   13.00    5.90
  -2  -9  -5    3.40    3.30
  -2  -9  -5    6.70    4.30
   2  -9   5   10.40    6.70
  -2  -9  -5    8.40    3.50
   2  -9   5    5.70    8.20
  -2  -9  -5    5.60    4.80
  -2  -9  -5   11.20    3.60
  -2   9  -5   11.70    5.10
  -2   9  -5   -9.90    7.60
  -3  -9  -5   21.90    5.90
   3  -9   5   14.40   12.30
  -3  -9  -5   12.90    3.50
  -3  -9  -5   19.60    5.50
   3  -9   5    8.40    4.50
  -3   9  -5   14.40    4.50
   3 -10  -5   -2.40    2.30
  -3 -10   5   -2.70    3.40
  -3 -10   5    0.60    2.20
  -3 -10   5    0.60    2.40
   3 -10  -5   -0.40    2.40
  -3  10   5    1.20    4.10
  -3  10   5   -0.20    2.30
  -2 -10   5  107.09   13.80
   2 -10  -5  132.99   18.20
  -2 -10   5   66.69   15.70
   2 -10  -5   86.19   14.60
  -2 -10   5   96.79   20.10
  -2  10   5  115.79   15.50
  -2  10   5  112.99   14.90
  -2  10   5  108.99   21.30
  -1 -10   5  362.16   28.40
  -1 -10   5  397.66   39.50
   1 -10  -5  326.67   29.50
   1 -10  -5  374.26   27.00
  -1 -10   5  301.07   33.30
  -1 -10   5  390.86   32.30
   1 -10  -5  334.17   27.50
  -1 -10   5  342.77   36.30
  -1 -10   5  331.07   27.30
   1 -10  -5  345.47   28.20
  -1  10   5  321.57   27.40
  -1  10   5  370.06   28.40
   0 -10   5    1.80    5.60
   0 -10   5    1.40    7.80
   0 -10  -5    4.20    4.30
   0 -10  -5   -0.80    3.60
   0 -10   5    6.30    7.10
   0 -10   5   -0.60    6.30
   0 -10  -5    0.30    2.70
   0 -10  -5   -2.30    2.40
   0 -10   5   -8.70    4.90
   0 -10  -5    2.50    3.00
   0 -10   5   -9.40    5.60
   0  10   5   -0.70    2.90
   0  10   5   -3.50    5.70
   0  10  -5   11.20    6.70
   1 -10   5   75.49   13.30
   1 -10   5   69.09   14.20
  -1 -10  -5   83.39   12.20
  -1 -10  -5   69.39   11.70
   1 -10   5   49.60   12.70
  -1 -10  -5   57.89    9.60
   1 -10   5   94.59   21.20
  -1 -10  -5   89.29   10.70
  -1 -10  -5   77.39   10.00
  -1  10  -5   87.49   10.90
  -2 -10  -5    0.70    2.90
  -2 -10  -5    0.80    4.80
   2 -10   5   -8.00    4.40
   2 -10   5   11.20    8.20
   2 -10   5   -3.70    3.80
  -2 -10  -5   -0.70    2.10
  -2 -10  -5   -0.50    1.80
  -2 -10  -5    2.00    3.60
  -2  10  -5   -3.70    3.80
  -2  10  -5    2.80    3.30
  -3 -10  -5   11.30    2.90
  -3 -10  -5    3.40    3.00
   3 -10   5    6.50    3.50
   3 -10   5    4.60    4.20
  -3  10  -5    7.60    2.90
   3 -11  -5    3.60    2.40
   3 -11  -5    0.30    1.80
  -3 -11   5   -0.50    2.20
  -3 -11   5    0.30    2.20
  -3 -11   5    0.30    2.90
  -3  11   5    3.80    2.90
  -3  11   5    1.90    2.40
  -2 -11   5   -1.60    2.50
  -2 -11   5    0.50    5.60
   2 -11  -5   -1.60    2.50
   2 -11  -5   -9.20    5.60
   2 -11  -5    1.50    2.80
  -2 -11   5   -3.50    3.70
  -2 -11   5   -0.50    2.50
  -2  11   5    4.70    3.30
  -2  11   5    0.50    2.90
   1 -11  -5  400.66   31.70
  -1 -11   5  400.26   31.50
  -1 -11   5  434.06   34.40
   1 -11  -5  411.26   33.20
  -1 -11   5  415.86   31.00
  -1 -11   5  393.96   41.30
   1 -11  -5  434.86   30.20
  -1 -11   5  416.86   41.00
  -1 -11   5  336.27   36.50
  -1  11   5  390.96   31.30
  -1  11   5  382.76   30.50
   0 -11   5  681.23   56.79
   0 -11  -5  622.14   48.80
   0 -11  -5  657.93   46.10
   0 -11   5  671.53   60.59
   0 -11  -5  652.93   46.60
   0 -11   5  673.53   52.29
   0 -11  -5  663.73   49.70
   0 -11   5  677.33   45.20
   0 -11   5  703.93   47.40
   0 -11  -5  683.83   44.90
   0  11   5  644.84   45.80
   0  11  -5  518.25   52.69
  -1 -11  -5  234.88   20.00
   1 -11   5  224.28   25.90
  -1 -11  -5  225.38   22.00
   1 -11   5  192.68   21.00
  -1 -11  -5  249.88   22.60
  -1 -11  -5  229.28   19.70
   1 -11   5  193.48   28.50
  -1 -11  -5  240.18   21.80
  -1  11  -5  225.18   20.80
  -1  11  -5  205.08   29.90
   1  11   5  205.68   18.50
  -2 -11  -5  229.38   19.90
  -2 -11  -5  217.68   18.40
   2 -11   5  212.18   20.60
   2 -11   5  247.38   25.00
  -2 -11  -5  228.68   20.80
   2 -11   5  186.28   24.50
  -2  11  -5  197.18   19.60
   3 -11   5   29.70    8.20
  -3 -11  -5   18.50    4.30
  -3 -11  -5   16.00    3.10
   3 -11   5   16.90    4.50
  -3  11  -5   18.60    3.80
   3 -12  -5   31.80    4.30
  -3 -12   5   30.00    5.00
  -3 -12   5   28.90    4.40
   3 -12  -5   21.90    3.60
  -3  12   5   25.10    4.40
  -3  12   5   26.40    5.00
  -2 -12   5   -0.20    4.20
   2 -12  -5  -15.10    7.60
   2 -12  -5    0.10    2.20
   2 -12  -5   -0.70    2.50
  -2 -12   5   -1.90    2.20
  -2 -12   5    2.90    3.20
   2 -12  -5   -1.10    3.30
  -2  12   5   -2.70    2.60
  -2  12   5   -3.60    2.00
   1 -12  -5  252.67   21.30
  -1 -12   5  244.88   23.30
   1 -12  -5  244.18   22.50
  -1 -12   5  224.38   28.70
  -1 -12   5  219.48   19.70
   1 -12  -5  263.57   19.30
  -1 -12   5  176.58   24.90
  -1 -12   5  190.68   26.40
  -1 -12   5  243.08   21.10
  -1  12   5  210.58   19.00
  -1  12   5  238.58   20.90
   0 -12  -5    1.50    3.80
   0 -12   5    8.80    7.40
   0 -12   5   -3.90    4.70
   0 -12   5   -5.30    4.50
   0 -12  -5    2.70    2.70
   0 -12   5    3.10    4.80
   0 -12   5   -7.90    4.30
   0 -12  -5    0.30    3.00
   0 -12  -5    2.40    3.00
   0 -12  -5   -2.10    2.10
   0  12  -5    2.20    2.30
   0  12   5   -0.80    2.40
   1 -12   5    3.30    4.20
   1 -12   5    5.60    5.90
   1 -12   5   -2.50    5.30
  -1 -12  -5    1.30    3.30
  -1 -12  -5   -1.10    3.20
  -1 -12  -5    7.20    3.80
  -1 -12  -5   -0.20    3.00
  -1 -12  -5    5.50    3.20
  -1 -12  -5    3.10    2.50
  -1  12  -5    2.10    2.80
   1  12   5   -7.70    4.80
   2 -12   5   33.00    9.70
   2 -12   5   29.90    9.10
   2 -12   5   25.40    6.60
  -2 -12  -5   49.90    8.00
  -2 -12  -5   19.10    7.70
  -2 -12  -5   36.80    6.50
  -2  12  -5   50.29    7.90
  -2 -13   5   -3.00    3.50
   2 -13  -5   -1.70    1.90
  -2 -13   5   -2.50    2.40
   2 -13  -5   -0.80    2.30
  -2  13   5   -3.20    1.90
  -2  13   5    0.70    2.90
   2  13  -5    4.50    3.40
  -1 -13   5    5.10    3.20
   1 -13  -5    6.60    3.80
   1 -13  -5    9.40    4.60
  -1 -13   5    5.60    6.60
  -1 -13   5    1.30    4.40
   1 -13  -5    4.30    2.30
  -1 -13   5    1.60    6.20
  -1 -13   5   -0.70    2.00
  -1  13   5    3.80    4.40
  -1  13   5   11.20    4.10
   1  13  -5    6.10    2.90
   0 -13  -5   78.99   10.10
   0 -13  -5   77.29   11.10
   0 -13   5   49.30   15.30
   0 -13   5   62.99   13.10
   0 -13  -5   75.09    9.90
   0  13   5   64.69    8.70
  -1 -13  -5   11.20    4.90
   1 -13   5    9.40    5.60
  -1 -13  -5   11.00    4.80
  -1 -13  -5   13.90    4.20
  -1 -13  -5    5.30    3.50
   1 -13   5    2.10    4.10
   1 -13   5    6.40    6.00
  -1 -13  -5    8.10    3.80
  -1  13  -5    9.10    4.10
  -1  13  -5    6.30    3.30
   2 -13   5   21.80    5.80
  -2 -13  -5   23.20    4.40
  -2 -13  -5   41.30    6.80
   2 -13   5   21.60    5.10
  -2 -13  -5   37.40    6.60
  -2  13  -5   24.10    5.10
   2 -14  -5   -0.40    1.70
  -2 -14   5    2.40    1.70
  -2 -14   5    0.30    2.70
   2 -14  -5    0.70    1.90
  -2 -14   5   -0.30    1.50
  -2  14   5    3.60    2.70
  -2  14   5    3.20    2.40
   1 -14  -5    2.20    2.50
  -1 -14   5   -2.00    3.90
   1 -14  -5    2.90    2.60
  -1 -14   5   -3.80    1.90
  -1 -14   5   -3.70    3.30
  -1 -14   5   -1.50    5.10
  -1 -14   5   -0.90    4.50
  -1  14   5    3.80    2.60
   1  14  -5   -0.30    2.00
   0 -14  -5   15.70    4.80
   0 -14  -5   10.90    3.70
   0 -14  -5    8.50    3.20
   0 -14   5    3.80    3.60
   0 -14   5    3.10    5.00
   0 -14   5    7.30    5.30
   0  14   5    7.90    3.50
   0  14  -5    7.70    3.40
  -1 -14  -5   22.00    5.70
  -1 -14  -5   21.20    4.70
  -1 -14  -5   26.90    8.90
  -1 -14  -5   19.30    4.60
   1 -14   5   19.20    8.80
   1 -14   5   16.80    6.60
  -1  14  -5   21.90    5.20
  -1  14  -5   18.10    4.90
   2 -14   5    4.30    2.70
   2 -14   5    3.90    3.70
  -2 -14  -5    9.00    2.80
  -2 -14  -5    0.10    2.20
  -2  14  -5   11.00    3.40
  -1 -15   5    4.30    4.20
   1 -15  -5    2.20    2.00
   1 -15  -5   -0.80    2.70
  -1 -15   5    0.70    2.40
  -1 -15   5    0.00    2.70
  -1 -15   5    3.30    2.00
   1  15  -5    1.90    1.70
  -1  15   5    2.10    2.40
   0 -15   5   28.50    7.30
   0 -15  -5   21.00    4.40
   0 -15  -5   25.70    6.00
   0 -15   5   17.20    6.50
   0 -15  -5   27.80    6.00
   0  15   5   24.30    4.20
   1 -15   5    8.40    4.60
  -1 -15  -5    2.60    2.20
  -1 -15  -5    4.00    2.30
  -1 -15  -5    5.00    2.70
   1 -15   5    2.70    4.20
  -1  15  -5    2.70    2.00
  -1  15  -5    4.70    2.30
   1 -16  -5   42.30    4.80
  -1  16   5   39.00    4.60
   1  16  -5   28.80    3.90
   0 -16   5   -4.90    2.60
   0 -16  -5   -1.30    1.90
   0 -16   5   -1.70    2.40
   0 -16  -5   -1.40    2.90
   0  16  -5    0.30    1.30
  -4   0   6  178.88   15.80
  -4   0   6  210.78   19.60
  -4   0   6  187.18   17.00
  -3   0   6   15.90    6.30
  -3   0   6   12.60    7.90
  -3   0   6   12.60    4.50
  -3   0   6   12.70    6.20
  -3   0   6   12.00    4.60
  -3   0   6   23.20    6.70
  -2   0   6   58.29   13.70
  -2   0   6   57.49   10.00
  -2   0   6   76.89   10.00
  -2   0   6   78.69   10.60
  -2   0   6   72.09   10.60
  -1   0   6 1248.48   77.29
  -1   0   6 1052.89   82.09
  -1   0   6 1263.17   75.79
   0   0   6    6.10    3.80
   0   0   6    4.10    2.30
   0   0  -6    6.60    1.90
  -1   0  -6   85.59   10.70
   2   0   6   38.30   12.60
  -2   0  -6    9.30    3.20
  -2   0  -6   14.60    6.00
  -2   0  -6    8.10    2.80
  -2   0  -6   21.60    7.00
  -2   0  -6   18.30    5.90
  -3   0  -6  110.09   14.40
  -3   0  -6  106.79   18.90
  -3   0  -6  119.29   12.80
  -3   0  -6  118.09   13.60
  -4   0  -6   89.39    9.40
  -4   0  -6   89.59    9.80
  -4  -1   6   10.50    4.00
  -4  -1   6   15.20    5.60
  -4  -1   6   22.90    6.10
  -4   1   6    7.20    3.90
  -4   1   6   15.80    5.00
  -4   1   6   16.60    4.60
  -3  -1   6  150.08   19.80
  -3  -1   6  162.38   15.40
  -3  -1   6  124.79   16.90
  -3  -1   6  164.78   16.10
  -3  -1   6  147.19   17.30
  -3   1   6  134.69   19.70
  -3   1   6  155.28   17.40
  -3   1   6  141.19   15.20
  -3   1   6  125.99   17.20
  -3   1   6  168.18   16.60
  -3   1   6  141.99   16.50
  -2  -1   6    3.50    3.40
  -2  -1   6   -0.70    3.40
  -2  -1   6   -0.30    2.60
  -2  -1   6   -2.90    4.50
  -2   1   6   -0.50    3.70
  -2   1   6   -0.30    2.80
  -2   1   6    0.90    3.10
  -2   1   6    0.10    3.30
  -2   1   6    1.50    4.30
  -1  -1   6   94.39   10.20
  -1  -1   6   90.49    9.70
  -1  -1   6   78.19   13.00
  -1   1   6   84.79   14.30
  -1   1   6   99.99    9.60
  -1   1   6  101.69   10.30
   1   1  -6   85.89    9.50
   0  -1   6   14.90    4.80
   0  -1   6   17.80    4.40
   0   1  -6    8.00    3.00
   0   1  -6   16.30    3.20
   0   1   6   14.60    5.20
   0   1   6   14.70    3.20
   0   1   6   11.00    4.00
   1  -1   6   48.40   11.10
   1   1   6   78.19   16.10
  -2  -1  -6    1.20    3.30
   2  -1   6    2.30    5.30
  -2  -1  -6    2.80    4.70
  -2  -1  -6    2.00    2.70
  -2  -1  -6    3.00    2.80
   2   1   6    1.50    4.90
  -2   1  -6   -1.70    1.90
  -2   1  -6    4.30    3.80
  -2   1  -6    5.70    3.60
  -2   1  -6   -0.20    3.70
  -3  -1  -6  408.66   33.90
  -3  -1  -6  419.16   32.10
  -3  -1  -6  468.75   40.50
  -3  -1  -6  397.96   35.30
  -3   1  -6  430.16   39.90
  -3   1  -6  458.95   34.30
  -3   1  -6  432.66   35.50
  -4  -1  -6  428.86   29.20
  -4  -1  -6  362.06   29.50
  -4   1  -6  425.76   28.80
  -4   1  -6  409.16   29.60
  -4  -2   6   40.10    6.70
  -4  -2   6   39.10    6.70
  -4  -2   6   42.90   10.00
  -4   2   6   41.70    9.00
  -4   2   6   38.60    7.60
  -3  -2   6   24.30    5.80
  -3  -2   6   18.50    4.90
  -3  -2   6    9.20    7.20
  -3  -2   6   20.90    6.00
  -3  -2   6   30.30    8.10
  -3  -2   6   35.00    7.20
  -3   2   6   21.20    6.80
  -3   2   6   15.10    6.10
  -3   2   6   23.90    9.40
  -3   2   6   17.70    5.30
  -3   2   6   44.70    9.70
  -3   2   6   29.50    7.30
  -2  -2   6   -2.60    2.80
  -2  -2   6   -5.00    4.50
  -2  -2   6    2.90    3.50
  -2  -2   6    1.90    3.00
  -2   2   6    0.00    2.70
  -2   2   6   -5.50    3.20
  -2   2   6    1.70    3.00
  -2   2   6    5.20    4.30
  -1  -2   6  319.47   29.70
  -1  -2   6  342.77   25.80
  -1  -2   6  388.56   27.40
  -1   2   6  383.06   26.80
   1   2  -6  362.36   26.50
  -1   2   6  329.27   32.90
  -1   2   6  369.56   25.70
   0  -2   6   33.00    7.70
   0   2   6   12.50    4.50
   0   2  -6   17.20    4.40
   0   2  -6   18.40    3.70
   0   2   6   11.70    4.60
   0   2   6   20.10    3.90
   1  -2   6   20.30    6.90
   1   2   6   34.10   11.30
  -1   2  -6   10.00    4.20
  -2  -2  -6   14.10    5.80
  -2  -2  -6    9.00    4.20
  -2  -2  -6    6.60    3.40
  -2  -2  -6   11.80    6.60
   2  -2   6   15.20    7.70
  -2  -2  -6    4.80    3.30
   2   2   6   18.10    8.00
  -2   2  -6    3.70    3.10
  -2   2  -6   10.30    4.30
  -2   2  -6    1.50    3.20
  -2   2  -6    7.20    4.10
  -3  -2  -6   82.49   11.00
  -3  -2  -6   65.99    9.30
  -3  -2  -6   77.39   11.50
  -3   2  -6   47.80   13.20
  -3   2  -6   72.59   11.10
  -3   2  -6   85.39   11.00
  -4  -2  -6   28.80    5.00
  -4  -2  -6   26.40    5.80
  -4   2  -6   26.00    4.70
  -4   2  -6   28.70    4.90
  -4  -3   6   68.09    8.70
  -4  -3   6   55.19    7.60
  -4  -3   6   84.29   11.80
   4  -3  -6   87.29   11.10
  -4   3   6   84.79   14.40
  -3  -3   6   -2.80    2.80
  -3  -3   6    1.40    3.70
  -3  -3   6    0.40    3.20
  -3  -3   6   -2.00    5.50
  -3  -3   6   -6.30    5.00
  -3   3   6   -6.00    7.60
  -3   3   6   -2.10    3.40
  -3   3   6    1.70    3.20
  -3   3   6    6.10    5.30
  -3   3   6   -2.40    3.20
  -2  -3   6   97.29   12.70
  -2  -3   6   77.59   10.50
  -2  -3   6   80.59   12.30
  -2  -3   6   84.19   12.10
  -2  -3   6   99.29   21.50
  -2  -3   6   72.89   10.00
  -2  -3   6   68.29   11.60
  -2   3   6   97.39    9.90
  -2   3   6   85.09   11.90
  -2   3   6   82.79   11.20
  -2   3   6   81.79   10.90
  -2   3   6  102.49   11.30
   2   3  -6   74.39   11.90
  -1  -3   6  325.67   24.80
   1   3  -6  314.47   24.00
  -1   3   6  299.77   23.20
  -1   3   6  322.87   23.50
  -1   3   6  275.77   30.70
   0   3  -6  252.47   21.20
   0   3  -6  247.48   19.30
   0   3   6  284.17   26.00
   0   3   6  290.17   19.20
  -1  -3  -6   40.00    7.60
  -1   3  -6   37.60    8.00
   2  -3   6  -15.00    8.40
  -2  -3  -6   -4.30    3.20
  -2  -3  -6   -3.00    2.00
  -2  -3  -6   -0.10    2.70
  -2  -3  -6   -3.60    3.70
   2  -3   6   -2.80    4.80
  -2  -3  -6   -2.00    2.80
  -2   3  -6    3.30    3.70
  -2   3  -6   -0.10    1.80
   2   3   6   -2.70    4.70
  -2   3  -6   -1.20    3.00
  -2   3  -6    0.80    3.50
   3  -3   6   45.40   13.60
  -3  -3  -6   23.70    4.60
  -3  -3  -6    9.10    8.30
   3   3   6   40.30   11.70
  -3   3  -6   39.70   10.90
  -3   3  -6   21.00    9.60
  -4  -3  -6   -1.10    1.80
  -4  -3  -6    2.00    1.90
  -4   3  -6    3.90    2.50
  -4   3  -6    6.60    2.90
  -4  -4   6   57.49    7.60
   4  -4  -6   70.69    6.90
  -4  -4   6   71.69   10.90
  -4   4   6   49.50    7.90
  -4   4   6   68.69    9.80
  -4   4   6   42.10    7.80
  -3  -4   6  252.97   21.60
  -3  -4   6  279.47   25.90
  -3  -4   6  296.47   23.20
  -3  -4   6  227.08   26.10
  -3   4   6  253.47   24.80
  -3   4   6  260.27   24.40
  -3   4   6  240.28   25.60
  -3   4   6  265.37   23.40
  -2  -4   6   -1.90    3.30
  -2  -4   6   12.10   11.20
  -2  -4   6    2.80    3.70
  -2  -4   6   -1.70    4.30
  -2   4   6   -4.00    2.60
  -2   4   6    1.60    3.90
  -2   4   6   -3.30    2.70
  -1  -4   6  108.09   12.10
  -1   4   6   88.59   11.70
  -1   4   6  115.09   10.60
   1   4  -6  106.39   11.80
  -1   4   6  108.49   17.50
   0   4  -6 1261.47   84.69
   0   4   6 1410.86   99.99
   0   4   6 1409.56   92.99
   0   4  -6 1279.47   86.19
   1  -4   6  305.87   48.90
  -1  -4  -6  388.56   27.50
  -1  -4  -6  366.26   26.90
  -1   4  -6  352.76   28.90
  -1   4  -6  392.36   30.80
  -2  -4  -6   11.50    4.70
  -2  -4  -6   11.40    4.20
   2  -4   6   15.90   11.90
  -2  -4  -6   18.00    4.90
  -2  -4  -6   18.50    6.00
  -2  -4  -6   13.50    7.00
  -2  -4  -6    9.50    3.70
   2  -4   6   31.70    9.80
  -2   4  -6   13.20    5.50
  -2   4  -6   17.10    6.90
  -2   4  -6    8.90    3.40
  -2   4  -6   16.20    6.00
  -2   4  -6    4.20    3.40
  -3  -4  -6    1.00    2.80
  -3  -4  -6   -7.10    6.40
   3  -4   6   -9.90   11.10
  -3  -4  -6   -0.30    2.80
  -3   4  -6    0.50    2.60
  -3   4  -6    8.20    9.00
  -4  -4  -6    3.30    1.90
  -4  -4  -6    6.50    2.60
  -4   4  -6    6.20    3.60
  -4   4  -6   10.20    3.30
  -4  -5   6   59.69    7.10
   4  -5  -6   60.79    6.20
  -4   5   6   63.89    9.00
  -4   5   6   35.10    7.10
  -4   5   6   49.80    7.60
  -3  -5   6   66.39   10.00
  -3  -5   6   85.69   13.50
  -3  -5   6   71.19   10.70
  -3   5   6   66.79   10.90
  -3   5   6   75.89   12.90
  -3   5   6   83.69   11.30
  -3   5   6   64.79   11.80
  -2  -5   6   67.59    9.40
  -2  -5   6   87.69   12.90
  -2  -5   6   81.69   10.30
   2  -5  -6   53.59    9.40
  -2  -5   6   77.09   17.30
  -2  -5   6   76.39   12.40
  -2   5   6   84.69   10.50
  -2   5   6   68.59   10.00
  -2   5   6   69.39   11.00
  -2   5   6   68.19    9.90
  -2   5   6   62.89   12.30
   1  -5  -6  220.38   19.40
  -1  -5   6  284.87   29.70
  -1  -5   6  267.47   22.30
  -1   5   6  254.17   19.60
   1   5  -6  253.47   21.80
  -1   5   6  261.07   21.30
  -1   5   6  236.18   29.00
  -1   5   6  303.27   22.30
   0  -5   6  323.17   24.20
   0  -5   6  333.97   24.70
   0   5   6  293.57   29.70
   0   5  -6  282.97   24.50
  -1  -5  -6  181.88   19.20
  -1  -5  -6  142.49   13.90
  -1  -5  -6  173.18   22.60
   1  -5   6  174.08   25.00
  -1   5  -6  157.58   17.10
  -1   5  -6  140.99   16.50
  -2  -5  -6   15.10    6.40
  -2  -5  -6    8.60    3.40
   2  -5   6   30.20    9.30
  -2  -5  -6   11.70    4.60
  -2  -5  -6   14.40    3.80
  -2  -5  -6   14.50    7.10
   2  -5   6   20.70   11.90
  -2  -5  -6   27.80   11.80
   2   5   6   23.90   10.20
  -2   5  -6    9.00    3.40
  -2   5  -6    9.00    6.10
  -2   5  -6   12.50    4.20
  -2   5  -6   11.90    6.50
  -2   5  -6   14.70    5.80
   3  -5   6   -0.80    6.30
  -3  -5  -6    1.50    2.70
  -3  -5  -6    2.80    3.40
  -3   5  -6    1.60    2.90
  -3   5  -6    6.80    4.00
  -4  -5  -6   -0.50    1.60
   4  -5   6   -1.80    3.50
  -4  -5  -6    2.70    2.30
  -4   5  -6    3.60    2.20
  -4  -6   6   12.80    4.10
  -4  -6   6   18.30    5.20
   4  -6  -6   14.30    3.70
  -4   6   6   18.50    4.70
  -4   6   6   13.40    3.90
  -4   6   6    9.50    3.40
  -3  -6   6   17.50    5.40
   3  -6  -6   12.10    5.90
  -3  -6   6   25.30    6.20
  -3  -6   6   12.60    5.00
   3  -6  -6    8.20    3.90
  -3   6   6   18.10    6.00
  -3   6   6   21.40    6.10
  -3   6   6   16.80    5.90
  -2  -6   6   31.90    8.20
   2  -6  -6   28.10    6.40
  -2  -6   6   54.89   13.90
  -2  -6   6   27.20    6.70
  -2  -6   6   37.00    7.30
   2  -6  -6   33.50    6.70
  -2  -6   6   31.20    8.20
   2   6  -6   19.30   11.80
  -2   6   6   41.90    8.60
  -2   6   6   39.40    8.40
  -2   6   6   43.40    8.90
  -2   6   6   38.70   10.70
   1  -6  -6  100.09   10.90
  -1  -6   6   72.89   10.30
  -1  -6   6   78.39   15.40
  -1  -6   6   73.29   10.50
  -1  -6   6   86.79   18.40
   1  -6  -6   65.89    8.70
  -1  -6   6  101.79   19.10
  -1   6   6   68.79    9.70
  -1   6   6   88.59   10.80
   1   6  -6   73.89   10.70
  -1   6   6   64.19   15.10
   0  -6  -6   -1.50    4.00
   0  -6  -6   21.00    4.50
   0  -6   6   20.90   12.40
   0  -6  -6    9.60    4.30
   0  -6   6   12.90   10.30
   0  -6  -6    8.90    3.60
   0  -6   6    9.50    3.90
   0   6  -6   10.70    4.20
   0   6  -6   14.60    5.20
   0   6   6   13.80    6.70
  -1  -6  -6    3.90    2.20
  -1  -6  -6    6.10    2.50
  -1  -6  -6   -1.00    2.20
  -1  -6  -6   -1.70    5.50
   1  -6   6   18.50   12.40
  -1  -6  -6   -0.20    3.60
  -1  -6  -6   -1.50    2.10
  -1  -6  -6    3.90    3.60
   1  -6   6   10.90   12.20
   1  -6   6   11.00    5.60
   1   6   6    2.70    3.90
  -1   6  -6    4.10    4.20
   2  -6   6   25.30   10.40
  -2  -6  -6    7.90    3.50
  -2  -6  -6   11.60    4.00
   2  -6   6    1.50   12.00
  -2  -6  -6   15.00    5.50
  -2  -6  -6   11.30    4.10
  -2  -6  -6    8.80    6.30
  -2   6  -6   13.80    5.60
   2   6   6   14.60    8.40
  -2   6  -6   10.20    5.30
  -2   6  -6    4.50    5.40
  -3  -6  -6   -3.90    4.70
  -3  -6  -6    1.80    2.70
  -3  -6  -6   -0.10    3.50
   3  -6   6    1.40    4.90
  -3   6  -6   10.60    4.40
  -3   6  -6   -0.80    4.70
  -3   6  -6   -7.40    3.60
  -4  -7   6    6.80    3.80
   4  -7  -6    7.30    2.50
  -4  -7   6    4.40    2.60
  -4   7   6    9.10    3.20
  -4   7   6    6.50    2.80
  -3  -7   6   21.90    5.30
  -3  -7   6   20.40    4.90
  -3  -7   6   19.90    6.60
   3  -7  -6   13.80    5.70
   3  -7  -6   25.80    6.50
  -3   7   6   23.90    7.30
  -3   7   6   33.20    8.10
  -3   7   6   18.00    5.40
  -2  -7   6   -2.50    5.00
  -2  -7   6    2.70    3.50
  -2  -7   6   -9.30    7.40
   2  -7  -6    1.30    2.70
  -2  -7   6    0.10    4.60
   2  -7  -6    5.50    4.50
  -2  -7   6    2.80    3.10
  -2  -7   6   -1.80   13.70
  -2   7   6    3.80    4.00
  -2   7   6    3.60    3.60
  -2   7   6    4.50    7.80
  -2   7   6    3.40    4.70
  -1  -7   6   33.90   12.60
  -1  -7   6   23.40    6.00
  -1  -7   6   21.60    5.60
  -1  -7   6   29.50    6.80
   1  -7  -6   37.50    8.70
   1  -7  -6   34.60    6.40
  -1  -7   6   36.90   13.50
   1  -7  -6   39.80    6.40
  -1  -7   6   27.20    7.40
  -1   7   6   18.40    4.80
  -1   7   6   20.60   10.00
   1   7  -6   31.80    7.70
  -1   7   6   40.30    7.40
  -1   7   6   35.30    6.80
   0  -7   6   57.89   16.90
   0  -7   6   44.40    7.60
   0  -7   6   45.10   14.50
   0  -7  -6   41.10    6.30
   0  -7  -6   30.20    7.30
   0  -7  -6   42.20    7.10
   0  -7   6   32.70    9.10
   0  -7  -6   41.70    7.30
   0  -7   6   30.80   12.90
   0  -7  -6   47.80    9.30
   0  -7  -6   50.99    6.70
   0   7  -6   42.90    8.30
   0   7   6   28.80    6.80
   0   7  -6   55.59    9.50
   0   7   6   35.50   11.10
  -1  -7  -6   -2.40    2.90
   1  -7   6    2.20   10.80
  -1  -7  -6    1.80    4.30
   1  -7   6   15.10    9.40
   1  -7   6    4.70    5.70
  -1  -7  -6    1.60    2.70
  -1  -7  -6   -1.00    2.10
   1  -7   6   -0.70    5.60
  -1  -7  -6   -0.10    2.90
  -1   7  -6   -2.00    2.70
   1   7   6    5.10    4.10
  -1   7  -6  -11.00    4.90
   2  -7   6   53.29   16.40
  -2  -7  -6   32.20    8.40
  -2  -7  -6   30.80    6.70
   2  -7   6   18.70    7.70
  -2  -7  -6   37.30    9.70
  -2  -7  -6   23.80    6.20
  -2  -7  -6   33.30    6.90
  -2   7  -6   22.50    6.30
  -2   7  -6   30.60   10.40
   2   7   6   27.50   11.40
  -2   7  -6   30.40    7.60
   3  -7   6    9.10    6.10
  -3  -7  -6   14.60    5.20
  -3  -7  -6    9.90    4.00
   3  -8  -6  248.58   19.80
  -3  -8   6  234.68   20.20
   3  -8  -6  224.48   19.90
  -3  -8   6  248.88   24.70
  -3  -8   6  255.47   20.60
  -3   8   6  252.07   22.50
  -3   8   6  203.58   20.20
  -2  -8   6  395.76   33.70
  -2  -8   6  371.86   28.10
  -2  -8   6  287.77   30.50
  -2  -8   6  360.76   35.40
   2  -8  -6  345.47   28.10
   2  -8  -6  325.77   27.20
  -2  -8   6  373.66   28.60
  -2   8   6  354.86   28.90
  -2   8   6  315.57   28.10
  -2   8   6  361.66   29.60
  -2   8   6  327.67   37.40
   1  -8  -6  171.18   17.30
   1  -8  -6  200.08   16.90
  -1  -8   6  182.38   17.30
  -1  -8   6  219.68   18.50
   1  -8  -6  176.28   17.70
  -1  -8   6  168.78   18.40
  -1  -8   6  189.68   22.60
  -1  -8   6  194.68   26.10
   1  -8  -6  174.78   19.20
  -1  -8   6  200.18   26.90
  -1   8   6  212.98   18.30
  -1   8   6  193.28   18.40
  -1   8   6  183.38   17.20
   0  -8   6    6.50   10.00
   0  -8  -6   12.80    5.00
   0  -8  -6   10.30    4.10
   0  -8   6   -0.60    5.40
   0  -8  -6   14.30    4.30
   0  -8   6    8.80    4.30
   0  -8   6   28.90   12.60
   0  -8   6    3.50    6.20
   0  -8  -6   10.70    3.50
   0  -8   6   13.80    7.70
   0  -8  -6    9.70    3.90
   0  -8  -6   16.10    5.40
   0  -8   6    7.20    6.80
   0   8   6    7.50    6.10
   0   8   6    9.10    4.80
   0   8  -6   -0.20    4.80
   0   8  -6    8.40    5.00
  -1  -8  -6    3.50    4.30
   1  -8   6   13.50   13.20
   1  -8   6   -4.00    4.80
  -1  -8  -6    7.00    3.10
  -1  -8  -6   14.90    4.90
   1  -8   6   -6.30   11.10
   1  -8   6   -5.10   10.20
  -1  -8  -6    0.70    3.40
  -1  -8  -6    8.20    3.80
  -1   8  -6   -5.80    4.10
  -1   8  -6    5.00    4.90
   1   8   6   10.00    7.00
   2  -8   6    0.70    4.60
  -2  -8  -6   -0.80    1.80
  -2  -8  -6    0.60    2.50
  -2  -8  -6    3.70    4.10
   2  -8   6    7.70    7.80
  -2  -8  -6    1.10    2.00
  -2  -8  -6    2.70    4.90
  -2  -8  -6   -6.80    4.50
   2  -8   6   14.80   16.00
  -2   8  -6    1.10    2.90
  -2   8  -6    5.30    4.90
  -2   8  -6    1.30    7.90
   3  -8   6    4.20    4.80
  -3  -8  -6    5.50    5.00
  -3  -8  -6    6.60    3.30
  -3   8  -6   -2.20    3.20
  -3  -9   6   11.30    3.70
   3  -9  -6    2.60    3.20
  -3  -9   6    4.20    2.90
   3  -9  -6   11.00    4.00
  -3  -9   6    8.40    4.50
  -3   9   6   14.80    5.10
  -3   9   6    7.60    3.60
  -2  -9   6   90.09   11.20
  -2  -9   6   93.99   11.80
   2  -9  -6   84.89   11.60
  -2  -9   6   97.99   15.70
  -2  -9   6   60.29   13.10
  -2  -9   6   86.19   17.10
   2  -9  -6   93.49   11.30
  -2   9   6   94.69   12.50
  -2   9   6   88.89   11.80
  -2   9   6   86.49   19.20
   1  -9  -6  521.35   36.10
   1  -9  -6  490.35   37.10
  -1  -9   6  494.55   47.30
  -1  -9   6  535.65   37.50
  -1  -9   6  489.75   37.00
  -1  -9   6  561.54   50.69
   1  -9  -6  535.25   39.60
  -1  -9   6  436.66   38.70
  -1  -9   6  456.15   43.10
  -1   9   6  500.35   43.80
  -1   9   6  521.45   37.80
   0  -9   6  302.37   23.10
   0  -9   6  293.57   34.90
   0  -9   6  293.57   39.00
   0  -9  -6  288.37   26.30
   0  -9   6  259.57   23.80
   0  -9   6  266.07   28.90
   0  -9   6  212.88   28.40
   0  -9   6  285.57   24.20
   0  -9  -6  312.67   26.80
   0  -9  -6  274.57   22.80
   0   9   6  264.57   21.90
   0   9   6  261.97   32.10
   0   9  -6  257.07   25.70
   1  -9   6  503.75   45.30
   1  -9   6  527.45   46.90
  -1  -9  -6  588.84   41.60
   1  -9   6  422.66   39.20
  -1  -9  -6  512.05   39.90
  -1  -9  -6  547.45   37.70
   1  -9   6  525.05   52.89
  -1  -9  -6  558.74   40.70
  -1  -9  -6  534.15   38.30
  -1  -9  -6  552.24   38.70
   1   9   6  494.75   47.90
  -1   9  -6  496.95   44.60
  -1   9  -6  561.04   39.70
  -2  -9  -6  104.89   12.00
  -2  -9  -6  113.09   12.20
  -2  -9  -6  125.29   15.60
  -2  -9  -6  127.89   13.20
  -2  -9  -6  113.49   14.00
   2  -9   6  117.49   20.70
   2  -9   6  117.79   19.30
  -2   9  -6  129.59   13.80
   3  -9   6   -4.40    3.90
   3  -9   6   -1.80    3.10
  -3  -9  -6    0.80    2.50
  -3   9  -6   -2.70    2.30
   3 -10  -6    5.70    3.00
  -3 -10   6    9.60    3.50
   3 -10  -6    4.70    3.70
  -3 -10   6    9.00    4.00
  -3 -10   6    5.40    4.50
  -3  10   6    7.40    3.50
  -3  10   6    8.40    4.00
  -2 -10   6   25.40    6.00
   2 -10  -6   18.70    4.60
  -2 -10   6   28.10    9.00
  -2 -10   6   22.20    7.90
   2 -10  -6   18.00    4.90
  -2 -10   6   29.80    6.80
  -2 -10   6   30.00    9.70
  -2  10   6   20.30    6.00
  -2  10   6   26.00    6.20
  -1 -10   6   19.80    7.40
   1 -10  -6   34.90    8.30
  -1 -10   6   30.60   12.20
   1 -10  -6   44.80    7.20
  -1 -10   6   11.60    9.40
  -1 -10   6   31.60    6.60
   1 -10  -6   49.70    8.10
  -1 -10   6   56.49   15.70
  -1  10   6   51.59    7.70
  -1  10   6   35.30    7.30
   0 -10   6  449.95   46.00
   0 -10   6  442.16   31.40
   0 -10   6  371.46   32.10
   0 -10   6  363.26   33.00
   0 -10  -6  415.46   31.50
   0 -10   6  351.66   37.90
   0 -10  -6  443.46   32.00
   0 -10  -6  429.36   34.00
   0 -10  -6  467.25   30.80
   0 -10   6  441.66   38.00
   0 -10  -6  459.05   35.30
   0 -10   6  433.26   41.80
   0  10   6  351.46   41.50
   0  10   6  420.26   31.10
   0  10  -6  362.66   38.00
   1 -10   6  131.39   22.20
   1 -10   6  142.99   20.40
  -1 -10  -6  149.19   16.40
  -1 -10  -6  142.69   14.30
  -1 -10  -6  153.48   16.20
   1 -10   6  107.79   15.90
   1 -10   6  160.48   21.40
  -1 -10  -6  155.08   15.00
  -1 -10  -6  109.99   15.40
  -1 -10  -6  137.89   13.70
  -1  10  -6  152.68   15.70
  -2 -10  -6    1.10    3.00
  -2 -10  -6    2.00    3.10
  -2 -10  -6    3.00    4.00
  -2 -10  -6    3.30    2.60
   2 -10   6    0.70    5.00
   2 -10   6   -7.00    3.50
  -2 -10  -6    1.60    2.20
   2 -10   6   -7.00    6.00
  -2 -10  -6   -2.30    3.90
  -2  10  -6    0.30    2.60
  -3 -10  -6   21.30    3.50
   3 -10   6   14.00    4.30
   3 -10   6   24.20    6.30
  -3 -10  -6   17.50    4.30
  -3  10  -6   12.60    3.00
  -3 -11   6    0.20    1.90
   3 -11  -6   -0.50    1.70
   3 -11  -6   -1.50    2.10
  -3 -11   6    1.30    2.30
  -3  11   6   -0.30    2.60
  -3  11   6    1.20    1.90
  -2 -11   6    4.00    3.00
  -2 -11   6   -1.60    3.80
   2 -11  -6    4.20    2.80
  -2 -11   6    8.40    6.00
   2 -11  -6    3.90    2.40
   2 -11  -6    3.30    3.20
  -2 -11   6    4.70    2.90
  -2  11   6    2.70    2.80
  -2  11   6    3.50    3.30
   1 -11  -6   69.59   11.50
  -1 -11   6   75.39   17.20
  -1 -11   6   74.69   10.80
  -1 -11   6   80.89   10.30
   1 -11  -6   79.59   10.60
  -1 -11   6   71.89   18.30
   1 -11  -6   87.19    9.70
  -1  11   6   76.69    9.50
  -1  11   6   68.89   10.00
   0 -11   6    1.30    5.90
   0 -11   6    0.60    4.10
   0 -11  -6    8.80    3.70
   0 -11   6    4.00    5.30
   0 -11  -6    6.10    4.20
   0 -11  -6    3.60    2.80
   0 -11  -6    3.10    4.20
   0 -11   6   -0.30    4.70
   0 -11  -6    2.80    2.70
   0 -11   6    5.10    5.60
   0 -11   6    5.10    7.60
   0  11   6    2.20    2.80
   1 -11   6  140.39   18.10
  -1 -11  -6  223.18   25.70
  -1 -11  -6  211.08   20.40
  -1 -11  -6  170.98   15.90
   1 -11   6  178.98   22.00
  -1  11  -6  191.98   20.10
  -2 -11  -6    8.20    5.40
   2 -11   6   13.90    7.30
  -2 -11  -6    9.50    4.90
   2 -11   6    8.20    5.00
  -2 -11  -6   11.20    4.10
   2 -11   6   15.00    8.60
  -2 -11  -6   12.00    3.40
  -2  11  -6   15.50    5.20
  -3 -11  -6    1.90    2.00
   3 -11   6    6.30    3.90
   3 -11   6    2.50    3.30
  -3 -11  -6    1.00    3.40
  -3 -12   6    2.80    2.60
   3 -12  -6    4.50    2.10
  -3 -12   6   -2.00    2.60
  -3  12   6    2.80    1.70
  -3  12   6    4.70    3.20
  -3  12   6   -0.50    1.80
  -2 -12   6   -1.70    2.00
  -2 -12   6   -1.70    3.70
   2 -12  -6    2.10    2.50
  -2 -12   6    2.20    2.60
   2 -12  -6    2.50    2.50
  -2  12   6   -2.10    2.10
  -2  12   6    2.80    2.60
   1 -12  -6    7.90    3.50
  -1 -12   6   14.40    4.90
  -1 -12   6    7.20    3.30
  -1 -12   6   17.90    8.00
  -1 -12   6    3.70    5.50
  -1 -12   6   22.20    9.00
   1 -12  -6   14.50    3.70
   1 -12  -6   10.20    5.30
  -1  12   6   15.40    5.20
  -1  12   6   11.40    4.50
   0 -12  -6    6.20    4.10
   0 -12  -6    1.70    2.40
   0 -12   6   -7.20    3.90
   0 -12   6    3.90    6.90
   0 -12  -6    5.20    4.20
   0 -12  -6    2.40    2.40
   0 -12   6   -0.70    5.50
   0 -12   6    3.30    5.00
   0 -12   6    3.10    5.10
   0  12  -6    2.80    2.40
   0  12   6    2.90    2.80
   1 -12   6   12.10    9.20
   1 -12   6   13.00    7.30
  -1 -12  -6   19.90    5.00
  -1 -12  -6   20.30    6.60
  -1 -12  -6   11.70    3.60
  -1 -12  -6   20.10    5.60
   1 -12   6    5.20    4.70
  -1  12  -6   17.90    4.90
   2 -12   6   19.40    8.20
   2 -12   6   20.90    5.30
   2 -12   6   35.30    8.90
  -2 -12  -6   30.90    8.10
  -2  12  -6   20.70    5.70
  -2 -13   6   -0.60    1.70
   2 -13  -6   -1.20    1.80
  -2 -13   6    1.30    1.90
  -2 -13   6   -4.20    2.80
   2 -13  -6    1.30    2.20
  -2  13   6    1.80    2.50
   2  13  -6    1.00    2.60
  -2  13   6    1.20    2.20
  -1 -13   6   -4.10    3.80
   1 -13  -6    1.40    2.30
   1 -13  -6    3.00    2.40
  -1 -13   6    3.30    3.90
  -1 -13   6    0.30    2.00
  -1 -13   6   -3.10    7.20
  -1 -13   6   -1.90    2.30
   1 -13  -6   -1.50    3.50
  -1  13   6    7.50    3.80
   1  13  -6    0.50    2.30
   0 -13  -6    8.50    4.00
   0 -13  -6    8.20    3.20
   0 -13  -6   13.80    5.40
   0 -13  -6   10.80    3.70
   0 -13   6    2.60    4.50
   0 -13   6   14.00    6.90
   0 -13   6    3.00    4.70
   0  13  -6    7.10    3.30
   0  13   6    6.30    3.40
  -1 -13  -6    1.00    2.30
  -1 -13  -6   -1.00    2.10
  -1 -13  -6    5.20    3.20
   1 -13   6   -1.60    4.80
   1 -13   6    0.70    4.10
   1 -13   6   -1.30    4.50
  -1  13  -6    3.70    2.80
  -1  13  -6    0.60    2.90
  -2 -13  -6    3.40    2.30
   2 -13   6    0.20    3.10
   2 -13   6    1.30    3.70
  -2 -13  -6    2.60    2.90
  -2  13  -6    4.10    2.70
  -2 -14   6    5.30    2.00
   2 -14  -6    7.90    2.40
  -2 -14   6    6.50    3.10
   2 -14  -6   10.50    2.80
  -2  14   6   10.70    2.90
  -1 -14   6    5.10    6.50
   1 -14  -6    6.60    2.70
   1 -14  -6    7.30    3.10
  -1 -14   6   27.70   10.40
   1 -14  -6   11.10    4.40
  -1 -14   6    2.70    5.40
  -1 -14   6   10.90    2.80
  -1 -14   6    2.10    2.10
   1  14  -6    6.00    2.70
  -1  14   6    4.80    3.40
   0 -14   6   23.70    8.90
   0 -14  -6   22.80    5.10
   0 -14   6   12.40    7.00
   0 -14  -6   18.30    4.10
   0 -14  -6   25.80    6.30
   0  14  -6   10.60    3.60
   0  14   6   11.80    3.90
   1 -14   6    9.40    4.70
   1 -14   6   13.00    5.70
  -1 -14  -6   11.50    3.60
  -1 -14  -6   15.10    4.90
  -1 -14  -6    9.80    3.00
  -1  14  -6   10.50    3.70
  -1  14  -6   13.70    3.70
   2 -14   6   34.30    6.20
  -2 -14  -6   29.80    4.50
  -2 -14  -6   29.50    4.70
  -1 -15   6    1.40    2.80
   1 -15  -6    1.20    1.70
  -1 -15   6   -1.20    2.00
  -1 -15   6   -0.70    2.70
  -1  15   6   -1.60    1.80
   1  15  -6   -2.50    1.40
   0 -15   6    5.30    3.80
   0 -15  -6    2.50    2.20
   0 -15   6    0.30    3.40
   0 -15  -6    2.70    2.40
   0  15  -6    0.80    1.60
   0  15   6    1.00    2.60
   1 -15   6    4.60    4.80
  -1 -15  -6    9.40    3.40
  -1 -15  -6    1.90    2.00
   1 -15   6    8.90    3.80
  -1 -15  -6    4.80    2.60
  -1  15  -6    5.60    2.50
  -1  15  -6    6.10    2.30
   0 -16   6    5.30    5.80
   0 -16  -6    5.50    2.10
   0 -16  -6    9.90    2.90
   0 -16   6    7.40    3.50
   0  16  -6    4.70    1.90
   0  16  -6    4.10    1.80
  -4   0   7   -0.40    3.10
  -4   0   7    1.40    3.30
  -4   0   7   -0.90    2.60
  -3   0   7    2.10    3.40
  -3   0   7  -10.30    5.00
  -3   0   7    3.20    4.70
  -3   0   7   -0.10    4.00
  -3   0   7   -2.40    2.60
  -2   0   7   -1.00    3.70
  -2   0   7   -4.80    2.40
  -2   0   7   -3.70    3.10
  -2   0   7    1.90    3.20
  -1   0   7    0.30    3.40
  -1   0   7    1.50    2.20
   0   0   7   -0.70    2.60
   0   0   7    1.30    2.00
   1   0   7   -4.40    4.90
  -1   0  -7   -1.30    2.20
   2   0   7   -1.50    5.60
  -2   0  -7   -2.00    2.00
  -2   0  -7    2.30    2.40
  -2   0  -7   -1.10    3.60
  -2   0  -7    1.60    4.20
  -2   0  -7   -2.90    3.00
   3   0   7   -9.40   10.40
  -3   0  -7   -1.40    2.80
  -3   0  -7    0.00    2.00
  -3   0  -7    1.90    3.00
  -4   0  -7    2.20    2.00
  -4   0  -7   -0.10    1.90
  -4  -1   7   32.30    6.10
  -4  -1   7   41.50    7.20
  -4   1   7   55.39    7.30
  -4   1   7   36.40    6.80
  -3  -1   7   38.20   11.60
  -3  -1   7   46.70    9.70
  -3  -1   7   45.70    8.00
  -3  -1   7   40.70    9.70
  -3  -1   7   54.79    8.80
  -3  -1   7   43.50   10.30
  -3   1   7   49.00   10.40
  -3   1   7   28.40   10.50
  -3   1   7   33.90    9.00
  -3   1   7   35.90    8.00
  -3   1   7   33.80    7.60
  -3   1   7   49.20   10.30
  -2  -1   7  113.99   14.60
  -2  -1   7  121.79   14.00
  -2  -1   7  122.19   14.60
  -2  -1   7  101.29   13.80
  -2  -1   7  112.99   12.30
  -2   1   7   82.19   13.30
  -2   1   7  120.49   13.60
  -2   1   7  109.79   13.50
  -2   1   7  126.29   12.80
  -2   1   7  118.59   14.50
  -1  -1   7  481.15   33.60
  -1  -1   7  391.76   37.50
  -1   1   7  451.65   32.40
  -1   1   7  488.95   33.30
  -1   1   7  431.56   40.00
   0  -1   7  202.58   16.80
   0  -1   7  248.58   22.00
   0   1  -7  204.68   14.80
   0   1   7  189.38   21.00
   0   1   7  195.78   16.20
  -1  -1  -7   17.70    5.00
  -1   1  -7   16.10    5.00
  -2  -1  -7   57.69   10.30
  -2  -1  -7   56.39    9.50
  -2  -1  -7   67.49   12.30
  -2  -1  -7   46.70    8.00
  -2  -1  -7   48.30    8.10
  -2   1  -7   54.59    9.20
  -2   1  -7   50.29    7.80
  -2   1  -7   36.50    9.40
  -2   1  -7   59.09   10.10
   2   1   7   27.40   16.80
   3  -1   7   16.40   11.00
  -3  -1  -7   12.70    5.20
  -3  -1  -7    6.20    2.30
  -3  -1  -7    6.90    6.70
   3  -1   7    7.50   11.90
  -3  -1  -7   10.60    5.10
  -3   1  -7   11.60    5.00
  -3   1  -7   15.30    9.50
   3   1   7   23.10   10.50
  -3   1  -7    9.50    2.70
   3   1   7   18.30   10.90
  -3   1  -7   11.00    4.30
  -4  -1  -7   14.60    3.70
  -4  -1  -7   22.90    4.10
  -4   1  -7   27.30    4.20
  -4   1  -7   23.80    4.20
  -4  -2   7  534.35   37.20
  -4   2   7  596.84   40.90
  -4   2   7  520.75   36.50
  -3  -2   7  266.67   21.70
  -3  -2   7  255.57   24.50
  -3  -2   7  248.78   21.30
  -3  -2   7  220.88   23.20
  -3  -2   7  238.48   20.60
  -3  -2   7  249.58   26.70
  -3   2   7  223.38   23.80
  -3   2   7  245.08   23.90
  -3   2   7  241.68   23.90
  -3   2   7  252.17   21.20
  -3   2   7  263.07   22.40
  -3   2   7  189.98   25.80
  -2  -2   7   41.90   18.80
  -2  -2   7   32.90    7.30
  -2  -2   7   34.40    8.70
  -2  -2   7   36.00    7.40
  -2  -2   7   28.80    8.80
  -2  -2   7   29.60    7.00
  -2   2   7   38.80    8.20
  -2   2   7   34.10    7.90
  -2   2   7   46.90    7.70
  -2   2   7   21.00    6.80
  -2   2   7   38.00    8.60
  -1  -2   7    4.00    4.50
  -1  -2   7    5.80    3.60
  -1   2   7    8.90    3.50
  -1   2   7    5.20    6.20
  -1   2   7   -2.60    5.20
   1   2  -7    6.80    3.10
   0  -2   7  314.97   25.50
   0  -2   7  279.97   21.20
   0   2   7  253.07   25.80
   0   2  -7  269.07   18.70
   0   2   7  280.67   20.20
   0   2  -7  219.18   21.50
  -1  -2  -7  116.09   11.70
  -1  -2  -7  168.68   15.60
  -1  -2  -7  131.59   12.70
  -1  -2  -7  132.79   13.30
  -1   2  -7  145.39   15.00
  -2  -2  -7    9.20    3.40
  -2  -2  -7   11.80    6.00
   2  -2   7   16.80    9.20
  -2  -2  -7    8.20    4.60
  -2   2  -7    9.20    4.40
   2   2   7   27.60   10.10
  -2   2  -7    3.60    2.80
  -2   2  -7    7.70    4.30
  -2   2  -7    7.40    4.80
  -3  -2  -7    8.40    3.00
  -3  -2  -7   17.90    6.60
  -3  -2  -7   10.20   10.30
   3  -2   7   12.60   12.50
  -3  -2  -7   17.70    5.40
   3  -2   7   49.60   24.80
  -3   2  -7   19.10    6.60
  -3   2  -7    9.80   14.70
  -4  -2  -7   92.49    9.40
  -4  -2  -7  104.29    9.10
  -4   2  -7   83.89    8.30
  -4   2  -7   99.49    8.60
  -4  -3   7   16.30    3.90
  -4  -3   7   15.50    4.10
  -4  -3   7    7.40    3.90
  -4   3   7   11.00    4.60
  -4   3   7   12.20    5.10
  -4   3   7   10.60    4.10
  -4   3   7    4.70    5.40
  -3  -3   7   32.50    8.00
  -3  -3   7   29.50    9.90
  -3  -3   7   21.60    5.60
  -3  -3   7   28.30    7.50
  -3  -3   7   32.10    7.00
   3  -3  -7   28.70    6.30
  -3   3   7   19.80    6.50
  -3   3   7   42.30    9.40
  -3   3   7   21.50    6.90
  -3   3   7    3.80    9.80
  -3   3   7   27.00    7.30
  -2  -3   7   70.59   16.40
   2  -3  -7   52.49    8.40
  -2  -3   7   61.39   11.50
  -2  -3   7   60.19   11.30
  -2  -3   7   61.69    9.00
  -2  -3   7   50.29   10.90
  -2  -3   7   56.99    9.70
  -2   3   7   48.50    9.40
  -2   3   7   74.39    9.60
  -2   3   7   68.49   10.20
  -2   3   7   54.69   10.50
  -1  -3   7  531.85   39.20
   1   3  -7  489.65   42.60
  -1   3   7  619.54   46.00
  -1   3   7  536.45   37.70
  -1   3   7  494.65   47.10
   0  -3   7    2.60    2.70
   0  -3   7    5.40    4.10
   0   3   7    3.90    2.00
   0   3  -7    0.40    1.60
   0   3  -7   -1.00    3.00
   0   3   7    1.30    3.10
  -1  -3  -7 1049.40   65.89
  -1  -3  -7 1009.10   67.09
  -1  -3  -7  995.60   65.39
  -1  -3  -7  940.21   63.89
  -1  -3  -7  970.40   67.19
  -1   3  -7  937.91   64.29
  -1   3  -7 1077.99   69.19
  -2  -3  -7   -6.90    4.10
  -2  -3  -7    6.30    4.70
  -2  -3  -7   -0.20    2.40
   2  -3   7   -9.50    8.30
  -2  -3  -7    1.20    4.20
  -2  -3  -7    0.60    2.60
   2  -3   7   -1.70    4.90
   2   3   7    1.50    6.20
  -2   3  -7    1.30    3.60
  -2   3  -7    0.10    4.20
  -2   3  -7   -5.50    2.80
  -2   3  -7    2.00    2.20
  -3  -3  -7   28.30    8.20
  -3  -3  -7   45.70    8.20
  -3   3  -7   44.00    8.20
  -3   3  -7   39.00    7.60
  -4  -3  -7    1.90    2.00
  -4  -3  -7    4.60    1.90
  -4   3  -7    2.30    2.50
  -4  -4   7    6.20    3.70
  -4  -4   7    1.80    2.40
  -4   4   7   -9.40    4.40
  -4   4   7    3.10    3.40
  -4   4   7    6.50    3.40
  -4   4   7    4.50    3.90
  -3  -4   7   10.90   10.60
  -3  -4   7   14.20    6.40
  -3  -4   7   15.20    5.50
  -3   4   7   14.90    6.10
  -3   4   7   15.80    5.90
  -3   4   7   17.40    6.30
  -3   4   7   11.50    5.60
  -2  -4   7   21.20    6.00
  -2  -4   7   19.80    6.20
  -2  -4   7   20.40    7.70
  -2  -4   7   21.90    7.50
  -2  -4   7   19.00    5.20
  -2  -4   7   25.20   14.40
  -2   4   7   28.00    7.50
  -2   4   7   22.30    6.60
  -2   4   7   26.70    7.10
  -2   4   7   23.40    6.00
   1  -4  -7   18.70    4.30
  -1  -4   7   25.20   11.80
  -1  -4   7   26.10    6.70
  -1  -4   7   18.20    7.80
  -1  -4   7   29.60    7.50
  -1   4   7   39.70    6.90
  -1   4   7   27.20    6.00
   1   4  -7   33.30    7.20
  -1   4   7   27.80    5.20
   0  -4   7  341.27   24.50
   0  -4   7  339.77   26.60
   0   4  -7  266.47   22.20
   0   4  -7  274.07   24.60
   0   4   7  310.97   21.70
   0   4   7  311.07   30.60
  -1  -4  -7  103.99   10.50
   1  -4   7  148.59   28.10
   1  -4   7   92.39   21.20
  -1  -4  -7  110.49   11.20
  -1   4  -7   76.29    9.70
  -1   4  -7  102.29   13.50
  -2  -4  -7   -3.90    3.10
  -2  -4  -7   -1.70    5.80
  -2  -4  -7    3.10    2.60
  -2  -4  -7   -1.30    2.50
   2  -4   7   -1.00    9.80
   2  -4   7   -8.20    6.00
  -2  -4  -7   -5.60    3.10
  -2  -4  -7    0.30    5.20
  -2   4  -7   -0.60    4.80
  -2   4  -7    1.80    4.70
   2   4   7   -5.60    5.50
  -2   4  -7   -2.30    1.60
  -2   4  -7   -5.70    5.20
  -3  -4  -7    0.50    3.20
  -3  -4  -7    3.40    3.80
  -3   4  -7    0.00    2.60
  -3   4  -7    7.00    3.40
  -4  -4  -7    2.80    2.00
  -4  -4  -7    4.40    1.70
  -4   4  -7    2.70    2.40
  -4  -5   7    5.80    3.30
   4  -5  -7    0.80    2.60
  -4  -5   7    6.40    2.60
  -4   5   7    4.00    4.20
  -4   5   7    5.20    2.70
  -4   5   7    4.80    3.40
  -3  -5   7   12.20    4.60
   3  -5  -7    7.10    3.30
  -3  -5   7   13.30    4.30
  -3  -5   7    2.30    8.30
  -3  -5   7   10.90    5.50
  -3   5   7   10.40    5.60
  -3   5   7    9.10    5.50
  -3   5   7    8.80    5.40
  -3   5   7    8.80    4.30
  -2  -5   7    6.40    3.50
  -2  -5   7    6.30    4.50
   2  -5  -7    5.60    3.30
  -2  -5   7   -3.20   10.70
  -2  -5   7    1.90    4.30
  -2  -5   7    4.60    3.80
  -2   5   7    4.30    3.50
  -2   5   7   -7.30    7.90
  -2   5   7   -0.60    4.40
  -2   5   7    6.00    4.50
  -2   5   7   -9.20    4.50
   1  -5  -7   48.50    6.90
   1  -5  -7   50.09    8.80
  -1  -5   7   47.40   15.30
  -1  -5   7   35.70   10.10
  -1  -5   7   61.19    9.10
  -1  -5   7   40.90    8.90
  -1  -5   7   53.59   16.50
  -1   5   7   37.10   12.10
  -1   5   7   54.09    7.60
   1   5  -7   45.70    8.30
  -1   5   7   60.49    8.00
   0  -5   7   98.79   12.50
   0  -5  -7  101.99    9.60
   0  -5   7  112.09   20.40
   0  -5   7  111.49   18.90
   0  -5  -7   83.79   10.30
   0  -5  -7   95.59   10.30
   0  -5   7   91.29   11.00
   0  -5  -7   90.79    9.00
   0   5  -7   72.39   11.60
   0   5  -7   86.69   10.90
   0   5   7  119.89    9.60
   0   5   7  109.49   16.60
  -1  -5  -7    1.70    4.20
  -1  -5  -7   12.30    3.60
  -1  -5  -7    4.60    3.00
  -1  -5  -7   12.30    3.90
   1  -5   7   19.00   14.20
  -1  -5  -7   12.80    3.80
   1  -5   7  -21.10    9.60
   1   5   7    7.10    4.90
  -1   5  -7    4.50    3.70
  -1   5  -7   -4.80    4.00
  -2  -5  -7   27.30    6.10
   2  -5   7   20.30   13.10
  -2  -5  -7   28.70    8.30
   2  -5   7   63.69   21.80
  -2  -5  -7   42.40    9.10
  -2  -5  -7   43.40   10.70
  -2  -5  -7   48.40    7.60
  -2  -5  -7   28.70    5.80
  -2   5  -7   37.60   12.50
  -2   5  -7   32.00    6.70
  -2   5  -7   21.10    6.40
  -2   5  -7   27.90    5.60
  -2   5  -7   15.70    7.40
   3  -5   7   10.10    7.00
  -3  -5  -7   11.20    4.40
  -3  -5  -7   16.90    6.00
  -3   5  -7   12.90    5.00
  -3   5  -7   12.70    4.00
  -4  -6   7   13.40    3.70
  -4  -6   7   17.60    3.30
   4  -6  -7   16.80    4.00
  -4   6   7   22.00    5.00
  -3  -6   7   25.50    6.10
   3  -6  -7   18.30    4.80
  -3  -6   7   28.00    6.40
  -3  -6   7   31.10    8.00
  -3   6   7   28.10    7.20
  -3   6   7   29.20    8.00
  -3   6   7   34.40    8.50
  -3   6   7   29.50    8.00
   2  -6  -7   74.39   10.50
  -2  -6   7   91.29   18.20
  -2  -6   7   96.59   11.80
  -2  -6   7   82.39   13.30
  -2  -6   7   88.69   11.40
  -2  -6   7   99.59   14.90
  -2   6   7   83.59   11.50
  -2   6   7   80.79   11.30
  -2   6   7   83.49   11.50
   1  -6  -7   20.00    4.70
  -1  -6   7   26.50    6.70
  -1  -6   7   22.00    5.70
  -1  -6   7   20.70   11.30
  -1  -6   7   13.00    4.20
  -1  -6   7   34.40   12.20
   1  -6  -7   27.60    5.80
  -1  -6   7   18.50    6.30
   1   6  -7   14.70    6.70
  -1   6   7   21.30    8.40
  -1   6   7   18.50    6.30
  -1   6   7   23.30    5.30
   0  -6  -7   33.40    5.70
   0  -6   7   40.00   13.10
   0  -6  -7   31.10    6.10
   0  -6  -7   28.60    5.50
   0  -6  -7   32.20   11.30
   0  -6   7   31.00   13.40
   0  -6   7   16.20    9.00
   0  -6   7   18.20    5.10
   0   6   7   19.10    6.70
   0   6  -7   26.50    7.40
   0   6  -7   20.80    5.70
  -1  -6  -7   58.69    7.70
   1  -6   7   70.89   20.60
  -1  -6  -7   50.59    7.70
  -1  -6  -7   40.10    7.40
  -1  -6  -7   54.39    9.50
   1  -6   7   57.39   17.70
  -1  -6  -7   31.00    8.50
  -1  -6  -7   58.69    7.80
  -1   6  -7   62.99   10.80
   1   6   7   61.19   13.20
  -1   6  -7   29.50    8.60
  -2  -6  -7    6.90    4.10
  -2  -6  -7    8.50    4.60
   2  -6   7    1.20   10.50
  -2  -6  -7    4.60    3.30
   2  -6   7    1.90   11.30
  -2  -6  -7   11.20    7.10
  -2  -6  -7    6.10    3.60
  -2   6  -7   11.20    5.70
   2   6   7   -1.10    7.90
  -2   6  -7   10.90    4.20
  -2   6  -7    3.60    4.30
  -2   6  -7   12.30    8.00
  -3  -6  -7   -2.70    2.10
  -3  -6  -7    2.30    3.30
   3  -6   7   -7.10    5.00
  -3   6  -7    2.60    3.60
  -3  -7   7  252.07   24.20
  -3  -7   7  257.37   20.10
  -3  -7   7  229.38   19.30
   3  -7  -7  223.48   18.80
  -3   7   7  215.58   22.00
  -3   7   7  215.28   20.80
  -3   7   7  164.18   19.60
  -3   7   7  181.48   19.20
  -2  -7   7   -8.70    8.60
  -2  -7   7    8.20    4.60
  -2  -7   7   10.80    5.10
  -2  -7   7  -18.60   12.20
   2  -7  -7   -1.40    4.00
  -2  -7   7    5.10    3.60
  -2  -7   7   11.70    6.80
   2  -7  -7    8.00    3.30
  -2   7   7  -22.00   12.30
  -2   7   7   13.70    5.00
  -2   7   7    4.30    5.40
  -2   7   7   10.20    5.30
   1  -7  -7    4.30    3.40
  -1  -7   7    4.80    8.40
  -1  -7   7   14.50   10.10
   1  -7  -7    7.50    3.60
  -1  -7   7    5.80    4.00
  -1  -7   7   10.20    4.10
  -1  -7   7    8.00    4.50
   1  -7  -7   -5.10    5.90
  -1  -7   7    0.20    5.00
  -1   7   7    6.30    4.60
  -1   7   7    6.60    6.30
  -1   7   7    5.30    4.30
  -1   7   7    4.80    4.00
   0  -7  -7   39.70    7.40
   0  -7   7   29.50   10.30
   0  -7   7   43.50   12.30
   0  -7  -7   39.40    6.00
   0  -7  -7   41.10    7.30
   0  -7  -7   46.10    8.60
   0  -7  -7   42.90    6.20
   0  -7   7   27.70    6.00
   0  -7   7   50.99   16.80
   0   7  -7   31.40    7.00
   0   7   7   41.60    8.50
   0   7   7   47.50   15.10
  -1  -7  -7    5.90    3.10
  -1  -7  -7   -0.90    2.50
  -1  -7  -7    0.00    4.60
   1  -7   7    1.60   11.60
  -1  -7  -7   -3.00    2.70
  -1   7  -7    3.90    4.10
   1   7   7    0.40    4.60
  -1   7  -7    2.80    4.40
   2  -7   7   30.10   13.80
  -2  -7  -7   15.60    4.30
  -2  -7  -7   14.70    5.30
   2  -7   7   14.40    7.20
  -2  -7  -7    4.00    3.50
  -2  -7  -7    7.00    3.30
   2  -7   7   35.80   12.90
  -2  -7  -7   14.60    6.60
  -2   7  -7    9.10    5.80
  -2   7  -7    6.20    7.90
  -2   7  -7   11.10    4.70
   3  -7   7   33.30    9.60
  -3  -7  -7   52.59    8.20
  -3   7  -7   48.30    6.80
  -3  -8   7   18.60    5.30
  -3  -8   7   14.40    4.80
   3  -8  -7    6.80    6.50
   3  -8  -7   11.70    4.10
  -3  -8   7   12.80    5.70
  -3   8   7   15.00    4.90
  -3   8   7   18.00    5.90
  -2  -8   7   65.69   15.90
  -2  -8   7   60.99    9.40
  -2  -8   7   65.69   10.00
   2  -8  -7   53.79    9.20
  -2  -8   7   88.59   14.40
  -2  -8   7   50.79   12.80
   2  -8  -7   67.49    9.30
  -2   8   7   71.89   10.70
  -2   8   7   70.39    9.60
  -1  -8   7  229.78   20.40
  -1  -8   7  215.58   19.40
  -1  -8   7  256.67   30.50
   1  -8  -7  211.18   18.90
   1  -8  -7  220.08   20.50
  -1  -8   7  187.98   21.30
  -1  -8   7  216.18   24.50
  -1  -8   7  207.68   28.70
   1  -8  -7  231.18   18.40
  -1   8   7  221.68   19.00
  -1   8   7  213.38   19.50
  -1   8   7  175.18   29.50
   0  -8   7   73.29   10.90
   0  -8   7   57.69   15.80
   0  -8  -7   58.69   10.20
   0  -8  -7   49.60    8.50
   0  -8  -7   60.59    7.80
   0  -8   7   55.69   20.20
   0  -8   7   46.60   12.40
   0  -8   7   31.60   15.80
   0  -8   7   48.80    9.00
   0  -8  -7   56.49    8.90
   0  -8  -7   57.09    7.30
   0   8   7   59.89   18.10
   0   8   7   39.10    7.50
  -1  -8  -7   16.10    5.20
  -1  -8  -7    9.70    3.50
  -1  -8  -7   18.90    4.80
  -1  -8  -7   21.50    5.00
   1  -8   7    2.60   11.60
  -1  -8  -7   13.70    5.60
   1  -8   7    6.20    6.60
   1  -8   7   12.50   11.40
  -1   8  -7   19.80    5.70
  -1   8  -7    4.10    6.90
   1   8   7   15.10    9.10
   2  -8   7   58.69   20.10
  -2  -8  -7  101.29   16.10
  -2  -8  -7  118.49   25.40
  -2  -8  -7  116.79   20.20
  -2   8  -7  119.99   15.10
  -3  -8  -7   11.50    4.30
  -3  -8  -7    2.60    4.30
   3  -8   7    7.90    5.40
   3  -9  -7    3.80    4.50
  -3  -9   7    6.90    3.30
   3  -9  -7    5.80    2.70
  -3  -9   7    9.80    3.60
  -3  -9   7    2.10    3.50
  -3   9   7    5.00    3.40
  -3   9   7    7.50    4.00
  -3   9   7    4.00    3.60
  -2  -9   7   80.19   18.20
   2  -9  -7   84.29   11.80
  -2   9   7   68.79   11.00
  -1  -9   7    1.20    6.10
  -1  -9   7    0.10    7.20
  -1  -9   7    2.50    4.00
   1  -9  -7    2.60    2.80
  -1  -9   7   -4.80    4.30
  -1  -9   7    8.10    8.80
   1  -9  -7   -0.60    1.80
  -1  -9   7   -1.30    2.90
   1  -9  -7    6.20    4.40
   1  -9  -7    3.40    3.20
  -1   9   7   -3.60    2.80
  -1   9   7    3.50    4.00
   0  -9  -7   61.19    9.60
   0  -9  -7   65.59    8.50
   0  -9   7   60.19    9.30
   0  -9   7   81.09   19.20
   0  -9   7   62.69   18.20
   0  -9   7   46.10   11.70
   0  -9  -7   65.89    9.20
   0  -9  -7   70.59   10.40
   0  -9   7   46.70    9.80
   0   9   7   54.09    8.50
   0   9   7   35.40   13.10
   1  -9   7   49.90   13.70
   1  -9   7   12.70    6.70
  -1  -9  -7   40.50    9.00
   1  -9   7   26.90   13.00
  -1  -9  -7   22.20    4.70
  -1  -9  -7   24.80    6.60
   1  -9   7   20.60    9.10
  -1  -9  -7   25.40    5.50
  -1  -9  -7   25.10    5.90
  -1   9  -7   31.90    7.50
   2  -9   7   76.99   17.70
  -2  -9  -7   91.29   12.00
  -2  -9  -7   85.79   10.10
  -2  -9  -7   88.39   10.40
  -2  -9  -7   92.59   12.10
   2  -9   7   93.89   16.60
  -2   9  -7   90.39   11.20
  -3  -9  -7    7.40    3.30
   3  -9   7    0.80    2.90
  -3  -9  -7    1.80    2.70
   3  -9   7   -2.60    4.20
   3 -10  -7    0.20    1.40
  -3 -10   7    3.00    2.20
  -3 -10   7    0.00    2.10
   3 -10  -7    0.50    1.60
  -3  10   7    0.00    2.60
  -3  10   7   -1.50    2.00
  -3  10   7    2.30    3.00
  -2 -10   7   -1.20    3.90
  -2 -10   7   -7.50    5.50
   2 -10  -7    0.00    2.90
   2 -10  -7    0.00    1.80
  -2 -10   7    1.00    2.40
  -2 -10   7    2.90    2.70
  -2 -10   7    2.30    6.20
  -2  10   7   -1.80    2.70
  -2  10   7    3.60    3.70
  -1 -10   7  103.49   11.90
   1 -10  -7  102.59    9.60
  -1 -10   7   96.59   20.10
  -1 -10   7   91.79   17.00
   1 -10  -7  110.49   13.60
   1 -10  -7   95.59   11.70
  -1 -10   7   71.19   17.60
  -1 -10   7   92.89   11.90
   1 -10  -7  106.19   11.20
  -1  10   7  119.19   11.40
  -1  10   7  101.99   12.10
   0 -10   7  628.14   48.50
   0 -10   7  569.14   56.59
   0 -10   7  586.64   42.30
   0 -10   7  626.94   41.40
   0 -10   7  481.35   47.80
   0 -10  -7  576.64   42.10
   0 -10  -7  624.64   41.10
   0 -10   7  613.14   53.69
   0 -10  -7  607.74   44.50
   0 -10  -7  615.14   42.90
   0  10   7  591.14   41.60
   0  10   7  510.45   54.69
  -1 -10  -7  235.28   19.90
  -1 -10  -7  243.18   21.80
  -1 -10  -7  217.18   21.20
   1 -10   7  211.58   30.40
  -1 -10  -7  230.58   20.00
   1 -10   7  216.78   25.50
   1 -10   7  217.38   25.20
  -1 -10  -7  219.68   19.00
  -1  10  -7  223.58   20.70
  -2 -10  -7    2.00    3.00
  -2 -10  -7    1.30    2.50
   2 -10   7    7.60    6.50
   2 -10   7    2.70    5.00
   2 -10   7    0.70    3.40
  -2 -10  -7    3.00    4.60
  -2 -10  -7    1.80    2.80
  -2  10  -7    5.00    3.10
   3 -10   7   -3.00    2.60
   3 -10   7    3.50    4.50
  -3 -10  -7    2.60    2.00
   3 -11  -7    8.90    2.50
  -3 -11   7    2.30    1.80
  -3 -11   7    4.20    3.20
  -3 -11   7    6.40    2.40
   3 -11  -7    4.30    1.70
  -3  11   7    7.40    2.90
  -3  11   7    6.40    2.70
  -3  11   7    4.80    2.30
  -2 -11   7   21.40    5.10
   2 -11  -7    8.00    3.60
  -2 -11   7   15.50    4.40
   2 -11  -7   25.20    5.10
   2 -11  -7   15.30    3.00
  -2 -11   7    7.60    4.70
  -2  11   7   15.30    4.70
  -2  11   7   22.00    6.10
  -1 -11   7    2.40    2.80
   1 -11  -7    0.80    2.20
   1 -11  -7   -1.50    2.50
  -1 -11   7   -0.60    5.00
  -1 -11   7   -2.80    6.10
   1 -11  -7    1.00    2.30
  -1 -11   7    0.70    6.60
  -1 -11   7    0.10    2.70
  -1  11   7    1.10    2.70
   0 -11   7    0.20    4.20
   0 -11   7    1.20    5.50
   0 -11  -7    0.40    2.30
   0 -11  -7    3.30    3.40
   0 -11  -7    6.50    4.00
   0 -11   7    2.90    6.10
   0 -11   7   -9.50    5.10
   0 -11  -7    3.70    2.40
   1 -11   7  303.47   38.70
  -1 -11  -7  388.36   28.90
   1 -11   7  380.16   35.00
   1 -11   7  393.66   35.40
  -1 -11  -7  344.87   29.90
  -1 -11  -7  388.36   27.90
  -1 -11  -7  385.86   30.80
  -1  11  -7  359.96   29.70
   2 -11   7  201.58   21.50
   2 -11   7  161.68   20.20
   2 -11   7  133.09   21.90
  -2 -11  -7  186.88   15.70
  -2 -11  -7  191.88   17.30
  -2  11  -7  182.48   16.50
   2 -12  -7    1.70    2.50
  -2 -12   7    1.40    2.10
  -2 -12   7   -0.80    3.30
  -2 -12   7    3.10    2.10
   2 -12  -7    0.10    3.00
   2 -12  -7   -0.90    3.20
  -2  12   7    0.30    2.60
  -2  12   7    2.90    3.00
   1 -12  -7   11.80    3.60
  -1 -12   7    8.00    3.40
  -1 -12   7   12.50    3.90
  -1 -12   7   10.30    6.20
   1 -12  -7   12.60    5.70
   1 -12  -7    7.10    3.00
  -1 -12   7   12.60    7.30
  -1 -12   7   17.70    8.40
  -1 -12   7  -10.80    8.20
  -1  12   7   15.00    4.90
   0 -12  -7  175.58   16.50
   0 -12  -7  176.28   18.10
   0 -12   7  164.68   24.60
   0 -12   7  165.18   21.80
   0 -12   7  178.78   20.50
   0 -12  -7  184.18   15.60
   0 -12  -7  207.58   17.50
   0  12   7  165.98   15.50
   0  12  -7  166.18   16.70
  -1 -12  -7   35.30    6.90
  -1 -12  -7   45.70    7.40
  -1 -12  -7   38.00    8.30
   1 -12   7   19.10    7.50
   1 -12   7   30.20   11.70
  -1 -12  -7   14.40    7.00
  -1 -12  -7   26.40    5.00
  -1  12  -7   36.60    7.30
   2 -12   7    3.00    4.70
  -2 -12  -7    5.60    2.70
   2 -12   7   -7.10    6.20
  -2 -12  -7    4.40    2.90
   2 -12   7   -2.80    2.70
  -2  12  -7    3.60    2.40
  -2 -13   7    9.20    4.50
   2 -13  -7   21.00    4.00
  -2 -13   7   16.50    3.20
   2  13  -7   11.10    2.60
  -2  13   7   14.00    3.70
  -1 -13   7   14.90    4.10
   1 -13  -7   33.20    5.40
   1 -13  -7   19.20    4.20
  -1 -13   7   22.70    9.10
   1 -13  -7   21.50    6.20
  -1 -13   7   11.80    5.90
  -1  13   7   20.40    5.00
   0 -13   7   18.90    9.80
   0 -13   7    6.20    5.30
   0 -13  -7   17.90    6.00
   0 -13   7   16.70    7.40
   0 -13  -7   14.40    3.80
   0 -13  -7   18.50    4.90
   0 -13  -7   14.80    4.30
   0  13   7   17.10    6.40
   0  13  -7    9.10    3.40
  -1 -13  -7   57.99    7.70
  -1 -13  -7   61.09    7.70
   1 -13   7   33.70    8.50
   1 -13   7   38.10   12.00
  -1 -13  -7   51.39    8.50
  -1  13  -7   43.90    7.30
  -1  13  -7   47.00    7.00
  -2 -13  -7   34.00    5.40
   2 -13   7   36.00    7.80
  -2 -13  -7   36.00    5.00
  -2  13  -7   26.60    4.70
  -2 -14   7    4.30    1.50
  -2 -14   7    0.10    2.90
   2 -14  -7    2.40    1.70
  -2 -14   7   -0.10    1.10
   2 -14  -7    2.70    1.80
  -2  14   7    5.10    2.50
  -1 -14   7   11.40    5.10
   1 -14  -7    8.00    2.80
  -1 -14   7    7.40    4.20
  -1 -14   7    8.60    3.20
   1 -14  -7   12.20    3.10
   1  14  -7    6.00    2.20
  -1  14   7    9.00    3.10
   0 -14  -7    1.70    2.10
   0 -14   7    9.70    4.60
   0 -14  -7    3.60    3.60
   0 -14  -7    7.80    3.00
   0  14   7    2.20    3.30
   0  14  -7   -1.40    1.80
  -1 -14  -7    0.70    2.10
   1 -14   7   -1.80    3.30
  -1 -14  -7    0.40    1.80
   1 -14   7   -0.60    3.30
  -1 -14  -7    0.30    2.20
  -1  14  -7    0.80    1.70
   1 -15  -7    8.90    2.30
  -1 -15   7    9.80    4.50
  -1  15   7   12.30    2.90
   0 -15   7    0.60    3.40
   0 -15  -7   -1.20    1.90
   0 -15   7    0.80    2.70
   0 -15  -7    2.90    1.80
   0  15  -7    1.20    1.40
   1 -15   7    4.40    3.70
   1 -15   7   -0.20    2.70
  -1 -15  -7    5.30    2.50
  -1  15  -7    4.10    1.80
  -4   0   8   51.29    7.00
   4   0  -8   40.90    5.30
  -4   0   8   47.10    6.50
  -3   0   8   33.60    7.40
  -3   0   8   30.50    7.80
  -3   0   8   26.90   10.00
  -3   0   8   23.60    7.30
  -3   0   8   28.00    8.40
  -3   0   8   30.10    6.60
  -2   0   8  451.15   37.80
  -2   0   8  571.04   36.60
  -2   0   8  456.45   38.00
  -2   0   8  498.65   39.90
  -2   0   8  447.66   37.50
  -1   0   8  202.88   18.20
  -1   0   8  179.18   18.00
  -1   0   8  183.08   23.30
   0   0   8  365.06   32.50
   0   0   8  342.47   26.30
   1   0   8   21.60   10.40
  -1   0  -8   28.10    5.40
  -1   0  -8   21.00    5.60
  -2   0  -8    8.70    5.70
  -2   0  -8    1.70    4.90
   2   0   8  -22.80   13.40
  -2   0  -8    7.30    3.10
  -2   0  -8    3.90    2.70
   2   0   8   13.70    9.10
  -2   0  -8    0.10    4.40
  -3   0  -8   18.80    4.80
  -3   0  -8   18.50    5.70
  -3   0  -8   23.90    6.00
   3   0   8    0.00   11.30
  -4   0  -8   64.69    6.30
  -4   0  -8   62.89    5.90
  -4  -1   8  115.79   10.80
  -4  -1   8  131.39   13.10
  -4   1   8  109.19   10.50
  -4   1   8   83.19   10.20
  -4   1   8  125.69   12.80
  -3  -1   8  372.96   28.80
  -3  -1   8  370.96   31.50
  -3  -1   8  309.77   30.80
  -3  -1   8  390.76   37.50
  -3  -1   8  365.36   28.70
  -3  -1   8  349.96   32.40
  -3   1   8  336.47   38.10
  -3   1   8  366.76   28.70
  -3   1   8  356.26   31.30
  -3   1   8  367.06   32.00
  -2  -1   8  182.78   27.80
  -2  -1   8  122.99   16.00
   2  -1  -8  130.49   13.50
  -2  -1   8  135.49   16.70
  -2  -1   8  161.58   18.30
  -2  -1   8  173.48   15.30
  -2   1   8  175.38   15.60
  -2   1   8  151.38   16.40
  -2   1   8  162.78   17.30
  -2   1   8  158.98   18.00
  -2   1   8  140.39   17.20
  -1  -1   8   79.99   15.30
  -1  -1   8   88.89   17.50
  -1  -1   8   78.59   11.90
  -1  -1   8   92.09   11.10
  -1   1   8   75.69   15.70
  -1   1   8   92.29   11.80
  -1   1   8   86.19   10.60
   0  -1   8  348.27   30.90
   0  -1   8  326.67   25.50
   0   1   8  343.37   31.90
   0   1   8  341.67   25.40
   1  -1   8   10.00    5.70
  -1  -1  -8    1.70    1.60
   1  -1   8    2.60    8.30
  -1  -1  -8    2.70    2.60
  -1  -1  -8    5.20    3.20
  -1   1  -8    2.60    3.20
  -1   1  -8    2.80    3.00
  -1   1  -8    5.30    2.40
   1   1   8    8.50    5.90
   2  -1   8   28.30   10.40
  -2  -1  -8   24.20    7.80
  -2  -1  -8   16.00    4.60
  -2  -1  -8    8.00    4.50
  -2  -1  -8   14.20    4.20
  -2  -1  -8    8.40    6.00
  -2   1  -8   18.10    7.40
  -2   1  -8   12.80    7.00
   2   1   8  -15.00   12.60
  -2   1  -8    6.70    4.80
   2   1   8   27.10   11.40
  -3  -1  -8    0.90    2.30
  -3  -1  -8    7.30    4.40
  -3  -1  -8    8.50    3.90
   3  -1   8   -7.70   10.80
  -3   1  -8    4.40    3.80
  -3   1  -8    4.40    2.80
   3   1   8    7.50   10.10
  -3   1  -8    5.10    4.30
  -4  -2   8    7.00    3.40
  -4  -2   8    5.90    2.70
  -4   2   8    1.30    2.40
  -4   2   8    4.70    2.70
  -4   2   8    6.40    3.70
  -3  -2   8   62.99   15.10
  -3  -2   8   72.09   16.30
  -3  -2   8  106.19   16.20
  -3  -2   8  102.49   14.40
   3  -2  -8   78.29    9.40
  -3  -2   8   83.79   14.60
  -3   2   8  114.29   17.50
  -3   2   8   88.19   14.50
  -3   2   8  111.99   15.30
  -3   2   8   71.29   15.20
  -3   2   8   63.49   15.00
   2  -2  -8    3.80    2.80
  -2  -2   8    8.40    5.20
  -2  -2   8   -1.00    3.00
  -2  -2   8   -3.40    4.60
  -2  -2   8   -1.10    4.00
  -2  -2   8    0.40   12.40
  -2  -2   8    4.10    3.20
  -2   2   8    2.30    4.10
  -2   2   8   -4.80    3.10
  -2   2   8   -3.30    3.60
  -2   2   8    2.90    3.60
  -2   2   8    2.10    4.10
  -1  -2   8   53.19    9.50
  -1  -2   8   20.30    7.60
  -1  -2   8   50.99   12.30
  -1  -2   8   20.80    7.60
  -1   2   8   15.50   14.10
  -1   2   8   32.40    7.00
  -1   2   8   22.80   10.90
  -1   2   8   29.50    6.40
   0  -2   8   35.50   12.50
   0  -2   8   17.60    4.50
   0  -2   8   15.80    6.00
   0   2   8   23.50    4.80
   0   2   8   19.80    7.10
  -1  -2  -8   -4.80    3.40
  -1  -2  -8   -3.20    2.30
  -1  -2  -8   -0.80    2.70
   1  -2   8   -0.20    4.80
  -1  -2  -8    2.20    3.20
   1  -2   8   22.30   10.20
  -1  -2  -8   -1.30    1.80
  -1   2  -8    1.20    2.10
  -1   2  -8    9.20    5.00
  -1   2  -8   -3.90    2.50
  -1   2  -8    2.80    2.90
   1   2   8    2.60    5.30
  -2  -2  -8    2.40    3.40
   2  -2   8   11.10    7.90
  -2  -2  -8   -3.00    3.50
  -2  -2  -8   -4.80    3.00
   2  -2   8    1.90    9.60
  -2  -2  -8   -0.10    2.20
  -2   2  -8   -2.40    4.30
   2   2   8    7.70    8.10
  -2   2  -8    1.30    2.60
  -2   2  -8    0.40    3.90
   2   2   8    1.30   14.30
  -2   2  -8    0.30    3.50
  -3  -2  -8    0.20    2.20
  -3  -2  -8    1.90    2.90
  -3  -2  -8   -0.50    2.90
  -3   2  -8    2.60    4.00
  -3   2  -8    1.70    2.90
  -4  -3   8   10.60    3.00
  -4  -3   8    5.70    3.20
  -4   3   8   10.00    4.10
  -4   3   8    9.80    3.00
  -3  -3   8   26.20    5.90
  -3  -3   8   17.80    4.70
   3  -3  -8   13.00    3.90
  -3  -3   8   18.20    5.30
  -3  -3   8   17.60    8.90
  -3   3   8   23.20    7.10
  -3   3   8   32.40    8.50
  -3   3   8    4.00   11.90
  -3   3   8   17.30    5.90
  -3   3   8   22.30    6.10
  -2  -3   8   15.40    6.00
  -2  -3   8    2.40    5.20
  -2  -3   8   10.60    4.20
  -2  -3   8   -1.20   12.20
   2  -3  -8    1.40    3.00
  -2  -3   8    3.70    4.80
  -2   3   8    2.10    4.10
  -2   3   8   -4.80    3.70
  -2   3   8    3.90    5.30
  -2   3   8    0.20    4.70
  -2   3   8   -0.30    5.60
   1  -3  -8  108.69   10.50
  -1  -3   8  109.19   13.20
  -1  -3   8  127.99   12.20
  -1  -3   8  130.49   26.90
  -1  -3   8  117.89   15.50
  -1   3   8  107.39   13.90
   1   3  -8  104.39   13.70
  -1   3   8   87.39   18.30
  -1   3   8  125.29   12.50
  -1   3   8  115.29   19.90
   0  -3   8  180.38   25.10
   0  -3  -8  156.08   12.90
   0  -3   8  188.78   19.50
   0  -3   8  162.18   15.50
   0  -3   8  162.68   21.10
   0  -3  -8  150.78   13.70
   0  -3  -8  140.49   14.60
   0   3  -8  155.78   16.80
   0   3   8  205.58   26.30
   0   3   8  174.68   14.30
  -1  -3  -8  310.97   25.70
  -1  -3  -8  309.77   23.20
  -1  -3  -8  282.07   23.90
   1  -3   8  366.76   36.20
   1  -3   8  351.06   38.40
  -1  -3  -8  330.67   24.50
  -1  -3  -8  340.47   25.10
  -1   3  -8  306.97   23.80
  -1   3  -8  350.96   27.60
  -1   3  -8  273.77   25.60
   2  -3   8   47.40   17.00
  -2  -3  -8   73.89   10.80
  -2  -3  -8   62.29    9.00
   2  -3   8   41.30   17.10
  -2  -3  -8   84.89   10.30
  -2  -3  -8   63.39   11.80
  -2   3  -8   49.40   11.30
  -2   3  -8   65.99   10.30
  -2   3  -8   58.89    9.40
  -2   3  -8   75.79    9.70
  -3  -3  -8   -0.90    1.70
  -3  -3  -8    1.80    2.40
  -3  -3  -8    1.00    2.50
   3  -3   8  -17.60   12.20
  -3   3  -8   -2.70    2.70
  -4  -4   8   -1.50    2.20
  -4  -4   8   -1.70    2.00
  -4   4   8    1.60    3.30
  -4   4   8   -0.20    1.80
  -3  -4   8   76.79   10.40
   3  -4  -8   65.69    8.30
  -3  -4   8   76.09   12.70
  -3  -4   8   61.49    9.40
  -3   4   8   55.19   11.30
  -3   4   8   64.49   10.70
  -3   4   8   57.99   10.40
  -3   4   8   43.80    9.40
  -2  -4   8  147.09   18.80
  -2  -4   8  165.48   16.40
  -2  -4   8  177.98   17.80
  -2  -4   8  180.48   28.40
  -2  -4   8  205.08   20.10
  -2  -4   8  195.18   21.70
   2  -4  -8  162.38   15.70
  -2   4   8  187.78   18.90
  -2   4   8  178.98   17.70
  -2   4   8  167.78   18.30
  -1  -4   8   -6.70    4.40
  -1  -4   8   -0.80    3.40
  -1  -4   8  -12.10   10.00
  -1  -4   8   -2.30    1.80
   1  -4  -8    2.20    2.30
  -1  -4   8    2.80    7.60
  -1   4   8   -0.30    4.60
  -1   4   8   -5.40    2.50
   1   4  -8    6.80    4.80
  -1   4   8   -4.60    3.70
  -1   4   8    5.10    4.70
   0  -4   8  245.68   21.80
   0  -4   8  279.17   25.00
   0  -4   8  292.27   30.90
   0  -4  -8  246.08   20.40
   0  -4  -8  245.38   20.90
   0  -4  -8  262.87   22.30
   0   4  -8  237.58   23.10
   0   4   8  300.07   30.50
   0   4   8  253.27   19.50
  -1  -4  -8   37.70    6.30
   1  -4   8   66.79   17.00
  -1  -4  -8   35.40    6.40
   1  -4   8   62.79   15.60
  -1  -4  -8   45.90    7.10
  -1  -4  -8   46.20    8.40
  -1  -4  -8   36.40    6.80
  -1   4  -8   32.30    7.20
  -1   4  -8   33.10    6.10
  -2  -4  -8   95.29   12.50
  -2  -4  -8   79.39   10.30
  -2  -4  -8   82.69   15.00
  -2  -4  -8   91.29   11.30
  -2  -4  -8   89.09   13.10
  -2  -4  -8   93.39   11.20
   2  -4   8  109.09   24.00
  -2   4  -8   80.69   10.20
  -2   4  -8   86.89   10.20
   2   4   8  113.89   21.60
  -2   4  -8   59.19   13.20
  -2   4  -8   80.89   11.40
  -3  -4  -8   -2.10    2.30
  -3  -4  -8    0.30    2.50
   3  -4   8   -2.70    5.00
  -3   4  -8   -1.10    3.10
  -3   4  -8    2.30    3.10
  -4  -5   8    3.60    2.30
  -4   5   8    2.10    2.00
  -3  -5   8  138.09   14.80
   3  -5  -8  131.49   13.00
  -3  -5   8  152.98   14.80
  -3  -5   8  158.88   18.00
  -3   5   8  123.19   15.50
  -3   5   8  126.09   16.40
  -3   5   8  134.69   16.20
  -3   5   8  126.69   15.20
   2  -5  -8  425.86   32.20
  -2  -5   8  458.95   34.50
  -2  -5   8  431.76   33.20
  -2  -5   8  443.66   43.50
  -2   5   8  460.05   35.00
  -2   5   8  444.26   35.60
  -2   5   8  437.46   35.00
  -1  -5   8  118.09   14.30
  -1  -5   8  147.89   25.30
  -1  -5   8  113.09   16.50
  -1  -5   8  100.79   12.50
   1  -5  -8  103.29   10.70
  -1  -5   8  110.49   20.60
   1  -5  -8  113.29   12.00
  -1   5   8  106.39   12.70
  -1   5   8  103.89   12.00
  -1   5   8  107.29   21.20
   0  -5  -8   16.40    4.70
   0  -5   8   16.60   10.10
   0  -5   8   11.20    4.10
   0  -5   8   33.80   12.50
   0  -5  -8    8.80    2.70
   0  -5   8   11.80    8.80
   0  -5  -8   14.00    4.00
   0  -5  -8   18.90    4.60
   0   5  -8   19.30    6.40
   0   5   8   14.80    7.10
  -1  -5  -8  221.98   19.90
  -1  -5  -8  238.98   21.40
  -1  -5  -8  250.47   20.00
  -1  -5  -8  235.18   20.10
  -1  -5  -8  218.58   18.60
   1  -5   8  243.58   32.50
   1  -5   8  274.17   30.10
  -1   5  -8  257.07   23.50
  -1   5  -8  222.28   19.00
   1   5   8  290.47   30.50
   2  -5   8   98.69   21.60
  -2  -5  -8  100.79   12.80
  -2  -5  -8   77.49   10.40
  -2  -5  -8   86.69   10.50
  -2  -5  -8   94.39   14.10
  -2  -5  -8   97.59   11.50
  -2   5  -8   94.19   13.90
  -2   5  -8   89.59   17.50
  -2   5  -8   96.49   10.50
  -2   5  -8  100.59   10.80
   2   5   8  128.09   23.30
  -3  -5  -8   -1.60    2.20
  -3  -5  -8    1.30    2.50
   3  -5   8    1.70    5.70
  -3   5  -8   -2.30    4.00
  -3   5  -8   -5.60    3.50
  -4  -6   8   12.30    3.20
  -4  -6   8   12.60    2.90
   3  -6  -8    6.00    3.20
  -3  -6   8    7.10    4.60
  -3  -6   8    3.50    3.20
  -3  -6   8    4.00    3.30
  -3   6   8   -3.10    3.80
  -3   6   8    1.20    3.80
  -3   6   8    5.40    4.00
  -3   6   8    2.70    3.50
  -2  -6   8   30.20    6.80
   2  -6  -8   35.80    7.10
  -2  -6   8   32.00   13.20
  -2  -6   8   31.00    6.50
   2  -6  -8   40.80    7.30
  -2  -6   8   25.20    7.30
  -2  -6   8   33.40   10.40
  -2   6   8   37.30    8.00
  -2   6   8   27.00    7.30
  -2   6   8   41.20    9.30
  -1  -6   8   10.20    8.60
  -1  -6   8   12.60    4.70
  -1  -6   8   12.20    5.40
  -1  -6   8   19.00    7.00
   1  -6  -8   15.90    5.00
   1  -6  -8   19.90    4.60
  -1  -6   8    6.80    4.70
  -1  -6   8   13.30   14.60
  -1   6   8   16.50    6.10
  -1   6   8   18.30    6.10
  -1   6   8   19.30   11.10
   0  -6   8   33.60   13.70
   0  -6   8   43.60   13.70
   0  -6   8   25.30    6.60
   0  -6  -8   34.40    6.10
   0  -6   8    7.40    8.40
   0  -6  -8   23.60    5.60
   0  -6   8   23.40    5.40
   0  -6  -8   28.00    4.90
   0  -6  -8   22.70    5.10
   0   6   8   38.80    7.80
   0   6   8   17.00    7.20
   1  -6   8   -4.00   10.00
  -1  -6  -8    2.10    2.70
  -1  -6  -8    5.70    3.00
   1  -6   8    4.20    7.70
  -1  -6  -8    0.30    3.90
   1  -6   8   11.10   12.00
  -1  -6  -8    5.70    3.50
   1   6   8    7.90    5.50
  -1   6  -8    0.40    4.80
  -1   6  -8   -2.50    3.10
   2  -6   8   12.40   10.80
  -2  -6  -8   12.40    3.70
   2  -6   8    5.90    6.50
  -2  -6  -8   11.20    4.30
  -2  -6  -8    9.10    5.20
   2  -6   8    8.80   12.40
  -2  -6  -8   18.80    7.60
  -2  -6  -8   12.90    4.20
  -2   6  -8   -2.00    3.60
  -2   6  -8   -4.90    7.70
   2   6   8   16.70   11.50
  -2   6  -8    7.30    2.70
  -3  -6  -8    1.10    2.50
  -3  -6  -8    0.60    3.00
   3  -6   8    1.90    5.00
   3  -7  -8   15.40    4.50
  -3  -7   8   17.80    5.00
  -3  -7   8   14.70    5.60
  -3  -7   8   11.90    4.20
  -3   7   8   11.20    5.10
  -3   7   8   16.20    5.20
  -3   7   8   14.30    5.40
  -2  -7   8   84.69   11.40
  -2  -7   8   59.99   14.40
  -2  -7   8   91.49   15.10
  -2  -7   8   69.99   10.70
  -2  -7   8   88.09   15.10
   2  -7  -8   78.59   10.40
   2  -7  -8   85.89   10.00
  -2   7   8   90.39   11.40
  -2   7   8   84.89   12.10
  -1  -7   8   60.89   26.50
   1  -7  -8   61.49    7.30
  -1  -7   8   67.29   17.20
   1  -7  -8   62.39   11.20
  -1  -7   8   82.89   10.50
  -1  -7   8   58.09   15.30
   1  -7  -8   76.39    8.80
  -1  -7   8   61.89   10.70
  -1   7   8   75.59   10.10
  -1   7   8   48.80   16.00
  -1   7   8   71.49   10.40
   0  -7  -8   89.99   10.70
   0  -7   8   92.79   11.60
   0  -7  -8   85.99   12.00
   0  -7   8   53.09   14.20
   0  -7   8   73.89   11.40
   0  -7   8   80.89   18.70
   0  -7   8   84.69   23.10
   0  -7  -8   79.19   10.40
   0  -7  -8   93.79   11.20
   0  -7  -8   91.39    8.90
   0   7   8   99.39   12.10
   0   7   8   82.89   18.10
   1  -7   8  108.79   23.70
  -1  -7  -8  114.49   11.90
  -1  -7  -8  118.69   13.70
  -1  -7  -8  105.29   11.30
   1  -7   8  103.59   17.50
   1  -7   8  130.39   23.90
  -1  -7  -8  121.79   12.80
  -1  -7  -8  107.79   12.10
  -1   7  -8   90.39   12.30
   1   7   8  123.19   20.80
  -2  -7  -8   -0.90    2.80
  -2  -7  -8    3.60    5.10
   2  -7   8   10.60   19.60
   2  -7   8    4.50   12.00
   2   7   8   -2.00   11.60
  -2   7  -8    7.00    4.10
   3  -7   8    4.30    5.00
  -3  -7  -8    4.30    3.40
  -3  -8   8   16.50    4.50
  -3  -8   8   13.30    4.30
  -3  -8   8   18.00    5.40
   3  -8  -8   16.80    4.30
  -3   8   8   18.90    5.90
  -3   8   8   18.00    5.70
  -3   8   8   13.00    4.40
  -2  -8   8  164.18   16.80
  -2  -8   8  164.98   23.60
   2  -8  -8  183.18   16.40
  -2  -8   8  175.08   17.20
  -2  -8   8  169.48   21.30
  -2   8   8  181.98   19.80
  -2   8   8  178.18   18.70
  -1  -8   8  114.29   23.70
   1  -8  -8  133.59   15.60
   1  -8  -8  120.79   11.40
   1  -8  -8  132.59   13.60
  -1  -8   8  135.09   22.50
   1  -8  -8  145.99   13.10
  -1  -8   8  138.89   14.40
  -1  -8   8  136.89   14.50
  -1  -8   8  117.09   18.70
  -1   8   8  133.09   14.10
  -1   8   8  112.09   25.70
  -1   8   8  141.39   14.90
   0  -8  -8  210.58   19.20
   0  -8   8  202.28   24.00
   0  -8  -8  207.98   18.80
   0  -8   8  243.98   32.20
   0  -8   8  216.18   19.30
   0  -8  -8  232.08   21.10
   0  -8  -8  223.48   16.90
   0  -8  -8  205.38   17.70
   0  -8   8  228.98   29.40
   0   8   8  202.38   18.70
   0   8   8  199.88   30.00
  -1  -8  -8   46.50    8.70
   1  -8   8   63.09   17.20
  -1  -8  -8   47.20    8.50
   1  -8   8   51.99   14.80
   1  -8   8   31.70    9.70
  -1  -8  -8   41.90    7.40
  -1  -8  -8   49.50    7.80
   1  -8   8   34.20    8.50
   1   8   8   32.10   12.70
  -1   8  -8   57.79    8.40
  -2  -8  -8   50.49    9.30
   2  -8   8   54.19   16.60
   2  -8   8   43.40   10.50
  -2  -8  -8   51.29    8.00
  -2  -8  -8   56.59    8.20
  -2  -8  -8   64.19   12.70
   3  -8   8   12.00    4.70
  -3  -8  -8   15.10    3.70
   3  -8   8   25.30    7.80
  -3  -8  -8   24.80    5.90
   3  -9  -8    8.40    2.80
   3  -9  -8    4.90    2.00
  -3  -9   8    1.90    3.40
  -3  -9   8    6.50    2.60
  -3  -9   8    5.50    2.70
  -3   9   8    6.40    3.30
  -3   9   8    3.90    2.80
  -3   9   8    5.60    3.40
  -2  -9   8   68.19    9.30
  -2  -9   8   48.80   12.30
   2  -9  -8   56.89    8.80
   2  -9  -8   68.59    8.90
  -2  -9   8   64.69   13.00
  -2  -9   8   71.89    9.90
  -2   9   8   61.49    9.20
  -2   9   8   46.80    9.10
  -1  -9   8  277.67   33.40
  -1  -9   8  293.67   22.50
  -1  -9   8  212.98   25.80
   1  -9  -8  270.97   23.10
   1  -9  -8  275.27   22.40
  -1  -9   8  255.07   32.10
  -1  -9   8  275.37   22.80
   1  -9  -8  294.57   21.80
  -1  -9   8  231.68   27.50
   1  -9  -8  283.57   19.90
  -1   9   8  258.77   22.90
  -1   9   8  251.47   22.00
   0  -9  -8    4.20    4.10
   0  -9  -8   13.10    5.00
   0  -9  -8   11.40    4.00
   0  -9   8   11.40    8.80
   0  -9   8   12.50   10.80
   0  -9  -8   12.20    4.00
   0  -9   8   10.50    5.80
   0  -9   8   -0.70    5.60
   0  -9   8   15.30    9.70
   0  -9   8    8.20    6.60
   0  -9  -8   19.40    4.30
   0   9   8    0.90    8.50
   0   9   8   15.80    5.10
  -1  -9  -8  375.36   28.90
  -1  -9  -8  370.96   28.20
   1  -9   8  331.67   34.70
  -1  -9  -8  370.16   28.90
   1  -9   8  324.37   41.10
   1  -9   8  377.96   37.30
  -1  -9  -8  377.66   30.40
  -1   9  -8  390.46   29.80
   1   9   8  381.26   45.10
  -2  -9  -8   13.50    5.40
   2  -9   8   21.30   10.80
   2  -9   8   15.70    7.20
  -2  -9  -8   17.10    4.60
  -2  -9  -8   13.30    5.40
  -2  -9  -8   20.80    4.90
  -2   9  -8   16.00    5.00
   3  -9   8   53.69    8.10
   3  -9   8   76.19   10.10
  -3  -9  -8   68.89    7.10
  -3  -9  -8   65.79    7.70
   3 -10  -8   14.40    2.50
  -3 -10   8   11.70    3.10
  -3 -10   8   16.10    3.30
  -3 -10   8    9.30    3.80
  -3  10   8   14.70    4.10
  -3  10   8   17.50    4.30
  -3  10   8   18.20    4.00
  -2 -10   8   13.60    6.20
  -2 -10   8   20.20    4.80
  -2 -10   8   23.60    5.20
  -2 -10   8   23.20    9.20
   2 -10  -8   25.50    5.40
   2 -10  -8   20.40    4.30
  -2  10   8   26.30    6.70
  -2  10   8   32.10    6.70
   1 -10  -8    3.20    2.80
  -1 -10   8   -5.40    6.20
  -1 -10   8    3.90    8.10
   1 -10  -8    3.90    2.80
  -1 -10   8   10.40    5.00
  -1 -10   8    0.30    6.20
  -1 -10   8   -3.00    6.40
  -1  10   8    2.80    3.10
   0 -10   8  203.48   23.50
   0 -10   8  213.08   18.10
   0 -10   8  211.78   27.50
   0 -10  -8  213.38   17.80
   0 -10  -8  222.18   20.70
   0 -10  -8  211.28   19.30
   0 -10   8  179.18   28.40
   0 -10  -8  210.38   18.50
   0  10   8  186.48   17.60
   0  10   8  210.38   33.60
  -1 -10  -8    7.60    3.30
   1 -10   8   12.70    9.70
   1 -10   8    6.50    6.60
   1 -10   8    8.70    7.90
  -1 -10  -8    7.60    4.00
  -1 -10  -8    6.80    3.50
  -1 -10  -8    4.20    2.40
  -1  10  -8    5.80    3.50
   2 -10   8  279.17   26.20
  -2 -10  -8  375.96   29.20
  -2 -10  -8  358.06   29.50
   2 -10   8  334.27   31.50
   2 -10   8  326.67   35.50
  -2 -10  -8  360.46   25.50
  -2 -10  -8  356.26   27.40
  -2  10  -8  292.27   25.40
  -3 -11   8   -2.00    2.90
   3 -11  -8   -1.00    1.90
  -3 -11   8    1.30    1.80
  -3 -11   8    0.00    3.10
  -3  11   8    0.40    2.00
  -3  11   8   -2.90    1.80
  -2 -11   8   -1.80    2.20
  -2 -11   8    0.00    6.50
  -2 -11   8    4.90    4.30
   2 -11  -8   -1.50    2.40
  -2 -11   8    2.50    3.00
   2 -11  -8   -0.50    2.10
   2 -11  -8   -1.60    1.70
  -2  11   8   -3.20    2.70
  -2  11   8   -5.50    2.40
  -1 -11   8    6.60    3.70
  -1 -11   8    3.20    2.90
  -1 -11   8   10.60    6.00
   1 -11  -8    6.40    3.40
  -1 -11   8    3.60    4.90
  -1 -11   8    8.10    6.50
   1 -11  -8    5.70    4.50
   1 -11  -8    9.30    3.50
  -1  11   8    6.70    3.70
   0 -11  -8    9.20    3.60
   0 -11   8    9.80    5.90
   0 -11  -8    5.40    4.40
   0 -11   8   12.70    6.20
   0 -11  -8    6.30    3.10
   0 -11  -8    5.90    4.10
   0 -11   8    1.10    6.20
   0  11   8    8.30    3.60
  -1 -11  -8   87.99   11.50
  -1 -11  -8   94.69   11.80
   1 -11   8   51.49   15.10
   1 -11   8  101.09   15.20
  -1 -11  -8   90.69   10.70
   1 -11   8   75.59   15.40
  -1 -11  -8   90.99   10.80
  -1 -11  -8   82.69    9.80
  -1  11  -8   87.99   10.90
  -2 -11  -8   14.00    4.20
  -2 -11  -8    6.60    3.10
   2 -11   8    4.80    6.40
  -2 -11  -8   13.30    5.40
   2 -11   8    5.90    4.10
   2 -11   8    6.10    6.00
  -2  11  -8    4.90    3.00
   2 -12  -8   11.00    3.10
  -2 -12   8    3.40    2.00
   2 -12  -8    5.80    2.70
  -2 -12   8    5.30    3.50
  -2 -12   8    5.20    2.30
   2 -12  -8    5.90    2.70
  -2  12   8    9.10    3.80
  -2  12   8    5.10    3.10
  -1 -12   8    0.50    2.50
   1 -12  -8    0.50    1.90
   1 -12  -8   -0.40    1.90
  -1 -12   8    2.90    6.40
  -1 -12   8   -2.70    1.80
  -1 -12   8   -1.90    4.10
  -1  12   8   -2.00    3.00
   0 -12   8   -6.10    4.40
   0 -12   8   -2.10    6.60
   0 -12  -8    1.20    1.70
   0 -12  -8   -0.50    2.80
   0 -12   8    1.60    4.20
   0 -12  -8    3.00    2.40
   0 -12   8    3.50    5.90
   0  12  -8   -0.50    1.90
  -1 -12  -8    0.20    2.20
   1 -12   8    1.70    4.30
  -1 -12  -8   -1.30    2.60
  -1 -12  -8    2.50    4.80
  -1 -12  -8   -2.30    1.90
   1 -12   8    0.80    4.60
  -1  12  -8   -0.40    2.30
  -1  12  -8   -4.50    2.90
  -2 -12  -8    6.60    2.80
   2 -12   8    5.70    3.70
  -2 -12  -8    6.20    2.30
  -2  12  -8    6.00    2.70
  -2 -13   8   -1.20    1.60
   2 -13  -8   -1.30    1.90
  -2 -13   8    0.00    1.20
   2 -13  -8   -0.80    1.30
  -2 -13   8   -3.30    2.50
   2  13  -8    0.10    1.30
  -2  13   8    1.40    2.30
  -1 -13   8    0.30    2.20
  -1 -13   8   -1.00    2.30
  -1 -13   8    0.40    4.10
   1 -13  -8    1.40    2.80
  -1 -13   8   -3.90    4.00
   1 -13  -8    1.00    1.70
   1  13  -8    2.80    2.50
  -1  13   8   -2.10    2.60
   0 -13   8   -3.70    3.80
   0 -13  -8    1.00    2.00
   0 -13  -8   -0.80    2.40
   0 -13  -8    1.00    2.30
   0 -13   8    0.90    5.80
   0  13   8   -6.50    3.80
   0  13  -8   -0.10    1.70
  -1 -13  -8   -1.00    1.40
  -1 -13  -8    1.30    2.10
   1 -13   8    0.00    4.00
   1 -13   8   -4.90    3.80
  -1 -13  -8    1.00    2.80
  -1  13  -8    0.30    2.00
  -1  13  -8   -1.40    2.60
   1 -14  -8    0.60    1.60
  -1 -14   8    1.50    3.00
   1 -14  -8    2.70    1.80
  -1 -14   8   -2.00    2.60
   1  14  -8    1.90    1.40
  -1  14   8    4.90    2.50
   0 -14   8   -1.40    4.60
   0 -14   8    5.60    5.00
   0 -14  -8    4.50    2.30
   0 -14  -8    4.90    2.00
   0 -14  -8    6.90    3.60
   0  14  -8    3.00    1.90
  -1 -14  -8    7.30    3.10
   1 -14   8    6.50    3.80
   1 -14   8    2.80    3.40
  -1 -14  -8    3.10    2.00
  -1  14  -8    2.00    1.60
   0 -15  -8    1.60    2.00
   0 -15   8    1.70    2.70
   0 -15  -8   11.70    3.60
   0  15  -8    5.00    1.80
  -4   0   9   -0.60    1.90
  -4   0   9    2.50    2.30
  -3   0   9   -0.30    4.50
  -3   0   9   -1.50    3.00
  -3   0   9   -0.20    2.90
  -3   0   9   -1.40    3.70
  -2   0   9   -3.20    3.20
  -2   0   9    2.80   16.10
  -2   0   9    2.90    3.90
  -2   0   9   -1.10    4.00
  -1   0   9   -2.70    3.90
  -1   0   9    6.50    8.70
  -1   0   9   -0.90    4.70
   1   0  -9   -1.30    1.90
  -1   0   9    2.00    2.50
   0   0   9    1.20    7.70
   0   0   9   -1.50    3.80
   0   0   9    1.90    2.70
  -1   0  -9   -8.70    4.90
  -1   0  -9   -2.80    2.50
  -1   0  -9    1.20    2.00
   1   0   9    5.20    8.80
  -1   0  -9   -2.10    2.10
   1   0   9    2.40    4.70
  -2   0  -9   -4.00    4.40
  -2   0  -9   -1.60    1.90
  -2   0  -9    0.60    2.80
   2   0   9  -11.00   12.70
  -2   0  -9   -1.70    4.50
   2   0   9    0.20    7.60
  -2   0  -9    0.60    3.20
  -3   0  -9    1.10    2.00
  -3   0  -9   -3.10    2.10
  -3   0  -9    0.10    2.30
  -4  -1   9    7.60    3.00
  -4  -1   9    4.50    2.80
   4  -1  -9    2.00    2.00
  -4   1   9    5.90    2.70
  -4   1   9    9.50    3.40
  -3  -1   9  357.16   34.20
  -3  -1   9  409.66   31.30
  -3  -1   9  387.06   31.30
  -3  -1   9  473.85   35.40
  -3  -1   9  425.36   32.00
  -3   1   9  376.96   34.60
  -3   1   9  450.45   32.30
  -3   1   9  406.16   32.40
  -3   1   9  425.06   34.70
  -2  -1   9   43.80   17.60
  -2  -1   9   28.50    6.90
  -2  -1   9   24.70    6.50
   2  -1  -9   46.40    7.40
  -2  -1   9   29.70    8.90
  -2  -1   9   34.00    9.10
  -2   1   9   33.70    8.70
  -2   1   9   27.20    7.60
  -2   1   9   34.50    9.40
  -2   1   9   46.00    9.20
  -2   1   9   12.70   17.70
  -1  -1   9  154.38   21.70
  -1  -1   9  165.98   16.70
  -1  -1   9  133.69   21.60
   1  -1  -9  135.69   13.20
  -1  -1   9  163.78   17.40
   1  -1  -9  153.78   12.80
  -1   1   9  150.08   16.40
  -1   1   9  170.18   16.60
  -1   1   9  175.88   22.40
   1   1  -9  179.98   13.40
  -1   1   9  142.69   22.90
   0  -1   9  132.89   14.10
   0  -1  -9  121.99   11.20
   0  -1   9  141.39   18.60
   0  -1   9  118.19   19.10
   0  -1  -9  116.59   11.90
   0   1  -9  127.99   13.40
   0   1   9  161.18   20.80
   0   1   9  153.08   19.90
   0   1   9  147.49   13.80
  -1  -1  -9   93.09   10.10
  -1  -1  -9   97.19   10.60
  -1  -1  -9  122.59   15.00
   1  -1   9   99.99   19.90
  -1   1  -9  120.29   13.00
  -1   1  -9   88.29   10.80
   1   1   9  127.39   20.30
  -1   1  -9   77.89    9.80
  -2  -1  -9   -3.30    4.20
  -2  -1  -9   -0.10    1.90
   2  -1   9    1.40    8.20
  -2  -1  -9    2.00    2.80
  -2  -1  -9   -0.90    3.10
   2   1   9    0.00    7.50
  -2   1  -9    3.20    4.30
  -2   1  -9    2.80    2.30
   2   1   9    9.80   12.90
  -2   1  -9    4.30    4.20
  -3  -1  -9    0.90    1.60
   3  -1   9   13.90   12.10
  -3  -1  -9    4.50    3.30
  -3   1  -9    5.40    3.40
  -3   1  -9    4.30    4.10
  -3   1  -9    1.60    1.80
   3   1   9   -1.10    9.20
  -4  -2   9    0.00    2.00
   4  -2  -9   -1.20    1.20
  -4  -2   9    1.00    2.20
  -4   2   9   -1.60    1.60
  -3  -2   9  286.27   24.10
  -3  -2   9  310.87   25.00
  -3  -2   9  276.27   27.40
  -3  -2   9  340.27   28.30
   3  -2  -9  279.07   22.00
  -3  -2   9  316.97   24.90
  -3   2   9  308.17   27.40
   3   2  -9  298.47   21.30
  -3   2   9  340.97   25.50
  -3   2   9  292.97   27.90
  -3   2   9  296.37   25.50
  -2  -2   9  483.55   36.80
  -2  -2   9  434.76   33.30
  -2  -2   9  433.86   39.00
  -2  -2   9  431.06   37.10
  -2  -2   9  369.86   60.09
  -2  -2   9  458.35   39.10
  -2   2   9  471.65   36.90
  -2   2   9  412.56   35.60
  -2   2   9  450.35   38.00
  -2   2   9  488.85   35.40
  -2   2   9  469.65   37.00
  -1  -2   9   31.00   11.80
  -1  -2   9   24.60    5.10
  -1  -2   9   23.00    7.30
  -1  -2   9   25.80    6.20
   1  -2  -9   19.40    4.00
   1  -2  -9   19.40    4.30
  -1  -2   9   10.10   16.60
  -1  -2   9   12.60    7.20
  -1  -2   9   15.70    7.10
  -1   2   9   21.30    7.00
  -1   2   9   18.60   10.40
  -1   2   9   15.10    8.00
  -1   2   9   31.10    7.30
   0  -2   9   98.49   15.10
   0  -2   9   88.79   11.00
   0  -2   9  104.99   21.40
   0  -2  -9   80.99    8.70
   0  -2   9   91.29   18.20
   0   2  -9   96.19   10.00
   0   2   9  108.59   17.30
   0   2   9   98.19   10.70
  -1  -2  -9    0.00    1.50
   1  -2   9   -0.10    4.90
  -1  -2  -9    0.10    2.60
  -1  -2  -9    1.20    4.20
   1  -2   9    1.50    7.40
  -1  -2  -9    3.60    3.30
  -1   2  -9    7.30    4.90
  -1   2  -9    0.30    3.20
   1   2   9    2.00    5.80
  -1   2  -9   -1.30    2.60
  -1   2  -9   -0.20    2.90
  -2  -2  -9  216.88   23.30
   2  -2   9  198.58   31.30
  -2  -2  -9  198.58   18.00
  -2  -2  -9  179.18   18.50
  -2  -2  -9  217.18   21.60
  -2  -2  -9  203.58   17.70
  -2   2  -9  191.28   17.60
  -2   2  -9  203.38   17.80
   2   2   9  176.08   25.80
  -2   2  -9  210.38   23.50
  -2   2  -9  172.68   18.90
  -3  -2  -9    1.20    1.70
   3  -2   9  -11.80   10.50
  -3  -2  -9    3.90    3.20
  -3  -2  -9    4.40    3.20
   3   2   9    8.00    8.40
  -3   2  -9   -1.00    2.70
  -3   2  -9    8.00    4.00
  -4  -3   9   14.00    5.20
   4  -3  -9   22.90    3.40
  -4   3   9   13.80    3.20
   3  -3  -9  244.18   19.10
  -3  -3   9  250.47   21.80
  -3  -3   9  298.47   25.30
  -3  -3   9  253.27   21.50
  -3   3   9  228.48   22.20
  -3   3   9  255.77   24.20
  -3   3   9  231.48   24.10
  -3   3   9  268.27   21.90
  -3   3   9  234.58   23.70
   2  -3  -9  180.88   16.00
  -2  -3   9  200.58   17.60
  -2  -3   9  166.58   25.70
  -2  -3   9  219.28   21.00
  -2  -3   9  190.28   20.60
  -2   3   9  176.28   20.00
  -2   3   9  193.68   19.60
  -2   3   9  151.98   20.10
  -2   3   9  212.68   20.40
  -2   3   9  189.18   18.60
  -1  -3   9   49.99   14.60
  -1  -3   9   44.40   12.80
   1  -3  -9   45.00    6.70
  -1  -3   9   51.69   10.80
  -1  -3   9   49.30    8.10
  -1  -3   9   59.49   14.00
  -1  -3   9   59.29    9.70
   1  -3  -9   50.79    6.20
  -1   3   9   32.10   12.70
  -1   3   9   61.69    9.40
  -1   3   9   60.39   13.20
   1   3  -9   36.90    6.20
  -1   3   9   59.79    9.30
  -1   3   9   47.50    8.90
   0  -3   9   77.29   13.00
   0  -3  -9   69.49    9.10
   0  -3   9   76.29   10.20
   0  -3   9   66.89   18.20
   0  -3  -9   66.39    7.80
   0  -3  -9   73.29    8.40
   0  -3   9   81.59   17.30
   0   3   9   82.49    9.30
   0   3  -9   74.49   10.40
   0   3   9   75.89   15.50
  -1  -3  -9  130.29   13.40
  -1  -3  -9  128.99   12.50
  -1  -3  -9  153.38   14.30
  -1  -3  -9  147.09   14.30
   1  -3   9  119.09   25.70
  -1  -3  -9  128.19   14.40
   1  -3   9  157.68   22.20
  -1   3  -9  184.98   21.00
  -1   3  -9  129.89   13.10
  -1   3  -9  155.68   15.80
  -2  -3  -9   48.10    7.90
  -2  -3  -9   48.40   10.60
  -2  -3  -9   52.89    9.30
   2  -3   9   94.59   21.50
  -2  -3  -9   49.00    8.40
  -2  -3  -9   50.39   12.00
   2  -3   9   51.59   16.00
  -2   3  -9   59.49    8.20
  -2   3  -9   54.29    9.00
   2   3   9   51.29   15.70
  -2   3  -9   45.90    8.10
   2   3   9   45.80   12.00
  -3  -3  -9   14.50    3.70
   3  -3   9   20.80   11.60
  -3  -3  -9   19.30    4.90
  -3  -3  -9   15.80    4.90
  -3   3  -9   23.20    6.10
  -3   3  -9   26.40    6.20
  -4  -4   9    0.50    1.80
  -4  -4   9    0.00    2.20
   4  -4  -9    1.30    1.20
  -4   4   9    3.50    2.60
  -3  -4   9   12.70    4.80
   3  -4  -9   13.90    3.50
  -3  -4   9    8.70    3.60
  -3  -4   9   10.70    3.80
  -3   4   9    6.20    5.40
  -3   4   9    4.20    3.70
  -3   4   9   13.10    5.30
  -3   4   9   12.40    5.90
  -2  -4   9   36.50    7.50
   2  -4  -9   33.20    6.50
  -2  -4   9   43.10   15.50
  -2  -4   9   21.90    5.40
  -2  -4   9   47.80   10.90
  -2  -4   9   25.60    9.90
  -2   4   9   29.30    7.10
  -2   4   9   38.00    9.70
  -2   4   9   11.90    8.50
  -2   4   9   22.80    7.00
  -2   4   9   38.70    9.10
   1  -4  -9   57.49   11.60
  -1  -4   9   59.99    9.10
  -1  -4   9   68.49   11.20
   1  -4  -9   77.59    8.30
  -1  -4   9   63.89   16.50
   1  -4  -9   68.89    7.30
  -1  -4   9   57.69   11.00
  -1  -4   9   77.19   16.50
   1   4  -9   50.99   10.60
  -1   4   9   52.49   15.50
  -1   4   9   53.49    9.00
  -1   4   9   86.19   10.80
  -1   4   9   66.59   10.70
  -1   4   9   60.69   15.10
   0  -4   9   -2.60    7.90
   0  -4  -9   -2.30    2.30
   0  -4   9   -0.90    7.30
   0  -4  -9   -3.30    3.00
   0  -4   9   -1.00    3.10
   0  -4   9    1.60    4.30
   0   4  -9   -2.70    3.30
   0   4   9   -1.20    3.10
   0   4  -9   -3.80    3.70
   1  -4   9  100.69   20.70
  -1  -4  -9   83.29   10.80
  -1  -4  -9   89.49    9.60
   1  -4   9  107.09   30.70
  -1  -4  -9   77.89   10.40
  -1  -4  -9   82.99   10.60
   1   4   9  108.49   18.80
  -1   4  -9   78.49   12.60
   1   4   9   72.29    9.50
  -1   4  -9   66.79    9.30
  -2  -4  -9  154.98   15.10
   2  -4   9  157.58   27.10
  -2  -4  -9  173.68   16.30
  -2  -4  -9  181.28   19.70
  -2  -4  -9  159.88   17.10
  -2   4  -9  169.08   23.30
  -2   4  -9  172.48   15.00
  -2   4  -9  156.08   16.00
  -2   4  -9  172.88   15.60
   2   4   9  196.68   28.30
   3  -4   9   12.80    6.70
  -3  -4  -9   10.60    3.60
   3  -4   9    6.60   12.90
  -3  -4  -9    9.30    4.60
  -3   4  -9    6.50    4.00
  -3   4  -9    6.60    3.70
   3  -5  -9    4.90    2.50
  -3  -5   9    2.10    3.40
  -3  -5   9   -0.90    2.30
  -3  -5   9   -0.40    2.80
  -3   5   9   -2.80    3.60
  -3   5   9    1.80    3.50
  -3   5   9   -1.90    2.50
  -3   5   9   -1.70    2.20
  -2  -5   9    8.20    4.30
  -2  -5   9   14.80    9.80
  -2  -5   9   11.40    4.90
   2  -5  -9    8.20    3.30
  -2  -5   9    9.80    5.00
  -2  -5   9    8.90    6.50
  -2   5   9   10.80    4.80
  -2   5   9   11.10    4.40
  -1  -5   9   -1.70    2.90
  -1  -5   9    8.20    4.60
  -1  -5   9    5.30    5.30
  -1  -5   9    6.10   12.00
   1  -5  -9    7.20    4.40
  -1  -5   9   -4.20    9.60
   1  -5  -9   -4.30    3.40
   1  -5  -9    3.60    2.70
  -1   5   9    3.60    5.00
  -1   5   9    2.50    4.10
  -1   5   9    9.30    5.30
   0  -5  -9   -0.90    1.90
   0  -5   9    6.90    8.30
   0  -5   9   -9.60    7.90
   0  -5  -9    0.50    3.20
   0  -5   9    2.70    3.50
   0  -5  -9   -2.20    2.60
   0  -5  -9    1.00    1.80
   0   5   9    0.30    4.60
  -1  -5  -9    4.20    2.30
  -1  -5  -9    5.60    3.00
  -1  -5  -9   15.20    5.00
   1  -5   9    1.90    8.00
  -1  -5  -9    5.10    3.60
  -1  -5  -9    4.20    2.40
   1  -5   9   17.70   11.10
  -1   5  -9   12.80    5.60
   1   5   9   13.40    7.70
  -2  -5  -9   -3.70    3.00
   2  -5   9   -3.30   10.40
  -2  -5  -9   -0.30    2.40
  -2  -5  -9    0.70    3.30
  -2  -5  -9   -1.50    2.30
   2  -5   9   -8.50    8.30
  -2  -5  -9   -2.50    4.90
  -2   5  -9   -3.30    1.60
  -2   5  -9   12.70   10.00
   2   5   9  -13.20   10.10
   3  -5   9    0.70    4.60
  -3  -5  -9    3.20    2.80
  -3  -5  -9    0.10    2.10
  -3  -6   9   17.50    6.00
  -3  -6   9   20.00    4.80
  -3  -6   9   14.50    4.40
   3  -6  -9   18.40    4.20
  -3   6   9   24.40    6.60
  -3   6   9   24.70    7.30
  -3   6   9   19.90    6.20
   2  -6  -9  201.08   16.80
  -2  -6   9  160.88   22.10
  -2  -6   9  172.78   17.50
  -2  -6   9  210.08   19.00
   2  -6  -9  186.78   17.30
  -2  -6   9  179.58   25.10
  -2  -6   9  228.38   22.10
  -2   6   9  198.18   19.60
  -2   6   9  173.48   18.50
  -1  -6   9  156.68   15.60
  -1  -6   9  137.79   17.50
   1  -6  -9  130.39   16.80
   1  -6  -9  151.58   12.70
  -1  -6   9  162.38   24.20
  -1  -6   9  168.38   27.00
   1  -6  -9  147.19   13.70
  -1   6   9  158.78   15.40
  -1   6   9  143.69   15.70
  -1   6   9  137.99   25.70
   0  -6   9    1.60   10.90
   0  -6   9   -1.00    3.40
   0  -6  -9    0.40    1.80
   0  -6  -9   -2.90    3.30
   0  -6  -9   -0.90    2.30
   0  -6  -9    1.10    2.20
   0  -6   9   -6.80    8.10
   0   6   9   -7.00    5.20
   0   6   9    4.70    7.90
  -1  -6  -9   12.20    3.60
   1  -6   9  -15.60   11.00
  -1  -6  -9   14.20    4.50
  -1  -6  -9    6.00    2.50
   1  -6   9    9.40   10.70
  -1  -6  -9   17.80    5.30
  -1  -6  -9   17.40    4.80
   1  -6   9    5.20    6.60
   1  -6   9   16.70   12.10
  -1   6  -9   14.00    3.90
  -1   6  -9   -8.90    7.10
  -2  -6  -9   19.40    4.00
   2  -6   9   27.80   12.10
   2  -6   9   11.00    7.30
  -2  -6  -9   26.70    7.10
   2  -6   9   25.10   26.50
  -2  -6  -9   23.60    7.80
  -2  -6  -9   17.10    4.60
  -2  -6  -9   16.60    4.30
  -2   6  -9   19.60    4.30
   2   6   9    2.70    9.00
  -3  -6  -9   -0.10    2.50
  -3  -6  -9   -0.40    1.70
   3  -6   9   -0.70    4.30
   3  -7  -9    2.20    2.60
  -3  -7   9    0.90    2.70
  -3  -7   9    1.90    3.00
  -3  -7   9    1.90    3.50
  -3   7   9    1.90    3.20
  -3   7   9    3.00    2.90
  -3   7   9    2.00    3.40
  -2  -7   9  336.77   26.70
  -2  -7   9  282.17   36.50
   2  -7  -9  314.67   25.60
   2  -7  -9  363.36   31.00
  -2  -7   9  284.87   27.00
  -2  -7   9  330.87   30.90
  -2   7   9  320.57   27.80
  -2   7   9  312.27   30.90
   1  -7  -9   17.80    5.30
   1  -7  -9   23.10    5.30
  -1  -7   9   29.70   13.50
  -1  -7   9   19.40    5.60
  -1  -7   9   24.00   11.20
  -1   7   9   22.40    6.50
  -1   7   9   12.50   10.50
  -1   7   9    9.70    6.20
   0  -7  -9   38.40    6.80
   0  -7   9   17.60   10.80
   0  -7  -9   33.10    6.20
   0  -7   9   45.30   17.20
   0  -7  -9   40.70    7.90
   0  -7   9   42.80   15.50
   0  -7  -9   39.50    5.90
   0   7   9   32.60    9.00
   0   7   9   23.60   11.20
   1  -7   9    8.90    6.60
   1  -7   9    7.60    9.30
  -1  -7  -9    9.30    3.50
  -1  -7  -9   15.10    5.60
  -1  -7  -9   14.30    4.00
   1  -7   9   23.20   12.50
  -1  -7  -9   11.60    4.10
   1  -7   9   13.90    5.80
  -1  -7  -9   10.80    3.90
  -1   7  -9   11.40    4.30
  -1   7  -9   16.00    4.90
   1   7   9   14.40   10.00
  -2  -7  -9    4.40    4.00
   2  -7   9    1.70    6.20
  -2  -7  -9    1.40    2.50
  -2  -7  -9   -0.70    4.30
   2  -7   9    3.70    7.70
  -2  -7  -9   -0.90    2.60
  -2  -7  -9    0.00    2.60
  -2   7  -9    0.60    3.50
  -3  -7  -9   15.30    4.40
   3  -7   9    4.80    4.50
  -3  -7  -9   12.00    3.10
   3  -8  -9    1.70    1.80
  -3  -8   9   -0.90    2.00
  -3  -8   9    1.70    3.20
   3  -8  -9    2.40    1.80
  -3  -8   9    2.80    2.50
  -3   8   9    3.30    2.40
  -3   8   9    1.90    3.60
  -3   8   9    3.50    2.60
  -2  -8   9    9.80    4.40
   2  -8  -9   13.10    3.90
  -2  -8   9    8.60    4.70
   2  -8  -9   11.90    3.90
  -2  -8   9   10.30    3.60
  -2  -8   9   15.60    8.10
   2  -8  -9    5.40    2.00
  -2   8   9    7.10    4.00
  -2   8   9    6.00    3.90
   1  -8  -9    4.50    2.10
  -1  -8   9   -3.10    4.50
  -1  -8   9    3.60    3.20
  -1  -8   9    0.50    5.70
   1  -8  -9   -3.00    2.00
  -1  -8   9   -4.20    6.80
  -1  -8   9   -6.30    7.40
   1  -8  -9    1.50    2.50
  -1   8   9   -0.40    3.00
  -1   8   9    5.80    9.80
   0  -8  -9   85.09    9.70
   0  -8   9  100.69   21.60
   0  -8   9   82.99   11.80
   0  -8  -9   75.39    8.60
   0  -8  -9   86.09   10.40
   0  -8  -9  114.79   12.40
   0  -8   9   70.69   19.80
   0  -8   9   64.19   13.40
   0   8   9   75.19   22.70
   1  -8   9   -0.10    6.30
  -1  -8  -9    3.70    2.60
   1  -8   9   -4.60    4.50
  -1  -8  -9   -2.30    2.40
   1  -8   9   -3.80    7.70
   1  -8   9   14.30    8.90
  -1  -8  -9   -5.00    2.10
  -1  -8  -9    2.40    2.60
  -1   8  -9   -1.20    2.50
  -2  -8  -9    2.40    3.30
  -2  -8  -9   -2.30    3.60
  -2  -8  -9    2.20    2.30
   2  -8   9    1.80    5.20
  -2  -8  -9    2.70    2.70
   2  -8   9    0.90    6.60
  -2   8  -9    2.10    3.60
   3  -8   9   40.20    7.20
   3  -8   9   57.89    9.00
  -3  -8  -9   49.99    6.70
  -3  -8  -9   49.50    6.10
  -3  -9   9    5.30    2.70
   3  -9  -9    4.50    2.40
  -3  -9   9    5.10    2.40
  -3  -9   9    0.90    3.00
   3  -9  -9    4.00    1.50
  -3   9   9   -0.90    2.70
  -3   9   9    8.50    3.00
  -3   9   9    1.90    2.70
  -2  -9   9   27.60   10.60
  -2  -9   9   25.40    6.10
   2  -9  -9   20.50    4.50
  -2  -9   9   12.60    5.90
   2  -9  -9   34.30    5.10
  -2  -9   9   24.40    5.30
   2  -9  -9   30.80    5.50
  -2   9   9   27.00    6.10
  -2   9   9   22.40    6.20
  -1  -9   9   27.20    7.40
  -1  -9   9   27.60   11.30
  -1  -9   9   35.00   11.80
  -1  -9   9   50.49    8.60
  -1  -9   9   32.50    6.70
  -1  -9   9   37.20   12.80
   1  -9  -9   44.90    6.20
   1  -9  -9   57.79    7.80
   1  -9  -9   48.60    7.80
  -1   9   9   63.59    8.90
   0  -9   9  180.48   20.20
   0  -9   9  132.99   22.00
   0  -9   9  105.59   12.80
   0  -9  -9  130.89   11.60
   0  -9  -9  126.99   13.40
   0  -9  -9  140.99   14.50
   0  -9  -9  131.59   12.80
   0  -9   9  116.39   21.90
   0   9   9  123.49   12.90
   0   9   9  122.39   28.40
  -1  -9  -9   -2.50    3.10
  -1  -9  -9   -5.20    2.40
   1  -9   9  -11.20    6.10
   1  -9   9   -3.20    8.00
  -1  -9  -9    3.60    2.60
   1  -9   9   -9.20    5.90
   1  -9   9   -2.80    5.20
  -1  -9  -9    0.50    2.00
  -1  -9  -9    2.00    2.80
   1  -9   9   -3.20    6.90
  -1   9  -9    1.50    2.30
   1   9   9   13.30   20.20
  -2  -9  -9   -0.70    3.50
  -2  -9  -9    1.10    2.60
   2  -9   9    3.40    5.10
   2  -9   9    5.80    7.70
   2  -9   9   -2.50    4.00
  -2  -9  -9    4.20    3.30
  -2  -9  -9    3.30    3.10
  -2   9  -9    1.40    3.70
   3 -10  -9   26.60    3.80
   3 -10  -9   17.20    2.70
  -3 -10   9   15.00    3.30
  -3  10   9   23.30    5.00
  -3  10   9   20.30    4.10
  -2 -10   9   -1.00    4.70
  -2 -10   9   12.50   14.50
  -2 -10   9   -1.50    3.40
   2 -10  -9    0.10    2.40
  -2 -10   9   -1.40    2.20
  -2 -10   9    0.50    2.30
   2 -10  -9    9.00    4.70
   2 -10  -9    3.10    2.00
  -2  10   9    2.20    3.20
  -1 -10   9   -2.20    5.60
  -1 -10   9   -2.70    5.90
  -1 -10   9    3.60    3.70
  -1 -10   9    4.60    3.20
   1 -10  -9   -0.20    2.40
  -1 -10   9   10.20    5.20
   1 -10  -9    3.50    2.10
   1 -10  -9    2.30    2.30
  -1  10   9    8.30    3.50
   0 -10   9   19.90   10.90
   0 -10  -9   22.40    6.00
   0 -10  -9   15.80    4.60
   0 -10   9   20.20    9.40
   0 -10   9   14.40    9.10
   0 -10   9  -10.70   10.00
   0 -10  -9   17.50    4.10
   0 -10   9   10.20    6.90
   0  10   9   19.60    5.30
   0  10   9    4.30   17.90
  -1 -10  -9  239.38   20.40
  -1 -10  -9  282.17   21.90
  -1 -10  -9  274.77   22.10
   1 -10   9  237.88   26.80
   1 -10   9  254.77   27.00
   1 -10   9  232.08   31.20
  -1 -10  -9  271.07   22.80
  -1  10  -9  239.78   21.60
  -2 -10  -9  271.37   21.80
  -2 -10  -9  280.57   20.00
  -2 -10  -9  287.17   20.70
   2 -10   9  218.38   25.90
  -2 -10  -9  295.47   25.20
   2 -10   9  241.28   21.20
  -2  10  -9  261.87   20.70
  -2 -11   9   20.70    4.90
  -2 -11   9   14.80    6.30
   2 -11  -9   19.10    3.90
   2 -11  -9   17.80    3.00
   2 -11  -9   27.10    6.70
  -2  11   9   30.90    7.30
   1 -11  -9   -2.20    1.90
  -1 -11   9    4.70    3.00
  -1 -11   9    1.90    5.60
  -1 -11   9   -0.50    4.50
   1 -11  -9    3.10    2.60
  -1 -11   9   -1.30    5.50
   1 -11  -9    7.10    2.90
  -1  11   9    7.20    3.50
   0 -11  -9    4.50    2.80
   0 -11   9   10.70    8.20
   0 -11   9    1.70    5.30
   0 -11   9   -2.30    6.70
   0 -11  -9    7.00    3.30
   0  11   9   -8.50    4.10
  -1 -11  -9   68.49    8.70
  -1 -11  -9   66.59    9.70
   1 -11   9   44.00   13.20
   1 -11   9   63.49   13.80
  -1 -11  -9   76.89    8.90
  -1 -11  -9   69.69   10.10
  -1 -11  -9   84.09    9.60
   1 -11   9   79.79   13.80
  -1  11  -9   62.99    9.00
  -2 -11  -9   37.20    5.60
  -2 -11  -9   38.70    6.00
   2 -11   9   31.70   10.80
  -2 -11  -9   23.50    4.40
   2 -11   9   25.40    5.20
   2 -11   9   29.80    7.30
  -2  11  -9   32.50    4.70
   2 -12  -9    0.90    2.10
  -2 -12   9   -2.10    2.70
  -2 -12   9    1.50    1.50
   2 -12  -9    2.40    1.80
  -2 -12   9    0.00    1.70
  -2  12   9    0.70    2.80
  -2  12   9    0.00    2.20
   1 -12  -9    7.20    2.60
   1 -12  -9    8.10    3.00
  -1 -12   9    7.40    3.20
  -1 -12   9    6.00    5.20
  -1 -12   9    5.80    6.30
  -1  12   9   12.20    6.20
   0 -12  -9   -1.60    2.80
   0 -12   9    1.60    5.10
   0 -12  -9    0.20    1.80
   0 -12   9   -3.70    4.40
   0 -12  -9   -1.10    1.60
   0  12  -9    1.20    2.40
   1 -12   9   26.40    8.10
  -1 -12  -9   20.00    3.90
  -1 -12  -9   12.10    4.30
  -1 -12  -9   16.10    3.90
  -1 -12  -9   18.80    5.30
  -1 -12  -9   17.20    4.00
  -1  12  -9    1.80    4.90
  -2 -12  -9   42.90    5.60
   2 -12   9   34.20    7.10
  -2  12  -9   38.50    4.80
  -2 -13   9    6.60    2.80
  -2 -13   9    7.90    2.00
  -2 -13   9    4.50    2.00
   2  13  -9    4.60    2.30
  -2  13   9   10.40    2.60
  -1 -13   9    0.60    2.40
   1 -13  -9    5.10    2.70
  -1 -13   9    1.90    4.30
   1 -13  -9    2.90    2.00
  -1 -13   9    0.50    3.10
  -1  13   9    9.20    3.10
   1  13  -9    3.60    1.80
   0 -13  -9   88.69    8.70
   0 -13   9   85.69   10.80
   0 -13   9   63.69   14.70
   0 -13  -9   96.99   10.30
   0 -13  -9   82.59    9.10
   0  13  -9   65.19    8.40
  -1 -13  -9    0.50    1.80
  -1 -13  -9   -3.80    2.30
  -1 -13  -9   -0.40    1.80
   1 -13   9    2.80    3.80
   1 -13   9   -4.70    3.20
  -1  13  -9    1.00    1.60
   1 -14  -9    2.20    2.10
   1 -14  -9    3.00    2.20
   1 -14  -9    2.20    1.70
  -1 -14   9    0.50    2.80
   1  14  -9    0.40    1.10
  -1  14   9   -2.10    3.30
   0 -14  -9   -0.80    2.00
   0 -14   9    0.70    3.60
   0 -14  -9    5.90    2.40
   0 -14  -9    0.70    1.80
   0  14  -9    1.80    1.60
   1 -14   9    8.50    3.60
   1 -14   9    9.30    3.90
  -1 -14  -9   11.20    3.00
  -4   0  10   50.89    6.00
  -4   0  10   64.99    8.60
  -3   0  10   81.29   11.00
  -3   0  10  104.99   11.80
   3   0 -10   88.69    8.80
  -3   0  10   94.09   13.80
  -3   0  10  106.69   13.60
   2   0 -10  228.88   18.10
  -2   0  10  245.58   23.40
  -2   0  10  254.07   24.10
  -2   0  10  240.28   25.40
  -1   0  10  754.92   53.69
  -1   0  10  775.82   61.39
   1   0 -10  726.43   47.80
  -1   0  10  686.53   70.69
  -1   0  10  758.02   53.99
  -1   0  10  702.33   63.39
   0   0  10  613.74   51.09
   0   0 -10  564.14   38.50
   0   0 -10  515.25   38.90
   0   0  10  642.14   52.19
   0   0  10  579.24   42.00
  -1   0 -10   24.10    6.20
  -1   0 -10   19.60    5.40
   1   0  10   23.20   10.40
  -1   0 -10   19.10    5.50
   1   0  10   17.80   10.10
  -2   0 -10   20.60    5.30
   2   0  10   36.20   11.00
  -2   0 -10   10.00    8.40
   2   0  10   21.90   13.10
  -2   0 -10   22.30    5.60
  -2   0 -10   21.10    6.90
   3   0  10   -8.20    7.10
  -3   0 -10    1.10    2.70
  -3   0 -10    3.20    3.00
  -3   0 -10   -1.10    1.40
  -4  -1  10   -0.80    1.70
  -4  -1  10    1.80    2.60
  -4   1  10    0.00    2.10
  -4   1  10   -0.50    1.90
  -3  -1  10   58.09    8.80
  -3  -1  10   55.99    9.10
  -3  -1  10   71.29   11.10
  -3   1  10   65.69   10.90
  -3   1  10   49.20   10.80
   3   1 -10   63.09    7.20
  -3   1  10   57.19    9.40
  -3   1  10   50.39    9.10
  -2  -1  10  664.43   59.59
   2  -1 -10  706.63   47.70
  -2  -1  10  682.63   52.79
  -2  -1  10  665.53   48.60
  -2  -1  10  797.02   52.39
  -2  -1  10  671.33   54.39
  -2   1  10  723.33   51.69
   2   1 -10  704.43   46.10
  -2   1  10  657.43   53.79
  -2   1  10  695.13   52.79
   1  -1 -10   43.60    6.70
  -1  -1  10   25.20    9.00
  -1  -1  10   43.30   12.70
  -1  -1  10   24.80   17.20
  -1  -1  10   31.60    8.00
   1  -1 -10   24.30    4.30
  -1  -1  10   36.00    8.00
  -1   1  10   30.10    7.60
  -1   1  10   19.30    8.70
  -1   1  10   25.40    7.00
  -1   1  10   29.20   12.10
  -1   1  10   -8.80   30.40
   1   1 -10   26.10    4.90
   0  -1  10   91.69   15.70
   0  -1 -10   70.09    8.90
   0  -1 -10   75.49    8.00
   0  -1  10   68.29   10.00
   0  -1  10   76.09   16.70
   0   1  10   79.99   17.10
   0   1  10   76.69   10.00
   0   1  10   80.59   16.00
   0   1 -10   70.29    8.20
  -1  -1 -10   60.99   11.00
  -1  -1 -10   76.89    8.80
   1  -1  10   64.39   15.50
  -1  -1 -10   87.49   12.90
  -1   1 -10   76.79    9.90
  -1   1 -10   61.19   11.50
  -1   1 -10   70.79    9.70
   1   1  10  105.49   19.10
   2  -1  10   -1.70    7.80
   2  -1  10   -3.70    8.30
  -2  -1 -10    5.00    2.80
  -2  -1 -10    9.30    5.60
  -2  -1 -10    4.00    4.30
  -2  -1 -10    3.90    2.60
   2  -1  10    7.10   11.20
  -2  -1 -10   -3.60    6.70
  -2   1 -10    4.00    3.70
   2   1  10   -2.50    9.00
   2   1  10   13.50   10.10
  -2   1 -10    8.30    3.40
  -2   1 -10    2.80    7.70
  -2   1 -10   -5.00    3.70
  -3  -1 -10    3.20    3.30
   3  -1  10   -8.10    8.40
  -3  -1 -10    3.80    2.40
  -3  -1 -10    0.30    2.80
  -3   1 -10    0.60    2.90
  -3   1 -10   -2.40    2.40
   3   1  10  -10.80    7.10
  -4  -2  10    1.70    2.20
  -4  -2  10    5.80    2.00
  -4   2  10    1.60    1.80
  -4   2  10    2.90    2.20
  -3  -2  10   12.20    4.50
  -3  -2  10   11.20    4.60
  -3  -2  10    6.20    3.90
  -3   2  10    9.20    4.40
  -3   2  10   10.70    4.30
   3   2 -10    2.80    3.20
  -3   2  10    1.10    3.60
  -3   2  10    7.30    4.90
  -2  -2  10   15.40    4.70
  -2  -2  10   25.00    7.50
  -2  -2  10   23.30   12.70
  -2  -2  10   13.50    7.50
  -2  -2  10   16.20    6.40
   2  -2 -10    9.80    3.60
  -2   2  10   14.40    6.80
  -2   2  10   13.20    5.60
  -2   2  10   11.70    5.50
  -2   2  10   -4.40   16.00
   1  -2 -10   29.80    5.50
  -1  -2  10   19.90    5.90
  -1  -2  10   36.30   15.90
  -1  -2  10   20.40    9.70
  -1  -2  10   39.90   14.50
  -1  -2  10   17.90    4.30
  -1  -2  10   14.60    6.90
  -1  -2  10   22.30    8.20
   1  -2 -10   35.40    5.10
  -1   2  10   41.10    8.50
  -1   2  10   29.80   13.30
  -1   2  10   29.70    7.10
  -1   2  10   31.00   13.10
   1   2 -10   22.70    4.50
   0  -2  10    6.20    3.80
   0  -2  10    2.00    8.90
   0  -2 -10    3.40    3.20
   0  -2  10    8.80    6.20
   0  -2 -10   10.10    3.80
   0  -2  10    7.70    9.20
   0  -2 -10   12.00    3.80
   0   2 -10    3.90    3.10
   0   2  10    7.80    7.30
   0   2  10    8.90    4.00
   0   2  10    8.90    8.50
  -1  -2 -10   15.30    4.20
  -1  -2 -10    7.50    2.40
  -1  -2 -10    5.00    5.10
   1  -2  10    1.60   15.20
   1  -2  10   14.10    9.00
  -1   2 -10   21.20    7.30
   1   2  10   15.50    9.80
  -1   2 -10    9.90    3.90
  -1   2 -10   10.90    2.90
   1   2  10   13.10    8.10
   1   2  10   12.20    4.90
  -1   2 -10   18.00    5.40
  -2  -2 -10    5.60    3.20
  -2  -2 -10    4.60    5.40
  -2  -2 -10   21.20    9.20
   2  -2  10   -3.90    8.90
  -2  -2 -10    7.40    3.40
  -2  -2 -10    0.30    3.90
   2  -2  10   15.60    9.40
  -2   2 -10    6.10    4.50
   2   2  10   15.20    9.50
  -2   2 -10    3.70    4.10
  -2   2 -10   11.70    3.60
   2   2  10    8.00    8.00
  -3  -2 -10    8.90    3.80
  -3  -2 -10   12.00    3.80
  -3  -2 -10   12.10    3.70
   3  -2  10   19.80    9.10
  -3   2 -10   10.30    3.50
  -3   2 -10    7.00    3.70
  -3  -3  10    7.70    3.90
   3  -3 -10   -5.00    4.30
  -3  -3  10    1.70    2.90
  -3  -3  10    5.00    3.30
  -3   3  10    0.40    3.20
  -3   3  10    5.80    3.40
  -3   3  10    4.60    3.10
   2  -3 -10    5.00    2.70
  -2  -3  10   -2.10    8.40
  -2  -3  10    2.10    5.70
  -2  -3  10    2.00    2.80
  -2  -3  10    3.10    4.40
  -2   3  10   -5.10    3.70
  -2   3  10   -3.90    2.60
  -2   3  10   -0.50   17.40
   2   3 -10   -3.10    2.60
  -1  -3  10   -0.20    3.80
  -1  -3  10   -2.00   12.70
  -1  -3  10   -4.20    3.30
  -1  -3  10   -5.50    5.00
  -1  -3  10    8.40   10.40
   1  -3 -10    2.10    2.80
  -1  -3  10   -4.90    7.00
  -1   3  10  -13.10    8.50
  -1   3  10   12.00    9.30
   1   3 -10   -2.10    2.60
  -1   3  10   -6.10    4.30
   0  -3 -10   47.50    6.70
   0  -3  10   36.70   12.20
   0  -3  10   38.40   15.20
   0  -3 -10   42.00   13.40
   0  -3  10   20.80    8.20
   0  -3 -10   31.30    5.60
   0  -3 -10   36.80    5.50
   0  -3  10   29.40    6.70
   0   3 -10   28.20    5.30
   0   3  10   39.50    7.10
   0   3  10   22.10    8.20
   1  -3  10   13.10   11.30
   1  -3  10   23.00   10.60
  -1  -3 -10   11.80    4.10
  -1  -3 -10   20.70    5.70
   1  -3  10    9.60   10.50
   1   3  10   13.70    8.30
  -1   3 -10   15.70    6.80
  -1   3 -10   29.50    7.20
  -1   3 -10   18.60    4.80
   1   3  10   13.10    4.80
  -2  -3 -10  101.99   13.80
   2  -3  10   83.59   29.10
   2  -3  10   60.79   18.60
  -2  -3 -10  105.79   11.70
  -2  -3 -10   92.09   10.90
  -2  -3 -10   96.29   13.00
  -2   3 -10   89.09   10.70
   2   3  10  119.29   28.30
  -2   3 -10   99.79   14.10
   3  -3  10   11.90    9.90
  -3  -3 -10   44.10    6.00
  -3  -3 -10   50.89    8.80
  -3  -3 -10   35.90    6.40
  -3   3 -10   31.50    5.40
   3   3  10   30.70   10.40
  -3   3 -10   34.90    5.60
  -3  -4  10    5.30    3.20
  -3  -4  10   11.70    4.40
  -3  -4  10    4.20    3.20
   3  -4 -10    6.00    5.20
  -3   4  10   10.10    4.10
  -3   4  10    7.10    5.10
  -3   4  10   11.60    4.30
  -2  -4  10   42.60    8.40
  -2  -4  10   50.29   10.80
  -2  -4  10   36.00   13.10
  -2  -4  10   24.00    5.30
  -2  -4  10   26.70    8.60
   2  -4 -10   40.00    6.20
  -2   4  10   30.00    8.10
  -2   4  10   37.10    8.50
  -2   4  10   35.30    8.40
  -2   4  10   11.60   10.80
  -1  -4  10    2.30    4.20
  -1  -4  10   18.80   11.70
   1  -4 -10   10.00    3.10
  -1  -4  10    4.80    4.40
   1  -4 -10    8.10    4.40
   1  -4 -10   11.30    3.50
  -1  -4  10    1.70    5.50
  -1  -4  10  -11.40   10.50
  -1   4  10    8.80    7.30
  -1   4  10   15.50   11.00
  -1   4  10   10.90    8.20
   1   4 -10   19.70    4.40
  -1   4  10    1.80    4.90
   0  -4 -10   -3.20    2.90
   0  -4  10    1.60    3.60
   0  -4 -10    2.10    2.60
   0  -4  10    2.90    6.50
   0  -4  10   -2.60    8.00
   0  -4 -10    0.60    5.50
   0  -4  10   -6.80    8.90
   0   4 -10    3.20    2.90
   0   4  10   -2.30    3.30
   0   4  10   -8.80    4.40
   1  -4  10  100.39   20.30
   1  -4  10  103.69   21.60
   1  -4  10   96.59   23.80
  -1  -4 -10  106.39   11.30
  -1  -4 -10  106.19   11.90
  -1  -4 -10   91.59   12.00
  -1  -4 -10   92.09   10.30
  -1   4 -10   92.89   10.70
  -2  -4 -10   52.09    7.50
  -2  -4 -10   48.60    8.00
  -2  -4 -10   41.30    7.50
   2  -4  10   27.00   11.80
  -2  -4 -10   49.80   11.50
  -2   4 -10   54.59    7.60
   2   4  10   39.40   12.20
  -2   4 -10   32.50    7.60
   2   4  10   31.20   12.70
  -3  -4 -10    0.70    2.30
  -3  -4 -10    2.00    2.50
   3  -4  10   -3.30   11.30
   3  -4  10   -7.70    4.10
   3   4  10  -10.30    5.40
   3  -5 -10   32.90    6.60
  -3  -5  10   25.80    5.80
  -3  -5  10   50.49    8.00
  -3  -5  10   23.60    6.20
  -3   5  10   40.00    8.50
  -3   5  10   33.70    8.00
  -2  -5  10   86.79   11.90
  -2  -5  10   72.29   14.80
  -2  -5  10   90.99   10.90
   2  -5 -10   83.59    9.20
  -2  -5  10   68.49   16.50
  -2  -5  10   90.99   13.90
  -2   5  10   76.09   12.20
  -2   5  10   61.99   10.50
  -2   5  10   83.79   12.00
  -1  -5  10  649.83   57.79
  -1  -5  10  627.14   52.89
  -1  -5  10  561.84   56.29
  -1  -5  10  603.04   47.90
   1  -5 -10  603.64   42.30
   1  -5 -10  584.54   41.20
  -1  -5  10  648.54   43.60
  -1   5  10  736.33   78.49
  -1   5  10  633.14   54.39
  -1   5  10  623.84   45.80
   0  -5  10  163.38   24.30
   0  -5 -10  143.39   13.00
   0  -5 -10  130.59   14.80
   0  -5 -10  137.89   11.90
   0  -5  10  126.39   21.90
   0  -5  10  158.48   26.60
   0  -5  10  109.19   15.00
   0   5 -10  116.29   12.70
   0   5  10  140.89   24.30
  -1  -5 -10   -0.90    2.00
   1  -5  10    9.00   10.00
   1  -5  10   -3.40    8.60
  -1  -5 -10   -2.10    1.50
  -1  -5 -10   -4.00    3.10
  -1  -5 -10   -1.40    3.30
  -1   5 -10   -3.90    3.50
   1   5  10    3.80    7.00
  -1   5 -10    0.10    2.40
  -2  -5 -10   82.49   11.00
  -2  -5 -10   74.59   12.30
  -2  -5 -10   85.99   10.30
  -2  -5 -10   77.59    9.40
   2  -5  10   51.89   15.40
  -2   5 -10   77.69    9.20
   2   5  10   54.29   14.40
  -3  -5 -10   43.60    6.40
  -3  -5 -10   45.60    6.90
   3  -6 -10   18.40    3.60
  -3  -6  10   14.80    4.30
   3  -6 -10   19.80    3.90
  -3  -6  10   11.40    4.60
  -3  -6  10   22.80    5.30
  -3   6  10   12.60    4.40
  -2  -6  10   -3.90    4.80
  -2  -6  10    2.50    6.30
  -2  -6  10   -2.40    4.00
   2  -6 -10    1.20    1.70
   2  -6 -10   -1.80    2.30
  -2  -6  10   -5.70    6.60
  -2   6  10   -1.20    4.50
  -2   6  10   -2.30    3.00
  -2   6  10   -0.50    3.50
  -1  -6  10   11.10   11.00
  -1  -6  10   10.80   10.50
  -1  -6  10    1.70    5.50
   1  -6 -10    4.70    1.60
  -1  -6  10    5.20    4.40
   1  -6 -10    9.60    3.30
  -1  -6  10    5.50    4.10
  -1  -6  10   -2.30    4.60
   1  -6 -10   -0.20    2.80
  -1   6  10    5.20    4.60
  -1   6  10   29.40   13.90
   0  -6  10    6.50    9.50
   0  -6  10    1.10    9.40
   0  -6 -10   -1.60    2.50
   0  -6  10    3.80    4.20
   0  -6 -10    2.50    2.30
   0  -6  10    1.90    3.80
   0  -6  10   -2.90    8.30
   0  -6 -10    2.50    2.10
   0   6  10    9.80    8.80
   1  -6  10   -6.00    7.60
  -1  -6 -10   -0.60    2.80
   1  -6  10   -2.30    4.10
   1  -6  10   -4.80    4.60
  -1  -6 -10    0.00    2.80
  -1  -6 -10   -0.10    1.50
  -1  -6 -10   -0.20    1.90
  -1  -6 -10   -1.90    1.60
   1  -6  10    2.70    8.20
  -1   6 -10   -3.60    2.50
   1   6  10   -1.20    8.30
  -1   6 -10   -4.20    3.00
  -2  -6 -10   -0.20    2.20
  -2  -6 -10   -3.60    3.90
   2  -6  10    2.30    8.50
   2  -6  10    0.20    5.80
  -2  -6 -10   -0.10    2.10
  -2  -6 -10   -3.50    2.50
  -2   6 -10   -3.50    1.90
  -3  -6 -10    5.80    2.90
   3  -6  10    7.00    4.40
  -3  -6 -10    6.70    2.30
  -3  -7  10    2.00    3.00
   3  -7 -10    1.20    1.90
  -3  -7  10    1.70    2.30
   3  -7 -10    1.50    1.50
  -3  -7  10    1.80    2.40
  -3   7  10    5.10    3.60
  -3   7  10    0.30    2.50
  -2  -7  10   12.30    3.90
   2  -7 -10   18.90    4.00
  -2  -7  10   10.20    5.00
   2  -7 -10   23.70    5.10
  -2  -7  10   14.70    4.60
  -2  -7  10   11.80    7.80
  -2   7  10   16.70    6.60
  -2   7  10   12.50    5.20
  -2   7  10   14.10    5.40
  -1  -7  10   71.19   10.90
  -1  -7  10  111.79   11.30
  -1  -7  10   86.79   21.10
  -1  -7  10   80.49   14.50
  -1  -7  10   81.29   14.70
   1  -7 -10   99.29   10.50
   1  -7 -10  104.59    9.50
  -1  -7  10   56.79   15.80
   1  -7 -10  107.39   10.90
  -1   7  10  114.09   12.60
   0  -7  10   70.29   15.00
   0  -7  10   75.19   17.50
   0  -7  10   97.79   11.80
   0  -7 -10   92.49   10.20
   0  -7 -10   98.99    9.40
   0  -7  10  124.09   27.30
   0  -7 -10   93.19   10.90
  -1  -7 -10   76.09    9.90
  -1  -7 -10   62.49    9.70
   1  -7  10   51.09   13.80
  -1  -7 -10   62.29    7.80
  -1  -7 -10   62.09    8.40
   1  -7  10   70.69   19.40
  -1  -7 -10   68.19    9.00
  -1   7 -10   42.60    7.10
   1   7  10   57.59   16.70
  -1   7 -10   54.09    8.30
   2  -7  10   45.30   15.10
  -2  -7 -10   77.69    9.60
  -2  -7 -10   83.09   10.70
  -2  -7 -10   87.19    9.50
  -2  -7 -10   78.49   11.70
  -3  -7 -10    0.90    1.70
   3  -7  10    2.20    3.40
   3  -7  10    4.70    3.60
  -3  -7 -10    3.10    2.30
  -3  -8  10    1.60    2.40
  -3  -8  10    2.10    2.10
   3  -8 -10    4.80    2.20
   3  -8 -10    5.00    1.70
  -3  -8  10    0.60    2.80
  -3   8  10   -0.40    2.30
  -3   8  10    5.70    3.10
  -2  -8  10   -4.70    4.70
   2  -8 -10    0.80    1.80
  -2  -8  10   -0.30    2.50
   2  -8 -10   -0.70    2.30
   2  -8 -10    4.30    4.10
  -2  -8  10    1.90    3.70
  -2  -8  10   -0.80    2.50
  -2   8  10    3.10    3.70
  -2   8  10   -1.20    2.50
  -2   8  10   -5.30    3.20
   1  -8 -10   51.79    7.60
  -1  -8  10   39.50    8.90
   1  -8 -10   37.60    6.60
   1  -8 -10   46.80    6.00
  -1  -8  10   37.10   12.50
  -1  -8  10   35.80   12.60
  -1  -8  10   53.09    8.10
  -1   8  10   28.90   15.00
  -1   8  10   41.70    8.40
   0  -8  10    3.90    8.90
   0  -8  10   -6.20    5.10
   0  -8  10    3.60    6.70
   0  -8 -10    8.40    2.60
   0  -8  10   18.50   13.10
   0  -8  10    4.20    8.60
   0  -8 -10    7.20    3.00
   0  -8 -10    4.30    2.40
   0   8  10   15.80   12.70
   1  -8  10   28.70    9.60
   1  -8  10   35.80   13.70
   1  -8  10   44.40   12.20
  -1  -8 -10   49.80    8.40
  -1  -8 -10   45.80    7.30
  -1  -8 -10   59.99    8.90
  -1  -8 -10   31.10    5.30
  -1  -8 -10   42.30    7.00
  -1   8 -10   45.60    7.20
   1   8  10   49.99   28.10
   2  -8  10   22.10    9.70
  -2  -8 -10   31.70    7.60
   2  -8  10   15.30    7.10
  -3  -9  10   90.09    8.90
  -3  -9  10   91.69    8.80
   3  -9 -10  109.19    8.20
  -3   9  10   87.19    9.80
  -3   9  10  110.89   11.30
  -3   9  10  104.69    9.40
   2  -9 -10    1.40    1.50
  -2  -9  10    0.60    2.20
  -2  -9  10    3.80    6.10
   2  -9 -10    1.10    2.90
  -2  -9  10   -1.90    2.50
   2  -9 -10    0.50    1.80
  -2  -9  10   -4.40    3.30
  -2   9  10   -2.10    2.60
  -2   9  10    1.10    4.30
  -1  -9  10  116.19   18.10
  -1  -9  10  139.89   21.50
  -1  -9  10  112.19   13.80
  -1  -9  10  145.79   22.60
   1  -9 -10  155.18   13.70
   1  -9 -10  162.68   12.50
  -1  -9  10  160.78   14.50
   1  -9 -10  153.88   14.00
  -1   9  10  144.69   14.90
   0  -9  10  128.49   14.00
   0  -9 -10  150.68   14.10
   0  -9  10  131.79   23.30
   0  -9  10  134.09   19.80
   0  -9 -10  141.79   12.30
   0  -9 -10  153.38   13.70
   0  -9  10  150.28   22.50
   0   9  10   92.19   24.20
  -1  -9 -10   74.79    9.80
  -1  -9 -10   75.89   10.60
   1  -9  10   81.39   14.50
  -1  -9 -10   80.89    9.70
   1  -9  10   86.29   21.30
   1  -9  10  100.49   15.60
  -1  -9 -10   89.59   10.80
  -1   9 -10   65.99    9.40
   2  -9  10   33.90    6.30
   2  -9  10   51.19   15.20
   2  -9  10   52.59   13.30
  -2 -10  10    5.90    5.10
   2 -10 -10    3.50    2.20
   2 -10 -10    1.70    2.80
  -2 -10  10    3.10    5.20
  -2 -10  10    3.50    2.90
   2 -10 -10    3.60    2.00
  -2 -10  10    1.40    2.30
  -2  10  10   -2.00    3.40
  -2  10  10    4.00    3.30
   1 -10 -10   14.40    3.10
  -1 -10  10   15.40    8.80
  -1 -10  10   21.60    4.80
  -1 -10  10   14.90    6.40
   1 -10 -10   27.20    5.50
  -1 -10  10   15.50    9.10
  -1  10  10   20.30    5.20
   0 -10 -10   48.00    7.80
   0 -10  10   28.30   12.20
   0 -10  10   35.10   11.00
   0 -10 -10   49.70    8.30
   0 -10  10   33.90   10.30
   0 -10 -10   44.00    7.00
   1 -10  10   22.00   10.90
  -1 -10 -10   29.60    6.20
   1 -10  10   35.70    9.90
   1 -10  10   18.60   10.70
  -1 -10 -10   46.90    7.10
  -1 -10 -10   48.30    9.70
  -1 -10 -10   38.60    7.20
  -1 -10 -10   49.00    7.00
  -1  10 -10   39.40    6.80
   2 -10  10   74.49   11.10
  -2 -10 -10   65.29    6.70
  -2 -10 -10   67.19    7.80
  -2 -10 -10   65.49    7.70
   2 -10  10   44.00   10.20
  -2  10 -10   50.39    6.20
  -2 -11  10    1.30    1.70
  -2 -11  10    0.40    1.90
  -2 -11  10   -1.70    2.50
   2 -11 -10   -3.20    2.50
   2 -11 -10   -0.50    1.30
   2 -11 -10    2.10    2.60
  -2  11  10   -1.30    2.10
  -1 -11  10    0.50    4.60
  -1 -11  10    6.30    5.70
  -1 -11  10   -6.60    2.80
   1 -11 -10    0.20    1.90
  -1 -11  10    5.80    5.60
  -1 -11  10   -5.10    2.90
   1 -11 -10    0.90    2.00
   1 -11 -10    4.10    2.20
  -1  11  10   -1.40    3.90
  -1  11  10   -7.50    6.20
   0 -11  10   -3.20    5.00
   0 -11 -10   -0.40    2.80
   0 -11  10   -6.70    8.40
   0 -11 -10   -1.70    1.60
   0 -11 -10    0.70    2.20
   0  11 -10    1.50    2.40
   1 -11  10   -6.10    6.90
   1 -11  10   21.00    9.70
  -1 -11 -10   17.10    5.00
  -1 -11 -10   13.50    5.20
   1 -11  10   12.00    6.40
  -1 -11 -10   13.40    4.90
  -1  11 -10   13.90    5.40
   2 -11  10   12.50    4.40
  -2 -11 -10    7.90    2.60
   2 -11  10   -7.60    6.30
   2  11  10    3.60    4.20
   2 -12 -10   -2.00    1.20
  -2 -12  10   -0.30    1.50
  -2 -12  10    1.80    1.70
  -2 -12  10   -0.70    2.60
  -2  12  10   -2.10    2.10
   1 -12 -10   -0.30    1.60
  -1 -12  10    5.40    2.50
   1 -12 -10    2.00    1.90
  -1 -12  10    4.60    4.60
  -1 -12  10    6.40    5.00
  -1 -12  10   -4.20    3.60
  -1  12  10    7.30    2.80
  -1  12  10   -0.70    7.80
   0 -12  10    5.20    5.70
   0 -12 -10    1.20    2.30
   0 -12 -10    0.60    2.40
   0 -12  10    1.30    4.00
   0 -12  10   -2.00    3.80
   0  12 -10    0.30    1.70
   1 -12  10   -2.90    3.70
  -1 -12 -10   -0.30    1.50
  -1 -12 -10   -0.80    1.80
  -1 -12 -10   -1.90    1.90
  -1 -12 -10   -3.60    3.50
   1 -12  10    0.50    4.00
  -1  12 -10   -1.00    1.70
   1 -13 -10   43.50    5.80
  -1 -13  10   20.80    7.60
   1 -13 -10   42.50    5.10
   1 -13 -10   38.40    5.20
   0 -13 -10    1.40    1.60
   0 -13 -10   -2.00    1.40
   0 -13 -10   -2.30    1.60
   0 -13  10   -2.90    2.70
   0  13 -10    0.50    1.20
  -1 -13 -10    0.20    2.00
   1 -13  10   -3.90    3.30
   1 -13  10    2.20    2.80
  -1  13 -10   -1.40    1.20
   0 -14  10    7.10    3.40
   0  14 -10   10.20    2.20
   0  14  10   12.00    4.80
  -3   0  11    1.50    4.30
  -3   0  11   -0.90    2.40
  -3   0  11    1.90    2.40
  -3   0  11   -4.10    2.60
  -2   0  11    4.90    6.80
  -2   0  11   -6.80    2.80
   2   0 -11   -0.70    1.50
  -2   0  11   -1.40    2.40
  -2   0  11   -1.50   10.30
  -1   0  11    2.60    7.60
  -1   0  11    3.00    4.10
  -1   0  11    4.90    5.40
  -1   0  11   -6.20    6.80
   1   0 -11    0.20    1.50
  -1   0  11   12.50   16.50
   0   0  11   -3.70    5.00
   0   0 -11    0.30    2.90
   0   0  11   -5.30    6.00
   0   0 -11    1.60    2.10
   0   0  11   -1.90    3.80
   1   0  11    2.40    8.10
  -1   0 -11   -2.20    2.50
   1   0  11   -2.60    6.60
  -1   0 -11   -1.10    1.40
   1   0  11   -9.00    4.60
  -2   0 -11   -3.90    3.60
   2   0  11   -8.00    8.90
  -2   0 -11   -2.30    2.50
   2   0  11  -11.00   12.30
  -2   0 -11    0.90    2.00
  -3   0 -11   -1.50    2.20
  -3   0 -11   -4.70    3.00
   3   0  11   -6.10    7.20
  -3  -1  11    3.20    3.20
  -3  -1  11    0.20    4.10
   3  -1 -11    7.90    2.40
  -3  -1  11    3.10    3.80
  -3  -1  11    7.00    3.50
  -3   1  11    2.60    4.60
  -3   1  11   -1.10    3.30
  -3   1  11    7.80    4.00
   3   1 -11    4.40    2.40
  -3   1  11   10.00    3.90
  -2  -1  11  510.35   37.10
  -2  -1  11  512.05   48.10
  -2  -1  11  583.14   40.20
  -2  -1  11  436.16   39.70
  -2  -1  11  496.15   43.20
   2  -1 -11  531.85   34.80
   2   1 -11  509.65   34.20
  -2   1  11  415.76   41.40
  -2   1  11  479.15   40.30
  -2   1  11  554.24   39.40
  -1  -1  11  358.76   29.60
  -1  -1  11  438.16   33.60
  -1  -1  11  348.57   42.20
  -1  -1  11  412.46   40.50
  -1  -1  11  374.46   32.90
   1  -1 -11  395.16   27.10
   1  -1 -11  344.37   27.20
  -1   1  11  426.36   33.30
   1   1 -11  381.96   27.00
  -1   1  11  384.56   44.10
  -1   1  11  379.86   39.30
  -1   1  11  415.96   33.40
   0  -1  11   87.49   19.80
   0  -1 -11   57.89    8.10
   0  -1 -11   57.89    7.40
   0  -1  11   64.29   10.40
   0  -1  11   78.99   21.10
   0  -1  11   75.79   17.40
   0   1 -11   72.19    9.40
   0   1  11   47.50    9.70
   0   1 -11   81.59   11.10
   0   1  11   81.39   17.70
   0   1  11   60.39   17.00
   1  -1  11   13.90    9.40
  -1  -1 -11   21.10    5.20
   1  -1  11   24.60    7.10
   1  -1  11   34.10   12.20
  -1   1 -11   26.70    6.80
  -1   1 -11   22.50    5.20
   1   1  11    9.10    8.60
   1   1  11   15.40   11.10
   1   1  11   23.00    9.90
  -1   1 -11   10.40    4.20
  -2  -1 -11   17.70    4.50
   2  -1  11   10.50    8.90
  -2  -1 -11   17.10    6.80
   2  -1  11   25.40   13.00
   2  -1  11   -3.60   12.80
  -2  -1 -11   17.80    4.80
   2   1  11    5.50   12.00
  -2   1 -11   12.60    5.10
  -2   1 -11    7.30    4.60
   2   1  11   31.40   11.20
  -2   1 -11   13.60    4.20
  -3  -1 -11   26.50    5.90
  -3  -1 -11   35.70    4.80
   3  -1  11   28.10   10.40
  -3   1 -11   24.10    4.50
   3   1  11   12.40    7.70
   3  -2 -11    0.00    1.50
  -3  -2  11    1.60    3.20
  -3  -2  11   -0.10    2.70
  -3  -2  11   -0.70    2.30
  -3   2  11   -2.30    2.20
  -3   2  11    3.90    4.00
  -3   2  11    0.40    3.10
  -3   2  11   -1.20    2.60
   2  -2 -11   -0.40    1.60
  -2  -2  11    1.20    6.00
   2  -2 -11    5.20    2.80
  -2  -2  11  -17.60    8.10
  -2  -2  11    4.40    4.70
  -2  -2  11    2.80    2.90
  -2   2  11   -2.20    7.70
  -2   2  11   -6.00   10.20
  -2   2  11   -2.00    2.90
  -2   2  11   -2.90    3.20
  -1  -2  11  160.68   17.80
  -1  -2  11  134.39   14.20
  -1  -2  11  150.38   17.90
   1  -2 -11  148.19   12.30
  -1  -2  11  114.19   26.20
  -1  -2  11  136.89   25.30
   1  -2 -11  150.68   12.90
  -1   2  11  136.19   16.30
  -1   2  11  119.49   16.10
  -1   2  11  173.58   23.70
  -1   2  11  138.09   26.30
   1   2 -11  130.79   12.00
   0  -2  11   -5.10    5.60
   0  -2  11   -3.10    3.10
   0  -2  11    2.40    8.50
   0  -2 -11   -1.90    1.40
   0  -2 -11   -1.80    2.60
   0   2  11    1.10    7.30
   0   2 -11   -2.20    2.80
   0   2  11   -7.00    3.80
   1  -2  11   19.70   12.40
  -1  -2 -11   10.10    3.60
   1  -2  11    7.30    5.60
  -1  -2 -11    9.30    3.70
   1  -2  11   16.30   10.00
   1  -2  11   17.30    9.80
  -1  -2 -11    2.40    5.50
  -1   2 -11   21.40    6.80
   1   2  11    2.20    9.70
  -1   2 -11    3.10    2.70
  -1   2 -11   10.20    4.00
   1   2  11    9.30    7.40
  -2  -2 -11   10.90    4.40
   2  -2  11   -0.60   21.50
   2  -2  11   11.30   10.00
  -2  -2 -11   10.50    3.80
  -2  -2 -11   16.20    6.30
  -2  -2 -11    7.50    2.90
  -2   2 -11   19.40    5.90
   2   2  11   13.60    9.10
  -2   2 -11   10.80    3.00
   3  -2  11   22.00    9.10
  -3  -2 -11   42.70    5.40
  -3  -2 -11   44.30    6.70
   3   2  11   31.30    9.10
  -3  -3  11    1.40    3.00
   3  -3 -11    3.70    1.90
  -3  -3  11    0.10    2.80
  -3  -3  11    5.40    3.10
  -3   3  11   -3.60    3.50
  -3   3  11    2.10    2.90
  -3   3  11    2.00    3.60
  -3   3  11    4.80    3.10
   2  -3 -11  355.06   26.50
  -2  -3  11  424.26   32.50
   2  -3 -11  376.76   27.00
  -2  -3  11  382.86   38.90
  -2  -3  11  381.66   28.90
  -2  -3  11  341.17   34.00
  -2   3  11  378.36   32.10
  -2   3  11  395.16   30.90
   2   3 -11  338.47   27.80
  -1  -3  11  325.17   39.50
  -1  -3  11  381.56   27.20
  -1  -3  11  297.07   31.10
   1  -3 -11  393.16   25.50
  -1  -3  11  371.76   39.60
   1  -3 -11  363.26   26.00
  -1   3  11  365.06   30.00
   1   3 -11  307.77   24.70
  -1   3  11  327.17   29.60
  -1   3  11  373.96   37.10
  -1   3  11  387.36   56.89
   0  -3  11    6.60    4.30
   0  -3  11   11.40   10.70
   0  -3  11   10.30   10.20
   0  -3 -11   13.80    3.70
   0  -3  11   17.10    9.80
   0  -3 -11   15.80    4.90
   0   3  11   20.20    9.60
   0   3 -11   19.80    4.60
   0   3  11   16.30    8.20
   0   3  11    9.40    5.50
  -1  -3 -11    0.40    1.50
   1  -3  11   10.10   10.00
   1  -3  11   -6.70    7.90
  -1  -3 -11   -8.00    4.20
  -1  -3 -11    1.90    2.20
   1  -3  11   -6.60    8.90
   1  -3  11    6.80    5.20
   1   3  11   -6.60    5.60
  -1   3 -11    3.90    5.90
  -1   3 -11   -0.10    2.30
   1   3  11    2.70    8.50
  -2  -3 -11   54.39    7.80
  -2  -3 -11   48.90    9.00
   2  -3  11   29.60   11.80
  -2  -3 -11   55.49    8.10
  -2  -3 -11   47.20    7.90
  -2   3 -11   47.70    7.30
   2   3  11   35.80   11.40
  -2   3 -11   46.80    8.40
  -3  -3 -11   11.90    3.00
   3  -3  11    9.50   15.80
  -3  -3 -11   15.60    4.40
   3  -3  11    2.00    4.40
   3   3  11    0.60    5.30
  -3  -4  11   -2.30    2.10
   3  -4 -11   -0.50    1.40
   3  -4 -11   -8.70    4.90
  -3  -4  11   -1.00    2.40
  -3   4  11   -0.10    3.20
  -3   4  11    2.90    2.80
  -3   4  11    0.60    3.30
  -2  -4  11   -3.70    6.70
   2  -4 -11   -2.30    2.00
  -2  -4  11   -9.50    7.70
  -2  -4  11    1.20    5.30
  -2   4  11    3.50    3.70
   1  -4 -11   66.29    8.10
  -1  -4  11   58.19   18.80
  -1  -4  11   51.29   15.80
  -1  -4  11   65.29   10.20
  -1  -4  11   41.70    9.80
   1  -4 -11   72.59    7.50
  -1   4  11   81.39   17.30
  -1   4  11   78.69   11.00
   1   4 -11   45.60    6.80
   0  -4  11   87.89   22.80
   0  -4  11   79.49   18.20
   0  -4 -11   82.99    9.70
   0  -4 -11   78.49   15.10
   0  -4 -11   81.99   10.20
   0  -4 -11   81.99    8.70
   0   4  11   93.09   20.50
   0   4 -11   65.99    9.30
  -1  -4 -11   -2.40    1.30
   1  -4  11    0.70    7.40
   1  -4  11   -4.00    3.80
  -1  -4 -11   -1.80    1.80
   1  -4  11    9.40    7.90
  -1   4 -11   -5.40    8.60
   1   4  11   -7.80    6.00
   1   4  11   -4.60    5.80
  -1   4 -11   -1.90    2.00
  -2  -4 -11   -0.10    2.50
   2  -4  11    2.70    7.80
  -2  -4 -11   -4.20    4.50
  -2  -4 -11    1.20    2.20
  -2   4 -11    0.60    1.80
   3  -4  11   17.80    5.40
   3   4  11    9.30    5.80
  -3  -5  11    0.50    2.40
  -3  -5  11   -3.60    2.50
   3  -5 -11    1.90    2.20
  -3   5  11   -2.50    2.20
  -3   5  11   -1.20    3.20
  -2  -5  11   -2.10    2.50
  -2  -5  11   11.80    4.80
  -2  -5  11   -9.10    6.60
  -2  -5  11   -2.00    3.60
  -2  -5  11   -4.40    9.70
   2  -5 -11    0.80    2.00
   2  -5 -11   -0.10    2.10
  -2   5  11   -3.20    2.90
  -1  -5  11   -7.00    4.70
  -1  -5  11   -8.80    8.20
   1  -5 -11    3.20    2.60
  -1  -5  11    4.10    8.40
  -1  -5  11   -5.70    4.60
  -1  -5  11   -2.30    3.50
   1  -5 -11    7.50    3.60
  -1   5  11    2.00    8.10
  -1   5  11   -7.10    6.90
  -1   5  11    6.70    3.90
   0  -5 -11    0.70    1.40
   0  -5  11    3.70    9.90
   0  -5 -11   -1.20    1.90
   0  -5  11    3.00    8.80
   0  -5 -11   -7.20    3.70
   0  -5 -11   -0.30    2.50
   0  -5  11    1.40   10.20
   0  -5  11    3.30    3.90
   0   5 -11    9.60    4.60
   0   5  11    1.50    7.40
   1  -5  11    2.10    4.70
  -1  -5 -11   -1.60    1.20
   1  -5  11    4.60    7.90
   1  -5  11    4.50    8.40
  -1  -5 -11   -0.30    3.20
  -1  -5 -11   -2.40    1.50
   1  -5  11  -19.20   19.30
  -1   5 -11    2.30    2.40
   1   5  11   -8.10    6.80
  -1   5 -11    0.50    3.80
  -2  -5 -11    2.70    2.20
   2  -5  11    4.10    8.10
   2  -5  11    1.10    4.60
  -2  -5 -11   -3.30    2.50
  -2  -5 -11   -2.10    3.50
  -2  -5 -11    2.90    2.50
  -2   5 -11    1.30    1.50
   2   5  11   11.00    7.40
  -3  -5 -11    3.00    2.20
   3  -5  11    1.00    4.40
  -3  -5 -11    1.10    2.20
   3   5  11   -0.20    5.40
   3  -6 -11    0.80    1.20
  -3  -6  11    0.50    2.00
  -3  -6  11    2.90    2.80
  -3  -6  11   -2.40    2.20
  -3   6  11    0.50    2.20
  -3   6  11    0.40    2.60
  -3   6  11   -1.80    2.20
  -2  -6  11    5.50    4.00
   2  -6 -11    4.10    1.80
  -2  -6  11   11.50    4.50
  -2  -6  11   11.40    8.40
   2  -6 -11   10.30    3.70
  -2  -6  11    1.70    3.00
  -2   6  11    9.40    5.00
  -2   6  11   -0.50    3.70
   1  -6 -11  344.57   25.90
  -1  -6  11  378.96   39.80
  -1  -6  11  364.26   27.90
   1  -6 -11  317.87   25.60
  -1  -6  11  354.16   26.50
   1  -6 -11  347.57   24.70
  -1  -6  11  316.57   36.90
  -1   6  11  339.37   44.00
  -1   6  11  344.87   28.40
  -1   6  11  368.36   36.50
   0  -6 -11  234.68   20.00
   0  -6  11  225.68   32.30
   0  -6  11  246.68   30.80
   0  -6 -11  221.98   19.00
   0  -6 -11  227.68   19.20
   0  -6  11  250.67   19.60
   0  -6 -11  218.18   17.70
   0   6  11  199.78   32.40
  -1  -6 -11   -0.50    2.30
   1  -6  11    1.90    8.60
  -1  -6 -11    2.60    3.30
   1  -6  11   -0.30    7.90
  -1   6 -11   -4.30    2.70
   1   6  11    5.70   10.40
  -1   6 -11   -1.70    2.80
   2  -6  11    5.40    7.10
   2  -6  11    2.70    8.80
  -2  -6 -11    3.90    4.60
  -2  -6 -11    9.70    3.60
  -2  -6 -11    5.00    2.80
  -2  -6 -11    2.40    2.70
   2   6  11    0.60    6.80
  -3  -6 -11    8.30    2.30
  -3  -6 -11   14.30    3.40
   3  -6  11    2.80    3.80
  -3  -7  11    1.00    2.20
   3  -7 -11    1.40    1.10
   3  -7 -11   -1.00    1.70
  -3  -7  11    0.40    2.20
  -3  -7  11   -1.80    1.70
  -3   7  11    1.80    2.10
  -3   7  11    2.30    2.80
  -3   7  11   -0.70    2.50
  -2  -7  11    0.60    2.50
   2  -7 -11    0.20    2.20
  -2  -7  11   -1.00    3.60
  -2  -7  11   -4.10    5.40
  -2  -7  11   -1.40    2.50
   2  -7 -11    1.00    1.70
  -2   7  11    1.40    3.50
  -2   7  11   -3.30    3.60
  -1  -7  11   82.09   20.40
   1  -7 -11   98.39   10.70
  -1  -7  11   73.99   10.50
  -1  -7  11   65.09   19.70
  -1   7  11   97.69   13.90
  -1   7  11   63.79   16.20
  -1   7  11   77.39   25.90
   0  -7 -11   50.79    7.70
   0  -7  11   35.70   12.30
   0  -7  11   33.60    6.10
   0  -7 -11   25.00    5.40
   0  -7 -11   46.40    8.40
   0  -7  11   25.80   12.30
   0  -7 -11   38.00    5.90
   0   7  11   45.00   17.30
  -1  -7 -11    5.60    2.90
   1  -7  11    1.60    8.80
  -1  -7 -11    4.20    3.70
   1  -7  11    5.20    6.00
  -1  -7 -11    1.80    2.60
  -1  -7 -11    3.20    3.00
  -1   7 -11    3.80    2.90
  -1   7 -11   10.30    3.70
  -2  -7 -11   -1.60    3.30
  -2  -7 -11    1.40    1.90
  -2  -7 -11   -2.20    2.10
  -2  -7 -11   -1.20    2.10
   2  -7  11    2.40    5.60
   2  -7  11   -3.30    5.60
   2   7  11    1.40    5.90
   3  -8 -11    5.10    1.50
  -3  -8  11    4.40    2.10
  -3  -8  11    3.60    2.20
   3  -8 -11   11.10    2.30
  -3   8  11    8.10    4.10
  -3   8  11    6.60    2.80
  -3   8  11    8.60    2.30
  -2  -8  11   -0.70    3.40
  -2  -8  11    0.80    4.70
  -2  -8  11    1.60    2.30
  -2  -8  11   -1.80    2.40
   2  -8 -11    1.20    1.90
   2  -8 -11   -1.00    1.70
  -2   8  11   -3.10    2.50
   1  -8 -11  114.69   11.20
   1  -8 -11  106.99   11.10
  -1  -8  11   84.59   19.80
  -1  -8  11  102.89   16.00
  -1  -8  11  111.49   12.10
   1  -8 -11  113.09   10.20
  -1  -8  11   78.19   17.60
  -1  -8  11  115.99   12.30
  -1   8  11  111.89   12.50
   0  -8 -11    8.10    4.50
   0  -8 -11    0.10    1.70
   0  -8  11   -2.80    7.20
   0  -8  11   -1.90    6.20
   0  -8 -11    0.00    2.00
   0  -8 -11    3.30    2.60
   0  -8  11   16.20    8.40
   0  -8  11    5.10    8.50
   0  -8  11   -2.60    3.70
   0   8  11   -0.30   14.60
  -1  -8 -11   -1.70    2.20
  -1  -8 -11    0.80    1.90
   1  -8  11   -9.10    7.30
  -1  -8 -11    0.10    2.90
   1  -8  11   -2.30    6.90
   1  -8  11    1.20    5.20
  -1  -8 -11   -0.30    1.90
  -1   8 -11    2.20    3.30
   2  -8  11    3.80    4.50
  -2  -8 -11    5.30    2.80
   2  -8  11    7.80    7.00
  -2  -8 -11    6.90    2.90
  -2  -8 -11    8.10    4.30
   2  -8  11   -5.20    4.00
   2   8  11    6.20    5.00
   2  -9 -11   -2.70    1.90
  -2  -9  11    0.80    2.60
  -2  -9  11    4.70    4.80
  -2  -9  11   -1.80    2.30
   2  -9 -11   -3.40    1.90
  -2   9  11    2.80    4.90
  -2   9  11    0.70    3.90
   1  -9 -11    4.10    2.00
  -1  -9  11    0.70    6.00
  -1  -9  11    8.60    3.30
   1  -9 -11    5.70    2.60
  -1  -9  11    4.80    5.60
   1  -9 -11    4.90    2.80
  -1  -9  11    9.70    7.10
  -1   9  11    4.50    3.80
  -1   9  11    4.60    6.80
   0  -9 -11    4.10    3.70
   0  -9 -11    3.00    2.30
   0  -9 -11    1.10    2.30
   0  -9  11  -11.80    7.30
   0  -9 -11    0.00    2.00
   0  -9  11   -2.60    4.50
   0  -9  11    5.20    6.70
   1  -9  11   97.49   15.30
  -1  -9 -11   99.99   11.60
  -1  -9 -11  109.49   11.20
   1  -9  11   60.99   16.00
  -1  -9 -11  102.49   10.60
   1  -9  11  112.89   16.20
  -1   9 -11  105.79   10.80
  -2  -9 -11   32.40    4.80
   2  -9  11   25.00    7.50
  -2  -9 -11   30.30    5.10
  -2  -9 -11   30.30    5.50
   2  -9  11   32.10    9.10
   2   9  11   14.90    6.50
  -2 -10  11   24.10    6.60
  -2 -10  11   12.60    2.70
  -2 -10  11   15.40    4.60
  -2  10  11   19.00    4.10
  -1 -10  11   -1.00    5.60
   1 -10 -11    2.50    2.60
   1 -10 -11    0.70    1.70
   1 -10 -11    0.70    2.40
  -1 -10  11   -2.50    4.60
  -1 -10  11    3.60    5.20
  -1 -10  11   -3.70    2.70
  -1  10  11   13.00    7.70
  -1  10  11    0.10    4.30
   0 -10  11    4.90    5.80
   0 -10 -11    1.30    2.20
   0 -10 -11    4.80    3.20
   0 -10 -11    2.20    1.90
   0 -10  11    0.50    6.30
   1 -10  11   -3.70    6.10
  -1 -10 -11    0.70    1.90
   1 -10  11    0.30    5.00
  -1 -10 -11   -0.20    1.60
  -1 -10 -11   -2.90    3.80
  -1 -10 -11   -2.90    2.50
   1 -10  11   -2.60    5.20
  -1  10 -11    2.50    2.40
   2 -10  11   17.00    5.00
  -2 -10 -11   26.80    3.90
  -2 -10 -11   24.20    4.00
   2 -10  11   14.90    5.90
   2  10  11   17.30    5.00
  -2 -11  11    0.90    3.00
  -2 -11  11   -4.50    2.50
  -2 -11  11   -0.80    1.70
   2 -11 -11    2.20    1.90
   2 -11 -11    1.80    1.50
  -2  11  11    2.30    2.40
   1 -11 -11   11.50    2.80
  -1 -11  11   15.80    6.80
  -1 -11  11    9.80    8.10
   1 -11 -11   10.20    4.00
  -1 -11  11    2.70    2.60
   1 -11 -11    7.30    2.50
  -1  11  11    4.40    3.40
  -1  11  11    2.00    6.50
   0 -11 -11   -1.80    1.80
   0 -11 -11   -1.60    2.90
   0 -11  11   -3.70    9.80
   0 -11 -11   -1.40    2.40
   0 -11  11    1.80    5.30
   0  11 -11    2.40    2.00
   1 -11  11    1.40    4.10
  -1 -11 -11    1.40    2.40
  -1 -11 -11    0.70    1.60
   1 -11  11   -1.40    4.20
  -1 -11 -11    3.10    3.10
  -1  11 -11    2.80    2.10
  -1 -12  11    8.40    4.10
  -1 -12  11    9.20    4.50
   1 -12 -11   19.40    4.00
   1 -12 -11   13.90    3.00
   1 -12 -11   18.80    3.70
  -1  12  11   19.00    5.40
   0 -12 -11    5.60    3.50
   0 -12 -11    0.00    2.60
   0 -12  11    1.80    3.80
   0 -12 -11    3.10    2.00
   0 -12  11    1.30    3.40
   0 -12 -11    3.10    2.10
   0  12 -11    2.60    1.90
   1 -12  11   20.40    4.70
  -1 -12 -11   23.80    4.00
   1 -12  11   12.20    5.40
  -1  12 -11   14.70    3.10
   1  13 -11    1.30    1.10
   0 -13 -11    4.10    2.10
   0 -13 -11    1.20    1.70
   0 -13  11   -0.80    2.40
   0 -13 -11    4.20    2.50
   0  13 -11    1.40    1.30
   0  13  11    0.70    3.50
  -3   0  12   25.80    6.90
   3   0 -12   38.60    5.30
  -3   0  12   46.50    7.10
  -3   0  12   54.09    7.50
  -3   0  12   51.79    8.10
   2   0 -12   15.20    3.20
  -2   0  12   16.90    6.00
  -2   0  12    9.20    9.20
  -2   0  12   17.50    5.20
  -2   0  12   -0.20    7.60
  -2   0  12   14.90    5.00
  -1   0  12  985.50   86.59
  -1   0  12 1018.10   81.59
   1   0 -12 1046.50   66.79
  -1   0  12 1083.29   73.09
  -1   0  12 1066.19   68.29
  -1   0  12 1017.40   73.89
   0   0  12   18.00   11.30
   0   0  12   44.60   13.60
   0   0 -12   54.09    7.40
   0   0 -12   36.40    6.00
   0   0  12   33.30    7.70
  -1   0 -12  541.05   41.10
  -1   0 -12  565.44   38.10
   1   0  12  545.05   49.90
  -1   0 -12  526.75   38.00
   1   0  12  605.74   54.29
   1   0  12  446.46   40.30
  -2   0 -12    6.30    3.40
   2   0  12    9.30    8.10
   2   0  12   -2.70   10.60
  -2   0 -12    8.80    4.60
  -3   0 -12    2.80    2.30
   3   0  12  -12.00    7.50
  -3  -1  12   34.60    7.30
  -3  -1  12   19.40    4.30
   3  -1 -12   23.70    3.90
  -3  -1  12   22.20    5.00
  -3   1  12   23.00    6.20
  -3   1  12   20.00    4.60
  -3   1  12   38.50    6.50
   3   1 -12   26.40    4.80
  -3   1  12   33.40    6.80
  -2  -1  12   15.70    6.10
  -2  -1  12   23.30   11.30
   2  -1 -12   17.30    3.90
  -2  -1  12   34.60   11.00
  -2  -1  12   19.30    4.90
  -2  -1  12   11.90    4.50
   2   1 -12   22.00    4.30
  -2   1  12   14.60    5.50
  -2   1  12   17.20    4.50
  -2   1  12    6.10    9.30
  -2   1  12   13.80    4.90
  -1  -1  12  260.77   24.30
   1  -1 -12  247.28   19.60
  -1  -1  12  235.58   30.60
  -1  -1  12  207.88   37.30
  -1  -1  12  257.47   20.80
   1  -1 -12  283.27   19.60
  -1  -1  12  230.28   25.20
  -1   1  12  233.98   24.80
  -1   1  12  274.37   30.60
  -1   1  12  250.57   24.10
   1   1 -12  254.77   19.10
  -1   1  12  260.17   37.40
   0  -1  12  322.07   31.50
   0  -1 -12  374.16   27.30
   0  -1 -12  385.96   28.10
   0  -1  12  364.76   43.20
   0  -1  12  417.96   41.30
   0  -1  12  403.66   42.20
   0   1  12  356.96   31.60
   0   1 -12  366.76   27.50
   0   1 -12  377.86   27.50
   0   1  12  467.35   41.90
   0   1  12  389.46   42.70
  -1  -1 -12    1.40    1.90
   1  -1  12    6.50    8.30
   1  -1  12    3.40    5.00
  -1  -1 -12    2.40    2.50
   1  -1  12  -13.10    9.00
   1  -1  12    0.00    5.60
   1   1  12   -2.30    6.50
  -1   1 -12   -0.40    2.50
  -1   1 -12    3.70    2.90
   1   1  12    6.90    7.20
   1   1  12   -8.30    6.70
  -1   1 -12   11.10    5.30
   2  -1  12   16.50   14.00
  -2  -1 -12    0.40    3.50
  -2  -1 -12    3.60    1.90
  -2  -1 -12    2.90    5.60
   2  -1  12    8.30    8.80
  -2   1 -12    5.00    2.70
   2   1  12   -4.30    8.30
  -2   1 -12    0.50    3.00
  -3  -1 -12    2.80    2.30
  -3   1 -12   -4.10    3.90
   3   1  12    5.50    9.40
   3  -2 -12   -0.30    1.50
  -3  -2  12   -1.70    4.20
  -3  -2  12   -1.30    2.20
  -3  -2  12    0.80    2.60
  -3   2  12   -1.60    2.50
  -3   2  12   -1.90    2.60
  -3   2  12   -5.80    3.00
  -3   2  12   -1.90    2.30
  -2  -2  12   34.90   13.10
  -2  -2  12   19.80    6.30
   2  -2 -12   27.00    5.90
  -2  -2  12   24.80    5.80
  -2   2  12    2.00   10.70
   2   2 -12   16.80    3.60
  -2   2  12   12.70    5.60
  -2   2  12   20.50    6.50
  -1  -2  12   13.00    7.60
   1  -2 -12   13.70    3.70
  -1  -2  12   15.50    4.40
  -1  -2  12   22.50   10.90
  -1  -2  12   -2.70   16.10
  -1  -2  12   -4.10   11.10
   1  -2 -12   13.40    3.60
  -1   2  12   23.40   10.20
   1   2 -12   20.80    4.40
  -1   2  12    4.00   10.30
  -1   2  12    9.30    6.80
  -1   2  12    4.50    5.30
   0  -2  12    8.10    7.30
   0  -2 -12    4.10    2.30
   0  -2 -12    2.40    1.90
   0  -2  12    0.40    4.80
   0  -2  12    3.60    8.60
   0  -2  12    4.60   11.60
   0   2  12   14.80    9.80
   0   2 -12    3.50    2.50
   0   2  12    2.30    8.20
  -1  -2 -12    0.90    2.00
   1  -2  12  -11.40    6.60
   1  -2  12  -10.50    9.60
   1  -2  12   -6.90    4.30
   1  -2  12   -3.90    6.50
  -1  -2 -12    0.60    2.30
  -1   2 -12    1.40    2.10
   1   2  12   -7.60    6.70
  -1   2 -12    2.60    4.10
   2  -2  12   18.80   10.80
  -2  -2 -12    8.80    4.50
  -2  -2 -12    8.60    4.40
  -2  -2 -12   12.40    3.70
  -2   2 -12   12.70    3.70
  -2   2 -12   11.90    5.10
   2   2  12    3.30    9.40
   3  -2  12   11.00    4.50
  -3  -2 -12   10.40    3.90
   3   2  12   -6.80    7.90
  -3  -3  12   18.90    3.90
  -3  -3  12   19.10    3.90
  -3   3  12   18.90    5.50
  -3   3  12   32.80    5.70
  -3   3  12   12.00    4.40
  -3   3  12   30.30    6.20
   2  -3 -12    4.20    2.60
   2  -3 -12    1.90    1.30
  -2  -3  12    3.00    3.30
  -2  -3  12    3.90    2.90
  -2  -3  12    6.00    9.30
  -2   3  12    1.70    3.90
  -2   3  12  -12.40   10.70
   2   3 -12   -2.20    2.90
  -2   3  12    7.30    4.00
  -1  -3  12    2.50    3.30
  -1  -3  12    3.00    5.70
  -1  -3  12    1.30    8.40
   1  -3 -12    3.80    2.60
  -1  -3  12  -13.30    9.40
   1  -3 -12    5.20    1.70
  -1   3  12    2.60    8.90
  -1   3  12    2.00    4.60
  -1   3  12    4.40    8.30
   1   3 -12    8.80    3.40
   0  -3  12    4.90   13.10
   0  -3  12   -1.30    7.30
   0  -3  12   -2.00    4.70
   0  -3 -12    0.40    2.00
   0  -3 -12    0.90    1.40
   0  -3  12    1.20    7.10
   0   3  12   -0.70    7.90
   0   3 -12   -0.90    2.40
   0   3  12   -2.10    7.60
  -1  -3 -12    1.30    6.20
   1  -3  12   10.80    8.70
   1  -3  12   -4.90    8.20
  -1  -3 -12    0.70    1.40
  -1  -3 -12   -0.20    1.70
   1   3  12    3.80    7.40
  -1   3 -12    0.80    2.10
  -2  -3 -12   -3.00    2.90
  -2  -3 -12    3.10    2.20
   2  -3  12    3.40    8.00
  -2  -3 -12   -0.50    1.50
  -2  -3 -12   -2.00    3.10
  -2   3 -12    2.20    5.70
  -2   3 -12    0.80    1.50
   2   3  12   -6.10    6.90
   3  -3  12   -1.30    3.80
  -3  -3 -12    2.10    2.40
  -3  -4  12    4.50    2.70
  -3  -4  12    1.20    2.80
  -3  -4  12    2.60    2.00
   3  -4 -12    2.10    1.70
  -3   4  12    0.60    2.60
  -3   4  12    4.20    2.50
  -3   4  12    2.70    2.60
   2  -4 -12   -1.20    2.20
  -2  -4  12    1.50    2.80
  -2  -4  12   -6.60    7.00
  -2  -4  12   -0.20    3.70
  -2  -4  12   -0.30    2.90
   2  -4 -12    0.10    1.00
  -2   4  12    3.00    3.80
  -2   4  12   -5.20    3.80
  -2   4  12   -0.50   22.80
   1  -4 -12   13.50    2.70
  -1  -4  12   19.30    4.70
  -1  -4  12    6.30    7.70
  -1  -4  12   16.50    7.10
  -1  -4  12   33.70   13.30
   1  -4 -12   22.60    5.10
  -1   4  12    8.30    4.60
  -1   4  12   35.70   11.80
   1   4 -12   13.10    3.80
  -1   4  12   13.60   12.70
   0  -4  12   -3.40    7.80
   0  -4 -12    5.20    2.40
   0  -4  12   -7.70    3.90
   0  -4  12   -0.50   11.10
   0  -4 -12    6.90    3.20
   0  -4  12    8.60    8.00
   0   4  12    4.90    9.60
   0   4  12   11.70    8.40
   0   4 -12    2.50    2.20
   1  -4  12    8.30    8.40
  -1  -4 -12   19.90    6.60
  -1  -4 -12   15.30    5.00
   1  -4  12    3.20    7.00
  -1  -4 -12    8.60    4.80
   1  -4  12   36.70   15.50
  -1   4 -12   14.30    4.50
   1   4  12   -5.60    9.40
   1   4  12   14.60   10.20
  -2  -4 -12   12.30    3.90
   2  -4  12    7.40    7.40
  -2  -4 -12   15.60    3.70
  -2  -4 -12   19.40    6.30
  -2  -4 -12   13.00    5.50
  -2   4 -12   14.70    3.80
   2   4  12   23.30    8.90
  -3  -5  12    2.40    2.30
   3  -5 -12   -0.40    1.30
  -3  -5  12    0.50    1.80
  -3  -5  12   -0.10    2.40
  -3   5  12   -2.10    2.00
  -3   5  12    1.90    2.70
  -3   5  12   -4.00    2.30
   2  -5 -12  121.29   10.20
  -2  -5  12   83.49   16.50
  -2  -5  12  105.69   11.50
   2  -5 -12  108.49   10.20
  -2  -5  12  110.89   14.60
  -2  -5  12  106.09   12.20
  -2   5  12   94.49   13.20
  -2   5  12  104.49   13.40
  -1  -5  12    9.40    9.20
  -1  -5  12   -4.00    9.30
   1  -5 -12    9.20    3.50
  -1  -5  12    3.20   10.10
  -1  -5  12   13.60    4.40
   1  -5 -12   14.00    3.70
  -1   5  12   -0.20   10.60
  -1   5  12   12.40    8.20
  -1   5  12   11.30    6.80
   0  -5  12  254.77   35.30
   0  -5 -12  319.67   23.70
   0  -5  12  326.97   35.40
   0  -5 -12  296.57   22.30
   0  -5 -12  328.97   23.90
   0  -5 -12  262.97   23.40
   0   5 -12  283.67   21.90
   0   5  12  344.87   36.00
  -1  -5 -12   85.19   10.80
   1  -5  12   96.99   18.00
  -1  -5 -12   91.59    9.70
   1  -5  12   63.79   18.40
   1  -5  12   52.69   12.70
  -1  -5 -12   79.09    9.70
   1   5  12  124.59   19.70
  -1   5 -12   89.39    9.20
  -2  -5 -12   -0.50    1.70
   2  -5  12    0.00    6.20
  -2  -5 -12   -4.40    2.60
   2  -5  12   -0.80    5.20
  -2  -5 -12   -4.10    2.40
  -2  -5 -12   -2.00    1.60
   2   5  12   -7.60    5.00
   3  -6 -12   -0.20    1.10
  -3  -6  12   -3.00    1.70
  -3  -6  12    0.60    3.50
  -3  -6  12   -0.40    1.90
  -3   6  12   -1.40    1.30
  -3   6  12   -1.30    2.30
   2  -6 -12   -0.30    1.80
  -2  -6  12   -1.20    6.20
  -2  -6  12    3.90    3.90
   2  -6 -12    0.60    1.50
  -2  -6  12   -2.80    2.10
  -2  -6  12   -2.70    2.40
  -2   6  12    2.40    3.30
  -1  -6  12    4.30    3.90
  -1  -6  12   -6.70    9.90
   1  -6 -12   -3.10    6.60
   1  -6 -12    2.70    1.80
   1  -6 -12    2.60    1.60
  -1  -6  12    4.80    6.90
   1  -6 -12   -5.00    3.00
  -1  -6  12   -4.00    6.10
  -1  -6  12    1.90    7.40
  -1  -6  12   -1.30    3.10
  -1   6  12    3.60    3.20
  -1   6  12  -13.80   11.90
  -1   6  12    2.90    6.70
   0  -6  12    7.20    9.80
   0  -6 -12    0.30    2.70
   0  -6  12   -6.30    5.50
   0  -6 -12   -2.70    1.90
   0  -6  12  -14.40    9.70
   0  -6  12   11.10    9.50
   0  -6 -12    0.70    2.30
   0   6  12    0.90   11.70
   0   6  12    7.30    9.20
   1  -6  12    4.80    7.40
   1  -6  12   -4.20    7.90
   1  -6  12   -2.80    5.20
  -1  -6 -12    1.10    2.00
  -1   6 -12   -1.80    3.60
   1   6  12    0.90    6.70
  -1   6 -12   -4.60    2.40
  -2  -6 -12   -2.80    3.10
   2  -6  12   -4.90    6.90
  -2  -6 -12   -0.40    2.30
  -2  -6 -12   -3.30    1.70
   2  -6  12   -5.80    4.30
  -2  -6 -12   -0.50    1.40
  -3  -7  12    2.80    2.90
  -3  -7  12    2.70    2.00
   3  -7 -12    0.60    1.50
  -3   7  12    3.90    2.20
  -3   7  12    3.00    2.60
  -2  -7  12   -4.10    3.50
  -2  -7  12    1.10    5.20
   2  -7 -12    0.80    1.70
   2  -7 -12    2.00    1.70
  -2  -7  12    1.30    2.80
  -2   7  12   -1.20    3.00
   1  -7 -12    8.50    2.40
  -1  -7  12   22.40    5.70
  -1  -7  12   14.90    9.90
   1  -7 -12    9.70    5.80
   1  -7 -12   13.70    4.00
  -1  -7  12   13.10    5.60
  -1  -7  12    5.60    7.90
  -1   7  12   16.70    5.40
  -1   7  12   18.20    8.10
   0  -7 -12   58.99    8.20
   0  -7  12   63.39    8.80
   0  -7  12   52.79   14.20
   0  -7 -12   59.89    7.20
   0  -7 -12   52.19    8.50
   0  -7  12   45.30   14.60
   0  -7 -12   59.49    7.80
   0   7  12   44.70   12.50
   1  -7  12   52.29   15.90
   1  -7  12   50.19   12.90
   1  -7  12   34.70    9.50
  -1  -7 -12   57.69    7.40
  -1  -7 -12   66.49    8.80
  -1  -7 -12   61.49    8.00
   1   7  12   51.39   14.10
  -2  -7 -12   27.10    4.60
  -2  -7 -12   26.20    4.90
  -2  -7 -12   20.00    4.10
   2  -7  12   17.60    9.80
  -2  -7 -12   20.40    5.80
   2  -7  12   18.10    6.60
   2  -7  12   20.80    5.60
   2   7  12   14.80    5.90
   2  -8 -12    1.90    2.50
  -2  -8  12   -3.70    2.30
   2  -8 -12    4.60    2.10
  -2  -8  12    1.10    3.70
  -2  -8  12    1.50    2.70
  -2  -8  12   -3.80    4.50
  -2   8  12   -1.20    2.40
   1  -8 -12   -6.00    3.80
  -1  -8  12   -0.90    2.20
  -1  -8  12   -0.10    6.10
   1  -8 -12   -2.50    1.30
  -1  -8  12   -4.60    5.40
   1  -8 -12   -0.40    1.30
  -1   8  12    2.10    6.40
  -1   8  12   -4.00    3.60
   0  -8  12  -11.00   13.80
   0  -8 -12   -1.80    1.60
   0  -8 -12    0.60    1.80
   0  -8  12    0.70    7.20
   0  -8  12    0.10    6.50
   0  -8 -12   -2.90    2.90
   0  -8 -12    2.00    1.90
   1  -8  12   -3.40    7.30
  -1  -8 -12    1.40    2.00
  -1  -8 -12   -1.80    3.20
   1  -8  12   -3.60    5.30
   1  -8  12    0.60    5.80
  -1  -8 -12    2.00    3.00
  -1   8 -12    2.90    2.80
   1   8  12   -0.40    4.90
  -2  -8 -12   -3.00    1.60
  -2  -8 -12    0.70    1.50
  -2  -8 -12   -0.50    2.10
   2  -8  12    2.60    4.60
   2  -8  12   -0.70    3.40
   2   8  12   -7.40    4.10
  -2  -9  12   68.69    8.30
  -2  -9  12   65.49   11.80
   2  -9 -12  104.79    8.00
  -2  -9  12   69.19   11.10
  -2  -9  12   94.09    9.10
   2  -9 -12   95.89    8.30
  -2   9  12   75.59    9.10
   1  -9 -12    0.40    2.20
  -1  -9  12    2.40    3.20
   1  -9 -12    3.20    3.80
  -1  -9  12   -2.70    4.70
  -1  -9  12    5.20    5.60
  -1  -9  12    0.90    5.80
   1  -9 -12    3.20    2.10
  -1   9  12   -8.50    3.60
  -1   9  12   -5.70    5.90
   0  -9 -12  107.49   11.00
   0  -9 -12  103.79   11.60
   0  -9  12  105.39   17.30
   0  -9 -12  127.89   10.40
   0  -9 -12  107.89   11.00
   1  -9  12   45.50   13.40
   1  -9  12   28.20    7.60
   1  -9  12   34.80    8.90
  -1  -9 -12   38.50    6.00
  -1  -9 -12   39.60    6.10
  -1  -9 -12   33.20    8.70
  -1   9 -12   31.60    5.10
   1   9  12   34.40   10.00
   2  -9  12   63.79    9.90
  -2  -9 -12   61.09    6.00
  -2  -9 -12   63.79    6.70
   2   9  12   49.90    7.80
  -2 -10  12   52.19    5.80
   2 -10 -12   56.09    5.90
   2 -10 -12   56.39    5.20
  -2  10  12   50.99    6.60
  -1 -10  12    1.20    2.40
  -1 -10  12    4.10    4.80
   1 -10 -12    7.40    3.30
   1 -10 -12   13.20    4.00
  -1 -10  12   -0.10    4.70
   1 -10 -12    5.60    2.50
   1 -10 -12    9.00    2.40
  -1  10  12    8.70    4.50
  -1  10  12   -2.80    6.00
   0 -10 -12    0.20    1.70
   0 -10  12    1.10    4.70
   0 -10 -12   -0.10    1.70
   0 -10 -12   -2.20    2.00
   0 -10 -12   -4.20    2.30
   0  10 -12   -0.20    2.20
   0  10  12    2.20    5.70
   1 -10  12   24.80    9.90
  -1 -10 -12   17.30    4.90
  -1 -10 -12   19.70    4.00
   1 -10  12    9.70    4.90
  -1 -10 -12   27.70    4.70
   1 -10  12    0.30    9.90
   1  10  12   14.30    6.00
  -1  10 -12   23.10    3.60
   1 -11 -12   -2.00    2.10
   1 -11 -12    2.70    2.50
   1 -11 -12    1.30    1.50
  -1 -11  12    3.80    3.40
   1 -11 -12    4.20    3.70
  -1 -11  12    5.60    5.10
   0 -11  12    2.30    4.40
   0 -11 -12    7.10    2.20
   0 -11 -12    4.70    1.90
   0 -11  12    9.80    5.80
   0 -11 -12    7.50    2.90
   0  11  12    0.00    5.10
   0  11 -12    5.00    2.30
  -1 -11 -12   -0.40    1.60
  -1 -11 -12    0.50    2.30
   1 -11  12   -0.80    3.40
   1 -11  12   -5.00    4.30
  -1 -11 -12    4.50    3.00
   1  11  12   -0.20    2.90
  -1  11 -12    0.80    2.10
   1 -12 -12   -1.40    1.90
  -1 -12  12   -1.30    2.70
   1  12 -12    1.30    1.30
   0 -12 -12    4.80    3.80
   0 -12 -12   -2.10    1.70
   0 -12  12    0.60    3.20
   0 -12  12   -5.50    2.70
   0 -12 -12   -1.50    2.10
   0 -12 -12   -0.40    1.30
   0  12  12    1.50    3.20
   0  12 -12   -0.10    1.00
   3   0 -13   -2.10    1.70
  -3   0  13    0.40    2.50
  -3   0  13   -0.40    3.40
  -3   0  13   -1.50    1.90
   2   0 -13   -2.10    1.20
  -2   0  13   -1.80    2.20
  -2   0  13   -2.90    8.40
  -2   0  13   -2.10    3.40
  -1   0  13  -10.40    6.70
  -1   0  13   -6.80   16.80
  -1   0  13   -9.90    8.30
  -1   0  13   -7.10    3.60
   1   0 -13    0.20    1.60
  -1   0  13  -21.20   20.80
   0   0  13   -6.30    5.50
   0   0 -13    4.40    3.00
   0   0  13    0.10   11.80
   0   0 -13    0.30    1.70
   0   0  13    2.20    7.80
  -1   0 -13   -1.50    1.60
   1   0  13   -7.50    7.30
   1   0  13   -0.10    7.70
  -1   0 -13   -4.50    3.30
  -2   0 -13    0.70    2.00
   2   0  13   -5.00    5.10
   2   0  13    3.30    9.90
  -2   0 -13   -3.90    2.20
   3  -1 -13    2.00    2.10
  -3  -1  13    3.80    2.30
  -3  -1  13    0.10    2.30
  -3  -1  13   -5.80    3.60
  -3   1  13    2.70    2.40
  -3   1  13   -3.20    2.20
  -3   1  13    1.80    2.70
   2  -1 -13   18.50    3.40
  -2  -1  13   31.10   10.60
  -2  -1  13    4.30    5.50
  -2  -1  13   11.10    3.30
   2   1 -13   14.80    3.10
  -2   1  13    7.90    3.40
  -2   1  13    1.40    8.50
  -2   1  13   13.10    5.50
  -1  -1  13  136.99   25.30
   1  -1 -13  143.99   12.40
  -1  -1  13   86.39   34.20
   1   1 -13  129.99   12.20
  -1   1  13  120.99   18.50
  -1   1  13  134.99   21.80
   0  -1  13  354.56   41.80
   0  -1  13  399.86   40.90
   0  -1  13  330.97   31.90
   0  -1 -13  397.76   27.70
   0  -1 -13  394.56   28.00
   0  -1  13  403.86   46.40
   0   1  13  422.76   47.40
   0   1 -13  360.16   27.00
   0   1  13  451.55   42.80
   0   1 -13  385.86   27.50
   0   1  13  339.07   41.40
   0   1  13  322.07   32.10
   1  -1  13    3.60    9.30
  -1  -1 -13    2.60    2.00
   1  -1  13   -2.20    7.50
  -1  -1 -13   -6.10    3.30
  -1  -1 -13   -1.30    2.00
   1   1  13    0.40    5.70
  -1   1 -13    1.80    2.30
  -1   1 -13    5.20    4.60
  -2  -1 -13    5.50    2.20
   2  -1  13    3.40    6.90
  -2  -1 -13    6.10    4.80
  -2   1 -13    9.30    3.40
   2   1  13   20.40    9.20
  -2   1 -13   10.70    3.70
   2   1  13    7.90    8.20
  -3  -2  13   -4.50    2.90
  -3  -2  13   -1.60    1.90
   3  -2 -13   -0.40    1.30
  -3  -2  13   -2.70    1.70
  -3   2  13   -1.90    2.50
  -3   2  13    1.20    2.20
  -3   2  13   -0.90    2.80
  -2  -2  13    7.70    5.60
   2  -2 -13   26.90    4.80
  -2  -2  13   14.80    9.00
  -2  -2  13   16.70    4.00
   2   2 -13   18.10    3.50
  -2   2  13   -1.00    9.00
  -2   2  13   19.90    4.70
  -2   2  13   18.40    5.30
  -1  -2  13   96.69   11.30
  -1  -2  13   78.19   21.20
   1  -2 -13  109.99   10.60
  -1   2  13   63.39   21.60
  -1   2  13  115.79   13.90
   1   2 -13  122.99   13.30
   0  -2  13   -5.30   17.30
   0  -2  13   10.50    8.80
   0  -2 -13    5.10    2.90
   0  -2  13   12.00    7.40
   0  -2 -13   10.00    3.00
   0  -2  13   17.60    9.40
   0   2  13   16.40   11.50
   0   2  13   -2.00   10.70
   0   2 -13    8.80    2.80
  -1  -2 -13    3.60    1.90
   1  -2  13   14.50    9.40
   1  -2  13   13.50   10.40
  -1  -2 -13    9.30    3.60
  -1   2 -13   13.40    5.10
  -1   2 -13    6.30    2.70
   1   2  13    5.70    7.00
   2  -2  13   -0.50    6.00
  -2  -2 -13   -0.70    1.70
  -2  -2 -13   -0.60    2.40
   2   2  13   -7.50    6.90
   2   2  13    1.00    5.90
  -2   2 -13   -1.20    1.70
  -2   2 -13    2.70    4.00
  -3  -3  13    3.60    2.00
   3  -3 -13    0.90    1.30
  -3  -3  13    4.70    2.90
  -3  -3  13    2.30    1.80
  -3   3  13    3.40    2.20
  -3   3  13   -2.00    4.50
  -3   3  13    4.50    2.80
  -2  -3  13    1.50    7.20
  -2  -3  13   -1.30    2.40
   2  -3 -13    1.60    1.60
  -2  -3  13    1.70    2.90
  -2  -3  13    5.80    9.50
   2  -3 -13    2.20    3.40
  -2   3  13   -2.30    3.60
   1  -3 -13  121.19   11.50
  -1  -3  13  132.59   21.70
   1  -3 -13  138.89   11.50
  -1  -3  13   84.09   15.60
  -1  -3  13  151.78   12.90
  -1   3  13  110.99   14.10
  -1   3  13   87.29   23.50
  -1   3  13  125.89   20.00
   1   3 -13  102.29   10.60
   0  -3 -13  172.38   18.90
   0  -3  13  160.48   22.20
   0  -3 -13  233.88   17.80
   0  -3  13  202.88   28.70
   0  -3  13  247.98   38.20
   0   3  13  223.98   29.50
   1  -3  13    9.60    8.60
  -1  -3 -13    7.00    3.00
  -1  -3 -13   10.80    3.90
   1  -3  13   18.30   10.30
   1   3  13   14.10    9.20
  -1   3 -13    4.40    3.00
   2  -3  13   -0.60    7.10
  -2  -3 -13    5.60    2.50
  -2  -3 -13    3.40    3.30
   2   3  13   -3.90    6.10
  -2   3 -13    4.00    2.50
   3  -4 -13    1.90    1.20
  -3  -4  13   -2.40    1.60
  -3  -4  13    2.40    3.30
  -3  -4  13   -0.90    1.60
  -3   4  13    2.30    1.80
  -3   4  13    3.00    2.70
  -2  -4  13    1.40    4.50
  -2  -4  13   -3.40    6.80
  -2  -4  13   -1.90    2.60
   2  -4 -13    3.30    2.70
   2  -4 -13    0.50    1.60
  -2  -4  13    1.00    2.70
  -2   4  13    2.60    4.20
  -1  -4  13   -1.90    8.00
  -1  -4  13    8.30    8.00
   1  -4 -13    4.00    2.40
   1  -4 -13    2.20    2.30
  -1   4  13    3.50    6.30
   1   4 -13    1.90    3.10
  -1   4  13   11.20    4.70
   0  -4 -13   80.19    8.60
   0  -4 -13   87.59    9.60
   0  -4  13   98.69   20.70
   0  -4  13   67.59   19.20
   0   4  13   66.59   21.50
   0   4  13   61.19   15.40
   0   4 -13   66.89    8.50
  -1  -4 -13   65.49    7.60
  -1  -4 -13   54.09    9.20
  -1  -4 -13   68.19    8.30
   1  -4  13   39.40    9.90
   1  -4  13   62.69   15.60
   1  -4  13   42.70   14.80
  -1   4 -13   52.49    7.60
   1   4  13   37.00   11.70
   2  -4  13   -3.10    5.70
  -2  -4 -13    5.40    3.90
   2  -4  13   -1.40    4.80
  -2  -4 -13    2.80    2.00
  -2  -4 -13    1.60    2.50
  -2   4 -13    1.60    1.60
  -3  -5  13    7.30    2.90
  -3  -5  13    4.60    2.70
   3  -5 -13    8.20    1.90
  -3   5  13    8.90    2.30
  -3   5  13    6.60    3.40
  -2  -5  13   -0.60    6.60
   2  -5 -13   -0.70    1.40
   2  -5 -13   -1.10    1.90
  -2  -5  13    0.70    4.70
  -2  -5  13   -1.90    2.20
  -2  -5  13   -4.90    3.10
  -2   5  13   -1.00    3.00
  -1  -5  13    0.10    7.40
  -1  -5  13   -4.10    5.20
   1  -5 -13   -1.40    1.10
  -1  -5  13    0.90    2.30
  -1  -5  13    0.00    7.00
  -1   5  13   -4.90    3.70
  -1   5  13    3.00    6.70
   0  -5  13    0.40    6.70
   0  -5  13    4.20    3.20
   0  -5 -13    1.70    1.80
   0  -5 -13    0.40    1.40
   0  -5  13    2.40    7.90
   0   5  13    4.90    7.10
   1  -5  13    6.70    9.90
  -1  -5 -13   -8.60    5.10
   1  -5  13    5.20    7.70
  -1  -5 -13   -1.60    2.00
  -1  -5 -13    1.20    1.70
   1   5  13    1.40    5.90
  -1   5 -13   -2.90    2.10
  -2  -5 -13   -0.10    2.50
  -2  -5 -13   -0.20    1.30
   2  -5  13    0.60    4.60
   2  -5  13    1.20    5.70
   2   5  13   -2.70    5.00
  -2  -6  13   -4.80    4.60
  -2  -6  13    1.30    5.30
  -2  -6  13   -4.10    2.50
   2  -6 -13   -0.30    1.20
  -2  -6  13    1.10    2.50
  -2   6  13   -4.90    2.90
  -1  -6  13    5.10    7.20
  -1  -6  13   -4.30    5.30
   1  -6 -13   -0.80    1.40
   1  -6 -13   -0.80    1.60
  -1   6  13   -5.10    5.60
  -1   6  13   -7.80    3.60
   0  -6 -13  215.18   16.90
   0  -6  13  233.18   18.10
   0  -6 -13  194.38   18.20
   0  -6  13  200.08   29.60
   0  -6  13  206.28   27.70
   0  -6 -13  214.88   17.80
   0   6  13  226.68   27.70
  -1  -6 -13  218.68   17.00
   1  -6  13  212.88   25.20
   1  -6  13  214.48   22.40
  -1  -6 -13  204.88   18.00
   1  -6  13  186.28   27.80
  -1  -6 -13  216.68   17.70
  -1   6 -13  218.88   16.50
   1   6  13  217.18   25.60
  -2  -6 -13   10.70    3.10
  -2  -6 -13   10.60    2.50
   2  -6  13   17.40    5.50
   2  -6  13    7.40    5.20
  -2  -6 -13   14.60    3.70
   2   6  13   11.80    5.60
  -2  -7  13   -2.50    4.50
  -2  -7  13    7.40    5.10
  -2  -7  13    4.20    2.40
   2  -7 -13    2.90    1.70
  -2  -7  13    0.70    2.10
   2  -7 -13    0.00    1.70
  -2   7  13    2.50    3.00
  -1  -7  13   12.20   10.40
   1  -7 -13   -0.90    1.20
  -1  -7  13   -2.70    2.20
  -1  -7  13    7.00    7.40
   1  -7 -13    1.10    1.90
  -1   7  13   -3.70    4.80
  -1   7  13   -4.00    5.60
   0  -7 -13    5.20    5.90
   0  -7 -13    4.90    2.10
   0  -7  13   -8.80    5.00
   0  -7 -13    3.30    2.40
   0  -7  13    4.00    7.10
   0  -7  13   14.40    8.10
   0   7  13   10.30    7.70
  -1  -7 -13    4.00    2.40
   1  -7  13    2.20    6.30
  -1  -7 -13    2.20    2.70
  -1  -7 -13    1.60    4.20
   1  -7  13   -7.30    5.90
  -1  -7 -13    0.10    3.10
   1  -7  13    3.00    6.30
   1   7  13    1.60    5.00
  -2  -7 -13    1.00    2.00
  -2  -7 -13    2.80    3.30
   2  -7  13   -0.20    3.40
   2  -7  13    5.90    6.20
   2   7  13   -5.30    5.30
   2  -8 -13    9.20    1.90
   2  -8 -13   11.20    2.50
  -2  -8  13    6.60    4.10
  -2  -8  13    6.20    2.60
  -2   8  13   13.70    3.80
  -1  -8  13    8.60    7.10
   1  -8 -13    7.90    2.40
  -1  -8  13    8.10    3.20
  -1  -8  13    9.00    6.20
   1  -8 -13    6.10    2.50
  -1   8  13    1.30    4.40
  -1   8  13   10.30    6.50
   0  -8  13   46.30   12.00
   0  -8 -13   60.99    8.30
   0  -8 -13   74.79    8.00
   0  -8  13   36.10   11.70
   0  -8 -13   74.29    7.50
   0   8  13   43.40   11.10
  -1  -8 -13   17.10    3.70
  -1  -8 -13   26.00    4.60
  -1  -8 -13   21.00    3.40
   1  -8  13   26.00    7.30
   1  -8  13   15.00    7.60
   1  -8  13   22.90    7.70
  -1  -8 -13   30.20    7.30
   1   8  13   18.30    6.70
   2  -9 -13   -0.70    1.70
  -2  -9  13   -2.90    3.00
   2  -9 -13    1.20    1.30
  -2  -9  13   -1.80    1.70
  -2   9  13    0.40    2.60
   1  -9 -13   -1.50    1.50
  -1  -9  13   -0.20    4.10
  -1  -9  13   -3.20    1.80
  -1  -9  13   -7.70    4.70
   1  -9 -13   -0.40    1.40
  -1   9  13   -3.50    4.70
   0  -9  13   -4.30    4.10
   0  -9 -13    4.30    2.10
   0  -9 -13    6.20    3.10
   0  -9  13    3.90    6.20
   0   9 -13   -0.30    1.70
   0   9  13    3.60    5.60
  -1  -9 -13    0.40    1.50
   1  -9  13   -3.90    3.90
   1  -9  13   -8.50    6.70
   1  -9  13   -4.30    4.90
  -1  -9 -13    1.70    2.90
   1   9  13    2.80    4.40
   1 -10 -13   12.20    2.90
   1 -10 -13   12.60    2.50
  -1 -10  13    8.90    5.20
  -1  10  13   15.70    6.20
   0 -10 -13    6.40    2.50
   0 -10  13   -1.40    3.40
   0 -10  13   -5.70    2.90
   0 -10 -13    0.20    1.30
   0  10 -13    1.90    2.00
   0  10  13    2.70    4.40
   1 -10  13    0.90    4.10
  -1 -10 -13    1.80    2.70
  -1 -10 -13    2.90    1.80
  -1 -10 -13   -1.60    1.90
   1  10  13    0.60    2.80
   1 -11 -13    5.30    2.70
  -1 -11  13   -1.40    3.30
   1  11 -13    3.40    1.40
   0 -11  13   -1.40    2.90
   0 -11  13    1.90    3.80
   0 -11 -13    3.90    2.30
   0 -11 -13    0.60    1.40
   0  11  13   -2.40    3.60
   0  11 -13   -1.30    1.30
  -3   0  14   16.10    3.60
  -3   0  14    8.40    2.60
  -2   0  14    4.40    2.40
  -2   0  14  -12.80    6.10
   2   0 -14    0.60    1.90
   1   0 -14    2.90    2.20
  -1   0  14   -1.10    5.90
  -1   0  14    0.00    3.40
   0   0 -14  748.93   46.70
   0   0 -14  690.33   45.80
   0   0  14  684.53   59.59
   0   0  14  589.64   60.09
  -1   0 -14  241.28   18.40
  -1   0 -14  210.18   19.10
   1   0  14  205.18   29.50
   1   0  14  207.88   26.40
  -2   0 -14  105.89    9.40
  -2   0 -14   87.89   10.40
  -3  -1  14    0.70    2.00
  -3  -1  14    0.50    2.60
  -3   1  14   -0.40    2.20
  -2  -1  14   50.59    7.00
  -2  -1  14   29.60    9.20
   2  -1 -14   46.20    5.50
  -2   1  14   45.30    6.90
  -2   1  14   31.20    7.00
   2   1 -14   36.20    5.50
  -1  -1  14    8.70    9.40
   1  -1 -14   16.20    3.30
  -1  -1  14    9.70    4.80
  -1  -1  14    9.10   14.30
   1   1 -14   18.10    3.50
  -1   1  14   16.20    8.10
  -1   1  14   15.50    4.10
   0  -1 -14   -1.90    1.50
   0  -1  14    2.70    6.30
   0  -1  14   -0.30    6.90
   0  -1 -14    1.70    2.60
   0   1  14    3.00    7.70
   0   1  14    1.40    5.40
   0   1 -14   -0.90    1.80
  -1  -1 -14  231.58   17.80
   1  -1  14  199.68   29.80
  -1  -1 -14  227.68   17.80
  -1  -1 -14  216.38   19.70
   1  -1  14  225.38   26.50
   1   1  14  194.38   25.40
  -1   1 -14  239.28   18.00
   1   1  14  156.68   27.30
  -1   1 -14  191.68   18.70
   2  -1  14   57.09   13.50
  -2  -1 -14   97.39    8.80
  -2  -1 -14   86.99    9.00
   2   1  14   74.99   16.90
  -2   1 -14  106.69    8.80
  -2   1 -14   67.59   11.70
  -3  -2  14   11.40    2.60
  -3  -2  14   13.50    2.60
  -3   2  14   15.50    3.70
  -2  -2  14    9.90    7.60
  -2  -2  14   -8.10    3.80
   2  -2 -14    0.40    1.50
  -2  -2  14    0.40    2.70
   2   2 -14    0.50    2.50
  -2   2  14   29.00   10.20
  -2   2  14    1.90    3.60
  -2   2  14   -0.10    2.20
  -1  -2  14   -4.70    9.80
   1  -2 -14   16.30    3.80
  -1  -2  14   -1.00    4.70
  -1  -2  14   15.90    9.80
  -1   2  14   15.30    3.90
   1   2 -14    3.80    2.50
  -1   2  14    7.80    5.80
  -1   2  14    7.70    6.90
   0  -2 -14   32.40    6.30
   0  -2  14   39.90   12.70
   0  -2  14   31.00   13.50
   0  -2 -14   51.59    6.50
   0   2  14   31.10   11.10
   0   2  14   37.00   12.00
   0   2 -14   43.20    6.50
  -1  -2 -14    7.80    2.70
   1  -2  14    3.80    8.40
   1  -2  14    3.40    6.20
  -1  -2 -14    8.70    3.40
  -1  -2 -14    9.50    5.10
  -1   2 -14   11.10    3.60
   1   2  14   13.00    7.20
  -2  -2 -14    1.50    2.20
   2  -2  14    0.70    5.10
  -2  -2 -14    1.40    1.60
  -2   2 -14    0.60    1.30
   2   2  14   -3.30    4.60
  -2  -3  14    4.40    2.90
  -2  -3  14    7.40    6.10
  -2  -3  14    9.00    3.30
   2  -3 -14    4.90    1.80
  -2   3  14    6.10    3.80
  -2   3  14    4.30    4.80
   1  -3 -14   23.10    4.30
  -1  -3  14   19.10    9.10
  -1   3  14   17.40    8.70
   1   3 -14   23.80    4.40
  -1   3  14   18.80    6.20
   0  -3 -14    2.20    2.20
   0  -3  14    3.30    8.00
   0  -3  14   -1.90    6.40
   0  -3 -14    1.80    1.80
   0   3 -14    0.70    2.10
   0   3  14   -1.20    7.10
   1  -3  14    7.60    9.10
  -1  -3 -14    2.20    2.00
  -1  -3 -14    0.80    2.00
   1  -3  14   -4.70    5.30
  -1  -3 -14   -2.20    2.70
   1  -3  14   -0.80    6.70
  -1   3 -14    2.00    2.20
   1   3  14   -0.40    5.80
   2  -3  14   -1.90    4.10
   2  -3  14    0.20    4.00
  -2  -3 -14    0.80    1.40
  -2  -3 -14    1.10    2.20
  -2   3 -14    0.50    1.40
   2   3  14   -0.40    3.70
   2   3  14  -27.30   12.10
  -2  -4  14    9.70    6.10
   2  -4 -14    2.20    2.60
  -2  -4  14   -2.70    2.70
  -2  -4  14   10.00    4.40
  -2   4  14    5.40    3.60
  -2   4  14    4.10    2.60
   1  -4 -14   34.50    5.20
   1  -4 -14   22.40    4.50
  -1  -4  14   32.50   11.20
  -1  -4  14   21.60    5.10
  -1   4  14   30.20   10.60
  -1   4  14   41.70   10.30
   0  -4  14    8.80    7.10
   0  -4 -14   11.60    3.20
   0  -4  14    5.10    5.80
   0  -4  14   11.50    4.60
   0  -4 -14    6.40    2.60
   0   4  14    9.70    7.70
   0   4 -14   10.40    3.10
   1  -4  14   -9.20    8.30
   1  -4  14    4.60    6.90
  -1  -4 -14    3.80    4.30
  -1  -4 -14    4.90    2.50
   1  -4  14   11.60    8.60
  -1  -4 -14    6.20    2.60
   1   4  14   11.90    6.10
  -2  -4 -14   15.40    4.20
  -2  -4 -14   11.00    2.50
   2  -4  14   11.90    6.30
   2   4  14    3.00    5.70
  -2  -5  14   13.80    5.90
   2  -5 -14   21.00    3.70
  -2  -5  14   15.30    3.60
  -2  -5  14   17.40    4.30
   2  -5 -14   11.50    3.30
  -2   5  14   13.10    3.20
  -2   5  14   21.20    4.70
   1  -5 -14   41.70    6.20
  -1  -5  14   30.20   10.90
  -1   5  14   19.80    7.70
  -1   5  14   27.80    7.20
   0  -5  14   -3.40    4.70
   0  -5  14    1.00    6.80
   0  -5  14   -7.70    4.30
   0  -5 -14    1.90    2.30
   0  -5 -14    0.00    1.30
   0   5 -14   10.10    5.50
   0   5  14    3.00    5.20
   1  -5  14   76.59   14.50
   1  -5  14   71.59   18.30
  -1  -5 -14   73.29   10.00
  -1  -5 -14   77.59    8.40
  -1  -5 -14   79.49    8.40
   1   5  14   54.19   12.70
  -1   5 -14   77.09    8.20
   2  -5  14   34.00    8.90
   2  -5  14   58.49    9.40
  -2  -5 -14   39.40    4.40
  -2  -5 -14   29.80    4.70
   2   5  14   15.30    6.90
  -2  -6  14   -3.90    2.60
   2  -6 -14   -0.90    2.10
  -2  -6  14    4.00    4.30
  -2  -6  14    3.30    2.10
   2  -6 -14    4.30    1.60
  -2   6  14   -0.90    3.10
   1  -6 -14    4.70    1.90
  -1  -6  14   -2.20    6.20
  -1  -6  14    5.90    5.50
   1  -6 -14    4.70    3.30
  -1  -6  14    4.30    3.60
  -1   6  14    4.60    7.90
  -1   6  14   -2.00    7.70
   0  -6 -14   -1.10    1.30
   0  -6 -14   -0.90    1.30
   0  -6  14    8.20    4.10
   0  -6  14    3.10    6.20
   0  -6  14    1.10    6.90
   0   6  14    4.20    6.80
  -1  -6 -14    4.40    2.00
  -1  -6 -14    4.50    4.50
   1  -6  14    4.10    6.30
   1  -6  14   -5.50    5.50
  -1  -6 -14    2.60    2.00
   1  -6  14   -2.50    5.60
   1   6  14    2.10    5.20
  -2  -7  14   -1.50    3.10
  -2  -7  14    2.80    2.10
   2  -7 -14    1.60    2.00
   2  -7 -14    1.40    1.10
  -2   7  14    1.60    2.50
   1  -7 -14   -1.60    1.60
   1  -7 -14    0.50    1.70
  -1  -7  14   -2.40    1.80
  -1  -7  14    2.70    6.30
  -1   7  14   -2.10    4.30
   0  -7 -14    4.00    2.60
   0  -7  14    6.80    6.50
   0  -7 -14    2.80    1.70
   0   7 -14    8.40    2.90
   0   7  14    2.60    5.20
  -1  -7 -14   15.90    3.60
  -1  -7 -14   14.80    3.20
  -1  -7 -14   18.90    5.40
   1  -7  14   11.30    6.70
   1  -7  14   11.80    6.80
   1   7  14   18.50    6.10
  -2  -8  14    3.60    1.50
   2  -8 -14   -4.30    2.00
  -2  -8  14   -6.10    3.30
   1  -8 -14   16.50    2.90
  -1  -8  14    3.40    6.20
  -1  -8  14   16.30    3.00
   1  -8 -14   10.20    2.90
  -1  -8  14   11.20    5.60
  -1   8  14   13.50    5.70
   0  -8  14   -4.70    4.00
   0  -8 -14    2.70    1.60
   0  -8 -14   -0.80    1.10
   0  -8  14    2.90    5.40
   0   8  14    4.70    4.80
   0   8 -14    0.20    2.00
  -1  -8 -14   15.80    4.20
  -1  -8 -14   10.70    2.40
   1  -8  14    4.00    4.60
  -1  -8 -14    8.90    2.30
   1   8  14    7.80    4.40
  -1  -9  14   12.40    5.30
   1  -9 -14   12.30    2.60
   1  -9 -14   19.60    4.60
  -1   9  14   10.40    7.10
   0  -9  14    0.00    3.40
   0  -9  14    5.20    4.40
   0  -9 -14    1.60    1.50
   0  -9 -14    3.10    1.60
   0   9 -14    2.70    1.80
   0   9  14   -0.90    3.60
  -1  -9 -14   18.20    3.80
  -1  -9 -14   23.80    4.20
   1  -9  14   11.20    4.90
   1   9  14   14.00    4.40
   0 -10 -14   19.80    3.60
   0 -10  14   16.00    4.80
   0 -10  14   15.90    5.30
   0 -10 -14   20.20    3.60
   0  10  14    8.40    4.40
   0  10 -14   16.00    2.90
  -2   0  15    0.90    2.10
  -2   0  15   -9.70    7.10
   2   0 -15   -1.40    1.40
   1   0 -15    0.20    1.70
  -1   0  15   -4.80    5.50
   0   0  15    8.20    8.30
   0   0  15   10.50    6.90
   1   0  15   -3.30    5.50
   1   0  15    1.00    6.60
  -1   0 -15    1.70    3.20
  -1   0 -15    0.70    1.70
   2   0  15    0.10    3.50
  -2   0 -15    1.30    1.50
   2   0  15   -1.40    3.40
  -2  -1  15  -12.90    6.00
   2  -1 -15    1.40    1.50
  -2  -1  15   -1.00    2.20
  -2  -1  15    0.30    2.20
  -2   1  15    0.70    1.70
  -2   1  15  -25.20   13.60
  -1  -1  15   -2.60    5.50
   1  -1 -15   -0.30    1.70
  -1   1  15    3.60    6.40
   1   1 -15    3.30    1.90
   0  -1 -15    1.70    1.50
   0  -1  15   -0.50    6.00
   0  -1  15   -4.90    6.10
   0  -1 -15    1.80    2.90
   0   1  15   -0.40    4.90
   0   1 -15    2.00    1.80
   0   1 -15   17.30    7.00
   0   1  15   -2.10    5.80
   1  -1  15  124.09   17.20
  -1  -1 -15  126.59   10.70
  -1  -1 -15   91.39   10.40
   1   1  15   75.29   15.90
  -2  -1 -15    3.80    1.60
   2  -1  15    2.60    4.20
   2   1  15    0.90    4.90
  -2   1 -15    7.00    2.60
  -2  -2  15   10.10    3.50
  -2  -2  15    3.10    5.80
   2  -2 -15    4.90    1.90
  -2  -2  15    3.30    2.10
  -2   2  15    6.00    2.50
   1  -2 -15   49.80    6.10
  -1  -2  15   30.60   10.00
   1   2 -15   51.89    6.40
  -1   2  15   44.90   11.90
   0  -2  15   38.20   11.60
   0  -2 -15   48.70    6.30
   0  -2  15   25.50   10.20
   0   2 -15   51.59    6.60
   0   2  15   23.70    9.70
   0   2  15   40.70   12.00
  -1  -2 -15  102.89   10.90
  -1  -2 -15  119.59    9.90
   1  -2  15   71.29   19.80
   1  -2  15   87.09   16.40
  -1  -2 -15  126.99   12.40
   1  -2  15   80.59   13.70
   1   2  15   65.49   16.80
   1   2  15   88.09   15.10
  -1   2 -15  131.99   10.50
  -2  -2 -15   -2.00    2.20
   2  -2  15    1.70    3.50
   2  -2  15    1.30    4.20
  -2  -2 -15    3.00    2.10
  -2   2 -15    3.40    1.50
   2   2  15    5.00    4.20
  -2  -3  15   -0.80    1.80
  -2  -3  15   -9.50    4.40
   2  -3 -15    2.50    1.50
  -2   3  15   -1.30    1.80
   1  -3 -15   14.10    3.90
  -1  -3  15   11.90    6.70
   1  -3 -15   13.90    2.90
  -1   3  15   13.90    3.80
   1   3 -15   12.30    3.80
  -1   3  15   16.80    8.10
   0  -3  15    1.80    5.50
   0  -3 -15    8.20    2.50
   0  -3  15   13.40    8.40
   0  -3 -15    4.00    3.20
   0   3  15    6.60    8.10
   0   3 -15   10.70    3.50
   0   3  15    4.80    5.80
   1  -3  15   10.90    7.00
   1  -3  15   17.00    7.40
  -1  -3 -15   16.50    3.50
  -1  -3 -15   17.60    3.60
   1  -3  15   17.90    8.10
  -1  -3 -15   20.10    5.40
   1   3  15   10.10    6.00
   1   3  15   13.70    7.00
  -1   3 -15   18.70    3.70
   2  -4 -15   15.30    2.70
  -2  -4  15   14.10    3.30
  -2  -4  15    5.00    4.50
  -2   4  15   12.20    2.90
  -1  -4  15   -0.90    2.80
   1  -4 -15    0.20    1.40
  -1  -4  15   -2.60    3.90
   1  -4 -15   -1.50    2.00
  -1   4  15   -1.00    4.60
   0  -4 -15    2.20    1.30
   0  -4  15   -0.70    6.50
   0  -4 -15   -1.00    2.20
   0  -4  15    9.90    3.40
   0  -4  15    4.10    6.00
   0   4  15   -0.40    6.10
   0   4  15    0.90    4.90
   0   4 -15    5.10    2.50
  -1  -4 -15   63.49    6.40
   1  -4  15   28.00    8.70
  -1  -4 -15   37.70    6.80
   1  -4  15   37.50   12.40
  -1  -4 -15   52.79    6.10
  -1   4 -15   46.30    5.90
   1   4  15   54.69   11.00
   2  -5 -15   60.49    5.70
  -2  -5  15   48.40    6.20
  -2   5  15   47.10    6.30
   1  -5 -15    3.00    1.60
   1  -5 -15   -0.40    1.80
  -1  -5  15   -1.60    2.10
  -1  -5  15   -0.50    3.70
  -1   5  15   -2.50    2.70
  -1   5  15   -2.60    3.80
   0  -5 -15    0.10    1.30
   0  -5  15   -1.10    5.20
   0  -5  15    4.20    6.00
   0  -5 -15    1.20    1.70
   0   5  15   -3.20    5.70
   0   5  15   -6.90    4.90
  -1  -5 -15    1.50    2.90
  -1  -5 -15    4.80    1.70
   1  -5  15   -0.90    4.20
   1  -5  15    3.60    6.40
  -1  -5 -15    4.40    2.00
   1   5  15   -6.20    2.80
   1   5  15    2.80    5.20
  -2  -6  15    0.60    4.80
  -2  -6  15   14.50    3.00
  -2   6  15    8.50    2.30
  -1  -6  15    2.90    2.10
   1  -6 -15    1.30    1.60
  -1  -6  15    3.00    5.20
  -1   6  15   -4.20    4.20
  -1   6  15   -2.90    2.30
   0  -6 -15   -0.20    1.40
   0  -6 -15    1.00    1.70
   0  -6  15    2.40    4.80
   0  -6  15   -6.10    3.90
   0   6  15   -7.40    3.50
   0   6  15   -3.70    7.10
  -1  -6 -15   36.00    4.60
  -1  -6 -15   43.20    4.80
   1  -6  15   32.30    9.20
  -1  -6 -15   35.50    5.70
   1   6  15   22.00    6.20
   1  -7 -15    4.30    1.80
  -1  -7  15    1.10    3.00
  -1  -7  15   -3.40    1.70
   1  -7 -15    1.40    1.70
  -1   7  15    4.60    4.40
   0  -7  15   -0.40    4.10
   0  -7 -15    1.90    1.30
   0  -7 -15   -0.90    1.40
   0  -7  15   -1.90    4.00
   0   7  15    1.40    4.20
  -1  -7 -15   43.50    5.60
  -1  -7 -15   42.50    5.10
  -1  -7 -15   41.80    4.80
   1   7  15   34.40    8.10
   1  -8 -15   14.50    2.40
  -1  -8  15   14.50    4.60
   0  -8  15    8.00    3.70
   0  -8 -15    5.40    1.80
   0  -8  15    6.10    4.40
   0   8  15    6.00    4.20
  -2   0  16   38.40    5.10
   1   0 -16   -0.70    1.70
  -1   0  16    0.40    4.10
   0   0  16    2.20    6.10
   0   0 -16    8.80    2.40
   0   0  16    6.30    6.50
  -1   0 -16  161.08   11.50
   1   0  16  114.39   17.30
   1   0  16  123.99   15.60
   2  -1 -16    9.50    2.30
  -2  -1  16   10.10    2.90
  -2   1  16    9.80    2.50
  -1  -1  16   10.00    6.60
   1  -1 -16    8.10    2.40
  -1   1  16    5.50    5.40
   1   1 -16   11.80    2.50
   0  -1  16    8.40    6.80
   0  -1  16   10.60    5.90
   0  -1 -16   19.10    4.20
   0  -1 -16    9.80    2.70
   0   1  16   12.40    5.60
   0   1 -16    4.60    2.20
   0   1  16    4.40    6.20
   1  -1  16   22.90    6.60
   1  -1  16   15.50    6.80
  -1  -1 -16   25.60    5.30
   1   1  16   32.80    7.20
   1   1  16   22.00    7.00
  -2  -2  16    8.00    2.20
   2  -2 -16    8.90    2.00
  -2   2  16    7.10    3.10
   1  -2 -16    0.10    1.50
  -1  -2  16    3.90    2.50
  -1  -2  16    2.40    4.60
   1   2 -16   -0.10    2.20
  -1   2  16   -1.70    4.00
   0  -2  16    1.50    4.50
   0  -2 -16    2.40    1.40
   0  -2  16   -0.60    2.70
   0  -2 -16    4.20    3.20
   0  -2  16    4.20    5.10
   0   2 -16   -0.90    1.70
   0   2  16    4.60    4.50
   0   2  16   -4.80    5.00
   1  -2  16    9.40    4.70
  -1  -2 -16    8.30    3.00
   1  -2  16    9.80    6.30
  -1  -2 -16   12.00    2.60
  -1   2 -16   12.10    3.40
   1   2  16    0.60    4.40
   1   2  16    7.00    5.50
   2  -3 -16   -0.60    1.10
  -2  -3  16    0.60    1.90
  -2   3  16   -2.00    1.40
  -1  -3  16    1.40    5.10
  -1   3  16   -0.70    4.60
   0  -3  16    1.10    3.80
   0  -3  16   -0.10    5.10
   0  -3  16   13.10    2.90
   0  -3 -16    4.30    1.70
   0   3 -16    3.90    3.80
   0   3  16   -3.60    6.80
   0   3  16    6.40    4.40
   1  -3  16   -0.40    3.80
  -1  -3 -16    0.70    2.20
   1  -3  16   -6.80    3.80
  -1  -3 -16    0.80    1.20
   1   3  16   -4.80    2.70
   1   3  16   -1.20    3.50
   1  -4 -16    1.40    1.50
  -1  -4  16    0.50    1.90
  -1  -4  16    5.20    4.60
  -1   4  16   -0.90    3.90
   0  -4  16   27.20    6.90
   0  -4  16   27.90    8.00
   0   4  16   31.20    7.80
   0   4  16   24.40    8.00
   1  -4  16   10.90    6.30
  -1  -4 -16    9.00    2.10
  -1  -4 -16    8.70    2.70
   1   4  16    6.60    4.10
   1   4  16    2.50    4.90
   1  -5 -16   24.80    3.60
  -1  -5  16   24.80    4.10
  -1  -5  16   18.50    6.30
  -1   5  16   20.20    5.80
   0  -5 -16    0.10    1.00
   0  -5 -16   -0.60    1.70
   0  -5  16   -3.80    3.50
   0  -5  16   -4.70    3.60
   0   5  16    6.10    3.40
  -1  -6  16   -3.60    2.70
  -1  -6  16   -0.50    3.30
  -1   6  16   -8.40    4.60
   0  -6 -16    4.40    1.70
   0  -6  16   -1.30    3.40
   0  -6  16    2.10    3.90
   0  -6 -16    3.30    1.60
   0   6  16    0.10    2.70
   1   0 -17    2.00    1.60
   0   0  17    0.10    3.80
   0   0 -17   -3.20    2.40
   0   0  17    7.00   10.80
  -1  -1  17    4.20    2.10
  -1  -1  17    3.00    3.90
  -1   1  17    5.70    4.50
   0  -1 -17    5.40    1.70
   0  -1  17   -4.00    6.80
   0  -1  17    1.60    3.80
   0   1  17    4.80    4.60
   0   1 -17    5.20    1.80
  -1  -2  17    2.00    4.00
  -1  -2  17    1.20    1.80
   1  -2 -17    0.50    1.20
  -1   2  17   -1.30    4.00
   0  -2  17    5.40    5.00
   0  -2 -17    2.30    1.40
   0  -2  17   -8.90    6.10
   0   2  17    1.50    3.10
   1  -3 -17   25.10    3.40
  -1  -3  17   14.50    5.10
  -1  -3  17   28.40    4.10
   0  -3  17    8.40    5.20
   0  -3 -17   14.10    3.10
   0  -3 -17    9.90    3.40
   0   3  17   11.00    4.60
   0   0   0    0.00    0.00

_computing_structure_solution     'SHELXT 2014/5 (Sheldrick, 2014)'
;
_shelx_hkl_checksum              51653
loop_
_space_group_symop_operation_xyz
'x, y, z'
'-x, y+1/2, -z+1/2'
'-x, -y, -z'
'x, -y-1/2, z-1/2'
loop_
_atom_site_label
_atom_site_type_symbol
_atom_site_fract_x
_atom_site_fract_y
_atom_site_fract_z
_atom_site_U_iso_or_equiv
_atom_site_adp_type
_atom_site_occupancy
_atom_site_site_symmetry_order
_atom_site_calc_flag
_atom_site_refinement_flags_posn
_atom_site_refinement_flags_adp
_atom_site_refinement_flags_occupancy
_atom_site_disorder_assembly
_atom_site_disorder_group
C1 C 0.5129(5) 0.54536(15) 0.48149(15) 0.0309(5) Uani 1 1 d . . . . .
C2 C 0.3991(6) 0.63701(15) 0.53124(16) 0.0350(5) Uani 1 1 d . . . . .
C3 C 0.4864(6) 0.72078(15) 0.47286(16) 0.0347(5) Uani 1 1 d . . . . .
C4 C 0.4463(6) 0.81813(16) 0.48465(17) 0.0409(6) Uani 1 1 d . . . . .
H4 H 0.356089 0.843577 0.540201 0.049 Uiso 1 1 calc R U . . .
C5 C 0.5433(6) 0.87946(17) 0.41173(18) 0.0440(6) Uani 1 1 d . . . . .
H5 H 0.518461 0.947395 0.418898 0.053 Uiso 1 1 calc R U . . .
C6 C 0.6728(6) 0.84430(17) 0.33036(17) 0.0418(6) Uani 1 1 d . . . . .
H6 H 0.733869 0.888072 0.282583 0.050 Uiso 1 1 calc R U . . .
C7 C 0.7160(6) 0.74390(16) 0.31716(16) 0.0348(5) Uani 1 1 d . . . . .
C8 C 0.6210(5) 0.68336(15) 0.39046(15) 0.0306(5) Uani 1 1 d . . . . .
C9 C 0.8429(6) 0.69760(17) 0.23711(16) 0.0384(5) Uani 1 1 d . . . . .
H9 H 0.911314 0.734611 0.185067 0.046 Uiso 1 1 calc R U . . .
C10 C 0.7706(6) 0.53936(16) 0.31159(15) 0.0357(5) Uani 1 1 d . . . . .
H10 H 0.794537 0.471111 0.307533 0.043 Uiso 1 1 calc R U . . .
C11 C 0.8652(6) 0.59902(17) 0.23601(16) 0.0389(6) Uani 1 1 d . . . . .
H11 H 0.948526 0.568752 0.181809 0.047 Uiso 1 1 calc R U . . .
C12 C 0.6439(5) 0.58049(15) 0.39086(14) 0.0296(5) Uani 1 1 d . . . . .
O1 O 0.2503(5) 0.64329(12) 0.60410(12) 0.0525(5) Uani 1 1 d . . . . .
loop_
_atom_site_aniso_label
_atom_site_aniso_U_11
_atom_site_aniso_U_22
_atom_site_aniso_U_33
_atom_site_aniso_U_23
_atom_site_aniso_U_13
_atom_site_aniso_U_12
C1 0.0265(10) 0.0331(11) 0.0338(11) 0.0011(8) 0.0055(8) -0.0003(8)
C2 0.0337(11) 0.0354(12) 0.0363(11) -0.0001(9) 0.0056(9) 0.0026(9)
C3 0.0304(11) 0.0329(11) 0.0406(12) 0.0003(9) 0.0016(9) 0.0017(9)
C4 0.0420(13) 0.0352(12) 0.0455(13) -0.0028(10) 0.0028(10) 0.0026(10)
C5 0.0443(14) 0.0319(11) 0.0555(15) 0.0039(10) 0.0016(11) 0.0002(10)
C6 0.0401(13) 0.0365(12) 0.0486(14) 0.0083(10) 0.0021(10) -0.0042(10)
C7 0.0283(11) 0.0352(11) 0.0407(12) 0.0066(9) -0.0001(9) -0.0041(8)
C8 0.0255(10) 0.0320(11) 0.0340(11) 0.0030(8) 0.0012(8) -0.0004(8)
C9 0.0338(11) 0.0449(13) 0.0372(12) 0.0080(10) 0.0070(9) -0.0042(10)
C10 0.0350(12) 0.0353(11) 0.0377(12) 0.0014(9) 0.0078(9) -0.0018(9)
C11 0.0367(12) 0.0440(13) 0.0370(12) 0.0012(10) 0.0092(9) -0.0017(10)
C12 0.0249(10) 0.0324(10) 0.0315(11) 0.0008(8) 0.0031(8) -0.0007(8)
O1 0.0755(13) 0.0375(9) 0.0481(10) 0.0007(8) 0.0278(9) 0.0079(9)
loop_
_atom_type_symbol
_atom_type_description
_atom_type_scat_dispersion_real
_atom_type_scat_dispersion_imag
_atom_type_scat_source
C C 0.0181 0.0091 'International Tables Vol C Tables 4.2.6.8 and 6.1.1.4'
H H 0.0000 0.0000 'International Tables Vol C Tables 4.2.6.8 and 6.1.1.4'
O O 0.0492 0.0322 'International Tables Vol C Tables 4.2.6.8 and 6.1.1.4'
loop_
_geom_angle_atom_site_label_1
_geom_angle_atom_site_label_2
_geom_angle_atom_site_label_3
_geom_angle
_geom_angle_site_symmetry_1
_geom_angle_site_symmetry_3
_geom_angle_publ_flag
C1 C1 C12 131.8(2) 3_666 . ?
C1 C1 C2 123.6(2) 3_666 . ?
C12 C1 C2 104.59(17) . . ?
O1 C2 C3 123.9(2) . . ?
O1 C2 C1 128.1(2) . . ?
C3 C2 C1 107.95(18) . . ?
C4 C3 C8 120.9(2) . . ?
C4 C3 C2 132.3(2) . . ?
C8 C3 C2 106.75(18) . . ?
C3 C4 C5 117.8(2) . . ?
C3 C4 H4 121.1 . . ?
C5 C4 H4 121.1 . . ?
C6 C5 C4 122.2(2) . . ?
C6 C5 H5 118.9 . . ?
C4 C5 H5 118.9 . . ?
C5 C6 C7 120.7(2) . . ?
C5 C6 H6 119.6 . . ?
C7 C6 H6 119.6 . . ?
C8 C7 C6 116.7(2) . . ?
C8 C7 C9 116.5(2) . . ?
C6 C7 C9 126.8(2) . . ?
C7 C8 C3 121.7(2) . . ?
C7 C8 C12 125.4(2) . . ?
C3 C8 C12 112.91(18) . . ?
C11 C9 C7 119.0(2) . . ?
C11 C9 H9 120.5 . . ?
C7 C9 H9 120.5 . . ?
C12 C10 C11 120.0(2) . . ?
C12 C10 H10 120.0 . . ?
C11 C10 H10 120.0 . . ?
C9 C11 C10 123.5(2) . . ?
C9 C11 H11 118.3 . . ?
C10 C11 H11 118.3 . . ?
C10 C12 C8 115.70(19) . . ?
C10 C12 C1 136.6(2) . . ?
C8 C12 C1 107.67(17) . . ?
loop_
_geom_bond_atom_site_label_1
_geom_bond_atom_site_label_2
_geom_bond_distance
_geom_bond_site_symmetry_2
_geom_bond_publ_flag
C1 C1 1.366(4) 3_666 ?
C1 C12 1.494(3) . ?
C1 C2 1.528(3) . ?
C2 O1 1.218(3) . ?
C2 C3 1.476(3) . ?
C3 C4 1.366(3) . ?
C3 C8 1.409(3) . ?
C4 C5 1.407(3) . ?
C4 H4 0.9500 . ?
C5 C6 1.377(3) . ?
C5 H5 0.9500 . ?
C6 C7 1.412(3) . ?
C6 H6 0.9500 . ?
C7 C8 1.403(3) . ?
C7 C9 1.419(3) . ?
C8 C12 1.425(3) . ?
C9 C11 1.366(3) . ?
C9 H9 0.9500 . ?
C10 C12 1.378(3) . ?
C10 C11 1.420(3) . ?
C10 H10 0.9500 . ?
C11 H11 0.9500 . ?
