#------------------------------------------------------------------------------
#$Date: 2022-02-12 01:35:53 +0200 (Sat, 12 Feb 2022) $
#$Revision: 272937 $
#$URL: file:///home/coder/svn-repositories/cod/cif/7/24/43/7244394.cif $
#------------------------------------------------------------------------------
#
# This file is available in the Crystallography Open Database (COD),
# http://www.crystallography.net/
#
# All data on this site have been placed in the public domain by the
# contributors.
#
data_7244394
loop_
_publ_author_name
'Li, Zhongyi'
'Zhang, Ran'
'Zhu, Peng-Yu'
'Zhang, Chi'
'Wu, Dongqing'
'Zhai, Bin'
_publ_section_title
;
 Structures and magnetic properties of two heterometallic Cu(II)-Cd(II)
 polymers exhibiting antiferromagnetic ordering
;
_journal_name_full               CrystEngComm
_journal_paper_doi               10.1039/D2CE00034B
_journal_year                    2022
_chemical_formula_sum            'C8 H28 Cd Cu O18'
_chemical_formula_weight         588.24
_space_group_crystal_system      triclinic
_space_group_IT_number           2
_space_group_name_Hall           '-P 1'
_space_group_name_H-M_alt        'P -1'
_atom_sites_solution_hydrogens   mixed
_audit_creation_method           SHELXL-2018/3
_audit_update_record
;
2022-01-08 deposited with the CCDC.	2022-02-11 downloaded from the CCDC.
;
_cell_angle_alpha                68.729(5)
_cell_angle_beta                 68.636(5)
_cell_angle_gamma                70.010(5)
_cell_formula_units_Z            1
_cell_length_a                   7.2811(8)
_cell_length_b                   8.3400(9)
_cell_length_c                   9.8580(11)
_cell_measurement_reflns_used    8921
_cell_measurement_temperature    297(2)
_cell_measurement_theta_max      27.54
_cell_measurement_theta_min      2.31
_cell_volume                     504.11(10)
_computing_cell_refinement       'Bruker SAINT'
_computing_data_collection       'Bruker APEX2'
_computing_data_reduction        'Bruker SAINT'
_computing_molecular_graphics    'Bruker SHELXTL'
_computing_publication_material  'Bruker SHELXTL'
_computing_structure_refinement  'SHELXL-2018/3 (Sheldrick, 2018)'
_computing_structure_solution    'SHELXT 2014/4 (Sheldrick, 2014)'
_diffrn_ambient_temperature      297(2)
_diffrn_measured_fraction_theta_full 0.997
_diffrn_measured_fraction_theta_max 0.991
_diffrn_measurement_device_type  'Bruker APEX-II CCD'
_diffrn_measurement_method       '\f and \w scans'
_diffrn_radiation_type           MoK\a
_diffrn_radiation_wavelength     0.71073
_diffrn_reflns_av_R_equivalents  0.0375
_diffrn_reflns_av_unetI/netI     0.0298
_diffrn_reflns_Laue_measured_fraction_full 0.997
_diffrn_reflns_Laue_measured_fraction_max 0.991
_diffrn_reflns_limit_h_max       9
_diffrn_reflns_limit_h_min       -9
_diffrn_reflns_limit_k_max       10
_diffrn_reflns_limit_k_min       -10
_diffrn_reflns_limit_l_max       12
_diffrn_reflns_limit_l_min       -12
_diffrn_reflns_number            13047
_diffrn_reflns_point_group_measured_fraction_full 0.997
_diffrn_reflns_point_group_measured_fraction_max 0.991
_diffrn_reflns_theta_full        25.242
_diffrn_reflns_theta_max         27.535
_diffrn_reflns_theta_min         2.305
_exptl_absorpt_coefficient_mu    2.193
_exptl_absorpt_correction_T_max  0.7456
_exptl_absorpt_correction_T_min  0.6079
_exptl_absorpt_correction_type   multi-scan
_exptl_absorpt_process_details   'SADABS (Sheldrick,1996)'
_exptl_crystal_colour            blue
_exptl_crystal_density_diffrn    1.938
_exptl_crystal_description       block
_exptl_crystal_F_000             297
_exptl_crystal_size_max          0.260
_exptl_crystal_size_mid          0.180
_exptl_crystal_size_min          0.100
_refine_diff_density_max         1.415
_refine_diff_density_min         -1.030
_refine_diff_density_rms         0.119
_refine_ls_extinction_method     none
_refine_ls_goodness_of_fit_ref   1.045
_refine_ls_hydrogen_treatment    mixed
_refine_ls_matrix_type           full
_refine_ls_number_parameters     170
_refine_ls_number_reflns         2310
_refine_ls_number_restraints     28
_refine_ls_restrained_S_all      1.040
_refine_ls_R_factor_all          0.0587
_refine_ls_R_factor_gt           0.0458
_refine_ls_shift/su_max          0.000
_refine_ls_shift/su_mean         0.000
_refine_ls_structure_factor_coef Fsqd
_refine_ls_weighting_details
'w=1/[\s^2^(Fo^2^)+(0.0351P)^2^+2.3186P] where P=(Fo^2^+2Fc^2^)/3'
_refine_ls_weighting_scheme      calc
_refine_ls_wR_factor_gt          0.0968
_refine_ls_wR_factor_ref         0.1037
_reflns_Friedel_coverage         0.000
_reflns_number_gt                1926
_reflns_number_total             2310
_reflns_threshold_expression     'I > 2\s(I)'
_cod_data_source_file            d2ce00034b2.cif
_cod_data_source_block           2
_cod_database_code               7244394
_shelx_shelxl_version_number     2018/3
_shelx_space_group_comment
;
The symmetry employed for this shelxl refinement is uniquely defined
by the following loop, which should always be used as a source of
symmetry information in preference to the above space-group names.
They are only intended as comments.
;
_shelx_estimated_absorpt_t_min   0.599
_shelx_estimated_absorpt_t_max   0.811
_shelx_res_file
;
TITL 1_a.res in P-1
    1_a.res
    created by SHELXL-2018/3 at 10:55:35 on 01-Mar-2020
REM Old TITL 1 in P-1
REM SHELXT solution in P-1
REM R1 0.149,  Rweak 0.012,  Alpha 0.059,  Orientation as input
REM Formula found by SHELXT:  C8 O18 Cu Cd
CELL  0.71073   7.2811   8.3400   9.8580   68.729   68.636   70.010
ZERR    1.000   0.0008   0.0009   0.0011    0.005    0.005    0.005
LATT  1
SFAC C H O CU CD
UNIT 8 28 18 1 1
TEMP 24.290
L.S. 10
size 0.26 0.18 0.10
dfix 0.85 o5 h5a o5 h5b o6 h6a o6 h6b o7 h7a o7 h7b o8 h8a o8 h8b o9 h9a o9 h9b
omit -1  -1   2
omit 0   1   0
simu 0.001 0.002 3.8 c4 c2a c2b
acta
BOND $H
LIST 6
FMAP 2
PLAN 40
WGHT    0.035100    2.318600
FVAR       0.99475   0.51274
CD1   5    0.500000    0.000000    0.500000    10.50000    0.02094    0.02661 =
         0.03878   -0.00264   -0.00194   -0.00157
C1    1    0.293084    0.163352    0.767883    11.00000    0.03590    0.03103 =
         0.01711   -0.00493   -0.00123   -0.00077
O1    3    0.266825    0.172561    0.647441    11.00000    0.02860    0.05356 =
         0.02324   -0.00752   -0.00676    0.00037
CU1   4    0.500000    0.000000    1.000000    10.50000    0.02294    0.04335 =
         0.01856   -0.00869   -0.00206   -0.00839
O2    3    0.457634    0.080815    0.800822    11.00000    0.02708    0.04452 =
         0.02263   -0.01101   -0.00363   -0.00622
O4    3    0.209843    0.066288    1.098648    11.00000    0.02386    0.04577 =
         0.02244   -0.00624   -0.00304   -0.00798
O3    3   -0.111613    0.193105    1.107864    11.00000    0.03098    0.05860 =
         0.03422   -0.01116   -0.01183   -0.00450
C3    1    0.069856    0.166567    1.037079    11.00000    0.03157    0.03079 =
         0.01977   -0.01324   -0.00236   -0.00008
O5    3    0.706323    0.196454    0.401073    11.00000    0.02799    0.04183 =
         0.03083   -0.00868   -0.00131   -0.01186
H5B   2    0.784578    0.174459    0.454216    11.00000   -1.20000
H5A   2    0.782051    0.187110    0.314843    11.00000   -1.20000
O6    3    0.295050    0.194822    0.346212    11.00000    0.04766    0.03603 =
         0.03212   -0.01179   -0.01371   -0.00047
H6B   2    0.318657    0.295855    0.319464    11.00000   -1.20000
H6A   2    0.326675    0.175854    0.261534    11.00000   -1.20000
O7    3    0.532569    0.285980    1.007016    11.00000    0.03992    0.04449 =
         0.04335   -0.00434   -0.01135   -0.01656
H7B   2    0.550570    0.360321    0.920508    11.00000   -1.20000
H7A   2    0.644334    0.267844    1.024073    11.00000   -1.20000
O9    3    0.873769    0.188457    0.610765    11.00000    0.02529    0.04667 =
         0.03908   -0.00420   -0.00687   -0.01279
H9B   2    0.845644    0.102640    0.687133    11.00000   -1.20000
H9A   2    0.997312    0.189355    0.578404    11.00000   -1.20000
O8    3    0.402241    0.505090    0.305324    11.00000    0.07028    0.03761 =
         0.05597   -0.00710   -0.02178   -0.00233
H8B   2    0.478013    0.436205    0.361639    11.00000   -1.20000
H8A   2    0.326809    0.572644    0.361507    11.00000   -1.20000
C4    1    0.032536    0.430425    0.817569    11.00000    0.10380    0.02927 =
         0.03288   -0.00079    0.01573    0.01533
AFIX  33
H4A   2   -0.041160    0.493378    0.893353    11.00000   -1.50000
H4B   2    0.107894    0.504203    0.730418    11.00000   -1.50000
H4C   2   -0.061222    0.399817    0.789025    11.00000   -1.50000
AFIX   0
part 1
C2A   1    0.153642    0.290873    0.870055    21.00000    0.10300    0.02849 =
         0.03148   -0.00114    0.01531    0.01565
AFIX  13
H2A   2    0.251208    0.336239    0.884099    21.00000   -1.20000
AFIX   0
part 2
C2B   1    0.094560    0.234788    0.874545   -21.00000    0.10299    0.02841 =
         0.03158   -0.00106    0.01529    0.01570
AFIX  13
H2B   2   -0.005759    0.193879    0.859271   -21.00000   -1.20000
part 0

REM #####
AFIX   0
HKLF 4




REM  1_a.res in P-1
REM wR2 = 0.1037, GooF = S = 1.045, Restrained GooF = 1.040 for all data
REM R1 = 0.0458 for 1926 Fo > 4sig(Fo) and 0.0587 for all 2310 data
REM 170 parameters refined using 28 restraints

END

WGHT      0.0173      2.2604

REM Highest difference peak  1.415,  deepest hole -1.030,  1-sigma level  0.119
Q1    1   0.3882 -0.0127  0.4996  11.00000  0.05    0.65
Q2    1   0.1087  0.4173  0.8571  11.00000  0.05    0.63
Q3    1   0.0338  0.4764  0.7360  11.00000  0.05    0.52
Q4    1   0.1636  0.2964  0.3716  11.00000  0.05    0.48
Q5    1   0.3892  0.0792  0.5466  11.00000  0.05    0.48
Q6    1  -0.0569  0.4746  0.8453  11.00000  0.05    0.48
Q7    1   0.0305  0.4829  0.6890  11.00000  0.05    0.44
Q8    1   0.3207  0.0336  0.8990  11.00000  0.05    0.42
Q9    1   0.3036  0.0347  0.3249  11.00000  0.05    0.41
Q10   1   0.6589  0.0577  0.5518  11.00000  0.05    0.41
Q11   1   0.1045  0.2160  0.3567  11.00000  0.05    0.40
Q12   1   0.3393  0.0703  0.3821  11.00000  0.05    0.39
Q13   1   0.7562  0.0196  0.6199  11.00000  0.05    0.39
Q14   1   0.2552  0.0215  0.3644  11.00000  0.05    0.38
Q15   1   0.4405 -0.1259  0.6406  11.00000  0.05    0.38
Q16   1   0.3561  0.0383  0.9778  11.00000  0.05    0.36
Q17   1   0.2469  0.3845  0.8742  11.00000  0.05    0.36
Q18   1   0.4706 -0.0229  0.3817  11.00000  0.05    0.36
Q19   1   0.2900  0.0722  1.1363  11.00000  0.05    0.35
Q20   1   0.3363  0.4010  0.3653  11.00000  0.05    0.35
Q21   1   0.5539  0.0799  0.7646  11.00000  0.05    0.34
Q22   1   0.6926  0.1268  0.3082  11.00000  0.05    0.34
Q23   1  -0.1615  0.4954  0.8872  11.00000  0.05    0.33
Q24   1   0.3662  0.0986  1.0371  11.00000  0.05    0.33
Q25   1   0.4531  0.0069  0.8755  11.00000  0.05    0.33
Q26   1  -0.0789  0.2191  1.2006  11.00000  0.05    0.33
Q27   1   0.4153 -0.0647  0.6661  11.00000  0.05    0.32
Q28   1   0.7531  0.0618  0.4251  11.00000  0.05    0.32
Q29   1  -0.0783  0.1006  1.2246  11.00000  0.05    0.31
Q30   1   0.5870  0.2397  0.3732  11.00000  0.05    0.31
Q31   1   0.2416  0.0557  0.5978  11.00000  0.05    0.31
Q32   1   0.5645  0.4246  1.0271  11.00000  0.05    0.31
Q33   1   0.3852  0.1152  0.5968  11.00000  0.05    0.31
Q34   1   0.5733  0.0017  0.8606  11.00000  0.05    0.30
Q35   1   0.2854  0.2853  0.5843  11.00000  0.05    0.30
Q36   1   0.2930  0.0765  0.6633  11.00000  0.05    0.30
Q37   1   0.3945  0.1013  0.7834  11.00000  0.05    0.30
Q38   1   0.3021  0.2013  0.1412  11.00000  0.05    0.30
Q39   1   0.2933  0.4951  0.4197  11.00000  0.05    0.30
Q40   1   0.4998 -0.1400  0.9809  11.00000  0.05    0.29
;
_shelx_res_checksum              12979
_shelx_hkl_file
;
  -2   0   0 2492.35   88.89
  -2   0   0 2562.04   88.49
  -2   0   0 2425.76   89.49
  -2   0   0 2427.76   89.89
  -2   0   0 2602.44   90.59
   2   0   0 2597.64   90.79
   2   0   0 2532.55   89.99
   2   0   0 2523.75   89.59
   2   0   0 2510.55   88.29
   2   0   0 2570.24   89.09
  -3   0   0 3403.16  126.99
  -3   0   0 3404.16  126.49
  -3   0   0 3555.14  125.49
  -3   0   0 3638.74  124.79
   3   0   0 3631.64  128.29
   3   0   0 3574.54  124.49
   3   0   0 3633.74  126.69
   3   0   0 3712.63  125.99
   3   0   0 3541.65  127.19
  -4   0   0 2457.75   91.89
  -4   0   0 2438.46   90.89
  -4   0   0 2421.56   90.19
  -4   0   0 2341.27   90.59
  -4   0   0 2461.25   87.19
   4   0   0 2602.24   89.39
   4   0   0 2496.55   90.19
   4   0   0 2487.25   92.49
   4   0   0 2503.75   86.99
   4   0   0 2497.15   90.99
  -5   0   0 2724.03  101.69
  -5   0   0 2730.33   99.49
  -5   0   0 2700.03  102.59
   5   0   0 2797.12  104.99
   5   0   0 2823.22  101.89
   5   0   0 2708.13  102.69
   5   0   0 2853.31  100.69
  -6   0   0  521.25   29.20
  -6   0   0  512.65   24.50
   6   0   0  503.75   26.90
  -7   0   0  238.88   18.30
  -7   0   0  295.07   28.10
   7   0   0  230.78   23.40
   7   0   0  219.98   28.20
   8   0   0  202.08   35.30
   8   0   0  246.08   28.70
   8  -1   0  289.77   39.20
   8  -1   0  306.67   31.40
  -8   1   0  344.37   37.50
   7  -1   0  311.27   26.00
   7  -1   0  309.57   32.60
  -7   1   0  408.06   29.40
   6  -1   0  822.02   43.20
   6  -1   0  826.52   37.90
  -6   1   0  889.11   40.20
  -6   1   0  752.22   34.90
  -6   1   0  836.82   37.80
   5  -1   0 1024.10   43.70
   5  -1   0 1030.50   46.60
   5  -1   0 1104.39   43.10
  -5   1   0 1019.70   41.10
  -5   1   0 1025.30   44.20
  -5   1   0 1031.10   43.40
   4  -1   0 2922.81  108.49
   4  -1   0 3066.59  105.69
   4  -1   0 2831.22  110.39
   4  -1   0 3039.40  108.89
   4  -1   0 3137.19  107.89
   4  -1   0 3053.39  111.19
  -4   1   0 2926.01  108.49
  -4   1   0 3010.70  107.19
  -4   1   0 2930.81  108.69
   3  -1   0 6085.39  205.48
   3  -1   0 5909.41  207.78
   3  -1   0 5823.52  205.98
   3  -1   0 5958.10  206.08
   3  -1   0 6076.39  204.38
   3  -1   0 5819.02  207.68
  -3   1   0 5556.94  205.88
  -3   1   0 5592.24  205.78
   2  -1   0  532.85   22.90
   2  -1   0  571.14   21.60
   2  -1   0  525.35   21.60
   2  -1   0  540.95   21.80
   2  -1   0  542.95   20.90
  -2   1   0  560.94   21.30
  -2   1   0  496.45   21.30
  -2   1   0  516.45   21.50
   1  -1   0 2383.36   79.79
   1  -1   0 2217.68   79.49
   1  -1   0 2201.08   79.69
   1  -1   0 2269.47   79.49
   1  -1   0 2276.57   80.69
  -1   1   0 2200.98   79.49
  -1   1   0 2336.87   79.79
  -1   1   0 2162.58   79.59
  -1   1   0 2283.97   80.69
   0  -1   0   -1.10    1.00
   0   1   0    0.70    1.00
  -2  -1   0 2124.39   79.59
  -2  -1   0 2226.88   79.79
  -2  -1   0 2284.57   78.59
  -2  -1   0 2223.48   78.29
   2   1   0 2144.69   81.39
   2   1   0 2350.96   78.69
   2   1   0 2151.18   78.69
   2   1   0 2200.18   79.79
   2   1   0 2267.37   78.29
  -3  -1   0 1865.01   66.19
  -3  -1   0 1832.72   66.89
  -3  -1   0 1866.91   65.69
  -3  -1   0 1832.12   69.29
  -3  -1   0 1789.22   67.99
   3   1   0 1855.01   68.19
   3   1   0 1903.81   66.99
   3   1   0 1855.41   65.59
   3   1   0 1779.52   67.89
   3   1   0 1867.71   68.69
  -4  -1   0 2045.60   79.79
  -4  -1   0 2085.39   78.69
  -4  -1   0 2194.38   76.69
  -4  -1   0 2164.38   77.39
  -4  -1   0 2076.49   80.39
   4   1   0 2177.98   76.39
   4   1   0 2236.88   78.29
   4   1   0 2167.08   80.29
   4   1   0 2172.08   78.69
   4   1   0 2172.38   81.19
  -5  -1   0 2631.44  102.29
  -5  -1   0 2764.02   97.29
  -5  -1   0 2668.83   98.09
  -5  -1   0 2702.43  101.79
   5   1   0 2683.63   96.59
   5   1   0 2766.42  102.19
   5   1   0 2812.62   99.49
   5   1   0 2759.72  103.49
   5   1   0 2816.92  100.49
  -6  -1   0  440.26   26.60
  -6  -1   0  384.86   21.10
   6   1   0  462.25   29.20
   6   1   0  408.76   23.70
  -7  -1   0  608.24   34.90
  -7  -1   0  536.25   27.80
   7   1   0  618.94   32.80
   7   1   0  602.24   38.30
   7   1   0  564.44   31.20
  -8  -1   0  276.47   31.60
   8   1   0  184.08   37.20
   8   1   0  240.88   28.30
   7  -2   0  336.97   48.00
   7  -2   0  358.56   36.90
  -7   2   0  430.06   32.60
   6  -2   0  569.84   32.10
   6  -2   0  600.54   37.40
  -6   2   0  623.94   33.50
  -6   2   0  622.34   32.00
   5  -2   0    4.80    6.30
   5  -2   0    5.00    6.70
   5  -2   0    9.40    8.10
   5  -2   0    5.40    8.20
  -5   2   0   -2.40    7.90
  -5   2   0   -0.10    6.50
   4  -2   0 1319.67   47.20
   4  -2   0 1149.08   52.29
   4  -2   0 1240.28   53.09
   4  -2   0 1303.07   50.29
   4  -2   0 1280.27   49.80
   4  -2   0 1272.67   47.80
   4  -2   0 1347.27   49.99
  -4   2   0 1234.28   49.70
  -4   2   0 1234.68   49.60
  -4   2   0 1263.67   45.10
   3  -2   0 3099.19  111.19
   3  -2   0 3048.79  113.29
   3  -2   0 3088.99  113.39
   3  -2   0 3102.99  111.69
   3  -2   0 3252.67  111.29
   3  -2   0 3108.59  110.79
   3  -2   0 3144.19  109.69
  -3   2   0 2969.70  110.69
  -3   2   0 3144.59  107.99
  -3   2   0 2957.30  110.89
   2  -2   0 2426.46   85.59
   2  -2   0 2412.26   87.19
   2  -2   0 2402.26   84.79
   2  -2   0 2468.15   85.29
   2  -2   0 2410.26   85.39
   2  -2   0 2321.17   84.79
  -2   2   0 2368.96   87.29
  -2   2   0 2293.87   84.89
  -2   2   0 2243.38   84.99
  -2   2   0 2425.56   83.19
   1  -2   0 3448.46  110.29
   1  -2   0 2928.11  109.09
   1  -2   0 3244.68  110.99
   1  -2   0 3056.19  108.89
   1  -2   0 2784.12  111.09
   1  -2   0 3159.88  109.79
  -1   2   0 3128.89  109.59
  -1   2   0 3066.49  110.89
  -1   2   0 3062.69  108.09
   0  -2   0  649.43   24.20
   0  -2   0  586.44   22.80
   0  -2   0  565.44   21.80
   0  -2   0  626.34   23.40
   0   2   0  526.15   21.30
   0   2   0  553.04   22.40
   0   2   0  577.34   21.40
   0   2   0  562.74   22.90
   0   2   0  611.04   24.20
  -1  -2   0 9350.16  317.37
  -1  -2   0 8902.41  317.77
  -2  -2   0 9807.12  341.07
  -3  -2   0 1828.02   68.39
  -3  -2   0 1766.52   68.29
  -3  -2   0 1868.81   66.89
  -3  -2   0 1905.61   66.79
   3   2   0 1768.92   67.79
   3   2   0 1847.92   68.59
   3   2   0 1846.12   68.89
   3   2   0 1888.21   66.99
   3   2   0 1880.21   66.49
  -4  -2   0 2245.98   87.39
  -4  -2   0 2242.58   87.49
  -4  -2   0 2417.16   85.19
  -4  -2   0 2446.56   84.89
   4   2   0 2460.75   85.49
   4   2   0 2432.66   88.79
   4   2   0 2406.16   84.59
   4   2   0 2277.77   87.69
   4   2   0 2310.27   86.69
  -5  -2   0  722.13   35.10
  -5  -2   0  747.43   35.50
  -5  -2   0  764.62   31.60
  -5  -2   0  793.12   31.10
   5   2   0  777.02   30.40
   5   2   0  804.62   37.30
   5   2   0  743.03   36.10
   5   2   0  816.42   33.50
   5   2   0  789.02   32.80
  -6  -2   0  723.23   32.20
  -6  -2   0  759.82   31.10
  -6  -2   0  788.62   44.60
   6   2   0  812.12   40.30
   6   2   0  727.43   30.10
   6   2   0  791.02   34.10
   6   2   0  824.12   35.30
  -7  -2   0  982.70   42.80
  -7  -2   0 1122.59   50.79
   7   2   0 1054.49   47.30
   7   2   0 1057.19   53.59
   7   2   0 1018.10   45.10
  -8  -2   0  420.26   35.10
   8   2   0  291.77   37.80
   8   2   0  383.06   29.20
   7  -3   0  373.66   39.50
   7  -3   0  357.96   33.70
  -7   3   0  445.36   35.30
   6  -3   0  567.74   27.80
   6  -3   0  577.84   39.60
  -6   3   0  587.84   37.20
  -6   3   0  623.64   32.40
   5  -3   0  127.79   14.00
   5  -3   0   93.49   18.10
   5  -3   0   84.09   12.70
   5  -3   0  130.09   14.60
  -5   3   0  101.59   15.90
  -5   3   0   96.59   17.70
   4  -3   0  785.82   35.60
   4  -3   0  775.62   33.90
   4  -3   0  800.92   34.30
   4  -3   0  840.52   36.10
   4  -3   0  807.42   32.80
   4  -3   0  823.02   38.90
  -4   3   0  773.32   34.70
  -4   3   0  812.22   29.70
  -4   3   0  759.72   34.60
   3  -3   0 2319.87   83.19
   3  -3   0 2199.18   85.49
   3  -3   0 2241.18   81.69
   3  -3   0 2284.17   81.69
   3  -3   0 2260.07   82.49
   3  -3   0 2235.78   82.59
  -3   3   0 2166.48   81.99
  -3   3   0 2246.58   79.09
  -3   3   0 2205.18   81.89
   2  -3   0 4142.99  145.09
   2  -3   0 4339.97  148.89
   2  -3   0 4049.19  142.69
   2  -3   0 3981.60  141.89
   2  -3   0 3918.51  141.09
   2  -3   0 4005.70  141.99
  -2   3   0 3920.71  144.39
  -2   3   0 4022.90  139.79
  -2   3   0 3623.84  141.29
   1  -3   0 2594.64   92.39
   1  -3   0 2650.73   92.79
   1  -3   0 2561.14   90.89
   1  -3   0 2602.44   91.39
   1  -3   0 2693.83   93.99
   1  -3   0 2568.84   91.29
   1  -3   0 2551.44   92.39
  -1   3   0 2568.14   90.09
  -1   3   0 2491.45   93.59
  -1   3   0 2507.85   92.29
  -1   3   0 2417.96   90.79
   0  -3   0   55.99    8.20
   0  -3   0   35.20    5.70
   0   3   0   50.29   10.70
   0   3   0   47.90    6.80
   0   3   0   29.50    5.30
   0   3   0   33.90    8.20
   0   3   0   38.90    4.20
  -1  -3   0 7846.02  253.27
  -1  -3   0 6490.55  255.97
  -1  -3   0 7347.26  253.47
  -1  -3   0 7132.19  252.87
   1   3   0 7867.01  254.77
   1   3   0 7086.99  253.07
   1   3   0 7316.17  253.77
   1   3   0 7082.09  251.17
   1   3   0 6911.01  254.57
  -2  -3   0 4630.44  166.08
  -2  -3   0 4801.62  166.68
  -2  -3   0 4975.20  165.68
  -2  -3   0 4581.14  166.18
   2   3   0 4474.15  163.68
   2   3   0 4592.44  166.68
   2   3   0 5006.70  165.78
   2   3   0 4565.64  165.98
   2   3   0 4678.93  163.68
  -3  -3   0 4848.11  176.18
  -3  -3   0 4678.93  174.58
  -3  -3   0 4923.51  173.78
  -3  -3   0 4990.70  171.08
  -3  -3   0 5066.79  173.48
   3   3   0 4781.72  172.38
   3   3   0 5141.19  173.28
   3   3   0 4989.50  179.28
   3   3   0 4927.11  173.48
   3   3   0 4935.51  175.48
   3   3   0 4806.62  172.18
  -4  -3   0 3337.47  117.19
  -4  -3   0 3290.47  113.99
  -4  -3   0 3199.58  119.19
  -4  -3   0 2982.20  118.29
   4   3   0 3258.77  116.39
   4   3   0 3321.57  120.19
   4   3   0 3276.97  116.69
   4   3   0 3364.26  116.79
   4   3   0 3283.27  116.79
   4   3   0 3338.47  119.79
  -5  -3   0  577.44   31.30
  -5  -3   0  652.83   23.00
  -5  -3   0  632.44   27.50
  -5  -3   0  590.64   30.50
  -5  -3   0  599.34   27.60
   5   3   0  612.74   26.50
   5   3   0  620.64   27.70
   5   3   0  692.73   33.20
   5   3   0  609.44   27.60
   5   3   0  588.64   32.20
   5   3   0  627.44   27.10
  -6  -3   0 1467.45   55.19
  -6  -3   0 1333.07   67.29
  -6  -3   0 1394.36   55.59
   6   3   0 1530.85   62.99
   6   3   0 1485.45   57.09
   6   3   0 1412.16   54.89
   6   3   0 1434.66   55.59
  -7  -3   0  888.11   39.80
  -7  -3   0  907.11   38.30
  -7  -3   0  985.20   47.50
   7   3   0  896.11   41.70
   7   3   0  982.60   49.90
   7   3   0  998.00   43.60
  -8  -3   0  477.85   36.80
   8   3   0  413.56   30.90
   8   3   0  360.86   39.20
   7  -4   0  131.89   23.00
   6  -4   0  318.37   30.40
   6  -4   0  295.87   34.30
   5  -4   0  669.73   32.30
   5  -4   0  695.03   40.90
   5  -4   0  685.33   44.10
   5  -4   0  690.23   32.00
   5  -4   0  699.03   32.70
  -5   4   0  769.72   35.20
   4  -4   0  199.48   14.80
   4  -4   0  147.29   19.70
   4  -4   0  155.88   15.40
   4  -4   0  152.28   16.60
  -4   4   0  162.68   10.40
  -4   4   0  185.78   15.80
   3  -4   0  843.32   34.60
   3  -4   0  847.62   36.20
   3  -4   0  854.71   37.20
   3  -4   0  819.72   40.50
   3  -4   0  858.81   37.70
   3  -4   0  892.81   36.40
   3  -4   0  824.82   38.80
   3  -4   0  839.12   35.50
  -3   4   0  838.42   41.00
  -3   4   0  879.51   32.30
  -3   4   0  852.41   35.30
   2  -4   0 2809.52  100.79
   2  -4   0 2836.82  102.09
   2  -4   0 2832.62  102.59
   2  -4   0 2684.93  104.29
   2  -4   0 2898.01  101.49
   2  -4   0 2821.22  103.09
  -2   4   0 2838.22   98.89
  -2   4   0 2697.53  100.49
  -2   4   0 2754.72  104.89
   1  -4   0 1818.22   69.09
   1  -4   0 1858.61   68.69
   1  -4   0 1817.02   67.29
   1  -4   0 1828.92   66.69
   1  -4   0 1893.91   68.79
   1  -4   0 1870.31   70.49
  -1   4   0 1792.32   70.29
  -1   4   0 1890.21   65.49
  -1   4   0 1744.73   65.99
  -1   4   0 1808.02   68.39
   0  -4   0 3049.50  106.09
   0  -4   0 2912.71  104.89
   0  -4   0 3165.98  107.89
   0  -4   0 2726.83  103.39
   0  -4   0 2918.71  106.19
   0   4   0 2901.31  106.09
   0   4   0 2792.52  102.69
   0   4   0 2953.50  103.09
   0   4   0 2898.91  104.19
   0   4   0 2946.51  107.09
  -1  -4   0 3667.23  131.99
  -1  -4   0 3848.21  133.19
  -1  -4   0 3503.75  127.89
  -1  -4   0 3633.94  130.89
  -1  -4   0 3904.01  131.79
   1   4   0 3498.65  131.29
   1   4   0 3567.04  131.19
   1   4   0 3654.43  132.49
   1   4   0 3661.53  128.89
   1   4   0 3808.82  131.79
  -2  -4   0 1333.07   49.99
  -2  -4   0 1302.67   50.19
  -2  -4   0 1305.27   50.59
  -2  -4   0 1325.87   50.89
   2   4   0 1266.77   50.59
   2   4   0 1312.47   47.10
   2   4   0 1334.97   50.09
   2   4   0 1315.27   46.80
   2   4   0 1276.87   49.99
   2   4   0 1270.97   51.29
  -3  -4   0 2329.47   84.99
  -3  -4   0 2372.46   82.09
  -3  -4   0 2294.17   86.09
  -3  -4   0 2345.17   85.69
  -3  -4   0 2309.67   86.39
   3   4   0 2305.67   85.59
   3   4   0 2234.28   82.29
   3   4   0 2307.47   86.99
   3   4   0 2329.47   86.69
   3   4   0 2420.96   85.09
   3   4   0 2310.67   82.69
  -4  -4   0 1724.53   68.99
  -4  -4   0 1856.71   63.79
  -4  -4   0 1769.12   69.69
  -4  -4   0 1829.32   68.09
  -4  -4   0 1743.23   67.29
   4   4   0 1766.52   67.19
   4   4   0 1764.72   70.19
   4   4   0 1824.72   66.09
   4   4   0 1819.02   70.89
   4   4   0 1815.82   67.09
   4   4   0 1802.52   65.29
  -5  -4   0  466.95   27.80
  -5  -4   0  475.05   24.90
  -5  -4   0  484.35   24.90
  -5  -4   0  499.05   19.00
   5   4   0  478.75   22.40
   5   4   0  471.85   22.70
   5   4   0  481.05   23.90
   5   4   0  466.05   23.50
   5   4   0  514.95   29.60
  -6  -4   0  722.03   32.30
  -6  -4   0  643.34   31.80
  -6  -4   0  726.33   26.20
  -6  -4   0  721.13   37.60
   6   4   0  707.73   30.90
   6   4   0  653.63   30.20
   6   4   0  714.73   31.60
   6   4   0  656.43   36.70
  -7  -4   0  375.56   23.10
  -7  -4   0  386.66   29.90
   7   4   0  352.96   33.90
   7   4   0  393.66   24.60
   7   4   0  348.67   23.20
  -8  -4   0  421.06   36.50
   8   4   0  297.87   40.20
   8   4   0  345.87   27.50
   6  -5   0  209.38   32.90
   6  -5   0  202.28   37.50
   5  -5   0  804.92   39.80
   5  -5   0  911.21   45.60
   5  -5   0  814.42   48.30
   5  -5   0  959.00   41.50
  -5   5   0  946.81   41.70
   4  -5   0  344.07   20.50
   4  -5   0  302.37   26.10
   4  -5   0  343.77   22.10
   4  -5   0  306.07   22.90
   4  -5   0  287.37   23.90
  -4   5   0  287.57   15.40
   3  -5   0  257.07   17.90
   3  -5   0  229.58   19.30
   3  -5   0  229.98   21.20
   3  -5   0  239.78   17.40
   3  -5   0  208.28   21.70
   3  -5   0  203.78   19.60
  -3   5   0  220.98   16.10
  -3   5   0  268.47   25.50
  -3   5   0  217.58   12.70
   2  -5   0  696.43   33.90
   2  -5   0  702.23   29.30
   2  -5   0  679.13   35.40
   2  -5   0  747.53   33.70
   2  -5   0  712.23   31.40
   2  -5   0  724.63   31.50
   2  -5   0  710.63   36.60
  -2   5   0  680.83   36.70
  -2   5   0  757.22   28.20
  -2   5   0  693.13   29.60
   1  -5   0  392.56   21.10
   1  -5   0  409.06   25.80
   1  -5   0  394.96   25.90
   1  -5   0  345.57   23.50
   1  -5   0  387.06   19.60
   1  -5   0  365.56   20.40
   1  -5   0  368.96   22.40
  -1   5   0  370.36   21.30
  -1   5   0  391.66   17.00
  -1   5   0  330.47   24.40
  -1   5   0  364.26   17.00
   0  -5   0 2356.56   86.09
   0  -5   0 2377.46   83.29
   0  -5   0 2387.76   85.29
   0  -5   0 2096.09   80.99
   0  -5   0 2240.58   84.59
   0   5   0 2065.69   83.49
   0   5   0 2311.07   80.99
   0   5   0 2242.98   85.89
   0   5   0 2317.37   82.39
   0   5   0 2198.58   84.09
  -1  -5   0  422.06   23.70
  -1  -5   0  424.86   15.70
  -1  -5   0  417.86   23.10
  -1  -5   0  371.76   22.50
  -1  -5   0  457.15   22.10
   1   5   0  392.76   21.70
   1   5   0  431.66   24.90
   1   5   0  399.06   23.50
   1   5   0  366.56   21.00
   1   5   0  399.56   15.50
   1   5   0  403.86   18.60
  -2  -5   0  169.68   16.90
  -2  -5   0  164.18   16.30
  -2  -5   0  139.89   15.50
  -2  -5   0  165.88   15.50
   2   5   0  172.78   18.80
   2   5   0  166.78    8.10
   2   5   0  161.68   10.10
   2   5   0  167.68   16.20
   2   5   0  144.99   14.10
   2   5   0  169.78   17.00
  -3  -5   0  659.13   31.40
  -3  -5   0  668.03   31.40
  -3  -5   0  711.93   25.90
  -3  -5   0  653.03   31.00
  -3  -5   0  682.53   31.90
   3   5   0  633.64   30.00
   3   5   0  669.63   33.90
   3   5   0  667.93   30.90
   3   5   0  659.33   32.70
   3   5   0  642.44   25.00
  -4  -5   0 1277.27   52.89
  -4  -5   0 1266.37   50.89
  -4  -5   0 1320.97   51.99
  -4  -5   0 1279.67   46.20
  -4  -5   0 1203.68   51.89
   4   5   0 1226.78   50.39
   4   5   0 1187.28   53.49
   4   5   0 1284.17   47.20
   4   5   0 1312.37   50.59
   4   5   0 1291.97   53.89
   4   5   0 1223.18   47.30
  -5  -5   0 1400.16   56.79
  -5  -5   0 1296.47   55.79
  -5  -5   0 1481.85   59.19
  -5  -5   0 1391.16   50.79
   5   5   0 1348.17   55.39
   5   5   0 1418.46   53.49
   5   5   0 1400.56   60.69
   5   5   0 1461.15   55.59
   5   5   0 1402.26   52.79
  -6  -5   0  309.97   22.40
  -6  -5   0  308.97   14.40
  -6  -5   0  330.17   26.80
  -6  -5   0  258.17   22.90
   6   5   0  325.87   19.20
   6   5   0  314.27   21.80
   6   5   0  283.97   20.00
   6   5   0  344.37   21.60
   6   5   0  278.97   29.60
  -7  -5   0  245.68   28.70
  -7  -5   0  195.98   21.60
   7   5   0  165.78   20.00
  -8  -5   0  497.05   38.90
   8   5   0  411.56   30.30
   5  -6   0  287.77   36.80
   5  -6   0  244.88   33.10
   5  -6   0  271.97   30.20
   5  -6   0  283.57   17.30
   4  -6   0  199.48   27.60
   4  -6   0  257.27   23.40
   4  -6   0  253.17   22.40
  -4   6   0  290.57   24.10
   3  -6   0  324.07   28.10
   3  -6   0  343.17   23.80
   3  -6   0  417.86   28.50
   3  -6   0  383.26   19.70
  -3   6   0  347.67   18.00
  -3   6   0  377.16   21.40
  -3   6   0  382.16   33.50
   2  -6   0  156.88   21.70
   2  -6   0  174.78   12.50
   2  -6   0  138.09   20.00
   2  -6   0  131.99   17.10
   2  -6   0  128.79   16.20
  -2   6   0  146.59   11.60
  -2   6   0  201.68   25.30
  -2   6   0  167.98   13.50
   1  -6   0  804.42   35.40
   1  -6   0  798.52   32.70
   1  -6   0  861.01   38.20
   1  -6   0  741.93   34.00
   1  -6   0  816.42   38.20
  -1   6   0  806.02   31.80
  -1   6   0  779.42   40.60
  -1   6   0  784.62   31.60
   0  -6   0 1417.26   56.49
   0  -6   0 1586.14   62.29
   0  -6   0 1634.64   59.59
   0  -6   0 1529.65   63.19
   0   6   0 1558.94   57.89
   0   6   0 1519.15   63.59
   0   6   0 1545.55   56.29
   0   6   0 1507.35   55.69
   0   6   0 1464.15   60.59
  -1  -6   0  729.43   36.10
  -1  -6   0  755.62   37.60
  -1  -6   0  796.52   28.20
  -1  -6   0  848.72   34.90
  -1  -6   0  809.82   37.30
   1   6   0  805.92   30.70
   1   6   0  732.43   38.20
   1   6   0  754.22   34.40
   1   6   0  753.12   27.90
   1   6   0  718.43   34.90
  -2  -6   0  897.81   37.90
  -2  -6   0  831.92   39.60
  -2  -6   0  888.01   39.70
  -2  -6   0  776.32   37.90
   2   6   0  858.91   41.50
   2   6   0  834.52   38.60
   2   6   0  796.72   37.20
   2   6   0  867.31   39.40
  -3  -6   0  348.57   23.20
  -3  -6   0  324.87   25.40
  -3  -6   0  356.36   16.00
  -3  -6   0  310.47   22.60
  -3  -6   0  367.06   24.30
   3   6   0  337.17   24.20
   3   6   0  341.57   24.20
   3   6   0  305.87   24.50
   3   6   0  348.67   13.40
   3   6   0  297.87   18.70
   3   6   0  341.37   25.80
  -4  -6   0  697.03   35.10
  -4  -6   0  690.33   34.00
  -4  -6   0  652.03   33.60
  -4  -6   0  685.83   26.90
   4   6   0  647.34   37.00
   4   6   0  600.14   36.10
   4   6   0  698.23   27.30
   4   6   0  689.73   26.30
   4   6   0  681.23   35.50
  -5  -6   0 1168.88   43.40
  -5  -6   0 1023.90   49.10
  -5  -6   0 1222.18   51.09
  -5  -6   0 1175.48   63.89
   5   6   0 1204.68   44.90
   5   6   0 1195.08   44.20
   5   6   0 1225.58   49.40
   5   6   0 1034.30   60.99
  -6  -6   0  231.28   22.30
  -6  -6   0  248.48   27.30
  -6  -6   0  180.48   12.20
   6   6   0  196.18   21.40
   6   6   0  231.98   15.70
   6   6   0  194.68   16.50
  -7  -6   0  276.77   30.70
  -7  -6   0  161.38   24.60
   7   6   0  260.27   20.20
   7   6   0  203.38   22.10
   8   6   0  319.07   27.70
   4  -7   0  307.17   35.50
   4  -7   0  328.17   30.10
   4  -7   0  365.86   18.60
   3  -7   0  396.36   34.20
   3  -7   0  392.56   33.60
  -3   7   0  485.55   25.30
  -3   7   0  501.95   39.40
   2  -7   0  340.37   27.10
   2  -7   0  402.36   30.30
   2  -7   0  408.56   30.10
  -2   7   0  441.76   34.50
  -2   7   0  407.96   20.50
  -2   7   0  453.05   22.00
   1  -7   0  265.37   25.30
   1  -7   0  246.58   21.20
   1  -7   0  313.57   16.40
   1  -7   0  251.87   25.40
  -1   7   0  288.57   16.40
  -1   7   0  296.67   15.20
  -1   7   0  270.17   30.10
   0  -7   0  288.17   20.50
   0  -7   0  315.17   25.50
   0  -7   0  363.56   27.70
   0  -7   0  325.07   22.10
   0   7   0  349.27   17.50
   0   7   0  315.97   27.40
  -1  -7   0  572.84   28.50
  -1  -7   0  574.04   42.80
   1   7   0  515.05   23.40
   1   7   0  515.15   34.30
   1   7   0  542.55   28.20
  -2  -7   0 1020.60   43.70
  -2  -7   0 1052.69   52.29
   2   7   0  939.01   47.40
   2   7   0  930.71   44.80
   2   7   0 1068.19   47.10
  -3  -7   0  276.47   15.20
  -3  -7   0  294.57   25.50
  -3  -7   0  309.67   22.90
   3   7   0  239.68   25.00
   3   7   0  299.97   27.10
  -4  -7   0  424.26   20.50
  -4  -7   0  423.86   30.80
  -4  -7   0  518.25   29.10
   4   7   0  525.25   30.20
   4   7   0  351.16   41.00
  -5  -7   0  465.45   31.70
  -5  -7   0  466.65   20.90
  -5  -7   0  518.85   32.30
   5   7   0  402.96   34.30
   5   7   0  429.26   21.40
  -6  -7   0  234.98   15.00
  -6  -7   0  234.48   26.70
   6   7   0  230.68   18.90
  -7  -7   0  183.18   28.70
  -7  -7   0  201.98   14.70
   3  -8   0  224.78   16.70
   3  -8   0  246.18   39.00
   2  -8   0  403.16   35.80
   2  -8   0  359.86   32.80
  -2   8   0  479.85   39.70
   1  -8   0  217.38   25.60
   1  -8   0  266.97   28.90
   1  -8   0  270.57   29.10
  -1   8   0  310.87   32.30
   0  -8   0   51.49   19.10
   0  -8   0   39.30   11.80
   0  -8   0   41.60   13.90
   0   8   0   40.10   16.20
  -1  -8   0  618.84   38.40
  -1  -8   0  652.23   32.80
   1   8   0  685.83   32.40
   1   8   0  609.64   40.30
  -2  -8   0  481.85   27.70
  -2  -8   0  438.56   32.20
  -2  -8   0  434.06   21.50
   2   8   0  443.56   34.60
   2   8   0  414.86   30.40
  -3  -8   0  241.68   15.40
  -3  -8   0  256.87   23.30
  -3  -8   0  204.08   26.30
   3   8   0  172.18   30.40
  -4  -8   0  105.59   22.00
  -4  -8   0   72.39   11.30
   4   8   0   66.79   16.20
   4   8   0   39.70   16.90
  -5  -8   0   62.79   20.20
  -5  -8   0   79.89   11.90
   5   8   0   49.30   16.10
   5   8   0   31.30   17.70
  -6  -8   0  143.39   14.30
  -6  -8   0  140.89   25.80
   6   8   0  152.08   28.90
  -2   9   0  344.47   47.10
   1  -9   0  127.79   28.00
   1  -9   0  143.09   15.40
   1  -9   0   85.89   20.10
  -1   9   0  205.98   37.80
   0  -9   0   49.00    9.20
   0  -9   0   37.30   24.10
   0  -9   0   43.70   17.40
  -1  -9   0  170.58   32.30
  -1  -9   0  167.18   15.00
  -1  -9   0  121.59   29.40
   1   9   0  146.49   29.90
  -2  -9   0  229.18   22.10
  -2  -9   0  148.69   29.90
  -2  -9   0  195.98   15.90
   2   9   0  139.49   32.90
  -3  -9   0  184.88   15.40
  -3  -9   0  130.29   30.60
   3   9   0  136.79   33.40
  -4  -9   0   75.09    9.80
  -4  -9   0   44.60   22.90
   4   9   0   30.50   20.20
  -5  -9   0  104.59   15.10
  -5  -9   0  109.09   27.20
  -1 -10   0  118.29   15.80
  -1 -10   0  106.99   30.40
   1  10   0  183.98   43.00
  -2 -10   0   34.70   29.70
  -2 -10   0   74.29   13.60
  -2 -10   0   87.19   21.10
   2  10   0   76.99   24.70
  -3 -10   0  150.08   25.00
   3  10   0  100.29   27.10
   4   9  -1   27.60   24.30
  -4  -9   1   33.20    8.90
  -4  -9   1   20.50   25.80
   3   9  -1  -11.00   17.00
  -3  -9   1   -2.30    6.70
  -3  -9   1   22.20   14.80
  -3  -9   1  -20.70   23.20
   2   9  -1    5.20   17.30
  -2  -9   1   22.70   18.40
  -2  -9   1   -3.10   22.60
   1   9  -1   52.89   18.70
  -1  -9   1   23.10   23.70
   0  -9   1   65.49   25.80
   0  -9   1   50.19   17.90
  -1   9  -1   68.89   20.60
   1  -9   1   46.10   21.30
   6   8  -1   55.39   18.00
  -6  -8   1   45.40    8.70
  -6  -8   1   34.30   23.20
   5   8  -1   48.80   17.30
  -5  -8   1   16.60   21.10
  -5  -8   1   44.00    8.10
   4   8  -1   91.29   17.90
  -4  -8   1  118.09   24.70
  -4  -8   1   79.49   12.20
   3   8  -1   50.99   16.10
   3   8  -1   29.90   18.80
  -3  -8   1   78.79   21.70
  -3  -8   1   66.89   20.70
   2   8  -1   86.09   18.30
   2   8  -1   82.59   17.30
  -2  -8   1  111.69   25.90
   1   8  -1   59.89   16.90
   1   8  -1   48.40    8.60
  -1  -8   1   60.19   20.30
  -1  -8   1   51.69   15.20
   0   8  -1  119.39   13.10
   0   8  -1   88.29   18.70
   0  -8   1   59.99   15.80
   0  -8   1   99.39   22.30
  -1   8  -1   28.80   16.50
  -1   8  -1   27.70    8.30
   1  -8   1   22.10   14.40
   1  -8   1   -0.40   18.50
  -2   8  -1   47.50   18.20
  -2   8  -1    4.20    7.70
   2  -8   1   12.70   15.40
   2  -8   1   -7.50   19.70
   3  -8   1   34.50   24.50
   6   7  -1   24.20   14.70
  -6  -7   1   27.90    7.20
  -6  -7   1   21.90   19.60
   5   7  -1   18.60   13.30
  -5  -7   1   18.90    6.30
  -5  -7   1  -12.20   16.50
  -5  -7   1   37.60   15.00
   4   7  -1   32.50   13.90
  -4  -7   1   21.90    6.20
  -4  -7   1   23.10   16.90
  -4  -7   1   34.90   14.00
   3   7  -1   70.19   14.70
   3   7  -1   84.19   17.40
  -3  -7   1   81.19   18.20
   2   7  -1   20.80   13.10
   2   7  -1   28.70    6.60
   2   7  -1   17.10   12.90
   2   7  -1   27.50   13.00
  -2  -7   1   54.89   17.40
  -2  -7   1   44.10   16.30
   1   7  -1    9.50   12.20
   1   7  -1   11.50   11.00
   1   7  -1    5.10    6.40
   1   7  -1   -0.80   12.10
  -1  -7   1   12.40   14.10
  -1  -7   1   -7.50   11.90
   0   7  -1   13.40    5.80
   0   7  -1    1.60   11.70
   0  -7   1    6.30   12.50
   0  -7   1   19.30   16.10
  -1   7  -1  199.68   25.90
  -1   7  -1  146.39   12.30
   1  -7   1  169.68   23.90
   1  -7   1  127.59   22.90
   1  -7   1  180.58   24.90
   1  -7   1  162.58   23.80
  -2   7  -1   27.10    7.50
  -2   7  -1   48.00   16.60
   2  -7   1   18.70   12.30
   2  -7   1   17.10   16.50
   3  -7   1   38.30   14.20
   3  -7   1   69.49   19.50
   3  -7   1   53.49   15.80
  -4   7  -1   46.20    9.20
   4  -7   1   20.40   20.00
   4  -7   1   53.29   16.30
  -7  -6   1  129.19   31.20
   6   6  -1   16.00    9.50
   6   6  -1   -4.90   14.50
  -6  -6   1    4.80    5.80
  -6  -6   1   35.60   14.30
  -6  -6   1   22.70   15.70
   5   6  -1   -3.00   16.60
   5   6  -1    9.20   11.30
   5   6  -1   11.90    5.40
  -5  -6   1   14.80    5.50
  -5  -6   1   15.90   13.70
  -5  -6   1   27.90   13.50
   4   6  -1  110.09   19.30
   4   6  -1  118.59    9.90
  -4  -6   1   84.39   10.50
  -4  -6   1   84.19   21.00
   3   6  -1  511.75   29.70
   3   6  -1  515.95   21.90
   3   6  -1  510.85   30.40
   3   6  -1  456.95   31.10
  -3  -6   1  559.14   30.40
  -3  -6   1  511.65   29.80
  -3  -6   1  479.65   30.10
  -3  -6   1  467.35   28.40
   2   6  -1   73.49   13.50
   2   6  -1   68.69   15.70
   2   6  -1   72.69   12.10
  -2  -6   1   62.19   11.20
  -2  -6   1  103.49   19.80
  -2  -6   1   65.39   13.60
  -2  -6   1  107.79   19.00
   1   6  -1   71.49   13.10
   1   6  -1   64.89   16.90
   1   6  -1   66.39   12.60
   1   6  -1   87.89    9.00
  -1  -6   1  104.69   16.80
  -1  -6   1  106.19   20.40
  -1  -6   1   79.09   18.10
   0   6  -1  150.48   16.50
   0   6  -1  135.39   10.30
   0   6  -1  117.09   25.50
   0  -6   1   98.89   22.70
   0  -6   1  175.68   20.40
   0  -6   1  167.18   20.60
   0  -6   1  125.19    9.10
  -1   6  -1  232.68   23.60
  -1   6  -1  260.47   13.60
   1  -6   1  212.58   16.50
   1  -6   1  275.37   22.20
   1  -6   1  218.58   26.20
  -2   6  -1   92.29   21.70
  -2   6  -1   87.99   10.50
   2  -6   1   77.89   14.50
   2  -6   1   79.29   19.70
   2  -6   1   84.79   13.70
   2  -6   1   82.09   19.70
  -3   6  -1   25.40   17.90
  -4   6  -1   69.09   11.30
   4  -6   1   55.49   17.50
   4  -6   1   58.69   13.80
   4  -6   1   55.59   14.30
   5  -6   1   33.10   18.10
   5  -6   1   54.39   17.20
   5  -6   1   19.60   18.90
   5  -6   1   58.89   12.40
   8   5  -1    4.60   12.00
   7   5  -1   50.69   13.80
   7   5  -1   25.20   12.30
  -7  -5   1   38.70   15.50
   6   5  -1  179.78   15.60
   6   5  -1  125.69   27.20
   6   5  -1  147.79   22.50
   6   5  -1  167.68   15.70
  -6  -5   1  182.18   24.10
  -6  -5   1  154.88   19.40
  -6  -5   1  145.49   10.70
   5   5  -1  117.49   14.60
   5   5  -1  111.89   11.10
   5   5  -1   87.29   10.80
   5   5  -1   90.39   18.00
   5   5  -1  121.29   22.10
  -5  -5   1   69.99   16.70
  -5  -5   1   80.79    8.70
  -5  -5   1  103.79   20.60
   4   5  -1  174.08   21.50
   4   5  -1  144.29   18.10
   4   5  -1  147.09   10.10
   4   5  -1  148.99   18.30
  -4  -5   1  158.08   10.00
  -4  -5   1  136.99   17.20
  -4  -5   1  153.48   19.90
  -4  -5   1  138.29   18.60
  -4  -5   1  143.29   17.70
   3   5  -1  368.06   26.60
   3   5  -1  394.96   19.10
   3   5  -1  413.16   16.20
   3   5  -1  421.96   26.30
   3   5  -1  415.86   15.90
   3   5  -1  391.36   24.50
   3   5  -1  390.16   22.20
  -3  -5   1  394.86   23.10
  -3  -5   1  400.36   28.50
  -3  -5   1  423.96   24.50
  -3  -5   1  370.16   24.10
   2   5  -1  157.58   14.90
   2   5  -1  157.38   18.40
   2   5  -1  152.18   18.90
   2   5  -1  164.78   19.20
  -2  -5   1  170.38   17.50
  -2  -5   1  167.68   19.30
  -2  -5   1  147.49   16.00
  -2  -5   1  170.18   17.30
   1   5  -1   73.89    9.10
   1   5  -1   76.19   17.00
   1   5  -1   86.49   15.40
   1   5  -1   74.09   12.60
   1   5  -1   83.59   17.80
  -1  -5   1   95.89   15.90
  -1  -5   1   86.09   17.20
  -1  -5   1  105.99   14.60
   0   5  -1  585.34   23.50
   0   5  -1  606.54   27.50
   0   5  -1  564.64   30.50
   0   5  -1  579.84   30.30
   0   5  -1  577.64   28.40
   0  -5   1  567.14   23.10
   0  -5   1  608.74   29.90
   0  -5   1  583.34   29.90
   0  -5   1  530.15   29.10
   0  -5   1  635.34   30.10
  -1   5  -1  607.74   24.00
  -1   5  -1  564.04   30.40
   1  -5   1  583.34   27.70
   1  -5   1  577.64   29.90
   1  -5   1  568.74   31.20
   1  -5   1  570.14   30.00
   1  -5   1  608.94   29.70
  -2   5  -1  220.48   22.50
  -2   5  -1  223.68   12.00
   2  -5   1  210.58   20.30
   2  -5   1  184.88   31.30
   2  -5   1  216.68   19.70
   2  -5   1  226.78   15.60
   2  -5   1  227.58   19.70
   2  -5   1  193.68   20.40
   2  -5   1  219.68   15.10
  -3   5  -1   63.89    9.70
  -3   5  -1   67.39   14.10
   3  -5   1   76.89   14.10
   3  -5   1   83.69   14.50
   3  -5   1   72.49   21.30
   3  -5   1   47.30   11.60
   3  -5   1   90.79   12.00
   3  -5   1   54.59   11.20
  -4   5  -1  120.39   10.80
   4  -5   1  112.29   21.60
   4  -5   1  143.89   22.90
   4  -5   1  106.19   18.70
  -5   5  -1   80.49   11.90
   5  -5   1  125.69   24.60
   5  -5   1   93.39   18.40
   5  -5   1  114.09   19.80
   6  -5   1   31.40   21.90
   6  -5   1   59.49   14.00
   8   4  -1  -11.90   18.50
   8   4  -1   22.80   12.60
  -8  -4   1   35.20   16.80
   7   4  -1   19.70   10.30
   7   4  -1   21.80    9.80
   7   4  -1    8.50   14.80
  -7  -4   1   40.00   15.70
  -7  -4   1   17.20   11.30
   6   4  -1  152.88   15.40
   6   4  -1  189.38   15.20
   6   4  -1  148.39   22.20
   6   4  -1  159.68   13.90
   6   4  -1  150.68   25.30
  -6  -4   1  140.89   16.60
  -6  -4   1  128.89   19.80
  -6  -4   1  159.28   22.50
   5   4  -1  179.38   14.10
   5   4  -1  207.48   13.90
   5   4  -1  187.98   14.70
   5   4  -1  167.48   17.90
   5   4  -1  162.88   21.10
  -5  -4   1  177.98   21.00
  -5  -4   1  180.48    9.60
  -5  -4   1  193.48   16.80
  -5  -4   1  154.98   18.40
   4   4  -1   21.40    8.20
   4   4  -1   17.00    7.70
   4   4  -1   21.80    4.60
   4   4  -1   24.00    9.80
   4   4  -1   18.40    4.50
   4   4  -1   18.60   11.30
  -4  -4   1   11.80    7.30
  -4  -4   1   22.10    4.10
  -4  -4   1   21.00    9.70
  -4  -4   1   17.00    8.10
  -4  -4   1   12.10    9.80
   3   4  -1  297.27   14.50
   3   4  -1  277.37   16.80
   3   4  -1  278.17   18.80
   3   4  -1  303.57   12.90
   3   4  -1  308.77   20.60
   3   4  -1  293.97   12.90
   3   4  -1  271.57   21.10
  -3  -4   1  298.07   18.50
  -3  -4   1  273.97   17.90
  -3  -4   1  266.07   20.90
  -3  -4   1  278.37   19.20
   2   4  -1  700.23   34.50
   2   4  -1  743.63   32.30
   2   4  -1  729.93   31.80
   2   4  -1  702.73   30.70
   2   4  -1  738.13   27.80
  -2  -4   1  711.63   31.70
  -2  -4   1  742.63   31.20
  -2  -4   1  718.83   31.90
  -2  -4   1  745.43   33.20
   1   4  -1  596.74   27.60
   1   4  -1  636.04   29.00
   1   4  -1  634.04   24.60
   1   4  -1  651.03   28.90
   1   4  -1  610.04   28.90
  -1  -4   1  640.64   28.90
  -1  -4   1  640.14   28.60
  -1  -4   1  666.33   28.00
  -1  -4   1  680.03   29.70
   0   4  -1  138.29    7.90
   0   4  -1  127.99   12.70
   0   4  -1  125.39   14.60
   0   4  -1  137.99   14.70
   0   4  -1  137.49   12.60
   0  -4   1  114.39   13.90
   0  -4   1  152.38   15.00
   0  -4   1  140.99   13.80
   0  -4   1  137.29    7.90
   0  -4   1  142.19   14.10
  -1   4  -1  355.86   21.80
  -1   4  -1  378.06   16.00
   1  -4   1  375.06   20.60
   1  -4   1  388.16   22.00
   1  -4   1  364.66   16.70
   1  -4   1  373.06   20.90
   1  -4   1  371.76   21.40
  -2   4  -1   12.90    9.30
  -2   4  -1   23.80    4.50
  -2   4  -1   14.10    4.50
   2  -4   1   17.20    5.50
   2  -4   1   23.50    9.30
   2  -4   1   23.10   10.80
   2  -4   1   26.10    9.70
   2  -4   1   32.00   10.40
   2  -4   1   15.40    8.00
   2  -4   1   16.30    7.40
   2  -4   1   17.30    6.30
  -3   4  -1   -1.40   10.10
  -3   4  -1    0.20    6.80
  -3   4  -1    0.30    5.30
   3  -4   1    1.80    8.20
   3  -4   1    6.00    9.50
   3  -4   1    2.40    5.90
   3  -4   1  -12.00    7.60
   3  -4   1    1.80    9.80
   3  -4   1    2.20    8.40
   3  -4   1    2.00    9.80
   3  -4   1    3.30    7.00
  -4   4  -1  100.19    8.70
   4  -4   1   92.49   20.70
   4  -4   1  100.99   15.80
   4  -4   1   73.69   16.00
   4  -4   1   69.29   16.80
   4  -4   1  115.79   13.40
  -5   4  -1   59.69    9.40
   5  -4   1   61.99   15.50
   5  -4   1   69.39   13.80
   6  -4   1   27.60   13.20
   6  -4   1    8.80   16.10
   6  -4   1   18.50   13.20
   7  -4   1   37.60   20.60
   7  -4   1   26.50   20.00
   7  -4   1   39.00   14.10
   8   3  -1   37.80   12.70
  -8  -3   1   33.20   17.50
   7   3  -1   34.80   10.20
   7   3  -1    3.40   14.30
   7   3  -1    7.30   10.20
  -7  -3   1   39.30   14.40
   6   3  -1   39.60    9.90
   6   3  -1   79.19   15.30
   6   3  -1   59.89   14.20
  -6  -3   1   77.09   19.70
  -6  -3   1   68.09   11.80
  -6  -3   1   51.39   10.20
   5   3  -1   99.29   10.70
   5   3  -1  102.39   11.70
   5   3  -1  110.39   18.20
   5   3  -1   88.89   15.30
  -5  -3   1   79.89   17.50
  -5  -3   1   92.39    6.10
  -5  -3   1  110.79   15.20
  -5  -3   1   91.29   12.20
   4   3  -1   61.29   12.90
   4   3  -1   59.19    9.60
   4   3  -1   62.29    8.90
   4   3  -1   80.29   16.60
   4   3  -1   75.59   15.70
  -4  -3   1   62.59    5.50
  -4  -3   1   55.59    8.80
  -4  -3   1   73.19   11.80
  -4  -3   1   57.29   12.30
  -4  -3   1   65.29   12.40
   3   3  -1  109.79   15.30
   3   3  -1   94.19   12.50
   3   3  -1   91.29    7.20
   3   3  -1   91.19    5.90
   3   3  -1  100.39    9.60
   3   3  -1   65.19   11.70
  -3  -3   1   63.79   12.10
  -3  -3   1   87.89   13.00
  -3  -3   1   68.09   10.20
  -3  -3   1   93.89   10.60
   2   3  -1  856.91   36.40
   2   3  -1  860.01   34.40
   2   3  -1  901.01   35.70
   2   3  -1  858.21   31.70
   2   3  -1  877.11   35.10
   2   3  -1  861.71   31.70
   2   3  -1  867.21   31.90
  -2  -3   1  885.01   35.30
  -2  -3   1  884.31   35.10
  -2  -3   1  886.21   35.00
  -2  -3   1  906.61   36.60
   1   3  -1   40.20    6.80
   1   3  -1   30.60    4.60
   1   3  -1   37.50    8.40
  -1  -3   1   30.90    6.70
  -1  -3   1   30.00    5.60
  -1  -3   1   43.30    8.60
   0   3  -1   29.70    6.00
   0   3  -1   21.40    6.00
   0   3  -1   46.10   10.10
   0   3  -1   25.20    4.00
   0   3  -1   46.70    9.70
   0  -3   1   26.10    6.40
   0  -3   1   42.90   10.10
   0  -3   1   24.20    3.90
  -1   3  -1   80.79   11.50
  -1   3  -1   77.49    5.90
  -1   3  -1   74.89   11.00
  -1   3  -1   51.69    9.20
   1  -3   1   62.49    6.30
   1  -3   1   85.19   11.40
   1  -3   1   73.39    9.90
   1  -3   1   69.79   11.40
   1  -3   1   77.79   11.40
  -2   3  -1 1456.45   57.69
  -2   3  -1 1527.05   53.29
  -2   3  -1 1438.16   54.49
   2  -3   1 1465.65   56.19
   2  -3   1 1501.75   56.39
   2  -3   1 1512.75   57.09
   2  -3   1 1493.95   54.89
   2  -3   1 1509.95   55.89
   2  -3   1 1514.25   56.99
   2  -3   1 1447.76   55.59
  -3   3  -1  318.47   13.80
  -3   3  -1  300.87   16.40
   3  -3   1  303.87   17.00
   3  -3   1  302.97   21.60
   3  -3   1  311.47   18.90
   3  -3   1  318.37   17.30
   3  -3   1  306.07   18.10
   3  -3   1  322.87   19.70
   3  -3   1  291.37   20.00
  -4   3  -1  304.07   13.90
  -4   3  -1  287.57   18.20
   4  -3   1  309.47   19.70
   4  -3   1  278.77   21.60
   4  -3   1  306.07   20.50
   4  -3   1  289.87   26.10
   4  -3   1  306.17   18.90
   4  -3   1  306.27   18.70
   4  -3   1  315.37   22.60
   4  -3   1  329.37   19.50
  -5   3  -1  130.99   18.20
  -5   3  -1  112.89    9.30
   5  -3   1  121.89   14.90
   5  -3   1   99.69   17.30
   5  -3   1  109.69   19.50
   5  -3   1  106.39   20.70
   5  -3   1  128.69   19.30
  -6   3  -1    5.50    6.40
   6  -3   1   23.20   11.00
   6  -3   1   22.40   10.20
   6  -3   1   16.30   13.30
  -7   3  -1   98.19   19.20
   7  -3   1  148.09   24.70
   7   2  -1    5.90   14.20
   7   2  -1   17.30    9.30
   7   2  -1  -12.20   10.10
  -7  -2   1    5.70    9.80
   6   2  -1    3.60    9.10
  -6  -2   1    6.30    7.60
  -6  -2   1    8.50   10.80
   5   2  -1   95.99   12.30
   5   2  -1   74.09   15.20
   5   2  -1   97.89   19.00
   5   2  -1   88.19   17.00
   5   2  -1   86.79    8.50
  -5  -2   1   96.19   11.70
  -5  -2   1   68.89   12.00
  -5  -2   1   61.69   13.40
  -5  -2   1   89.29   19.90
   4   2  -1    3.80    7.10
   4   2  -1    9.90    5.10
   4   2  -1   13.80    8.30
   4   2  -1    2.90    4.50
   4   2  -1   12.30    6.60
  -4  -2   1    4.80    5.90
  -4  -2   1   14.20    6.50
  -4  -2   1    4.40    7.70
  -4  -2   1   -0.20    5.60
  -4  -2   1    1.70    4.60
   3   2  -1  265.67   12.70
   3   2  -1  266.67   18.50
   3   2  -1  252.47   13.60
   3   2  -1  258.97   16.30
   3   2  -1  268.47   15.40
  -3  -2   1  261.17   16.40
  -3  -2   1  247.38   16.70
  -3  -2   1  236.48   15.20
  -3  -2   1  261.27   12.80
  -3  -2   1  281.37   13.50
   2   2  -1 2582.04   93.79
   2   2  -1 2463.65   90.89
   2   2  -1 2544.45   90.19
   2   2  -1 2552.24   91.79
   2   2  -1 2676.03   92.69
   2   2  -1 2619.94   93.19
  -2  -2   1 2646.24   92.79
  -2  -2   1 2563.04   90.99
  -2  -2   1 2541.25   93.59
  -2  -2   1 2619.14   92.09
   1   2  -1 2302.17   79.09
   1   2  -1 2057.29   76.49
   1   2  -1 2147.59   79.69
   1   2  -1 2114.89   78.59
   1   2  -1 2226.78   78.79
   1   2  -1 2144.09   76.99
  -1  -2   1 2207.18   78.59
  -1  -2   1 2357.76   79.19
  -1  -2   1 2209.48   79.99
  -1  -2   1 2208.18   78.89
   0   2  -1  129.89    9.50
   0   2  -1  153.78   10.40
   0   2  -1  130.09    6.40
   0  -2   1  109.29    5.50
   0  -2   1  140.19    9.70
   0  -2   1  120.59    5.30
  -1   2  -1  758.92   28.40
  -1   2  -1  705.23   25.80
   1  -2   1  738.73   28.30
   1  -2   1  674.43   29.60
   1  -2   1  672.33   28.00
   1  -2   1  723.23   28.50
   1  -2   1  666.73   26.20
  -2   2  -1 1205.58   45.90
  -2   2  -1 1276.67   44.60
  -2   2  -1 1200.78   48.00
   2  -2   1 1230.78   46.70
   2  -2   1 1228.48   48.10
   2  -2   1 1235.78   46.80
   2  -2   1 1292.97   46.80
   2  -2   1 1262.47   47.80
   2  -2   1 1268.67   47.10
  -3   2  -1  921.71   36.50
  -3   2  -1  946.11   33.80
  -3   2  -1  912.11   37.10
   3  -2   1  944.91   36.90
   3  -2   1  909.51   36.90
   3  -2   1  910.51   36.50
   3  -2   1  919.71   38.70
   3  -2   1  977.70   37.00
   3  -2   1  958.80   37.60
   3  -2   1  928.61   37.80
   3  -2   1  908.61   38.90
  -4   2  -1   91.69    6.70
  -4   2  -1   74.29   11.50
  -4   2  -1   69.69   13.30
   4  -2   1   67.89    9.40
   4  -2   1   76.59   10.80
   4  -2   1   85.09   11.60
   4  -2   1   65.89   11.30
   4  -2   1   83.49   15.30
   4  -2   1   81.29   14.90
   4  -2   1   62.39   12.60
   4  -2   1   69.69   12.20
  -5   2  -1  204.18   19.20
  -5   2  -1  218.58   10.60
   5  -2   1  192.68   18.80
   5  -2   1  203.28   14.50
   5  -2   1  221.28   21.00
   5  -2   1  214.98   18.00
   5  -2   1  211.88   15.20
   5  -2   1  224.88   20.30
  -6   2  -1   47.60   12.90
   6  -2   1   27.30   13.00
   6  -2   1   47.80    9.50
   6  -2   1   61.39   11.60
   6  -2   1   28.00   10.50
  -7   2  -1  176.08   27.20
   7  -2   1  189.98   24.20
   7  -2   1  140.79   32.70
   7  -2   1  146.69   23.40
   8   1  -1  120.29   25.90
   7   1  -1   14.70   11.10
   7   1  -1   -1.40   14.30
  -7  -1   1    8.40    9.20
   6   1  -1   14.30    9.80
  -6  -1   1   27.40    7.70
  -6  -1   1   41.30   16.40
   5   1  -1  110.39   18.10
   5   1  -1  117.59   16.30
   5   1  -1  126.09   17.50
   5   1  -1  136.79   13.40
  -5  -1   1  102.29   13.10
  -5  -1   1  101.89   12.80
  -5  -1   1   88.29   16.30
   4   1  -1  197.58   17.00
   4   1  -1  196.98   13.10
   4   1  -1  203.08   15.40
   4   1  -1  204.28   16.40
   4   1  -1  192.98    9.20
  -4  -1   1  178.98   15.80
  -4  -1   1  184.58   13.00
  -4  -1   1  189.98   14.80
  -4  -1   1  183.48   18.30
   3   1  -1   20.40    5.70
   3   1  -1   13.10    5.60
   3   1  -1    9.30    3.80
   3   1  -1   20.40    6.30
  -3  -1   1   12.20    4.80
  -3  -1   1   13.20    5.20
  -3  -1   1   10.60    3.70
  -3  -1   1   14.60    6.10
   2   1  -1  166.98    8.90
   2   1  -1  169.58   10.90
   2   1  -1  197.08   12.20
   2   1  -1  186.58   11.30
   2   1  -1  157.38    8.20
  -2  -1   1  145.59    8.90
  -2  -1   1  148.99   11.70
  -2  -1   1  157.78   10.00
  -2  -1   1  187.18    8.60
  -2  -1   1  184.78   10.70
   1   1  -1   44.30    5.30
   1   1  -1   44.70    6.70
   1   1  -1   45.20    4.70
  -1  -1   1   35.50    5.20
  -1  -1   1   37.30    4.90
   0   1  -1  670.23   24.10
   0   1  -1  589.94   25.10
   0   1  -1  584.24   23.10
   0   1  -1  757.32   25.00
   0  -1   1  737.33   24.90
   0  -1   1  686.73   24.00
   0  -1   1  608.04   23.20
   0  -1   1  592.14   25.10
   0  -1   1  659.43   24.80
  -1   1  -1  855.11   29.40
  -1   1  -1  739.83   29.30
   1  -1   1  833.82   29.30
   1  -1   1  753.32   28.40
   1  -1   1  753.92   29.30
   1  -1   1  740.13   29.40
   1  -1   1  777.12   29.60
   1  -1   1  791.92   29.40
  -2   1  -1  840.92   29.40
  -2   1  -1  805.82   31.50
  -2   1  -1  797.12   30.90
   2  -1   1  828.72   31.50
   2  -1   1  826.32   32.00
   2  -1   1  817.72   32.10
   2  -1   1  799.42   31.50
   2  -1   1  800.02   32.30
   2  -1   1  827.02   31.10
   2  -1   1  826.32   31.00
  -3   1  -1  502.65   18.30
  -3   1  -1  532.95   21.10
  -3   1  -1  482.05   21.10
  -3   1  -1  453.95   21.50
   3  -1   1  458.95   21.50
   3  -1   1  484.95   23.10
   3  -1   1  489.35   21.20
   3  -1   1  480.65   22.80
   3  -1   1  497.75   21.00
   3  -1   1  512.55   21.20
  -4   1  -1  219.88    8.90
  -4   1  -1  186.68   14.90
   4  -1   1  189.08   14.80
   4  -1   1  205.38   12.60
   4  -1   1  202.38   13.80
   4  -1   1  182.68   13.30
   4  -1   1  185.08   16.40
   4  -1   1  188.28   16.50
  -5   1  -1  191.98   18.20
  -5   1  -1  205.58    9.50
   5  -1   1  217.38   17.90
   5  -1   1  187.58   19.30
   5  -1   1  193.38   16.00
   5  -1   1  198.68   16.90
   6  -1   1   83.79   16.40
  -7   1  -1   13.90   12.20
   7  -1   1   -4.50   13.80
   7  -1   1   -6.20   11.00
   7  -1   1    9.20   10.30
  -8   1  -1   69.29   19.70
   8  -1   1   57.39   21.30
   8  -1   1   60.69   15.50
  -8   0   1  180.98   35.30
   7   0  -1  -10.30   11.00
   7   0  -1    3.90   14.00
  -7   0   1   28.40   13.20
   6   0  -1    7.40    9.50
   6   0  -1    8.00   11.20
  -6   0   1   20.60    8.70
  -6   0   1   12.80    7.60
   5   0  -1   14.90   10.00
   5   0  -1   28.50    9.60
   5   0  -1   21.50   10.20
   5   0  -1   30.70    8.70
  -5   0   1   18.70    6.30
  -5   0   1   13.30    9.00
  -5   0   1   20.90    7.60
   4   0  -1  242.98   18.00
   4   0  -1  276.17   16.60
   4   0  -1  265.47   15.70
   4   0  -1  242.68   17.30
  -4   0   1  249.28   14.60
  -4   0   1  234.48   15.20
  -4   0   1  226.78   16.30
   3   0  -1   68.29   10.20
   3   0  -1   51.09    7.90
   3   0  -1   74.89   10.10
  -3   0   1   54.59    7.80
  -3   0   1   77.79    9.70
  -3   0   1   59.49    9.60
   2   0  -1  244.38   13.00
   2   0  -1  262.77   12.70
   2   0  -1  244.98   13.00
   2   0  -1  229.38   11.50
  -2   0   1  214.88   12.50
  -2   0   1  227.58   11.70
  -2   0   1  229.68   12.70
  -2   0   1  251.37   12.00
   1   0  -1  414.06   15.80
   1   0  -1  367.76   15.10
   1   0  -1  373.86   15.80
   1   0  -1  390.86   15.60
  -1   0   1  360.96   15.40
  -1   0   1  362.86   15.00
  -1   0   1  394.66   15.60
  -1   0   1  376.66   14.00
  -1   0   1  381.06   15.80
   0   0  -1   10.10    1.80
   0   0  -1   13.00    2.90
   0   0  -1   15.50    2.80
   0   0   1    9.60    2.70
   0   0   1   18.60    3.20
  -1   0  -1 1264.67   49.10
  -1   0  -1 1355.36   49.20
  -1   0  -1 1373.76   48.90
  -1   0  -1 1449.15   48.40
  -1   0  -1 1320.77   48.80
   1   0   1 1375.86   49.20
   1   0   1 1348.27   49.20
   1   0   1 1464.05   48.50
  -2   0  -1  689.33   26.30
  -2   0  -1  715.73   27.20
  -2   0  -1  655.53   26.70
   2   0   1  696.63   26.30
   2   0   1  659.13   26.70
   2   0   1  681.33   30.50
   2   0   1  711.83   25.20
   2   0   1  690.43   26.30
  -3   0  -1  267.87   14.50
  -3   0  -1  274.37   12.30
  -3   0  -1  277.47   15.10
  -3   0  -1  291.57   13.60
   3   0   1  289.17   13.20
   3   0   1  298.57   12.70
   3   0   1  297.57   15.40
   3   0   1  272.47   14.80
   3   0   1  279.27   13.80
  -4   0  -1   22.90    6.60
  -4   0  -1    9.50    6.20
  -4   0  -1    6.80    5.50
  -4   0  -1   15.30    6.40
   4   0   1   20.40    5.00
   4   0   1   22.30    5.80
   4   0   1   11.10    6.60
   4   0   1   16.90    5.20
   4   0   1   19.90    7.10
  -5   0  -1  434.26   24.60
  -5   0  -1  440.46   20.40
   5   0   1  448.36   22.30
   5   0   1  457.25   26.80
   5   0   1  442.56   24.30
   5   0   1  473.85   22.00
   5   0   1  448.86   19.80
  -6   0  -1  328.07   22.80
   6   0   1  305.07   19.30
   6   0   1  286.37   15.90
   6   0   1  337.77   25.20
  -7   0  -1    9.10   13.10
   7   0   1    7.70    9.60
   7   0   1   14.90   13.00
   8   0   1   41.80   19.30
   8   0   1   53.69   13.30
   7  -1  -1   22.10   13.10
   7  -1  -1   17.20   17.60
   6  -1  -1    6.10    9.80
   6  -1  -1    5.30   12.50
  -6   1   1   19.10    8.60
  -6   1   1   16.90   12.40
  -6   1   1    9.40    8.20
   5  -1  -1   76.49   16.10
   5  -1  -1   39.10   11.00
   5  -1  -1   56.59   10.80
  -5   1   1   46.20    7.70
  -5   1   1   46.70   10.20
  -5   1   1   67.59   13.30
   4  -1  -1   33.30    7.50
   4  -1  -1   24.20    8.10
   4  -1  -1   33.80    9.20
   4  -1  -1   21.80    6.00
   4  -1  -1   28.50    8.90
  -4   1   1   26.20    7.70
  -4   1   1   23.80    6.10
  -4   1   1   20.20    6.20
   3  -1  -1   67.39   11.10
   3  -1  -1   62.49   11.40
   3  -1  -1   51.59    9.60
   3  -1  -1   54.59    8.60
  -3   1   1   42.20    8.60
  -3   1   1   40.30    8.10
  -3   1   1   66.09    8.80
   2  -1  -1 1176.58   42.00
   2  -1  -1 1107.59   42.10
   2  -1  -1 1107.99   43.30
   2  -1  -1 1129.29   43.10
   2  -1  -1 1113.79   41.70
  -2   1   1 1084.89   41.50
  -2   1   1 1151.38   41.60
  -2   1   1 1061.99   41.70
   1  -1  -1  326.87   15.80
   1  -1  -1  384.96   14.80
   1  -1  -1  370.56   13.10
   1  -1  -1  326.77   14.00
   1  -1  -1  313.77   14.60
  -1   1   1  302.87   15.10
  -1   1   1  314.27   13.80
  -1   1   1  350.46   13.00
  -1   1   1  369.26   14.60
  -1   1   1  329.27   15.90
   0  -1  -1    1.10    1.70
   0  -1  -1    2.80    2.20
   0  -1  -1    1.20    0.90
   0  -1  -1    2.00    2.80
   0   1   1    1.60    2.20
   0   1   1   -1.10    1.90
   0   1   1   -0.30    1.70
  -1  -1  -1  380.56   14.30
  -1  -1  -1  407.96   15.10
  -1  -1  -1  376.86   14.70
   1   1   1  382.56   14.30
   1   1   1  366.46   14.40
   1   1   1  333.07   14.80
   1   1   1  382.76   14.70
  -2  -1  -1 2289.37   80.49
  -2  -1  -1 2296.37   81.29
  -2  -1  -1 2133.89   81.29
   2   1   1 2216.78   81.09
   2   1   1 2349.86   82.09
   2   1   1 2322.27   80.49
  -3  -1  -1   61.49    8.20
  -3  -1  -1   63.89    4.70
  -3  -1  -1   54.09    6.60
  -3  -1  -1   42.70    7.50
   3   1   1   55.29    6.40
   3   1   1   51.79    6.40
   3   1   1   56.79    7.70
   3   1   1   54.79    8.20
   3   1   1   66.59    5.90
   3   1   1   59.79    6.50
  -4  -1  -1  293.57   17.70
  -4  -1  -1  349.67   17.20
  -4  -1  -1  324.07   18.40
  -4  -1  -1  335.97   14.10
   4   1   1  342.27   15.50
   4   1   1  323.17   16.50
   4   1   1  327.87   16.90
   4   1   1  337.37   15.20
   4   1   1  323.77   18.20
   4   1   1  336.57   19.00
  -5  -1  -1  605.74   30.00
  -5  -1  -1  612.94   26.10
  -5  -1  -1  580.74   30.00
  -5  -1  -1  622.24   24.80
   5   1   1  625.54   27.80
   5   1   1  636.24   31.20
   5   1   1  615.94   29.80
   5   1   1  645.24   26.60
   5   1   1  620.34   25.40
   5   1   1  621.44   28.40
  -6  -1  -1  340.07   18.20
  -6  -1  -1  391.96   24.70
  -6  -1  -1  361.16   18.00
   6   1   1  421.56   26.50
   6   1   1  344.77   18.50
   6   1   1  384.46   22.40
   6   1   1  345.87   20.20
  -7  -1  -1   23.00    7.70
  -7  -1  -1   18.80   12.10
   7   1   1    9.20    9.90
   7   1   1   12.20    8.80
   7   1   1    2.10   12.50
   7   1   1   -3.20    8.40
  -8  -1  -1   41.60   16.00
   8   1   1   44.00   13.10
  -7   2   1  209.08   25.30
  -7   2   1  205.38   29.40
   6  -2  -1   29.00   14.00
  -6   2   1   56.59   11.20
  -6   2   1   42.10   12.80
   5  -2  -1   56.99   12.40
   5  -2  -1   75.49   11.40
   5  -2  -1   68.69   14.90
  -5   2   1   77.99   13.10
  -5   2   1   98.59   16.20
   4  -2  -1   40.80    8.30
   4  -2  -1   23.50    9.30
   4  -2  -1   30.40    9.70
   4  -2  -1   35.70    7.70
   4  -2  -1   34.10    8.30
  -4   2   1   39.10    8.30
  -4   2   1   35.10    7.50
  -4   2   1   35.50    7.40
   3  -2  -1  250.97   14.40
   3  -2  -1  260.47   10.50
   3  -2  -1  242.28   18.10
   3  -2  -1  259.37   17.90
   3  -2  -1  259.87   15.50
   3  -2  -1  249.18   12.60
   3  -2  -1  268.77   16.10
   3  -2  -1  274.97   12.00
  -3   2   1  244.18   14.20
  -3   2   1  243.48   14.90
  -3   2   1  251.37   18.30
   2  -2  -1 1142.19   44.60
   2  -2  -1 1187.58   42.80
   2  -2  -1 1101.49   41.40
   2  -2  -1 1114.49   42.60
   2  -2  -1 1128.69   40.80
  -2   2   1 1079.89   41.40
  -2   2   1 1135.29   42.40
  -2   2   1 1075.49   42.20
  -2   2   1 1082.29   44.50
   1  -2  -1  845.12   32.30
   1  -2  -1  942.11   33.30
   1  -2  -1  878.61   34.00
   1  -2  -1  930.61   34.10
  -1   2   1  903.41   35.70
  -1   2   1  861.01   33.60
  -1   2   1  858.71   32.30
  -1   2   1  890.81   33.10
  -1   2   1  924.61   34.00
   0  -2  -1  224.68   10.60
   0  -2  -1  214.98   12.20
   0  -2  -1  208.48   10.80
   0   2   1  190.68   10.30
   0   2   1  206.98   10.30
   0   2   1  203.38   12.80
   0   2   1  196.38   10.50
  -1  -2  -1  759.72   28.50
  -1  -2  -1  677.53   26.70
  -1  -2  -1  713.53   27.10
  -1  -2  -1  736.63   28.10
  -1  -2  -1  709.43   26.60
   1   2   1  716.83   27.70
   1   2   1  683.83   26.80
   1   2   1  732.23   26.90
   1   2   1  778.62   28.70
  -2  -2  -1 1619.84   60.09
  -2  -2  -1 1647.14   61.29
  -2  -2  -1 1687.13   61.59
  -2  -2  -1 1635.24   61.19
  -2  -2  -1 1720.73   59.69
   2   2   1 1767.52   59.69
   2   2   1 1755.42   61.99
   2   2   1 1745.03   60.99
   2   2   1 1613.34   60.29
   2   2   1 1656.43   61.09
  -3  -2  -1  126.29   10.50
  -3  -2  -1  140.09   10.90
  -3  -2  -1  154.78   10.00
  -3  -2  -1  156.78    8.50
   3   2   1  134.69    9.00
   3   2   1  144.79   11.00
   3   2   1  141.79   10.90
   3   2   1  171.08    8.20
   3   2   1  157.18    9.80
  -4  -2  -1   43.70    7.60
  -4  -2  -1   55.89   10.40
  -4  -2  -1   59.89    8.40
  -4  -2  -1   65.99    6.80
   4   2   1   56.39   11.60
   4   2   1   64.09    8.40
   4   2   1   58.99   11.10
   4   2   1   45.00    8.10
   4   2   1   47.90    7.50
  -5  -2  -1   -4.50    6.30
  -5  -2  -1   -2.70    6.50
  -5  -2  -1    3.00    3.80
  -5  -2  -1   -4.40    7.30
   5   2   1   -6.80    4.90
   5   2   1    0.50    8.30
   5   2   1    2.70    7.30
   5   2   1   -0.50    5.40
   5   2   1    2.60    5.00
   5   2   1   -2.30    7.40
  -6  -2  -1   82.79   11.60
  -6  -2  -1  102.39   16.90
  -6  -2  -1   85.59   11.40
   6   2   1   90.09   13.70
   6   2   1   78.59   11.20
   6   2   1   87.59   12.70
   6   2   1  126.19   19.60
  -7  -2  -1  139.99   21.90
  -7  -2  -1  133.29   13.00
  -7  -2  -1  127.79   12.70
   7   2   1  115.89   24.10
   7   2   1  104.69   15.00
   7   2   1  102.29   11.70
   7   2   1  131.49   17.40
  -8  -2  -1   25.00   15.30
   8   2   1   23.80   11.70
   8   2   1   -9.90   15.50
   9   2   1   35.30   16.90
   9   2   1  -12.00   30.10
  -7   3   1  259.47   33.30
  -7   3   1  234.88   27.50
   6  -3  -1   38.10   15.30
   6  -3  -1   43.40   14.50
  -6   3   1   70.89   16.20
   5  -3  -1  103.79   16.30
   5  -3  -1  117.79   23.90
   5  -3  -1  137.29   23.20
  -5   3   1  125.69   17.60
  -5   3   1  120.99   16.60
   4  -3  -1    0.20    9.90
   4  -3  -1   -3.60    8.00
   4  -3  -1   -4.20    3.10
   4  -3  -1   13.90    6.80
   4  -3  -1    2.50    6.90
   4  -3  -1    1.80    6.80
  -4   3   1    0.40    6.20
  -4   3   1    3.00    7.20
  -4   3   1   -3.60    6.00
   3  -3  -1   22.70    8.70
   3  -3  -1   19.40    7.10
   3  -3  -1   21.60    6.10
   3  -3  -1   29.70    7.60
   3  -3  -1   16.80    6.60
  -3   3   1   30.50    6.50
  -3   3   1   13.20    5.80
  -3   3   1   22.00    6.40
   2  -3  -1  266.77   16.10
   2  -3  -1  272.27   18.50
   2  -3  -1  250.97   14.90
   2  -3  -1  261.17   13.80
   2  -3  -1  235.98   12.40
  -2   3   1  255.77   18.60
  -2   3   1  289.67   15.20
  -2   3   1  236.18   13.80
  -2   3   1  236.88   13.10
   1  -3  -1   15.30    6.20
   1  -3  -1    9.90    4.70
  -1   3   1   11.90    6.30
  -1   3   1   16.30    4.90
  -1   3   1    9.10    2.50
   0  -3  -1  956.50   33.00
   0  -3  -1  908.01   34.90
   0  -3  -1  894.41   34.50
   0  -3  -1  965.80   36.00
   0  -3  -1  974.70   38.70
   0   3   1  797.32   36.70
   0   3   1  911.51   36.90
   0   3   1  887.61   34.90
  -1  -3  -1 1194.88   45.40
  -1  -3  -1 1249.18   45.00
  -1  -3  -1 1197.98   43.00
  -1  -3  -1 1208.38   43.60
  -1  -3  -1 1173.18   43.80
   1   3   1 1215.68   44.20
   1   3   1 1171.88   45.20
   1   3   1 1169.78   44.00
   1   3   1 1279.87   46.60
  -2  -3  -1  441.36   21.00
  -2  -3  -1  428.66   19.20
  -2  -3  -1  442.56   18.20
  -2  -3  -1  395.16   18.40
  -2  -3  -1  411.36   16.70
  -2  -3  -1  415.86   16.10
   2   3   1  386.26   24.20
   2   3   1  436.96   17.20
   2   3   1  392.86   19.60
   2   3   1  433.96   18.80
   2   3   1  442.96   20.50
  -3  -3  -1  986.90   36.90
  -3  -3  -1 1022.20   38.50
  -3  -3  -1  963.60   39.30
  -3  -3  -1  966.30   35.20
  -3  -3  -1  927.31   38.40
   3   3   1 1000.10   38.10
   3   3   1  972.80   38.80
   3   3   1 1018.50   40.10
   3   3   1  958.60   36.80
  -4  -3  -1   13.30    6.90
  -4  -3  -1   11.30    6.50
  -4  -3  -1   29.30    7.60
  -4  -3  -1   11.70    5.30
   4   3   1   28.50    7.90
   4   3   1   17.40    4.20
   4   3   1   24.80    6.90
   4   3   1    6.60    6.50
   4   3   1   17.90    7.30
   4   3   1   15.40    4.50
  -5  -3  -1   90.19   14.90
  -5  -3  -1  113.99   12.60
  -5  -3  -1  109.59   15.10
  -5  -3  -1  128.49    6.90
  -5  -3  -1  112.89   10.70
   5   3   1  115.29   11.10
   5   3   1  127.89   16.00
   5   3   1  129.79   17.50
   5   3   1  133.39   12.20
   5   3   1  107.09   12.00
   5   3   1  107.59   11.20
  -6  -3  -1    9.60    2.70
  -6  -3  -1    2.70    9.60
  -6  -3  -1   11.70    8.30
  -6  -3  -1    5.10    6.00
   6   3   1   11.60    7.00
   6   3   1    1.50    7.70
   6   3   1   -1.90    7.40
   6   3   1    4.80    5.70
  -7  -3  -1  182.28   22.80
  -7  -3  -1  165.58   16.30
  -7  -3  -1  187.98   15.70
   7   3   1  135.99   19.40
   7   3   1  156.78   26.10
   7   3   1  157.68   15.00
   7   3   1  159.08   19.20
  -8  -3  -1   16.20   15.00
   8   3   1    2.60   10.20
   8   3   1  -12.60   15.40
   9   3   1    5.10   22.20
   9   3   1   44.30   14.90
   6  -4  -1   20.80   15.70
   6  -4  -1   21.90   18.80
  -6   4   1   46.70   24.20
   5  -4  -1   31.90    4.90
   5  -4  -1   13.10   11.70
   5  -4  -1   27.00   13.50
   5  -4  -1   34.80    9.50
  -5   4   1   32.90   11.40
   4  -4  -1  220.08   11.80
   4  -4  -1  239.78   16.30
   4  -4  -1  264.17   16.70
   4  -4  -1  242.68   26.60
   4  -4  -1  232.48   17.40
   4  -4  -1  305.67   22.60
  -4   4   1  239.88   18.40
  -4   4   1  266.07   18.50
   3  -4  -1   17.80    8.50
   3  -4  -1    3.80    5.80
   3  -4  -1    6.30    7.60
   3  -4  -1    5.30    7.10
   3  -4  -1   13.00    8.90
  -3   4   1   -4.70   10.90
  -3   4   1    2.40    5.60
   2  -4  -1  263.97   21.10
   2  -4  -1  236.28   14.30
   2  -4  -1  279.17   16.30
   2  -4  -1  240.78   13.00
   2  -4  -1  261.17   17.20
   2  -4  -1  278.97   18.40
  -2   4   1  240.48   21.70
  -2   4   1  239.28   14.70
   1  -4  -1  167.58   13.00
   1  -4  -1  166.78   16.60
   1  -4  -1  146.79   13.40
   1  -4  -1  149.19   12.50
   1  -4  -1  169.18   10.10
   1  -4  -1  169.58   15.60
   1  -4  -1  144.49    8.30
  -1   4   1  163.98   11.90
  -1   4   1  161.58    8.70
  -1   4   1  150.38   16.40
  -1   4   1  142.69   10.40
   0  -4  -1  171.58   11.50
   0  -4  -1  150.08   12.70
   0  -4  -1  195.68   21.10
   0  -4  -1  135.49   13.80
   0  -4  -1  180.68   13.00
   0   4   1  167.28   15.50
   0   4   1  162.08    9.70
   0   4   1  158.28   11.80
  -1  -4  -1  122.29    8.90
  -1  -4  -1  135.29   11.80
  -1  -4  -1  125.59    7.90
  -1  -4  -1  110.99    6.70
  -1  -4  -1  110.79   11.90
  -1  -4  -1  130.29   13.90
   1   4   1  108.89   10.70
   1   4   1  120.89   14.20
   1   4   1  117.89    8.50
   1   4   1  110.69   10.00
  -2  -4  -1   76.49   10.50
  -2  -4  -1   45.70    8.70
  -2  -4  -1   66.39    5.80
  -2  -4  -1   68.79   13.20
  -2  -4  -1   58.69    5.30
  -2  -4  -1   47.20   10.10
   2   4   1   78.89   13.00
   2   4   1   73.69    8.10
   2   4   1   47.50   10.00
   2   4   1   61.29    9.50
   2   4   1   76.69   10.40
  -3  -4  -1  199.58    9.90
  -3  -4  -1  188.48   14.20
  -3  -4  -1  215.08   15.60
  -3  -4  -1  212.18   14.80
   3   4   1  211.88   14.20
   3   4   1  227.28   17.00
   3   4   1  221.48   15.40
   3   4   1  205.08   11.00
   3   4   1  206.98   13.60
  -4  -4  -1    7.20    6.40
  -4  -4  -1   -9.30    6.90
  -4  -4  -1   -2.50    3.10
  -4  -4  -1    5.30    8.20
   4   4   1   11.80    8.20
   4   4   1   -1.70    7.20
   4   4   1   -2.10    3.80
   4   4   1    1.20    7.40
   4   4   1   -4.20    5.30
   4   4   1   -4.30    3.40
  -5  -4  -1    1.50    9.90
  -5  -4  -1    4.20    3.30
  -5  -4  -1    0.10    8.90
  -5  -4  -1    0.40   10.10
  -5  -4  -1   -7.50    8.50
   5   4   1    4.30    9.10
   5   4   1    4.00    8.10
   5   4   1    3.90    9.20
   5   4   1    5.40    4.80
   5   4   1   -5.90    5.60
   5   4   1   -3.00    4.90
  -6  -4  -1   47.00    6.70
  -6  -4  -1   63.29   12.10
  -6  -4  -1   38.50    7.60
   6   4   1   42.40    7.30
   6   4   1   56.89   10.50
   6   4   1   42.40   12.50
   6   4   1   42.20    7.90
   6   4   1   65.79   11.50
  -7  -4  -1   73.69   16.10
  -7  -4  -1   52.19    8.90
   7   4   1   58.59   11.10
   7   4   1   34.10   14.40
   7   4   1   42.20    8.30
   7   4   1   57.19   11.70
   8   4   1   54.19   12.00
   6  -5  -1   42.30   17.60
   6  -5  -1   65.59   23.00
   5  -5  -1   80.29    9.50
   5  -5  -1   82.29   16.60
   5  -5  -1   71.49   18.10
   5  -5  -1   73.79   14.10
   4  -5  -1  301.47   21.60
   4  -5  -1  319.87   25.20
   4  -5  -1  333.07   16.10
   4  -5  -1  358.56   19.50
   4  -5  -1  389.86   29.90
  -4   5   1  395.46   23.00
   3  -5  -1   54.59   11.50
   3  -5  -1   84.19   15.50
   3  -5  -1   76.69   14.70
   3  -5  -1   72.69   12.30
   3  -5  -1   91.59   12.60
   3  -5  -1   76.49   17.60
  -3   5   1   72.19   13.00
  -3   5   1  111.89   22.70
   2  -5  -1   39.90    8.40
   2  -5  -1   53.09    8.00
   2  -5  -1   75.19   14.70
   2  -5  -1   55.59   10.10
   2  -5  -1   40.20   10.60
   2  -5  -1   46.10    8.10
  -2   5   1   48.40   13.40
  -2   5   1   52.59   11.00
   1  -5  -1  390.66   21.90
   1  -5  -1  378.96   19.80
   1  -5  -1  366.16   20.30
   1  -5  -1  374.46   22.00
   1  -5  -1  364.36   25.20
   1  -5  -1  384.96   24.10
   1  -5  -1  362.56   15.90
  -1   5   1  355.46   17.80
  -1   5   1  354.86   25.70
  -1   5   1  360.46   20.20
   0  -5  -1  656.23   33.30
   0  -5  -1  651.83   30.10
   0  -5  -1  728.53   27.10
   0  -5  -1  645.84   31.00
   0  -5  -1  710.33   31.00
   0   5   1  662.23   26.50
   0   5   1  655.13   32.90
   0   5   1  629.34   29.30
  -1  -5  -1  505.15   25.10
  -1  -5  -1  526.95   22.30
  -1  -5  -1  514.45   25.40
  -1  -5  -1  495.35   27.20
  -1  -5  -1  513.85   20.80
   1   5   1  483.35   24.00
   1   5   1  525.15   27.90
   1   5   1  509.85   21.40
   1   5   1  482.25   22.80
  -2  -5  -1   37.60    9.00
  -2  -5  -1   30.60    7.30
  -2  -5  -1   37.80    4.80
  -2  -5  -1   40.00    5.10
  -2  -5  -1   34.10    9.10
  -2  -5  -1   34.70    6.90
   2   5   1   34.80    8.60
   2   5   1   36.30    9.10
   2   5   1   46.90   12.10
   2   5   1   39.00    9.70
  -3  -5  -1  287.17   19.60
  -3  -5  -1  264.17   17.90
  -3  -5  -1  275.07   17.90
  -3  -5  -1  269.07   19.40
  -3  -5  -1  277.77   13.10
   3   5   1  301.97   19.70
   3   5   1  292.77   18.20
   3   5   1  270.57   17.80
   3   5   1  300.37   14.50
   3   5   1  314.87   22.10
  -4  -5  -1  163.38   16.50
  -4  -5  -1  190.08   18.20
  -4  -5  -1  185.68   10.90
  -4  -5  -1  192.58   17.70
  -4  -5  -1  184.48   16.20
   4   5   1  178.08   11.80
   4   5   1  183.98   19.10
   4   5   1  171.48   10.70
   4   5   1  218.88   20.60
   4   5   1  184.98   15.60
   4   5   1  169.88   15.60
  -5  -5  -1  143.19   16.40
  -5  -5  -1  151.78   17.20
  -5  -5  -1  123.99   19.00
  -5  -5  -1  144.39    9.30
   5   5   1  181.58   22.00
   5   5   1  163.28   11.70
   5   5   1  144.99   17.20
   5   5   1  146.09   12.90
   5   5   1  149.39   27.90
   5   5   1  157.78   15.00
  -6  -5  -1   67.99    8.10
  -6  -5  -1   88.69   19.50
  -6  -5  -1   68.29   16.30
   6   5   1   67.99   15.40
   6   5   1   64.39   16.40
   6   5   1   69.99   13.80
   6   5   1   68.69   12.80
  -7  -5  -1   12.20   12.70
  -7  -5  -1   17.70   12.70
   7   5   1    6.10   12.50
   7   5   1    1.70    7.80
   7   5   1   -3.20   10.10
  -8  -5  -1   45.70   18.30
  -8  -5  -1   56.19   15.60
   8   5   1  -14.30   18.90
   8   5   1   23.50   10.40
   5  -6  -1   40.90   17.00
   5  -6  -1   74.99   25.00
   5  -6  -1   64.89    9.80
   4  -6  -1  167.38   20.60
   4  -6  -1  220.08   20.40
   4  -6  -1  182.18   13.10
   4  -6  -1  174.18   27.00
  -4   6   1  245.38   21.40
   3  -6  -1  216.58   21.20
   3  -6  -1  245.68   19.40
   3  -6  -1  248.78   14.60
   3  -6  -1  300.67   16.30
   3  -6  -1  238.78   25.70
  -3   6   1  256.87   29.60
  -3   6   1  307.17   19.00
   2  -6  -1   13.30    8.00
   2  -6  -1   10.60   16.20
   2  -6  -1    6.80    9.80
   2  -6  -1    7.00   11.80
  -2   6   1   27.30   13.10
   1  -6  -1  165.18   10.30
   1  -6  -1  178.18   19.00
   1  -6  -1  172.38   19.50
   1  -6  -1  134.19   16.20
  -1   6   1  141.59   23.40
  -1   6   1  160.68   12.70
  -1   6   1  181.08   16.60
   0  -6  -1  798.52   35.50
   0  -6  -1  696.03   31.40
   0  -6  -1  723.83   37.80
   0  -6  -1  735.23   34.40
   0  -6  -1  685.63   35.30
   0  -6  -1  779.92   31.50
   0   6   1  730.13   29.20
   0   6   1  739.93   38.40
   0   6   1  711.83   33.40
  -1  -6  -1  138.39   17.90
  -1  -6  -1  159.08   10.70
  -1  -6  -1  171.58   13.90
  -1  -6  -1  161.88   20.70
  -1  -6  -1  148.19    9.90
  -1  -6  -1  172.88   18.50
   1   6   1  152.88   14.90
   1   6   1  161.88   10.00
   1   6   1  147.89   21.50
   1   6   1  146.29   15.40
  -2  -6  -1   25.60   11.30
  -2  -6  -1   15.70    3.20
  -2  -6  -1   11.30    8.30
  -2  -6  -1   18.40    5.20
  -2  -6  -1    6.50    9.50
  -2  -6  -1   18.90    7.70
   2   6   1   24.60    9.70
   2   6   1   12.80    8.90
   2   6   1   18.90   11.80
  -3  -6  -1    8.10    9.50
  -3  -6  -1   15.80    7.70
  -3  -6  -1   27.80    5.20
  -3  -6  -1   17.70    8.50
  -3  -6  -1   23.30   12.10
   3   6   1   23.10    9.70
   3   6   1   18.60    5.70
   3   6   1   20.30   11.10
   3   6   1   15.00    8.90
   3   6   1   12.40   10.10
  -4  -6  -1   39.60   10.50
  -4  -6  -1   37.40    9.30
  -4  -6  -1   56.09   13.30
  -4  -6  -1   38.80    5.80
   4   6   1   42.50    7.00
   4   6   1   57.19   13.00
   4   6   1   35.10   11.90
   4   6   1   32.40    9.60
   4   6   1   32.90    6.10
   4   6   1   54.09   13.00
  -5  -6  -1    6.20    8.80
  -5  -6  -1   23.20   12.40
  -5  -6  -1    9.10    4.80
   5   6   1   11.80    5.90
   5   6   1   19.10    5.10
   5   6   1   17.30   12.00
   5   6   1   25.10    9.00
  -6  -6  -1   17.40   11.70
  -6  -6  -1    7.20    4.90
  -6  -6  -1   43.10   13.90
   6   6   1   -5.70   13.30
   6   6   1    8.00    8.80
   6   6   1    6.50    6.70
  -7  -6  -1   -8.50   14.50
  -7  -6  -1    1.90    5.40
   7   6   1  -10.20   15.40
   7   6   1    1.90    7.70
   7   6   1   -3.40    9.00
   4  -7  -1   32.90   17.50
   4  -7  -1   33.40    7.60
   4  -7  -1   34.50   19.00
   3  -7  -1  150.98   13.90
  -3   7   1  191.98   18.80
  -3   7   1  198.98   31.00
   2  -7  -1   18.90    9.40
   2  -7  -1   37.70   12.80
   2  -7  -1   31.30    6.80
  -2   7   1   62.39   17.70
   1  -7  -1  -12.80    8.30
   1  -7  -1    3.00    5.60
   1  -7  -1    2.60   15.60
   1  -7  -1    8.90    8.90
   1  -7  -1    3.60   10.90
   0  -7  -1   23.20    7.60
   0  -7  -1    9.40   14.60
   0  -7  -1   21.40    5.50
   0  -7  -1   30.70   14.40
   0   7   1   21.80    5.30
   0   7   1   46.10   13.40
  -1  -7  -1  123.39   20.10
  -1  -7  -1  149.29   19.90
  -1  -7  -1  108.99   10.90
  -1  -7  -1  120.89   13.70
  -1  -7  -1  114.09   10.40
   1   7   1  128.99    9.10
   1   7   1  120.99   14.50
   1   7   1  104.19   24.60
  -2  -7  -1   99.09   19.10
  -2  -7  -1  102.19   14.20
  -2  -7  -1   87.49   10.20
  -2  -7  -1   96.89    6.80
   2   7   1   85.59   15.80
   2   7   1   77.59   12.70
  -3  -7  -1   36.50    6.40
  -3  -7  -1   35.30   10.00
  -3  -7  -1   38.50   15.50
  -3  -7  -1   43.60   10.00
   3   7   1   16.40   11.70
   3   7   1   26.90   13.30
  -4  -7  -1   44.40   10.90
  -4  -7  -1   59.49    9.30
  -4  -7  -1   71.79   16.50
   4   7   1   42.70   13.90
   4   7   1   29.90   13.40
   4   7   1   40.50    7.10
   4   7   1   52.29   11.50
  -5  -7  -1   27.60   17.10
  -5  -7  -1   17.90   14.90
  -5  -7  -1   -2.80   10.40
  -5  -7  -1    9.20    5.40
   5   7   1    4.90   10.60
   5   7   1  -13.90   12.90
   5   7   1   -2.70    6.10
  -6  -7  -1   27.80   14.10
  -6  -7  -1    6.00    5.50
  -6  -7  -1   -6.50   15.30
   6   7   1   18.00   10.90
   6   7   1   -2.10    7.50
  -7  -7  -1   39.40   17.90
  -7  -7  -1   52.69    7.60
   3  -8  -1  128.59   24.70
   3  -8  -1  156.18   32.70
   3  -8  -1  150.18   15.10
   2  -8  -1  180.18   29.80
   2  -8  -1  176.38   15.40
   2  -8  -1  167.38   26.80
  -2   8   1  243.68   36.40
   1  -8  -1   51.39   13.80
   1  -8  -1   68.79    8.70
   1  -8  -1   70.19   20.40
  -1   8   1   85.69   18.40
   0  -8  -1   44.30   13.50
   0  -8  -1   33.80    7.20
   0  -8  -1   32.10    8.70
   0  -8  -1   30.80   17.40
   0   8   1   14.10   15.60
  -1  -8  -1   54.69    8.20
  -1  -8  -1   62.89   13.00
  -1  -8  -1   64.49   17.90
   1   8   1   75.99    7.50
   1   8   1   38.80   15.50
  -2  -8  -1  268.17   25.80
  -2  -8  -1  232.08   25.00
  -2  -8  -1  239.38   15.40
  -2  -8  -1  270.17   18.70
   2   8   1  225.98   22.60
   2   8   1  206.38   28.00
  -3  -8  -1   86.79   11.30
   3   8   1   46.10   16.70
   3   8   1   63.69   16.30
  -4  -8  -1   50.09   18.40
  -4  -8  -1   39.90    7.40
  -5  -8  -1   -2.00    6.00
  -5  -8  -1   31.10   12.80
  -5  -8  -1   -9.30   15.50
  -7  -8  -1   88.59   13.10
  -7  -8  -1   82.59   23.70
   2  -9  -1   68.79   26.30
   2  -9  -1   96.09   14.70
   1  -9  -1   39.00    9.10
   1  -9  -1   18.40   15.80
   1  -9  -1   11.80   22.00
  -1   9   1   56.69   20.60
   0  -9  -1   40.50   17.20
   0  -9  -1   53.09    9.20
   0  -9  -1   36.90   21.40
   0   9   1   52.69   19.40
  -1  -9  -1   52.49    9.10
  -1  -9  -1   36.30   15.40
  -1  -9  -1   50.99   21.70
   1   9   1   49.60   18.20
  -2  -9  -1   83.29   22.80
  -2  -9  -1   74.79   17.10
  -2  -9  -1   75.49   12.60
   2   9   1   63.59   18.90
  -3  -9  -1  151.68   14.00
  -3  -9  -1  123.19   23.30
   3   9   1   89.59   20.30
  -4  -9  -1   36.80    7.90
  -4  -9  -1   41.40   21.70
   4   9   1   12.50   18.90
   0 -10  -1   57.29   26.60
   0 -10  -1   55.09   11.60
   0  10   1   88.99   24.10
  -1 -10  -1    8.10   24.10
  -1 -10  -1   38.90   18.10
   1  10   1   42.80   22.10
  -2 -10  -1  -23.40   24.00
  -2 -10  -1   -6.90    9.40
  -2 -10  -1    9.70   17.20
   2  10   1  -13.60   19.40
  -3 -10  -1    3.80   19.30
  -3 -10  -1    9.20    9.20
   3  10   1    6.50   20.80
  -4 -10  -1   23.90    9.50
  -4 -10  -1   54.89   26.70
  -4 -10  -1  -15.70   23.10
   4  10   1   -3.20   22.60
   3   9  -2   51.49   20.00
   3   9  -2   44.50   21.70
  -3  -9   2   69.09   19.60
  -3  -9   2   33.20   26.70
   2   9  -2   58.59   19.90
  -2  -9   2   62.29   26.90
  -2  -9   2   53.39   19.40
   1   9  -2  363.56   36.50
  -1  -9   2  271.37   33.40
  -1  -9   2  253.37   36.70
   0   9  -2  154.38   22.70
   0  -9   2  106.69   29.30
   5   8  -2  299.67   38.10
  -5  -8   2  239.28   37.40
  -5  -8   2  286.17   18.60
   4   8  -2  277.77   36.30
  -4  -8   2  196.88   33.10
  -4  -8   2  259.87   17.00
  -4  -8   2  314.07   32.40
   3   8  -2  160.38   33.30
  -3  -8   2  156.88   26.90
  -3  -8   2  145.59   29.10
   2   8  -2  290.57   35.20
   2   8  -2  291.47   18.10
   2   8  -2  284.17   32.70
  -2  -8   2  265.27   32.40
  -2  -8   2  258.17   31.10
   1   8  -2  312.97   18.40
   1   8  -2  240.68   36.10
   1   8  -2  311.77   38.80
  -1  -8   2  216.48   30.30
  -1  -8   2  272.57   32.10
   0   8  -2  296.27   31.50
   0   8  -2  282.37   17.60
   0  -8   2  292.57   31.50
   0  -8   2  286.67   33.00
  -1   8  -2  330.97   32.90
  -1   8  -2  253.57   17.20
   1  -8   2  284.77   33.00
   1  -8   2  209.48   31.40
  -2   8  -2  178.28   17.10
   2  -8   2  172.98   31.60
   2  -8   2  150.38   31.30
  -3   8  -2  349.77   42.10
   6   7  -2   62.79   16.80
  -6  -7   2   47.70    8.50
  -6  -7   2   60.49   22.90
   5   7  -2  217.18   32.00
   5   7  -2  270.77   31.20
  -5  -7   2  333.37   32.60
  -5  -7   2  236.38   30.90
  -5  -7   2  281.17   16.80
   4   7  -2  304.67   31.10
   4   7  -2  294.67   35.10
  -4  -7   2  296.07   29.70
  -4  -7   2  369.06   32.80
   3   7  -2  617.64   38.40
   3   7  -2  603.64   37.50
   3   7  -2  610.14   27.10
  -3  -7   2  649.83   38.90
  -3  -7   2  630.94   37.70
   2   7  -2  709.13   40.80
   2   7  -2  671.23   29.10
   2   7  -2  654.23   38.30
  -2  -7   2  766.62   40.10
  -2  -7   2  683.63   39.50
   1   7  -2  432.86   21.70
   1   7  -2  424.56   30.40
   1   7  -2  464.05   33.40
  -1  -7   2  462.35   32.10
  -1  -7   2  450.85   32.60
   0   7  -2  800.62   35.80
   0   7  -2  680.93   38.40
   0   7  -2  698.03   41.30
   0   7  -2  660.23   29.40
   0  -7   2  684.73   39.50
   0  -7   2  671.93   40.00
  -1   7  -2  508.25   24.30
  -1   7  -2  594.54   34.40
   1  -7   2  533.55   34.90
   1  -7   2  444.36   36.70
  -2   7  -2  751.42   42.00
  -2   7  -2  699.63   29.80
   2  -7   2  693.33   28.90
   2  -7   2  674.53   40.20
   2  -7   2  577.44   39.00
   2  -7   2  656.03   40.10
  -3   7  -2  444.06   22.70
   3  -7   2  474.85   25.90
   3  -7   2  423.46   34.50
   3  -7   2  374.56   34.70
   3  -7   2  449.76   35.80
  -4   7  -2   87.59   14.40
   4  -7   2   62.29   17.30
   4  -7   2   42.70   25.10
   7   6  -2  169.28   28.20
   7   6  -2  240.48   31.00
   6   6  -2  233.78   28.40
  -6  -6   2  219.38   14.70
  -6  -6   2  278.07   31.90
  -6  -6   2  197.68   27.40
   5   6  -2  235.18   13.90
   5   6  -2  216.68   26.00
  -5  -6   2  246.08   27.30
  -5  -6   2  223.88   14.30
   4   6  -2  522.35   45.60
   4   6  -2  521.65   33.80
  -4  -6   2  532.35   41.60
  -4  -6   2  592.54   35.20
   3   6  -2 1127.69   52.49
   3   6  -2 1196.68   45.40
   3   6  -2 1207.38   52.79
  -3  -6   2 1230.98   54.09
  -3  -6   2 1104.69   51.69
  -3  -6   2 1296.77   54.99
   2   6  -2 1065.19   48.50
   2   6  -2 1098.89   48.70
   2   6  -2 1066.79   41.20
   2   6  -2 1003.20   49.00
  -2  -6   2 1134.39   50.19
  -2  -6   2 1027.40   45.80
  -2  -6   2 1104.19   49.20
   1   6  -2  272.97   24.10
   1   6  -2  282.97   23.60
   1   6  -2  287.37   25.60
   1   6  -2  294.77   15.70
  -1  -6   2  284.97   24.40
  -1  -6   2  311.87   27.30
   0   6  -2  725.23   28.90
   0   6  -2  771.02   34.80
   0   6  -2  729.83   36.40
   0   6  -2  686.63   50.89
   0  -6   2  607.54   43.70
   0  -6   2  772.22   38.80
   0  -6   2  646.14   35.30
  -1   6  -2  208.68   13.70
  -1   6  -2  212.48   22.20
   1  -6   2  172.38   16.50
   1  -6   2  219.78   26.30
   1  -6   2  224.08   11.90
   1  -6   2  190.78   24.60
  -2   6  -2  907.01   36.70
  -2   6  -2  956.80   45.10
   2  -6   2  915.11   41.10
   2  -6   2  882.51   41.00
   2  -6   2  930.41   36.50
   2  -6   2  941.71   49.20
   2  -6   2  935.61   45.00
  -3   6  -2  703.53   60.69
  -3   6  -2  675.83   29.00
   3  -6   2  701.33   31.80
   3  -6   2  678.83   37.60
   3  -6   2  698.43   30.60
   3  -6   2  683.03   38.50
   3  -6   2  644.34   33.00
   3  -6   2  659.53   39.20
  -4   6  -2  126.19   14.10
   4  -6   2  112.69   24.70
  -5   6  -2  213.98   17.20
   5  -6   2  245.58   34.20
   5  -6   2  230.88   33.30
   5  -6   2  161.88   27.50
   7   5  -2  125.09   23.50
   7   5  -2  189.68   21.10
   7   5  -2  185.48   35.90
   6   5  -2  349.77   32.00
   6   5  -2  380.26   21.80
   6   5  -2  318.67   32.50
  -6  -5   2  426.16   34.20
  -6  -5   2  347.17   25.80
   5   5  -2  138.89   23.40
   5   5  -2  165.68   13.70
   5   5  -2  171.28   13.00
  -5  -5   2  117.29   19.40
  -5  -5   2  156.48   24.50
   4   5  -2  413.46   26.10
   4   5  -2  448.56   26.90
   4   5  -2  429.06   19.90
   4   5  -2  417.16   27.40
  -4  -5   2  426.16   34.70
  -4  -5   2  441.06   26.60
  -4  -5   2  362.36   27.50
   3   5  -2  672.73   31.60
   3   5  -2  655.43   34.20
   3   5  -2  638.24   33.30
   3   5  -2  682.93   29.10
   3   5  -2  597.24   37.20
  -3  -5   2  696.63   33.70
  -3  -5   2  616.84   33.80
  -3  -5   2  720.13   36.40
  -3  -5   2  645.14   32.50
   2   5  -2  345.37   26.40
   2   5  -2  407.06   23.10
   2   5  -2  413.76   25.50
   2   5  -2  416.66   17.90
   2   5  -2  381.66   25.40
  -2  -5   2  404.56   25.30
  -2  -5   2  422.76   29.40
  -2  -5   2  398.56   22.50
  -2  -5   2  374.46   25.20
   1   5  -2 1717.63   68.99
   1   5  -2 1693.73   72.49
   1   5  -2 1753.12   63.69
   1   5  -2 1741.13   68.49
  -1  -5   2 1742.63   67.19
  -1  -5   2 1828.72   70.99
  -1  -5   2 1779.02   69.29
   0   5  -2  847.82   38.20
   0   5  -2  858.21   33.30
   0   5  -2  836.12   38.50
   0   5  -2  833.22   39.60
   0  -5   2  893.21   41.30
   0  -5   2  879.71   39.50
   0  -5   2  855.11   38.00
  -1   5  -2  964.70   42.70
  -1   5  -2  935.31   44.10
  -1   5  -2  961.20   36.80
   1  -5   2  954.90   43.80
   1  -5   2  953.20   35.90
   1  -5   2  989.40   43.40
   1  -5   2  942.31   45.20
   1  -5   2  994.20   44.30
   1  -5   2  975.90   36.70
   1  -5   2  962.50   42.60
  -2   5  -2 1094.79   47.50
  -2   5  -2 1061.79   40.70
   2  -5   2 1084.19   41.90
   2  -5   2 1098.19   47.70
   2  -5   2 1033.90   40.90
   2  -5   2 1100.89   47.50
   2  -5   2 1028.70   46.90
   2  -5   2 1040.00   43.80
  -3   5  -2  972.20   44.80
  -3   5  -2  874.61   36.00
   3  -5   2  930.61   43.20
   3  -5   2  895.51   39.70
   3  -5   2  991.60   43.40
   3  -5   2  937.81   38.80
   3  -5   2  907.91   38.00
  -4   5  -2  497.75   22.80
   4  -5   2  491.95   26.70
   4  -5   2  545.55   26.50
   4  -5   2  522.65   31.30
   4  -5   2  493.85   32.00
   4  -5   2  501.55   31.10
  -5   5  -2  327.07   18.00
   5  -5   2  303.37   27.40
   5  -5   2  358.56   30.30
   5  -5   2  406.46   35.40
   5  -5   2  363.86   24.30
   5  -5   2  332.17   32.30
  -6   5  -2  144.49   15.10
   6  -5   2  143.59   28.20
   6  -5   2  205.48   34.00
   6  -5   2  143.29   31.10
   7   4  -2  246.18   23.10
  -7  -4   2  323.77   34.20
   6   4  -2  568.44   33.00
   6   4  -2  612.74   29.40
   6   4  -2  592.24   37.40
  -6  -4   2  557.44   29.60
  -6  -4   2  624.84   37.40
   5   4  -2  483.15   27.90
   5   4  -2  508.95   23.80
   5   4  -2  503.45   23.70
   5   4  -2  496.05   30.80
  -5  -4   2  442.86   28.50
  -5  -4   2  480.25   19.50
  -5  -4   2  475.05   26.00
  -5  -4   2  504.75   31.60
   4   4  -2 1427.06   52.29
   4   4  -2 1421.66   52.19
   4   4  -2 1371.66   54.29
   4   4  -2 1398.76   61.59
   4   4  -2 1434.86   56.79
  -4  -4   2 1364.16   55.99
  -4  -4   2 1299.67   56.49
  -4  -4   2 1432.26   55.79
  -4  -4   2 1401.86   59.79
   3   4  -2  381.96   23.70
   3   4  -2  372.26   21.00
   3   4  -2  406.96   17.00
   3   4  -2  380.46   26.70
   3   4  -2  381.76   16.80
   3   4  -2  396.36   16.80
   3   4  -2  401.76   24.10
  -3  -4   2  409.66   26.40
  -3  -4   2  420.96   23.00
  -3  -4   2  364.46   23.30
  -3  -4   2  367.96   21.10
   2   4  -2  629.04   32.30
   2   4  -2  654.33   31.10
   2   4  -2  701.63   31.00
   2   4  -2  675.33   25.50
   2   4  -2  644.54   29.50
  -2  -4   2  621.94   30.80
  -2  -4   2  600.74   37.90
  -2  -4   2  691.23   33.70
  -2  -4   2  677.13   31.00
   1   4  -2 4228.68  148.69
   1   4  -2 4155.68  147.79
   1   4  -2 4017.10  144.59
   1   4  -2 4025.10  149.19
  -1  -4   2 4130.79  148.69
  -1  -4   2 4239.68  147.19
  -1  -4   2 4042.80  150.88
   0   4  -2 1773.52   68.89
   0   4  -2 1768.32   68.49
   0   4  -2 1818.32   68.09
   0   4  -2 1819.42   64.69
   0  -4   2 1809.62   70.09
   0  -4   2 1718.73   68.29
   0  -4   2 1821.92   69.09
   0  -4   2 1847.42   67.59
  -1   4  -2 1095.99   43.60
  -1   4  -2 1074.79   40.80
  -1   4  -2 1067.09   45.10
  -1   4  -2 1072.09   43.90
   1  -4   2 1034.30   44.10
   1  -4   2 1042.10   44.60
   1  -4   2 1079.49   39.60
   1  -4   2 1044.30   40.60
   1  -4   2 1043.30   45.00
   1  -4   2 1101.79   45.40
   1  -4   2 1123.79   45.00
  -2   4  -2  802.02   37.40
  -2   4  -2  856.91   31.90
   2  -4   2  878.01   37.80
   2  -4   2  829.72   37.90
   2  -4   2  807.62   32.40
   2  -4   2  810.42   35.00
   2  -4   2  839.42   33.00
   2  -4   2  834.22   37.40
   2  -4   2  809.02   37.10
   2  -4   2  820.92   37.10
  -3   4  -2  945.21   35.70
  -3   4  -2  970.10   43.30
   3  -4   2  910.71   41.70
   3  -4   2  965.00   38.30
   3  -4   2  906.21   42.20
   3  -4   2  929.01   37.70
   3  -4   2  960.30   41.20
   3  -4   2  955.90   41.60
   3  -4   2  951.40   42.20
   3  -4   2  914.31   39.40
   3  -4   2  885.61   44.90
  -4   4  -2 1751.12   64.19
   4  -4   2 1816.62   72.09
   4  -4   2 1646.04   70.49
   4  -4   2 1797.62   67.79
   4  -4   2 1871.51   69.99
   4  -4   2 1813.22   69.49
   4  -4   2 1751.42   68.29
   4  -4   2 1829.62   69.79
   4  -4   2 1599.54   69.59
  -5   4  -2  571.44   24.40
   5  -4   2  578.24   31.10
   5  -4   2  591.44   30.40
   5  -4   2  598.64   36.60
   5  -4   2  518.05   36.20
  -6   4  -2  376.36   20.00
   6  -4   2  383.66   33.60
   6  -4   2  413.76   31.50
   6  -4   2  441.36   27.50
   6  -4   2  488.45   27.90
   7  -4   2  283.27   33.30
   7  -4   2  313.87   40.80
   7  -4   2  353.26   29.20
   8   3  -2  139.89   25.70
  -8  -3   2  220.68   50.79
   7   3  -2  473.55   29.40
   7   3  -2  401.76   37.00
   7   3  -2  484.85   30.40
  -7  -3   2  502.35   36.70
   6   3  -2  548.55   35.20
   6   3  -2  496.25   29.80
  -6  -3   2  529.85   33.40
  -6  -3   2  527.65   24.20
  -6  -3   2  459.55   29.90
   5   3  -2  933.51   42.00
   5   3  -2  915.51   38.20
   5   3  -2  920.21   50.59
  -5  -3   2  934.81   37.70
  -5  -3   2  949.51   33.80
  -5  -3   2  879.41   40.70
   4   3  -2 1364.66   60.29
   4   3  -2 1521.35   54.99
   4   3  -2 1501.85   59.39
   4   3  -2 1493.05   58.09
  -4  -3   2 1474.65   60.39
  -4  -3   2 1388.86   57.49
  -4  -3   2 1482.55   55.79
  -4  -3   2 1423.66   57.59
   3   3  -2  389.96   24.50
   3   3  -2  392.76   22.20
   3   3  -2  403.16   21.80
   3   3  -2  383.16   19.50
   3   3  -2  410.26   17.80
   3   3  -2  399.46   16.00
  -3  -3   2  424.36   20.60
  -3  -3   2  370.56   17.20
  -3  -3   2  402.36   20.20
  -3  -3   2  409.56   24.90
  -3  -3   2  378.26   22.20
   2   3  -2 1084.09   42.30
   2   3  -2 1088.19   43.00
   2   3  -2 1065.09   38.70
   2   3  -2 1063.79   41.80
   2   3  -2 1043.90   38.80
   2   3  -2 1006.60   44.20
  -2  -3   2 1082.19   45.10
  -2  -3   2 1084.59   42.30
  -2  -3   2 1084.79   43.20
  -2  -3   2 1071.19   41.50
   1   3  -2 4237.58  156.58
   1   3  -2 4479.85  155.88
   1   3  -2 4350.36  154.78
   1   3  -2 4204.78  152.58
  -1  -3   2 4422.66  155.78
  -1  -3   2 4291.77  157.08
  -1  -3   2 4619.34  156.08
  -1  -3   2 4328.27  154.68
   0   3  -2 4367.86  154.38
   0   3  -2 4411.36  155.48
   0   3  -2 4310.47  152.48
   0   3  -2 4208.08  155.58
   0  -3   2 4520.25  155.48
   0  -3   2 4327.87  155.68
   0  -3   2 4236.68  156.28
   0  -3   2 4494.95  154.08
  -1   3  -2 3686.63  128.29
  -1   3  -2 3724.03  130.99
  -1   3  -2 3681.53  130.69
  -1   3  -2 3762.22  131.49
   1  -3   2 3737.73  132.09
   1  -3   2 3830.02  131.49
   1  -3   2 3727.23  131.49
   1  -3   2 3626.94  131.49
   1  -3   2 3613.24  131.69
   1  -3   2 3302.77  128.69
   1  -3   2 3523.75  128.19
  -2   3  -2  263.17   17.70
  -2   3  -2  298.17   13.00
   2  -3   2  288.07   18.10
   2  -3   2  284.87   17.90
   2  -3   2  288.17   18.30
   2  -3   2  260.17   17.60
   2  -3   2  298.37   18.60
   2  -3   2  293.37   14.20
   2  -3   2  283.27   13.70
   2  -3   2  282.97   16.40
  -3   3  -2 2192.58   77.49
   3  -3   2 2231.08   80.89
   3  -3   2 2138.39   82.19
   3  -3   2 2176.08   81.39
   3  -3   2 2217.48   80.99
   3  -3   2 2132.69   79.59
   3  -3   2 2129.39   82.19
   3  -3   2 2127.69   81.19
   3  -3   2 2155.28   81.19
   3  -3   2 2228.98   79.89
  -4   3  -2 1578.54   56.59
   4  -3   2 1562.34   60.39
   4  -3   2 1500.55   61.89
   4  -3   2 1586.24   63.19
   4  -3   2 1569.24   60.99
   4  -3   2 1485.85   63.39
   4  -3   2 1591.94   61.69
   4  -3   2 1574.14   61.79
   4  -3   2 1513.95   61.29
   4  -3   2 1639.04   61.19
  -5   3  -2  329.17   18.00
   5  -3   2  374.36   23.80
   5  -3   2  335.07   25.10
   5  -3   2  371.46   22.40
   5  -3   2  364.06   23.40
   5  -3   2  378.86   22.70
  -6   3  -2  503.95   23.30
   6  -3   2  538.85   36.00
   6  -3   2  543.25   29.30
   6  -3   2  645.84   32.20
   6  -3   2  557.44   30.60
   7  -3   2  170.38   29.10
   7  -3   2  236.98   33.30
   7  -3   2  225.78   25.10
   8   2  -2  397.06   33.80
  -8  -2   2  485.65   40.50
   7   2  -2  472.15   38.40
   7   2  -2  544.25   32.80
  -7  -2   2  568.34   38.50
   6   2  -2  301.07   28.30
   6   2  -2  241.08   23.50
  -6  -2   2  286.77   26.50
  -6  -2   2  238.18   21.90
   5   2  -2 1122.89   47.40
   5   2  -2 1108.39   44.80
   5   2  -2 1141.99   49.40
  -5  -2   2 1039.90   46.00
  -5  -2   2 1138.29   49.10
  -5  -2   2 1099.59   45.70
  -5  -2   2 1094.19   45.20
   4   2  -2 1207.58   49.20
   4   2  -2 1221.78   48.40
   4   2  -2 1216.78   45.80
   4   2  -2 1146.09   50.29
  -4  -2   2 1206.48   44.50
  -4  -2   2 1135.29   47.40
  -4  -2   2 1148.89   45.70
  -4  -2   2 1147.09   47.70
  -4  -2   2 1155.18   49.50
   3   2  -2 2497.25   89.99
   3   2  -2 2471.05   90.29
   3   2  -2 2392.56   91.19
   3   2  -2 2452.35   87.69
   3   2  -2 2494.75   86.19
  -3  -2   2 2461.25   89.59
  -3  -2   2 2387.36   87.59
  -3  -2   2 2422.46   91.09
  -3  -2   2 2418.16   89.29
  -3  -2   2 2402.96   89.69
   2   2  -2 1941.11   68.19
   2   2  -2 1863.21   64.49
   2   2  -2 1776.32   69.09
   2   2  -2 1870.11   67.49
   2   2  -2 1811.82   65.49
  -2  -2   2 1852.61   69.39
  -2  -2   2 1881.01   66.79
  -2  -2   2 1844.42   67.29
  -2  -2   2 1866.01   68.09
  -2  -2   2 1575.94   66.39
   1   2  -2   37.90   10.30
   1   2  -2   28.80    4.80
  -1  -2   2   31.70    5.70
  -1  -2   2   18.60    5.70
  -1  -2   2   23.70    7.50
   0   2  -2 2747.63   93.09
   0   2  -2 2502.85   93.79
   0   2  -2 2477.85   89.89
   0   2  -2 2627.24   90.59
   0   2  -2 2585.94   91.49
   0  -2   2 2865.31   94.39
   0  -2   2 2495.65   90.09
   0  -2   2 2383.76   94.69
   0  -2   2 2663.93   91.29
   0  -2   2 2474.95   94.49
   0  -2   2 2540.75   92.89
  -1   2  -2 1538.85   55.19
  -1   2  -2 1492.15   56.19
  -1   2  -2 1478.75   52.59
  -1   2  -2 1452.95   54.09
   1  -2   2 1530.85   54.29
   1  -2   2 1545.65   55.09
   1  -2   2 1438.46   56.49
   1  -2   2 1457.95   55.29
   1  -2   2 1464.45   55.59
   1  -2   2 1396.96   52.59
   1  -2   2 1439.86   52.69
  -2   2  -2  133.49   11.70
  -2   2  -2  150.88    7.40
  -2   2  -2  138.69   12.50
   2  -2   2  156.18   12.10
   2  -2   2  136.89   11.50
   2  -2   2  145.09    8.80
   2  -2   2  150.78   12.50
   2  -2   2  149.19   12.20
   2  -2   2  140.59   11.20
   2  -2   2  140.99   10.60
  -3   2  -2 2149.78   75.59
   3  -2   2 2033.40   77.59
   3  -2   2 2158.68   79.59
   3  -2   2 2115.59   77.99
   3  -2   2 2061.09   79.39
   3  -2   2 2164.68   79.09
   3  -2   2 2116.59   79.29
   3  -2   2 2203.18   78.39
   3  -2   2 2191.58   78.09
  -4   2  -2 1021.10   36.70
  -4   2  -2  977.30   41.90
   4  -2   2 1019.90   41.00
   4  -2   2 1012.00   40.40
   4  -2   2 1050.99   40.50
   4  -2   2  967.00   40.50
   4  -2   2 1019.50   43.10
   4  -2   2  996.00   41.50
   4  -2   2  972.80   41.40
   4  -2   2  940.91   43.20
  -5   2  -2  488.05   27.40
  -5   2  -2  463.45   19.30
   5  -2   2  471.15   25.20
   5  -2   2  440.06   25.40
   5  -2   2  462.75   28.30
   5  -2   2  463.85   24.80
   5  -2   2  479.05   25.00
   5  -2   2  472.45   25.70
  -6   2  -2  781.62   30.80
   6  -2   2  843.52   42.70
   6  -2   2  804.32   35.20
   6  -2   2  810.92   38.80
   6  -2   2  877.31   40.60
   6  -2   2  748.13   37.90
   6  -2   2  817.42   36.60
  -7   2  -2  407.16   32.60
   7  -2   2  387.86   27.80
   7  -2   2  339.77   34.90
   7  -2   2  375.46   24.50
   7  -2   2  393.56   30.20
  -8   2  -2  425.16   51.09
   8  -2   2  331.27   41.60
   8  -2   2  347.97   32.20
  -8  -1   2  631.84   46.10
   7   1  -2  447.66   38.00
   7   1  -2  502.95   32.50
  -7  -1   2  507.15   35.90
   6   1  -2  266.47   24.30
   6   1  -2  308.87   28.60
  -6  -1   2  241.18   21.10
  -6  -1   2  320.87   26.10
  -6  -1   2  293.97   22.20
   5   1  -2  394.36   26.90
   5   1  -2  406.66   22.50
   5   1  -2  423.66   25.60
  -5  -1   2  373.36   26.10
  -5  -1   2  394.46   22.40
  -5  -1   2  399.46   22.30
   4   1  -2  573.44   25.50
   4   1  -2  541.45   29.00
   4   1  -2  595.54   28.30
   4   1  -2  592.14   28.60
  -4  -1   2  527.35   28.10
  -4  -1   2  541.65   25.60
  -4  -1   2  546.55   26.60
  -4  -1   2  523.95   26.70
   3   1  -2 4546.35  158.78
   3   1  -2 4702.63  160.28
   3   1  -2 4467.55  160.48
   3   1  -2 4501.75  160.88
  -3  -1   2 4192.88  164.78
  -3  -1   2 4654.93  159.88
  -3  -1   2 4520.95  156.78
  -3  -1   2 4373.66  158.68
  -3  -1   2 4402.96  160.68
   2   1  -2 1780.32   64.79
   2   1  -2 1751.62   65.89
   2   1  -2 1785.12   63.69
   2   1  -2 1875.21   65.59
  -2  -1   2 1735.53   63.59
  -2  -1   2 1502.25   68.59
  -2  -1   2 1805.22   63.09
  -2  -1   2 1829.92   65.59
  -2  -1   2 1790.62   66.09
   1   1  -2  140.79    8.00
   1   1  -2  134.89    7.90
   1   1  -2  147.89   10.90
  -1  -1   2  118.19    7.40
  -1  -1   2  102.99    8.60
  -1  -1   2  125.09   10.40
  -1  -1   2  117.19    8.50
   0   1  -2 5060.29  173.58
   0   1  -2 5268.67  175.48
   0   1  -2 4610.04  175.78
   0   1  -2 4883.01  173.58
   0  -1   2 4643.04  176.08
   0  -1   2 5131.89  175.48
   0  -1   2 5330.07  175.48
  -1   1  -2 3597.84  131.79
  -1   1  -2 3566.84  129.99
  -1   1  -2 3747.62  129.69
  -1   1  -2 3967.30  131.49
  -1   1  -2 3547.34  130.09
  -1   1  -2 3825.42  131.79
   1  -1   2 3640.54  130.09
   1  -1   2 3893.51  131.19
   1  -1   2 3664.83  130.19
   1  -1   2 3797.32  131.99
   1  -1   2 3654.23  131.69
  -2   1  -2 6398.46  229.08
  -2   1  -2 6832.72  228.18
  -2   1  -2 6504.85  226.68
   2  -1   2 6749.92  229.38
   2  -1   2 6594.84  230.58
   2  -1   2 6161.48  227.78
   2  -1   2 6415.26  228.38
   2  -1   2 6879.81  228.08
   2  -1   2 6174.58  227.68
  -3   1  -2 2145.09   75.49
  -3   1  -2 2069.49   78.59
  -3   1  -2 2143.19   78.49
   3  -1   2 2213.98   78.89
   3  -1   2 2109.49   77.59
   3  -1   2 2076.29   78.79
   3  -1   2 2082.49   77.69
   3  -1   2 2212.08   77.19
   3  -1   2 2216.08   77.39
   3  -1   2 2165.88   78.79
   3  -1   2 2143.09   78.69
  -4   1  -2  825.62   29.70
  -4   1  -2  787.72   34.80
  -4   1  -2  815.52   33.50
   4  -1   2  822.62   32.80
   4  -1   2  823.42   33.50
   4  -1   2  800.02   34.40
   4  -1   2  757.72   35.50
   4  -1   2  832.42   32.40
   4  -1   2  803.22   33.70
   4  -1   2  790.32   33.50
   4  -1   2  831.82   35.60
  -5   1  -2 1104.39   39.50
  -5   1  -2 1074.99   46.20
   5  -1   2 1085.99   45.80
   5  -1   2 1068.19   44.30
   5  -1   2 1096.89   44.80
   5  -1   2 1082.99   43.20
   5  -1   2 1106.09   43.70
   5  -1   2 1090.69   47.40
   5  -1   2 1136.49   43.00
   5  -1   2 1011.20   46.60
  -6   1  -2  511.75   20.70
  -6   1  -2  560.44   35.50
   6  -1   2  526.75   25.00
   6  -1   2  508.05   28.20
   6  -1   2  519.35   26.40
   6  -1   2  538.75   28.40
   6  -1   2  524.55   32.80
  -7   1  -2  708.13   39.30
   7  -1   2  655.63   35.20
   7  -1   2  650.53   33.20
   7  -1   2  623.14   40.60
  -8   1  -2  530.35   40.40
   8  -1   2  425.36   43.10
   8  -1   2  471.75   34.60
  -8   0   2  440.86   41.60
   7   0  -2  499.95   40.90
  -7   0   2  567.04   33.70
  -7   0   2  601.74   37.40
   6   0  -2 1054.09   47.40
   6   0  -2 1092.09   51.69
  -6   0   2  963.40   44.70
  -6   0   2 1087.99   48.90
  -6   0   2 1066.29   46.50
   5   0  -2  734.93   43.40
   5   0  -2  668.13   32.30
   5   0  -2  608.64   34.00
  -5   0   2  580.84   29.20
  -5   0   2  613.54   30.20
  -5   0   2  605.64   32.20
   4   0  -2 1453.95   55.39
   4   0  -2 1363.46   55.89
   4   0  -2 1400.26   54.39
   4   0  -2 1463.75   58.99
  -4   0   2 1383.76   54.49
  -4   0   2 1389.36   53.99
  -4   0   2 1345.47   55.29
   3   0  -2 7589.74  268.67
   3   0  -2 7707.73  267.57
   3   0  -2 7515.75  267.97
   3   0  -2 7508.55  268.67
  -3   0   2 7454.55  267.07
  -3   0   2 7542.55  267.87
  -3   0   2 7935.21  267.27
   2   0  -2 2621.34   89.19
   2   0  -2 2357.56   89.09
   2   0  -2 2475.65   89.19
  -2   0   2 2417.06   88.29
  -2   0   2 2433.26   89.09
   1   0  -2 3339.27  123.79
   1   0  -2 3479.45  123.09
   1   0  -2 3482.35  123.79
   1   0  -2 3651.43  124.69
   1   0  -2 3426.46  124.69
  -1   0   2 3766.72  124.69
  -1   0   2 3446.66  124.79
  -1   0   2 3513.55  123.09
   0   0  -2 3078.89  100.59
   0   0  -2 2685.63   99.69
   0   0  -2 2911.51  100.19
   0   0  -2 2709.73  100.59
   0   0   2 2647.54   99.79
   0   0   2 2700.33  100.69
   0   0   2 2905.11  100.09
   0   0   2 3054.69  100.49
  -1   0  -2 1820.52   66.99
  -1   0  -2 1938.21   67.09
  -1   0  -2 1875.61   68.09
  -1   0  -2 1854.51   66.39
   1   0   2 1866.41   67.09
   1   0   2 1871.71   66.29
   1   0   2 1843.92   67.89
   1   0   2 1938.51   67.19
   1   0   2 1906.41   68.19
  -2   0  -2 6169.18  215.98
  -2   0  -2 6518.85  216.48
  -2   0  -2 5992.40  217.98
  -2   0  -2 6045.99  217.28
  -2   0  -2 6137.19  218.08
  -2   0  -2 6109.79  217.48
   2   0   2 6472.85  216.48
   2   0   2 6219.88  218.08
   2   0   2 6277.17  217.48
   2   0   2 6258.67  218.08
  -3   0  -2  701.03   29.50
  -3   0  -2  716.43   29.50
  -3   0  -2  737.43   26.40
  -3   0  -2  704.73   29.30
   3   0   2  726.93   29.70
   3   0   2  716.03   29.70
   3   0   2  746.13   29.20
   3   0   2  688.43   28.30
   3   0   2  739.63   27.30
   3   0   2  761.02   27.10
   3   0   2  714.53   28.70
  -4   0  -2 1627.54   63.59
  -4   0  -2 1676.63   62.59
  -4   0  -2 1689.43   59.29
  -4   0  -2 1671.43   64.09
   4   0   2 1728.73   60.79
   4   0   2 1705.43   64.39
   4   0   2 1619.04   63.99
   4   0   2 1740.23   61.09
   4   0   2 1684.83   63.79
   4   0   2 1636.34   62.79
   4   0   2 1681.53   62.59
  -5   0  -2 2175.28   77.49
  -5   0  -2 2169.98   80.99
  -5   0  -2 2135.99   83.39
   5   0   2 2147.39   83.19
   5   0   2 2248.28   82.19
   5   0   2 2208.78   84.69
   5   0   2 2176.78   80.59
   5   0   2 2254.77   82.59
   5   0   2 2249.57   83.49
   5   0   2 2259.67   79.69
  -6   0  -2  314.17   18.60
  -6   0  -2  354.36   24.30
   6   0   2  388.76   26.20
   6   0   2  329.87   19.10
   6   0   2  314.67   22.20
   6   0   2  340.27   19.80
   6   0   2  278.97   20.00
  -7   0  -2  933.51   44.70
   7   0   2  846.82   45.40
   7   0   2  859.81   41.40
   7   0   2  843.32   41.00
   7   0   2  840.02   43.40
  -8   0  -2  336.37   33.80
   8   0   2  231.08   35.10
   8   0   2  274.77   27.70
   7  -1  -2  422.66   39.50
   7  -1  -2  415.46   34.80
  -7   1   2  517.65   33.20
  -7   1   2  577.64   36.00
   6  -1  -2 1510.25   69.09
   6  -1  -2 1613.04   65.39
  -6   1   2 1575.64   67.19
   5  -1  -2  684.03   35.40
   5  -1  -2  778.02   38.20
   5  -1  -2  744.53   35.10
  -5   1   2  702.13   34.20
  -5   1   2  675.43   32.30
  -5   1   2  741.53   34.90
   4  -1  -2 1373.66   55.59
   4  -1  -2 1420.46   55.39
   4  -1  -2 1463.95   55.79
   4  -1  -2 1445.56   57.89
   4  -1  -2 1364.36   57.19
  -4   1   2 1427.26   55.19
  -4   1   2 1361.36   55.09
  -4   1   2 1368.76   54.19
   3  -1  -2 1316.37   49.70
   3  -1  -2 1294.37   49.90
   3  -1  -2 1301.67   49.80
   3  -1  -2 1278.27   51.19
   3  -1  -2 1294.87   51.39
  -3   1   2 1250.57   49.30
  -3   1   2 1284.47   49.30
  -3   1   2 1255.47   49.40
   2  -1  -2 3663.13  129.99
   2  -1  -2 3648.93  128.69
   2  -1  -2 3655.53  129.89
   2  -1  -2 3586.54  128.89
   2  -1  -2 3716.13  129.09
  -2   1   2 3449.75  128.79
  -2   1   2 3576.74  128.49
  -2   1   2 3703.13  128.79
   1  -1  -2 5158.38  174.58
   1  -1  -2 4881.61  175.68
   1  -1  -2 5085.99  176.58
   1  -1  -2 4898.01  176.18
   1  -1  -2 5188.68  176.28
  -1   1   2 5187.58  174.48
  -1   1   2 4911.51  176.18
  -1   1   2 5058.29  175.68
  -1   1   2 4518.35  179.68
  -1   1   2 5282.27  176.18
   0  -1  -2 4607.54  172.38
   0  -1  -2 5074.99  172.28
   0  -1  -2 4628.74  171.78
   0  -1  -2 5078.49  172.18
   0   1   2 4971.80  171.78
   0   1   2 4969.90  172.08
   0   1   2 5129.49  172.18
  -1  -1  -2 4074.59  138.89
  -1  -1  -2 3894.21  139.19
  -1  -1  -2 3951.90  138.99
  -1  -1  -2 3982.80  138.39
   1   1   2 3854.11  139.19
   1   1   2 4032.50  138.79
   1   1   2 3973.00  138.39
   1   1   2 3998.40  138.99
  -2  -1  -2 1994.50   71.29
  -2  -1  -2 1911.51   71.69
  -2  -1  -2 2026.90   71.69
  -2  -1  -2 1950.80   73.99
   2   1   2 1985.80   71.79
   2   1   2 2025.80   71.79
   2   1   2 1996.80   71.39
   2   1   2 2066.59   71.79
  -3  -1  -2  274.87   10.70
  -3  -1  -2  271.47   14.10
  -3  -1  -2  253.07   13.80
  -3  -1  -2  260.37   13.70
   3   1   2  270.77   16.90
   3   1   2  263.37   13.00
   3   1   2  263.17   13.30
   3   1   2  254.37   14.00
  -4  -1  -2 2663.33   91.49
  -4  -1  -2 2625.74   95.99
  -4  -1  -2 2615.74   94.39
  -4  -1  -2 2498.55   95.39
   4   1   2 2668.83   91.79
   4   1   2 2532.05   94.59
   4   1   2 2613.94   95.59
   4   1   2 2643.04   96.29
   4   1   2 2639.44   94.49
  -5  -1  -2  886.81   36.10
  -5  -1  -2  872.71   31.80
  -5  -1  -2  856.61   38.00
  -5  -1  -2  836.02   38.30
   5   1   2  890.41   36.30
   5   1   2  873.81   34.00
   5   1   2  890.01   35.10
   5   1   2  893.21   39.30
   5   1   2  870.31   38.10
   5   1   2  905.91   37.00
  -6  -1  -2  188.18   20.30
  -6  -1  -2  166.88    8.40
  -6  -1  -2  165.88   14.70
   6   1   2  177.98   14.10
   6   1   2  168.38   13.90
   6   1   2  199.48   21.10
   6   1   2  205.58   16.70
  -7  -1  -2  437.76   30.00
  -7  -1  -2  385.66   21.50
   7   1   2  381.56   21.00
   7   1   2  353.76   21.20
   7   1   2  407.16   31.50
   7   1   2  432.66   26.00
   8   1   2  115.29   21.30
   8   1   2  161.88   24.00
   9   1   2  137.59   25.70
   7  -2  -2  280.57   38.30
  -7   2   2  404.26   32.80
  -7   2   2  364.66   30.10
   6  -2  -2  904.11   51.79
   6  -2  -2  846.02   47.20
  -6   2   2  834.52   56.89
  -6   2   2  861.11   41.50
   5  -2  -2 1235.58   66.59
   5  -2  -2 1103.59   49.70
   5  -2  -2 1215.78   51.19
  -5   2   2 1208.08   53.79
  -5   2   2 1211.38   49.80
  -5   2   2 1166.78   49.99
   4  -2  -2 1394.66   58.09
   4  -2  -2 1450.25   55.69
   4  -2  -2 1491.75   58.59
   4  -2  -2 1352.56   54.39
  -4   2   2 1308.07   53.69
  -4   2   2 1305.27   53.79
  -4   2   2 1344.07   54.69
   3  -2  -2  356.36   21.40
   3  -2  -2  363.06   18.60
   3  -2  -2  358.56   21.90
   3  -2  -2  350.46   19.60
   3  -2  -2  363.86   20.20
  -3   2   2  344.77   18.50
  -3   2   2  342.17   19.00
  -3   2   2  317.17   17.40
   2  -2  -2 4169.08  143.69
   2  -2  -2 4246.98  146.39
   2  -2  -2 4172.38  146.49
   2  -2  -2 4096.99  145.09
   2  -2  -2 4250.67  148.09
  -2   2   2 4051.99  143.59
  -2   2   2 3874.31  144.79
  -2   2   2 3866.41  145.99
  -2   2   2 4211.68  146.09
  -2   2   2 4189.18  147.99
   1  -2  -2 5786.02  195.98
   1  -2  -2 5325.77  194.28
   1  -2  -2 5861.21  194.58
   1  -2  -2 5506.15  193.58
   1  -2  -2 5597.64  196.98
  -1   2   2 5634.84  194.48
  -1   2   2 5329.57  195.78
  -1   2   2 5570.24  196.98
   0  -2  -2  149.09   11.40
   0  -2  -2  129.69    6.20
   0  -2  -2  138.49    8.80
   0  -2  -2  140.69    8.60
   0   2   2  114.09    6.20
   0   2   2  144.79    8.50
   0   2   2  134.09   10.30
   0   2   2  125.89    8.50
  -1  -2  -2 6357.36  224.48
  -1  -2  -2 6515.55  225.78
  -1  -2  -2 6444.85  223.88
   1   2   2 6554.24  225.78
   1   2   2 6490.95  224.48
   1   2   2 6516.65  225.48
   1   2   2 6251.27  225.48
  -2  -2  -2  253.07   12.90
  -2  -2  -2  235.18    9.50
  -2  -2  -2  238.08   11.10
  -2  -2  -2  227.58   12.50
  -2  -2  -2  237.58    9.70
   2   2   2  242.78   12.60
   2   2   2  237.98   11.40
   2   2   2  269.57   13.50
   2   2   2  205.78   11.60
  -3  -2  -2 1725.93   63.59
  -3  -2  -2 1772.62   61.59
  -3  -2  -2 1765.02   64.89
  -3  -2  -2 1781.62   64.09
  -3  -2  -2 1708.83   64.39
   3   2   2 1755.92   65.09
   3   2   2 1750.52   64.49
   3   2   2 1689.13   63.59
   3   2   2 1802.12   63.99
  -4  -2  -2 3220.78  114.99
  -4  -2  -2 3137.99  116.49
  -4  -2  -2 3363.36  112.19
  -4  -2  -2 3077.79  115.99
   4   2   2 3131.49  114.69
   4   2   2 3210.58  116.19
   4   2   2 3273.67  114.69
   4   2   2 3252.47  117.09
   4   2   2 3211.98  115.19
  -5  -2  -2  813.42   37.00
  -5  -2  -2  814.82   36.60
  -5  -2  -2  852.61   30.60
  -5  -2  -2  839.92   34.60
   5   2   2  877.11   38.40
   5   2   2  831.02   34.10
   5   2   2  873.41   35.40
   5   2   2  838.12   34.60
   5   2   2  809.92   36.80
  -6  -2  -2  774.92   33.60
  -6  -2  -2  765.52   28.60
  -6  -2  -2  780.62   37.20
   6   2   2  823.12   39.50
   6   2   2  772.02   32.90
   6   2   2  773.42   35.10
  -7  -2  -2  369.86   21.40
  -7  -2  -2  420.86   28.70
   7   2   2  345.07   21.70
   7   2   2  387.56   30.50
   7   2   2  384.76   24.40
  -8  -2  -2  398.06   33.90
  -8  -2  -2  382.16   27.30
   8   2   2  369.16   28.20
   8   2   2  361.66   35.50
   9   2   2  264.57   29.40
   9   2   2  226.08   41.00
   7  -3  -2  199.18   39.80
  -7   3   2  276.37   32.80
  -7   3   2  280.67   33.20
   6  -3  -2  352.16   31.90
   6  -3  -2  366.86   35.10
  -6   3   2  397.76   28.20
   5  -3  -2 1011.80   47.80
   5  -3  -2  957.60   49.20
   5  -3  -2  935.01   43.80
  -5   3   2 1011.20   43.00
  -5   3   2  984.00   43.90
   4  -3  -2  918.71   39.50
   4  -3  -2 1028.20   45.40
   4  -3  -2  916.51   34.00
   4  -3  -2 1019.70   42.50
  -4   3   2  947.41   40.80
  -4   3   2  863.51   39.80
  -4   3   2  906.71   39.00
   3  -3  -2  861.01   34.50
   3  -3  -2  867.71   30.90
   3  -3  -2  809.42   39.10
   3  -3  -2  902.11   37.40
   3  -3  -2  891.41   37.20
  -3   3   2  833.52   35.80
  -3   3   2  800.52   33.80
  -3   3   2  821.82   35.80
   2  -3  -2 4132.19  146.59
   2  -3  -2 4133.19  142.79
   2  -3  -2 4275.97  146.79
   2  -3  -2 4150.48  148.69
   2  -3  -2 4050.69  144.19
   2  -3  -2 4192.48  144.39
  -2   3   2 4182.18  148.79
  -2   3   2 3809.72  144.39
  -2   3   2 4097.99  146.19
  -2   3   2 4036.30  144.29
  -2   3   2 3996.10  146.09
   1  -3  -2 3042.80  110.09
   1  -3  -2 3233.68  112.99
   1  -3  -2 3240.78  111.89
   1  -3  -2 3144.09  112.99
   1  -3  -2 3123.09  110.09
   1  -3  -2 3222.58  114.69
  -1   3   2 3208.58  111.69
  -1   3   2 3188.08  114.69
  -1   3   2 2924.91  109.89
  -1   3   2 3056.49  112.49
  -1   3   2 3259.37  112.79
   0  -3  -2 4503.05  156.48
   0  -3  -2 4086.79  154.88
   0  -3  -2 4400.26  154.68
   0  -3  -2 4387.06  154.78
   0  -3  -2 4450.75  152.78
   0   3   2 4605.74  155.48
   0   3   2 4349.16  156.18
   0   3   2 4350.26  154.58
   0   3   2 4354.36  154.78
  -1  -3  -2 8315.77  291.17
  -1  -3  -2 8381.56  289.97
  -1  -3  -2 8438.86  292.17
  -1  -3  -2 8585.24  293.57
   1   3   2 8207.88  292.77
   1   3   2 8221.48  292.07
  -2  -3  -2 3809.72  143.69
  -2  -3  -2 4073.79  143.39
  -2  -3  -2 4242.48  143.19
  -2  -3  -2 3971.10  144.59
  -2  -3  -2 4082.89  142.29
  -2  -3  -2 4271.77  145.59
  -2  -3  -2 4131.59  142.89
   2   3   2 4033.90  145.19
   2   3   2 4144.79  145.09
   2   3   2 4034.20  143.59
   2   3   2 4089.09  143.69
  -3  -3  -2 4683.53  159.38
  -3  -3  -2 4274.37  157.78
  -3  -3  -2 4701.63  155.88
  -3  -3  -2 3996.30  157.98
  -3  -3  -2 4482.35  155.48
  -3  -3  -2 4471.45  158.28
   3   3   2 4465.55  158.08
   3   3   2 4610.44  158.28
   3   3   2 4414.46  157.28
   3   3   2 4511.25  159.38
  -4  -3  -2 2166.98   82.79
  -4  -3  -2 2114.99   81.79
  -4  -3  -2 2226.58   78.09
  -4  -3  -2 2263.37   81.49
   4   3   2 2259.47   83.49
   4   3   2 2224.68   80.89
   4   3   2 2246.98   81.19
   4   3   2 2252.57   77.99
   4   3   2 2196.48   82.09
  -5  -3  -2  710.43   33.90
  -5  -3  -2  787.82   27.90
  -5  -3  -2  751.82   32.30
  -5  -3  -2  706.43   34.20
   5   3   2  746.63   31.90
   5   3   2  751.72   34.30
   5   3   2  743.53   31.30
   5   3   2  771.22   32.10
   5   3   2  789.62   36.10
  -6  -3  -2 1016.30   44.70
  -6  -3  -2  994.60   36.50
  -6  -3  -2 1006.50   41.80
   6   3   2 1020.60   42.20
   6   3   2  958.10   40.70
   6   3   2 1006.70   43.50
   6   3   2 1015.90   46.80
  -7  -3  -2  228.18   18.40
  -7  -3  -2  225.98   23.20
   7   3   2  162.08   16.10
   7   3   2  218.78   20.00
   7   3   2  176.88   24.70
  -8  -3  -2  604.84   30.80
  -8  -3  -2  632.14   40.00
   8   3   2  609.44   34.00
   8   3   2  535.45   41.80
  -9  -3  -2  226.28   33.10
   9   3   2  198.48   29.80
   6  -4  -2  200.78   31.70
   6  -4  -2  225.28   35.90
  -6   4   2  286.77   27.10
  -6   4   2  295.57   42.60
   5  -4  -2  866.41   47.50
   5  -4  -2  904.11   44.80
   5  -4  -2  779.32   44.70
  -5   4   2  847.82   39.50
  -5   4   2  896.11   40.90
   4  -4  -2  756.62   33.60
   4  -4  -2  753.52   30.80
   4  -4  -2  724.33   28.20
   4  -4  -2  739.33   44.50
   4  -4  -2  822.82   38.50
  -4   4   2  747.13   32.80
  -4   4   2  712.03   39.40
   3  -4  -2 2950.10  102.79
   3  -4  -2 2931.31  100.49
   3  -4  -2 2778.12  106.09
   3  -4  -2 2970.40  106.39
   3  -4  -2 2838.12  102.69
  -3   4   2 2684.43  104.99
  -3   4   2 2875.31  109.49
  -3   4   2 2746.63  102.39
  -3   4   2 2908.61  105.19
   2  -4  -2 2155.18   81.39
   2  -4  -2 2154.08   86.69
   2  -4  -2 2213.38   81.69
   2  -4  -2 2233.78   77.09
   2  -4  -2 2196.18   79.49
   2  -4  -2 2160.98   77.69
  -2   4   2 2149.19   79.29
  -2   4   2 2173.98   80.49
  -2   4   2 2191.78   84.39
  -2   4   2 2109.89   81.39
   1  -4  -2 1513.75   59.79
   1  -4  -2 1532.05   53.49
   1  -4  -2 1503.65   56.99
   1  -4  -2 1499.45   57.19
   1  -4  -2 1484.35   56.09
  -1   4   2 1484.05   55.89
  -1   4   2 1465.55   59.59
  -1   4   2 1470.25   55.99
   0  -4  -2 2680.03   95.49
   0  -4  -2 2760.02   97.89
   0  -4  -2 2654.53   92.89
   0  -4  -2 2474.75   95.09
   0  -4  -2 2662.73   95.49
   0   4   2 2609.64   94.69
   0   4   2 2611.34   95.19
  -1  -4  -2 2525.45   88.09
  -1  -4  -2 2419.76   88.49
  -1  -4  -2 2454.05   87.59
  -1  -4  -2 2363.96   85.39
  -1  -4  -2 2401.96   87.19
  -1  -4  -2 2484.15   85.69
  -1  -4  -2 2456.95   89.79
   1   4   2 2429.76   85.89
   1   4   2 2374.96   89.59
   1   4   2 2412.16   87.49
   1   4   2 2404.56   88.29
  -2  -4  -2 3436.26  130.29
  -2  -4  -2 3664.83  125.29
  -2  -4  -2 3653.83  129.19
  -2  -4  -2 3453.65  126.29
  -2  -4  -2 3596.14  126.29
  -2  -4  -2 3703.13  128.69
  -2  -4  -2 3599.04  126.59
   2   4   2 3496.25  126.69
   2   4   2 3618.84  128.19
   2   4   2 3557.74  126.59
   2   4   2 3570.84  129.29
  -3  -4  -2 1856.81   65.09
  -3  -4  -2 1770.42   67.49
  -3  -4  -2 1858.81   68.79
  -3  -4  -2 1928.21   66.59
  -3  -4  -2 1821.52   69.59
  -3  -4  -2 1675.43   67.39
   3   4   2 1859.91   66.79
   3   4   2 1872.01   67.99
   3   4   2 1867.31   69.69
   3   4   2 1815.22   69.79
  -4  -4  -2  415.36   21.90
  -4  -4  -2  403.16   22.60
  -4  -4  -2  428.66   19.00
  -4  -4  -2  428.76   16.70
  -4  -4  -2  410.16   21.40
   4   4   2  414.26   21.40
   4   4   2  444.76   24.40
   4   4   2  424.26   19.50
   4   4   2  381.66   20.40
   4   4   2  414.56   22.20
  -5  -4  -2 1201.28   50.89
  -5  -4  -2 1235.18   46.10
  -5  -4  -2 1256.17   49.70
  -5  -4  -2 1289.47   44.90
   5   4   2 1159.08   51.99
   5   4   2 1278.67   53.29
   5   4   2 1289.27   48.50
   5   4   2 1200.08   51.09
   5   4   2 1217.28   49.10
  -6  -4  -2  692.23   28.50
  -6  -4  -2  717.43   36.00
  -6  -4  -2  729.83   33.70
  -6  -4  -2  770.12   27.80
   6   4   2  717.53   31.70
   6   4   2  704.73   33.00
   6   4   2  745.03   32.80
   6   4   2  779.42   38.70
  -7  -4  -2  238.08   24.70
  -7  -4  -2  255.47   20.90
   7   4   2  225.58   20.50
   7   4   2  231.78   27.40
   7   4   2  194.48   18.20
  -8  -4  -2  405.46   27.20
  -8  -4  -2  415.46   34.60
   8   4   2  355.26   35.90
   8   4   2  375.86   26.80
   9   4   2  126.19   27.50
   6  -5  -2  108.09   26.10
   6  -5  -2   69.09   21.00
   5  -5  -2  379.56   37.70
   5  -5  -2  412.86   34.00
  -5   5   2  477.75   29.30
   4  -5  -2  253.47   23.50
   4  -5  -2  227.08   19.60
   4  -5  -2  221.98   20.50
   4  -5  -2  272.07   26.80
  -4   5   2  302.07   22.80
   3  -5  -2 1121.39   52.49
   3  -5  -2 1304.77   59.99
   3  -5  -2 1277.87   50.09
  -3   5   2 1321.57   62.19
  -3   5   2 1312.47   51.69
   2  -5  -2  727.53   27.60
   2  -5  -2  710.73   34.20
   2  -5  -2  705.03   27.60
   2  -5  -2  751.82   31.90
   2  -5  -2  724.73   33.80
   2  -5  -2  671.93   30.80
  -2   5   2  722.83   31.40
  -2   5   2  682.33   37.70
  -2   5   2  712.03   31.40
   1  -5  -2  764.92   38.20
   1  -5  -2  794.92   34.60
   1  -5  -2  760.72   34.20
   1  -5  -2  793.32   33.90
   1  -5  -2  800.42   29.50
  -1   5   2  739.23   32.80
  -1   5   2  747.83   38.00
  -1   5   2  781.42   32.40
   0  -5  -2 2241.48   83.69
   0  -5  -2 2266.47   82.99
   0  -5  -2 2288.07   85.89
   0  -5  -2 2111.59   82.19
   0  -5  -2 2240.58   83.09
   0  -5  -2 2266.67   79.59
   0   5   2 2288.37   81.39
   0   5   2 2199.08   82.59
   0   5   2 2214.38   85.59
  -1  -5  -2 1265.97   45.40
  -1  -5  -2 1270.27   49.99
  -1  -5  -2 1236.08   49.40
  -1  -5  -2 1284.67   46.00
  -1  -5  -2 1273.87   48.80
   1   5   2 1205.38   49.20
   1   5   2 1294.17   52.39
   1   5   2 1206.18   46.10
   1   5   2 1290.67   47.70
  -2  -5  -2 4334.17  159.88
  -2  -5  -2 4628.84  160.18
  -2  -5  -2 4741.43  161.78
  -2  -5  -2 4583.34  162.98
  -2  -5  -2 4592.74  163.88
  -2  -5  -2 4642.74  161.18
   2   5   2 4487.65  162.48
   2   5   2 4471.45  163.98
   2   5   2 4609.94  161.08
   2   5   2 4344.57  160.68
  -3  -5  -2  526.85   27.80
  -3  -5  -2  525.55   25.80
  -3  -5  -2  566.54   27.20
  -3  -5  -2  510.85   23.00
  -3  -5  -2  517.25   24.00
  -3  -5  -2  547.05   21.40
   3   5   2  573.54   29.20
   3   5   2  569.54   23.50
   3   5   2  505.95   25.80
   3   5   2  556.74   25.50
  -4  -5  -2  619.34   31.10
  -4  -5  -2  627.14   26.00
  -4  -5  -2  630.54   24.40
  -4  -5  -2  645.04   30.40
  -4  -5  -2  596.84   29.30
  -4  -5  -2  625.94   27.60
   4   5   2  663.23   33.20
   4   5   2  627.54   29.70
   4   5   2  630.34   30.00
   4   5   2  648.34   27.00
  -5  -5  -2 1250.37   45.30
  -5  -5  -2 1238.58   53.59
  -5  -5  -2 1245.18   50.99
   5   5   2 1196.08   51.89
   5   5   2 1217.28   47.60
   5   5   2 1194.18   50.19
   5   5   2 1265.97   47.20
   5   5   2 1287.97   48.60
   5   5   2 1238.88   54.19
  -6  -5  -2  316.87   14.60
  -6  -5  -2  292.37   21.80
  -6  -5  -2  303.57   28.10
   6   5   2  322.97   19.50
   6   5   2  260.97   20.80
   6   5   2  328.07   18.00
   6   5   2  329.77   17.00
  -7  -5  -2  380.26   16.70
  -7  -5  -2  374.66   24.50
  -7  -5  -2  407.56   30.20
   7   5   2  317.37   23.40
   7   5   2  319.87   31.70
  -8  -5  -2  188.38   29.40
  -8  -5  -2  183.38   24.40
   8   5   2  132.69   21.30
   8   5   2  106.69   22.40
   9   5   2   81.99   26.40
   5  -6  -2  150.58   33.60
   5  -6  -2  189.78   37.30
  -5   6   2  232.28   25.70
   4  -6  -2  422.26   19.90
   4  -6  -2  397.16   26.30
   4  -6  -2  436.96   34.00
  -4   6   2  493.15   28.70
   3  -6  -2  268.67   22.00
   3  -6  -2  280.77   16.40
   3  -6  -2  276.07   26.20
   3  -6  -2  264.67   14.60
  -3   6   2  240.28   30.50
  -3   6   2  273.97   32.10
   2  -6  -2  926.91   42.80
   2  -6  -2  768.12   43.80
   2  -6  -2  896.41   39.00
   2  -6  -2  867.21   33.40
  -2   6   2  885.01   37.20
  -2   6   2  838.42   52.99
  -2   6   2  853.71   38.20
   1  -6  -2 1124.99   46.70
   1  -6  -2 1002.80   45.40
   1  -6  -2 1091.39   40.70
   1  -6  -2 1121.59   46.10
  -1   6   2 1108.99   43.20
  -1   6   2 1015.40   45.30
  -1   6   2 1098.69   50.29
   0  -6  -2  793.62   35.70
   0  -6  -2  823.22   36.20
   0  -6  -2  798.22   30.30
   0  -6  -2  774.72   36.90
   0  -6  -2  785.02   40.70
   0  -6  -2  748.13   34.30
   0   6   2  779.22   39.80
   0   6   2  791.82   32.20
   0   6   2  751.42   34.70
  -1  -6  -2 1003.00   40.90
  -1  -6  -2  978.60   42.10
  -1  -6  -2  963.20   41.50
  -1  -6  -2  913.61   44.50
  -1  -6  -2  981.40   36.70
  -1  -6  -2  971.60   36.40
  -1  -6  -2  964.60   38.40
   1   6   2  974.40   45.20
   1   6   2  920.61   40.90
   1   6   2  944.91   36.50
   1   6   2 1001.70   37.90
  -2  -6  -2 1470.55   62.09
  -2  -6  -2 1518.65   59.59
  -2  -6  -2 1577.44   61.19
  -2  -6  -2 1577.14   56.59
  -2  -6  -2 1523.35   55.49
  -2  -6  -2 1602.44   59.29
   2   6   2 1452.35   59.69
   2   6   2 1571.04   57.19
   2   6   2 1557.94   63.39
   2   6   2 1381.36   61.79
  -3  -6  -2  610.04   33.00
  -3  -6  -2  631.24   25.40
  -3  -6  -2  621.64   24.90
  -3  -6  -2  640.64   31.80
  -3  -6  -2  623.84   28.00
  -3  -6  -2  625.94   29.80
   3   6   2  652.63   30.30
   3   6   2  630.64   34.30
   3   6   2  609.84   30.40
   3   6   2  654.23   30.20
  -4  -6  -2 1124.89   45.80
  -4  -6  -2 1148.09   48.70
  -4  -6  -2 1142.19   46.60
  -4  -6  -2 1130.39   42.10
   4   6   2 1080.39   47.30
   4   6   2 1177.58   44.40
   4   6   2 1134.69   50.79
   4   6   2 1096.09   47.50
  -5  -6  -2 1460.25   58.49
  -5  -6  -2 1422.66   52.39
  -5  -6  -2 1370.96   55.99
  -5  -6  -2 1418.16   59.09
   5   6   2 1441.26   61.49
   5   6   2 1403.76   53.99
   5   6   2 1468.15   62.09
   5   6   2 1469.55   55.39
  -6  -6  -2  366.56   25.40
  -6  -6  -2  452.05   19.40
  -6  -6  -2  451.05   29.90
  -6  -6  -2  484.55   27.90
   6   6   2  463.15   23.80
   6   6   2  467.35   22.20
   6   6   2  420.06   33.20
  -7  -6  -2  442.36   32.40
  -7  -6  -2  418.66   19.30
  -7  -6  -2  476.35   32.40
   7   6   2  374.06   34.90
   7   6   2  429.16   26.10
  -8  -6  -2  193.68   25.90
   8   6   2  171.48   22.80
   4  -7  -2  160.78   33.30
   4  -7  -2  216.58   14.50
   3  -7  -2  115.29   21.30
   3  -7  -2   97.39   11.40
  -3   7   2  141.79   31.10
  -3   7   2  139.69   20.80
   2  -7  -2  500.95   29.20
   2  -7  -2  461.85   21.70
   2  -7  -2  443.26   32.20
  -2   7   2  455.35   36.60
  -2   7   2  525.15   25.70
   1  -7  -2 1275.87   52.69
   1  -7  -2 1219.28   53.29
   1  -7  -2 1191.08   46.10
  -1   7   2 1183.18   59.39
  -1   7   2 1220.78   48.30
   0  -7  -2  592.74   25.10
   0  -7  -2  621.34   32.50
   0   7   2  587.54   26.30
   0   7   2  580.74   35.70
  -1  -7  -2 1189.48   49.50
  -1  -7  -2 1093.49   43.90
  -1  -7  -2 1134.99   48.00
  -1  -7  -2 1100.19   42.50
   1   7   2 1117.89   43.00
   1   7   2 1081.69   42.00
   1   7   2 1116.69   52.69
  -2  -7  -2  833.02   33.90
  -2  -7  -2  867.81   38.40
  -2  -7  -2  913.81   40.90
  -2  -7  -2  841.72   33.20
  -2  -7  -2  845.82   33.20
  -2  -7  -2  750.42   38.90
   2   7   2  811.32   43.20
   2   7   2  803.32   36.30
   2   7   2  879.61   33.70
  -3  -7  -2 1092.99   41.20
  -3  -7  -2 1078.09   44.30
  -3  -7  -2 1098.59   43.50
  -3  -7  -2 1022.60   46.00
  -3  -7  -2 1136.39   48.60
   3   7   2 1064.29   51.29
   3   7   2 1051.59   46.20
   3   7   2 1073.69   42.40
  -4  -7  -2  824.62   35.30
  -4  -7  -2  682.13   35.00
  -4  -7  -2  778.02   30.20
  -4  -7  -2  825.82   49.10
   4   7   2  764.72   33.60
   4   7   2  671.93   36.60
   4   7   2  737.03   40.80
  -5  -7  -2  483.25   30.20
  -5  -7  -2  490.35   20.80
  -5  -7  -2  434.56   27.80
   5   7   2  405.46   34.20
   5   7   2  487.15   24.10
   5   7   2  490.25   21.60
  -6  -7  -2  350.86   26.90
  -6  -7  -2  383.56   30.40
  -6  -7  -2  472.25   29.40
  -6  -7  -2  379.56   18.70
   6   7   2  322.17   34.10
   6   7   2  403.96   23.30
   6   7   2  430.36   20.60
  -7  -7  -2  157.18   25.60
  -7  -7  -2  237.68   28.00
  -7  -7  -2  154.68   13.50
   7   7   2  221.78   20.30
   8   7   2   83.99   15.40
   3  -8  -2   59.49   17.00
   3  -8  -2   66.09   21.20
   2  -8  -2  345.77   33.80
   2  -8  -2  356.86   20.20
   2  -8  -2  329.27   30.30
  -2   8   2  411.56   28.10
  -2   8   2  421.26   40.80
   1  -8  -2  307.17   29.80
   1  -8  -2  309.47   28.70
   1  -8  -2  327.07   18.20
  -1   8   2  307.77   32.80
  -1   8   2  367.16   20.20
   0  -8  -2  213.28   27.40
   0  -8  -2  233.08   25.30
   0  -8  -2  233.38   14.40
   0   8   2  204.98   29.40
   0   8   2  278.67   16.40
  -1  -8  -2  273.27   15.90
  -1  -8  -2  275.57   26.60
  -1  -8  -2  273.57   26.00
  -1  -8  -2  239.38   20.00
   1   8   2  271.37   29.50
   1   8   2  298.07   15.40
  -2  -8  -2  222.18   14.40
  -2  -8  -2  199.88   23.50
  -2  -8  -2  189.28   13.00
  -2  -8  -2  180.28   12.70
  -2  -8  -2  201.08   25.20
   2   8   2  169.28   27.40
   2   8   2  217.68   12.70
   2   8   2  190.08   17.70
  -3  -8  -2  655.13   36.70
  -3  -8  -2  679.43   29.80
  -3  -8  -2  676.23   35.40
  -3  -8  -2  635.24   27.30
   3   8   2  555.14   33.50
   3   8   2  629.44   26.50
   3   8   2  600.14   39.50
  -4  -8  -2  242.08   26.10
  -4  -8  -2  249.58   14.50
   4   8   2  213.18   30.40
   4   8   2  199.38   16.20
  -5  -8  -2  121.09   11.80
  -5  -8  -2  112.09   23.50
   5   8   2   74.89   10.60
   5   8   2   95.59   19.20
  -6  -8  -2  332.47   30.00
  -6  -8  -2  389.86   18.10
   6   8   2  298.97   22.90
   6   8   2  283.57   35.70
  -7  -8  -2  129.09   19.60
  -7  -8  -2   89.39   22.00
   2  -9  -2   10.30   24.70
   2  -9  -2   43.00    9.40
   2  -9  -2   35.90   20.10
  -2   9   2   66.19   24.10
   1  -9  -2  154.28   15.10
   1  -9  -2  150.58   27.10
   1  -9  -2  153.58   30.90
  -1   9   2  227.68   36.80
   0  -9  -2  146.49   29.90
   0  -9  -2  123.19   13.90
   0  -9  -2  122.59   27.20
   0   9   2  143.49   32.40
  -1  -9  -2  232.88   15.50
  -1  -9  -2  239.28   29.40
  -1  -9  -2  211.48   29.00
   1   9   2  195.58   31.80
   1   9   2  279.07   16.00
  -2  -9  -2  276.37   28.10
  -2  -9  -2  235.98   29.20
  -2  -9  -2  271.87   17.00
   2   9   2  217.18   34.70
  -3  -9  -2  318.47   29.50
  -3  -9  -2  295.07   31.30
  -3  -9  -2  332.77   18.70
   3   9   2  293.37   36.20
  -4  -9  -2  148.49   27.10
  -4  -9  -2  132.99   13.30
  -4  -9  -2  141.29   25.90
  -5  -9  -2  101.09   23.70
  -5  -9  -2  101.79   13.10
  -6  -9  -2  198.08   15.80
  -6  -9  -2  166.28   31.90
   0 -10  -2  169.68   31.10
   0  10   2  220.28   43.00
  -1 -10  -2   38.40   10.10
  -1 -10  -2   40.60   25.50
  -1 -10  -2   56.89   19.20
   1  10   2   56.69   23.60
  -2 -10  -2  204.98   17.80
  -2 -10  -2  149.59   32.10
  -2 -10  -2  235.28   43.60
   2  10   2  264.77   39.60
  -3 -10  -2   69.09   10.00
  -3 -10  -2   80.69   25.90
  -3 -10  -2   66.89   18.50
   3  10   2   86.09   24.50
  -4 -10  -2  107.89   14.40
  -4 -10  -2   81.89   26.80
  -4 -10  -2   74.99   18.70
   4  10   2   38.40   23.70
  -5 -10  -2  195.68   17.10
  -5 -10  -2  161.48   33.30
  -5 -10  -2  177.18   33.70
   4   8  -3  -17.20   18.60
   4   8  -3   16.50   19.40
  -4  -8   3   20.00   19.60
  -4  -8   3  -18.30   25.80
   3   8  -3   19.50    8.20
   3   8  -3   31.90   18.90
  -3  -8   3   -4.90   19.10
  -3  -8   3    3.30   24.50
   2   8  -3    6.90   16.50
   2   8  -3   35.50    9.20
   2   8  -3   21.90   22.70
  -2  -8   3   32.20   24.10
  -2  -8   3   -0.40   19.30
   1   8  -3   42.10   20.00
   1   8  -3   28.80    9.10
   1   8  -3   66.39   26.40
  -1  -8   3   19.70   22.80
   0   8  -3   44.70    9.90
   0   8  -3   64.29   16.50
   0  -8   3   65.39   25.00
  -1   8  -3   88.99   11.80
  -1   8  -3  133.79   31.10
   1  -8   3   63.09   24.70
  -2   8  -3   43.20   18.90
   2  -8   3  -18.30   23.20
   2  -8   3   13.80   17.00
   5   7  -3   35.40   17.30
  -5  -7   3    1.30    7.40
  -5  -7   3  -31.80   20.80
  -5  -7   3   18.10   18.40
   4   7  -3  -24.10   14.40
  -4  -7   3    2.80   17.10
   3   7  -3   33.10   11.40
   3   7  -3   38.30   15.10
   3   7  -3   17.70   14.90
  -3  -7   3   35.10   18.00
  -3  -7   3   29.50   19.20
   2   7  -3   59.39   15.90
   2   7  -3   60.59    8.80
   2   7  -3   31.70   13.60
  -2  -7   3   87.49   20.90
  -2  -7   3   35.50   18.50
   1   7  -3   12.30    6.80
   1   7  -3    9.10   11.80
   1   7  -3   12.50   13.70
  -1  -7   3    1.20   17.00
  -1  -7   3    1.30   23.00
   0   7  -3   20.60   12.30
   0   7  -3   17.60   15.40
   0   7  -3   20.30    7.80
   0  -7   3   -8.70   17.30
   0  -7   3   29.70   18.20
  -1   7  -3   73.49   12.30
   1  -7   3   57.99   20.40
  -2   7  -3   27.30    8.10
   2  -7   3  -15.40   19.00
   2  -7   3    6.40   19.80
  -3   7  -3    8.90    7.70
   3  -7   3  -11.80   18.70
   3  -7   3   26.20   22.40
   3  -7   3    0.50   16.10
  -4   7  -3   34.80    9.60
   4  -7   3   22.30   19.00
   4  -7   3    8.70   17.50
   4  -7   3   23.70   23.20
   6   6  -3   21.90   15.80
  -6  -6   3   16.20   20.20
   5   6  -3   -2.20   14.00
  -5  -6   3    5.50    6.10
  -5  -6   3   26.00   17.30
   4   6  -3   13.50   13.00
   4   6  -3   -4.90    5.90
   4   6  -3  -11.80   12.40
  -4  -6   3   -5.30   19.50
  -4  -6   3   -1.60   14.70
   3   6  -3   61.29   13.90
   3   6  -3   76.69   15.70
   3   6  -3   77.69   10.70
  -3  -6   3  100.69   19.40
  -3  -6   3  112.39   22.70
   2   6  -3   28.40   12.30
   2   6  -3   31.30   12.80
   2   6  -3   51.09    7.30
  -2  -6   3   54.99   16.90
  -2  -6   3   41.60   18.30
  -2  -6   3   33.70    9.30
   1   6  -3   17.60   11.60
   1   6  -3   14.40    5.60
   1   6  -3   16.00   10.80
  -1  -6   3   21.00   14.70
  -1  -6   3   -7.50   13.60
  -1  -6   3   21.30   15.80
   0   6  -3   12.90   11.80
   0   6  -3   32.70   10.70
   0   6  -3   19.70    5.90
   0  -6   3   10.20   14.90
   0  -6   3   43.20   16.40
  -1   6  -3  166.38   26.70
  -1   6  -3  194.88   21.20
  -1   6  -3  175.48   13.20
   1  -6   3  133.69   26.10
   1  -6   3  164.68   26.10
  -2   6  -3  221.58   23.80
  -2   6  -3  195.08   15.80
   2  -6   3  194.18   12.60
   2  -6   3  222.18   25.90
   2  -6   3  152.48   27.30
  -3   6  -3   66.89    9.10
   3  -6   3   86.59   20.00
   3  -6   3   83.19   12.80
  -4   6  -3   66.69    9.70
   4  -6   3   79.39   18.60
   4  -6   3   76.49   17.30
   4  -6   3   63.19   18.80
   4  -6   3  102.99   21.30
  -5   6  -3   40.10    9.10
   5  -6   3   41.10   22.70
   5  -6   3   54.79   18.10
   5  -6   3   44.20   11.50
   5  -6   3   44.20   19.50
   5  -6   3   50.99   18.40
   7   5  -3  -19.50   20.60
   7   5  -3   38.80   16.00
   6   5  -3    5.30   13.80
   6   5  -3    0.90   15.90
  -6  -5   3   -0.60   15.50
  -6  -5   3   38.80   26.80
   5   5  -3   98.69   12.00
  -5  -5   3   86.09   18.70
  -5  -5   3   83.89   17.60
   4   5  -3   30.50    7.30
   4   5  -3   26.50    5.60
  -4  -5   3    7.20   13.70
  -4  -5   3   29.50   14.50
   3   5  -3  105.99   10.10
   3   5  -3   82.09   19.80
   3   5  -3  157.38   25.80
  -3  -5   3  122.79   19.70
  -3  -5   3  105.79   19.20
  -3  -5   3  100.29   25.20
   2   5  -3  215.58   21.20
   2   5  -3  242.18   23.40
   2   5  -3  238.18   13.30
  -2  -5   3  244.18   28.20
  -2  -5   3  271.57   22.90
  -2  -5   3  206.98   16.80
   1   5  -3  178.68   21.70
   1   5  -3  141.29   21.80
   1   5  -3  137.59   18.30
   1   5  -3  168.38   11.60
  -1  -5   3  158.88   15.80
  -1  -5   3  210.68   26.70
  -1  -5   3  180.98   20.90
   0   5  -3   34.70    6.20
   0   5  -3   47.80   12.40
   0   5  -3   27.10   10.30
   0   5  -3   26.30    9.50
   0  -5   3   41.20   14.90
   0  -5   3   18.00    8.50
   0  -5   3   40.50   13.50
  -1   5  -3   30.70    9.60
  -1   5  -3   20.30    5.30
   1  -5   3   44.60   14.50
   1  -5   3   32.40    7.30
   1  -5   3   19.80   10.00
  -2   5  -3  348.57   24.60
  -2   5  -3  311.27   16.00
   2  -5   3  346.57   26.70
   2  -5   3  312.37   27.90
   2  -5   3  289.17   24.90
   2  -5   3  291.77   20.90
   2  -5   3  322.67   15.90
   2  -5   3  361.76   19.60
  -3   5  -3   -0.90    5.60
   3  -5   3   15.80    9.00
   3  -5   3    7.00   15.20
   3  -5   3   -5.00   12.50
   3  -5   3    3.40    5.60
  -4   5  -3   14.00    6.80
   4  -5   3   24.00   16.00
   4  -5   3   13.80    7.60
   4  -5   3   24.90   12.40
   4  -5   3   17.30   12.00
  -5   5  -3   26.80    7.60
   5  -5   3   53.29   18.10
   5  -5   3   44.40   14.50
   5  -5   3   26.50   10.00
   5  -5   3   44.50   16.60
   5  -5   3   17.10   14.80
  -6   5  -3   22.90    8.70
   6  -5   3   42.20   18.60
   6  -5   3   43.10   19.50
   6  -5   3   44.90   13.60
   7   4  -3    5.30   18.50
   7   4  -3   40.50   11.80
   6   4  -3   40.20   12.90
  -6  -4   3   43.40   16.80
  -6  -4   3   31.70   13.40
   5   4  -3  301.97   25.60
   5   4  -3  307.77   26.60
   5   4  -3  293.67   19.50
  -5  -4   3  267.87   22.10
  -5  -4   3  296.87   27.80
   4   4  -3   74.79    8.10
   4   4  -3   90.89   19.40
   4   4  -3   74.69   12.20
   4   4  -3   69.39   12.60
  -4  -4   3   80.69   21.90
  -4  -4   3   74.19   16.60
  -4  -4   3   62.59   10.50
   3   4  -3   22.10    9.50
   3   4  -3   25.30    5.50
   3   4  -3   19.30    9.60
   3   4  -3   28.00    4.90
  -3  -4   3   12.50   13.30
  -3  -4   3   28.00   12.10
  -3  -4   3   11.40    9.60
   2   4  -3   30.50   11.20
   2   4  -3   22.00    8.70
   2   4  -3   14.60    9.20
   2   4  -3   24.10    4.50
  -2  -4   3   38.80   12.00
  -2  -4   3   10.90    9.10
  -2  -4   3   21.00    6.50
  -2  -4   3   37.00   14.00
   1   4  -3    8.00    8.50
   1   4  -3   14.00    7.70
   1   4  -3    7.60   10.00
  -1  -4   3   21.80    8.10
  -1  -4   3    8.20    5.80
  -1  -4   3   12.80    9.70
  -1  -4   3   26.80   13.50
  -1  -4   3   27.90   10.80
   0   4  -3   48.70   10.90
   0   4  -3   44.50   10.00
   0   4  -3   53.69    8.00
   0   4  -3   44.50    8.50
   0  -4   3   85.59   21.10
   0  -4   3   54.09   11.80
   0  -4   3   28.40    8.30
   0  -4   3   57.99   11.70
   0  -4   3   41.30   11.40
  -1   4  -3   10.20    8.60
  -1   4  -3   24.50    9.30
  -1   4  -3   19.20    4.70
  -1   4  -3   14.70    7.70
   1  -4   3   23.20   11.30
   1  -4   3   12.70    3.50
   1  -4   3   19.80   10.90
   1  -4   3   34.00   12.00
   1  -4   3   24.10    9.90
   1  -4   3   13.20    8.10
  -2   4  -3   10.50    4.50
  -2   4  -3    9.50    8.30
  -2   4  -3    6.50    9.70
   2  -4   3    9.00    8.40
   2  -4   3    4.80    8.30
   2  -4   3   10.00    4.60
   2  -4   3    1.20   11.30
   2  -4   3   11.50   11.60
   2  -4   3   12.60    4.10
   2  -4   3   11.70   11.50
   2  -4   3    4.50    7.80
  -3   4  -3   41.40    6.20
   3  -4   3   29.00   11.60
   3  -4   3   38.00   20.20
   3  -4   3   24.20    6.00
   3  -4   3   37.20   12.30
   3  -4   3   23.90    6.20
   3  -4   3   41.70   13.40
   3  -4   3   29.40    9.00
  -4   4  -3   33.90    6.10
   4  -4   3   47.50   12.70
   4  -4   3   33.60   10.80
   4  -4   3   22.30    7.20
  -5   4  -3   95.49   11.50
   5  -4   3   94.19   15.10
   5  -4   3  114.89   21.00
   5  -4   3   92.19   15.50
  -6   4  -3   15.20    7.40
   6  -4   3   24.00   13.80
   6  -4   3    7.30   15.30
   6  -4   3   15.30   15.00
   6  -4   3   12.70   10.10
   7   3  -3  -16.20   13.10
  -7  -3   3   35.20   17.80
   6   3  -3    1.60   12.50
  -6  -3   3   22.70   13.60
  -6  -3   3   12.80    8.90
   5   3  -3  242.58   23.30
   5   3  -3  246.48   18.20
   5   3  -3  250.37   24.20
  -5  -3   3  265.47   17.60
  -5  -3   3  244.18   17.40
  -5  -3   3  252.37   17.40
  -5  -3   3  244.18   25.20
   4   3  -3   52.59    6.60
   4   3  -3   57.59   11.00
   4   3  -3   42.90   11.50
   4   3  -3   64.99   11.80
  -4  -3   3   64.29   11.50
  -4  -3   3   46.40    9.80
  -4  -3   3   39.70   10.10
  -4  -3   3   59.69   13.60
  -4  -3   3   66.19   13.70
   3   3  -3   56.39   13.70
   3   3  -3   64.79   14.30
   3   3  -3   65.89    9.80
   3   3  -3   37.00    9.60
   3   3  -3   59.79    6.50
  -3  -3   3   44.30    8.40
  -3  -3   3   71.79   13.20
  -3  -3   3   41.60    9.40
  -3  -3   3   51.89   13.20
  -3  -3   3   49.50    8.10
   2   3  -3   28.60    6.20
   2   3  -3   37.00    7.50
   2   3  -3   21.80    8.20
   2   3  -3   37.50   10.50
   2   3  -3   38.80    7.90
  -2  -3   3   55.59   12.90
  -2  -3   3   24.10    5.80
  -2  -3   3   28.50    8.40
  -2  -3   3   32.40    6.30
   1   3  -3  429.96   17.80
   1   3  -3  430.16   16.10
   1   3  -3  412.86   24.40
   1   3  -3  464.85   21.10
   1   3  -3  394.06   23.20
  -1  -3   3  448.36   26.80
  -1  -3   3  414.06   22.50
  -1  -3   3  411.86   16.00
  -1  -3   3  428.56   22.40
  -1  -3   3  435.66   19.50
  -1  -3   3  406.56   23.40
   0   3  -3  386.46   16.60
   0   3  -3  373.26   21.80
   0   3  -3  416.16   22.30
   0   3  -3  400.16   23.10
   0  -3   3  382.46   21.80
   0  -3   3  386.86   15.60
   0  -3   3  402.26   18.20
   0  -3   3  391.66   21.70
   0  -3   3  393.36   21.80
   0  -3   3  416.26   24.60
  -1   3  -3   32.20    6.70
  -1   3  -3   37.40    5.70
  -1   3  -3   31.30    8.00
  -1   3  -3   31.80    8.50
   1  -3   3   43.60   10.40
   1  -3   3   23.20    5.10
   1  -3   3   38.10   10.30
   1  -3   3   39.10    9.90
   1  -3   3   44.50   10.40
   1  -3   3   29.20    7.30
  -2   3  -3   48.60    9.00
  -2   3  -3   60.89    6.60
  -2   3  -3   53.29    8.30
   2  -3   3   54.39   11.70
   2  -3   3   72.79   11.40
   2  -3   3   64.39   13.00
   2  -3   3   55.79    7.10
   2  -3   3   41.70    7.60
   2  -3   3   46.20   11.80
   2  -3   3   65.89   14.30
   2  -3   3   45.30    8.20
  -3   3  -3    3.20    4.80
   3  -3   3   -4.30    4.40
   3  -3   3   -0.50    7.80
   3  -3   3   -2.70    4.60
   3  -3   3   -2.70    7.00
   3  -3   3   -8.00    6.40
   3  -3   3  -11.50    8.80
   3  -3   3    1.80   10.40
   3  -3   3  -11.60   10.00
  -4   3  -3   40.00    5.90
   4  -3   3   34.80    7.30
   4  -3   3   37.00   11.70
   4  -3   3   43.80   12.70
   4  -3   3   41.80   10.40
   4  -3   3   40.60    9.30
   4  -3   3   53.59   19.80
   4  -3   3   66.39   14.10
   4  -3   3   29.90    9.70
   4  -3   3   29.10    9.90
   4  -3   3   59.09   13.80
  -5   3  -3   87.39    9.40
   5  -3   3   86.19   16.90
   5  -3   3  106.89   17.60
   5  -3   3   64.79   13.40
   5  -3   3   65.89   11.70
   5  -3   3   92.99   18.00
   5  -3   3   96.19   15.20
  -6   3  -3   11.80    6.20
   6  -3   3   35.50   14.30
   6  -3   3   12.90    9.80
   6  -3   3   19.00   13.70
  -7   3  -3   11.00    7.70
   7  -3   3   18.30   14.50
   7  -3   3   10.60   17.50
   7  -3   3   23.20   12.60
   7   2  -3    5.60   14.10
   7   2  -3   28.60   18.10
   6   2  -3   53.89   15.80
   6   2  -3   38.50   13.00
  -6  -2   3   71.29   15.60
   5   2  -3   78.19   12.90
   5   2  -3   90.69   14.30
  -5  -2   3   88.19   13.10
  -5  -2   3  103.29   14.00
  -5  -2   3  102.79   20.10
  -5  -2   3   93.89   10.90
   4   2  -3  438.46   21.80
   4   2  -3  390.16   16.00
   4   2  -3  445.36   26.30
   4   2  -3  426.76   25.50
  -4  -2   3  433.46   20.60
  -4  -2   3  412.16   25.70
  -4  -2   3  409.76   21.10
  -4  -2   3  376.56   24.10
  -4  -2   3  409.36   27.80
  -4  -2   3  400.86   23.10
   3   2  -3   48.60    9.20
   3   2  -3   51.09   11.50
   3   2  -3   51.79    6.10
   3   2  -3   62.09   10.00
   3   2  -3   69.39   12.30
  -3  -2   3   43.40    8.70
  -3  -2   3   53.69    9.90
  -3  -2   3   43.10   11.30
  -3  -2   3   64.59   10.40
  -3  -2   3   57.29   10.50
  -3  -2   3   35.80    8.50
   2   2  -3  194.58   17.40
   2   2  -3  203.58   12.30
   2   2  -3  200.48   16.40
   2   2  -3  195.98    9.30
   2   2  -3  213.28   13.50
  -2  -2   3  223.98   18.90
  -2  -2   3  205.38   13.60
  -2  -2   3  193.68   12.10
  -2  -2   3  180.78   11.10
  -2  -2   3  208.58   16.30
  -2  -2   3  218.68   13.50
   1   2  -3  289.07   12.10
   1   2  -3  275.17   13.20
   1   2  -3  293.07   18.00
   1   2  -3  308.67   14.50
   1   2  -3  261.27   18.50
  -1  -2   3  281.37   12.70
  -1  -2   3  283.67   16.00
  -1  -2   3  277.57   13.20
  -1  -2   3  290.97   17.80
  -1  -2   3  289.17   16.20
  -1  -2   3  283.97   20.40
   0   2  -3  145.49    9.40
   0   2  -3  121.59   13.60
   0   2  -3  126.79    6.90
   0   2  -3  159.38   16.40
   0   2  -3  125.69    7.60
   0  -2   3  149.19    8.20
   0  -2   3  160.48   13.30
   0  -2   3  146.49   15.30
   0  -2   3  146.99    8.60
   0  -2   3  121.39   12.30
   0  -2   3  139.59   12.50
  -1   2  -3  131.39    9.20
  -1   2  -3  122.39   12.80
  -1   2  -3  119.19   12.60
  -1   2  -3  135.39    7.40
  -1   2  -3  140.79    7.50
   1  -2   3  136.39   12.90
   1  -2   3  149.88   10.40
   1  -2   3  142.59   14.40
   1  -2   3  110.89   12.90
  -2   2  -3  396.36   21.50
  -2   2  -3  455.05   18.00
   2  -2   3  436.76   22.60
   2  -2   3  417.66   18.20
   2  -2   3  440.96   22.10
   2  -2   3  419.86   20.00
   2  -2   3  435.56   21.50
   2  -2   3  409.96   21.10
  -3   2  -3  132.49    8.20
   3  -2   3  127.19   12.70
   3  -2   3  132.29   13.60
   3  -2   3  124.29   10.10
   3  -2   3  100.79   13.90
   3  -2   3  123.49    9.90
   3  -2   3  118.29   11.70
   3  -2   3   93.49   14.10
   3  -2   3  116.59   15.00
  -4   2  -3   89.59   10.00
   4  -2   3   60.19   13.50
   4  -2   3   63.49   12.90
   4  -2   3   61.49   14.40
   4  -2   3   71.29   14.70
   4  -2   3   72.89   17.90
   4  -2   3   48.40   10.70
   4  -2   3   70.19   11.40
   4  -2   3   68.29   15.10
  -5   2  -3  130.09    9.60
   5  -2   3  111.49   15.40
   5  -2   3  123.49   15.70
   5  -2   3  104.29   18.00
   5  -2   3  128.59   24.50
   5  -2   3  114.39   16.50
  -6   2  -3   56.19    9.00
   6  -2   3   54.59   10.70
   6  -2   3   36.00   14.40
   6  -2   3   56.29   12.60
  -7   2  -3    5.10    7.20
  -7   2  -3    3.40   15.00
   7  -2   3   -6.80   10.60
   7  -2   3    1.90   14.60
   7  -2   3   -0.40   10.90
   7  -2   3   18.80   11.80
   8  -2   3   19.90   19.70
   8  -2   3   25.30   14.20
   7   1  -3   86.59   20.70
   7   1  -3   77.29   16.60
   6   1  -3   27.10   13.20
   6   1  -3   49.40   15.90
  -6  -1   3   51.99   14.30
  -6  -1   3   76.49   16.80
   5   1  -3   -5.00    9.30
   5   1  -3    7.90   10.10
  -5  -1   3   -8.10    8.20
  -5  -1   3    1.60   10.50
  -5  -1   3   16.50    7.50
   4   1  -3  331.27   23.50
   4   1  -3  294.67   25.30
   4   1  -3  331.07   19.70
   4   1  -3  348.27   22.70
  -4  -1   3  314.77   20.00
  -4  -1   3  334.07   19.40
  -4  -1   3  320.07   23.20
  -4  -1   3  315.47   21.40
   3   1  -3 1165.08   46.40
   3   1  -3 1135.79   45.30
   3   1  -3 1142.49   43.70
   3   1  -3 1074.79   47.20
  -3  -1   3 1116.49   46.80
  -3  -1   3 1082.09   41.50
  -3  -1   3 1119.69   45.50
  -3  -1   3 1111.19   44.30
  -3  -1   3 1095.09   43.50
   2   1  -3  601.14   28.80
   2   1  -3  628.54   31.30
   2   1  -3  610.94   22.60
   2   1  -3  602.84   25.60
   2   1  -3  602.94   26.00
  -2  -1   3  628.24   29.30
  -2  -1   3  611.74   25.50
  -2  -1   3  620.54   25.00
  -2  -1   3  636.34   28.50
  -2  -1   3  624.14   24.90
  -2  -1   3  594.04   24.90
   1   1  -3 1226.68   49.60
   1   1  -3 1301.77   48.90
   1   1  -3 1259.07   45.00
   1   1  -3 1212.68   46.50
   1   1  -3 1288.57   46.30
  -1  -1   3 1301.67   48.70
  -1  -1   3 1257.17   46.60
  -1  -1   3 1267.97   47.30
  -1  -1   3 1246.08   46.00
   0   1  -3   12.20    4.90
   0   1  -3   23.10    5.20
   0   1  -3   15.20    2.50
   0   1  -3   16.10    7.20
   0   1  -3   21.80    6.50
   0  -1   3   16.40    2.90
   0  -1   3   26.10    7.20
   0  -1   3   13.90    5.40
   0  -1   3   11.40    6.20
  -1   1  -3  575.54   22.10
  -1   1  -3  575.54   25.10
  -1   1  -3  575.14   24.30
  -1   1  -3  581.94   21.70
  -1   1  -3  556.94   24.90
   1  -1   3  560.94   26.10
   1  -1   3  580.44   25.60
   1  -1   3  587.34   21.50
   1  -1   3  561.94   25.00
  -2   1  -3  762.42   32.40
  -2   1  -3  795.82   28.80
  -2   1  -3  784.92   29.90
  -2   1  -3  770.72   31.10
   2  -1   3  791.52   29.70
   2  -1   3  770.82   32.40
   2  -1   3  782.22   32.10
   2  -1   3  759.92   31.50
   2  -1   3  779.92   32.20
   2  -1   3  789.72   29.90
   2  -1   3  761.82   30.00
  -3   1  -3  141.29   12.00
  -3   1  -3  141.69    7.80
  -3   1  -3  136.79   13.10
   3  -1   3  159.38   16.40
   3  -1   3  133.09   12.80
   3  -1   3  127.19    9.70
   3  -1   3  141.39   10.80
   3  -1   3  130.89    9.50
   3  -1   3  126.99   14.40
   3  -1   3  125.29   11.70
  -4   1  -3  438.36   23.60
  -4   1  -3  399.96   23.10
  -4   1  -3  424.46   16.80
   4  -1   3  426.36   19.60
   4  -1   3  384.66   19.70
   4  -1   3  423.96   20.60
   4  -1   3  412.36   21.70
   4  -1   3  410.96   22.30
   4  -1   3  401.96   22.30
   4  -1   3  400.16   22.00
   4  -1   3  381.96   20.10
  -5   1  -3   22.00   10.40
  -5   1  -3    6.60    9.50
  -5   1  -3   12.90    4.00
   5  -1   3    8.70    5.80
   5  -1   3    5.70    6.40
   5  -1   3   14.00    8.50
   5  -1   3    9.90    6.90
   5  -1   3    5.80    6.60
   5  -1   3    9.70    8.00
   5  -1   3   16.40    8.60
  -6   1  -3   67.79    8.20
  -6   1  -3   62.69   16.10
   6  -1   3   72.69   15.40
   6  -1   3   51.89   12.60
   6  -1   3   43.20    9.00
  -7   1  -3   36.50   14.80
  -7   1  -3    9.20    7.80
   7  -1   3   15.60   13.40
   7  -1   3   13.80    9.90
   7  -1   3   -3.30    9.40
  -8   1  -3   52.99   19.00
   8  -1   3    5.80   18.50
   8  -1   3   18.00   13.50
  -7   0   3  155.98   26.10
  -7   0   3  223.78   30.40
   6   0  -3   24.60   16.50
   6   0  -3   38.80   13.50
  -5   0   3   36.00   10.70
   4   0  -3  127.09   15.90
   4   0  -3  124.39   14.20
   4   0  -3  101.79   19.40
   4   0  -3  111.99   18.00
   4   0  -3  136.09   17.50
  -4   0   3   98.29   13.20
  -4   0   3  100.39   14.70
  -4   0   3   92.99   15.80
   3   0  -3  293.07   19.30
   3   0  -3  248.68   17.90
   3   0  -3  283.27   17.60
   3   0  -3  255.07   19.90
   3   0  -3  286.47   16.80
  -3   0   3  284.17   17.70
  -3   0   3  276.87   18.50
  -3   0   3  252.87   16.00
   2   0  -3  312.07   18.80
   2   0  -3  316.27   16.80
   2   0  -3  324.97   16.60
   2   0  -3  299.37   16.20
   2   0  -3  338.37   18.40
  -2   0   3  338.27   17.80
  -2   0   3  315.57   13.80
  -2   0   3  292.97   15.90
  -2   0   3  311.17   18.30
   1   0  -3   37.90    6.50
   1   0  -3   30.90    5.80
   1   0  -3   33.60    3.70
   1   0  -3   33.20    6.50
   1   0  -3   36.50    5.10
  -1   0   3   34.50    5.30
  -1   0   3   23.40    6.40
  -1   0   3   30.20    5.70
   0   0  -3  214.68    9.60
   0   0  -3  219.28   13.70
   0   0  -3  217.18    9.30
   0   0  -3  214.68    9.90
   0   0  -3  213.38   12.50
   0   0  -3  231.18   13.60
   0   0  -3  238.28   12.30
   0   0   3  253.57   15.30
   0   0   3  217.98   12.30
   0   0   3  240.38   13.50
   0   0   3  229.88   15.10
  -1   0  -3  214.58   12.80
  -1   0  -3  201.78   12.90
  -1   0  -3  179.88   10.10
  -1   0  -3  207.58   10.30
   1   0   3  255.07   12.40
   1   0   3  209.28   12.80
   1   0   3  197.18   10.90
   1   0   3  218.48   13.40
  -2   0  -3 1298.77   48.30
  -2   0  -3 1253.77   48.80
  -2   0  -3 1316.07   47.80
  -2   0  -3 1294.57   49.99
  -2   0  -3 1340.97   47.00
   2   0   3 1276.97   49.60
   2   0   3 1320.37   48.70
   2   0   3 1339.67   51.09
   2   0   3 1332.67   47.70
   2   0   3 1379.76   48.20
  -3   0  -3  542.85   24.70
  -3   0  -3  539.45   22.70
  -3   0  -3  508.55   24.80
  -3   0  -3  558.34   20.90
  -3   0  -3  548.95   24.40
   3   0   3  529.95   24.40
   3   0   3  552.64   24.50
   3   0   3  578.74   22.10
   3   0   3  554.84   23.70
   3   0   3  555.34   23.10
  -4   0  -3    5.70    6.50
  -4   0  -3    7.70    5.90
  -4   0  -3   11.80    3.50
  -4   0  -3    6.60    8.10
   4   0   3    6.70    5.00
   4   0   3    7.40    4.50
   4   0   3    6.60    4.50
   4   0   3    7.70    4.50
   4   0   3   11.40    5.90
   4   0   3   14.40    8.10
   4   0   3    6.50    6.30
  -5   0  -3    9.00    9.20
  -5   0  -3    2.00    8.00
  -5   0  -3   10.80    3.50
   5   0   3    4.10    5.40
   5   0   3   -0.50    6.10
   5   0   3   11.40    5.50
   5   0   3    4.90    5.40
   5   0   3   10.80    8.70
   5   0   3   10.30    8.20
   5   0   3    6.00    7.70
  -6   0  -3  150.58    9.00
  -6   0  -3  160.68   19.90
  -6   0  -3  154.28   16.40
   6   0   3  137.99   16.50
   6   0   3  150.38   14.60
   6   0   3  124.59   13.60
   6   0   3  166.98   21.10
   6   0   3  132.89   13.30
  -7   0  -3   37.80   12.70
  -7   0  -3   28.70    8.00
  -7   0  -3   42.70   13.80
   7   0   3   16.90    8.30
   7   0   3   41.80   10.90
   7   0   3   28.60   10.40
   7   0   3   31.30   10.80
   7   0   3   29.00   13.30
  -8   0  -3   19.30   16.40
   8   0   3  -12.50   16.10
   8   0   3   12.10   11.50
   7  -1  -3   15.70   16.20
   7  -1  -3   14.90   18.70
  -7   1   3   42.90   13.30
   6  -1  -3   14.90   14.40
   6  -1  -3    1.60   12.40
  -6   1   3   22.60   10.10
   5  -1  -3  104.59   21.20
  -5   1   3  146.29   18.70
  -5   1   3  160.88   17.80
   4  -1  -3   69.59   15.80
   4  -1  -3   54.09   11.70
   4  -1  -3   68.59   11.20
   4  -1  -3   58.99   12.40
   4  -1  -3   66.99   15.50
  -4   1   3   48.20   10.20
  -4   1   3   54.29    9.00
  -4   1   3   56.39    9.20
   3  -1  -3   20.30    7.50
   3  -1  -3   22.70    8.90
   3  -1  -3   12.10    7.50
   3  -1  -3   11.30    6.90
   3  -1  -3    9.20    6.60
  -3   1   3    4.60    6.10
  -3   1   3   10.50    6.10
  -3   1   3    6.10    7.00
   2  -1  -3  244.68   14.60
   2  -1  -3  243.28   14.40
   2  -1  -3  227.58   15.60
   2  -1  -3  238.78   15.40
   2  -1  -3  231.98   15.40
  -2   1   3  233.98   14.40
  -2   1   3  220.08   16.20
  -2   1   3  222.38   14.00
   1  -1  -3 3399.66  118.79
   1  -1  -3 3379.46  120.59
   1  -1  -3 3271.97  120.19
   1  -1  -3 3504.35  120.39
  -1   1   3 3377.86  120.39
  -1   1   3 3304.77  120.39
  -1   1   3 3458.45  120.49
  -1   1   3 3315.97  118.49
   0  -1  -3 1667.23   63.59
   0  -1  -3 1709.83   63.99
   0  -1  -3 1756.92   63.19
   0  -1  -3 1782.22   63.89
   0  -1  -3 1775.82   63.09
   0  -1  -3 1783.72   61.59
   0   1   3 1777.92   62.99
   0   1   3 1755.22   63.09
   0   1   3 1790.22   63.79
   0   1   3 1677.53   63.99
  -1  -1  -3  770.02   28.70
  -1  -1  -3  757.52   27.70
  -1  -1  -3  743.93   28.60
  -1  -1  -3  687.83   28.90
  -1  -1  -3  735.13   26.80
   1   1   3  770.52   27.80
   1   1   3  693.63   29.00
   1   1   3  740.83   28.40
   1   1   3  717.83   28.60
  -2  -1  -3  237.48   11.60
  -2  -1  -3  235.98   11.30
  -2  -1  -3  209.08   12.80
  -2  -1  -3  252.87   10.90
  -2  -1  -3  230.18   12.50
  -2  -1  -3  227.48    9.70
   2   1   3  220.08   13.10
   2   1   3  212.48   12.40
   2   1   3  254.57   11.00
   2   1   3  250.87   11.60
   2   1   3  237.58   11.80
  -3  -1  -3  710.03   31.20
  -3  -1  -3  729.03   30.30
  -3  -1  -3  770.12   27.40
  -3  -1  -3  736.33   29.40
  -3  -1  -3  711.63   30.40
   3   1   3  742.43   30.40
   3   1   3  761.42   30.00
   3   1   3  770.22   27.10
   3   1   3  756.72   29.60
   3   1   3  723.03   30.20
  -4  -1  -3  360.26   19.60
  -4  -1  -3  384.96   15.30
  -4  -1  -3  373.36   19.70
  -4  -1  -3  371.46   19.70
   4   1   3  397.36   18.80
   4   1   3  399.26   20.00
   4   1   3  360.56   19.60
   4   1   3  367.66   19.00
  -5  -1  -3   28.40    3.80
  -5  -1  -3   26.80    8.30
  -5  -1  -3   22.10    9.40
  -5  -1  -3   30.20    9.20
   5   1   3   23.50    6.10
   5   1   3   16.70    6.20
   5   1   3   34.50    9.00
   5   1   3   27.70    8.40
  -6  -1  -3   95.09   17.30
  -6  -1  -3   86.89    7.00
  -6  -1  -3   73.29   14.90
   6   1   3   73.89   12.90
   6   1   3   95.89   13.90
   6   1   3   79.19   13.10
  -7  -1  -3   89.89   16.40
  -7  -1  -3   89.49   22.70
   7   1   3   61.29   14.20
   7   1   3   72.09   16.30
   7   1   3   69.79   14.10
  -8  -1  -3   24.40   12.60
  -8  -1  -3   31.00   15.20
   8   1   3   -3.50   15.00
   8   1   3   -4.70   11.90
   9   1   3   33.30   22.10
   9   1   3    7.60   20.00
   7  -2  -3    8.10   20.30
  -7   2   3   34.90   14.00
   6  -2  -3   28.60   16.30
  -6   2   3   59.19   12.80
   5  -2  -3  321.37   26.50
   5  -2  -3  334.77   29.40
  -5   2   3  336.37   23.80
  -5   2   3  344.17   23.30
   4  -2  -3  215.38   20.40
   4  -2  -3  166.48   18.40
   4  -2  -3  199.18   20.70
  -4   2   3  207.78   17.30
  -4   2   3  175.28   16.40
  -4   2   3  167.18   17.00
   3  -2  -3   18.30    7.20
   3  -2  -3   19.80    8.50
   3  -2  -3   30.80    7.90
   3  -2  -3   25.10    8.50
   3  -2  -3   24.90    9.10
  -3   2   3   25.90    6.80
  -3   2   3   13.30    6.60
   2  -2  -3   22.40    5.00
   2  -2  -3   27.10    6.80
   2  -2  -3   34.20    8.60
   2  -2  -3   26.00    7.40
   2  -2  -3   24.50    3.70
   2  -2  -3   26.40    7.00
  -2   2   3   31.70    5.10
  -2   2   3   24.90    6.20
  -2   2   3   27.30    5.70
  -2   2   3   26.30    6.20
   1  -2  -3 1965.30   71.79
   1  -2  -3 1886.41   69.69
   1  -2  -3 1960.50   68.89
   1  -2  -3 1881.61   71.19
   1  -2  -3 1962.10   70.99
   1  -2  -3 1886.71   67.69
  -1   2   3 1955.30   70.69
  -1   2   3 1953.00   71.69
  -1   2   3 1905.81   71.09
  -1   2   3 1853.41   70.09
  -1   2   3 2015.50   68.99
   0  -2  -3 3728.53  134.29
   0  -2  -3 3888.51  133.39
   0  -2  -3 3227.28  137.59
   0  -2  -3 3968.40  136.19
   0  -2  -3 3937.51  135.49
   0  -2  -3 3901.71  136.79
   0   2   3 3985.40  135.49
   0   2   3 3967.60  136.09
   0   2   3 3980.70  134.99
   0   2   3 3807.42  134.59
   0   2   3 3721.23  135.99
  -1  -2  -3   11.40    5.10
  -1  -2  -3   13.10    2.60
   1   2   3    3.20    4.10
   1   2   3   10.40    3.30
   1   2   3    6.60    3.50
   1   2   3   11.50    5.00
  -2  -2  -3   29.50    4.00
  -2  -2  -3   33.40    7.70
  -2  -2  -3   31.90    5.20
  -2  -2  -3   22.80    6.10
  -2  -2  -3   28.60    5.30
   2   2   3   34.10    4.60
   2   2   3   25.80    4.60
   2   2   3   34.30    7.00
  -3  -2  -3  518.55   23.50
  -3  -2  -3  517.05   23.60
  -3  -2  -3  540.75   22.40
  -3  -2  -3  558.74   23.60
  -3  -2  -3  552.54   20.40
   3   2   3  560.94   24.00
   3   2   3  538.35   23.50
   3   2   3  553.34   22.80
   3   2   3  540.15   23.30
  -4  -2  -3 1715.83   66.59
  -4  -2  -3 1791.22   65.39
  -4  -2  -3 1820.72   62.49
  -4  -2  -3 1718.43   65.79
  -4  -2  -3 1666.53   66.09
   4   2   3 1767.52   66.49
   4   2   3 1810.72   66.99
   4   2   3 1742.43   65.59
   4   2   3 1813.42   65.69
  -5  -2  -3  140.69   14.20
  -5  -2  -3  153.78   15.00
  -5  -2  -3  134.39   15.50
  -5  -2  -3  157.88    8.60
   5   2   3  154.28   16.60
   5   2   3  141.69   15.40
   5   2   3  140.19   12.50
   5   2   3  160.58   18.10
   5   2   3  151.48   12.30
  -6  -2  -3   28.40   10.70
  -6  -2  -3   23.30   10.00
  -6  -2  -3   25.70    4.10
   6   2   3   32.20   10.70
   6   2   3   12.10    7.10
   6   2   3   21.30    9.70
  -7  -2  -3   34.10   11.70
  -7  -2  -3   31.80   12.80
  -7  -2  -3   24.50    6.60
   7   2   3   18.00    9.40
   7   2   3    9.60   12.10
   7   2   3    4.70    9.60
  -8  -2  -3   22.30   15.70
  -8  -2  -3   30.50   14.20
   8   2   3   -4.50   14.20
   8   2   3   16.50   11.40
  -9  -2  -3   51.69   18.50
   9   2   3   51.89   15.90
   9   2   3   29.90   21.90
   6  -3  -3   22.70   18.00
   6  -3  -3    6.50   21.30
  -6   3   3   31.30   13.60
  -6   3   3   38.10   12.90
   5  -3  -3    8.00   13.50
   5  -3  -3   -8.80   12.10
  -5   3   3   27.20   10.30
  -5   3   3   22.60    9.80
   4  -3  -3  141.79   21.30
  -4   3   3  142.19   15.00
   3  -3  -3   71.49   13.10
   3  -3  -3   92.49   16.40
   3  -3  -3   73.69    7.60
   3  -3  -3   68.69   15.00
   3  -3  -3   71.49    5.80
  -3   3   3   63.89    9.90
  -3   3   3   61.59   10.60
  -3   3   3   89.59   13.70
   2  -3  -3   15.30    6.60
   2  -3  -3   27.40    7.90
   2  -3  -3   15.70    3.00
   2  -3  -3   14.10    7.30
   2  -3  -3   24.70    6.40
   2  -3  -3   21.10    8.40
  -2   3   3   17.10    6.30
  -2   3   3   16.10    4.90
  -2   3   3   13.30    8.90
   1  -3  -3   60.19    5.20
   1  -3  -3   55.49   11.10
   1  -3  -3   55.99   12.70
   1  -3  -3   68.99    8.30
   1  -3  -3   68.29   10.60
  -1   3   3   71.69   11.30
  -1   3   3   51.59    9.00
  -1   3   3   42.10    8.90
  -1   3   3   68.49    7.80
   0  -3  -3 2389.06   83.79
   0  -3  -3 2264.47   86.69
   0  -3  -3 2425.26   85.89
   0  -3  -3 2415.56   86.29
   0  -3  -3 2443.56   87.89
   0   3   3 2371.56   86.79
   0   3   3 2384.26   87.59
   0   3   3 2344.87   85.99
   0   3   3 2431.66   85.89
  -1  -3  -3  123.49   10.00
  -1  -3  -3  117.59    6.60
  -1  -3  -3  132.69   11.90
  -1  -3  -3  123.39   16.20
  -1  -3  -3  102.09    9.10
   1   3   3  107.79   15.20
   1   3   3  133.79   12.20
   1   3   3  104.59    8.80
   1   3   3  142.89   11.10
  -2  -3  -3  100.39   11.10
  -2  -3  -3   93.89    7.90
  -2  -3  -3  108.39    5.90
  -2  -3  -3   97.19    9.90
  -2  -3  -3  118.29   10.90
   2   3   3  113.99    7.50
   2   3   3  130.39    9.40
   2   3   3   95.99    7.80
   2   3   3  108.69   10.00
  -3  -3  -3  165.78   11.60
  -3  -3  -3  193.58    8.80
  -3  -3  -3  190.78   10.90
  -3  -3  -3  177.18    9.40
  -3  -3  -3  203.08   13.50
  -3  -3  -3  182.28   13.00
  -3  -3  -3  171.58    8.70
   3   3   3  162.18   15.30
   3   3   3  197.78   13.00
   3   3   3  195.48   11.40
  -4  -3  -3   67.19   11.20
  -4  -3  -3   53.69    5.30
  -4  -3  -3   46.80   10.60
  -4  -3  -3   45.00    7.70
  -4  -3  -3   50.69    7.60
   4   3   3   53.39   10.80
   4   3   3   44.70   10.50
   4   3   3   56.39    8.70
  -5  -3  -3    0.30    3.20
  -5  -3  -3    3.20    6.70
  -5  -3  -3   -3.40    7.90
   5   3   3    3.50    8.10
   5   3   3   -6.10    8.00
   5   3   3    6.00    8.10
   5   3   3   -0.90    5.20
  -6  -3  -3    8.80   10.10
  -6  -3  -3    7.80    9.80
  -6  -3  -3   15.10    3.80
   6   3   3   14.20   10.20
   6   3   3    2.30    6.40
   6   3   3   -1.50    9.30
  -7  -3  -3   48.50   13.00
  -7  -3  -3   58.69    7.50
  -7  -3  -3   37.70   11.80
   7   3   3   40.30   10.20
   7   3   3   38.20   13.70
   7   3   3   33.30   11.20
  -8  -3  -3   27.80   19.00
  -8  -3  -3   16.10   14.10
   8   3   3    3.90   10.00
   8   3   3    9.30   14.60
  -9  -3  -3   39.90   17.80
   9   3   3    4.40   19.70
   9   3   3   18.20   14.30
   6  -4  -3   15.80   19.30
  -6   4   3   23.50   16.70
  -6   4   3   26.00   12.70
   5  -4  -3    4.30   14.90
   5  -4  -3   15.20   19.70
  -5   4   3   31.70   11.00
  -5   4   3   29.00   10.80
   4  -4  -3   59.99   15.40
   4  -4  -3   49.70   13.10
   4  -4  -3   28.80    9.80
   4  -4  -3   48.70    6.40
  -4   4   3   65.89   13.40
  -4   4   3   41.50    9.80
   3  -4  -3  203.48   15.90
   3  -4  -3  251.27   21.80
   3  -4  -3  223.28   14.10
   3  -4  -3  212.18   10.80
  -3   4   3  226.18   25.10
  -3   4   3  229.28   18.50
  -3   4   3  206.38   14.00
   2  -4  -3   14.50    8.60
   2  -4  -3   21.40    8.10
   2  -4  -3   10.00    9.60
   2  -4  -3   13.60    3.60
   2  -4  -3   27.10    8.00
   2  -4  -3   20.80    6.00
  -2   4   3   10.70   10.60
  -2   4   3   25.90    6.80
  -2   4   3   13.40    6.70
  -2   4   3    5.50    6.50
   1  -4  -3  305.47   19.20
   1  -4  -3  340.67   19.80
   1  -4  -3  297.97   21.80
   1  -4  -3  343.97   17.50
   1  -4  -3  351.56   13.90
  -1   4   3  302.57   18.10
  -1   4   3  327.37   17.00
  -1   4   3  325.37   18.30
  -1   4   3  303.37   22.20
   0  -4  -3    9.40    3.20
   0  -4  -3    4.10    5.20
   0  -4  -3   11.10    6.00
   0  -4  -3   12.00    7.10
   0  -4  -3    8.90    7.70
   0   4   3    1.70    4.70
   0   4   3    3.10    5.40
   0   4   3   12.10    6.40
   0   4   3    2.50    7.80
  -1  -4  -3  397.16   16.40
  -1  -4  -3  399.36   19.20
  -1  -4  -3  422.46   22.60
  -1  -4  -3  392.36   19.40
  -1  -4  -3  422.46   20.40
   1   4   3  407.36   19.00
   1   4   3  425.56   15.70
   1   4   3  405.56   20.10
   1   4   3  414.56   22.60
   1   4   3  416.56   20.10
  -2  -4  -3  241.98   16.70
  -2  -4  -3  228.28   12.70
  -2  -4  -3  224.68   10.70
  -2  -4  -3  234.88   15.30
  -2  -4  -3  215.08   12.60
   2   4   3  269.47   17.40
   2   4   3  226.68   14.70
   2   4   3  247.18   14.30
   2   4   3  221.08   11.80
  -3  -4  -3  823.02   32.60
  -3  -4  -3  793.62   32.70
  -3  -4  -3  793.12   34.40
  -3  -4  -3  834.72   31.80
  -3  -4  -3  830.02   30.70
  -3  -4  -3  836.92   35.70
  -3  -4  -3  851.71   32.00
   3   4   3  866.01   36.20
   3   4   3  816.72   33.00
   3   4   3  827.22   33.20
  -4  -4  -3  114.49   13.90
  -4  -4  -3  118.19   10.00
  -4  -4  -3   95.69   12.90
  -4  -4  -3  108.09   13.20
  -4  -4  -3  115.19    9.00
  -4  -4  -3  114.29    7.70
  -4  -4  -3  120.19    7.60
   4   4   3  117.59   12.80
   4   4   3  129.39   11.00
   4   4   3  116.29   13.10
   4   4   3  127.99   15.90
  -5  -4  -3  111.29    8.10
  -5  -4  -3  107.79   15.10
  -5  -4  -3  102.19   15.60
   5   4   3  107.59   14.50
   5   4   3   96.79   14.80
   5   4   3  128.49   12.40
  -6  -4  -3  146.09   18.60
  -6  -4  -3  141.39    9.30
  -6  -4  -3  143.69   16.80
   6   4   3  172.28   21.70
   6   4   3  128.69   15.70
   6   4   3  130.79   17.90
   6   4   3  137.69   13.10
  -7  -4  -3  236.38   20.60
  -7  -4  -3  194.78   11.50
  -7  -4  -3  231.18   25.30
   7   4   3  181.98   25.60
   7   4   3  192.58   18.90
  -8  -4  -3  101.49   26.10
   8   4   3   36.30   17.30
   8   4   3   57.19   11.90
  -9  -4  -3   36.00   16.90
   9   4   3   -3.30   12.90
   5  -5  -3   43.70   19.30
   5  -5  -3   19.10   18.50
  -5   5   3   48.80   12.70
   4  -5  -3   50.09    7.90
   4  -5  -3   58.49   14.20
   4  -5  -3   47.30   15.00
   4  -5  -3   54.89   10.20
   3  -5  -3  124.49    9.20
   3  -5  -3  147.09   14.60
   3  -5  -3  129.39   21.70
  -3   5   3  130.19   28.20
   2  -5  -3  361.26   23.70
   2  -5  -3  296.97   20.80
   2  -5  -3  316.27   14.30
   2  -5  -3  347.57   19.70
   2  -5  -3  274.17   22.50
  -2   5   3  317.77   18.50
  -2   5   3  300.57   19.90
  -2   5   3  292.07   27.30
   1  -5  -3   18.70    9.40
   1  -5  -3   10.50   10.30
   1  -5  -3   18.50    8.30
   1  -5  -3   10.20    4.10
   1  -5  -3    9.60    7.10
  -1   5   3   18.40    7.90
  -1   5   3    0.50    5.90
  -1   5   3    1.30   10.50
  -1   5   3    5.90    6.50
   0  -5  -3   41.80    4.80
   0  -5  -3   33.20    8.10
   0  -5  -3   45.80    9.80
   0  -5  -3   27.10   10.70
   0  -5  -3   30.30    7.80
   0   5   3   31.30    7.20
   0   5   3   41.70    8.60
   0   5   3   28.00   10.30
  -1  -5  -3  783.22   29.50
  -1  -5  -3  791.32   32.90
  -1  -5  -3  762.72   36.40
  -1  -5  -3  767.42   32.80
  -1  -5  -3  794.32   34.20
   1   5   3  819.72   36.90
   1   5   3  746.03   33.30
   1   5   3  802.72   33.20
  -2  -5  -3  501.75   25.00
  -2  -5  -3  474.35   19.70
  -2  -5  -3  488.85   26.20
  -2  -5  -3  444.86   22.40
  -2  -5  -3  492.75   21.70
  -2  -5  -3  483.25   23.60
   2   5   3  473.25   23.50
   2   5   3  469.95   24.10
   2   5   3  504.15   22.30
   2   5   3  548.85   27.60
  -3  -5  -3  274.47   16.40
  -3  -5  -3  275.97   15.00
  -3  -5  -3  287.07   18.90
  -3  -5  -3  282.17   14.40
  -3  -5  -3  244.58   14.90
  -3  -5  -3  246.48   19.50
  -3  -5  -3  273.87   12.40
   3   5   3  297.27   21.30
   3   5   3  286.87   16.10
   3   5   3  257.27   18.00
   3   5   3  290.57   16.50
  -4  -5  -3   17.40    8.50
  -4  -5  -3    8.50    7.00
  -4  -5  -3    9.70    9.70
  -4  -5  -3   16.70    4.60
  -4  -5  -3   16.50    5.30
  -4  -5  -3   16.40    5.80
  -4  -5  -3   16.10    3.90
   4   5   3   30.40    9.90
   4   5   3   22.00    8.00
   4   5   3   25.60    6.10
   4   5   3   22.30    9.90
  -5  -5  -3   43.70    7.10
  -5  -5  -3   49.60   11.00
  -5  -5  -3   46.50   12.10
  -5  -5  -3   38.10   10.20
   5   5   3   46.90   11.90
   5   5   3   42.20   10.00
   5   5   3   56.19   11.20
  -6  -5  -3   74.19   14.10
  -6  -5  -3   97.19   18.20
  -6  -5  -3   74.19    8.30
   6   5   3   71.09   15.00
   6   5   3   91.09   11.70
   6   5   3   58.89   13.50
   6   5   3   78.89   13.00
  -7  -5  -3  125.89   23.50
  -7  -5  -3  100.69   10.20
  -7  -5  -3  100.49   18.10
   7   5   3   79.09   16.40
   7   5   3   85.79   20.10
   8   5   3   58.79   18.40
   8   5   3   68.69   12.40
   9   5   3    9.70   13.70
   9   5   3  -22.80   20.20
   5  -6  -3   23.60   20.70
   5  -6  -3   26.40   18.40
   4  -6  -3   12.40   15.30
   4  -6  -3    0.50    5.40
  -4   6   3   31.60   11.00
   3  -6  -3   69.99   14.00
   3  -6  -3   83.99   16.80
   3  -6  -3   91.69    9.60
  -3   6   3  104.99   19.90
   2  -6  -3   10.00    9.90
   2  -6  -3    6.40    4.50
   2  -6  -3   15.80   11.40
  -2   6   3    5.50   15.70
  -2   6   3   20.50    7.80
  -2   6   3   35.90   10.20
   1  -6  -3  122.19    9.70
   1  -6  -3  145.79   17.30
   1  -6  -3   92.19   21.50
  -1   6   3  118.29   22.70
  -1   6   3  108.49   14.40
  -1   6   3  123.59   14.70
   0  -6  -3    3.40    7.30
   0  -6  -3   20.30   10.80
   0  -6  -3    4.00    4.70
   0  -6  -3   -5.30    9.40
   0  -6  -3    2.40    8.40
   0   6   3    8.30    8.90
   0   6   3    6.00    6.60
   0   6   3   -2.50   11.40
  -1  -6  -3   34.90    7.60
  -1  -6  -3   28.50    8.10
  -1  -6  -3   36.50    5.50
  -1  -6  -3   31.10   12.50
  -1  -6  -3   30.80    9.30
  -1  -6  -3   56.79   13.00
   1   6   3   31.80    7.50
   1   6   3   53.09   13.20
   1   6   3   45.70   10.60
  -2  -6  -3    5.90    6.20
  -2  -6  -3    4.80    6.70
  -2  -6  -3   15.00   10.30
  -2  -6  -3    7.20    7.70
  -2  -6  -3   10.20    5.20
  -2  -6  -3   12.10    9.90
  -2  -6  -3    8.90    4.30
   2   6   3    9.20    8.80
   2   6   3    8.50    6.90
   2   6   3    5.60    6.90
  -3  -6  -3    4.10   10.50
  -3  -6  -3    6.90    6.00
  -3  -6  -3   21.30    5.00
  -3  -6  -3    9.80    7.60
  -3  -6  -3   10.40    6.80
  -3  -6  -3   22.20   11.20
  -3  -6  -3   12.60    4.70
   3   6   3   23.40    7.30
   3   6   3   21.40   10.50
   3   6   3   30.60   11.20
   3   6   3   18.50    7.90
  -4  -6  -3  165.38   18.40
  -4  -6  -3  179.58   10.70
  -4  -6  -3  174.48   11.80
  -4  -6  -3  152.98   15.80
  -4  -6  -3  138.59   14.90
  -4  -6  -3  155.38   14.30
   4   6   3  171.28   17.20
   4   6   3  150.18   17.50
   4   6   3  201.88   22.60
   4   6   3  193.78   15.50
  -5  -6  -3   29.10    6.40
  -5  -6  -3   30.60    5.30
  -5  -6  -3   28.40   13.40
  -5  -6  -3   38.50   13.00
  -5  -6  -3   32.50    9.80
   5   6   3   26.60   10.30
   5   6   3   27.20    7.60
  -6  -6  -3   37.50   13.10
  -6  -6  -3   30.60   11.60
  -6  -6  -3   21.20    5.30
   6   6   3   14.70    7.30
   6   6   3   19.50   13.10
  -7  -6  -3    5.80    5.30
  -7  -6  -3   18.30   12.90
   7   6   3  -13.70   13.00
  -8  -6  -3   23.70   16.80
   8   6   3    4.40   10.40
   9   6   3    0.20   13.60
   9   6   3  -14.00   27.00
   4  -7  -3    6.80   18.00
   3  -7  -3  -13.90   14.40
   3  -7  -3  -12.00   12.50
   3  -7  -3   -2.50    5.70
  -3   7   3    8.60   18.20
  -3   7   3   16.70    9.30
   2  -7  -3   18.60   14.30
   2  -7  -3   17.80    5.90
   2  -7  -3   24.00   13.30
  -2   7   3   35.60   15.90
  -2   7   3   18.90   16.00
   1  -7  -3   65.39   15.40
   1  -7  -3   38.00   11.20
   1  -7  -3   45.80    6.50
  -1   7   3   62.29   16.90
   0  -7  -3  155.78   11.90
   0  -7  -3  195.18   21.20
   0   7   3  176.88   15.30
   0   7   3  143.39   24.80
  -1  -7  -3   -3.30    4.50
  -1  -7  -3   -3.20   13.20
  -1  -7  -3   -7.30    6.90
  -1  -7  -3   -8.90    8.80
   1   7   3    7.40   12.80
   1   7   3   -2.20    6.20
  -2  -7  -3    9.90    5.80
  -2  -7  -3    9.10    8.10
  -2  -7  -3   -4.00    9.30
  -2  -7  -3    8.10    5.80
  -2  -7  -3    8.80    4.70
   2   7   3    4.30    6.80
   2   7   3    0.10    7.20
   2   7   3   16.00   13.30
  -3  -7  -3   15.10    8.60
  -3  -7  -3    2.10    8.90
  -3  -7  -3   21.90    6.80
  -3  -7  -3   19.60    7.50
  -3  -7  -3   36.50   13.30
  -3  -7  -3   20.50    5.80
   3   7   3   24.50   12.90
   3   7   3    9.50    9.60
   3   7   3    8.20    7.80
  -4  -7  -3  187.78   21.80
  -4  -7  -3  172.28   17.90
  -4  -7  -3  198.68   12.20
  -4  -7  -3  173.58   18.60
  -4  -7  -3  192.18   16.60
  -4  -7  -3  195.58   12.10
   4   7   3  202.98   24.90
   4   7   3  140.49   19.20
   4   7   3  157.38   16.90
  -5  -7  -3    1.70   13.60
  -5  -7  -3    1.30    5.00
  -5  -7  -3   -3.30    7.50
  -5  -7  -3   12.10    8.70
  -5  -7  -3   12.50    9.20
   5   7   3  -13.70   10.70
   5   7   3    0.70    7.40
   5   7   3    5.60   13.20
  -6  -7  -3   -1.80    9.50
  -6  -7  -3  -10.10    7.30
  -6  -7  -3   -5.90    5.10
  -6  -7  -3    1.90   14.50
  -6  -7  -3   10.20   11.50
   6   7   3  -19.10   13.50
   6   7   3   -8.40    7.70
  -7  -7  -3   18.70   16.20
  -7  -7  -3   10.30    6.00
   7   7   3    6.10   12.10
   7   7   3  -23.10   15.90
  -8  -7  -3   12.60   18.40
   3  -8  -3    8.60   17.40
  -3   8   3   69.59   23.60
   2  -8  -3   22.20   17.70
   2  -8  -3    6.40   15.60
   2  -8  -3   13.10    6.50
  -2   8   3   40.80   20.60
   1  -8  -3    0.90    6.30
   1  -8  -3   -0.20   12.40
   1  -8  -3    5.30   15.90
  -1   8   3   34.10   17.10
   0  -8  -3   58.09   17.50
   0  -8  -3   39.20   13.10
   0  -8  -3   39.40    6.80
   0   8   3   49.99   17.60
  -1  -8  -3   22.20   11.90
  -1  -8  -3   25.50    6.10
  -1  -8  -3   36.00   15.40
   1   8   3   17.50   15.00
   1   8   3   37.10    7.40
  -2  -8  -3    6.90   14.20
  -2  -8  -3    2.80    6.40
  -2  -8  -3    4.70    5.60
  -2  -8  -3   18.90    8.50
   2   8   3   11.80    6.60
   2   8   3   18.00    6.50
   2   8   3   -2.50   14.10
  -3  -8  -3   17.50   14.70
  -3  -8  -3   14.30    5.50
  -3  -8  -3   13.00    5.10
   3   8   3    7.30    7.10
   3   8   3   17.40   15.20
  -4  -8  -3  127.39   12.10
  -4  -8  -3  119.29   25.00
  -4  -8  -3  126.89   22.50
  -4  -8  -3  165.88   17.20
  -4  -8  -3  136.59   10.80
  -4  -8  -3  136.49   19.50
   4   8   3   99.89   18.90
  -5  -8  -3   64.29   18.40
  -5  -8  -3   59.89   12.20
  -5  -8  -3   62.39   11.50
  -5  -8  -3   74.99   10.20
   5   8   3   53.89   11.00
   5   8   3   42.70   16.50
  -6  -8  -3   12.60   15.80
  -6  -8  -3   -2.30    6.00
  -6  -8  -3    1.00   14.30
   6   8   3  -19.70   16.70
  -7  -8  -3   40.70   20.50
  -7  -8  -3   33.70    8.90
  -8  -8  -3   44.70   23.40
  -8  -8  -3   22.70    7.70
   2  -9  -3   40.40   25.40
   2  -9  -3   43.20    8.90
  -2   9   3   82.59   24.70
   1  -9  -3   -4.40   19.40
  -1   9   3   26.80   21.20
   0  -9  -3   31.10   14.70
   0  -9  -3   28.40   18.30
   0  -9  -3   49.20    8.50
   0   9   3   44.80   19.60
  -1  -9  -3   24.30   13.30
  -1  -9  -3   48.50    8.30
  -1  -9  -3   51.99   19.30
   1   9   3   63.29   18.60
  -2  -9  -3   72.69   18.70
  -2  -9  -3   70.59   14.80
  -2  -9  -3   63.79   10.30
   2   9   3   60.59   19.60
  -3  -9  -3   13.10   16.80
  -3  -9  -3    4.90    6.00
  -3  -9  -3    2.50   12.40
   3   9   3    9.40    6.60
   3   9   3   12.70   17.10
  -4  -9  -3   -6.60   12.30
  -4  -9  -3   -5.90   18.00
  -4  -9  -3   -4.30    6.60
   4   9   3   -9.20    7.10
  -5  -9  -3   22.10   16.90
  -5  -9  -3    5.30   18.90
  -5  -9  -3   17.40    7.00
   5   9   3  -22.70   17.20
  -6  -9  -3    0.70   20.00
  -6  -9  -3    5.80    6.80
   0 -10  -3   -5.20   23.20
   0 -10  -3    3.80    9.80
   0 -10  -3  -11.10   18.50
   0  10   3   31.50   22.00
  -1 -10  -3   18.50   17.30
  -1 -10  -3   21.60    7.60
  -1 -10  -3    6.10   22.30
   1  10   3   30.20   22.30
  -2 -10  -3   18.00    8.20
  -2 -10  -3   29.70   23.70
  -2 -10  -3   16.50   16.90
   2  10   3   52.69   22.20
  -3 -10  -3   18.00   15.80
  -3 -10  -3   16.30    8.10
  -3 -10  -3   -0.20   22.20
   3  10   3   11.30   20.20
  -4 -10  -3   -2.50   15.40
  -4 -10  -3    2.00    8.00
  -4 -10  -3  -13.70   21.50
   4  10   3  -31.80   20.70
  -5 -10  -3   -3.50   22.30
  -5 -10  -3    2.30    7.50
  -5 -10  -3   20.40   16.40
   5  10   3  -27.90   22.70
   3   8  -4   67.19   10.50
   3   8  -4   75.39   21.90
  -3  -8   4   61.69   24.70
  -3  -8   4   65.59   29.20
   2   8  -4   36.40   23.60
   2   8  -4   84.29   11.50
  -2  -8   4   81.79   28.60
   1   8  -4  104.89   22.70
   1   8  -4  147.09   16.20
  -1  -8   4   79.19   26.30
  -1  -8   4  115.29   28.70
   0   8  -4  293.57   40.70
   0  -8   4  227.08   36.10
   0  -8   4  202.08   30.50
  -1   8  -4   63.39   13.00
   1  -8   4   75.49   39.90
   4   7  -4  209.18   16.40
   4   7  -4  171.48   35.50
  -4  -7   4  239.48   38.30
  -4  -7   4  141.59   32.90
   3   7  -4  317.87   30.50
   3   7  -4  262.07   35.90
   3   7  -4  284.17   18.30
  -3  -7   4  276.17   34.00
  -3  -7   4  284.57   43.80
   2   7  -4  251.77   16.70
   2   7  -4  239.18   26.80
   2   7  -4  260.97   34.20
  -2  -7   4  193.58   32.40
  -2  -7   4  191.88   34.60
   1   7  -4  320.17   18.10
   1   7  -4  346.37   27.10
   1   7  -4  296.67   35.60
  -1  -7   4  317.37   34.50
  -1  -7   4  280.67   38.10
   0   7  -4  484.75   40.90
   0   7  -4  531.15   25.80
   0   7  -4  592.74   32.90
   0  -7   4  481.95   43.10
   0  -7   4  533.65   39.80
  -1   7  -4   85.39   20.50
  -1   7  -4   92.59   12.50
   1  -7   4  107.59   25.20
  -2   7  -4  161.38   14.70
   2  -7   4  133.99   30.60
  -3   7  -4  112.29   16.00
   3  -7   4  121.59   27.90
   3  -7   4   86.19   19.80
   5   6  -4  144.89   31.40
  -5  -6   4  117.89   24.70
   4   6  -4  342.07   31.00
   4   6  -4  376.86   33.60
   4   6  -4  368.46   19.00
  -4  -6   4  372.66   36.40
  -4  -6   4  353.96   32.40
   3   6  -4  511.25   36.20
   3   6  -4  497.55   23.10
   3   6  -4  441.86   32.10
  -3  -6   4  495.95   34.80
  -3  -6   4  520.75   40.70
   2   6  -4  205.88   23.80
   2   6  -4  244.38   28.70
   2   6  -4  224.98   15.00
  -2  -6   4  223.58   27.60
  -2  -6   4  199.88   22.90
  -2  -6   4  217.78   33.10
   1   6  -4  386.76   32.10
   1   6  -4  410.56   26.30
   1   6  -4  412.76   20.10
  -1  -6   4  379.06   35.30
  -1  -6   4  330.07   23.20
  -1  -6   4  430.16   31.60
   0   6  -4  462.55   27.10
   0   6  -4  438.66   33.70
   0   6  -4  448.76   21.90
   0  -6   4  432.86   32.60
  -1   6  -4  312.47   31.40
  -1   6  -4  319.57   18.40
  -1   6  -4  355.86   25.10
   1  -6   4  297.37   29.70
  -2   6  -4  567.54   31.10
  -2   6  -4  483.15   23.70
   2  -6   4  396.86   43.80
   2  -6   4  480.55   35.00
   2  -6   4  475.05   26.10
  -3   6  -4  197.28   15.00
   3  -6   4  229.48   30.80
   3  -6   4  238.98   18.90
  -4   6  -4  111.19   14.00
   4  -6   4   55.09   20.90
   4  -6   4   83.49   17.80
   4  -6   4   94.09   23.10
   4  -6   4  134.69   26.00
   6   5  -4  149.09   33.40
   6   5  -4  221.08   32.80
   5   5  -4   43.30   16.00
   5   5  -4   66.09   16.60
  -5  -5   4   73.49   19.20
   4   5  -4  858.71   44.60
   4   5  -4  862.51   32.70
   4   5  -4  759.72   41.80
   4   5  -4  835.72   33.50
  -4  -5   4  857.41   42.50
  -4  -5   4  863.01   47.80
   3   5  -4  673.33   27.70
   3   5  -4  654.63   38.60
   3   5  -4  654.13   35.30
  -3  -5   4  693.33   42.30
  -3  -5   4  668.73   37.50
  -3  -5   4  685.03   33.30
   2   5  -4  705.63   39.10
   2   5  -4  696.63   34.90
   2   5  -4  717.03   29.40
  -2  -5   4  731.53   32.30
  -2  -5   4  770.52   39.20
  -2  -5   4  717.33   58.89
   1   5  -4  441.86   24.70
   1   5  -4  402.86   18.90
   1   5  -4  426.76   40.30
  -1  -5   4  460.45   39.00
  -1  -5   4  373.76   36.30
  -1  -5   4  401.36   21.80
   0   5  -4  353.16   38.40
   0   5  -4  333.07   20.50
   0   5  -4  316.17   15.90
   0  -5   4  309.37   30.60
   0  -5   4  289.77   19.30
   0  -5   4  280.67   39.90
  -1   5  -4  788.42   41.50
  -1   5  -4  831.42   35.50
  -1   5  -4  780.42   32.00
   1  -5   4  790.52   30.70
   1  -5   4  790.42   40.80
   1  -5   4  804.12   44.10
   1  -5   4  749.62   35.90
   1  -5   4  772.52   29.30
  -2   5  -4  409.96   20.00
  -2   5  -4  452.35   25.40
  -2   5  -4  372.36   31.30
   2  -5   4  406.56   30.10
   2  -5   4  392.66   19.30
   2  -5   4  430.76   33.40
   2  -5   4  399.36   22.30
  -3   5  -4  397.76   20.40
   3  -5   4  440.76   21.80
   3  -5   4  444.76   32.40
   3  -5   4  467.75   22.10
   3  -5   4  446.46   34.30
  -4   5  -4  208.18   15.00
   4  -5   4  221.28   17.50
   4  -5   4  202.68   25.90
   4  -5   4  243.78   31.40
   4  -5   4  202.88   30.30
  -5   5  -4   78.89   12.80
   5  -5   4   43.10   15.80
   5  -5   4   61.69   16.20
   5  -5   4   64.49   11.50
   5  -5   4   79.39   19.60
   5  -5   4  101.99   22.70
   6   4  -4  193.28   31.60
   6   4  -4  235.48   29.00
   5   4  -4  295.87   36.50
   5   4  -4  346.57   30.10
  -5  -4   4  391.26   34.50
  -5  -4   4  343.87   26.20
   4   4  -4  801.22   39.20
   4   4  -4  807.92   41.30
   4   4  -4  711.13   33.50
  -4  -4   4  798.42   39.90
  -4  -4   4  797.22   44.00
  -4  -4   4  736.03   37.00
  -4  -4   4  811.32   37.80
   3   4  -4  916.51   33.80
   3   4  -4  858.91   39.60
   3   4  -4  957.40   43.00
   3   4  -4  785.62   36.10
  -3  -4   4  853.61   39.60
  -3  -4   4  822.62   57.19
  -3  -4   4  900.01   40.60
  -3  -4   4  888.31   37.60
   2   4  -4 1042.30   39.70
   2   4  -4 1069.09   38.20
   2   4  -4 1032.70   43.90
   2   4  -4 1052.69   47.50
  -2  -4   4 1042.80   44.50
  -2  -4   4 1067.59   46.40
  -2  -4   4  985.70   45.40
  -2  -4   4 1127.59   51.99
   1   4  -4 1199.38   45.00
   1   4  -4 1198.08   51.99
   1   4  -4 1166.88   52.69
   1   4  -4 1219.48   47.90
  -1  -4   4 1233.08   51.49
  -1  -4   4 1231.48   56.09
  -1  -4   4 1233.68   46.40
  -1  -4   4 1154.58   50.99
   0   4  -4  893.41   37.70
   0   4  -4  899.61   34.30
   0   4  -4  830.12   40.70
   0   4  -4  861.41   41.10
   0  -4   4  869.81   35.40
   0  -4   4  842.42   40.70
   0  -4   4  865.01   40.50
   0  -4   4  912.71   42.70
   0  -4   4  940.81   46.90
  -1   4  -4 2955.40  106.19
  -1   4  -4 2920.71  111.39
  -1   4  -4 3006.50  107.79
  -1   4  -4 2952.60  111.39
   1  -4   4 2937.41  104.89
   1  -4   4 2947.31  117.59
   1  -4   4 2961.90  111.99
   1  -4   4 3020.00  107.69
   1  -4   4 3088.99  114.19
  -2   4  -4  585.04   27.50
  -2   4  -4  548.65   23.60
  -2   4  -4  530.25   32.20
   2  -4   4  545.65   31.70
   2  -4   4  564.24   23.90
   2  -4   4  573.94   31.90
   2  -4   4  575.64   34.60
   2  -4   4  579.74   23.90
  -3   4  -4 1203.08   46.40
   3  -4   4 1250.47   53.89
   3  -4   4 1253.37   47.60
   3  -4   4 1129.59   50.29
   3  -4   4 1226.78   47.50
   3  -4   4 1288.57   55.59
  -4   4  -4  841.32   34.30
   4  -4   4  864.41   40.60
   4  -4   4  833.92   48.20
   4  -4   4  840.42   36.50
   4  -4   4  910.71   44.60
   4  -4   4  840.12   43.10
   4  -4   4  865.91   37.20
  -5   4  -4  116.29   12.20
   5  -4   4  152.78   22.60
   5  -4   4  104.89   15.60
   5  -4   4  131.69   17.10
   5  -4   4  140.09   24.10
  -6   4  -4  244.48   17.70
   6  -4   4  304.07   29.00
   6  -4   4  273.97   31.00
   6  -4   4  295.27   25.30
   6  -4   4  330.17   29.10
   7   3  -4  159.28   32.60
   7   3  -4  188.68   44.60
   6   3  -4  333.37   31.80
   6   3  -4  370.26   33.90
  -6  -3   4  466.35   36.70
   5   3  -4  897.51   45.00
   5   3  -4  955.50   45.10
   5   3  -4  864.21   40.00
  -5  -3   4  873.71   38.70
  -5  -3   4  928.91   48.30
  -5  -3   4  943.51   39.40
  -5  -3   4  879.61   42.80
   4   3  -4  731.93   33.60
   4   3  -4  786.82   37.60
   4   3  -4  828.32   39.40
   4   3  -4  760.52   29.10
  -4  -3   4  733.63   35.10
  -4  -3   4  772.12   34.60
  -4  -3   4  784.52   32.50
  -4  -3   4  751.82   34.20
  -4  -3   4  756.42   41.90
   3   3  -4 1567.94   64.29
   3   3  -4 1618.74   62.19
   3   3  -4 1489.25   58.99
   3   3  -4 1573.04   56.79
  -3  -3   4 1504.65   64.99
  -3  -3   4 1615.04   61.79
  -3  -3   4 1559.84   60.49
  -3  -3   4 1541.45   58.29
  -3  -3   4 1709.13   67.89
  -3  -3   4 1536.05   61.19
   2   3  -4 2287.07   82.29
   2   3  -4 2228.28   85.19
   2   3  -4 2055.89   86.19
   2   3  -4 2267.87   79.39
   2   3  -4 2172.08   80.09
  -2  -3   4 2240.18   81.39
  -2  -3   4 2318.97   88.59
  -2  -3   4 2219.18   85.79
  -2  -3   4 2305.17   84.19
  -2  -3   4 2114.29   84.79
  -2  -3   4 2225.58   79.49
   1   3  -4 1563.84   63.89
   1   3  -4 1668.53   60.49
   1   3  -4 1638.84   58.59
   1   3  -4 1555.84   65.79
   1   3  -4 1683.83   57.99
  -1  -3   4 1632.24   67.29
  -1  -3   4 1602.44   63.29
  -1  -3   4 1599.54   59.49
  -1  -3   4 1578.34   63.69
  -1  -3   4 1642.14   57.89
  -1  -3   4 1602.44   63.19
   0   3  -4 3521.25  124.19
   0   3  -4 3167.48  127.19
   0   3  -4 3528.05  130.59
   0   3  -4 3593.74  129.09
   0   3  -4 3594.94  129.79
   0  -3   4 3627.04  130.09
   0  -3   4 3546.75  129.79
   0  -3   4 3701.33  132.49
   0  -3   4 3676.73  125.39
   0  -3   4 3507.55  124.69
   0  -3   4 3586.64  129.69
  -1   3  -4 1315.27   53.59
  -1   3  -4 1237.88   53.19
  -1   3  -4 1319.67   48.50
   1  -3   4 1319.77   53.09
   1  -3   4 1354.86   56.09
   1  -3   4 1334.97   49.10
   1  -3   4 1391.46   48.50
   1  -3   4 1285.77   53.79
   1  -3   4 1259.57   53.59
  -2   3  -4  463.85   19.70
  -2   3  -4  442.16   26.40
   2  -3   4  406.16   26.30
   2  -3   4  436.66   19.60
   2  -3   4  475.85   29.20
   2  -3   4  451.25   26.60
   2  -3   4  471.25   20.00
   2  -3   4  453.15   25.20
   2  -3   4  461.95   22.50
  -3   3  -4  820.12   31.90
  -3   3  -4  847.32   38.70
   3  -3   4  842.32   39.70
   3  -3   4  833.22   33.50
   3  -3   4  816.22   38.70
   3  -3   4  815.92   36.00
   3  -3   4  778.62   37.00
   3  -3   4  827.92   35.10
   3  -3   4  817.72   39.50
   3  -3   4  780.72   37.20
   3  -3   4  851.01   33.60
  -4   3  -4 1168.08   44.40
   4  -3   4 1179.88   51.19
   4  -3   4 1235.88   52.59
   4  -3   4 1176.98   47.30
   4  -3   4 1182.58   50.19
   4  -3   4 1179.48   46.80
   4  -3   4 1201.88   49.30
   4  -3   4 1080.59   50.69
  -5   3  -4  533.05   24.20
   5  -3   4  557.44   28.70
   5  -3   4  578.34   31.00
   5  -3   4  582.14   32.00
   5  -3   4  562.34   32.00
  -6   3  -4  224.98   14.70
   6  -3   4  230.58   24.80
   6  -3   4  247.78   21.50
   6  -3   4  289.07   23.80
   6  -3   4  229.38   27.10
  -7   3  -4   70.79    9.40
   7  -3   4   59.99   15.20
   7  -3   4   56.09   18.80
   7  -3   4  107.99   22.80
   7   2  -4  182.08   38.10
   7   2  -4  214.58   33.20
   6   2  -4  551.44   38.00
   6   2  -4  501.45   36.70
  -6  -2   4  594.54   32.30
  -6  -2   4  651.83   40.10
   5   2  -4  861.81   41.60
   5   2  -4  698.23   53.29
  -5  -2   4  829.62   36.50
  -5  -2   4  788.92   32.90
  -5  -2   4  793.32   42.60
   4   2  -4  148.59   15.90
   4   2  -4  148.99   18.60
   4   2  -4  134.39    8.10
   4   2  -4  127.59   20.90
  -4  -2   4  140.59   14.30
  -4  -2   4  118.39   20.50
  -4  -2   4  163.88   13.60
  -4  -2   4  148.99   13.30
  -4  -2   4  172.98   24.80
   3   2  -4 1679.33   59.79
   3   2  -4 1589.54   68.19
   3   2  -4 1749.12   67.29
   3   2  -4 1629.54   63.19
   3   2  -4 1715.13   64.99
  -3  -2   4 1624.44   66.39
  -3  -2   4 1666.13   63.19
  -3  -2   4 1765.72   69.49
  -3  -2   4 1694.93   63.29
  -3  -2   4 1638.54   63.69
  -3  -2   4 1657.13   62.69
   2   2  -4  968.30   45.00
   2   2  -4 1052.99   43.90
   2   2  -4 1042.70   40.40
   2   2  -4  951.10   39.50
   2   2  -4 1034.50   37.30
  -2  -2   4 1012.70   39.50
  -2  -2   4 1027.30   43.50
  -2  -2   4 1013.80   41.10
  -2  -2   4 1004.50   41.10
  -2  -2   4 1034.90   46.70
  -2  -2   4 1004.00   38.90
   1   2  -4 1314.97   47.40
   1   2  -4 1326.97   49.20
   1   2  -4 1344.37   48.70
   1   2  -4 1314.97   52.69
   1   2  -4 1257.17   53.39
  -1  -2   4 1268.27   52.19
  -1  -2   4 1327.07   48.40
  -1  -2   4 1276.57   51.09
  -1  -2   4 1309.67   48.00
  -1  -2   4 1316.57   51.39
  -1  -2   4 1323.87   55.59
   0   2  -4 4594.64  157.78
   0   2  -4 4442.16  162.38
   0   2  -4 4528.25  161.38
   0   2  -4 4373.56  157.28
   0   2  -4 4571.84  157.88
   0  -2   4 4550.94  161.48
   0  -2   4 4532.95  161.38
   0  -2   4 4519.75  157.08
   0  -2   4 4411.66  163.28
  -1   2  -4 1407.06   56.99
  -1   2  -4 1453.45   53.39
  -1   2  -4 1380.36   52.99
  -1   2  -4 1457.65   56.29
   1  -2   4 1432.06   58.19
   1  -2   4 1485.55   56.29
   1  -2   4 1435.46   56.99
   1  -2   4 1519.35   53.19
   1  -2   4 1461.45   51.99
  -2   2  -4 1655.13   63.79
  -2   2  -4 1680.53   60.39
   2  -2   4 1660.13   63.69
   2  -2   4 1650.33   65.29
   2  -2   4 1701.33   61.19
   2  -2   4 1672.53   65.49
   2  -2   4 1672.63   61.29
  -3   2  -4 1107.19   47.30
  -3   2  -4 1235.88   48.60
   3  -2   4 1225.08   48.20
   3  -2   4 1190.68   45.90
   3  -2   4 1203.98   47.10
   3  -2   4 1187.98   50.19
   3  -2   4 1242.98   46.60
   3  -2   4 1159.78   48.90
   3  -2   4 1233.38   50.29
   3  -2   4 1230.38   46.20
  -4   2  -4 1208.28   44.20
   4  -2   4 1254.57   48.50
   4  -2   4 1164.78   46.40
   4  -2   4 1105.59   54.89
   4  -2   4 1156.88   50.39
   4  -2   4 1192.08   49.60
   4  -2   4 1226.78   47.00
   4  -2   4 1202.18   48.10
   4  -2   4 1147.49   48.30
  -5   2  -4 1366.96   51.09
   5  -2   4 1402.26   55.49
   5  -2   4 1466.95   54.99
   5  -2   4 1344.97   55.09
   5  -2   4 1405.96   58.49
   5  -2   4 1268.37   56.69
   5  -2   4 1493.95   60.39
   5  -2   4 1303.67   62.49
  -6   2  -4  147.59   11.80
   6  -2   4  165.68   25.00
   6  -2   4  152.18   19.00
   6  -2   4  156.38   18.70
   6  -2   4  160.78   23.60
  -7   2  -4  108.19   12.60
   7  -2   4  145.09   21.90
   7  -2   4  125.99   27.70
   7  -2   4  109.99   20.70
   8  -2   4  225.78   30.60
   8  -2   4  194.28   37.20
   7   1  -4  197.58   38.00
  -7  -1   4  257.87   35.40
  -7  -1   4  247.08   28.30
   6   1  -4  543.85   37.70
   6   1  -4  517.55   36.90
  -6  -1   4  616.14   37.40
  -6  -1   4  584.44   32.20
   5   1  -4  389.56   29.80
   5   1  -4  415.26   29.00
  -5  -1   4  428.66   30.30
  -5  -1   4  379.66   30.00
   4   1  -4  368.06   24.40
   4   1  -4  383.06   22.40
   4   1  -4  362.16   26.40
  -4  -1   4  361.56   27.40
  -4  -1   4  327.87   24.50
  -4  -1   4  351.76   21.20
   3   1  -4 2300.07   83.69
   3   1  -4 2127.49   80.29
   3   1  -4 2044.30   83.49
   3   1  -4 2188.38   81.49
  -3  -1   4 2144.09   80.29
  -3  -1   4 2139.39   78.39
  -3  -1   4 2232.88   78.39
  -3  -1   4 2219.28   84.59
  -3  -1   4 2065.59   87.09
   2   1  -4 2728.53   94.89
   2   1  -4 2437.26   94.59
   2   1  -4 2462.35   91.59
   2   1  -4 2562.24   88.69
   2   1  -4 2614.14   91.89
  -2  -1   4 2534.95   93.89
  -2  -1   4 2147.29   94.99
  -2  -1   4 2558.34   91.49
  -2  -1   4 2562.94   91.19
  -2  -1   4 2612.34   95.79
   1   1  -4 1725.03   60.39
   1   1  -4 1584.14   61.69
   1   1  -4 1669.43   63.99
   1   1  -4 1684.53   59.19
  -1  -1   4 1625.34   65.39
  -1  -1   4 1693.73   61.29
  -1  -1   4 1666.43   62.19
  -1  -1   4 1641.94   63.49
   0   1  -4 3004.70  103.19
   0   1  -4 2974.90  106.59
   0   1  -4 3084.79  104.49
   0   1  -4 2943.01  106.49
   0   1  -4 2879.01  107.29
   0  -1   4 2763.12  104.49
   0  -1   4 2875.91  108.59
   0  -1   4 2947.10  106.49
   0  -1   4 2908.21  106.29
  -1   1  -4 2438.16   91.19
  -1   1  -4 2498.35   90.19
  -1   1  -4 2490.05   87.49
  -1   1  -4 2509.95   88.19
  -1   1  -4 2399.16   90.99
   1  -1   4 2521.75   91.19
   1  -1   4 2404.56   88.49
   1  -1   4 2394.86   91.69
   1  -1   4 2599.14   90.39
  -2   1  -4 4959.40  179.18
  -2   1  -4 5006.00  175.18
  -2   1  -4 4960.50  176.28
  -2   1  -4 5180.48  177.38
   2  -1   4 5095.59  179.18
   2  -1   4 4941.41  178.88
   2  -1   4 4862.01  175.28
   2  -1   4 5289.27  177.48
   2  -1   4 4876.61  176.28
   2  -1   4 4931.01  175.08
  -3   1  -4  699.33   32.00
  -3   1  -4  685.13   26.20
  -3   1  -4  707.43   29.60
   3  -1   4  693.93   28.30
   3  -1   4  669.43   31.40
   3  -1   4  689.03   30.90
   3  -1   4  676.13   31.50
   3  -1   4  619.94   29.60
   3  -1   4  689.33   29.30
   3  -1   4  717.13   28.30
  -4   1  -4 1651.83   58.99
  -4   1  -4 1692.03   64.89
   4  -1   4 1705.93   61.49
   4  -1   4 1548.74   61.29
   4  -1   4 1612.04   61.89
   4  -1   4 1670.93   62.49
   4  -1   4 1642.64   64.19
   4  -1   4 1599.34   62.49
   4  -1   4 1567.64   64.09
  -5   1  -4 1838.02   71.39
  -5   1  -4 1716.53   65.29
   5  -1   4 1926.31   67.59
   5  -1   4 1639.94   71.29
   5  -1   4 1901.21   70.89
   5  -1   4 1820.02   73.69
   5  -1   4 1848.32   69.39
   5  -1   4 1857.41   67.89
   5  -1   4 1684.23   70.59
  -6   1  -4  514.35   21.90
  -6   1  -4  518.85   29.90
  -6   1  -4  535.35   32.90
   6  -1   4  524.15   30.70
   6  -1   4  534.75   28.50
   6  -1   4  568.64   28.40
   6  -1   4  546.35   26.20
   6  -1   4  482.55   28.50
  -7   1  -4  689.53   29.70
  -7   1  -4  796.22   43.90
   7  -1   4  775.52   42.80
   7  -1   4  726.73   34.50
   7  -1   4  783.22   38.30
  -8   1  -4  279.87   38.00
   8  -1   4  213.78   32.70
   8  -1   4  253.37   27.60
  -7   0   4  313.77   31.30
  -7   0   4  343.07   37.40
   6   0  -4  395.66   34.60
   6   0  -4  502.95   37.30
  -6   0   4  540.25   34.80
  -6   0   4  510.85   30.30
   5   0  -4  271.87   30.60
  -5   0   4  285.87   28.00
  -5   0   4  286.37   21.80
   4   0  -4 1227.58   51.49
   4   0  -4 1187.78   54.39
   4   0  -4 1200.98   51.39
   4   0  -4 1225.38   51.99
  -4   0   4 1196.28   49.10
  -4   0   4 1074.39   49.80
  -4   0   4 1212.98   52.29
   3   0  -4 1078.39   44.20
   3   0  -4 1052.29   46.30
   3   0  -4 1127.59   45.00
   3   0  -4  982.00   50.49
   3   0  -4 1148.09   46.70
  -3   0   4 1065.79   45.60
  -3   0   4 1089.69   43.90
  -3   0   4 1092.69   46.60
   2   0  -4 2964.00  112.89
   2   0  -4 3068.89  111.19
   2   0  -4 3046.40  107.69
   2   0  -4 3222.68  113.39
   2   0  -4 3138.59  111.39
   2   0  -4 2921.71  111.59
  -2   0   4 3060.79  111.79
  -2   0   4 3125.09  112.69
  -2   0   4 3162.78  113.69
  -2   0   4 3089.09  109.39
   1   0  -4 2769.82  101.49
   1   0  -4 2824.02   97.89
   1   0  -4 2649.83   99.59
   1   0  -4 2705.83   99.29
   1   0  -4 2808.02   98.69
   1   0  -4 2840.72  101.49
  -1   0   4 2786.12   99.29
  -1   0   4 2769.72  102.09
  -1   0   4 2780.62  100.99
  -1   0   4 2729.63   99.79
   0   0  -4  357.16   13.70
   0   0  -4  322.37   18.10
   0   0  -4  338.07   13.80
   0   0  -4  331.17   16.60
   0   0  -4  330.37   18.50
   0   0  -4  336.57   13.30
   0   0  -4  335.37   17.10
   0   0   4  321.77   19.40
   0   0   4  338.07   16.80
   0   0   4  308.77   17.80
  -1   0  -4 9799.12  334.17
  -1   0  -4 9781.32  337.27
  -1   0  -4 9999.00  336.37
  -1   0  -4 9924.21  335.57
  -1   0  -4 9583.74  337.07
   1   0   4 9321.27  335.57
   1   0   4 9672.03  337.37
   1   0   4 8903.41  337.67
  -2   0  -4 8980.30  323.97
  -2   0  -4 9255.37  326.07
  -2   0  -4 9536.25  323.97
  -2   0  -4 9293.57  322.67
   2   0   4 9650.13  324.17
   2   0   4 9039.10  325.97
   2   0   4 9280.57  325.67
   2   0   4 9345.67  325.77
   2   0   4 9192.08  324.07
   2   0   4 9278.97  322.47
  -3   0  -4 2232.58   78.39
  -3   0  -4 2193.18   77.19
  -3   0  -4 2157.48   79.09
  -3   0  -4 2188.68   78.69
  -3   0  -4 2151.78   81.29
   3   0   4 2256.97   78.49
   3   0   4 2117.39   80.69
   3   0   4 2172.38   78.59
   3   0   4 2188.98   79.19
   3   0   4 2152.98   80.79
   3   0   4 2078.49   82.19
  -4   0  -4 2079.19   79.59
  -4   0  -4 2075.69   79.39
  -4   0  -4 2082.89   77.89
  -4   0  -4 2132.39   74.89
   4   0   4 2108.09   77.79
   4   0   4 2059.99   79.19
   4   0   4 2091.49   77.89
   4   0   4 2058.79   79.39
   4   0   4 2214.78   76.09
  -5   0  -4 1055.19   45.00
  -5   0  -4 1049.00   44.70
  -5   0  -4 1031.00   38.20
   5   0   4  953.50   42.20
   5   0   4  994.60   44.20
   5   0   4  978.40   41.70
   5   0   4 1079.29   44.20
   5   0   4 1019.40   43.50
   5   0   4 1043.70   42.60
   5   0   4 1082.59   39.50
  -6   0  -4  834.72   32.10
  -6   0  -4  846.32   39.40
  -6   0  -4  878.21   46.60
   6   0   4  843.12   38.50
   6   0   4  855.21   39.90
   6   0   4  813.12   39.00
   6   0   4  852.31   34.00
  -7   0  -4  726.73   31.50
  -7   0  -4  776.02   40.50
  -7   0  -4  869.51   44.20
   7   0   4  801.32   39.00
   7   0   4  832.72   42.60
   7   0   4  778.62   34.10
   7   0   4  775.42   36.80
  -8   0  -4  260.97   35.00
   8   0   4  194.48   32.50
   8   0   4  230.78   26.90
   7  -1  -4  192.68   39.90
  -7   1   4  263.37   28.60
   6  -1  -4  277.17   33.10
   6  -1  -4  223.88   31.30
  -6   1   4  327.77   28.70
  -6   1   4  318.67   26.30
   5  -1  -4  626.94   37.20
   5  -1  -4  545.65   43.10
  -5   1   4  643.74   32.80
  -5   1   4  599.24   34.70
   4  -1  -4 1268.67   53.49
   4  -1  -4 1267.97   53.39
   4  -1  -4 1140.19   52.59
  -4   1   4 1248.98   51.19
  -4   1   4 1245.78   51.79
   3  -1  -4  727.53   35.00
   3  -1  -4  717.23   33.60
   3  -1  -4  745.53   34.60
   3  -1  -4  733.23   34.40
   3  -1  -4  779.12   35.40
  -3   1   4  715.73   33.60
  -3   1   4  741.33   34.20
  -3   1   4  737.63   33.90
   2  -1  -4 2779.22   99.09
   2  -1  -4 2727.23  102.59
   2  -1  -4 2914.01   98.19
   2  -1  -4 2846.52  102.49
   2  -1  -4 2819.32  103.19
   2  -1  -4 2717.03  102.19
   2  -1  -4 2858.21  102.59
  -2   1   4 2792.82  102.69
  -2   1   4 2742.03  102.59
  -2   1   4 2755.92  102.19
  -2   1   4 2852.51   98.89
   1  -1  -4 2915.01  101.29
   1  -1  -4 2900.01   99.09
   1  -1  -4 2688.53  102.19
   1  -1  -4 2729.03  102.49
   1  -1  -4 2878.51  102.99
  -1   1   4 2790.62  100.49
  -1   1   4 2745.23  102.29
  -1   1   4 2895.01  102.79
  -1   1   4 2896.61  103.09
   0  -1  -4  266.87   13.20
   0  -1  -4  248.28   15.00
   0  -1  -4  242.18   13.60
   0  -1  -4  253.57   10.60
   0  -1  -4  257.47   14.70
   0  -1  -4  252.87   15.40
   0   1   4  237.68   13.50
   0   1   4  244.48   12.40
   0   1   4  261.67   16.10
   0   1   4  249.58   14.90
   0   1   4  238.78   14.80
  -1  -1  -4 4622.64  159.08
  -1  -1  -4 4550.94  161.58
  -1  -1  -4 4742.03  161.38
  -1  -1  -4 4697.63  161.98
  -1  -1  -4 4618.24  159.38
   1   1   4 4589.14  161.68
   1   1   4 4770.92  161.08
   1   1   4 4756.72  159.38
   1   1   4 3911.21  166.38
   1   1   4 4314.87  161.08
  -2  -1  -4 1447.16   52.79
  -2  -1  -4 1433.26   55.29
  -2  -1  -4 1526.25   53.89
  -2  -1  -4 1391.16   53.69
  -2  -1  -4 1441.06   52.09
   2   1   4 1488.25   52.79
   2   1   4 1449.35   54.29
   2   1   4 1483.15   53.49
   2   1   4 1489.55   55.39
   2   1   4 1446.76   54.89
   2   1   4 1424.76   54.79
  -3  -1  -4 1899.41   67.09
  -3  -1  -4 1812.12   70.49
  -3  -1  -4 1926.51   67.29
  -3  -1  -4 1876.41   69.09
  -3  -1  -4 1837.22   70.09
  -3  -1  -4 1832.92   68.99
   3   1   4 1874.91   70.59
   3   1   4 1929.21   68.89
   3   1   4 1883.51   69.29
   3   1   4 1902.71   68.19
   3   1   4 1938.51   70.49
  -4  -1  -4 1210.88   44.20
  -4  -1  -4 1226.08   47.00
  -4  -1  -4 1198.68   47.40
  -4  -1  -4 1180.08   48.50
  -4  -1  -4 1194.78   48.40
   4   1   4 1227.08   47.60
   4   1   4 1194.08   48.20
   4   1   4 1197.38   48.40
   4   1   4 1234.68   47.30
   4   1   4 1240.28   44.00
  -5  -1  -4  744.03   34.40
  -5  -1  -4  756.92   34.70
  -5  -1  -4  740.73   28.30
  -5  -1  -4  717.83   33.60
   5   1   4  725.63   34.10
   5   1   4  748.53   33.30
   5   1   4  751.82   32.70
   5   1   4  716.93   31.80
   5   1   4  775.12   34.20
  -6  -1  -4 1282.27   52.69
  -6  -1  -4 1190.18   50.99
  -6  -1  -4 1156.78   44.50
   6   1   4 1165.28   49.40
   6   1   4 1252.87   52.69
   6   1   4 1236.18   50.39
  -7  -1  -4  514.85   32.60
  -7  -1  -4  479.45   29.00
  -7  -1  -4  479.65   20.40
   7   1   4  494.95   32.50
   7   1   4  513.15   28.80
   7   1   4  459.75   26.60
  -8  -1  -4  329.97   26.80
  -8  -1  -4  382.86   33.80
   8   1   4  344.17   28.00
   8   1   4  332.47   34.20
   9   1   4  277.97   43.20
   9   1   4  251.47   40.60
   6  -2  -4  200.68   32.00
  -6   2   4  240.38   26.00
   5  -2  -4  731.43   42.70
   5  -2  -4  731.23   41.70
  -5   2   4  810.32   37.80
   4  -2  -4  369.86   27.80
   4  -2  -4  530.35   30.10
   4  -2  -4  516.05   30.30
  -4   2   4  420.66   25.20
   3  -2  -4  102.59   17.60
   3  -2  -4   83.39   15.50
   3  -2  -4  109.49   16.30
   3  -2  -4   76.89   16.30
   3  -2  -4   92.69   16.90
   3  -2  -4   94.89    9.00
  -3   2   4   60.39   14.50
  -3   2   4   89.29   14.80
  -3   2   4   85.29   13.10
   2  -2  -4 1422.96   55.09
   2  -2  -4 1341.07   53.49
   2  -2  -4 1408.26   55.19
   2  -2  -4 1420.06   50.29
   2  -2  -4 1378.96   49.10
   2  -2  -4 1294.17   54.29
  -2   2   4 1416.96   53.09
  -2   2   4 1333.27   53.89
  -2   2   4 1423.06   49.99
  -2   2   4 1382.86   54.49
   1  -2  -4  616.84   23.30
   1  -2  -4  634.64   27.00
   1  -2  -4  637.14   25.40
   1  -2  -4  661.43   28.30
   1  -2  -4  628.04   28.20
   1  -2  -4  576.04   27.90
  -1   2   4  615.74   28.10
  -1   2   4  650.23   27.10
  -1   2   4  647.44   25.20
  -1   2   4  635.34   28.00
  -1   2   4  632.24   28.20
   0  -2  -4 2792.62  100.19
   0  -2  -4 2706.43  100.69
   0  -2  -4 2788.02   99.89
   0  -2  -4 2712.33   99.29
   0  -2  -4 2765.22   97.29
   0  -2  -4 2888.31  100.79
   0   2   4 2825.92  100.09
   0   2   4 2628.24  100.59
   0   2   4 2880.21  100.09
   0   2   4 2702.03   99.69
   0   2   4 2843.72   99.39
  -1  -2  -4 2087.39   76.29
  -1  -2  -4 2116.59   77.19
  -1  -2  -4 2144.39   76.39
  -1  -2  -4 2099.19   74.39
  -1  -2  -4 2104.19   76.79
   1   2   4 2141.59   76.29
   1   2   4 1989.10   77.09
   1   2   4 2121.29   76.29
   1   2   4 2191.28   80.19
  -2  -2  -4  588.24   25.80
  -2  -2  -4  638.24   25.20
  -2  -2  -4  582.14   22.60
  -2  -2  -4  582.34   24.80
   2   2   4  600.44   25.40
   2   2   4  605.94   23.80
   2   2   4  623.74   25.40
   2   2   4  612.94   25.30
   2   2   4  590.24   25.90
  -3  -2  -4 4378.26  147.09
  -3  -2  -4 4228.78  149.59
  -3  -2  -4 4252.17  147.29
  -3  -2  -4 4264.47  149.49
  -3  -2  -4 4016.10  149.69
  -3  -2  -4 4075.99  150.28
   3   2   4 4135.29  150.78
   3   2   4 4274.37  146.89
   3   2   4 4107.19  149.49
   3   2   4 4284.87  150.08
   3   2   4 4293.57  150.38
  -4  -2  -4 1975.00   74.39
  -4  -2  -4 1981.20   69.59
  -4  -2  -4 1920.01   73.29
  -4  -2  -4 1963.80   72.29
  -4  -2  -4 1854.31   73.09
   4   2   4 1948.80   73.39
   4   2   4 1978.50   72.59
   4   2   4 1968.90   73.29
   4   2   4 1973.80   73.29
  -5  -2  -4 1724.53   67.49
  -5  -2  -4 1705.43   67.49
  -5  -2  -4 1799.72   62.79
  -5  -2  -4 1702.63   67.69
   5   2   4 1710.03   66.69
   5   2   4 1819.62   68.49
   5   2   4 1705.73   67.69
   5   2   4 1790.52   66.79
  -6  -2  -4 1131.49   43.00
  -6  -2  -4 1211.38   50.59
  -6  -2  -4 1187.18   49.60
   6   2   4 1176.18   48.30
   6   2   4 1096.39   47.60
   6   2   4 1193.48   51.19
  -7  -2  -4  153.28   22.30
  -7  -2  -4  129.29   10.10
  -7  -2  -4  163.88   20.00
   7   2   4  142.69   25.70
   7   2   4  116.79   16.40
   7   2   4  142.19   17.70
  -8  -2  -4  659.13   36.10
  -8  -2  -4  739.13   42.20
   8   2   4  661.03   41.90
   8   2   4  670.63   37.90
   9   2   4  384.06   32.20
   9   2   4  332.77   41.80
   6  -3  -4  194.68   35.60
  -6   3   4  267.17   27.70
  -6   3   4  293.97   30.40
   5  -3  -4  795.22   45.20
   5  -3  -4  750.72   43.90
  -5   3   4  825.72   38.50
  -5   3   4  772.32   40.00
   4  -3  -4  286.07   36.20
   4  -3  -4  298.47   35.40
  -4   3   4  291.37   22.30
  -4   3   4  303.57   20.20
   3  -3  -4  862.91   38.50
   3  -3  -4  928.61   42.10
   3  -3  -4  907.81   32.60
   3  -3  -4  908.21   41.50
  -3   3   4  871.91   36.80
  -3   3   4  882.61   39.70
   2  -3  -4 1063.59   46.10
   2  -3  -4 1074.69   38.40
   2  -3  -4 1139.59   42.60
   2  -3  -4 1106.39   45.20
   2  -3  -4 1025.30   44.80
  -2   3   4 1074.19   39.90
  -2   3   4 1040.50   43.60
  -2   3   4 1051.59   41.00
  -2   3   4 1030.20   44.20
  -2   3   4 1038.70   46.10
   1  -3  -4 2377.66   88.29
   1  -3  -4 2519.35   92.09
   1  -3  -4 2455.95   88.29
   1  -3  -4 2499.75   90.79
   1  -3  -4 2478.65   86.49
   1  -3  -4 2338.17   90.89
  -1   3   4 2531.45   91.89
  -1   3   4 2549.65   88.49
  -1   3   4 2476.05   90.99
  -1   3   4 2370.26   90.09
   0  -3  -4 3130.99  112.69
   0  -3  -4 3127.99  114.39
   0  -3  -4 3180.78  113.59
   0  -3  -4 3130.59  111.29
   0  -3  -4 3275.57  114.79
   0  -3  -4 3225.88  110.59
   0   3   4 3251.47  114.49
   0   3   4 3213.58  111.59
   0   3   4 3145.79  113.19
   0   3   4 3143.59  114.39
   0   3   4 2870.41  114.59
  -1  -3  -4 1006.10   39.90
  -1  -3  -4 1007.30   35.90
  -1  -3  -4  994.80   38.20
  -1  -3  -4  967.70   38.60
  -1  -3  -4  992.80   39.40
   1   3   4  977.00   36.70
   1   3   4  983.20   39.80
   1   3   4 1021.20   39.60
   1   3   4  995.90   37.10
   1   3   4  961.00   37.80
   1   3   4  972.70   38.60
  -2  -3  -4 1152.98   43.10
  -2  -3  -4 1203.98   44.40
  -2  -3  -4 1221.08   45.80
  -2  -3  -4 1171.18   46.20
  -2  -3  -4 1198.08   46.50
   2   3   4 1186.78   46.30
   2   3   4 1209.98   44.10
   2   3   4 1231.08   46.30
   2   3   4 1190.28   46.10
   2   3   4 1185.68   44.50
  -3  -3  -4 1914.71   73.49
  -3  -3  -4 1991.60   71.19
  -3  -3  -4 2073.09   71.39
  -3  -3  -4 2087.19   73.79
  -3  -3  -4 1930.21   74.49
  -3  -3  -4 2068.69   74.89
   3   3   4 1968.10   73.59
   3   3   4 2007.40   74.69
   3   3   4 1999.50   74.49
   3   3   4 2013.20   71.09
   3   3   4 2044.60   73.99
  -4  -3  -4 1412.56   55.59
  -4  -3  -4 1360.16   54.89
  -4  -3  -4 1425.86   55.79
  -4  -3  -4 1472.85   51.59
   4   3   4 1489.55   56.39
   4   3   4 1409.46   54.59
   4   3   4 1431.96   55.09
   4   3   4 1420.16   55.39
  -5  -3  -4 2805.22   96.49
  -5  -3  -4 2637.64  101.09
  -5  -3  -4 2630.14  101.59
  -5  -3  -4 2749.32  101.09
   5   3   4 2712.13  101.19
   5   3   4 2803.72  100.49
   5   3   4 2795.12  102.29
   5   3   4 2665.53  100.39
  -6  -3  -4  853.71   32.30
  -6  -3  -4  870.81   39.90
  -6  -3  -4  846.82   38.70
   6   3   4  842.82   37.60
   6   3   4  882.81   40.80
   6   3   4  789.62   39.10
  -7  -3  -4  303.97   23.90
  -7  -3  -4  288.57   14.20
  -7  -3  -4  291.67   25.70
   7   3   4  281.17   27.20
   7   3   4  236.18   20.40
   7   3   4  289.17   21.70
  -8  -3  -4  670.93   36.20
  -8  -3  -4  733.83   42.00
   8   3   4  603.44   41.20
   8   3   4  662.23   36.50
   9   3   4  239.88   38.20
   9   3   4  300.57   30.60
   6  -4  -4  298.27   41.00
   6  -4  -4  322.37   43.00
  -6   4   4  413.66   43.50
   5  -4  -4  291.57   35.20
   5  -4  -4  265.07   32.80
  -5   4   4  342.07   28.80
  -5   4   4  359.46   28.10
   4  -4  -4  445.16   33.60
   4  -4  -4  458.55   32.70
  -4   4   4  444.86   24.40
  -4   4   4  464.05   28.30
   3  -4  -4  919.31   34.90
   3  -4  -4  926.01   42.30
   3  -4  -4  817.22   43.40
   3  -4  -4  886.71   32.90
  -3   4   4  823.32   35.00
   2  -4  -4  626.44   34.90
   2  -4  -4  550.34   29.60
   2  -4  -4  601.34   25.30
   2  -4  -4  646.64   30.90
   2  -4  -4  563.04   25.10
   2  -4  -4  587.54   25.40
  -2   4   4  528.05   29.70
  -2   4   4  573.24   28.90
  -2   4   4  562.44   23.70
  -2   4   4  562.94   28.20
  -2   4   4  567.74   32.60
   1  -4  -4 1493.65   61.49
   1  -4  -4 1596.94   59.49
   1  -4  -4 1454.65   59.49
   1  -4  -4 1453.45   54.29
   1  -4  -4 1541.65   56.79
   1  -4  -4 1560.24   54.29
  -1   4   4 1434.16   53.69
  -1   4   4 1520.45   61.09
  -1   4   4 1535.55   56.69
  -1   4   4 1474.25   58.19
  -1   4   4 1531.15   59.09
   0  -4  -4 1346.97   54.19
   0  -4  -4 1330.07   50.99
   0  -4  -4 1289.77   52.69
   0  -4  -4 1315.77   51.89
   0  -4  -4 1398.46   49.30
   0   4   4 1316.27   53.79
   0   4   4 1272.47   51.19
   0   4   4 1360.96   51.19
   0   4   4 1378.06   52.79
  -1  -4  -4  475.75   24.90
  -1  -4  -4  473.75   23.10
  -1  -4  -4  489.05   22.50
  -1  -4  -4  491.45   19.20
  -1  -4  -4  433.06   23.00
   1   4   4  453.05   17.90
   1   4   4  471.65   24.80
   1   4   4  490.15   23.80
   1   4   4  486.45   22.50
   1   4   4  438.46   24.20
   1   4   4  464.25   18.60
  -2  -4  -4 4939.11  171.88
  -2  -4  -4 4995.70  173.18
  -2  -4  -4 4896.01  174.98
  -2  -4  -4 4776.62  171.58
  -2  -4  -4 4864.61  173.78
  -2  -4  -4 4954.00  170.48
   2   4   4 5066.39  171.98
   2   4   4 4652.93  173.98
   2   4   4 4952.70  174.38
   2   4   4 4685.93  170.98
  -3  -4  -4  672.33   27.50
  -3  -4  -4  628.44   26.90
  -3  -4  -4  655.23   25.00
  -3  -4  -4  644.14   29.40
  -3  -4  -4  657.43   30.20
  -3  -4  -4  667.93   26.40
   3   4   4  633.34   27.00
   3   4   4  670.43   31.60
   3   4   4  657.13   28.50
   3   4   4  635.74   29.20
  -4  -4  -4  753.12   32.80
  -4  -4  -4  751.82   34.10
  -4  -4  -4  771.02   32.00
  -4  -4  -4  789.62   28.90
  -4  -4  -4  767.52   34.80
  -4  -4  -4  801.02   29.40
   4   4   4  803.32   35.50
   4   4   4  739.53   33.90
   4   4   4  763.72   32.90
   4   4   4  833.12   33.10
  -5  -4  -4 1096.79   46.10
  -5  -4  -4 1125.89   44.40
  -5  -4  -4 1100.79   46.30
  -5  -4  -4 1072.99   47.30
  -5  -4  -4 1111.59   41.80
   5   4   4 1053.59   46.80
   5   4   4 1176.88   48.80
   5   4   4 1102.39   46.20
   5   4   4 1177.28   45.40
  -6  -4  -4  400.16   17.20
  -6  -4  -4  388.76   25.00
  -6  -4  -4  407.36   26.10
   6   4   4  322.37   25.50
   6   4   4  426.76   23.20
   6   4   4  416.16   28.00
  -7  -4  -4  332.27   24.20
  -7  -4  -4  330.27   15.40
  -7  -4  -4  326.67   26.20
   7   4   4  268.07   23.00
   7   4   4  287.27   27.90
   7   4   4  317.27   22.30
  -8  -4  -4  300.37   29.70
   8   4   4  235.08   23.30
   8   4   4  199.08   29.80
   9   4   4   99.09   22.50
   9   4   4  152.78   27.90
   5  -5  -4  159.48   34.70
   5  -5  -4  132.09   22.40
   4  -5  -4  403.26   33.20
   4  -5  -4  400.36   34.40
  -4   5   4  443.06   23.30
  -4   5   4  474.05   29.20
   3  -5  -4  794.22   32.80
   3  -5  -4  800.92   41.20
   3  -5  -4  758.32   30.00
  -3   5   4  716.33   31.30
  -3   5   4  809.12   45.10
  -3   5   4  832.82   38.00
   2  -5  -4  490.65   22.40
   2  -5  -4  510.15   21.20
   2  -5  -4  534.95   30.30
   2  -5  -4  525.25   25.00
  -2   5   4  586.74   33.70
  -2   5   4  539.95   27.90
  -2   5   4  488.65   24.60
   1  -5  -4 1075.89   39.40
   1  -5  -4 1077.49   45.40
   1  -5  -4  999.70   45.60
   1  -5  -4 1113.19   43.50
   1  -5  -4 1122.89   55.79
  -1   5   4 1088.09   45.00
  -1   5   4 1059.19   42.80
  -1   5   4  984.20   43.90
  -1   5   4 1049.00   48.40
   0  -5  -4  132.49   19.90
   0  -5  -4  139.99    8.90
   0  -5  -4  134.09   14.70
   0  -5  -4  126.39   17.10
   0  -5  -4  111.29   15.50
   0   5   4  103.39   19.40
   0   5   4  118.49   15.10
   0   5   4   98.29   13.80
   0   5   4  129.39   13.70
  -1  -5  -4  412.16   21.90
  -1  -5  -4  422.16   22.20
  -1  -5  -4  405.66   25.70
  -1  -5  -4  411.16   17.20
  -1  -5  -4  430.26   22.70
   1   5   4  444.16   26.20
   1   5   4  424.46   22.80
   1   5   4  402.46   22.00
   1   5   4  381.16   20.90
  -2  -5  -4 1847.12   71.69
  -2  -5  -4 1939.01   68.89
  -2  -5  -4 1831.62   70.09
  -2  -5  -4 1836.52   65.79
  -2  -5  -4 1702.23   67.19
  -2  -5  -4 1863.71   68.09
   2   5   4 1783.92   69.69
   2   5   4 1882.61   71.79
   2   5   4 1823.22   65.89
   2   5   4 1839.72   69.59
  -3  -5  -4  217.48   17.50
  -3  -5  -4  200.68   13.20
  -3  -5  -4  224.58   11.20
  -3  -5  -4  222.08   13.80
  -3  -5  -4  221.18   14.10
  -3  -5  -4  224.08   19.60
  -3  -5  -4  229.48   15.20
   3   5   4  210.78   17.10
   3   5   4  254.67   16.50
   3   5   4  223.98   13.80
   3   5   4  254.37   20.30
  -4  -5  -4  178.08   12.80
  -4  -5  -4  192.38   11.40
  -4  -5  -4  158.38   14.30
  -4  -5  -4  184.78   12.60
  -4  -5  -4  188.38   11.80
  -4  -5  -4  188.28   17.00
  -4  -5  -4  170.28   18.00
   4   5   4  216.88   21.00
   4   5   4  167.58   16.80
   4   5   4  199.08   15.70
   4   5   4  171.58   14.80
  -5  -5  -4  243.68   20.50
  -5  -5  -4  254.97   16.90
  -5  -5  -4  257.07   12.60
  -5  -5  -4  243.68   19.40
  -5  -5  -4  269.37   16.30
   5   5   4  239.78   19.90
   5   5   4  288.97   18.60
   5   5   4  302.57   23.60
   5   5   4  258.17   18.80
  -6  -5  -4  664.33   33.70
  -6  -5  -4  626.04   25.70
  -6  -5  -4  618.24   32.50
   6   5   4  643.94   31.30
   6   5   4  660.13   36.20
  -7  -5  -4  721.43   35.50
  -7  -5  -4  696.33   38.20
  -7  -5  -4  645.54   27.30
   7   5   4  649.24   40.50
   7   5   4  680.53   34.00
  -8  -5  -4   88.69   10.60
   8   5   4   80.89   19.30
   8   5   4   55.89   19.90
  -9  -5  -4  323.27   37.30
  -9  -5  -4  317.87   33.20
   9   5   4  228.38   29.80
   4  -6  -4  331.67   36.40
   4  -6  -4  350.86   19.00
  -4   6   4  417.66   29.70
   3  -6  -4  171.28   11.50
   3  -6  -4  170.48   26.50
   3  -6  -4  154.48   16.90
  -3   6   4  169.38   29.30
  -3   6   4  192.48   21.50
   2  -6  -4  569.74   28.60
   2  -6  -4  602.24   34.00
   2  -6  -4  560.24   23.30
  -2   6   4  537.85   36.70
  -2   6   4  551.64   27.90
   1  -6  -4  464.65   29.60
   1  -6  -4  468.05   25.60
   1  -6  -4  399.36   31.50
   1  -6  -4  470.45   19.90
  -1   6   4  417.66   24.10
  -1   6   4  482.25   25.90
  -1   6   4  478.45   31.60
   0  -6  -4  495.95   29.90
   0  -6  -4  582.44   29.20
   0  -6  -4  594.94   23.20
   0  -6  -4  582.94   29.80
   0   6   4  527.05   33.30
   0   6   4  527.55   27.90
   0   6   4  594.04   28.70
  -1  -6  -4  974.30   36.40
  -1  -6  -4  909.91   40.90
  -1  -6  -4  991.60   42.10
  -1  -6  -4  978.70   41.10
  -1  -6  -4  946.61   46.10
   1   6   4  937.81   41.20
   1   6   4 1027.30   41.60
   1   6   4  930.71   45.10
  -2  -6  -4 1114.69   41.80
  -2  -6  -4 1087.69   46.00
  -2  -6  -4 1128.59   47.40
  -2  -6  -4 1077.29   49.90
  -2  -6  -4 1126.69   41.10
  -2  -6  -4 1149.78   45.10
  -2  -6  -4 1129.79   45.40
   2   6   4 1159.38   46.70
   2   6   4 1148.79   42.00
   2   6   4 1141.29   50.19
   2   6   4 1065.99   46.70
  -3  -6  -4 1083.79   45.80
  -3  -6  -4 1124.19   41.90
  -3  -6  -4 1069.29   49.30
  -3  -6  -4 1115.09   47.50
  -3  -6  -4 1152.88   45.30
  -3  -6  -4 1161.48   44.30
  -3  -6  -4 1114.89   44.20
   3   6   4 1150.88   49.90
   3   6   4 1126.99   46.20
   3   6   4 1056.69   46.90
   3   6   4 1130.09   43.60
  -4  -6  -4  660.83   25.70
  -4  -6  -4  640.34   27.50
  -4  -6  -4  619.54   32.10
  -4  -6  -4  610.24   28.60
  -4  -6  -4  636.24   27.80
  -4  -6  -4  626.74   29.20
   4   6   4  642.84   34.90
   4   6   4  642.64   29.60
   4   6   4  671.23   30.50
   4   6   4  618.44   33.50
  -5  -6  -4  273.37   21.10
  -5  -6  -4  267.07   16.80
  -5  -6  -4  280.67   14.20
  -5  -6  -4  295.27   22.70
  -5  -6  -4  254.87   15.20
   5   6   4  333.17   26.40
   5   6   4  267.57   18.70
   5   6   4  263.77   20.30
  -6  -6  -4  638.84   34.60
  -6  -6  -4  725.23   35.20
  -6  -6  -4  607.84   26.10
   6   6   4  636.34   31.10
   6   6   4  597.14   37.30
  -7  -6  -4  542.85   34.70
  -7  -6  -4  496.05   32.30
  -7  -6  -4  487.65   21.70
   7   6   4  413.36   35.60
   7   6   4  500.85   32.40
  -8  -6  -4   83.79   11.80
  -8  -6  -4   58.99   19.10
  -9  -6  -4  231.28   33.60
   9   6   4  177.98   27.40
   4  -7  -4  404.96   40.80
   4  -7  -4  409.76   20.90
  -4   7   4  468.65   33.30
   3  -7  -4   78.79   18.30
   3  -7  -4   57.09   16.10
   3  -7  -4  108.59   11.10
   2  -7  -4  568.54   31.30
   2  -7  -4  551.54   24.60
   2  -7  -4  545.85   35.90
  -2   7   4  562.64   35.80
  -2   7   4  633.24   34.90
  -2   7   4  588.94   40.20
   1  -7  -4  630.14   36.00
   1  -7  -4  621.84   34.40
   1  -7  -4  599.54   26.40
  -1   7   4  697.93   31.80
  -1   7   4  617.64   39.50
   0  -7  -4  799.62   46.60
   0  -7  -4  783.92   32.30
   0  -7  -4  819.82   39.50
   0   7   4  866.81   37.00
  -1  -7  -4  714.73   34.40
  -1  -7  -4  678.63   35.30
  -1  -7  -4  661.93   27.90
   1   7   4  705.13   38.50
   1   7   4  673.73   32.30
  -2  -7  -4  103.49   10.10
  -2  -7  -4   89.59   16.70
  -2  -7  -4   78.89   12.90
   2   7   4   98.19   16.20
  -3  -7  -4  848.02   39.60
  -3  -7  -4  885.61   38.40
  -3  -7  -4  848.02   34.50
  -3  -7  -4  898.01   35.30
  -3  -7  -4  927.51   36.80
  -3  -7  -4  938.51   42.00
   3   7   4  871.91   39.70
   3   7   4  852.71   38.50
   3   7   4  898.71   44.70
  -4  -7  -4  305.57   22.00
  -4  -7  -4  325.87   16.50
  -4  -7  -4  324.17   27.70
  -4  -7  -4  355.26   24.90
  -4  -7  -4  340.17   20.70
  -4  -7  -4  336.57   20.80
   4   7   4  331.07   22.70
   4   7   4  368.46   29.00
   4   7   4  311.37   21.60
  -5  -7  -4  327.27   25.30
  -5  -7  -4  365.46   28.50
  -5  -7  -4  280.87   20.80
  -5  -7  -4  365.06   22.60
  -5  -7  -4  324.47   19.10
  -5  -7  -4  315.87   16.00
   5   7   4  302.47   23.30
   5   7   4  297.77   29.20
   5   7   4  309.87   21.80
  -6  -7  -4  321.57   17.80
  -6  -7  -4  324.87   16.20
  -6  -7  -4  319.17   26.50
  -6  -7  -4  280.07   21.50
  -6  -7  -4  376.26   28.30
   6   7   4  310.87   22.50
   6   7   4  264.77   31.40
  -7  -7  -4  108.79   23.50
  -7  -7  -4  108.79   11.50
   7   7   4   76.69   12.80
  -8  -7  -4  148.79   13.80
  -8  -7  -4  148.79   26.20
   8   7   4  115.39   23.70
   3  -8  -4  168.78   13.20
   3  -8  -4  112.39   23.50
   2  -8  -4   89.09   11.30
   2  -8  -4   55.99   15.30
   2  -8  -4   91.29   21.30
  -2   8   4   77.29   24.70
   1  -8  -4  366.76   19.30
   1  -8  -4  364.26   29.00
   1  -8  -4  367.36   32.90
  -1   8   4  417.96   25.90
  -1   8   4  362.66   35.50
   0  -8  -4  491.55   23.50
   0  -8  -4  513.35   33.80
   0  -8  -4  509.35   32.60
   0   8   4  491.55   37.60
   0   8   4  596.34   28.40
  -1  -8  -4  287.77   26.00
  -1  -8  -4  268.97   16.10
  -1  -8  -4  293.17   26.30
   1   8   4  292.57   20.10
   1   8   4  285.17   30.80
  -2  -8  -4  150.98   22.80
  -2  -8  -4  141.89   12.10
  -2  -8  -4  123.49   16.90
   2   8   4  151.08   17.00
   2   8   4  143.69   27.20
  -3  -8  -4  539.05   33.40
  -3  -8  -4  551.94   26.20
  -3  -8  -4  604.24   30.50
  -3  -8  -4  541.95   23.70
  -3  -8  -4  542.25   25.90
   3   8   4  541.85   37.50
   3   8   4  524.55   29.00
  -4  -8  -4  237.58   15.30
  -4  -8  -4  230.88   22.80
  -4  -8  -4  236.88   20.30
  -4  -8  -4  244.68   25.30
  -4  -8  -4  229.38   14.40
   4   8   4  187.18   21.20
   4   8   4  210.78   28.60
  -5  -8  -4  216.18   20.00
  -5  -8  -4  229.98   18.00
  -5  -8  -4  202.68   24.30
  -5  -8  -4  203.38   13.80
  -5  -8  -4  177.98   26.90
   5   8   4  167.38   29.00
  -6  -8  -4   95.19   17.10
  -6  -8  -4  123.49   24.00
  -6  -8  -4  125.99   11.70
   6   8   4   80.99   13.10
  -7  -8  -4   52.49   19.40
  -8  -8  -4  127.19   14.30
  -8  -8  -4  151.28   31.40
   2  -9  -4  106.99   14.60
   2  -9  -4   84.59   21.80
  -2   9   4  108.69   28.30
   1  -9  -4  159.88   26.20
   1  -9  -4  148.19   33.10
   1  -9  -4  170.18   14.70
  -1   9   4  199.88   37.60
   0  -9  -4  242.68   16.40
   0  -9  -4  176.68   27.60
   0  -9  -4  240.28   31.40
   0   9   4  272.87   35.90
  -1  -9  -4  149.49   14.00
  -1  -9  -4  121.49   26.20
  -1  -9  -4  154.58   26.80
   1   9   4  176.48   17.50
   1   9   4  133.69   31.00
  -2  -9  -4  206.98   25.40
  -2  -9  -4  208.98   15.30
  -2  -9  -4  197.28   26.10
   2   9   4  172.98   33.50
   2   9   4  233.58   18.70
  -3  -9  -4  181.68   14.20
  -3  -9  -4  144.99   24.80
  -3  -9  -4  190.88   25.20
   3   9   4  190.38   18.70
   3   9   4  135.59   31.10
  -4  -9  -4  204.08   14.60
  -4  -9  -4  178.68   27.70
  -4  -9  -4  203.28   25.50
   4   9   4  150.88   24.80
   4   9   4  163.48   31.90
  -5  -9  -4  110.89   23.20
  -5  -9  -4   98.99   12.70
  -6  -9  -4  137.49   21.90
  -6  -9  -4  163.38   28.70
  -6  -9  -4  120.69   13.70
  -7  -9  -4  102.09   13.10
  -7  -9  -4  127.49   30.60
   7   9   4   59.49   25.20
   0 -10  -4   82.99   26.00
   0 -10  -4   94.39   14.80
   0 -10  -4   66.89   20.80
   0  10   4   71.19   24.10
  -1 -10  -4  185.28   16.80
  -1 -10  -4  165.48   28.90
  -1 -10  -4  201.28   33.70
   1  10   4  201.38   39.10
  -2 -10  -4  343.47   20.60
  -2 -10  -4  383.36   35.60
  -2 -10  -4  294.77   38.70
   2  10   4  313.17   45.00
  -3 -10  -4  118.69   25.50
  -3 -10  -4  132.19   14.50
  -3 -10  -4   85.29   17.80
   3  10   4   81.19   24.70
  -4 -10  -4  231.48   17.20
  -4 -10  -4  245.08   29.40
  -4 -10  -4  198.68   32.20
  -5 -10  -4   48.30    8.90
  -5 -10  -4   86.69   26.30
  -5 -10  -4   67.69   17.20
   5  10   4   33.60   25.20
  -6 -10  -4   49.90    9.00
  -6 -10  -4   48.80   23.60
   6  10   4   -2.70   26.50
   3   7  -5   29.50   19.00
   3   7  -5   -5.10    8.20
  -3  -7   5  -27.50   23.00
  -3  -7   5   -2.10   26.10
   2   7  -5   23.80   20.40
   2   7  -5    3.70    8.10
  -2  -7   5  -14.80   24.20
   1   7  -5   67.29   21.40
   1   7  -5   95.29   14.50
  -1  -7   5   82.99   26.90
   0   7  -5  -12.40   18.30
   0   7  -5   -0.50    8.40
   0  -7   5   -8.50   21.60
  -1   7  -5   34.60   20.50
  -1   7  -5   13.90    7.90
   1  -7   5    9.70   22.80
  -2   7  -5   -5.60   13.70
   2  -7   5    7.70   24.30
   4   6  -5   -8.90   18.00
   4   6  -5   -0.80    7.40
  -4  -6   5    0.20   21.30
   3   6  -5   -0.20   16.20
   3   6  -5   11.10    7.20
  -3  -6   5   -4.30   19.70
  -3  -6   5  -26.40   20.30
   2   6  -5   60.29   15.30
   2   6  -5   77.49   18.40
   2   6  -5   85.59   12.10
  -2  -6   5  101.29   22.40
  -2  -6   5   47.70   21.70
   1   6  -5  139.69   13.70
   1   6  -5  146.89   19.10
   1   6  -5   95.49   19.20
  -1  -6   5  142.09   27.30
  -1  -6   5  109.49   23.30
   0   6  -5   82.79   12.80
   0   6  -5  114.99   17.40
   0  -6   5   91.29   22.60
  -1   6  -5   88.79   12.90
  -1   6  -5   72.19   18.30
   1  -6   5   73.79   21.90
  -2   6  -5  103.69   20.50
  -2   6  -5  139.69   14.40
   2  -6   5   93.69   23.40
   2  -6   5  135.09   24.70
  -3   6  -5   42.20    9.30
   3  -6   5    6.30   21.30
   3  -6   5   69.89   23.80
   3  -6   5   46.60   14.70
  -4   6  -5   30.80   10.10
   4  -6   5   44.10   17.70
   4  -6   5   30.00   23.70
   4  -6   5   34.60   25.10
   5   5  -5   10.10   17.30
  -5  -5   5   69.09   22.70
  -5  -5   5   31.80   21.30
   4   5  -5    1.40   14.00
   4   5  -5   11.80   15.00
  -4  -5   5   23.70   19.80
  -4  -5   5   42.40   19.50
   3   5  -5   61.69   14.10
   3   5  -5   52.39   15.10
   3   5  -5   79.29   10.70
  -3  -5   5   38.90   19.50
  -3  -5   5   96.89   21.30
   2   5  -5   62.99   11.80
   2   5  -5   92.79   11.00
   2   5  -5   63.49   15.20
  -2  -5   5   80.29   19.60
   1   5  -5  114.19   10.40
   1   5  -5  108.49   15.60
  -1  -5   5  109.59   18.00
  -1  -5   5  116.19   23.50
  -1  -5   5   92.39   20.90
   0   5  -5   -7.20   11.80
   0   5  -5    4.10    5.50
   0   5  -5   19.30    7.60
   0  -5   5  -10.00   16.20
   0  -5   5  -17.00   15.10
   0  -5   5   -8.40    6.30
  -1   5  -5   61.69    8.40
  -1   5  -5   38.80   13.90
   1  -5   5   51.49   19.80
   1  -5   5   79.99   18.40
  -2   5  -5  223.38   28.70
  -2   5  -5  225.28   15.20
   2  -5   5  217.88   30.40
   2  -5   5  173.88   16.70
   2  -5   5  199.78   26.40
  -3   5  -5   80.39   12.60
  -3   5  -5   72.29   17.20
   3  -5   5   84.79   13.00
   3  -5   5  110.99   20.70
   3  -5   5  108.19   18.30
   3  -5   5   66.69   20.10
  -4   5  -5   54.29    9.00
   4  -5   5   62.89   20.40
   4  -5   5   72.39   15.20
   4  -5   5   53.69   13.00
   4  -5   5   57.49   20.30
  -5   5  -5    7.90    7.90
   5  -5   5   17.90    9.80
   5  -5   5   39.80   22.60
   5  -5   5   25.40   21.30
   5  -5   5   22.20   14.80
   5  -5   5   48.70   19.00
   6   4  -5    1.20   17.80
   5   4  -5   -3.50   14.80
   5   4  -5   -9.90   14.60
  -5  -4   5    9.50   20.40
  -5  -4   5   -0.10   16.10
   4   4  -5   23.80   13.30
   4   4  -5   -0.30   11.20
  -4  -4   5    7.80   15.20
  -4  -4   5   14.10   16.70
   3   4  -5    4.40   10.20
   3   4  -5   15.80    5.60
   3   4  -5   13.30   12.10
  -3  -4   5    5.90   16.30
  -3  -4   5   14.50   14.60
  -3  -4   5   28.30    7.80
   2   4  -5   15.00    9.50
   2   4  -5   26.60    4.60
   2   4  -5   16.70   11.10
   2   4  -5   30.00    5.90
  -2  -4   5   47.20   11.00
  -2  -4   5   25.90   16.00
   1   4  -5   12.20   11.80
   1   4  -5    5.30    4.70
  -1  -4   5   11.00   16.00
  -1  -4   5   13.20    5.30
   0   4  -5  165.48   25.40
   0   4  -5  169.38   13.60
   0   4  -5  167.88   12.20
   0  -4   5  166.58   21.60
   0  -4   5  219.98   28.40
  -1   4  -5    2.60    4.90
  -1   4  -5   -6.80   10.90
  -1   4  -5    6.80    6.00
   1  -4   5    6.90    3.20
   1  -4   5    2.00   19.50
   1  -4   5   11.30   14.80
  -2   4  -5  266.37   15.00
  -2   4  -5  220.08   33.00
   2  -4   5  314.97   29.80
   2  -4   5  250.37   25.60
   2  -4   5  282.77   16.00
   2  -4   5  298.27   15.20
  -3   4  -5   31.10   14.80
  -3   4  -5   43.00    7.40
   3  -4   5   50.19   16.30
   3  -4   5   37.90    7.20
   3  -4   5   46.10    9.00
  -4   4  -5    4.20    6.60
   4  -4   5   13.10    9.70
   4  -4   5   10.60    8.10
   4  -4   5    9.00   15.50
   4  -4   5   18.70   16.00
   4  -4   5   -6.00    9.60
  -5   4  -5   18.20    7.40
   5  -4   5   29.30   18.30
   5  -4   5   20.90    9.30
   5  -4   5   24.60   17.70
   5  -4   5   22.00   12.50
  -6   4  -5   13.70    7.80
   6  -4   5   19.80   14.70
   6  -4   5   17.70   11.30
   6  -4   5    7.60   14.00
  -6  -3   5   34.50   19.50
   5   3  -5   -5.50   13.90
  -5  -3   5   -9.00   12.40
  -5  -3   5    2.10   16.50
   4   3  -5   29.20   11.40
   4   3  -5   33.80    7.20
   4   3  -5   11.20   12.40
   4   3  -5   21.50   14.30
  -4  -3   5   50.69   13.90
  -4  -3   5   32.70   16.60
  -4  -3   5   50.29   12.00
   3   3  -5   -7.80    8.50
   3   3  -5  -10.60    7.20
   3   3  -5   -1.50    5.50
  -3  -3   5   12.70   10.90
  -3  -3   5   11.40    6.40
  -3  -3   5  -13.30   14.20
  -3  -3   5    7.60   12.10
   2   3  -5   -1.90    7.10
   2   3  -5   -0.30    4.30
   2   3  -5   19.00   10.00
   2   3  -5   -7.80    7.50
  -2  -3   5    4.60   11.80
  -2  -3   5    1.10    4.60
  -2  -3   5   10.00   10.90
  -2  -3   5    1.50    5.10
  -2  -3   5   13.10   15.40
   1   3  -5   -6.30    9.20
   1   3  -5    0.10    4.60
   1   3  -5    3.60    4.20
  -1  -3   5   17.40   11.40
  -1  -3   5   20.80   12.00
  -1  -3   5    8.60    4.30
  -1  -3   5    1.40    4.60
  -1  -3   5    9.20   15.40
   0   3  -5   76.59   11.80
   0   3  -5   83.19   19.00
   0   3  -5  107.49    7.80
   0   3  -5   90.79    8.50
   0   3  -5   97.49    9.40
   0  -3   5   93.09   17.10
   0  -3   5   77.49   17.30
   0  -3   5  134.09   24.70
   0  -3   5   99.59   14.20
   0  -3   5  104.99    7.80
  -1   3  -5    3.50    4.90
  -1   3  -5    6.60    9.60
  -1   3  -5   -4.40    8.80
   1  -3   5   -8.90   11.70
   1  -3   5   10.30    5.50
   1  -3   5    6.90    4.40
   1  -3   5   15.10   11.70
   1  -3   5    5.30    9.40
   1  -3   5   19.90   13.40
  -2   3  -5   -2.00    9.30
  -2   3  -5    4.50    5.00
   2  -3   5    1.30    5.00
   2  -3   5    2.20    4.00
   2  -3   5   -0.10    7.20
   2  -3   5   14.20   12.90
   2  -3   5   -4.60    8.70
  -3   3  -5  256.17   14.20
  -3   3  -5  211.08   22.70
   3  -3   5  230.08   22.80
   3  -3   5  252.77   15.60
   3  -3   5  264.27   26.10
   3  -3   5  270.27   15.00
   3  -3   5  251.07   16.40
   3  -3   5  215.98   17.60
  -4   3  -5   52.49    7.30
   4  -3   5   53.39   19.30
   4  -3   5   66.39   15.50
   4  -3   5   51.89   11.90
   4  -3   5   65.39   10.30
  -5   3  -5  180.08   13.60
   5  -3   5  181.88   23.80
   5  -3   5  205.88   23.40
   5  -3   5  207.78   27.10
   5  -3   5  204.48   25.20
  -6   3  -5   97.89   12.30
   6  -3   5  125.09   24.40
   6  -3   5  126.79   19.90
   7  -3   5   32.80   13.10
   7  -3   5   -1.30   19.30
   7  -3   5   10.60   16.00
  -6  -2   5   92.79   20.20
  -6  -2   5  137.29   32.30
   5   2  -5   -3.80   12.90
  -5  -2   5   -0.60   14.40
   4   2  -5   10.20    9.20
   4   2  -5   23.50    4.20
   4   2  -5   19.70   12.20
   4   2  -5   23.40   10.30
  -4  -2   5    1.90   13.60
  -4  -2   5   38.10   10.70
  -4  -2   5   26.50    7.60
   3   2  -5   24.00    8.30
   3   2  -5   13.60    4.10
  -3  -2   5   18.90    6.40
  -3  -2   5   23.50   10.70
  -3  -2   5   29.80   10.40
  -3  -2   5   12.70   14.70
   2   2  -5   -0.20    7.00
   2   2  -5    6.40    6.70
   2   2  -5   -2.10    3.90
   2   2  -5   -5.40   15.40
   2   2  -5    2.10    9.30
  -2  -2   5    1.30    9.80
  -2  -2   5   -3.30    9.40
  -2  -2   5   10.30   13.60
  -2  -2   5    6.90    9.20
  -2  -2   5    0.40    5.20
  -2  -2   5   -0.70    5.40
   1   2  -5  413.46   26.50
   1   2  -5  429.66   22.90
   1   2  -5  386.26   26.10
   1   2  -5  421.16   17.70
   1   2  -5  408.16   21.70
  -1  -2   5  397.26   25.50
  -1  -2   5  399.76   23.50
  -1  -2   5  402.66   23.30
  -1  -2   5  395.56   17.50
  -1  -2   5  452.75   30.90
  -1  -2   5  417.46   19.90
   0   2  -5  317.57   23.70
   0   2  -5  391.06   16.70
   0   2  -5  347.97   23.60
   0   2  -5  390.76   17.30
   0  -2   5  399.16   19.50
   0  -2   5  410.66   28.40
   0  -2   5  346.17   23.60
   0  -2   5  358.16   22.70
  -1   2  -5  190.38   19.90
  -1   2  -5  215.68   12.70
  -1   2  -5  191.08   18.20
   1  -2   5  229.58   23.00
   1  -2   5  202.18   19.00
   1  -2   5  193.88   18.70
   1  -2   5  249.28   14.40
  -2   2  -5  -10.20    7.80
  -2   2  -5   -3.00    4.00
  -2   2  -5    0.40    3.90
   2  -2   5    0.70    4.60
   2  -2   5   -3.90    7.60
   2  -2   5    1.80    4.90
   2  -2   5    1.00    3.30
   2  -2   5   -7.70   10.50
   2  -2   5   -1.30   11.10
  -3   2  -5  210.88   12.40
  -3   2  -5  186.78   20.20
  -3   2  -5  219.88   22.20
   3  -2   5  186.18   18.20
   3  -2   5  226.68   14.50
   3  -2   5  202.28   14.90
   3  -2   5  222.18   19.30
   3  -2   5  214.98   20.40
   3  -2   5  219.08   13.80
   3  -2   5  212.58   22.40
  -4   2  -5   96.09    9.80
  -4   2  -5   86.99   19.00
   4  -2   5   97.39   14.60
   4  -2   5   99.69   24.60
   4  -2   5  102.39   12.00
   4  -2   5   69.19   13.40
   4  -2   5   92.79   12.80
   4  -2   5   90.49   13.40
  -5   2  -5   89.09    9.90
   5  -2   5  108.09   16.30
   5  -2   5   88.99   22.40
   5  -2   5   88.09   17.30
  -6   2  -5   77.59   10.90
   6  -2   5   44.90   10.80
   6  -2   5   49.10   10.40
   6  -2   5   82.99   17.90
  -6  -1   5  138.39   28.20
   5   1  -5   16.00   16.70
   5   1  -5   -8.70   12.70
  -5  -1   5   19.20    9.40
  -5  -1   5   22.70   14.00
   4   1  -5   88.69   17.90
  -4  -1   5  101.99   10.70
  -4  -1   5   68.09   11.00
  -4  -1   5   98.09   17.50
  -4  -1   5   86.99   14.90
   3   1  -5   17.30    7.60
   3   1  -5    1.60   10.30
   3   1  -5    0.50    7.30
   3   1  -5    2.70    7.80
   3   1  -5    4.00    3.40
  -3  -1   5    6.20    8.20
  -3  -1   5   -1.00    6.70
  -3  -1   5    8.70    8.20
  -3  -1   5   -3.30   12.20
   2   1  -5    9.50   10.20
   2   1  -5    4.40    3.50
   2   1  -5   18.40    9.50
   2   1  -5    4.60    7.00
   2   1  -5   15.30    6.20
   2   1  -5    8.60    5.70
  -2  -1   5    8.10    8.00
  -2  -1   5   -3.30    6.00
  -2  -1   5    7.10    8.30
  -2  -1   5    7.10   12.90
  -2  -1   5    5.90    8.10
   1   1  -5  113.59    8.50
   1   1  -5  109.89   12.80
   1   1  -5  104.59    9.60
   1   1  -5  113.79   11.10
   1   1  -5  106.79   17.30
   1   1  -5   91.19   17.10
  -1  -1   5  101.39   12.20
  -1  -1   5  122.89   21.30
  -1  -1   5   98.19   13.30
  -1  -1   5  125.69   16.40
   0   1  -5   26.00    5.50
   0   1  -5   34.50    9.30
   0   1  -5   28.90    9.60
   0   1  -5   21.70    4.40
   0   1  -5   25.20    8.00
   0  -1   5   22.60    7.70
   0  -1   5   43.70   11.50
   0  -1   5   19.60    9.10
  -1   1  -5   46.80    7.60
  -1   1  -5   38.70    8.40
  -1   1  -5   52.69   10.10
  -1   1  -5   45.60    5.20
  -1   1  -5   50.79   10.90
   1  -1   5   44.00   10.40
   1  -1   5   35.10    9.60
   1  -1   5   41.80    7.80
  -2   1  -5    5.30    9.60
  -2   1  -5   10.50    4.40
  -2   1  -5   10.20    4.20
   2  -1   5   20.10    5.20
   2  -1   5   12.40    3.40
   2  -1   5   10.10    9.30
   2  -1   5    3.10    6.90
   2  -1   5   12.60    9.30
  -3   1  -5   68.69   13.50
  -3   1  -5   50.09    8.90
  -3   1  -5   44.80    8.90
   3  -1   5   49.10    9.80
   3  -1   5   40.60    6.50
   3  -1   5   49.70    8.70
   3  -1   5   58.99   12.70
   3  -1   5   52.39    9.00
   3  -1   5   44.80   10.20
   3  -1   5   61.59   12.10
  -4   1  -5   46.70    9.30
  -4   1  -5   83.09   15.30
  -4   1  -5   50.29    8.10
   4  -1   5   50.09   11.30
   4  -1   5   69.99   13.30
   4  -1   5   59.69   11.00
   4  -1   5   55.09   12.20
   4  -1   5   62.29   14.80
   4  -1   5   57.59   14.10
   4  -1   5   55.89   10.30
  -5   1  -5    7.20   13.70
  -5   1  -5    1.20    4.70
   5  -1   5   17.40    9.60
   5  -1   5    4.50   12.10
   5  -1   5    4.40    7.30
   5  -1   5    4.30    8.50
   5  -1   5    9.40   11.50
   5  -1   5   -5.30    7.60
  -6   1  -5   96.39    9.70
   6  -1   5   82.39   13.50
   6  -1   5  107.89   15.10
   6  -1   5   92.89   17.10
  -7   1  -5   29.30    6.70
   7  -1   5   25.50   10.70
   7  -1   5   10.80    9.50
   7  -1   5   23.70   13.80
  -8   1  -5   18.20    8.00
   8  -1   5   29.80   18.10
   8  -1   5   21.00   13.70
   6   0  -5  -12.20   15.70
   6   0  -5  -12.00   15.40
  -6   0   5   17.50   15.30
  -6   0   5   14.10   11.60
   5   0  -5    6.80   12.00
   5   0  -5  -13.60   12.80
  -5   0   5   15.50   13.00
  -5   0   5   12.20    9.20
   4   0  -5   -1.40   12.90
   4   0  -5   -1.50    8.90
  -4   0   5    3.70   13.00
  -4   0   5   14.50    7.90
   3   0  -5  161.18    8.50
   3   0  -5  168.08   16.80
   3   0  -5  123.39   22.10
   3   0  -5  183.18   17.30
   3   0  -5  174.68   21.60
   3   0  -5  143.19   17.80
  -3   0   5  165.58   12.40
  -3   0   5  172.18   11.40
  -3   0   5  135.19   21.30
  -3   0   5  127.19   15.40
  -3   0   5  139.39   24.30
   2   0  -5  152.68   15.30
   2   0  -5  140.59   14.50
   2   0  -5  175.78   19.70
   2   0  -5  151.58   13.10
   2   0  -5  147.19   19.30
   2   0  -5  141.99    8.40
  -2   0   5  123.89   15.10
  -2   0   5  161.78   21.70
  -2   0   5  146.59   17.30
   1   0  -5    4.80    8.60
   1   0  -5   14.70    4.90
   1   0  -5    8.40    5.00
   1   0  -5    7.00    3.30
   1   0  -5    8.80    6.50
   1   0  -5   15.20    8.20
   1   0  -5   11.10    7.40
  -1   0   5    4.10    6.40
  -1   0   5    9.90    7.90
  -1   0   5   16.10   10.80
  -1   0   5    9.60    7.00
   0   0  -5    1.00    6.70
   0   0  -5    7.00    3.30
   0   0  -5    6.20    2.60
   0   0  -5    5.90    5.30
   0   0  -5    2.20   12.60
   0   0  -5    7.00    3.50
   0   0  -5    6.60    7.50
   0   0   5    5.90    6.70
   0   0   5    6.20    6.30
   0   0   5   18.10    9.70
   0   0   5   12.10    6.00
  -1   0  -5   23.40    7.00
  -1   0  -5   24.70    8.70
  -1   0  -5   14.30    4.80
  -1   0  -5   12.40    7.00
  -1   0  -5   15.70    3.50
   1   0   5   21.10    7.70
   1   0   5   25.40    9.00
   1   0   5   25.10    6.70
  -2   0  -5   61.39    6.90
  -2   0  -5   56.19   12.50
  -2   0  -5   51.69   11.70
  -2   0  -5   65.39    8.10
   2   0   5   58.19   11.80
   2   0   5   51.59   11.90
   2   0   5   78.49    5.70
   2   0   5   53.49   13.80
  -3   0  -5   25.60    6.50
  -3   0  -5   24.00    4.60
  -3   0  -5   35.00    8.40
  -3   0  -5   35.30   10.80
   3   0   5   31.10    6.60
   3   0   5   18.90    7.70
   3   0   5   31.90    9.20
   3   0   5   44.60    9.00
   3   0   5   39.80   10.60
  -4   0  -5   20.00    5.50
  -4   0  -5   16.20    6.50
  -4   0  -5   16.00    4.50
  -4   0  -5   12.50   10.80
   4   0   5   18.70    8.20
   4   0   5   16.40    5.90
   4   0   5    0.10    9.80
   4   0   5   18.40    6.30
   4   0   5   16.50   10.40
   4   0   5   25.40    6.50
  -5   0  -5   99.19   19.20
  -5   0  -5   95.39    9.10
   5   0   5   97.69   15.80
   5   0   5   88.79   13.40
   5   0   5   96.49   13.80
   5   0   5  101.59   13.10
   5   0   5  101.99   16.70
  -6   0  -5   37.00   13.90
  -6   0  -5   40.00   13.20
  -6   0  -5   24.30    5.10
   6   0   5   32.40   12.90
   6   0   5   27.30   10.20
   6   0   5   21.10    9.10
   6   0   5   13.70    7.10
   6   0   5   19.20    7.10
  -7   0  -5  161.98   11.90
  -7   0  -5  157.88   28.50
   7   0   5  193.38   26.70
   7   0   5  177.48   20.00
   7   0   5  153.28   14.80
  -8   0  -5   23.60   18.60
  -8   0  -5    7.80    6.50
  -8   0  -5    2.50   22.00
   8   0   5    2.90   14.80
   8   0   5    3.80   11.40
   6  -1  -5   -8.60   16.90
   6  -1  -5   -2.50   16.30
   5  -1  -5   -3.30   12.70
   5  -1  -5   16.00   14.10
  -5   1   5   36.70   13.80
  -5   1   5   32.40   10.70
   4  -1  -5   47.50   12.20
  -4   1   5   49.30   11.20
  -4   1   5   70.39   18.40
   3  -1  -5  252.87   11.40
   3  -1  -5  232.18   23.20
   3  -1  -5  229.88   20.30
   3  -1  -5  260.77   19.40
   3  -1  -5  235.08   22.70
   3  -1  -5  255.27   20.10
  -3   1   5  253.47   19.60
  -3   1   5  253.67   32.30
  -3   1   5  238.08   21.70
   2  -1  -5   16.30    9.70
   2  -1  -5   16.60    6.80
   2  -1  -5   20.80    8.00
   2  -1  -5   28.40    3.70
   2  -1  -5   21.60    7.30
   2  -1  -5   18.50    7.80
   2  -1  -5   32.20    9.70
  -2   1   5   20.20   10.40
  -2   1   5   19.80    7.90
  -2   1   5   14.30    8.00
   1  -1  -5  434.96   24.10
   1  -1  -5  416.36   20.30
   1  -1  -5  421.76   19.90
   1  -1  -5  449.95   17.10
   1  -1  -5  424.56   23.30
   1  -1  -5  436.76   21.00
   1  -1  -5  402.96   22.00
  -1   1   5  423.76   25.10
  -1   1   5  416.46   23.10
  -1   1   5  407.86   22.90
   0  -1  -5   92.49    6.60
   0  -1  -5   97.39   10.00
   0  -1  -5   97.89   12.00
   0  -1  -5   86.79   13.60
   0  -1  -5   81.19   10.90
   0  -1  -5   91.49   12.60
   0   1   5  103.59   12.80
   0   1   5   95.89   10.70
   0   1   5   81.39   12.80
   0   1   5  102.09   15.50
  -1  -1  -5   56.39    6.90
  -1  -1  -5   65.59    9.80
  -1  -1  -5   59.89   12.30
  -1  -1  -5   45.40    5.80
  -1  -1  -5   46.90    8.10
  -1  -1  -5   51.59    9.20
   1   1   5   56.89   11.90
   1   1   5   44.50    6.00
   1   1   5   72.39   11.10
   1   1   5   52.89   11.00
   1   1   5   48.10   10.30
  -2  -1  -5   44.00    6.00
  -2  -1  -5   34.40    7.90
  -2  -1  -5   38.00    6.80
  -2  -1  -5   29.40    6.40
  -2  -1  -5   47.10    9.50
   2   1   5   51.49    8.70
   2   1   5   34.10    8.60
   2   1   5   36.70    7.40
   2   1   5   55.59    7.50
  -3  -1  -5   74.19    8.60
  -3  -1  -5   67.19    8.30
  -3  -1  -5   57.29   10.10
  -3  -1  -5   65.09    6.90
  -3  -1  -5   76.29   10.30
   3   1   5   82.89   10.10
   3   1   5   58.79    9.60
   3   1   5   73.99   10.60
   3   1   5   56.69   12.20
   3   1   5   52.29   11.80
  -4  -1  -5  125.39   11.50
  -4  -1  -5  125.39   12.10
  -4  -1  -5  120.89    8.80
  -4  -1  -5  107.49   15.90
  -4  -1  -5  134.29   11.60
   4   1   5  127.39   12.40
   4   1   5  134.39   12.80
   4   1   5  119.69   14.50
   4   1   5  108.09   14.80
   4   1   5  141.79   11.10
  -5  -1  -5   17.10    4.80
  -5  -1  -5   16.60    9.30
  -5  -1  -5   12.10    7.10
  -5  -1  -5   23.00   12.00
   5   1   5   11.10    8.20
   5   1   5   12.90    5.30
   5   1   5   10.70    7.00
   5   1   5   25.20   10.80
   5   1   5   20.30    8.70
  -6  -1  -5   71.79   14.90
  -6  -1  -5   78.49   18.60
  -6  -1  -5   41.50    6.80
   6   1   5   39.00   11.20
   6   1   5   49.20   12.80
  -7  -1  -5  223.58   12.70
  -7  -1  -5  228.18   26.80
  -7  -1  -5  217.58   24.60
   7   1   5  203.08   21.10
  -8  -1  -5   12.40   17.20
  -8  -1  -5   15.20   17.80
  -8  -1  -5   17.10    6.10
   8   1   5   19.10   12.30
   8   1   5   12.70   16.60
  -9  -1  -5   26.30   27.00
   9   1   5   -5.90   20.00
  -6   2   5  117.79   25.40
   5  -2  -5   23.30   15.30
   5  -2  -5   21.90   14.80
  -5   2   5   46.70   13.90
  -5   2   5   86.59   20.40
   4  -2  -5   62.39   13.30
   4  -2  -5   67.29   17.60
  -4   2   5   96.09   18.00
  -4   2   5   93.89   16.70
   3  -2  -5  123.09    7.60
   3  -2  -5  127.69   19.70
   3  -2  -5  143.99   18.80
   3  -2  -5  114.49   19.00
   3  -2  -5  155.38   21.70
  -3   2   5  107.19   16.40
  -3   2   5  150.38   17.20
   2  -2  -5   77.89   13.30
   2  -2  -5   91.19   16.10
   2  -2  -5   74.29   13.10
   2  -2  -5   79.99   15.40
   2  -2  -5   94.39    6.60
   2  -2  -5   78.29   16.20
   2  -2  -5   95.09   17.40
  -2   2   5   68.19   10.30
  -2   2   5   79.49   11.10
  -2   2   5   65.49   14.50
  -2   2   5   93.39    9.50
   1  -2  -5   68.69   13.80
   1  -2  -5   74.99    6.20
   1  -2  -5   81.89   13.00
   1  -2  -5   72.29   14.90
   1  -2  -5   71.19   13.70
  -1   2   5   77.89   14.20
  -1   2   5   63.59    9.20
  -1   2   5   70.89    9.80
  -1   2   5   72.59   14.50
  -1   2   5   63.79   12.90
   0  -2  -5  535.45   24.40
   0  -2  -5  542.65   25.90
   0  -2  -5  552.14   20.70
   0  -2  -5  535.75   25.80
   0  -2  -5  530.55   26.20
   0  -2  -5  523.45   23.80
   0   2   5  540.85   24.00
   0   2   5  540.85   25.90
   0   2   5  532.35   26.00
   0   2   5  543.05   25.40
   0   2   5  534.55   23.80
  -1  -2  -5  330.87   18.30
  -1  -2  -5  311.67   17.60
  -1  -2  -5  322.07   17.80
  -1  -2  -5  326.37   17.60
  -1  -2  -5  318.47   13.60
  -1  -2  -5  350.56   17.00
   1   2   5  324.37   17.80
   1   2   5  356.26   19.30
   1   2   5  305.77   18.60
   1   2   5  336.27   18.10
   1   2   5  348.67   17.70
  -2  -2  -5   85.89    9.40
  -2  -2  -5   77.69    5.90
  -2  -2  -5   57.99   10.70
  -2  -2  -5   80.99    9.70
  -2  -2  -5   66.69   10.90
   2   2   5   58.19   10.60
   2   2   5   59.89   10.20
   2   2   5   61.99   11.10
   2   2   5   69.49   11.30
  -3  -2  -5    0.90    3.30
  -3  -2  -5    2.50    5.20
  -3  -2  -5   -2.60    4.20
  -3  -2  -5   -7.90    7.20
  -3  -2  -5    3.90    4.40
   3   2   5    5.70    4.70
   3   2   5    7.40    5.20
   3   2   5    4.40    4.20
   3   2   5   -4.00    5.50
   3   2   5   -4.20    7.50
  -4  -2  -5   63.89    9.60
  -4  -2  -5   56.89   12.70
  -4  -2  -5   91.59   13.10
  -4  -2  -5   65.79    7.20
  -4  -2  -5   65.09    7.00
  -4  -2  -5   53.39   10.70
   4   2   5   63.39   12.00
   4   2   5   57.59   12.70
   4   2   5   74.19   11.20
   4   2   5   86.99   12.30
   4   2   5   70.39    7.00
  -5  -2  -5    3.50    5.00
  -5  -2  -5   -3.10    4.00
  -5  -2  -5    2.50    8.20
  -5  -2  -5    4.70    6.90
  -5  -2  -5   -3.90   10.40
   5   2   5    6.30    7.70
   5   2   5    3.60    7.20
   5   2   5   -0.80    6.10
   5   2   5    7.80    9.40
  -6  -2  -5   92.39   18.50
  -6  -2  -5   76.59   14.90
  -6  -2  -5   50.29    8.50
  -6  -2  -5   62.29   16.30
   6   2   5   36.20   11.40
   6   2   5   65.39   12.10
   6   2   5   54.79   12.60
  -7  -2  -5   -2.70    4.90
  -7  -2  -5   13.90   11.80
  -7  -2  -5    5.00   13.70
   7   2   5    0.80    8.20
  -8  -2  -5   21.40   15.40
  -8  -2  -5   11.20    5.50
   8   2   5    4.40   11.80
   8   2   5    1.50   14.20
  -9  -2  -5   42.90   19.90
   9   2   5   -4.50   18.70
   9   2   5    8.20   14.60
   6  -3  -5   69.19   22.00
   6  -3  -5  100.39   23.20
   5  -3  -5   18.70   16.40
   5  -3  -5   30.90   16.90
  -5   3   5   43.30   12.60
   4  -3  -5   85.49   16.50
  -4   3   5   87.79   18.70
  -4   3   5  108.59   19.40
   3  -3  -5   14.10   10.30
   3  -3  -5   36.30    5.80
   3  -3  -5   35.60   11.20
   3  -3  -5   23.20   12.20
  -3   3   5   31.00    8.50
   2  -3  -5   36.60    9.80
   2  -3  -5   41.60    6.10
   2  -3  -5   41.60    9.70
   2  -3  -5   41.70   10.80
   2  -3  -5   47.50    9.90
   2  -3  -5   36.90   10.20
  -2   3   5   29.60   11.20
  -2   3   5   40.60    9.20
  -2   3   5   42.30    8.40
  -2   3   5   24.80    8.70
  -2   3   5   29.90    8.10
   1  -3  -5   24.20    3.90
   1  -3  -5   22.60    7.60
   1  -3  -5   13.40    8.00
   1  -3  -5   30.70    9.40
   1  -3  -5   26.50    8.50
  -1   3   5   17.80    8.30
  -1   3   5   25.00    7.50
  -1   3   5   21.90    9.50
  -1   3   5   25.90    7.70
  -1   3   5   13.70    9.00
   0  -3  -5  106.69   14.50
   0  -3  -5  108.59   13.90
   0  -3  -5  113.29    7.10
   0  -3  -5   91.39   10.90
   0  -3  -5   85.49   13.00
   0  -3  -5  109.69   14.90
   0   3   5   97.79   13.20
   0   3   5   99.19   12.10
   0   3   5  106.69   11.20
   0   3   5  110.19   13.30
  -1  -3  -5   52.79   10.40
  -1  -3  -5   51.29   10.20
  -1  -3  -5   59.79   12.10
  -1  -3  -5   64.39   11.30
  -1  -3  -5   61.49    5.60
   1   3   5   52.89   11.90
   1   3   5   83.39   13.40
   1   3   5   70.99   10.70
   1   3   5   54.49   10.50
   1   3   5   68.89   10.50
  -2  -3  -5  759.42   30.50
  -2  -3  -5  777.02   31.80
  -2  -3  -5  742.13   31.50
  -2  -3  -5  757.22   28.00
  -2  -3  -5  711.03   31.80
   2   3   5  783.52   31.80
   2   3   5  753.62   30.60
   2   3   5  688.53   31.70
   2   3   5  708.83   31.30
   2   3   5  761.32   32.30
   2   3   5  734.13   32.60
  -3  -3  -5  144.89    8.10
  -3  -3  -5  137.59   13.30
  -3  -3  -5  127.39   13.80
  -3  -3  -5  150.98   11.70
  -3  -3  -5  127.59   11.50
   3   3   5  145.09   12.10
   3   3   5  173.98   14.40
   3   3   5  121.99   13.70
   3   3   5  153.38    9.70
   3   3   5  149.39   13.10
  -4  -3  -5   94.09   12.80
  -4  -3  -5   99.69   12.80
  -4  -3  -5   96.39   10.40
  -4  -3  -5   94.39    7.80
  -4  -3  -5   85.39   13.90
   4   3   5   93.09   14.00
   4   3   5   94.29   12.80
   4   3   5  119.09   12.80
  -5  -3  -5   74.09   15.10
  -5  -3  -5   84.29   13.60
  -5  -3  -5   79.79    8.00
  -5  -3  -5   78.79   11.20
  -5  -3  -5   77.39   15.80
   5   3   5  100.79   13.50
   5   3   5   98.89   14.30
   5   3   5   73.69   15.10
  -6  -3  -5   76.59   14.60
  -6  -3  -5   43.20    6.80
  -6  -3  -5   59.99   12.00
   6   3   5   58.39   12.90
   6   3   5   65.49   12.40
  -7  -3  -5   45.60   14.00
  -7  -3  -5   57.29   15.60
  -7  -3  -5   41.90    6.20
   7   3   5   44.60   10.60
  -8  -3  -5   34.40   16.20
  -8  -3  -5   22.20    5.80
  -8  -3  -5   36.40   15.70
   8   3   5   10.70   11.50
   8   3   5   -0.60   14.50
  -9  -3  -5   33.50   18.70
  -9  -3  -5   24.20   19.20
   9   3   5  -15.40   18.30
   9   3   5    5.60   14.70
   5  -4  -5   30.80   19.80
   5  -4  -5    6.60   17.10
   4  -4  -5    6.80   14.20
   4  -4  -5   15.50   13.60
  -4   4   5   18.60   10.40
   3  -4  -5   17.10   12.20
   3  -4  -5   25.60    4.40
  -3   4   5   26.80   10.10
  -3   4   5   43.40   11.10
   2  -4  -5  109.39   12.00
   2  -4  -5  110.39    8.00
  -2   4   5  122.79   16.80
  -2   4   5   90.09   10.60
  -2   4   5  112.89   13.90
  -2   4   5   88.79   20.70
   1  -4  -5   59.59   10.90
   1  -4  -5   63.19    9.60
   1  -4  -5   64.29   12.10
   1  -4  -5   65.39    8.20
   1  -4  -5   82.69   16.70
   1  -4  -5   55.09   11.20
  -1   4   5   47.00    9.20
  -1   4   5   65.69   12.30
  -1   4   5   67.39   12.00
  -1   4   5   40.40    8.50
  -1   4   5   52.89   16.50
   0  -4  -5  189.08    9.80
   0  -4  -5  168.08   18.70
   0  -4  -5  164.88   17.70
   0  -4  -5  169.68   14.10
   0  -4  -5  186.18   16.80
   0   4   5  166.68   18.10
   0   4   5  169.38   16.40
   0   4   5  169.08   14.80
   0   4   5  184.88   11.50
   0   4   5  181.98   14.60
  -1  -4  -5  373.26   20.20
  -1  -4  -5  374.36   22.90
  -1  -4  -5  368.56   15.50
  -1  -4  -5  335.47   20.50
  -1  -4  -5  352.56   19.70
   1   4   5  366.06   21.10
   1   4   5  330.17   16.70
   1   4   5  366.76   22.50
   1   4   5  348.37   18.80
   1   4   5  385.06   20.30
   1   4   5  369.96   19.00
  -2  -4  -5    0.70    3.60
  -2  -4  -5    4.30    7.20
  -2  -4  -5   -3.50    5.20
  -2  -4  -5    2.80    8.00
  -2  -4  -5    0.20    5.50
   2   4   5   -3.20    4.90
   2   4   5    3.70    4.60
   2   4   5   18.70    7.50
   2   4   5   -0.90    6.90
   2   4   5   -0.60    7.90
   2   4   5    4.90    8.10
  -3  -4  -5    5.90    3.80
  -3  -4  -5   15.90    7.60
  -3  -4  -5   10.10    8.60
  -3  -4  -5   10.60    4.90
  -3  -4  -5    7.90    5.10
  -3  -4  -5   13.70    5.50
   3   4   5   10.00    5.70
   3   4   5   11.40    8.60
   3   4   5    9.60    4.50
   3   4   5   18.30    7.00
   3   4   5   19.50    8.20
  -4  -4  -5   10.80    6.90
  -4  -4  -5   20.40   10.10
  -4  -4  -5   19.50    4.70
  -4  -4  -5   11.40    4.90
  -4  -4  -5   13.00    7.60
  -4  -4  -5   14.30    4.90
   4   4   5   16.10    9.20
   4   4   5   17.00    6.90
   4   4   5   17.50    7.50
   4   4   5   30.70    9.10
  -5  -4  -5   56.89   10.90
  -5  -4  -5   71.89   16.00
  -5  -4  -5   55.19   10.80
  -5  -4  -5   86.59   16.00
   5   4   5   92.79   17.50
   5   4   5   77.79   14.30
   5   4   5   79.09   13.60
   5   4   5   68.39   12.80
  -6  -4  -5   -3.20    4.20
  -6  -4  -5   13.40    9.70
  -6  -4  -5   -5.10   11.30
   6   4   5    4.10   10.50
  -7  -4  -5    2.90   11.20
  -7  -4  -5    1.00    4.80
   7   4   5   -4.60   11.90
   7   4   5   -0.50    8.90
  -8  -4  -5   19.50    6.00
  -8  -4  -5   18.20   14.30
   8   4   5    2.70   15.50
   8   4   5   10.80   11.00
  -9  -4  -5   27.00   18.10
  -9  -4  -5   39.80   21.10
   9   4   5  -16.90   18.80
   9   4   5    5.10   13.40
   5  -5  -5   62.29   22.20
   5  -5  -5   44.70   19.90
   4  -5  -5   28.70   17.30
   4  -5  -5   26.50   15.50
  -4   5   5   45.70   12.80
   3  -5  -5  175.68   17.50
   3  -5  -5  174.48   11.00
   3  -5  -5  187.98   26.50
  -3   5   5  197.38   13.70
  -3   5   5  184.78   21.20
   2  -5  -5  147.59   11.60
   2  -5  -5  147.29   11.70
   2  -5  -5  173.78   23.20
   2  -5  -5  171.18   14.70
  -2   5   5  156.08   15.20
  -2   5   5  147.49   31.10
  -2   5   5  158.98   24.20
   1  -5  -5   33.30   10.80
   1  -5  -5   48.40   10.70
  -1   5   5   28.50   12.40
  -1   5   5   41.60   10.10
  -1   5   5   24.50    9.20
   0  -5  -5   -3.00    9.00
   0  -5  -5   -4.30   10.80
   0  -5  -5    2.10    7.40
   0  -5  -5   -7.80    8.50
   0   5   5    0.00    6.70
   0   5   5   -5.10    8.10
   0   5   5    4.90    8.80
   0   5   5    0.30   10.70
  -1  -5  -5  461.25   25.00
  -1  -5  -5  452.75   24.10
  -1  -5  -5  453.85   24.30
  -1  -5  -5  445.66   27.70
   1   5   5  420.26   22.80
   1   5   5  454.95   27.50
   1   5   5  449.76   24.00
   1   5   5  469.45   26.00
  -2  -5  -5  284.77   18.20
  -2  -5  -5  283.97   20.10
  -2  -5  -5  288.97   18.40
  -2  -5  -5  294.47   23.20
   2   5   5  292.27   17.30
   2   5   5  280.07   13.90
   2   5   5  284.87   19.60
   2   5   5  313.17   23.10
   2   5   5  317.67   22.10
  -3  -5  -5   18.90    4.80
  -3  -5  -5   20.40    6.10
  -3  -5  -5   22.10    6.10
  -3  -5  -5   22.30   10.80
  -3  -5  -5   22.10    6.50
  -3  -5  -5    5.70    9.10
   3   5   5   35.00   10.30
   3   5   5   19.40    9.20
   3   5   5   19.90    6.10
  -4  -5  -5   46.70    5.60
  -4  -5  -5   39.50    6.00
  -4  -5  -5   47.50    8.80
  -4  -5  -5   42.30    7.40
  -4  -5  -5   42.00   12.10
  -4  -5  -5   32.80    6.30
  -4  -5  -5   40.80   10.20
   4   5   5   56.19   11.80
   4   5   5   46.90   11.60
   4   5   5   55.99   13.60
   4   5   5   30.30    9.90
  -5  -5  -5   24.00    5.00
  -5  -5  -5   25.50    9.10
  -5  -5  -5   20.20    6.10
  -5  -5  -5   38.30   12.80
   5   5   5   34.90    8.50
   5   5   5   13.90   10.50
   5   5   5   29.80   11.10
  -6  -5  -5   34.90   11.40
  -6  -5  -5   15.60    5.20
  -6  -5  -5   26.20   12.00
   6   5   5   29.60   11.00
  -7  -5  -5   73.19    9.90
  -7  -5  -5   72.99   15.30
  -7  -5  -5   68.09   24.60
   7   5   5   46.70   11.00
   7   5   5   50.09   15.20
  -8  -5  -5   29.80   15.00
  -8  -5  -5    6.50    6.60
  -8  -5  -5    7.50   16.70
   8   5   5  -23.60   15.90
   8   5   5    0.60   10.10
  -9  -5  -5   41.10   17.80
  -9  -5  -5   30.50   23.20
   4  -6  -5   32.80   19.20
   4  -6  -5   29.00   18.90
   3  -6  -5   96.09   14.80
   3  -6  -5   68.69    9.50
  -3   6   5   89.39   20.00
  -3   6   5  123.09   28.90
   2  -6  -5  131.19   17.00
   2  -6  -5  113.59   10.30
  -2   6   5  118.79   28.40
  -2   6   5  130.59   19.00
  -2   6   5  143.99   16.50
   1  -6  -5   29.20   11.50
   1  -6  -5   57.89   12.40
   1  -6  -5   42.40    5.90
  -1   6   5   25.50   10.50
  -1   6   5   35.20   10.00
  -1   6   5   46.70   17.60
   0  -6  -5   22.60    9.90
   0  -6  -5   23.10   11.20
   0  -6  -5    7.00    4.60
   0  -6  -5   -7.10    9.40
   0   6   5    8.90   12.50
   0   6   5   13.40    8.90
   0   6   5   15.60   10.20
  -1  -6  -5  329.57   15.40
  -1  -6  -5  342.17   22.80
  -1  -6  -5  348.27   22.80
  -1  -6  -5  296.07   22.10
   1   6   5  329.97   20.90
   1   6   5  339.17   23.90
   1   6   5  319.27   21.80
   1   6   5  349.87   26.80
  -2  -6  -5  364.06   22.50
  -2  -6  -5  380.96   16.70
  -2  -6  -5  366.56   23.90
  -2  -6  -5  329.77   27.30
  -2  -6  -5  338.97   21.70
   2   6   5  349.67   23.20
   2   6   5  381.36   24.20
   2   6   5  380.46   16.40
   2   6   5  386.46   16.40
   2   6   5  403.16   28.10
  -3  -6  -5   -4.60    5.20
  -3  -6  -5    2.40    4.40
  -3  -6  -5    2.50   11.20
  -3  -6  -5  -12.90   10.90
  -3  -6  -5   -1.00    5.80
  -3  -6  -5    3.80    7.80
  -3  -6  -5   -5.40    6.50
   3   6   5   19.50    9.20
   3   6   5    3.10    7.20
   3   6   5   -7.80   10.20
   3   6   5   17.50   11.10
  -4  -6  -5   -4.60    4.20
  -4  -6  -5   -1.00    7.30
  -4  -6  -5   -1.20   11.20
  -4  -6  -5   -5.30    6.60
  -4  -6  -5   -0.20    5.00
  -4  -6  -5   -1.30    5.70
   4   6   5    9.30    8.10
   4   6   5    6.20    7.10
   4   6   5    7.80   10.80
  -5  -6  -5    7.20    5.00
  -5  -6  -5   19.80   12.50
  -5  -6  -5    4.10    5.40
  -5  -6  -5   11.40    5.90
  -5  -6  -5   11.40   10.20
  -5  -6  -5    1.70    6.30
   5   6   5   16.10    8.30
   5   6   5   12.00    7.80
   5   6   5   29.60   12.30
  -6  -6  -5   19.60   20.10
   6   6   5    0.90   12.50
   6   6   5    4.80    8.00
  -7  -6  -5   16.00   12.70
  -7  -6  -5   -1.60    5.40
  -7  -6  -5    8.90   14.80
   7   6   5   -3.00   13.50
   7   6   5   -2.00    9.70
  -8  -6  -5   22.70   18.20
  -8  -6  -5   30.40   15.30
  -8  -6  -5   10.20    6.40
  -9  -6  -5   46.40   22.30
   3  -7  -5   79.29   11.70
  -3   7   5  103.09   28.10
   2  -7  -5   13.90    5.70
   2  -7  -5    8.10   12.40
   2  -7  -5   -8.00   13.00
  -2   7   5   15.50   10.30
  -2   7   5   37.80   17.20
   1  -7  -5   25.90    5.90
   1  -7  -5   33.40   13.00
   1  -7  -5   19.40   11.30
  -1   7   5   33.90   15.80
  -1   7   5   47.10   10.90
   0  -7  -5    6.00   10.20
   0  -7  -5   12.10   12.80
   0  -7  -5    1.80    5.40
   0   7   5   24.40    9.10
   0   7   5    7.50   14.40
  -1  -7  -5   21.60   12.90
  -1  -7  -5   11.70    5.40
  -1  -7  -5   19.50    9.50
   1   7   5   15.70   13.70
   1   7   5    4.40    8.60
  -2  -7  -5   35.20    8.80
  -2  -7  -5   55.69    8.20
  -2  -7  -5   55.59   10.60
  -2  -7  -5   38.90   10.70
   2   7   5   41.70   10.30
  -3  -7  -5    7.30    6.50
  -3  -7  -5   13.20    5.50
  -3  -7  -5   22.50   13.10
  -3  -7  -5    4.90    9.00
  -3  -7  -5    6.70    8.40
  -3  -7  -5    4.20    4.70
   3   7   5   15.20   10.00
   3   7   5    8.50    9.30
  -4  -7  -5   25.70    9.40
  -4  -7  -5   37.90    8.70
  -4  -7  -5   52.89    8.80
  -4  -7  -5   42.00    7.50
  -4  -7  -5   28.30    6.10
  -4  -7  -5   31.20   21.00
   4   7   5   36.40   13.60
   4   7   5   40.60    9.50
   4   7   5   37.50   10.10
  -5  -7  -5   10.60    8.50
  -5  -7  -5   16.90    5.10
  -5  -7  -5   24.30    7.20
  -5  -7  -5   33.10   14.70
  -5  -7  -5   25.80    9.70
  -5  -7  -5   24.00    6.50
   5   7   5   24.70   13.80
   5   7   5   12.10    9.00
   5   7   5   23.00   10.10
  -6  -7  -5   33.20    6.50
  -6  -7  -5   49.50   16.30
  -6  -7  -5   34.90    6.40
   6   7   5   15.30   15.10
   6   7   5   30.50   10.30
  -7  -7  -5   -6.90    5.60
  -7  -7  -5   17.20   12.40
  -7  -7  -5   10.90   15.40
   7   7   5   -5.00    9.90
   7   7   5  -21.90   15.80
  -8  -7  -5   12.30   17.90
  -8  -7  -5    4.30    6.90
   8   7   5   -9.40   11.60
   8   7   5  -20.70   18.50
   2  -8  -5   77.29   18.50
   2  -8  -5   82.59   11.20
  -2   8   5   89.39   23.00
   1  -8  -5   30.20   16.30
   1  -8  -5   26.90   13.60
   1  -8  -5   36.50    7.10
  -1   8   5   40.40   11.30
  -1   8   5   53.49   19.40
   0  -8  -5  179.48   25.60
   0  -8  -5  155.28   13.00
   0  -8  -5  151.38   23.20
   0   8   5  189.48   22.30
   0   8   5  158.88   29.30
  -1  -8  -5   13.40    6.40
  -1  -8  -5   13.90   15.50
  -1  -8  -5   -1.00   11.50
   1   8   5   18.10    9.30
   1   8   5   10.10   15.30
  -2  -8  -5   75.29   16.70
  -2  -8  -5   67.79    9.30
   2   8   5   54.89   10.80
   2   8   5   41.90   16.40
  -3  -8  -5   37.60    8.50
  -3  -8  -5   59.89   16.70
  -3  -8  -5   46.70    7.10
   3   8   5   48.90   11.20
   3   8   5   53.69   17.30
  -4  -8  -5  126.19   20.50
  -4  -8  -5  102.99   21.00
  -4  -8  -5  107.49   13.90
  -4  -8  -5  132.29   14.30
  -4  -8  -5   96.09   11.20
  -4  -8  -5  103.09   18.20
   4   8   5   91.69   18.50
   4   8   5   73.39   12.70
  -5  -8  -5   64.39   17.40
  -5  -8  -5   50.99   11.50
   5   8   5   46.20   12.20
   5   8   5   34.70   12.70
   5   8   5   54.79   16.80
  -6  -8  -5   21.90   11.70
  -6  -8  -5   24.50   16.20
  -6  -8  -5    5.00    8.20
  -6  -8  -5   -6.10    5.80
   6   8   5  -15.50   11.10
   6   8   5  -13.80   15.20
  -7  -8  -5    2.20   18.70
  -7  -8  -5   27.40   14.00
  -7  -8  -5   -5.30    6.00
  -8  -8  -5    6.30    7.10
  -8  -8  -5   21.90   22.00
   1  -9  -5   41.00   18.70
   1  -9  -5   39.10    8.30
   1  -9  -5   33.60   20.10
  -1   9   5   59.09   22.50
   0  -9  -5   21.80    7.50
   0  -9  -5   23.20   15.70
   0  -9  -5   25.90   22.20
   0   9   5   37.10   19.60
   0   9   5   30.90   11.00
  -1  -9  -5   13.90   17.70
  -1  -9  -5   17.40   14.80
  -1  -9  -5    4.00    6.00
   1   9   5    4.80   17.40
  -2  -9  -5    8.70    6.70
  -2  -9  -5    5.60   17.40
  -2  -9  -5    3.50   12.50
   2   9   5   11.20   16.10
   2   9   5   22.80    9.70
  -3  -9  -5   28.00   12.90
  -3  -9  -5   33.50   18.20
  -3  -9  -5   18.90    6.40
   3   9   5   37.40   16.90
   3   9   5   16.10   10.10
  -4  -9  -5   43.30   18.50
  -4  -9  -5   29.20    7.30
   4   9   5   -1.40   16.80
  -5  -9  -5   60.09   19.60
  -5  -9  -5   96.29   11.00
   5   9   5   44.80   20.50
  -6  -9  -5    7.00   19.50
   0 -10  -5    6.10   11.10
   0  10   5   35.20   24.10
  -1 -10  -5    8.60    7.20
  -1 -10  -5   26.00   19.00
  -1 -10  -5   19.30   22.70
   1  10   5   41.30   24.00
  -2 -10  -5    7.20    7.70
  -2 -10  -5   32.60   22.90
  -2 -10  -5   29.50   16.90
   2  10   5   30.70   17.00
   2  10   5   30.90   21.40
  -3 -10  -5   15.00    8.10
  -3 -10  -5   24.50   22.60
  -3 -10  -5    4.10   15.20
   3  10   5   29.20   10.80
   3  10   5    7.90   21.10
  -4 -10  -5   -6.10   21.00
  -4 -10  -5  -10.70   15.00
  -4 -10  -5    5.00    7.30
   4  10   5    3.60   12.00
   4  10   5   -3.40   21.30
  -5 -10  -5    1.70   20.90
  -5 -10  -5   17.00    7.80
  -5 -10  -5   12.30   16.70
   5  10   5  -26.70   21.30
  -6 -10  -5    8.40   23.60
  -6 -10  -5    7.20    7.60
   6  10   5  -31.80   21.40
  -1  -7   6  124.99   33.40
  -1  -7   6  109.99   30.80
   0   7  -6  166.28   25.90
   0  -7   6  111.39   30.00
   3   6  -6   50.59    9.40
   3   6  -6   45.10   20.30
  -3  -6   6   84.09   27.40
  -3  -6   6   19.10   25.60
   2   6  -6  272.27   17.50
   2   6  -6  240.38   36.80
  -2  -6   6  197.78   31.20
  -2  -6   6  239.48   35.30
   1   6  -6  363.26   20.70
   1   6  -6  332.57   38.00
  -1  -6   6  393.96   37.60
  -1  -6   6  297.57   45.10
   0   6  -6  160.08   35.30
   0   6  -6  128.79   13.40
   0  -6   6  101.59   29.40
   0  -6   6  144.49   31.30
  -1   6  -6  140.39   23.20
  -1   6  -6  181.18   16.20
   1  -6   6  142.29   28.10
   1  -6   6  155.08   33.50
  -2   6  -6   46.00   10.10
  -2   6  -6   70.29   21.80
   2  -6   6   60.79   26.10
  -3   6  -6  149.69   20.60
   3  -6   6  119.49   29.10
   3  -6   6  201.48   36.20
   4   5  -6  115.39   13.80
  -4  -5   6  136.19   28.60
  -4  -5   6  112.49   25.40
   3   5  -6   50.09   16.80
   3   5  -6   52.79   18.80
  -3  -5   6   21.50   22.40
  -3  -5   6   86.79   22.70
   2   5  -6  225.38   15.20
   2   5  -6  195.58   22.60
   2   5  -6  201.48   32.30
  -2  -5   6  226.38   42.20
  -2  -5   6  234.88   29.50
   1   5  -6  157.28   15.40
   1   5  -6  159.78   13.70
   1   5  -6  131.59   29.00
  -1  -5   6  183.58   28.00
  -1  -5   6  128.89   25.00
   0   5  -6  288.37   16.60
   0   5  -6  258.07   16.90
   0   5  -6  258.37   30.70
   0  -5   6  256.87   30.10
   0  -5   6  187.98   37.20
  -1   5  -6  396.46   35.50
  -1   5  -6  432.46   22.00
   1  -5   6  450.95   34.40
   1  -5   6  383.26   39.70
  -2   5  -6   62.89   16.40
   2  -5   6   61.09   26.40
  -3   5  -6  308.97   37.00
  -3   5  -6  307.17   18.50
   3  -5   6  280.17   37.50
   3  -5   6  355.76   34.40
  -4   5  -6  324.07   20.70
   4  -5   6  383.66   36.40
   4  -5   6  312.47   40.50
  -5   5  -6  221.28   20.30
   5  -5   6  229.38   34.80
   5  -5   6  225.68   34.00
   5   4  -6  124.59   21.10
   5   4  -6  172.08   34.90
  -5  -4   6  209.08   42.60
   4   4  -6  212.68   14.20
   4   4  -6  158.58   25.90
   4   4  -6  241.88   33.20
  -4  -4   6  190.58   32.60
  -4  -4   6  199.28   34.80
   3   4  -6  498.95   23.00
   3   4  -6  541.45   37.70
   3   4  -6  444.26   29.70
  -3  -4   6  553.94   24.40
  -3  -4   6  495.65   42.00
   2   4  -6  576.74   25.10
   2   4  -6  531.25   28.30
   2   4  -6  586.94   37.90
  -2  -4   6  590.64   24.30
  -2  -4   6  594.54   37.10
  -2  -4   6  561.94   42.50
   1   4  -6  117.29   13.90
   1   4  -6  126.39   11.80
   1   4  -6  114.29   24.70
   1   4  -6  129.59    7.90
  -1  -4   6  116.09   23.40
  -1  -4   6  116.39   22.70
   0   4  -6  632.64   38.20
   0   4  -6  607.44   30.10
   0   4  -6  666.03   27.60
   0  -4   6  642.94   26.20
   0  -4   6  684.43   37.80
   0  -4   6  677.93   43.60
  -1   4  -6 1011.80   39.10
  -1   4  -6  960.50   48.20
   1  -4   6  956.20   38.20
   1  -4   6 1060.39   52.79
   1  -4   6  925.31   38.00
   1  -4   6  931.41   37.10
   1  -4   6  988.60   48.00
  -2   4  -6  270.67   16.60
  -2   4  -6  219.98   28.30
   2  -4   6  278.67   27.40
   2  -4   6  249.38   32.20
   2  -4   6  241.38   17.10
   2  -4   6  294.57   14.40
   2  -4   6  283.47   16.80
  -3   4  -6  289.67   17.90
  -3   4  -6  242.08   30.10
   3  -4   6  300.67   18.70
   3  -4   6  279.97   19.00
   3  -4   6  292.47   29.20
   3  -4   6  354.86   18.20
   3  -4   6  320.17   34.10
  -4   4  -6  164.18   14.60
   4  -4   6  199.18   27.90
   4  -4   6  136.79   16.30
   4  -4   6  158.68   39.50
   4  -4   6  187.08   19.10
  -5   4  -6  301.47   19.30
   5  -4   6  327.27   26.10
   5  -4   6  311.07   39.10
   5  -4   6  307.37   23.20
   5  -4   6  374.26   34.60
  -6   4  -6  298.67   20.50
   6  -4   6  369.66   43.20
   6  -4   6  307.07   30.70
   6  -4   6  366.06   37.20
   6  -4   6  333.57   37.20
   5   3  -6  420.36   39.30
  -5  -3   6  488.85   32.30
  -5  -3   6  455.95   42.10
   4   3  -6  193.18   24.00
   4   3  -6  210.68   13.00
   4   3  -6  197.08   29.40
  -4  -3   6  230.28   23.40
  -4  -3   6  221.18   33.20
   3   3  -6 1032.00   38.30
   3   3  -6  850.71   42.10
   3   3  -6  992.50   49.80
   3   3  -6  998.50   43.60
  -3  -3   6 1034.60   40.40
  -3  -3   6 1016.80   53.49
  -3  -3   6 1037.80   45.60
  -3  -3   6 1001.70   44.80
   2   3  -6  383.16   31.80
   2   3  -6  348.77   21.30
   2   3  -6  348.37   20.40
   2   3  -6  366.06   17.30
  -2  -3   6  335.97   33.60
  -2  -3   6  373.26   18.30
  -2  -3   6  384.06   26.30
   1   3  -6  239.48   27.90
   1   3  -6  270.67   14.70
  -1  -3   6  248.48   38.50
  -1  -3   6  267.87   23.60
  -1  -3   6  288.57   15.10
   0   3  -6  432.96   20.20
   0   3  -6  416.46   30.00
   0  -3   6  463.75   35.30
   0  -3   6  427.76   20.90
   0  -3   6  475.75   28.70
  -1   3  -6 1014.20   39.90
  -1   3  -6 1040.20   47.50
  -1   3  -6 1026.50   40.30
   1  -3   6  987.80   40.80
   1  -3   6 1043.30   47.70
   1  -3   6 1061.49   51.69
  -2   3  -6 1212.88   51.29
  -2   3  -6 1148.39   44.20
   2  -3   6 1189.88   45.40
   2  -3   6 1027.50   42.00
   2  -3   6 1206.58   55.39
   2  -3   6 1114.19   42.10
  -3   3  -6  207.18   24.40
  -3   3  -6  163.18   12.20
   3  -3   6  136.99   29.80
   3  -3   6  216.28   13.50
   3  -3   6  176.28   15.70
   3  -3   6  193.68   13.40
   3  -3   6  135.69   22.10
  -4   3  -6  183.08   13.00
  -4   3  -6  190.48   33.50
   4  -3   6  205.98   16.80
   4  -3   6  200.58   16.90
   4  -3   6  176.08   17.60
   4  -3   6  196.08   28.30
  -5   3  -6  438.06   22.10
   5  -3   6  423.66   31.60
   5  -3   6  494.45   38.10
   5  -3   6  463.55   27.80
  -6   3  -6  215.88   16.40
   6  -3   6  276.77   29.70
   6  -3   6  286.37   33.70
   6  -3   6  243.68   28.40
   6  -3   6  264.67   26.70
   6  -3   6  238.18   23.40
   6   2  -6  290.57   36.40
  -6  -2   6  429.86   50.59
  -6  -2   6  395.56   33.80
   5   2  -6  374.76   35.40
   5   2  -6  384.46   31.90
  -5  -2   6  392.36   37.70
  -5  -2   6  444.26   27.10
   4   2  -6  303.77   30.70
   4   2  -6  325.17   25.20
  -4  -2   6  393.56   22.80
  -4  -2   6  308.47   22.10
  -4  -2   6  315.77   32.70
   3   2  -6  636.14   37.40
   3   2  -6  648.14   31.30
   3   2  -6  600.14   25.90
  -3  -2   6  647.14   31.50
  -3  -2   6  600.34   40.10
  -3  -2   6  637.44   31.90
  -3  -2   6  641.64   31.20
   2   2  -6  653.33   50.69
   2   2  -6  762.82   32.00
   2   2  -6  744.73   29.10
   2   2  -6  704.63   33.20
  -2  -2   6  721.33   34.50
  -2  -2   6  777.52   31.90
  -2  -2   6  761.82   35.40
   1   2  -6 1153.38   44.20
   1   2  -6 1067.99   41.70
   1   2  -6 1134.59   50.29
   1   2  -6 1115.79   43.20
  -1  -2   6 1181.98   54.29
  -1  -2   6 1098.49   43.80
  -1  -2   6 1076.59   47.60
  -1  -2   6 1043.90   47.20
   0   2  -6  515.95   22.70
   0   2  -6  483.35   21.30
   0   2  -6  483.45   29.90
   0  -2   6  467.55   34.30
   0  -2   6  514.75   35.00
   0  -2   6  487.15   28.10
   0  -2   6  509.25   24.20
  -1   2  -6  168.88   12.10
  -1   2  -6  176.28   21.00
  -1   2  -6  195.28   12.60
  -1   2  -6  181.88   22.80
   1  -2   6  182.98   20.90
   1  -2   6  175.08   20.00
   1  -2   6  207.98   25.70
   1  -2   6  203.78   15.80
  -2   2  -6 1581.84   59.79
  -2   2  -6 1655.73   60.59
  -2   2  -6 1585.54   64.89
   2  -2   6 1545.55   64.79
   2  -2   6 1667.43   68.79
   2  -2   6 1684.73   61.59
  -3   2  -6   34.10   10.70
  -3   2  -6   30.40    5.80
   3  -2   6   39.40    7.80
   3  -2   6   28.00   10.10
   3  -2   6   25.90    6.40
  -4   2  -6  314.77   16.00
  -4   2  -6  313.97   24.80
   4  -2   6  317.87   24.20
   4  -2   6  327.87   18.60
   4  -2   6  330.87   18.20
   4  -2   6  316.47   19.10
   4  -2   6  320.37   20.10
   4  -2   6  235.98   46.60
  -5   2  -6  381.16   19.10
   5  -2   6  316.17   27.40
   5  -2   6  390.26   23.90
   5  -2   6  397.16   31.60
   5  -2   6  396.46   23.80
   5  -2   6  390.96   23.70
  -6   2  -6  128.29   12.90
   6  -2   6  158.38   21.90
   6  -2   6  153.68   20.80
   6  -2   6  138.99   18.40
  -7   2  -6  248.78   17.90
   7  -2   6  291.87   30.80
   7  -2   6  280.37   26.00
   6   1  -6  328.07   39.20
   6   1  -6  301.27   38.00
  -6  -1   6  429.46   32.90
  -6  -1   6  463.75   38.90
   5   1  -6  437.86   37.50
   5   1  -6  482.45   35.50
  -5  -1   6  507.45   30.70
  -5  -1   6  488.95   38.40
   4   1  -6  395.96   26.50
   4   1  -6  370.06   32.50
  -4  -1   6  371.76   20.50
  -4  -1   6  384.36   32.00
  -4  -1   6  446.76   27.90
   3   1  -6  261.57   27.40
   3   1  -6  274.47   20.60
   3   1  -6  327.77   21.10
   3   1  -6  275.37   13.50
  -3  -1   6  300.37   18.90
  -3  -1   6  280.47   19.60
  -3  -1   6  254.07   32.90
  -3  -1   6  305.47   19.10
   2   1  -6 1240.28   51.59
   2   1  -6 1128.99   44.80
   2   1  -6 1020.40   46.30
   2   1  -6 1149.78   44.90
   2   1  -6 1143.89   42.00
  -2  -1   6 1123.19   46.30
  -2  -1   6 1108.99   46.00
  -2  -1   6 1118.69   46.20
  -2  -1   6 1152.28   53.79
   1   1  -6 2251.67   80.49
   1   1  -6 2320.37   80.29
   1   1  -6 2285.07   83.49
   1   1  -6 2162.78   87.09
   1   1  -6 2277.87   87.09
  -1  -1   6 2296.37   89.69
  -1  -1   6 2125.69   86.09
  -1  -1   6 2186.18   84.39
  -1  -1   6 2268.87   83.39
   0   1  -6  460.85   26.50
   0   1  -6  454.25   27.90
   0   1  -6  479.25   22.60
   0   1  -6  453.95   27.10
   0  -1   6  433.86   25.20
   0  -1   6  455.05   27.00
   0  -1   6  480.75   23.80
   0  -1   6  494.55   31.90
  -1   1  -6  634.54   33.00
  -1   1  -6  660.83   26.20
  -1   1  -6  679.63   27.90
  -1   1  -6  627.74   32.50
  -1   1  -6  601.44   34.40
   1  -1   6  691.13   29.80
   1  -1   6  663.63   36.30
   1  -1   6  618.04   31.70
   1  -1   6  646.34   31.90
  -2   1  -6 1375.86   51.39
  -2   1  -6 1433.56   52.79
  -2   1  -6 1379.36   57.89
  -2   1  -6 1396.56   57.29
  -2   1  -6 1344.97   55.79
   2  -1   6 1352.76   55.69
   2  -1   6 1418.76   59.09
   2  -1   6 1306.47   56.79
   2  -1   6 1462.85   53.79
  -3   1  -6 1234.18   49.99
  -3   1  -6 1222.28   45.60
  -3   1  -6 1222.58   47.30
  -3   1  -6 1252.77   53.19
   3  -1   6 1099.49   50.99
   3  -1   6 1242.58   53.19
   3  -1   6 1259.77   44.90
   3  -1   6 1123.29   51.39
   3  -1   6 1247.08   49.99
   3  -1   6 1283.97   48.20
   3  -1   6 1125.89   44.70
  -4   1  -6 1177.08   49.99
  -4   1  -6 1217.58   46.00
  -4   1  -6 1245.58   54.49
   4  -1   6 1274.67   53.89
   4  -1   6 1216.78   50.09
   4  -1   6 1241.48   48.90
   4  -1   6 1139.59   47.10
   4  -1   6 1227.88   47.30
  -5   1  -6  509.05   34.30
  -5   1  -6  477.35   22.10
   5  -1   6  476.25   27.10
   5  -1   6  536.45   26.50
   5  -1   6  493.95   26.40
   5  -1   6  488.85   25.80
   5  -1   6  526.05   32.20
  -6   1  -6  182.48   13.00
  -6   1  -6  193.58   27.60
   6  -1   6  195.08   18.50
   6  -1   6  179.28   19.50
   6  -1   6  196.38   19.30
   6  -1   6  170.98   20.60
  -7   1  -6  317.27   17.90
  -7   1  -6  328.27   33.60
   7  -1   6  332.97   26.40
   7  -1   6  310.17   27.20
   7  -1   6  307.87   29.60
  -8   1  -6  129.29   15.20
   8  -1   6  125.89   27.30
   6   0  -6  234.38   36.90
  -6   0   6  321.77   30.50
  -6   0   6  328.27   36.30
   5   0  -6  570.04   41.00
   5   0  -6  613.54   40.20
  -5   0   6  642.64   39.70
  -5   0   6  599.34   33.90
   4   0  -6 1013.80   50.69
   4   0  -6 1018.40   47.10
  -4   0   6  978.20   45.60
  -4   0   6 1051.09   50.29
   3   0  -6  344.57   22.60
   3   0  -6  342.87   23.10
   3   0  -6  341.97   16.10
  -3   0   6  323.17   22.00
  -3   0   6  344.87   18.10
  -3   0   6  363.16   28.60
   2   0  -6 3209.78  112.89
   2   0  -6 3274.77  117.49
   2   0  -6 3179.18  109.39
   2   0  -6 3168.98  112.89
   2   0  -6 2786.72  113.79
   2   0  -6 2890.41  116.29
  -2   0   6 3221.58  118.19
  -2   0   6 3153.18  114.19
  -2   0   6 3013.80  112.09
   1   0  -6 2251.67   82.19
   1   0  -6 2121.69   85.19
   1   0  -6 2267.87   80.59
   1   0  -6 2268.37   85.99
   1   0  -6 2300.47   79.29
   1   0  -6 2251.27   83.19
   1   0  -6 2120.69   85.49
  -1   0   6 2116.09   84.79
  -1   0   6 2217.38   83.29
  -1   0   6 2249.38   87.29
  -1   0   6 2246.48   82.79
   0   0  -6 1733.63   61.39
   0   0  -6 1661.33   67.79
   0   0  -6 1722.03   61.09
   0   0  -6 1787.92   65.69
   0   0  -6 1729.33   66.79
   0   0  -6 1754.52   68.29
   0   0  -6 1778.52   62.29
   0   0   6 1647.24   65.99
   0   0   6 1710.73   65.79
   0   0   6 1751.52   70.49
   0   0   6 1658.83   67.09
  -1   0  -6 2044.30   78.09
  -1   0  -6 2185.98   75.99
  -1   0  -6 2094.19   73.19
  -1   0  -6 2082.39   77.79
  -1   0  -6 1961.70   77.89
   1   0   6 1991.60   79.59
   1   0   6 1995.30   76.19
   1   0   6 1984.70   77.19
   1   0   6 1978.80   77.39
  -2   0  -6  618.44   26.40
  -2   0  -6  593.34   28.80
  -2   0  -6  556.44   30.40
   2   0   6  581.64   28.70
   2   0   6  643.74   27.70
   2   0   6  542.35   29.20
   2   0   6  602.24   31.80
  -3   0  -6 1715.43   69.19
  -3   0  -6 1701.43   62.99
  -3   0  -6 1722.73   65.29
  -3   0  -6 1738.93   65.79
   3   0   6 1796.22   62.69
   3   0   6 1776.72   66.29
   3   0   6 1664.03   68.39
   3   0   6 1640.34   67.89
   3   0   6 1783.02   65.89
   3   0   6 1775.42   68.99
  -4   0  -6  825.82   40.00
  -4   0  -6  832.82   32.10
  -4   0  -6  803.42   34.90
  -4   0  -6  811.42   34.50
   4   0   6  810.32   39.00
   4   0   6  810.92   35.20
   4   0   6  774.62   38.40
   4   0   6  843.62   35.90
   4   0   6  796.22   39.00
   4   0   6  837.92   33.90
  -5   0  -6  325.07   16.30
  -5   0  -6  321.47   27.50
   5   0   6  332.97   20.20
   5   0   6  339.37   27.60
   5   0   6  334.67   20.60
   5   0   6  331.57   21.10
   5   0   6  336.37   21.80
  -6   0  -6  452.95   32.80
  -6   0  -6  403.16   19.40
   6   0   6  422.06   26.90
   6   0   6  383.36   22.80
   6   0   6  425.46   21.40
   6   0   6  450.45   28.40
   6   0   6  434.46   26.20
  -7   0  -6  176.88   28.10
  -7   0  -6  177.48   13.20
   7   0   6  162.98   20.70
   7   0   6  167.88   19.60
  -8   0  -6  178.08   32.00
  -8   0  -6  214.78   15.50
   8   0   6  201.18   30.80
   8   0   6  230.78   27.70
   6  -1  -6  207.68   38.20
  -6   1   6  323.87   35.40
  -6   1   6  272.97   30.60
   5  -1  -6  471.25   42.20
   5  -1  -6  520.45   37.20
  -5   1   6  525.05   34.00
  -5   1   6  556.64   35.90
   4  -1  -6 1015.20   50.49
   4  -1  -6 1056.69   48.00
  -4   1   6  941.61   55.89
  -4   1   6  992.00   45.90
   3  -1  -6  640.44   26.90
   3  -1  -6  677.23   33.40
   3  -1  -6  679.53   33.10
   3  -1  -6  557.94   52.19
  -3   1   6  643.74   34.40
  -3   1   6  669.23   35.70
   2  -1  -6 1344.07   52.19
   2  -1  -6 1220.28   53.59
   2  -1  -6 1333.67   51.59
   2  -1  -6 1360.76   46.70
   2  -1  -6 1124.79   52.29
   2  -1  -6 1384.76   55.89
  -2   1   6 1212.08   49.50
  -2   1   6 1345.07   55.69
  -2   1   6 1217.18   54.19
   1  -1  -6  985.10   35.50
   1  -1  -6  949.80   39.20
   1  -1  -6  976.40   43.20
   1  -1  -6  915.31   41.70
   1  -1  -6  981.40   38.00
   1  -1  -6  978.20   38.90
   1  -1  -6  918.21   40.90
  -1   1   6  937.41   41.30
  -1   1   6  928.61   38.50
  -1   1   6  975.80   44.10
  -1   1   6  880.01   43.30
   0  -1  -6 1194.98   49.00
   0  -1  -6 1192.68   44.20
   0  -1  -6 1199.78   42.80
   0  -1  -6 1152.08   46.90
   0  -1  -6 1151.18   46.90
   0  -1  -6 1140.19   47.90
   0   1   6 1166.38   46.60
   0   1   6 1131.09   47.80
   0   1   6 1144.99   49.90
   0   1   6 1134.39   47.60
  -1  -1  -6 2763.22   97.59
  -1  -1  -6 2778.72  102.39
  -1  -1  -6 2927.81  101.49
  -1  -1  -6 2753.12  102.19
  -1  -1  -6 2899.61  102.59
  -1  -1  -6 2787.62   98.09
   1   1   6 2702.63   97.39
   1   1   6 2774.62  102.09
   1   1   6 2718.23  103.09
   1   1   6 2711.93  101.59
   1   1   6 2623.34  101.49
  -2  -1  -6  997.20   37.30
  -2  -1  -6  978.50   43.30
  -2  -1  -6 1025.50   38.40
  -2  -1  -6 1041.70   42.50
  -2  -1  -6 1054.09   41.20
   2   1   6  975.40   41.70
   2   1   6 1061.89   37.70
   2   1   6 1029.10   43.60
   2   1   6 1055.29   41.80
   2   1   6  999.10   43.10
  -3  -1  -6 2187.38   84.99
  -3  -1  -6 2222.58   81.89
  -3  -1  -6 2265.17   82.69
  -3  -1  -6 2225.38   80.19
  -3  -1  -6 2223.68   81.09
   3   1   6 2182.78   84.29
   3   1   6 2195.28   81.99
   3   1   6 2165.58   84.69
   3   1   6 2281.37   84.79
   3   1   6 2339.87   83.09
  -4  -1  -6  295.87   16.70
  -4  -1  -6  286.87   16.30
  -4  -1  -6  271.67   14.20
  -4  -1  -6  270.57   16.70
  -4  -1  -6  276.87   22.40
   4   1   6  279.27   21.00
   4   1   6  303.17   19.50
   4   1   6  300.97   17.00
   4   1   6  260.97   19.50
   4   1   6  285.47   21.00
   4   1   6  245.88   21.40
  -5  -1  -6  658.23   30.50
  -5  -1  -6  670.43   35.30
  -5  -1  -6  642.64   26.60
   5   1   6  616.44   33.40
   5   1   6  640.54   27.90
   5   1   6  676.93   31.30
   5   1   6  682.43   31.00
  -6  -1  -6  648.54   29.50
  -6  -1  -6  659.03   33.80
  -6  -1  -6  761.42   38.10
   6   1   6  716.33   34.10
   6   1   6  697.33   34.90
   6   1   6  661.93   30.00
  -7  -1  -6   35.90    6.50
  -7  -1  -6   53.09   16.40
  -7  -1  -6   50.69   25.70
   7   1   6   20.70   10.90
   7   1   6   39.40   13.90
  -8  -1  -6  291.97   33.00
  -8  -1  -6  272.07   37.20
  -8  -1  -6  235.78   15.40
   8   1   6  256.07   31.60
   8   1   6  218.48   26.30
   5  -2  -6  301.37   36.80
   5  -2  -6  348.27   34.20
  -5   2   6  452.15   31.90
  -5   2   6  408.56   31.00
   4  -2  -6  500.05   36.80
   4  -2  -6  562.04   34.80
  -4   2   6  576.04   31.90
  -4   2   6  515.85   31.70
   3  -2  -6 1233.18   57.99
   3  -2  -6 1431.26   61.19
   3  -2  -6 1449.65   50.49
   3  -2  -6 1469.25   59.29
  -3   2   6 1482.25   58.59
  -3   2   6 1336.27   60.09
   2  -2  -6  426.26   26.20
   2  -2  -6  463.45   25.50
   2  -2  -6  419.56   26.40
   2  -2  -6  446.36   21.60
   2  -2  -6  476.05   18.40
   2  -2  -6  503.95   29.70
  -2   2   6  399.66   25.80
  -2   2   6  457.85   22.00
  -2   2   6  463.25   27.40
   1  -2  -6 1409.46   56.99
   1  -2  -6 1441.16   55.29
   1  -2  -6 1366.96   55.19
   1  -2  -6 1399.36   53.39
   1  -2  -6 1435.16   50.29
   1  -2  -6 1263.77   55.59
  -1   2   6 1300.87   55.79
  -1   2   6 1395.86   56.39
  -1   2   6 1459.25   56.99
  -1   2   6 1371.56   52.99
   0  -2  -6 2483.85   86.89
   0  -2  -6 2488.25   89.79
   0  -2  -6 2471.45   90.29
   0  -2  -6 2499.25   91.19
   0  -2  -6 2536.45   92.09
   0  -2  -6 2316.87   91.19
   0   2   6 2376.76   91.59
   0   2   6 2460.65   89.29
   0   2   6 2439.86   91.99
   0   2   6 2464.95   89.99
   0   2   6 2394.46   91.09
  -1  -2  -6 1412.56   55.79
  -1  -2  -6 1449.95   55.59
  -1  -2  -6 1439.16   51.89
  -1  -2  -6 1444.26   56.29
  -1  -2  -6 1422.76   53.59
  -1  -2  -6 1456.95   55.99
   1   2   6 1417.76   55.49
   1   2   6 1453.05   53.59
   1   2   6 1371.46   56.29
   1   2   6 1437.86   55.79
   1   2   6 1392.16   56.39
  -2  -2  -6 2875.01  101.59
  -2  -2  -6 2908.11  101.89
  -2  -2  -6 2779.12   98.39
  -2  -2  -6 2925.81   99.69
  -2  -2  -6 2733.43  102.49
   2   2   6 2419.56  100.39
   2   2   6 2735.23  101.89
   2   2   6 2840.92  102.39
   2   2   6 2759.12  102.49
   2   2   6 2773.02  103.49
   2   2   6 2777.72  100.89
  -3  -2  -6 1031.60   40.50
  -3  -2  -6  966.00   42.10
  -3  -2  -6  973.80   43.10
  -3  -2  -6 1011.10   38.00
  -3  -2  -6 1021.00   41.00
   3   2   6 1067.79   42.00
   3   2   6 1003.40   42.20
   3   2   6 1005.20   42.50
   3   2   6  995.20   40.90
   3   2   6  983.30   42.90
   3   2   6 1065.69   39.90
  -4  -2  -6  203.88   14.20
  -4  -2  -6  158.68   14.60
  -4  -2  -6  176.08   13.40
  -4  -2  -6  198.78   14.20
  -4  -2  -6  167.98   19.00
   4   2   6  207.88   16.30
   4   2   6  214.08   21.20
   4   2   6  175.58   17.20
   4   2   6  168.48   17.80
  -5  -2  -6 1269.97   48.90
  -5  -2  -6 1397.46   61.69
  -5  -2  -6 1236.38   52.49
  -5  -2  -6 1275.87   55.69
   5   2   6 1338.47   53.39
   5   2   6 1402.26   61.59
   5   2   6 1298.37   53.29
  -6  -2  -6  911.61   35.70
  -6  -2  -6  904.01   44.30
  -6  -2  -6  856.81   41.10
   6   2   6 1003.80   48.80
   6   2   6  930.81   42.50
  -7  -2  -6  203.48   25.60
  -7  -2  -6  211.08   13.80
  -7  -2  -6  208.88   28.10
   7   2   6  212.88   21.50
   7   2   6  197.48   24.90
  -8  -2  -6  251.47   34.90
  -8  -2  -6  239.68   15.70
  -8  -2  -6  272.17   31.10
   8   2   6  232.08   25.30
   8   2   6  191.88   29.90
  -9  -2  -6  264.87   46.70
  -9  -2  -6  210.88   34.90
   9   2   6  165.48   30.30
   5  -3  -6  327.77   37.50
   5  -3  -6  279.17   38.50
  -5   3   6  379.16   31.50
  -5   3   6  401.56   30.90
   4  -3  -6  347.87   34.00
   4  -3  -6  401.46   33.20
  -4   3   6  391.06   29.70
  -4   3   6  436.26   26.90
   3  -3  -6  848.62   44.70
   3  -3  -6  848.02   32.40
   3  -3  -6  931.61   43.10
  -3   3   6  864.71   39.30
   2  -3  -6  464.95   19.50
   2  -3  -6  413.16   25.00
   2  -3  -6  496.75   30.00
   2  -3  -6  441.56   28.00
   2  -3  -6  448.96   21.60
  -2   3   6  464.75   25.10
  -2   3   6  469.85   27.60
  -2   3   6  433.26   24.20
   1  -3  -6 1773.42   69.59
   1  -3  -6 1765.52   65.89
   1  -3  -6 1771.02   69.39
   1  -3  -6 1745.23   67.59
   1  -3  -6 1629.94   69.09
   1  -3  -6 1781.02   62.99
  -1   3   6 1765.62   65.69
  -1   3   6 1798.22   69.59
  -1   3   6 1775.02   68.89
  -1   3   6 1848.32   67.59
  -1   3   6 1654.43   68.29
   0  -3  -6 2472.15   88.59
   0  -3  -6 2359.46   86.99
   0  -3  -6 2397.46   88.89
   0  -3  -6 2191.18   88.79
   0  -3  -6 2405.06   83.89
   0  -3  -6 2351.56   86.59
   0   3   6 2325.87   88.19
   0   3   6 2394.76   89.59
   0   3   6 2293.27   91.19
   0   3   6 2414.36   87.19
   0   3   6 2355.96   87.79
  -1  -3  -6 1008.90   43.50
  -1  -3  -6 1050.39   38.60
  -1  -3  -6 1038.20   42.60
  -1  -3  -6 1073.59   43.30
  -1  -3  -6 1032.80   42.80
   1   3   6 1072.39   42.80
   1   3   6 1036.50   42.30
   1   3   6 1050.19   42.40
   1   3   6 1004.90   42.40
   1   3   6 1043.10   44.40
  -2  -3  -6 4276.47  149.79
  -2  -3  -6 4088.69  150.78
  -2  -3  -6 4291.77  150.18
  -2  -3  -6 4321.87  150.98
  -2  -3  -6 4139.19  147.09
   2   3   6 4188.98  149.19
   2   3   6 3961.10  150.88
   2   3   6 4219.58  149.59
   2   3   6 4145.79  151.08
   2   3   6 4224.78  149.99
   2   3   6 4214.78  149.69
  -3  -3  -6 1713.03   62.69
  -3  -3  -6 1682.83   62.99
  -3  -3  -6 1558.64   63.79
  -3  -3  -6 1642.14   59.39
  -3  -3  -6 1696.63   61.59
   3   3   6 1652.23   62.69
   3   3   6 1629.34   63.09
   3   3   6 1631.64   62.99
   3   3   6 1672.73   62.49
   3   3   6 1595.44   63.99
   3   3   6 1552.74   61.99
  -4  -3  -6 1797.92   66.79
  -4  -3  -6 1695.93   68.29
  -4  -3  -6 1845.82   66.29
  -4  -3  -6 1516.35   64.19
  -4  -3  -6 1765.52   66.69
   4   3   6 1760.42   66.69
   4   3   6 1828.02   67.39
   4   3   6 1734.63   67.29
   4   3   6 1722.83   62.79
  -5  -3  -6 1707.93   66.59
  -5  -3  -6 1469.85   60.59
  -5  -3  -6 1527.05   61.69
  -5  -3  -6 1524.85   62.59
  -5  -3  -6 1521.95   56.19
   5   3   6 1463.65   61.09
   5   3   6 1589.04   60.99
   5   3   6 1431.16   61.59
   5   3   6 1558.24   61.39
  -6  -3  -6  780.32   39.80
  -6  -3  -6  771.52   31.10
  -6  -3  -6  796.32   40.70
   6   3   6  784.82   38.00
  -7  -3  -6  474.75   21.30
  -7  -3  -6  483.55   34.90
  -7  -3  -6  472.15   32.10
   7   3   6  464.45   28.60
  -8  -3  -6   95.79   12.40
   8   3   6   42.70   19.50
   8   3   6   55.79   13.60
   9   3   6  151.88   27.60
   5  -4  -6  163.78   25.30
   5  -4  -6  238.78   37.50
   4  -4  -6  331.17   32.50
   4  -4  -6  306.97   35.00
  -4   4   6  399.96   30.00
  -4   4   6  376.06   24.70
   3  -4  -6  348.87   24.90
   3  -4  -6  414.06   32.80
   3  -4  -6  448.86   32.50
   3  -4  -6  423.86   17.50
  -3   4   6  422.76   28.10
  -3   4   6  426.86   23.30
   2  -4  -6  694.63   26.40
   2  -4  -6  718.33   37.50
   2  -4  -6  641.64   30.60
   2  -4  -6  704.03   29.30
  -2   4   6  669.93   29.40
  -2   4   6  670.13   35.50
  -2   4   6  635.54   36.70
  -2   4   6  689.83   38.00
   1  -4  -6 2295.87   92.89
   1  -4  -6 2398.16   85.69
   1  -4  -6 2394.06   88.59
   1  -4  -6 2490.55   92.59
  -1   4   6 2495.45   92.69
  -1   4   6 2370.36   88.69
  -1   4   6 2349.86   92.69
  -1   4   6 2492.75   87.99
   0  -4  -6 1193.58   48.00
   0  -4  -6 1219.38   45.90
   0  -4  -6 1167.78   51.29
   0  -4  -6 1249.77   50.39
   0  -4  -6 1220.68   44.30
   0  -4  -6 1118.79   50.59
   0   4   6 1167.18   50.89
   0   4   6 1232.68   48.40
   0   4   6 1163.78   48.90
   0   4   6 1209.28   50.89
   0   4   6 1284.77   47.20
  -1  -4  -6  925.71   40.80
  -1  -4  -6  934.21   34.90
  -1  -4  -6  898.81   40.90
  -1  -4  -6  966.50   39.90
  -1  -4  -6  919.31   39.20
   1   4   6  902.21   38.50
   1   4   6  916.71   43.40
   1   4   6  935.81   40.70
   1   4   6  914.21   36.50
   1   4   6  936.11   39.20
   1   4   6  932.91   41.60
  -2  -4  -6 1523.65   60.39
  -2  -4  -6 1576.74   61.29
  -2  -4  -6 1439.36   58.29
  -2  -4  -6 1542.95   60.79
  -2  -4  -6 1529.65   60.39
   2   4   6 1603.14   58.59
   2   4   6 1522.95   60.49
   2   4   6 1538.05   59.69
   2   4   6 1530.15   61.39
   2   4   6 1564.04   57.79
   2   4   6 1596.04   60.79
  -3  -4  -6  949.21   36.40
  -3  -4  -6  973.40   41.50
  -3  -4  -6  988.20   39.10
  -3  -4  -6  906.41   41.30
  -3  -4  -6  987.40   40.30
   3   4   6  934.71   39.60
   3   4   6  983.10   41.40
   3   4   6  946.41   37.50
   3   4   6  936.71   41.40
   3   4   6  960.90   38.80
   3   4   6  983.90   41.40
  -4  -4  -6 1666.63   64.59
  -4  -4  -6 1661.73   60.89
  -4  -4  -6 1762.32   61.99
  -4  -4  -6 1687.53   66.49
  -4  -4  -6 1662.03   64.49
  -4  -4  -6 1641.74   65.49
   4   4   6 1730.13   65.49
   4   4   6 1649.54   60.69
   4   4   6 1625.74   64.59
   4   4   6 1710.93   65.69
   4   4   6 1615.84   65.99
  -5  -4  -6  413.66   25.50
  -5  -4  -6  413.06   26.70
  -5  -4  -6  404.26   18.80
  -5  -4  -6  409.26   25.40
   5   4   6  422.56   27.00
   5   4   6  430.86   24.10
   5   4   6  446.66   26.40
   5   4   6  436.36   24.70
  -6  -4  -6  394.86   26.00
  -6  -4  -6  349.67   18.00
  -6  -4  -6  447.06   27.60
   6   4   6  384.76   27.80
  -7  -4  -6  638.84   27.20
  -7  -4  -6  666.83   37.00
  -7  -4  -6  608.54   51.89
   7   4   6  674.83   34.50
   7   4   6  629.24   39.90
  -8  -4  -6  113.69   15.20
  -8  -4  -6   90.09   25.00
  -8  -4  -6   77.79   17.60
   8   4   6   46.70   14.10
  -9  -4  -6  225.18   34.60
  -9  -4  -6  271.87   35.60
   9   4   6  168.58   28.60
   4  -5  -6  396.86   40.40
   4  -5  -6  362.06   47.90
  -3   5   6  100.29   21.50
  -3   5   6  129.89   13.20
   2  -5  -6  501.75   33.50
   2  -5  -6  518.45   24.60
   2  -5  -6  507.05   20.70
  -2   5   6  504.75   30.20
  -2   5   6  446.76   26.80
  -2   5   6  494.85   21.60
  -2   5   6  468.65   39.20
   1  -5  -6  430.66   18.80
   1  -5  -6  446.86   23.50
   1  -5  -6  419.56   40.50
  -1   5   6  430.26   30.30
  -1   5   6  452.65   29.40
  -1   5   6  408.06   23.70
   0  -5  -6  571.54   30.20
   0  -5  -6  470.55   31.90
   0  -5  -6  554.04   22.10
   0  -5  -6  552.74   27.40
   0   5   6  525.95   32.00
   0   5   6  556.74   30.50
   0   5   6  507.15   27.10
   0   5   6  554.64   38.50
  -1  -5  -6  645.84   30.50
  -1  -5  -6  646.34   30.80
  -1  -5  -6  563.04   31.00
  -1  -5  -6  612.24   33.50
  -1  -5  -6  634.54   24.80
   1   5   6  602.44   24.10
   1   5   6  594.94   31.60
   1   5   6  591.54   28.90
   1   5   6  618.14   33.70
   1   5   6  634.74   30.20
   1   5   6  610.54   32.00
  -2  -5  -6  671.33   25.90
  -2  -5  -6  667.43   30.60
  -2  -5  -6  656.63   32.00
  -2  -5  -6  614.44   33.60
   2   5   6  640.04   31.80
   2   5   6  655.83   33.70
   2   5   6  646.64   26.60
   2   5   6  669.03   33.60
   2   5   6  662.23   27.90
   2   5   6  655.13   29.30
  -3  -5  -6 1592.24   58.29
  -3  -5  -6 1644.04   62.59
  -3  -5  -6 1598.84   63.69
  -3  -5  -6 1662.53   60.79
  -3  -5  -6 1559.54   64.29
   3   5   6 1605.24   63.69
   3   5   6 1574.14   59.89
   3   5   6 1523.85   63.39
   3   5   6 1626.54   64.39
   3   5   6 1611.64   60.09
  -4  -5  -6 1205.68   48.40
  -4  -5  -6 1174.38   50.29
  -4  -5  -6 1247.88   45.80
  -4  -5  -6 1147.79   51.09
  -4  -5  -6 1171.48   47.60
  -4  -5  -6 1161.18   44.30
   4   5   6 1167.18   47.40
   4   5   6 1232.08   52.39
   4   5   6 1121.99   50.19
   4   5   6 1258.37   49.99
  -5  -5  -6  271.07   22.20
  -5  -5  -6  257.77   20.30
  -5  -5  -6  236.28   13.70
   5   5   6  271.37   19.20
   5   5   6  262.87   21.30
   5   5   6  255.87   25.10
  -6  -5  -6  600.54   35.80
  -6  -5  -6  552.84   24.60
  -6  -5  -6  634.84   33.10
   6   5   6  577.54   35.50
  -7  -5  -6  510.45   34.00
  -7  -5  -6  462.45   21.20
  -7  -5  -6  471.75   32.70
   7   5   6  458.75   28.80
   7   5   6  429.86   33.10
  -8  -5  -6  259.47   30.50
  -8  -5  -6  218.28   15.20
  -8  -5  -6  276.57   32.40
   8   5   6  213.58   25.90
  -9  -5  -6  195.68   35.90
  -9  -5  -6  247.28   36.20
  -9  -5  -6  189.18   16.10
   4  -6  -6  186.68   39.90
  -4   6   6  259.17   34.00
   3  -6  -6  304.27   15.90
   3  -6  -6  265.87   35.80
  -3   6   6  352.26   29.10
   2  -6  -6  313.17   20.80
   2  -6  -6  263.87   29.50
   2  -6  -6  290.47   15.30
  -2   6   6  344.17   31.90
  -2   6   6  300.87   27.40
  -2   6   6  305.67   25.20
   1  -6  -6  230.58   12.80
   1  -6  -6  211.28   25.70
   1  -6  -6  245.58   19.80
  -1   6   6  222.98   22.10
  -1   6   6  232.68   29.50
  -1   6   6  177.88   19.20
   0  -6  -6  635.64   33.00
   0  -6  -6  654.73   36.20
   0  -6  -6  602.84   25.90
   0   6   6  687.73   36.90
   0   6   6  563.74   31.20
   0   6   6  660.83   33.70
  -1  -6  -6  901.31   40.20
  -1  -6  -6  873.91   33.80
  -1  -6  -6  883.71   39.60
   1   6   6  839.72   41.00
   1   6   6  925.91   41.40
   1   6   6  816.72   39.20
   1   6   6  826.62   42.50
  -2  -6  -6  353.66   22.90
  -2  -6  -6  331.37   16.30
  -2  -6  -6  298.27   22.50
  -2  -6  -6  347.87   23.80
   2   6   6  338.77   25.80
   2   6   6  341.47   15.10
   2   6   6  329.57   20.80
   2   6   6  310.57   22.90
   2   6   6  347.17   27.30
  -3  -6  -6 1436.46   59.59
  -3  -6  -6 1467.35   56.59
  -3  -6  -6 1420.56   53.19
  -3  -6  -6 1491.15   57.89
   3   6   6 1403.26   59.19
   3   6   6 1414.06   54.09
   3   6   6 1467.45   61.69
  -4  -6  -6  386.86   21.50
  -4  -6  -6  384.86   21.20
  -4  -6  -6  403.76   26.10
  -4  -6  -6  380.36   18.30
  -4  -6  -6  393.36   22.50
   4   6   6  401.66   28.40
   4   6   6  413.56   21.40
   4   6   6  408.26   25.60
  -5  -6  -6  309.07   16.00
  -5  -6  -6  320.97   18.90
  -5  -6  -6  297.97   20.40
  -5  -6  -6  281.57   33.10
  -5  -6  -6  305.87   27.90
   5   6   6  325.67   20.70
   5   6   6  356.86   23.20
  -6  -6  -6  750.42   38.90
  -6  -6  -6  782.02   37.30
  -6  -6  -6  736.03   30.10
   6   6   6  717.93   42.40
   6   6   6  712.33   42.60
  -7  -6  -6  437.26   20.70
  -7  -6  -6  456.15   32.70
  -7  -6  -6  510.55   33.50
   7   6   6  372.06   33.60
   7   6   6  417.16   29.40
  -8  -6  -6  307.37   17.30
  -8  -6  -6  361.66   32.50
   8   6   6  255.17   28.60
   8   6   6  228.88   35.30
  -9  -6  -6  175.48   16.20
  -9  -6  -6  216.08   36.10
   3  -7  -6  209.48   35.90
   3  -7  -6  203.28   13.80
   2  -7  -6  227.38   21.00
   2  -7  -6  188.38   13.80
  -2   7   6  227.98   25.40
  -2   7   6  201.58   36.00
   1  -7  -6   80.49   15.10
   1  -7  -6   64.09   10.00
   1  -7  -6   57.49   15.00
  -1   7   6   80.19   18.50
  -1   7   6   77.09   13.70
   0  -7  -6  524.95   33.90
   0  -7  -6  527.35   23.50
   0  -7  -6  545.25   31.10
   0   7   6  560.34   31.60
   0   7   6  544.05   37.90
  -1  -7  -6  501.15   28.50
  -1  -7  -6  448.06   20.70
  -1  -7  -6  362.56   45.00
   1   7   6  461.45   28.10
  -2  -7  -6  403.76   19.00
  -2  -7  -6  411.86   26.90
  -2  -7  -6  376.06   26.20
   2   7   6  390.46   27.60
   2   7   6  407.36   32.20
  -3  -7  -6  716.03   29.60
  -3  -7  -6  737.63   34.60
   3   7   6  713.03   36.90
   3   7   6  776.92   41.30
   3   7   6  700.93   31.40
  -4  -7  -6  348.77   23.60
  -4  -7  -6  370.16   27.00
  -4  -7  -6  378.86   22.70
  -4  -7  -6  356.56   17.40
  -4  -7  -6  363.86   20.00
   4   7   6  333.07   25.50
   4   7   6  372.96   21.00
   4   7   6  367.66   33.30
  -5  -7  -6  490.75   28.20
  -5  -7  -6  453.55   30.40
  -5  -7  -6  435.36   23.10
  -5  -7  -6  432.46   20.60
  -5  -7  -6  416.06   25.70
   5   7   6  476.25   32.70
   5   7   6  431.96   32.80
   5   7   6  450.65   28.30
  -6  -7  -6  301.47   26.70
  -6  -7  -6  263.47   16.60
  -6  -7  -6  293.27   15.90
   6   7   6  252.17   30.20
   6   7   6  261.27   24.70
  -7  -7  -6  257.47   26.60
  -7  -7  -6  259.57   15.40
   7   7   6  188.78   24.80
  -8  -7  -6  173.38   14.50
   8   7   6  107.89   24.20
   8   7   6  120.09   26.50
   2  -8  -6   74.99   11.60
  -2   8   6   90.79   23.60
   1  -8  -6  224.78   32.80
   1  -8  -6  243.88   24.50
   1  -8  -6  249.28   16.40
  -1   8   6  304.47   36.50
  -1   8   6  298.97   25.60
   0  -8  -6  188.68   13.90
   0  -8  -6  164.08   27.50
   0  -8  -6  192.38   23.80
   0   8   6  223.68   22.50
   0   8   6  188.28   30.40
  -1  -8  -6  176.98   25.10
  -1  -8  -6  170.38   13.20
  -1  -8  -6  157.08   23.60
   1   8   6  172.18   22.20
   1   8   6  164.48   30.00
  -2  -8  -6  116.59   10.70
  -2  -8  -6   98.99   14.90
  -2  -8  -6  111.89   22.20
   2   8   6   98.69   19.40
   2   8   6  108.29   19.80
  -3  -8  -6   84.69    9.80
  -3  -8  -6   92.69   17.60
   3   8   6   55.89   17.30
   3   8   6   55.39    8.30
  -4  -8  -6  204.58   14.80
  -4  -8  -6  187.88   20.70
  -4  -8  -6  196.08   12.90
  -4  -8  -6  191.68   24.70
  -4  -8  -6  196.18   23.10
   4   8   6  190.98   29.70
   4   8   6  193.38   24.40
   4   8   6  155.98   17.90
  -5  -8  -6  245.28   15.10
  -5  -8  -6  245.48   22.70
  -5  -8  -6  268.17   21.30
  -5  -8  -6  227.88   25.70
  -5  -8  -6  260.77   20.80
   5   8   6  202.48   24.40
   5   8   6  198.48   31.20
   5   8   6  169.78   35.70
  -6  -8  -6   69.79   19.80
  -6  -8  -6   34.90    6.90
  -6  -8  -6   51.49    9.30
   6   8   6   30.40   12.70
   6   8   6   13.30   16.00
  -7  -8  -6  115.59   12.80
  -7  -8  -6  149.19   28.10
  -8  -8  -6  183.58   32.90
  -8  -8  -6  135.29   14.90
   1  -9  -6   89.39   22.50
   1  -9  -6  141.49   25.70
   1  -9  -6  136.99   14.00
   0  -9  -6   81.99   12.60
   0  -9  -6   99.59   24.00
   0   9   6   90.19   26.70
  -1  -9  -6   70.29   11.90
  -1  -9  -6   73.89   19.10
  -1  -9  -6   72.39   17.40
   1   9   6  106.99   21.70
   1   9   6   47.10   20.40
  -2  -9  -6  109.19   23.80
  -2  -9  -6   96.29   17.10
  -2  -9  -6  102.99   12.50
   2   9   6  111.69   21.40
   2   9   6   81.39   19.90
  -3  -9  -6   57.49   14.60
  -3  -9  -6   69.99   19.00
  -3  -9  -6   57.49    8.30
   3   9   6   69.39   19.10
  -4  -9  -6  306.87   31.30
  -4  -9  -6  283.77   16.50
   4   9   6  247.18   36.90
  -5  -9  -6  189.28   18.80
  -5  -9  -6  168.18   29.80
  -5  -9  -6  157.98   14.10
   5   9   6  117.89   24.00
  -6  -9  -6   57.59    8.70
  -6  -9  -6   50.29   22.30
   6   9   6   38.20   23.20
  -7  -9  -6   95.89   25.00
  -7  -9  -6   75.59   12.80
  -1 -10  -6   97.19   21.90
  -1 -10  -6  122.89   14.50
  -1 -10  -6   95.99   23.70
   1  10   6   87.69   24.50
  -2 -10  -6   97.69   13.80
  -2 -10  -6   51.39   22.40
  -2 -10  -6   64.99   19.30
   2  10   6   73.19   16.10
  -3 -10  -6   39.10    8.60
  -3 -10  -6   62.39   22.50
  -3 -10  -6   33.30   17.50
   3  10   6   40.70   13.00
   3  10   6   47.70   22.20
  -4 -10  -6  146.69   30.20
  -4 -10  -6   85.69   17.70
   4  10   6  105.09   24.30
   4  10   6  103.69   25.00
  -5 -10  -6   45.20   23.10
  -5 -10  -6   32.50    8.90
  -5 -10  -6   22.50   16.20
   5  10   6   -2.10   21.70
  -6 -10  -6   58.89   29.00
  -6 -10  -6  100.99   14.60
   6  10   6   15.80   23.30
   1   6  -7   60.49   31.40
   1   6  -7   71.09   12.50
  -1  -6   7   18.60   28.60
  -1  -6   7  104.79   28.40
   0   6  -7   26.60   10.30
   0   6  -7   44.40   21.80
   0  -6   7  -21.50   26.00
   0  -6   7   51.19   25.60
  -1   6  -7  -11.60   20.90
   1  -6   7   -4.20   24.80
  -2   6  -7  -11.10    8.30
  -2   6  -7   22.60   24.40
   3   5  -7    5.00   21.50
   3   5  -7   14.40    7.70
  -3  -5   7   20.00   24.30
  -3  -5   7  -30.80   23.60
   2   5  -7    9.60    7.40
   2   5  -7  -12.90   18.30
  -2  -5   7   17.40   23.00
  -2  -5   7  -31.80   22.70
   1   5  -7    1.20   16.70
   1   5  -7    7.10    7.40
  -1  -5   7   21.50   22.00
  -1  -5   7  -32.50   23.20
   0   5  -7  117.29   20.80
   0   5  -7  162.18   14.00
   0  -5   7  158.68   32.30
   0  -5   7  118.59   27.40
  -1   5  -7   13.60   17.40
  -1   5  -7    1.10    8.00
   1  -5   7    6.30   21.30
  -2   5  -7   -3.50    7.30
  -2   5  -7  -18.00   17.60
   2  -5   7   23.20   22.10
  -3   5  -7   22.30   19.90
  -3   5  -7   15.30    9.20
   3  -5   7   -5.40   23.00
   4  -5   7   57.99   25.40
   4  -5   7  -19.10   24.20
   4   4  -7   43.40    8.30
   4   4  -7   23.40   18.90
  -4  -4   7   47.60   28.00
  -4  -4   7   51.79   23.30
   3   4  -7   84.29   20.30
   3   4  -7   97.09   12.40
  -3  -4   7  116.59   23.30
  -3  -4   7   51.89   23.80
   2   4  -7   -0.70    6.80
   2   4  -7  -13.70   15.30
  -2  -4   7   -2.20   18.10
   1   4  -7    6.20   14.60
   1   4  -7  -12.00    7.90
  -1  -4   7  -23.30   16.50
   0   4  -7   -0.70    6.50
   0   4  -7  -12.30   13.20
   0  -4   7   12.10   17.30
   0  -4   7  -10.10   20.30
  -1   4  -7   36.40   15.70
  -1   4  -7   29.40    7.30
   1  -4   7   22.60   19.00
   1  -4   7   17.10    6.70
  -2   4  -7   -2.60    6.30
  -2   4  -7   -4.60   14.10
   2  -4   7   25.30   18.80
   2  -4   7    7.90   18.50
  -3   4  -7   -4.20    7.20
  -3   4  -7    4.30   15.60
   3  -4   7   -0.60   19.20
  -4   4  -7   -7.80    7.30
  -4   4  -7  -15.00   17.20
   4  -4   7    6.00   20.90
   4  -4   7   -7.70   20.20
   5  -4   7   40.20   23.10
   5  -4   7   26.10   23.90
   4   3  -7   31.10   17.50
  -4  -3   7   65.99   21.40
  -4  -3   7   54.39   23.40
   3   3  -7   40.20   18.00
   3   3  -7   62.99    8.60
  -3  -3   7   46.30   21.30
   2   3  -7   15.40    6.20
   2   3  -7   17.10   12.80
  -2  -3   7   -4.70   17.90
  -2  -3   7    9.10   30.90
   1   3  -7    3.20    5.70
   1   3  -7   -5.00   11.60
   1   3  -7   -2.80    6.10
  -1  -3   7   11.40    5.70
  -1  -3   7  -20.10   16.80
  -1  -3   7   14.40   15.80
   0   3  -7   35.40    7.00
   0   3  -7   24.80   13.10
   0  -3   7   17.30   19.00
   0  -3   7   55.09   16.60
   0  -3   7   27.20    6.80
  -1   3  -7   42.60   13.60
   1  -3   7   45.60    8.70
   1  -3   7   65.89   30.10
  -2   3  -7  194.08   27.50
  -2   3  -7  232.48   15.10
   2  -3   7  191.68   17.80
   2  -3   7  194.18   30.60
   2  -3   7  244.98   25.90
  -3   3  -7   47.50    8.20
  -3   3  -7   34.70   15.30
   3  -3   7   42.60    9.10
   3  -3   7   35.20   18.00
  -4   3  -7    2.90   15.00
  -4   3  -7   -7.00    6.70
   4  -3   7   15.70   18.40
   4  -3   7   12.90    8.00
   4  -3   7   -5.30    8.30
  -5   3  -7  -12.20    6.90
   5  -3   7   17.80   18.80
  -6   3  -7   31.50    9.10
   6  -3   7   39.20   14.40
   6  -3   7   25.90   23.40
   6  -3   7   81.69   23.90
   6  -3   7   32.70   12.40
   5   2  -7   -8.80   15.40
   5   2  -7    5.90   18.10
  -5  -2   7   22.20   21.00
   4   2  -7   37.70   17.50
   4   2  -7   19.10   12.30
  -4  -2   7   37.90   18.80
  -4  -2   7   46.30   13.30
   3   2  -7   57.79   14.60
   3   2  -7   74.39    9.60
   3   2  -7   66.49   11.60
  -3  -2   7   98.29   20.90
  -3  -2   7   40.70   19.40
   2   2  -7   92.49    9.50
   2   2  -7   81.19   14.00
   2   2  -7   59.49   10.80
   2   2  -7   78.59   15.00
  -2  -2   7  107.69   19.40
  -2  -2   7   75.59   18.60
   1   2  -7   97.49    9.90
   1   2  -7   79.99   14.30
   1   2  -7   76.49   14.80
  -1  -2   7  120.79   19.60
  -1  -2   7  114.99   14.40
  -1  -2   7   92.49   19.30
   0   2  -7   37.80    6.40
   0   2  -7   26.40    8.60
   0  -2   7   30.60    7.90
   0  -2   7   54.49   24.70
  -1   2  -7   32.90   12.30
  -1   2  -7   48.80    7.20
  -1   2  -7   64.29   11.10
   1  -2   7   43.30    9.30
  -2   2  -7   36.10   11.10
  -2   2  -7   16.00    6.10
  -2   2  -7    7.00    6.10
   2  -2   7    3.00    7.50
  -3   2  -7  280.97   16.30
  -3   2  -7  340.27   19.10
  -3   2  -7  345.77   26.90
   3  -2   7  294.57   31.00
   3  -2   7  301.07   20.60
  -4   2  -7   12.90    6.70
   4  -2   7   13.60   15.90
   4  -2   7   17.60    7.20
   4  -2   7   19.10    6.50
   4  -2   7    7.80    8.10
  -5   2  -7   -4.30    6.20
   5  -2   7   -0.10    8.60
   5  -2   7   22.20   17.20
   5  -2   7   -8.70    8.80
  -6   2  -7   11.20    7.20
   6  -2   7   23.10   18.90
   6  -2   7    1.90   10.60
   6  -2   7    6.10   11.20
  -7   2  -7   27.00    8.80
   7  -2   7   17.10   14.70
   7  -2   7   30.20   17.20
   5   1  -7   12.50   18.00
  -5  -1   7   49.90   20.60
   4   1  -7  -21.90   14.50
   4   1  -7   -2.40   11.70
  -4  -1   7   -3.40   16.50
  -4  -1   7   13.30   10.00
   3   1  -7   -8.80   12.60
   3   1  -7   -7.50    8.90
   3   1  -7    1.00    7.40
  -3  -1   7   -4.90   11.90
  -3  -1   7  -21.70   15.20
   2   1  -7   42.00    7.80
   2   1  -7   29.30   12.80
   2   1  -7   31.60    5.50
  -2  -1   7   63.89   15.30
  -2  -1   7   64.49   13.20
  -2  -1   7   68.89   15.80
  -2  -1   7   42.50   17.60
   1   1  -7  265.37   14.60
   1   1  -7  273.27   14.40
   1   1  -7  241.88   20.00
  -1  -1   7  289.77   30.70
  -1  -1   7  280.17   21.10
  -1  -1   7  286.27   19.40
   0   1  -7  175.18   11.90
   0   1  -7  194.28   16.20
   0   1  -7  211.18   23.90
   0  -1   7  189.28   18.30
   0  -1   7  201.58   19.80
  -1   1  -7    5.30    5.30
  -1   1  -7   11.20   13.10
  -1   1  -7   11.40    6.40
   1  -1   7   25.80    8.90
   1  -1   7    5.60   10.30
   1  -1   7    9.30   13.10
   1  -1   7   13.50   14.20
  -2   1  -7   10.90   13.90
  -2   1  -7   18.80    5.30
  -2   1  -7   23.20    6.30
  -2   1  -7    7.30   10.20
   2  -1   7   10.90    9.90
   2  -1   7   35.30   13.80
   2  -1   7   23.30    8.50
  -3   1  -7  157.48   13.80
  -3   1  -7  128.09   11.60
  -3   1  -7  123.89   20.70
  -3   1  -7  135.09   23.70
   3  -1   7  113.29   20.20
   3  -1   7  140.99   24.40
   3  -1   7  137.69   15.30
  -4   1  -7  381.36   32.30
  -4   1  -7  367.36   18.40
  -4   1  -7  413.86   21.80
  -4   1  -7  342.17   25.70
   4  -1   7  358.56   21.70
   4  -1   7  372.76   30.50
   4  -1   7  349.96   18.50
   4  -1   7  312.57   28.10
  -5   1  -7    1.90   10.70
  -5   1  -7   -1.00    5.90
  -5   1  -7   -0.20   17.00
   5  -1   7   -2.70    7.80
   5  -1   7  -12.70   10.90
   5  -1   7    8.50   15.00
  -6   1  -7   24.60    7.50
  -6   1  -7   18.90   19.40
   6  -1   7   30.40   10.80
   6  -1   7   22.70   11.00
  -7   1  -7    4.70    7.20
  -7   1  -7   -3.60   21.50
   7  -1   7   -4.00   11.40
   7  -1   7    0.60   23.10
   5   0  -7    2.60   16.80
   5   0  -7  -11.20   17.90
  -5   0   7   28.10   19.20
   4   0  -7    6.00   11.70
   4   0  -7  -10.20   15.00
  -4   0   7   -2.00   14.90
  -4   0   7   16.80   10.20
   3   0  -7   24.60    9.80
   3   0  -7   -3.80   13.00
   3   0  -7   10.10    4.50
   3   0  -7    6.50    9.00
  -3   0   7  -10.70   14.20
  -3   0   7   20.50   10.00
  -3   0   7   16.80    9.70
   2   0  -7    4.80    6.80
   2   0  -7  -12.20   11.00
   2   0  -7    5.90    4.20
   2   0  -7   17.00    8.00
  -2   0   7   -0.50   14.50
  -2   0   7    2.30    7.60
  -2   0   7   18.10   10.20
   1   0  -7   81.69   16.20
   1   0  -7   74.69   10.60
  -1   0   7   63.09   10.70
  -1   0   7   86.19   14.60
  -1   0   7   82.49   17.10
   0   0  -7  115.39   15.60
   0   0  -7  114.49   18.60
   0   0  -7  136.89   10.00
   0   0  -7  108.69   21.10
   0   0  -7  117.19   18.10
   0   0   7  147.39   26.30
   0   0   7  145.39   18.10
   0   0   7  114.29   19.80
   0   0   7  148.99   22.30
  -1   0  -7   -3.30    9.70
  -1   0  -7  -15.30   10.90
  -1   0  -7   -8.30    4.60
  -1   0  -7   -4.60    6.10
  -1   0  -7   -5.60    9.20
   1   0   7    5.70   10.70
   1   0   7    1.20    8.20
   1   0   7   13.80   13.10
  -2   0  -7   84.89   17.70
  -2   0  -7   83.89   12.30
  -2   0  -7   79.99   19.10
  -2   0  -7   72.59    9.50
  -2   0  -7   67.49   11.50
   2   0   7   79.69   16.90
   2   0   7   96.09   21.60
   2   0   7   75.59   11.20
  -3   0  -7    9.50    9.10
  -3   0  -7   -1.40   12.70
  -3   0  -7    8.90    5.80
  -3   0  -7   -1.30    4.70
   3   0   7   10.00    7.70
   3   0   7    6.30   12.10
   3   0   7    1.00    8.50
  -4   0  -7  589.84   28.80
  -4   0  -7  582.44   25.30
  -4   0  -7  588.24   30.60
  -4   0  -7  667.33   35.90
   4   0   7  616.84   29.60
   4   0   7  589.34   30.70
   4   0   7  609.04   26.50
   4   0   7  648.44   36.00
  -5   0  -7   57.89    9.80
  -5   0  -7   53.89   10.30
  -5   0  -7   66.39   22.00
   5   0   7   77.99   15.70
   5   0   7   48.90    9.70
   5   0   7   40.60    9.90
   5   0   7   55.39    9.40
  -6   0  -7    6.50   17.70
  -6   0  -7   -3.20    5.80
   6   0   7   -5.30    9.00
   6   0   7   -7.40    9.30
   6   0   7    4.20   15.00
   6   0   7   -8.10    9.90
  -7   0  -7    0.60    6.50
  -7   0  -7   16.50   19.50
   7   0   7   -9.10   10.60
   7   0   7  -10.60   12.20
  -8   0  -7    8.60   24.50
  -8   0  -7   35.80    8.40
   8   0   7   27.40   17.30
   8   0   7   39.90   15.00
   5  -1  -7   -1.60   18.10
   5  -1  -7    8.00   15.70
  -5   1   7   37.00   13.50
  -5   1   7   15.10   16.40
   4  -1  -7   -3.40   15.20
   4  -1  -7    7.20   13.30
  -4   1   7   21.50   10.90
  -4   1   7   13.30   14.60
   3  -1  -7  118.79   10.40
   3  -1  -7  125.49   19.00
   3  -1  -7   87.49   16.10
  -3   1   7   90.69   18.40
  -3   1   7  116.99   12.00
   2  -1  -7   22.60    8.10
   2  -1  -7   21.10   12.80
   2  -1  -7    9.20    4.40
   2  -1  -7   19.60    9.00
  -2   1   7   28.20   10.80
  -2   1   7    9.20   13.30
  -2   1   7   32.80    9.40
   1  -1  -7   21.90    6.60
   1  -1  -7   22.00    4.90
   1  -1  -7   28.10    8.40
   1  -1  -7    4.50    9.30
   1  -1  -7   24.50   13.20
   1  -1  -7   34.60   11.20
  -1   1   7   20.40   14.00
  -1   1   7   27.20   10.10
  -1   1   7   40.40   10.40
   0  -1  -7  274.37   16.30
   0  -1  -7  263.27   20.70
   0  -1  -7  282.77   20.80
   0  -1  -7  269.77   21.10
   0  -1  -7  281.77   24.30
   0   1   7  287.17   21.20
   0   1   7  258.07   21.90
   0   1   7  302.67   26.20
   0   1   7  261.37   19.20
  -1  -1  -7  510.55   20.90
  -1  -1  -7  509.05   19.90
  -1  -1  -7  497.45   29.30
  -1  -1  -7  491.25   27.70
  -1  -1  -7  495.05   27.30
  -1  -1  -7  506.85   26.00
   1   1   7  468.55   26.50
   1   1   7  534.75   27.70
   1   1   7  466.55   27.10
   1   1   7  513.85   30.80
  -2  -1  -7  246.48   21.70
  -2  -1  -7  250.37   21.70
  -2  -1  -7  264.07   13.50
  -2  -1  -7  262.47   17.60
   2   1   7  261.07   20.20
   2   1   7  286.67   24.10
   2   1   7  303.97   20.50
   2   1   7  263.17   20.70
  -3  -1  -7   -2.70    7.90
  -3  -1  -7    6.50    6.10
  -3  -1  -7    2.50    3.80
  -3  -1  -7   -1.80   11.00
  -3  -1  -7   -2.60    4.80
   3   1   7   -3.50   10.90
   3   1   7   -2.60    8.30
   3   1   7    4.10   11.40
   3   1   7   -7.20    7.00
   3   1   7   13.20    7.90
   3   1   7    3.60    5.10
  -4  -1  -7  119.89   16.10
  -4  -1  -7  126.79   11.80
  -4  -1  -7  111.19   21.10
  -4  -1  -7  120.09   13.50
  -4  -1  -7  115.49   10.00
   4   1   7  129.49   13.30
   4   1   7  151.78   16.00
   4   1   7  128.79   22.40
   4   1   7  131.69   15.80
  -5  -1  -7  190.98   16.20
  -5  -1  -7  189.68   12.80
  -5  -1  -7  198.58   16.40
  -5  -1  -7  203.58   24.20
   5   1   7  197.98   17.10
   5   1   7  230.98   18.50
   5   1   7  162.68   17.60
  -6  -1  -7   19.40    6.10
  -6  -1  -7   27.20   17.20
   6   1   7   26.80   10.00
   6   1   7   21.30   13.30
   6   1   7   25.90   12.20
  -7  -1  -7   14.10    6.50
  -7  -1  -7    1.80   17.70
   7   1   7    1.90   10.90
   7   1   7   39.00   12.50
  -8  -1  -7   17.10    8.20
  -8  -1  -7   22.60   21.90
   8   1   7   -1.90   13.70
   8   1   7  -15.10   15.00
   5  -2  -7   -3.30   19.00
  -5   2   7   33.50   13.60
   4  -2  -7   43.90   15.20
   4  -2  -7   26.30   16.00
  -4   2   7   40.10   15.10
  -4   2   7   43.80   13.30
   3  -2  -7   97.19   20.60
   3  -2  -7   54.99   15.70
  -3   2   7   76.99   13.10
   2  -2  -7  128.29   14.30
   2  -2  -7  147.29   24.40
   2  -2  -7  149.59   18.10
   2  -2  -7  152.78    9.80
   2  -2  -7  144.39   19.50
  -2   2   7  143.09   14.60
  -2   2   7  120.29   21.30
   1  -2  -7  391.06   22.60
   1  -2  -7  382.96   24.20
   1  -2  -7  397.66   17.30
   1  -2  -7  358.06   24.90
   1  -2  -7  374.16   21.90
   1  -2  -7  452.45   28.70
  -1   2   7  396.16   25.90
  -1   2   7  382.36   28.20
  -1   2   7  372.76   21.80
   0  -2  -7    2.20    8.50
   0  -2  -7    4.00    7.60
   0  -2  -7    8.10    9.70
   0  -2  -7   -2.90    8.10
   0  -2  -7    0.20    9.90
   0  -2  -7   -3.10    4.70
   0   2   7   11.10   11.80
   0   2   7   10.90    8.30
   0   2   7    2.40    8.90
   0   2   7   12.00    9.10
  -1  -2  -7  385.16   20.30
  -1  -2  -7  418.96   23.30
  -1  -2  -7  328.67   21.60
  -1  -2  -7  412.36   23.90
  -1  -2  -7  377.86   23.70
  -1  -2  -7  411.86   26.20
   1   2   7  420.66   25.50
   1   2   7  409.86   27.00
   1   2   7  389.36   23.00
   1   2   7  389.36   19.60
   1   2   7  386.26   23.70
  -2  -2  -7  222.78   13.90
  -2  -2  -7  217.18   12.40
  -2  -2  -7  230.38   17.00
  -2  -2  -7  194.78   19.80
  -2  -2  -7  218.28   20.70
   2   2   7  218.88   18.80
   2   2   7  231.28   18.00
   2   2   7  232.48   21.70
  -3  -2  -7   23.40    6.80
  -3  -2  -7   21.10    5.40
  -3  -2  -7    8.60   11.50
  -3  -2  -7   21.30    8.80
   3   2   7   24.90   11.00
   3   2   7   20.60   13.10
   3   2   7   20.70   10.70
   3   2   7   20.60    7.50
  -4  -2  -7   68.59   14.90
  -4  -2  -7   50.59    8.10
  -4  -2  -7   60.19   11.50
  -4  -2  -7   57.39    8.50
  -4  -2  -7   62.09   11.70
   4   2   7   59.59   14.40
   4   2   7   45.40   12.90
   4   2   7   57.79   12.70
   4   2   7   69.29   14.80
   4   2   7   41.40    7.80
  -5  -2  -7  131.09   11.20
  -5  -2  -7  149.09   15.90
  -5  -2  -7  141.59   13.00
   5   2   7  172.88   21.80
   5   2   7  148.59   17.30
   5   2   7  110.19   12.60
  -6  -2  -7  143.09   17.80
  -6  -2  -7  117.09   36.50
  -6  -2  -7  123.59   11.20
   6   2   7   95.29   18.90
   6   2   7  108.59   18.70
  -7  -2  -7   24.50    6.90
  -7  -2  -7   60.09   20.10
   7   2   7   35.30   11.80
  -8  -2  -7   14.30   20.40
  -8  -2  -7    1.50    6.70
   8   2   7  -13.50   14.10
   8   2   7  -19.50   16.90
  -9  -2  -7   16.10    8.10
   4  -3  -7   -4.90   16.00
   4  -3  -7    7.50   15.00
  -4   3   7   17.60   12.70
   3  -3  -7   23.10   13.50
  -3   3   7   12.30   10.30
  -3   3   7   17.90   11.10
   2  -3  -7   39.40    7.40
   2  -3  -7   48.80   13.90
   2  -3  -7   42.80   11.00
   2  -3  -7   37.60   13.60
   2  -3  -7   29.80   12.80
  -2   3   7   25.70   10.40
  -2   3   7   41.80   11.90
  -2   3   7   32.70   10.00
   1  -3  -7   32.90   10.70
   1  -3  -7   36.60   10.90
   1  -3  -7   28.40    5.10
   1  -3  -7   43.60    9.80
   1  -3  -7   41.30   12.10
  -1   3   7   40.80   10.60
  -1   3   7   22.60   11.70
  -1   3   7   27.10   10.30
   0  -3  -7  220.78   18.60
   0  -3  -7  228.18   18.20
   0  -3  -7  212.68   19.70
   0  -3  -7  198.78   20.90
   0  -3  -7  232.28   22.30
   0   3   7  240.98   22.00
   0   3   7  208.08   18.10
   0   3   7  217.48   17.80
   0   3   7  204.28   20.30
   0   3   7  241.18   22.20
  -1  -3  -7  109.89   15.40
  -1  -3  -7  110.69   16.50
  -1  -3  -7  106.59   16.30
  -1  -3  -7  116.29   18.60
  -1  -3  -7  103.29    9.20
  -1  -3  -7  124.09   16.50
   1   3   7  103.09   14.70
   1   3   7  108.69   16.00
   1   3   7  117.19   15.40
  -2  -3  -7   65.59    8.40
  -2  -3  -7   67.09   14.10
  -2  -3  -7   68.39   13.50
  -2  -3  -7   73.49   13.30
  -2  -3  -7   81.29   17.30
   2   3   7   59.69    8.80
   2   3   7   77.79   15.50
   2   3   7   78.99   17.50
   2   3   7   77.29   14.00
   2   3   7   72.49   13.80
  -3  -3  -7    6.40   11.00
  -3  -3  -7   12.00    6.70
  -3  -3  -7    6.50    6.80
  -3  -3  -7    4.10    8.00
  -3  -3  -7    0.00    4.70
   3   3   7    2.20    9.70
   3   3   7    6.50    6.50
   3   3   7   11.80   11.30
   3   3   7    4.30    7.80
  -4  -3  -7  108.79   16.60
  -4  -3  -7   76.79   14.30
  -4  -3  -7   63.99    9.20
  -4  -3  -7   99.39   13.60
  -4  -3  -7   74.19   13.20
   4   3   7  118.29   15.70
   4   3   7   90.99   15.50
   4   3   7   90.89   18.00
   4   3   7  110.29   16.30
   4   3   7   83.79   11.80
   4   3   7   96.69   14.30
  -5  -3  -7    9.00    5.30
  -5  -3  -7    4.30    7.50
  -5  -3  -7   27.10   13.20
   5   3   7   10.40    4.60
   5   3   7   18.30    9.60
   5   3   7   24.20    8.70
  -6  -3  -7   -2.00    5.20
  -6  -3  -7   -3.50    8.60
   6   3   7   -5.90   10.10
   6   3   7    2.90    8.80
  -7  -3  -7    9.20    6.10
  -7  -3  -7    7.20   13.20
  -7  -3  -7   20.60   16.70
   7   3   7    8.30   10.40
   7   3   7    0.10   12.20
  -8  -3  -7   40.80   21.30
  -8  -3  -7   22.10   17.40
  -8  -3  -7   18.20    7.10
   8   3   7    4.60   12.90
  -9  -3  -7   45.20   27.30
  -9  -3  -7   68.69   24.60
   4  -4  -7   31.90   18.50
   4  -4  -7    5.60   19.30
  -4   4   7   30.40   14.00
   3  -4  -7   25.80   14.40
   3  -4  -7   -6.80   15.20
  -3   4   7   22.00   11.50
  -3   4   7   39.20   14.10
   2  -4  -7   25.60   10.10
   2  -4  -7   37.40   14.00
   2  -4  -7   37.30   10.00
  -2   4   7   18.80   10.40
  -2   4   7   40.80    9.60
  -2   4   7   23.10    9.90
   1  -4  -7   88.29   14.90
   1  -4  -7   79.79    8.40
   1  -4  -7   73.89   14.10
   1  -4  -7   41.60   16.50
   1  -4  -7   60.69   15.20
  -1   4   7   63.69   11.20
  -1   4   7   76.79   15.00
  -1   4   7   47.20   19.70
  -1   4   7   66.59   12.10
   0  -4  -7  115.49    9.20
   0  -4  -7   97.09   20.40
   0  -4  -7  113.39   13.50
   0  -4  -7  124.79   20.70
   0  -4  -7  121.79   16.30
   0   4   7   97.39   19.30
   0   4   7  107.79   15.60
   0   4   7   97.69   17.10
   0   4   7  147.09   20.30
  -1  -4  -7   99.39   17.50
  -1  -4  -7  152.98   19.40
  -1  -4  -7  107.49   16.60
  -1  -4  -7  121.99    9.50
  -1  -4  -7   87.79   18.60
   1   4   7  143.19   17.40
   1   4   7  127.19   16.30
   1   4   7  111.59   15.80
   1   4   7   98.89   18.60
   1   4   7  122.59   19.90
  -2  -4  -7    4.00   10.80
  -2  -4  -7    8.00    9.10
  -2  -4  -7   15.40    5.00
  -2  -4  -7    9.40    7.60
  -2  -4  -7   18.30    8.80
   2   4   7   20.60   10.70
   2   4   7   10.30    7.10
   2   4   7   13.30    9.30
   2   4   7    6.70    9.30
   2   4   7   20.00    7.70
  -3  -4  -7   21.60    8.40
  -3  -4  -7   18.90    8.10
  -3  -4  -7   24.20    5.50
  -3  -4  -7   20.90    9.00
  -3  -4  -7   19.40   11.50
   3   4   7   35.50   12.00
   3   4   7   33.20    9.20
   3   4   7   35.40   10.40
   3   4   7   18.60    7.00
   3   4   7   23.50   10.20
   3   4   7   27.50    8.40
  -4  -4  -7   38.50    9.40
  -4  -4  -7   31.00    5.40
  -4  -4  -7   35.10   12.70
  -4  -4  -7   46.80    8.50
   4   4   7   68.79   18.60
   4   4   7   59.59   12.50
   4   4   7   44.20    6.80
   4   4   7   50.69   11.20
  -5  -4  -7   13.90    8.80
  -5  -4  -7   12.70    4.80
   5   4   7   14.90   10.40
   5   4   7   31.90    9.70
   5   4   7   18.50    8.90
  -6  -4  -7  -16.00   15.90
  -6  -4  -7   -4.70    5.00
   6   4   7    6.60    9.30
   6   4   7  -14.50    9.90
  -7  -4  -7   16.90   16.60
  -7  -4  -7   13.10   13.50
  -7  -4  -7    1.60    6.00
   7   4   7   -0.40   16.10
   7   4   7    4.80   10.50
  -8  -4  -7  137.69   29.70
  -8  -4  -7  190.98   31.80
  -8  -4  -7  117.39   13.90
  -9  -4  -7   45.30   21.00
  -9  -4  -7   64.39   24.20
  -9  -4  -7   20.10    8.30
   9   4   7    6.40   15.90
   4  -5  -7   38.30   19.70
   4  -5  -7   22.00   21.00
  -4   5   7   54.09   17.00
   3  -5  -7  -13.20   15.60
   3  -5  -7    2.90   14.60
  -3   5   7   13.90   12.50
   2  -5  -7    4.50    4.80
   2  -5  -7    6.70   14.00
   2  -5  -7   18.70   10.50
  -2   5   7    4.70   14.90
  -2   5   7    7.20    9.50
   1  -5  -7  183.28   11.80
   1  -5  -7  188.48   18.50
   1  -5  -7  204.88   25.80
  -1   5   7  156.88   18.40
  -1   5   7  197.28   13.50
  -1   5   7  180.28   22.40
   0  -5  -7   12.90    6.50
   0  -5  -7    7.60   10.90
   0  -5  -7   17.80   10.60
   0   5   7    6.60   10.90
   0   5   7   -3.80   14.10
   0   5   7    2.40   11.20
   0   5   7    6.70    7.70
  -1  -5  -7   -2.90   10.80
  -1  -5  -7  -14.50   11.00
  -1  -5  -7    5.40    8.90
  -1  -5  -7    0.80    5.30
   1   5   7    0.80    6.00
   1   5   7   -5.80   10.50
   1   5   7    0.10    8.30
   1   5   7   -0.10    8.10
   1   5   7  -16.00   11.50
   1   5   7    6.00   10.70
  -2  -5  -7    3.60    4.90
  -2  -5  -7   -2.40   11.00
  -2  -5  -7    6.70    9.30
  -2  -5  -7  -12.40   11.70
   2   5   7    0.30    6.10
   2   5   7   -1.20    7.00
   2   5   7   17.30   10.20
   2   5   7    0.30   11.00
   2   5   7    5.60    8.30
   2   5   7   -1.00   10.70
  -3  -5  -7   37.20    9.20
  -3  -5  -7   36.90   12.10
  -3  -5  -7   40.80   12.70
  -3  -5  -7   34.40    6.20
  -3  -5  -7   19.80   10.80
   3   5   7   35.40    7.80
   3   5   7   21.70    7.50
   3   5   7   48.70   10.60
   3   5   7   44.00   12.00
  -4  -5  -7  180.28   16.70
  -4  -5  -7  153.98   11.10
  -4  -5  -7  151.58   20.40
  -4  -5  -7  204.38   21.30
   4   5   7  173.88   15.90
   4   5   7  175.08   13.80
   4   5   7  202.68   20.80
   4   5   7  176.88   21.00
  -5  -5  -7  -14.40   14.40
  -5  -5  -7   -8.10    8.30
  -5  -5  -7   -7.40    4.30
  -5  -5  -7   -3.30    7.50
   5   5   7   -4.20   10.60
   5   5   7    1.70    9.20
   5   5   7   13.70    8.30
  -6  -5  -7   -2.00   11.00
  -6  -5  -7   -3.80    5.00
  -6  -5  -7    4.30   13.70
   6   5   7   -1.90    8.80
   6   5   7   27.20   12.10
  -7  -5  -7   12.90    6.20
  -7  -5  -7   17.80   16.60
  -7  -5  -7    7.00   13.10
   7   5   7    4.00   13.90
   7   5   7    4.80   11.00
  -8  -5  -7   41.30   20.10
  -8  -5  -7   22.20    7.40
  -8  -5  -7   34.00   16.00
   8   5   7   -7.40   15.20
  -9  -5  -7   52.29    9.50
  -9  -5  -7   97.49   27.60
   9   5   7   25.30   16.70
   3  -6  -7  -18.20   17.30
  -3   6   7   27.30   13.90
   2  -6  -7    7.70    5.60
   2  -6  -7   33.20   12.10
   2  -6  -7    2.20   15.20
  -2   6   7   16.00   11.90
  -2   6   7   21.30   16.70
   1  -6  -7   15.40    5.40
   1  -6  -7   17.50   11.70
   1  -6  -7   -8.80   13.00
  -1   6   7    6.30   10.20
  -1   6   7   16.60   17.00
  -1   6   7   -1.70   12.00
   0  -6  -7   28.80   13.00
   0  -6  -7   15.70   12.30
   0   6   7   22.50   14.30
   0   6   7    2.30   10.90
  -1  -6  -7   20.40   12.50
  -1  -6  -7   33.00   10.30
  -1  -6  -7   17.70    5.50
   1   6   7   -3.70   11.30
   1   6   7    7.40   15.20
   1   6   7   19.10   13.30
  -2  -6  -7   -1.10    8.80
  -2  -6  -7   -7.20   12.00
  -2  -6  -7    1.00    5.10
   2   6   7    9.70    4.90
   2   6   7    0.50    7.40
   2   6   7    9.00   12.20
   2   6   7   25.40   11.10
   2   6   7    7.10    8.30
  -3  -6  -7   80.29   10.20
   3   6   7  101.19   11.90
   3   6   7   94.29   14.30
   3   6   7   84.69   14.10
   3   6   7   95.39   21.20
  -4  -6  -7    6.30    7.80
  -4  -6  -7   -5.80    5.50
  -4  -6  -7   -9.80   20.90
   4   6   7   15.60   10.10
   4   6   7   13.60    7.30
   4   6   7    8.30   11.80
  -5  -6  -7   -2.40    7.10
  -5  -6  -7    0.20    8.60
  -5  -6  -7   -9.00   12.30
  -5  -6  -7   -5.60    5.30
   5   6   7   17.20    8.50
  -6  -6  -7   -0.10    0.70
  -6  -6  -7   -0.60    5.50
  -6  -6  -7    7.90   10.50
  -6  -6  -7    5.00   14.80
   6   6   7   -7.90   10.00
   6   6   7  -14.00   12.70
  -7  -6  -7   27.50   16.50
  -7  -6  -7    2.60    6.10
  -7  -6  -7    6.50   12.00
   7   6   7   -8.30   10.50
  -8  -6  -7   14.70   15.30
  -8  -6  -7   11.40    7.30
   8   6   7   -5.40   12.70
  -9  -6  -7   55.39   27.00
   2  -7  -7   11.00    6.50
   2  -7  -7   -1.20   17.20
  -2   7   7   36.50   20.50
  -2   7   7    4.10   12.90
   1  -7  -7   14.50   13.30
   1  -7  -7    5.90   15.40
   1  -7  -7    3.40    5.50
  -1   7   7   14.30   11.40
  -1   7   7   35.90   17.90
   0  -7  -7    4.80    5.90
   0  -7  -7    2.20   12.90
   0   7   7   -1.20   10.90
   0   7   7   37.60   17.00
  -1  -7  -7   15.30    6.00
  -1  -7  -7   24.70   12.90
  -1  -7  -7   25.30   14.10
   1   7   7   22.00   14.70
   1   7   7    8.00   11.00
  -2  -7  -7   33.60    6.00
  -2  -7  -7   39.80   24.90
  -3  -7  -7   20.80    6.20
  -3  -7  -7    7.70    9.60
  -3  -7  -7   26.40   14.60
   3   7   7   17.20   15.40
   3   7   7   12.50   12.00
   3   7   7   25.80    7.90
  -4  -7  -7   81.39   16.70
  -4  -7  -7   69.69    9.20
  -4  -7  -7   56.19   10.60
  -5  -7  -7    5.30    8.20
  -5  -7  -7    8.10   15.20
  -5  -7  -7   -0.10    9.00
  -5  -7  -7    0.40   10.10
  -5  -7  -7    4.60    6.10
   5   7   7   -2.90   11.10
   5   7   7    5.00   14.00
   5   7   7   29.10   13.30
  -6  -7  -7   14.80    6.30
  -6  -7  -7   12.10   14.70
   6   7   7   -7.70   11.50
   6   7   7   -7.50   14.80
  -7  -7  -7    0.80    6.10
  -7  -7  -7   28.30   18.50
  -7  -7  -7   17.80   12.40
   7   7   7  -13.60   11.40
  -8  -7  -7    4.80    7.00
  -8  -7  -7   23.20   21.10
  -8  -7  -7   24.00   16.20
  -2   8   7   47.00   15.40
  -2   8   7   60.19   28.60
   1  -8  -7    8.30   17.00
   1  -8  -7    8.80    6.60
   1  -8  -7    4.40   14.80
  -1   8   7   32.60   25.70
  -1   8   7   12.90   12.50
   0  -8  -7   27.30   16.20
   0  -8  -7    8.70   14.60
   0  -8  -7   10.00    6.40
   0   8   7   15.70   11.50
   0   8   7   43.70   18.10
  -1  -8  -7   20.90   16.10
  -1  -8  -7    1.00   12.60
  -1  -8  -7   -6.00    6.30
   1   8   7    0.30   10.50
   1   8   7   16.80   17.20
  -2  -8  -7   16.70   13.10
  -2  -8  -7   37.60   16.30
  -2  -8  -7   21.40    6.90
   2   8   7    6.30   12.40
   2   8   7   28.30   16.00
  -3  -8  -7   -4.30    5.30
  -3  -8  -7  -13.80   11.10
  -3  -8  -7    4.30   15.40
   3   8   7    5.10   16.30
   3   8   7   -9.00   11.50
  -4  -8  -7   15.50   10.30
  -4  -8  -7   29.10   16.90
  -4  -8  -7    4.50    5.60
  -4  -8  -7   26.10   11.20
   4   8   7    4.80   15.60
  -5  -8  -7   18.40   10.60
  -5  -8  -7   13.20    8.70
  -5  -8  -7   11.90    6.50
  -5  -8  -7   29.50   17.10
   5   8   7    2.60   12.40
   5   8   7   -3.30   16.00
  -6  -8  -7   24.60   15.70
  -6  -8  -7   35.10   18.90
  -6  -8  -7   23.80    7.20
   6   8   7   -5.30   16.40
  -7  -8  -7   24.20   13.30
  -7  -8  -7   32.10   19.30
  -7  -8  -7    7.00    7.40
   7   8   7  -18.50   18.80
  -8  -8  -7    0.40    7.10
  -8  -8  -7   13.50   18.40
  -8  -8  -7   47.20   24.30
   0  -9  -7   49.30   19.10
   0   9   7   44.80   14.60
   0   9   7   55.99   21.80
  -1  -9  -7   -1.50   16.80
  -1  -9  -7   10.00   15.40
  -1  -9  -7   11.30    7.20
   1   9   7   -8.80   11.70
   1   9   7   17.60   19.60
  -2  -9  -7    1.60    6.90
  -2  -9  -7   26.40   18.60
  -2  -9  -7    3.50   13.30
   2   9   7    9.10   12.30
   2   9   7    9.80   18.10
  -3  -9  -7   44.70   14.90
  -3  -9  -7   28.90    7.70
  -3  -9  -7   34.90   18.90
   3   9   7   41.10   19.70
   3   9   7   18.00   12.80
  -4  -9  -7    4.10    7.00
  -4  -9  -7   -0.20   13.30
  -4  -9  -7    8.20   18.90
   4   9   7  -16.40   13.20
   4   9   7   -6.80   18.00
  -5  -9  -7    6.90    6.80
  -5  -9  -7   12.00   19.80
   5   9   7  -12.90   18.10
  -6  -9  -7   -5.80    6.80
  -6  -9  -7   13.20   20.60
   6   9   7  -15.50   18.90
  -7  -9  -7   30.50   14.10
  -7  -9  -7   34.50   22.60
  -1 -10  -7   16.20   21.90
  -1 -10  -7  -27.30   18.30
  -1 -10  -7   -2.60   13.20
   1  10   7   17.70   14.50
   1  10   7    1.50   21.70
  -2 -10  -7   -1.80    8.10
  -2 -10  -7   -8.60   21.60
  -2 -10  -7  -11.10   18.80
   2  10   7   14.20   21.90
   2  10   7    2.40   13.00
  -3 -10  -7   15.90   22.10
  -3 -10  -7   14.20    8.30
  -3 -10  -7   15.10   17.20
   3  10   7   21.80   21.10
   3  10   7    6.90   13.60
  -4 -10  -7    4.70   22.10
  -4 -10  -7  -10.90   16.60
  -4 -10  -7    2.80    8.10
   4  10   7   26.90   22.00
  -5 -10  -7    3.30   22.60
  -5 -10  -7    9.20    9.00
  -5 -10  -7    9.40   16.10
   1   5  -8  180.28   17.00
  -1  -5   8  197.88   38.10
   0   5  -8  132.79   16.20
   0  -5   8  163.38   31.00
  -1   5  -8  262.87   22.10
  -1   5  -8  245.58   40.80
   1  -5   8  315.27   38.60
  -2   5  -8   85.49   22.30
   2  -5   8   65.49   28.90
   3   4  -8  285.77   18.70
  -3  -4   8  309.67   37.90
   2   4  -8  235.68   39.90
   2   4  -8  288.67   19.90
  -2  -4   8  328.67   36.60
   1   4  -8  322.67   18.90
   1   4  -8  258.97   37.00
  -1  -4   8  239.58   53.79
  -1  -4   8  352.36   34.90
   0   4  -8  182.38   15.80
   0   4  -8  135.69   23.10
   0  -4   8  207.88   32.70
   0  -4   8  245.68   32.40
  -1   4  -8  114.59   20.80
  -1   4  -8  152.58   15.20
   1  -4   8   81.09   26.10
  -2   4  -8  651.73   46.70
  -2   4  -8  699.43   31.60
   2  -4   8  628.54   52.79
   2  -4   8  752.02   45.80
  -3   4  -8  279.57   40.10
  -3   4  -8  284.57   19.10
   3  -4   8  362.96   37.20
  -4   4  -8  137.09   18.60
  -4   4  -8  111.69   24.50
   4  -4   8  107.39   28.30
   3   3  -8  254.17   18.80
   3   3  -8  266.47   36.30
  -3  -3   8  264.27   33.10
   2   3  -8  382.36   39.90
   2   3  -8  374.36   23.80
  -2  -3   8  286.87   43.40
  -2  -3   8  443.66   34.30
   1   3  -8  535.85   25.00
   1   3  -8  525.45   40.50
  -1  -3   8  474.35   43.40
  -1  -3   8  550.74   36.90
  -1  -3   8  585.74   26.20
   0   3  -8  280.57   33.00
   0   3  -8  268.87   17.00
   0  -3   8  273.77   18.00
   0  -3   8  248.18   38.60
   0  -3   8  319.97   28.70
  -1   3  -8  288.37   17.60
  -1   3  -8  297.47   32.10
   1  -3   8  251.87   20.00
   1  -3   8  333.17   29.90
   1  -3   8  258.87   37.70
  -2   3  -8  748.53   44.30
  -2   3  -8  777.12   32.40
   2  -3   8  820.42   44.00
   2  -3   8  621.24   34.30
   2  -3   8  741.33   49.70
  -3   3  -8  261.07   16.90
  -3   3  -8  265.27   32.80
   3  -3   8  182.18   21.00
   3  -3   8  180.98   45.60
  -4   3  -8  165.88   15.80
  -4   3  -8  212.58   32.90
   4  -3   8  148.89   39.30
   4  -3   8  210.08   21.10
  -5   3  -8   81.69   20.10
  -5   3  -8   99.69   14.90
   5  -3   8   84.49   26.00
   4   2  -8  233.88   37.20
  -4  -2   8  219.38   36.90
   3   2  -8   53.49   17.90
   3   2  -8   65.39    8.00
  -3  -2   8   46.10   23.50
   2   2  -8  161.58   32.00
   2   2  -8  190.78   13.80
  -2  -2   8  193.58   27.30
  -2  -2   8  230.18   18.00
  -2  -2   8  137.99   24.80
   1   2  -8  497.85   29.10
   1   2  -8  546.75   37.50
   1   2  -8  559.64   24.60
  -1  -2   8  513.05   42.50
  -1  -2   8  582.64   28.00
  -1  -2   8  595.94   36.90
   0   2  -8  160.78   16.50
   0   2  -8  168.08   27.10
   0   2  -8  164.68   12.90
   0  -2   8  151.28   17.20
   0  -2   8  119.69   31.60
  -1   2  -8  427.56   22.50
  -1   2  -8  402.76   20.10
  -1   2  -8  372.06   32.50
   1  -2   8  394.96   37.60
   1  -2   8  384.26   24.60
  -2   2  -8  540.25   26.00
  -2   2  -8  516.45   24.20
  -2   2  -8  547.85   36.20
   2  -2   8  453.05   28.10
   2  -2   8  510.35   39.60
  -3   2  -8  287.97   16.50
  -3   2  -8  276.97   30.20
   3  -2   8  322.67   34.70
   3  -2   8  262.47   27.10
  -4   2  -8  496.25   36.70
  -4   2  -8  509.85   24.90
   4  -2   8  502.55   42.40
   4  -2   8  565.44   29.30
  -5   2  -8  200.28   16.00
  -5   2  -8  222.78   31.50
   5  -2   8  212.58   35.00
   5  -2   8  194.28   22.10
  -6   2  -8  218.38   16.90
   6  -2   8  165.28   23.50
   4   1  -8  371.66   41.10
   4   1  -8  464.35   39.80
  -4  -1   8  472.15   29.70
  -4  -1   8  340.77   40.90
   3   1  -8   25.60    6.00
   3   1  -8    9.60   17.00
   3   1  -8   11.50   10.70
  -3  -1   8   -8.30   18.40
  -3  -1   8   46.60   16.20
   2   1  -8  342.67   32.40
   2   1  -8  308.87   20.40
   2   1  -8  359.56   17.50
  -2  -1   8  379.06   24.60
  -2  -1   8  389.16   24.00
  -2  -1   8  362.36   24.90
  -2  -1   8  277.37   36.20
   1   1  -8  620.14   25.60
   1   1  -8  619.54   38.00
   1   1  -8  544.55   30.70
  -1  -1   8  642.04   30.60
  -1  -1   8  581.04   42.20
   0   1  -8  883.21   46.20
   0   1  -8  919.11   42.40
   0   1  -8  879.11   35.40
   0  -1   8  880.11   49.50
   0  -1   8  915.71   40.20
  -1   1  -8  562.94   28.40
  -1   1  -8  579.94   24.70
  -1   1  -8  597.34   39.30
   1  -1   8  583.84   40.00
   1  -1   8  551.84   30.40
  -2   1  -8  366.86   35.70
  -2   1  -8  305.07   17.10
  -2   1  -8  324.27   28.70
  -2   1  -8  332.07   20.40
   2  -1   8  286.67   23.20
   2  -1   8  304.77   31.60
  -3   1  -8  753.42   37.60
  -3   1  -8  622.74   28.00
  -3   1  -8  652.53   31.00
  -3   1  -8  694.83   40.50
   3  -1   8  636.74   32.70
   3  -1   8  656.83   41.40
  -4   1  -8  564.44   33.80
  -4   1  -8  527.05   25.10
  -4   1  -8  523.75   37.80
   4  -1   8  522.45   39.60
   4  -1   8  597.74   29.80
  -5   1  -8  446.96   37.10
  -5   1  -8  399.06   30.40
  -5   1  -8  393.96   20.30
   5  -1   8  388.16   22.00
   5  -1   8  423.56   36.40
   5  -1   8  398.66   26.80
  -6   1  -8  333.77   19.20
  -6   1  -8  328.17   38.00
   6  -1   8  314.97   26.40
   6  -1   8  314.67   25.20
  -7   1  -8   98.29   15.80
  -7   1  -8  124.19   30.20
   7  -1   8   76.09   16.10
   4   0  -8  227.88   36.80
   4   0  -8  261.17   35.90
  -4   0   8  291.57   34.20
  -4   0   8  347.57   27.70
   3   0  -8  235.78   13.60
   3   0  -8  205.08   32.70
   3   0  -8  247.38   23.50
  -3   0   8  264.97   23.80
  -3   0   8  209.58   32.00
  -3   0   8  269.87   20.90
   2   0  -8  293.67   19.80
   2   0  -8  348.07   24.40
   2   0  -8  309.17   15.70
   2   0  -8  280.57   31.20
  -2   0   8  256.47   33.20
  -2   0   8  311.07   24.40
  -2   0   8  354.66   28.20
   1   0  -8  419.16   32.50
   1   0  -8  413.86   19.10
   1   0  -8  415.86   20.20
  -1   0   8  459.65   26.10
  -1   0   8  408.86   34.00
  -1   0   8  435.66   26.00
   0   0  -8 1009.50   43.90
   0   0  -8 1012.10   45.80
   0   0  -8 1009.90   40.50
   0   0   8 1036.60   53.79
   0   0   8 1035.30   44.50
   0   0   8  958.30   44.40
  -1   0  -8  442.96   30.40
  -1   0  -8  475.85   21.20
  -1   0  -8  494.05   31.30
  -1   0  -8  446.66   25.70
   1   0   8  512.65   36.30
   1   0   8  456.65   27.90
  -2   0  -8  199.38   23.40
  -2   0  -8  227.68   24.40
  -2   0  -8  194.48   17.50
  -2   0  -8  216.08   13.60
   2   0   8  222.68   21.30
   2   0   8  221.08   28.70
   2   0   8  217.68   28.40
  -3   0  -8 1376.46   56.29
  -3   0  -8 1303.77   50.49
  -3   0  -8 1352.46   53.69
   3   0   8 1364.46   55.09
   3   0   8 1266.77   56.39
  -4   0  -8  368.46   26.80
  -4   0  -8  364.46   19.00
  -4   0  -8  390.26   31.70
   4   0   8  368.46   31.60
   4   0   8  349.37   16.60
   4   0   8  425.06   25.20
   4   0   8  380.86   32.00
  -5   0  -8  777.92   44.60
  -5   0  -8  735.13   31.30
  -5   0  -8  738.53   37.10
   5   0   8  798.72   42.90
   5   0   8  732.73   33.20
   5   0   8  671.93   36.50
   5   0   8  739.53   37.10
   5   0   8  791.92   36.80
  -6   0  -8  380.76   19.80
  -6   0  -8  394.66   36.60
   6   0   8  364.86   26.30
   6   0   8  339.87   24.80
  -7   0  -8   89.59   13.00
  -7   0  -8  100.99   25.60
   7   0   8  107.29   23.80
   4  -1  -8  192.28   38.80
   4  -1  -8  250.67   30.30
  -4   1   8  290.77   28.50
  -4   1   8  258.47   33.40
   3  -1  -8  465.05   28.90
   3  -1  -8  378.56   37.50
  -3   1   8  453.55   31.70
  -3   1   8  482.55   30.50
  -3   1   8  404.16   34.90
   2  -1  -8  416.56   24.10
   2  -1  -8  407.36   18.20
   2  -1  -8  425.56   26.30
   2  -1  -8  406.46   33.60
  -2   1   8  342.87   32.50
  -2   1   8  360.56   26.60
  -2   1   8  414.96   26.70
   1  -1  -8  269.27   16.70
   1  -1  -8  258.67   19.10
   1  -1  -8  237.48   21.20
   1  -1  -8  200.58   27.90
   1  -1  -8  254.37   13.80
  -1   1   8  271.07   20.20
  -1   1   8  295.57   29.60
  -1   1   8  291.97   21.80
   0  -1  -8  707.43   35.40
   0  -1  -8  720.83   35.80
   0  -1  -8  732.43   29.50
   0  -1  -8  674.13   29.60
   0  -1  -8  728.33   39.50
   0   1   8  759.92   41.00
   0   1   8  721.83   34.60
   0   1   8  739.43   35.70
  -1  -1  -8  345.17   27.50
  -1  -1  -8  332.47   16.60
  -1  -1  -8  321.97   21.90
  -1  -1  -8  338.77   25.60
   1   1   8  333.47   24.10
   1   1   8  329.97   23.20
   1   1   8  334.47   30.30
  -2  -1  -8  564.64   32.70
  -2  -1  -8  544.95   31.80
  -2  -1  -8  546.45   23.30
  -2  -1  -8  545.15   27.90
   2   1   8  507.25   31.80
   2   1   8  549.05   34.20
   2   1   8  555.84   30.10
  -3  -1  -8  570.74   25.70
  -3  -1  -8  633.64   35.00
  -3  -1  -8  612.04   29.70
  -3  -1  -8  581.44   32.30
   3   1   8  562.74   34.30
   3   1   8  590.34   31.20
   3   1   8  701.73   36.70
  -4  -1  -8   53.69    8.80
  -4  -1  -8   51.49   27.40
  -4  -1  -8   61.99   11.20
   4   1   8   79.69   16.70
   4   1   8   54.49   11.30
  -5  -1  -8  353.26   18.50
  -5  -1  -8  366.96   23.30
  -5  -1  -8  372.66   31.70
   5   1   8  357.06   26.10
   5   1   8  336.07   21.20
   5   1   8  323.87   25.40
   5   1   8  389.36   30.40
  -6  -1  -8  379.16   34.00
  -6  -1  -8  324.57   18.50
   6   1   8  406.36   33.20
   6   1   8  330.27   25.10
   6   1   8  288.27   23.80
  -7  -1  -8  186.88   14.70
  -7  -1  -8  188.78   33.00
   7   1   8  169.58   24.20
   7   1   8  200.18   24.40
  -8  -1  -8  195.38   39.10
  -8  -1  -8  148.59   14.60
   8   1   8  160.68   27.80
   4  -2  -8  274.37   33.20
  -4   2   8  288.77   31.90
  -4   2   8  318.07   30.00
   3  -2  -8  631.34   35.40
   3  -2  -8  577.04   43.50
  -3   2   8  618.64   35.60
  -3   2   8  658.93   38.70
   2  -2  -8   99.19    9.70
   2  -2  -8  135.39   18.90
   2  -2  -8  101.89   16.90
   2  -2  -8   75.99   17.00
   2  -2  -8  107.49   20.50
  -2   2   8   94.49   19.60
  -2   2   8   98.99   16.40
  -2   2   8   91.29   23.60
   1  -2  -8  508.95   25.40
   1  -2  -8  482.25   27.30
   1  -2  -8  470.05   33.80
   1  -2  -8  472.25   27.60
   1  -2  -8  488.55   21.00
   1  -2  -8  502.05   31.00
  -1   2   8  483.85   33.20
  -1   2   8  478.55   26.30
   0  -2  -8   71.49   16.10
   0  -2  -8   64.09    9.30
   0  -2  -8   50.39    9.80
   0  -2  -8   66.49   13.30
   0   2   8   96.09   19.10
   0   2   8   94.09   22.90
   0   2   8   81.19   15.40
  -1  -2  -8  361.86   24.00
  -1  -2  -8  409.86   27.70
  -1  -2  -8  442.36   26.30
  -1  -2  -8  395.76   18.80
  -1  -2  -8  417.46   28.60
  -1  -2  -8  424.36   26.90
   1   2   8  411.86   25.00
   1   2   8  415.36   30.90
   1   2   8  395.06   26.30
   1   2   8  405.66   27.70
  -2  -2  -8 1279.67   47.60
  -2  -2  -8 1301.57   52.69
  -2  -2  -8 1338.17   54.39
  -2  -2  -8 1263.07   47.60
  -2  -2  -8 1274.47   54.49
   2   2   8 1225.28   52.29
   2   2   8 1206.28   53.49
   2   2   8 1241.88   53.59
   2   2   8 1288.77   55.99
  -3  -2  -8  404.66   18.40
  -3  -2  -8  399.86   27.90
  -3  -2  -8  383.26   18.80
  -3  -2  -8  381.16   26.50
  -3  -2  -8  428.26   29.20
   3   2   8  354.96   23.60
   3   2   8  364.06   25.40
   3   2   8  339.67   24.50
   3   2   8  420.56   26.00
   3   2   8  420.36   28.00
  -4  -2  -8  343.67   27.60
  -4  -2  -8  307.97   22.70
  -4  -2  -8  354.86   19.30
  -4  -2  -8  327.27   17.80
   4   2   8  311.77   21.50
   4   2   8  401.46   29.00
   4   2   8  330.37   20.20
   4   2   8  404.96   24.20
  -5  -2  -8  204.08   17.30
  -5  -2  -8  209.38   13.30
  -5  -2  -8  217.08   17.30
  -5  -2  -8  221.38   26.00
   5   2   8  208.08   18.50
   5   2   8  264.27   25.40
   5   2   8  206.48   16.90
   5   2   8  247.28   23.00
  -6  -2  -8  506.55   28.90
  -6  -2  -8  506.55   23.90
  -6  -2  -8  527.45   36.40
   6   2   8  491.35   30.20
   6   2   8  586.94   35.10
   6   2   8  540.85   31.00
  -7  -2  -8  544.15   26.20
  -7  -2  -8  592.94   41.10
   7   2   8  663.53   38.70
   7   2   8  507.95   34.00
   7   2   8  571.24   33.90
  -8  -2  -8  124.99   27.70
  -8  -2  -8  102.09   13.00
   8   2   8   74.99   18.10
   8   2   8   65.89   16.20
   4  -3  -8  250.57   34.00
   4  -3  -8  188.48   30.70
  -4   3   8  271.27   30.10
   3  -3  -8  514.45   42.20
   3  -3  -8  536.85   36.10
  -3   3   8  543.35   37.20
  -3   3   8  537.65   34.50
   2  -3  -8  280.47   21.70
   2  -3  -8  311.87   24.40
   2  -3  -8  273.37   14.20
   2  -3  -8  238.38   27.60
   2  -3  -8  262.17   31.00
  -2   3   8  262.47   24.70
  -2   3   8  247.28   25.30
   1  -3  -8  849.72   44.40
   1  -3  -8  854.21   32.70
   1  -3  -8  756.82   40.70
   1  -3  -8  873.71   38.10
  -1   3   8  868.61   41.70
  -1   3   8  811.32   37.50
  -1   3   8  829.92   41.60
   0  -3  -8  520.85   33.30
   0  -3  -8  535.35   28.30
   0  -3  -8  490.75   28.60
   0  -3  -8  550.04   28.80
   0  -3  -8  519.75   21.90
   0   3   8  508.35   26.70
   0   3   8  520.35   31.30
   0   3   8  515.15   27.80
   0   3   8  488.45   32.20
  -1  -3  -8  546.25   23.50
  -1  -3  -8  584.14   32.60
  -1  -3  -8  545.85   30.80
  -1  -3  -8  615.14   29.70
  -1  -3  -8  499.25   28.30
   1   3   8  558.44   30.40
   1   3   8  581.14   32.40
   1   3   8  543.75   27.10
   1   3   8  589.04   33.40
   1   3   8  557.94   32.90
  -2  -3  -8 1135.29   45.60
  -2  -3  -8 1223.98   49.90
  -2  -3  -8 1111.69   49.20
  -2  -3  -8 1135.69   42.80
   2   3   8 1065.59   47.10
   2   3   8 1132.39   49.90
   2   3   8 1076.19   48.80
   2   3   8 1133.39   45.00
   2   3   8 1105.79   49.90
  -3  -3  -8  390.56   18.40
  -3  -3  -8  422.16   22.00
  -3  -3  -8  393.56   28.10
  -3  -3  -8  417.96   27.00
   3   3   8  421.06   27.80
   3   3   8  436.26   27.30
   3   3   8  419.56   22.70
   3   3   8  378.46   23.20
   3   3   8  354.46   24.90
  -4  -3  -8  720.43   31.90
  -4  -3  -8  663.33   28.80
  -4  -3  -8  675.83   33.20
  -4  -3  -8  701.03   37.70
   4   3   8  725.83   32.80
   4   3   8  731.23   37.70
   4   3   8  727.93   41.30
   4   3   8  765.22   35.90
   4   3   8  652.63   37.80
  -5  -3  -8   47.00    9.10
  -5  -3  -8   36.60    6.80
  -5  -3  -8   26.00    7.60
  -5  -3  -8   59.59   17.10
   5   3   8   36.20   10.40
   5   3   8   49.50   14.80
   5   3   8   31.20    7.10
   5   3   8   44.70   11.50
  -6  -3  -8  392.66   31.50
  -6  -3  -8  363.96   19.20
  -6  -3  -8  366.96   25.50
   6   3   8  377.16   26.90
   6   3   8  324.67   26.30
   6   3   8  418.36   29.10
  -7  -3  -8  622.24   40.50
  -7  -3  -8  571.04   26.30
   7   3   8  583.24   34.80
   7   3   8  572.44   35.00
  -8  -3  -8   51.39    8.70
  -8  -3  -8   74.89   24.10
   8   3   8   43.40   14.90
   4  -4  -8  236.48   45.10
   4  -4  -8  160.68   35.60
   3  -4  -8  212.78   30.40
  -3   4   8  266.67   23.60
  -3   4   8  220.38   28.60
   2  -4  -8  450.75   37.00
   2  -4  -8  482.85   21.10
   2  -4  -8  500.25   25.60
  -2   4   8  448.36   31.20
  -2   4   8  519.85   29.90
   1  -4  -8  401.56   18.90
   1  -4  -8  388.16   32.40
   1  -4  -8  438.96   25.50
   1  -4  -8  410.96   25.30
  -1   4   8  367.96   25.10
  -1   4   8  450.65   28.40
  -1   4   8  408.66   26.90
  -1   4   8  447.56   30.00
   0  -4  -8  676.43   57.29
   0  -4  -8  837.72   35.10
   0  -4  -8  833.82   37.50
   0  -4  -8  734.93   39.00
   0  -4  -8  770.52   30.80
   0   4   8  742.03   36.30
   0   4   8  790.52   40.10
   0   4   8  795.72   37.70
   0   4   8  810.92   37.80
  -1  -4  -8  328.97   24.60
  -1  -4  -8  339.57   26.80
  -1  -4  -8  277.27   24.00
  -1  -4  -8  341.27   15.70
   1   4   8  350.56   27.00
   1   4   8  345.87   25.10
   1   4   8  330.27   23.20
   1   4   8  326.97   23.00
  -2  -4  -8   81.09    8.50
  -2  -4  -8   58.89   11.80
  -2  -4  -8   84.29   18.80
  -2  -4  -8   87.09   12.60
   2   4   8   69.29   17.00
   2   4   8   87.49   17.80
   2   4   8   71.69   11.10
   2   4   8   83.29   15.80
   2   4   8   84.89   19.30
  -3  -4  -8  703.43   34.30
  -3  -4  -8  739.33   35.70
  -3  -4  -8  717.03   29.00
  -3  -4  -8  738.93   37.40
   3   4   8  681.23   32.30
   3   4   8  694.33   34.10
   3   4   8  683.63   33.30
   3   4   8  735.73   36.10
   3   4   8  718.13   35.50
  -4  -4  -8  957.90   42.90
  -4  -4  -8 1017.40   42.60
  -4  -4  -8  979.30   38.60
  -4  -4  -8 1008.80   46.60
   4   4   8  953.30   45.00
   4   4   8  975.00   44.40
   4   4   8 1029.30   45.10
   4   4   8  948.91   43.10
   4   4   8 1011.90   43.30
  -5  -4  -8  100.89   22.20
  -5  -4  -8   66.89    9.50
  -5  -4  -8   93.79   17.60
  -5  -4  -8   90.09   10.40
   5   4   8   67.99   12.90
   5   4   8   81.69   18.80
  -6  -4  -8  141.19   25.50
  -6  -4  -8  150.58   12.60
   6   4   8  141.29   20.60
   6   4   8  137.69   22.70
  -7  -4  -8  216.18   30.10
  -7  -4  -8  166.58   14.70
   7   4   8  167.18   24.00
  -8  -4  -8   53.49    8.80
  -8  -4  -8   75.79   20.80
   8   4   8   33.50   16.80
   8   4   8   25.90   13.70
  -9  -4  -8  138.29   16.00
   3  -5  -8   64.69   21.40
   3  -5  -8   88.99   20.80
   2  -5  -8  434.06   20.60
   2  -5  -8  501.15   30.20
   2  -5  -8  406.36   38.40
  -2   5   8  489.65   30.00
  -2   5   8  440.06   32.30
   1  -5  -8  302.87   15.70
   1  -5  -8  279.07   30.70
   1  -5  -8  315.77   23.10
  -1   5   8  298.27   20.40
  -1   5   8  244.08   23.80
  -1   5   8  355.96   44.50
  -1   5   8  315.77   26.70
   0  -5  -8 1019.90   48.20
   0  -5  -8 1009.20   43.80
   0  -5  -8  980.30   37.70
   0   5   8  991.50   46.70
   0   5   8  987.90   46.60
   0   5   8  962.40   41.20
   0   5   8  895.31   43.40
  -1  -5  -8  373.76   25.50
  -1  -5  -8  384.56   17.60
   1   5   8  347.37   30.00
   1   5   8  341.17   24.80
   1   5   8  384.66   28.20
   1   5   8  355.76   27.70
   1   5   8  375.06   21.80
  -2  -5  -8   10.00    9.80
  -2  -5  -8   17.50   13.30
  -2  -5  -8    3.40    5.10
   2   5   8   -1.90   13.50
   2   5   8    7.50    8.40
   2   5   8   -0.10    9.70
   2   5   8   -2.10   10.70
   2   5   8    8.40    7.30
  -3  -5  -8  576.04   24.70
  -3  -5  -8  614.14   33.20
  -3  -5  -8  562.24   31.40
  -3  -5  -8  508.25   32.20
   3   5   8  582.04   28.80
   3   5   8  573.34   27.80
   3   5   8  603.24   30.70
   3   5   8  574.34   32.10
   3   5   8  568.64   34.60
  -4  -5  -8  402.76   28.00
  -4  -5  -8  470.85   26.70
  -4  -5  -8  438.26   20.30
   4   5   8  423.56   22.70
   4   5   8  467.55   25.00
   4   5   8  491.95   28.00
  -5  -5  -8  292.47   21.30
  -5  -5  -8  330.77   17.40
  -5  -5  -8  352.46   28.70
   5   5   8  331.37   18.30
   5   5   8  312.17   25.40
   5   5   8  379.96   25.30
   5   5   8  339.27   26.30
  -6  -5  -8   15.20    6.70
  -6  -5  -8   33.30   16.90
   6   5   8   35.20   13.10
   6   5   8    6.10   10.80
  -7  -5  -8   44.50    7.70
  -7  -5  -8   57.79   15.50
   7   5   8   48.90   16.10
   7   5   8   58.79   14.40
  -8  -5  -8  286.07   36.20
  -8  -5  -8  225.78   17.40
  -8  -5  -8  240.18   33.80
  -9  -5  -8  228.78   45.40
  -9  -5  -8  132.49   16.40
   3  -6  -8  230.88   40.40
   2  -6  -8  215.68   14.30
   2  -6  -8  175.68   36.10
  -2   6   8  269.37   28.60
   1  -6  -8  122.69   20.40
   1  -6  -8  156.38   12.30
   1  -6  -8  160.38   20.70
  -1   6   8  149.19   24.20
  -1   6   8  199.68   27.80
   0  -6  -8  571.54   37.40
   0  -6  -8  609.14   32.60
   0  -6  -8  553.04   24.50
   0   6   8  576.14   35.40
   0   6   8  526.85   49.10
  -1  -6  -8  526.25   33.30
  -1  -6  -8  540.95   30.00
  -1  -6  -8  439.76   20.90
   1   6   8  407.76   23.20
   1   6   8  561.74   33.40
   1   6   8  463.85   31.60
   1   6   8  447.76   21.60
  -2  -6  -8  270.97   23.90
  -2  -6  -8  236.18   13.50
   2   6   8  227.88   25.40
   2   6   8  238.98   24.40
   2   6   8  240.68   16.00
   2   6   8  203.98   18.70
  -3  -6  -8  501.65   35.00
  -3  -6  -8  522.15   22.30
  -3  -6  -8  484.05   29.50
   3   6   8  452.05   31.80
   3   6   8  487.95   26.20
   3   6   8  505.15   24.20
   3   6   8  461.85   31.50
   3   6   8  469.75   26.00
  -4  -6  -8  314.17   23.90
  -4  -6  -8  335.77   17.50
  -4  -6  -8  339.67   27.80
   4   6   8  396.96   25.40
   4   6   8  328.17   27.30
   4   6   8  272.87   26.30
   4   6   8  310.87   20.10
   4   6   8  361.66   20.80
  -5  -6  -8  676.43   32.30
  -5  -6  -8  637.44   28.20
  -5  -6  -8  695.43   38.90
   5   6   8  702.53   38.40
   5   6   8  712.13   33.40
   5   6   8  667.23   37.00
  -6  -6  -8  188.48   27.00
  -6  -6  -8  174.28   13.60
   6   6   8  161.38   23.40
   6   6   8  119.09   26.90
  -7  -6  -8   80.39   11.60
   7   6   8   46.40   14.40
  -8  -6  -8  326.57   37.70
  -8  -6  -8  283.37   18.00
  -8  -6  -8  320.27   34.30
   8   6   8  246.78   30.70
   2  -7  -8  106.09   12.60
   2  -7  -8   61.29   22.00
  -2   7   8  158.48   27.80
   1  -7  -8  164.48   34.50
   1  -7  -8  240.18   19.20
  -1   7   8  277.07   35.10
  -1   7   8  242.88   28.40
   0  -7  -8  250.87   28.00
   0  -7  -8  200.38   30.80
   0  -7  -8  208.98   15.10
   0   7   8  250.37   27.00
   0   7   8  257.37   30.30
  -1  -7  -8  722.13   39.10
  -1  -7  -8  662.13   43.10
  -1  -7  -8  679.53   29.30
   1   7   8  710.43   43.10
   1   7   8  702.73   38.80
  -2  -7  -8  525.55   34.40
  -2  -7  -8  563.04   33.70
  -2  -7  -8  532.75   24.10
   2   7   8  501.65   39.00
   2   7   8  530.85   34.30
  -3  -7  -8  158.68   12.10
  -3  -7  -8  184.48   24.00
   3   7   8  150.38   16.20
   3   7   8  191.78   13.90
  -4  -7  -8  137.29   21.30
  -4  -7  -8  135.69   11.20
  -4  -7  -8  173.08   23.60
   4   7   8  102.19   20.50
   4   7   8  107.49   24.80
  -5  -7  -8  232.08   26.50
  -5  -7  -8  224.18   14.80
  -5  -7  -8  209.38   21.20
   5   7   8  187.78   25.90
   5   7   8  171.98   29.40
  -6  -7  -8  200.18   13.90
   6   7   8  143.89   28.60
   6   7   8  119.89   25.60
  -7  -7  -8  222.68   31.60
  -7  -7  -8  185.48   26.70
  -7  -7  -8  168.78   14.80
  -8  -7  -8   42.10    8.00
  -8  -7  -8   77.19   19.70
   8   7   8   12.30   16.90
   1  -8  -8   49.40   20.00
   1  -8  -8  110.69   29.20
   1  -8  -8   81.49   12.20
  -1   8   8  123.49   28.00
   0  -8  -8   70.89   18.40
   0  -8  -8   20.20   17.60
   0  -8  -8   48.00    7.80
   0   8   8   35.10   14.00
   0   8   8   60.09   20.20
  -1  -8  -8  286.97   17.00
  -1  -8  -8  323.87   28.50
  -1  -8  -8  293.97   32.10
   1   8   8  266.87   28.40
   1   8   8  254.67   34.80
  -2  -8  -8  434.96   35.40
  -2  -8  -8  370.46   32.20
  -2  -8  -8  393.06   20.10
   2   8   8  379.46   34.40
   2   8   8  366.46   32.00
  -3  -8  -8   45.00   14.00
  -3  -8  -8   45.20    7.10
   3   8   8   31.30   13.90
   3   8   8   48.00   17.30
  -4  -8  -8  204.38   15.20
  -4  -8  -8  213.08   27.40
  -4  -8  -8  279.97   25.60
   4   8   8  160.88   31.90
   4   8   8  247.78   19.60
  -5  -8  -8   69.29   14.90
  -5  -8  -8   95.79   20.60
   5   8   8   30.00   18.00
   5   8   8   47.50   15.20
  -6  -8  -8  182.98   29.10
  -6  -8  -8  145.39   13.90
  -7  -8  -8  145.09   14.60
  -7  -8  -8  199.98   26.40
  -8  -8  -8   21.40    8.80
  -8  -8  -8   49.99   19.00
  -8  -8  -8   22.00   23.00
   0  -9  -8   61.99   28.40
   0   9   8   58.29   22.70
  -1  -9  -8   88.69   27.00
  -1  -9  -8  124.39   13.70
  -1  -9  -8  140.39   28.20
   1   9   8   99.39   23.00
   1   9   8   70.39   16.90
  -2  -9  -8  180.98   32.40
  -2  -9  -8  212.68   28.80
  -2  -9  -8  158.68   14.80
   2   9   8  165.98   27.70
   2   9   8  187.38   34.20
  -3  -9  -8  103.99   13.20
  -3  -9  -8   68.29   17.10
  -3  -9  -8  125.59   28.50
   3   9   8   72.19   16.30
   3   9   8   85.59   20.80
  -4  -9  -8  178.58   14.60
  -4  -9  -8  144.59   28.10
   4   9   8  123.99   19.30
   4   9   8  151.28   33.40
  -5  -9  -8   60.19    9.00
  -5  -9  -8   96.29   23.40
   5   9   8   59.49   21.10
  -6  -9  -8   51.39    8.90
   6   9   8    7.40   21.70
  -7  -9  -8   51.19    9.10
   7   9   8   13.70   22.50
  -2 -10  -8   29.20   13.90
  -2 -10  -8   64.09   24.50
   2  10   8   68.29   17.00
   2  10   8   75.89   27.50
  -3 -10  -8  108.39   21.50
   3  10   8  136.79   29.50
   3  10   8  116.99   28.80
  -4 -10  -8   89.69   19.90
   4  10   8  124.39   28.70
  -5 -10  -8  118.59   19.80
  -5 -10  -8   77.19   20.40
   5  10   8   71.89   30.20
   1   4  -9   11.10    8.70
  -1  -4   9   13.60   26.70
   0   4  -9   -2.80    8.50
   0   4  -9   15.00   21.20
   0  -4   9   48.10   24.80
  -1   4  -9  -12.50    8.70
  -1   4  -9  -12.80   19.60
   1  -4   9   20.40   25.70
  -2   4  -9  -17.60   20.10
   2  -4   9   48.70   26.40
  -3   4  -9    5.80   22.60
  -3   4  -9   22.90    9.90
   3  -4   9   20.70   37.00
   2   3  -9   -2.00    7.30
  -2  -3   9    1.10   23.20
   1   3  -9    3.60   18.50
   1   3  -9    4.90    7.80
  -1  -3   9   46.10   21.70
   0   3  -9   -2.80   17.90
   0   3  -9    1.20    6.90
   0  -3   9   17.90   20.00
  -1   3  -9   14.20   17.80
  -1   3  -9    7.90    7.50
   1  -3   9  -32.00   22.90
   1  -3   9   33.90   21.70
  -2   3  -9   23.40    8.70
  -2   3  -9   22.00   18.30
   2  -3   9   79.29   27.60
  -3   3  -9   10.30   18.10
  -3   3  -9   -4.40    8.20
   3  -3   9   52.19   24.10
  -4   3  -9   25.30    9.40
  -4   3  -9  -14.00   19.60
   4  -3   9   11.60   27.40
   3   2  -9   11.30    7.20
   2   2  -9   -5.50   17.10
   2   2  -9   19.70    7.50
  -2  -2   9   54.69   21.00
   1   2  -9    9.50    6.70
   1   2  -9   14.20   17.40
  -1  -2   9   23.70    8.50
  -1  -2   9   54.59   18.60
   0   2  -9   33.90    7.90
   0   2  -9   17.30   15.60
   0  -2   9   28.70    9.10
   0  -2   9   -4.10   20.80
  -1   2  -9   66.69   17.80
  -1   2  -9   74.89    9.30
   1  -2   9   47.50   11.40
   1  -2   9   50.69   22.50
  -2   2  -9   -6.20    6.90
  -2   2  -9   -7.90   15.00
   2  -2   9   -9.20   20.80
  -3   2  -9    2.10    7.80
  -3   2  -9   -4.50   15.70
   3  -2   9  -11.00   18.90
   3  -2   9  -12.80   10.80
  -4   2  -9    8.40    7.10
  -4   2  -9    5.80   17.00
   4  -2   9   -2.50   21.40
  -5   2  -9   15.30    8.70
  -5   2  -9   14.90   19.00
   5  -2   9   -4.20   23.10
   5  -2   9   -0.30   12.30
   3   1  -9   60.59   12.70
   3   1  -9   60.49   20.90
  -3  -1   9   27.10   23.40
   2   1  -9   -4.20   17.20
   2   1  -9   11.30    6.60
  -2  -1   9  -22.60   20.70
  -2  -1   9   20.30   20.00
   1   1  -9   31.20   16.40
   1   1  -9   28.50    7.00
   0   1  -9   -6.70   13.70
   0   1  -9   -3.40    5.80
   0   1  -9   -8.50   10.60
   0  -1   9   -4.40    8.50
  -1   1  -9   38.50   14.10
  -1   1  -9   32.10    6.60
  -1   1  -9   29.70    9.40
   1  -1   9   24.10   19.70
   1  -1   9   23.80   10.90
  -2   1  -9    5.30   13.80
  -2   1  -9    5.30    8.10
  -2   1  -9   14.10   17.10
  -2   1  -9   -0.60    6.50
   2  -1   9   -7.10   10.10
   2  -1   9  -13.30   17.60
  -3   1  -9   91.59   17.80
  -3   1  -9   91.59   12.90
  -3   1  -9  138.09   24.70
   3  -1   9  122.29   30.40
   3  -1   9  113.59   20.50
  -4   1  -9  -10.00   14.10
  -4   1  -9   -9.10   20.00
  -4   1  -9   -7.50    7.00
   4  -1   9   -0.60   19.50
   4  -1   9  -16.30   13.30
  -5   1  -9   -1.70    7.50
  -5   1  -9   -2.10   22.90
  -5   1  -9  -10.30   16.90
   5  -1   9  -17.70   19.10
   5  -1   9    0.60   11.10
  -6   1  -9   -5.20    8.30
  -6   1  -9   18.70   25.90
   6  -1   9    9.60   22.80
   3   0  -9    5.90   18.80
  -3   0   9   26.20   11.50
   2   0  -9   19.40   17.00
   2   0  -9   30.60    8.70
  -2   0   9   44.00   12.30
   1   0  -9    9.40   14.80
   1   0  -9   16.30    5.90
  -1   0   9  -15.00   17.70
   0   0  -9   25.70   17.80
   0   0  -9   52.19   15.20
   0   0  -9   31.60    6.40
   0   0   9   37.40   19.50
  -1   0  -9  -14.60   12.20
  -1   0  -9    1.00   15.60
  -1   0  -9   -0.10    5.00
   1   0   9   -8.80   12.60
   1   0   9  -17.40   16.70
  -2   0  -9   29.50   17.20
  -2   0  -9   25.50    6.80
  -2   0  -9    6.20   16.60
   2   0   9    5.80   10.50
   2   0   9    9.60   17.50
  -3   0  -9   25.20   13.00
  -3   0  -9   19.10    6.70
  -3   0  -9   28.50   17.40
   3   0   9   27.20   10.70
   3   0   9   27.60   16.80
  -4   0  -9    9.60   18.50
  -4   0  -9   20.30   12.80
  -4   0  -9    1.00    6.30
   4   0   9  -15.10   16.60
  -5   0  -9   -3.40   12.40
  -5   0  -9   -5.70    7.30
   5   0   9   -5.80   18.50
  -6   0  -9   -2.20   22.40
  -6   0  -9  -11.00   14.40
  -6   0  -9    4.70    7.20
   6   0   9   19.60   19.30
  -7   0  -9    0.30    8.00
  -7   0  -9   13.90   27.10
   7   0   9   51.09   23.00
   7   0   9  -11.20   13.30
   3  -1  -9  -28.80   17.80
  -3   1   9  -13.70   17.80
  -3   1   9   20.40   12.30
   2  -1  -9  175.48   20.30
   2  -1  -9  141.99   21.80
   2  -1  -9  181.78   12.60
  -2   1   9  212.28   23.60
  -2   1   9  123.19   22.30
   1  -1  -9   86.19   16.30
   1  -1  -9   71.79   13.40
   1  -1  -9   82.79    9.90
   0  -1  -9   33.50   15.00
   0  -1  -9   17.10   14.30
   0   1   9   13.60   11.70
   0   1   9    7.10   16.60
  -1  -1  -9   18.70    5.90
  -1  -1  -9   29.10   15.70
  -1  -1  -9   13.00   13.50
   1   1   9    7.70   23.00
  -2  -1  -9   39.40   24.90
  -2  -1  -9   42.60   12.40
  -2  -1  -9   29.60    6.70
   2   1   9   47.00   11.70
   2   1   9   27.10   19.90
  -3  -1  -9  -13.30   14.40
  -3  -1  -9   -3.70    5.80
   3   1   9  -12.10    9.50
   3   1   9    4.90   14.70
  -4  -1  -9   -6.00   10.80
  -4  -1  -9    7.20   16.50
  -4  -1  -9   -3.60    6.10
   4   1   9  -10.20   10.10
   4   1   9   -9.80   11.60
   4   1   9   -3.50   15.60
  -5  -1  -9    0.20    6.80
  -5  -1  -9   -1.70   11.40
  -5  -1  -9    1.60   17.10
   5   1   9  -12.10    9.30
   5   1   9   -7.20   15.90
   5   1   9   -4.40   10.30
  -6  -1  -9   -3.10    6.40
  -6  -1  -9   -3.40   20.70
  -6  -1  -9   -2.80   11.60
   6   1   9   27.00   18.80
   6   1   9   -6.40   10.70
  -7  -1  -9   10.80   25.20
  -7  -1  -9   -3.80    8.10
   7   1   9  -12.20   12.70
   3  -2  -9    3.00   18.40
   3  -2  -9   10.50   14.60
  -3   2   9  -11.60   15.80
  -3   2   9   33.40   12.90
   2  -2  -9   80.19   19.20
   2  -2  -9   48.10   17.20
   2  -2  -9   76.09   10.10
  -2   2   9  112.59   21.00
  -2   2   9   31.70   26.30
   1  -2  -9   32.00   18.50
   1  -2  -9   74.69   15.30
   1  -2  -9   44.50   15.80
   1  -2  -9   53.29    9.80
  -1   2   9   42.20   12.40
   0  -2  -9    4.10    5.00
   0  -2  -9   -8.40   13.10
   0  -2  -9  -13.10   11.90
   0  -2  -9    9.90    6.40
   0   2   9    4.50   15.20
   0   2   9    1.10   10.30
   0   2   9    1.90   11.70
  -1  -2  -9   22.40   14.30
   1   2   9   45.60   15.80
  -2  -2  -9   32.90   13.00
  -2  -2  -9   32.40   10.50
  -2  -2  -9   31.50    6.20
  -2  -2  -9   51.79   15.80
   2   2   9   27.30   12.10
  -3  -2  -9   31.30   11.80
  -3  -2  -9   51.69   17.80
  -3  -2  -9   36.10    6.10
  -3  -2  -9   35.60    6.80
   3   2   9   21.70    9.90
   3   2   9   40.40   12.30
   3   2   9   39.60    9.50
   3   2   9   49.00   16.10
  -4  -2  -9   -1.80    5.90
  -4  -2  -9   14.00   15.80
  -4  -2  -9    7.30   10.40
   4   2   9   14.00   15.20
   4   2   9    9.60    7.20
   4   2   9   -4.20   10.00
   4   2   9  -12.70   12.80
  -5  -2  -9    7.20    7.50
  -5  -2  -9   -5.60   16.20
  -5  -2  -9   -4.10   10.10
  -5  -2  -9   -9.30    6.10
   5   2   9   -4.10    9.20
   5   2   9    6.70   15.40
   5   2   9   -8.60   10.10
  -6  -2  -9   24.60    9.90
  -6  -2  -9   13.20    6.80
  -6  -2  -9   48.50   19.90
   6   2   9   20.70   11.50
   6   2   9   54.89   18.40
   6   2   9    4.70   10.50
  -7  -2  -9    6.20    7.40
  -7  -2  -9   23.30   22.70
   7   2   9   29.60   18.90
  -8  -2  -9    1.20   26.70
   3  -3  -9   25.60   15.60
   3  -3  -9  -18.30   18.60
  -3   3   9   25.00   13.30
  -3   3   9    8.30   23.50
   2  -3  -9    8.60   16.90
   2  -3  -9   33.10    6.30
   2  -3  -9   27.10   14.90
  -2   3   9   26.20   12.20
   1  -3  -9    0.50    5.10
   1  -3  -9   24.10   13.30
   1  -3  -9   10.80    9.70
   1  -3  -9  -10.00   13.90
  -1   3   9    0.90   14.50
  -1   3   9   -3.70   12.40
  -1   3   9    6.30   11.70
   0  -3  -9   18.00    5.50
   0  -3  -9   12.20   14.20
   0  -3  -9   17.70   13.00
   0   3   9    3.40   14.10
   0   3   9   16.70   12.90
   0   3   9   11.40   10.90
  -1  -3  -9    6.40   13.40
  -1  -3  -9    5.40    5.20
   1   3   9    1.40   13.70
   1   3   9   12.30    7.40
   1   3   9    8.80   11.60
  -2  -3  -9   -2.80   11.30
  -2  -3  -9   -9.10    8.10
  -2  -3  -9   21.40   13.90
  -2  -3  -9    5.40    4.70
   2   3   9    1.10   12.60
   2   3   9   14.40    7.20
  -3  -3  -9   -0.10    6.80
  -3  -3  -9   -5.50   11.10
  -3  -3  -9    7.10    5.70
   3   3   9    2.00    8.60
   3   3   9   15.50    7.50
   3   3   9    5.00   13.70
   3   3   9    7.60   16.30
  -4  -3  -9   40.30    8.50
  -4  -3  -9   33.30    6.40
  -4  -3  -9   25.30   11.60
  -4  -3  -9   70.09   18.10
   4   3   9   69.19   18.70
   4   3   9   28.90    9.00
   4   3   9   32.90    9.40
   4   3   9   40.90   11.40
  -5  -3  -9    6.50    8.20
  -5  -3  -9  -18.70   14.80
  -5  -3  -9   -6.50    6.10
   5   3   9   -3.30   10.90
   5   3   9   -9.30    7.40
   5   3   9   -3.60   14.60
  -6  -3  -9   -7.60    5.90
  -6  -3  -9   24.20   17.80
  -6  -3  -9    6.10    9.30
  -6  -3  -9   -0.20    7.50
   6   3   9  -15.20   11.10
   6   3   9    7.20   15.20
  -7  -3  -9   12.00    7.30
  -7  -3  -9   48.30   22.70
   7   3   9   30.20   13.40
  -8  -3  -9   12.70   24.20
  -8  -3  -9   -6.90    7.30
   3  -4  -9   10.60   17.10
   3  -4  -9   -5.70   20.60
  -3   4   9    9.20   13.00
   2  -4  -9   11.70   17.80
   2  -4  -9   35.90   15.30
   2  -4  -9   23.50    6.30
  -2   4   9   35.00   14.00
  -2   4   9   40.50   13.30
   1  -4  -9   25.00    6.20
   1  -4  -9   39.60   14.10
   1  -4  -9   23.90   16.00
  -1   4   9    6.40   13.30
  -1   4   9   14.00   11.40
   0  -4  -9    4.00    5.40
   0  -4  -9   -1.20   13.40
   0  -4  -9    7.00   12.90
   0   4   9   -2.80   11.30
   0   4   9   10.90   13.30
   0   4   9   19.00   16.90
   0   4   9  -11.20   13.10
  -1  -4  -9  117.39   22.10
  -1  -4  -9  101.69   10.70
  -1  -4  -9  133.19   27.30
   1   4   9  122.19   23.60
   1   4   9  126.59   18.40
   1   4   9   96.19   23.40
  -2  -4  -9    3.40    4.80
  -2  -4  -9    8.00   11.80
  -2  -4  -9   31.80   14.10
   2   4   9   11.30   10.70
   2   4   9   -2.00   11.20
   2   4   9    7.20   12.80
   2   4   9   10.30   10.10
  -3  -4  -9   -9.80    5.10
  -3  -4  -9   -2.80   21.60
  -3  -4  -9  -12.90   10.60
   3   4   9    9.60    9.70
   3   4   9   -9.60   11.90
   3   4   9   -3.90   10.60
   3   4   9   -5.00    8.60
   3   4   9    2.90    9.20
  -4  -4  -9   -7.90   14.30
  -4  -4  -9   -3.30    4.90
  -4  -4  -9   -5.40    8.40
   4   4   9   19.00   13.20
   4   4   9   -2.10   11.40
   4   4   9  -10.20    7.40
   4   4   9    3.20    9.90
  -5  -4  -9   13.50    6.80
  -5  -4  -9   39.50   17.00
  -5  -4  -9   16.30   13.60
  -5  -4  -9   10.20    9.50
   5   4   9   18.30   11.30
   5   4   9   19.60   11.90
   5   4   9   49.10   20.80
   5   4   9   26.50   11.70
  -6  -4  -9   41.00   19.50
  -6  -4  -9   13.50    6.80
   6   4   9    5.90   12.10
  -7  -4  -9   20.50   20.60
  -7  -4  -9    8.20    7.40
   7   4   9   -3.40   12.50
  -8  -4  -9   -3.40    7.60
  -8  -4  -9   21.90   24.20
   8   4   9  -20.90   14.70
   2  -5  -9    9.00   19.40
   2  -5  -9   14.80    6.60
   2  -5  -9    4.60   15.80
  -2   5   9   17.50   13.50
   1  -5  -9   42.20    7.00
   1  -5  -9   58.39   15.00
   1  -5  -9   17.30   16.70
  -1   5   9   19.80   12.80
  -1   5   9   27.90   11.70
   0  -5  -9    5.80   14.70
   0  -5  -9   22.50   14.80
   0  -5  -9   22.50    6.00
   0   5   9    1.00   11.10
   0   5   9   17.50   13.20
  -1  -5  -9   -3.80   12.80
   1   5   9   24.90   11.20
   1   5   9    6.10   11.50
  -2  -5  -9   24.50   12.20
  -2  -5  -9   35.20    6.70
  -2  -5  -9   51.59   18.00
   2   5   9   20.40   12.70
   2   5   9   11.30   12.60
   2   5   9   46.60   12.40
   2   5   9   35.40    9.80
  -3  -5  -9   17.40   14.20
  -3  -5  -9   -9.30   10.70
  -3  -5  -9    1.40    5.50
   3   5   9   11.70   10.60
   3   5   9    4.20    8.30
   3   5   9  -13.40   11.60
   3   5   9    1.90   11.30
   3   5   9   -7.90   11.60
  -4  -5  -9   -8.80   11.20
  -4  -5  -9   15.80    6.40
  -4  -5  -9   29.50   20.70
  -4  -5  -9   -1.90   10.50
   4   5   9   16.90   11.60
   4   5   9   16.30    8.40
   4   5   9    7.10   11.90
   4   5   9   27.90   12.80
  -5  -5  -9    9.40   16.60
  -5  -5  -9   -5.00    5.90
   5   5   9   -6.60   11.20
   5   5   9   -6.20   11.30
   5   5   9   11.50   14.30
  -6  -5  -9   56.09   19.90
  -6  -5  -9   44.90    8.00
   6   5   9   39.90   14.10
   6   5   9   56.89   14.50
  -7  -5  -9    8.50    6.70
  -7  -5  -9  -11.50   19.90
   7   5   9  -10.90   13.00
  -8  -5  -9   18.20    8.10
  -8  -5  -9   38.00   26.20
   2  -6  -9   12.40    7.00
   2  -6  -9  -13.30   18.90
  -2   6   9   37.40   16.00
   1  -6  -9    4.50    6.10
   1  -6  -9  -16.70   17.50
  -1   6   9   10.80   13.00
  -1   6   9   29.40   16.90
   0  -6  -9   12.40   15.20
   0  -6  -9   -5.40    5.90
   0   6   9    8.60   15.50
   0   6   9   -0.70   13.10
  -1  -6  -9    9.60    6.40
  -1  -6  -9    2.90   16.80
   1   6   9   17.80   13.80
   1   6   9   -2.30   12.40
  -2  -6  -9   30.70   14.50
  -2  -6  -9   27.30    6.70
  -2  -6  -9   50.49   17.00
   2   6   9   20.70   13.20
   2   6   9   22.80   11.80
  -3  -6  -9   48.10   16.90
  -3  -6  -9   26.40    6.80
  -3  -6  -9   19.90   12.50
   3   6   9   18.40   17.00
   3   6   9   15.10   12.00
   3   6   9   -1.20   12.60
  -4  -6  -9    9.10    6.30
  -4  -6  -9    8.10   11.40
  -4  -6  -9   19.50   15.60
   4   6   9  -14.20   12.90
   4   6   9   -2.50   15.80
   4   6   9    8.30   11.10
   4   6   9   11.50   13.00
  -5  -6  -9   -2.10    6.20
  -5  -6  -9  -17.10   10.70
  -5  -6  -9   29.30   18.10
   5   6   9   -6.80   12.70
   5   6   9   11.20   13.10
  -6  -6  -9   -4.70   18.70
  -7  -6  -9   22.20   21.30
  -7  -6  -9    3.00    7.10
   7   6   9   -9.90   13.80
  -8  -6  -9   52.19   26.00
  -8  -6  -9    7.10    7.90
   0  -7  -9  -12.40   16.80
   0  -7  -9   19.50   15.00
   0  -7  -9    2.80    6.50
   0   7   9   10.50   14.10
   0   7   9   40.30   17.80
  -1  -7  -9   49.99   20.50
  -1  -7  -9   32.50   16.00
  -1  -7  -9   22.60    7.00
   1   7   9   18.00   14.10
   1   7   9   47.40   17.20
  -2  -7  -9    2.70    6.60
  -2  -7  -9    3.80   14.70
  -2  -7  -9   23.90   16.60
   2   7   9   33.20   15.60
   2   7   9   -2.10   12.00
  -3  -7  -9    7.00    5.90
  -3  -7  -9   13.50   16.10
   3   7   9   17.30   14.40
   3   7   9    1.90   11.00
   3   7   9   -7.40   12.50
  -4  -7  -9   -9.00   11.30
  -4  -7  -9   12.20   16.70
  -4  -7  -9   -4.90    6.00
   4   7   9   -7.90   14.00
   4   7   9    0.00   13.00
  -5  -7  -9   13.10   17.80
  -5  -7  -9   -3.90    6.20
  -5  -7  -9   -3.30   12.70
   5   7   9   36.70   14.00
  -6  -7  -9   -5.60    6.80
  -6  -7  -9    7.50   19.50
   6   7   9  -19.50   14.80
  -7  -7  -9   37.50    8.50
  -8  -7  -9   -3.00    8.10
   0  -8  -9    4.30    7.20
   0  -8  -9   37.50   18.40
   0  -8  -9    3.90   18.80
   0   8   9   36.00   22.00
   0   8   9    1.30   13.90
  -1  -8  -9    4.30    6.70
  -1  -8  -9   37.50   18.50
  -1  -8  -9  -25.70   16.70
   1   8   9   -5.90   14.20
   1   8   9   26.70   18.90
  -2  -8  -9   -2.70    6.50
  -2  -8  -9  -20.70   14.40
  -2  -8  -9   15.70   16.60
   2   8   9   29.30   16.70
   2   8   9   -8.40   14.10
  -3  -8  -9   41.10   18.40
  -3  -8  -9   18.30    7.20
  -3  -8  -9   18.60   14.80
   3   8   9    6.30   14.70
   3   8   9   26.50   16.80
  -4  -8  -9    2.80    6.80
  -4  -8  -9   -2.50   23.70
  -4  -8  -9   -2.40   19.60
   4   8   9    7.80   17.60
  -5  -8  -9   18.60   20.20
  -5  -8  -9  -11.40   14.00
  -5  -8  -9    4.90    7.20
   5   8   9    3.00   16.80
  -6  -8  -9   22.60   21.20
  -6  -8  -9   -0.70    6.30
   6   8   9  -21.30   17.70
  -7  -8  -9   38.30   23.90
  -7  -8  -9   12.70    7.70
   7   8   9  -23.30   19.30
  -1  -9  -9   29.00   20.20
  -1  -9  -9    8.00    8.10
  -1  -9  -9   -7.10   19.40
   1   9   9    3.90   16.60
   1   9   9   60.09   22.50
  -2  -9  -9    3.20   19.40
  -2  -9  -9   46.20   23.30
  -2  -9  -9   10.40    7.40
   2   9   9    0.70   13.90
   2   9   9   32.20   21.40
  -3  -9  -9   -5.70    7.20
  -3  -9  -9  -16.00   16.50
  -3  -9  -9   15.00   20.80
   3   9   9   11.90   19.40
   3   9   9  -17.10   14.30
  -4  -9  -9   -4.00    7.50
  -4  -9  -9  -16.50   15.60
  -4  -9  -9   11.60   22.60
   4   9   9   10.60   19.80
  -5  -9  -9   -4.10    7.40
  -5  -9  -9   21.30   21.60
  -5  -9  -9  -25.90   23.90
   5   9   9  -13.20   20.40
  -6  -9  -9    3.50    8.10
  -6  -9  -9   16.60   21.70
   6   9   9  -11.20   20.90
   0   3 -10  209.38   18.50
   0  -3  10  248.18   38.10
  -1   3 -10   55.79   13.80
  -1   3 -10   23.80   20.50
   1  -3  10   13.90   33.10
  -2   3 -10  102.39   24.80
   2  -3  10   81.99   42.60
   1   2 -10   29.20   19.70
   1   2 -10   29.80    8.40
   0   2 -10  259.37   39.80
   0   2 -10  325.47   19.50
  -1   2 -10  370.46   20.80
  -1   2 -10  325.67   40.90
   1  -2  10  272.17   46.00
  -2   2 -10   68.49   21.60
  -2   2 -10   95.59   13.00
   2  -2  10   36.70   26.40
   2  -2  10   71.39   13.70
  -3   2 -10  183.88   40.70
  -3   2 -10  151.28   14.80
   3  -2  10  113.19   27.10
  -4   2 -10   45.90   21.20
  -4   2 -10   27.20   13.20
   4  -2  10   22.40   25.40
   2   1 -10  290.97   60.49
   2   1 -10  255.27   17.40
  -2  -1  10  305.57   33.80
   1   1 -10   58.09   21.00
   1   1 -10   59.79    8.60
  -1  -1  10   16.30   24.30
   0   1 -10  275.37   37.50
   0   1 -10  318.87   18.10
   0  -1  10  237.38   43.50
  -1   1 -10  450.35   22.10
  -1   1 -10  424.16   38.90
   1  -1  10  394.66   28.80
   1  -1  10  392.96   46.10
  -2   1 -10  261.57   17.50
  -2   1 -10  285.07   34.60
   2  -1  10  187.98   39.50
  -3   1 -10  376.76   20.70
  -3   1 -10  349.57   38.00
  -3   1 -10  322.77   37.10
   3  -1  10  263.17   47.20
  -4   1 -10   40.50   18.90
  -4   1 -10   62.99   24.70
  -4   1 -10   46.30    8.70
   4  -1  10   22.10   22.90
  -5   1 -10  200.78   38.10
  -5   1 -10  227.48   18.50
  -5   1 -10  283.37   42.00
   5  -1  10  192.18   42.70
   2   0 -10  257.87   16.20
   2   0 -10  244.48   38.10
  -2   0  10  223.08   32.90
   1   0 -10  424.46   22.30
   1   0 -10  397.96   40.30
  -1   0  10  433.06   29.20
  -1   0  10  357.46   43.30
   0   0 -10  478.55   22.30
   0   0 -10  463.25   39.70
   0   0  10  386.56   43.00
   0   0  10  463.05   30.20
  -1   0 -10  251.77   29.90
  -1   0 -10  264.87   32.90
  -1   0 -10  261.57   16.20
   1   0  10  222.18   25.90
   1   0  10  181.28   36.50
  -2   0 -10  604.84   38.70
  -2   0 -10  568.44   37.80
  -2   0 -10  509.15   23.90
   2   0  10  481.05   42.80
   2   0  10  413.36   35.80
  -3   0 -10  523.35   24.20
  -3   0 -10  535.25   39.00
  -3   0 -10  557.24   40.50
   3   0  10  439.46   32.90
   3   0  10  509.75   42.70
  -4   0 -10  136.39   14.80
  -4   0 -10  185.38   32.30
  -4   0 -10  208.28   35.30
   4   0  10  151.38   26.90
  -5   0 -10  168.98   15.70
  -5   0 -10  118.49   19.60
  -5   0 -10  160.68   36.50
   5   0  10  118.99   24.90
  -6   0 -10  115.39   15.60
  -6   0 -10  115.29   31.80
   6   0  10  108.99   27.40
   2  -1 -10   75.89   21.30
   2  -1 -10  137.89   13.00
  -2   1  10   91.89   24.40
   1  -1 -10  681.23   27.80
   1  -1 -10  652.33   45.90
  -1   1  10  660.53   38.00
  -1   1  10  574.74   46.20
   0  -1 -10  287.47   34.50
   0  -1 -10  265.97   27.20
   0  -1 -10  284.67   16.40
   0   1  10  264.77   24.00
   0   1  10  232.48   36.60
  -1  -1 -10   63.09   17.20
  -1  -1 -10   76.79   11.60
  -1  -1 -10   99.09   20.10
   1   1  10   76.59   22.40
   1   1  10   64.29   13.50
  -2  -1 -10  276.37   29.90
  -2  -1 -10  269.27   16.20
  -2  -1 -10  227.58   31.10
   2   1  10  240.48   35.60
   2   1  10  197.48   26.80
  -3  -1 -10  529.95   36.10
  -3  -1 -10  549.85   38.10
  -3  -1 -10  507.75   23.30
   3   1  10  470.45   40.10
   3   1  10  426.26   31.90
  -4  -1 -10  588.04   41.80
  -4  -1 -10  614.94   27.40
  -4  -1 -10  604.14   37.70
   4   1  10  528.65   35.70
   4   1  10  616.94   43.10
  -5  -1 -10  120.29   14.20
  -5  -1 -10  161.48   27.50
  -5  -1 -10  152.08   34.40
   5   1  10  139.99   24.40
  -6  -1 -10   42.40    8.80
  -6  -1 -10   55.89   27.90
  -6  -1 -10   45.00   17.00
   6   1  10   43.50   22.10
   6   1  10   31.90   15.20
  -7  -1 -10  237.38   19.10
  -7  -1 -10  303.07   43.60
   2  -2 -10  102.29   22.80
  -2   2  10  111.69   22.60
   1  -2 -10  425.36   32.50
   1  -2 -10  368.76   39.80
   1  -2 -10  405.96   20.30
  -1   2  10  405.86   30.80
   0  -2 -10  413.16   20.50
   0  -2 -10  418.06   22.10
   0  -2 -10  384.66   35.90
   0  -2 -10  397.16   37.20
   0   2  10  442.06   31.00
   0   2  10  339.47   37.70
  -1  -2 -10  365.46   34.00
  -1  -2 -10  362.16   18.80
  -1  -2 -10  362.16   30.60
   1   2  10  349.77   28.40
   1   2  10  325.27   36.60
  -2  -2 -10  190.88   28.00
  -2  -2 -10  171.78   29.50
  -2  -2 -10  200.68   14.00
   2   2  10  152.88   25.60
   2   2  10  144.19   31.50
  -3  -2 -10  369.16   19.30
  -3  -2 -10  342.57   31.20
  -3  -2 -10  370.66   32.80
   3   2  10  390.26   36.80
   3   2  10  288.77   31.10
  -4  -2 -10 1009.80   41.80
  -4  -2 -10 1045.10   49.30
  -4  -2 -10 1092.89   54.29
   4   2  10 1094.09   55.29
   4   2  10  982.20   49.20
  -5  -2 -10  100.89   13.20
  -5  -2 -10  111.39   24.30
  -5  -2 -10  142.59   25.70
   5   2  10   93.79   21.70
  -6  -2 -10  165.28   35.40
  -6  -2 -10   78.39   20.70
  -6  -2 -10  120.09   14.20
  -7  -2 -10  265.27   40.50
  -7  -2 -10  207.28   17.10
   7   2  10  145.79   29.00
   2  -3 -10   99.99   12.60
   2  -3 -10   99.29   27.90
  -2   3  10  131.39   25.80
  -2   3  10   78.99   20.70
   1  -3 -10  141.99   21.40
   1  -3 -10  127.09   22.50
   1  -3 -10  160.98   12.90
  -1   3  10  145.19   26.20
   0  -3 -10  345.67   18.40
   0  -3 -10  338.27   35.20
   0  -3 -10  369.06   22.70
   0   3  10  326.27   28.50
   0   3  10  275.87   43.50
  -1  -3 -10  765.32   46.10
  -1  -3 -10  771.92   31.20
  -1  -3 -10  759.72   46.60
   1   3  10  672.53   59.99
   1   3  10  737.13   41.40
  -2  -3 -10  163.78   28.30
  -2  -3 -10  171.48   13.70
  -2  -3 -10  218.18   26.80
   2   3  10  198.48   14.20
   2   3  10  134.09   24.30
  -3  -3 -10  223.28   15.10
  -3  -3 -10  183.08   18.30
  -3  -3 -10  239.38   27.60
   3   3  10  229.48   15.60
   3   3  10  217.78   30.50
   3   3  10  176.78   26.50
  -4  -3 -10  639.64   36.70
  -4  -3 -10  700.13   41.40
  -4  -3 -10  624.24   27.90
   4   3  10  607.54   33.60
   4   3  10  734.43   41.50
   4   3  10  592.94   35.00
   4   3  10  627.64   37.60
  -5  -3 -10  345.17   28.20
  -5  -3 -10  339.87   18.40
  -5  -3 -10  388.96   35.00
   5   3  10  300.07   23.00
   5   3  10  292.37   28.60
   5   3  10  401.26   36.20
  -6  -3 -10  361.46   20.50
  -6  -3 -10  352.46   32.80
  -6  -3 -10  431.36   39.70
   6   3  10  307.77   32.70
  -7  -3 -10  167.28   15.80
  -7  -3 -10  186.28   38.00
   7   3  10  113.49   27.50
  -8  -3 -10  132.59   16.90
  -8  -3 -10  181.18   41.10
   2  -4 -10  140.49   13.10
   2  -4 -10  173.78   40.10
   2  -4 -10   90.09   23.80
  -2   4  10  107.79   30.60
   1  -4 -10  -19.70   17.50
   1  -4 -10   25.60   15.00
   1  -4 -10    5.70    6.10
  -1   4  10    1.00   13.30
   0  -4 -10  553.54   31.90
   0  -4 -10  466.15   40.40
   0  -4 -10  468.15   22.30
   0   4  10  466.75   35.30
   0   4  10  429.16   34.50
  -1  -4 -10  560.34   40.20
  -1  -4 -10  553.54   25.10
  -1  -4 -10  602.64   45.40
   1   4  10  525.65   36.80
   1   4  10  581.44   29.90
   1   4  10  537.05   35.60
  -2  -4 -10  309.77   32.60
  -2  -4 -10  335.17   18.40
  -2  -4 -10  344.07   30.00
   2   4  10  386.66   25.20
   2   4  10  298.57   29.30
   2   4  10  362.16   32.70
  -3  -4 -10  139.49   13.30
  -3  -4 -10  232.38   27.60
  -3  -4 -10  184.68   27.40
   3   4  10  171.88   18.60
   3   4  10  211.18   28.20
  -4  -4 -10   53.89   14.80
  -4  -4 -10   69.99   11.50
  -4  -4 -10   60.49   11.50
   4   4  10   42.80   13.80
   4   4  10   44.40   11.40
   4   4  10   77.19   13.10
  -5  -4 -10  377.56   19.80
  -5  -4 -10  407.56   34.90
  -5  -4 -10  301.27   27.60
   5   4  10  342.57   29.80
   5   4  10  332.67   25.90
  -6  -4 -10  269.07   16.60
  -6  -4 -10  317.77   35.40
   6   4  10  226.28   29.20
  -7  -4 -10   86.89   13.80
   7   4  10   68.99   18.10
  -8  -4 -10  117.49   30.30
   2  -5 -10  196.28   36.40
   1  -5 -10   -7.00   19.40
   1  -5 -10   19.50    7.10
  -1   5  10    6.10   13.70
   0  -5 -10   99.09   11.60
   0  -5 -10   79.59   20.10
   0  -5 -10  110.49   24.60
   0   5  10  115.59   26.80
  -1  -5 -10  151.08   13.80
  -1  -5 -10  116.29   19.20
  -1  -5 -10  196.98   27.00
   1   5  10  158.98   26.50
   1   5  10  181.28   24.90
   1   5  10   99.89   18.50
  -2  -5 -10  267.77   29.80
  -2  -5 -10  238.38   38.80
  -2  -5 -10  225.68   15.60
   2   5  10  225.78   28.70
   2   5  10  181.88   27.00
   2   5  10  259.97   21.90
   2   5  10  279.57   24.50
  -3  -5 -10  176.68   27.20
  -3  -5 -10  211.58   27.70
  -3  -5 -10  175.88   14.10
   3   5  10  179.88   22.30
   3   5  10  127.99   25.80
  -4  -5 -10   39.40    6.90
  -4  -5 -10   30.30   12.20
  -4  -5 -10   39.80   13.50
   4   5  10   48.00   13.10
   4   5  10   45.80   15.80
  -5  -5 -10  376.76   34.30
  -5  -5 -10  332.57   18.00
  -5  -5 -10  280.67   28.80
   5   5  10  309.57   31.00
   5   5  10  349.77   31.60
  -6  -5 -10  185.08   32.80
  -6  -5 -10  126.29   13.70
   6   5  10  133.79   25.60
   6   5  10   98.09   18.70
  -7  -5 -10  183.58   16.40
  -7  -5 -10  210.78   37.10
  -8  -5 -10  137.79   16.60
   1  -6 -10  198.08   15.40
  -1   6  10  196.18   29.60
   0  -6 -10    7.90   18.00
   0  -6 -10   30.50    7.30
   0  -6 -10   60.99   17.70
   0   6  10   28.70   15.70
  -1  -6 -10  130.29   28.20
  -1  -6 -10  102.29   11.80
  -1  -6 -10   61.99   18.00
   1   6  10   69.69   16.50
   1   6  10   89.49   20.70
  -2  -6 -10  236.58   15.40
  -2  -6 -10  212.18   32.30
   2   6  10  200.08   28.40
  -3  -6 -10  230.78   32.40
  -3  -6 -10  291.47   30.30
  -3  -6 -10  230.18   16.00
   3   6  10  221.28   26.70
   3   6  10  284.97   26.90
  -4  -6 -10  175.38   13.00
  -4  -6 -10  141.09   27.60
   4   6  10  158.18   25.70
  -5  -6 -10  193.28   14.10
  -5  -6 -10  213.78   41.50
   5   6  10  194.38   25.70
   5   6  10  131.89   28.10
  -6  -6 -10   51.69   23.00
  -6  -6 -10   32.50    8.30
  -7  -6 -10  186.98   37.80
  -7  -6 -10  182.08   15.80
   7   6  10  128.49   21.90
  -8  -6 -10  251.07   44.00
  -8  -6 -10  177.88   17.90
   0  -7 -10   20.60   20.80
   0   7  10   51.39   19.20
   0   7  10   23.90   16.50
  -1  -7 -10   73.79   12.30
  -1  -7 -10   45.30   19.70
   1   7  10   75.09   18.70
   1   7  10   41.40   16.00
  -2  -7 -10   41.20   16.90
  -2  -7 -10   78.49   12.40
   2   7  10   75.99   20.60
  -3  -7 -10   75.19   18.20
   3   7  10   85.89   18.20
   3   7  10   59.79   16.60
  -4  -7 -10  228.08   16.60
  -4  -7 -10  293.67   33.00
  -4  -7 -10  238.38   30.30
   4   7  10  206.28   26.50
   4   7  10  239.38   31.30
  -5  -7 -10   35.20   16.50
  -5  -7 -10   60.79    9.00
   5   7  10   29.00   18.20
   5   7  10   18.50   19.40
  -6  -7 -10   61.99    9.40
   6   7  10   34.80   18.20
   6   7  10   22.50   18.60
  -7  -7 -10   83.49   26.40
  -1  -8 -10  106.59   13.80
  -1  -8 -10   45.90   22.30
   1   8  10   86.69   19.70
   1   8  10  147.59   35.40
  -2  -8 -10   67.39   22.00
  -2  -8 -10   36.70    8.60
  -2  -8 -10   -4.60   19.30
   2   8  10   19.50   16.70
   2   8  10   58.89   19.60
  -3  -8 -10   32.30   20.40
  -3  -8 -10   -2.70   16.90
  -3  -8 -10   14.80    7.90
   3   8  10   -5.00   15.70
   3   8  10   15.30   18.00
  -4  -8 -10   60.19    9.20
  -4  -8 -10   53.29   18.10
   4   8  10   26.50   18.20
   4   8  10   88.89   21.50
  -5  -8 -10   80.29   16.70
  -5  -8 -10   49.99   22.80
  -6  -8 -10   95.79   14.90
  -6  -8 -10  163.08   34.40
  -3  -9 -10    2.30   11.50
  -3  -9 -10   26.80   23.00
  -3  -9 -10  -25.60   19.20
   3   9  10  -22.70   15.90
   3   9  10   18.50   19.90
  -4  -9 -10   69.39   24.90
  -4  -9 -10  -10.50   19.50
   4   9  10   48.80   21.00
  -5  -9 -10   52.99   14.10
   5   9  10   42.00   22.00
   0   1 -11   -3.40   19.40
   0   1 -11    1.60    7.70
  -1   1 -11    1.80    8.10
  -1   1 -11    1.60   19.50
   1  -1  11  -11.90   11.80
  -2   1 -11   28.20   22.00
   2  -1  11  -14.50   25.80
   2  -1  11   -9.80   13.90
  -3   1 -11   -1.80   14.20
  -3   1 -11   13.40   22.00
  -4   1 -11   -7.50   21.60
  -4   1 -11   -2.00   11.40
  -4   1 -11   -2.20   51.79
   1   0 -11    2.40    7.30
  -1   0  11   20.10   13.20
   0   0 -11   -4.80    6.80
   0   0 -11  -15.70   19.20
   0   0  11    1.50   11.30
  -1   0 -11   -3.40    7.00
  -1   0 -11   -8.30   19.70
  -1   0 -11   10.20   18.80
   1   0  11   -0.90   12.60
  -2   0 -11   -1.20    7.30
  -2   0 -11   19.80   17.70
  -2   0 -11   15.90   22.40
  -3   0 -11   -9.40   18.20
  -3   0 -11   -4.70    7.10
  -3   0 -11   22.50   25.50
  -4   0 -11    4.50    8.50
  -4   0 -11    3.00   18.50
  -4   0 -11   18.40   26.90
   4   0  11   -7.10   22.00
  -5   0 -11   21.10   29.90
  -5   0 -11  -14.60   19.30
   5   0  11  -25.50   26.40
   1  -1 -11    6.50    6.80
   1  -1 -11   -8.80   19.80
  -1   1  11    7.00   12.90
   0  -1 -11  -20.00   18.40
   0  -1 -11    6.20    6.40
   0  -1 -11  -11.90   17.00
   0   1  11    4.50   12.20
  -1  -1 -11    3.20   17.60
  -1  -1 -11   30.80   19.70
  -1  -1 -11   10.30    7.00
   1   1  11    9.70   13.40
   1   1  11  -14.50   21.90
  -2  -1 -11    3.20    7.10
  -2  -1 -11  -20.90   16.20
  -2  -1 -11   -4.30   20.20
  -3  -1 -11   15.10   21.30
  -3  -1 -11   10.50    7.80
  -3  -1 -11   18.30   16.10
   3   1  11    1.50   21.50
  -4  -1 -11   17.90   23.30
  -4  -1 -11    2.30    6.70
  -4  -1 -11  -14.10   16.80
  -5  -1 -11    2.30    8.10
  -5  -1 -11    6.20   24.30
  -5  -1 -11  -10.40   17.40
   5   1  11   -1.80   23.20
  -6  -1 -11   -5.50   12.40
  -6  -1 -11   -5.60   29.10
   6   1  11   13.70   26.90
   1  -2 -11   14.60    7.00
   1  -2 -11    2.80   20.10
   1  -2 -11  -22.00   19.40
  -1   2  11   16.00   14.00
   0  -2 -11   -6.30   18.40
   0  -2 -11   28.50   18.50
   0  -2 -11    6.70    6.90
   0   2  11   10.20   12.70
  -1  -2 -11   43.60   20.50
  -1  -2 -11   35.70    7.60
  -1  -2 -11   18.70   18.10
   1   2  11   13.90   13.40
   1   2  11  -13.20   19.90
  -2  -2 -11   10.80    6.70
  -2  -2 -11   26.70   19.20
  -2  -2 -11   -8.10   15.80
   2   2  11  -16.40   12.50
  -3  -2 -11   -9.30   15.50
  -3  -2 -11    1.20   19.40
  -3  -2 -11   -3.10    6.00
   3   2  11  -15.70   17.60
  -4  -2 -11   28.90   22.50
  -4  -2 -11   13.00    7.80
  -4  -2 -11   14.70   15.50
   4   2  11   -2.70   20.50
  -5  -2 -11    3.40   23.80
  -5  -2 -11  -11.30   15.10
  -5  -2 -11    9.20    7.80
   5   2  11  -11.60   21.20
  -6  -2 -11   -4.60    8.40
  -6  -2 -11   22.10   24.60
   6   2  11    8.80   23.70
   1  -3 -11  -24.20   20.60
   1  -3 -11    9.00    6.70
  -1   3  11    8.30   14.10
   0  -3 -11   53.49   19.70
   0  -3 -11   31.30    7.60
   0  -3 -11    9.60   19.50
   0   3  11  -19.70   19.90
   0   3  11   19.20   13.90
  -1  -3 -11   43.70   19.00
  -1  -3 -11   35.60   18.10
  -1  -3 -11   38.90    7.70
   1   3  11   40.20   15.40
  -2  -3 -11   45.50   19.80
  -2  -3 -11    9.60    6.80
  -2  -3 -11   -3.90   16.20
   2   3  11   -1.20   14.20
   2   3  11  -16.70   19.60
  -3  -3 -11   -0.90    6.80
  -3  -3 -11  -28.30   18.90
  -3  -3 -11    8.10   18.80
   3   3  11  -14.50   16.90
  -4  -3 -11   21.30   20.60
   4   3  11  -17.40   17.70
   4   3  11  -16.90   14.30
  -5  -3 -11    1.20   15.10
  -5  -3 -11   11.70    7.90
  -5  -3 -11   33.40   23.20
   5   3  11   20.10   20.00
   5   3  11  -10.60   15.10
  -6  -3 -11   11.90   24.00
  -6  -3 -11   -0.30    7.20
   6   3  11   22.80   23.60
  -7  -3 -11   41.40   29.20
   7   3  11   65.49   24.20
   1  -4 -11   -2.90   41.70
   1  -4 -11   10.40    7.10
  -1   4  11   25.10   14.20
   0  -4 -11   -3.60   19.40
   0  -4 -11   24.90   18.10
   0  -4 -11   15.20    7.10
   0   4  11   -4.50   15.50
  -1  -4 -11   -1.70   16.90
  -1  -4 -11   34.00   18.40
  -1  -4 -11    1.20    6.20
   1   4  11   -7.10   13.80
  -2  -4 -11  -14.90   16.20
  -2  -4 -11    7.70    6.50
   2   4  11  -22.50   18.80
  -3  -4 -11   57.39   19.30
  -3  -4 -11   25.10    7.50
  -3  -4 -11  -11.20   19.80
   3   4  11    9.50   24.30
   3   4  11  -11.20   17.60
   3   4  11   42.90   12.60
  -4  -4 -11   12.20    7.30
  -4  -4 -11   -9.30   17.00
  -4  -4 -11   47.70   22.00
   4   4  11   19.20   19.00
   4   4  11   29.70   13.00
   4   4  11   -4.00   15.10
  -5  -4 -11   52.79   23.10
  -5  -4 -11   16.70   15.30
  -5  -4 -11   28.30    8.40
   5   4  11   39.60   18.60
  -6  -4 -11   59.29   26.60
  -6  -4 -11   11.50    8.30
   6   4  11   51.99   21.60
  -7  -4 -11   43.30   27.60
   7   4  11   35.50   25.00
   0  -5 -11    9.10   17.90
   0  -5 -11  -20.00   19.40
   0  -5 -11    1.40    6.90
   0   5  11   -1.10   15.00
  -1  -5 -11  -21.70   17.70
  -1  -5 -11   14.10    7.10
   1   5  11   -5.00   14.50
  -2  -5 -11   21.90   19.30
  -2  -5 -11   -4.90    6.10
  -2  -5 -11  -12.60   16.50
   2   5  11  -15.90   14.00
  -3  -5 -11   -4.30    5.80
  -3  -5 -11    5.40   19.70
  -3  -5 -11  -14.10   15.70
   3   5  11   -5.90   33.30
   3   5  11   25.20   11.40
  -4  -5 -11    6.50    7.20
  -4  -5 -11   38.10   21.70
   4   5  11   22.70   11.50
   4   5  11   -7.10   17.50
  -5  -5 -11   39.00   23.60
  -5  -5 -11   -9.40   15.90
  -5  -5 -11    9.40    7.40
   5   5  11    1.00   11.80
   5   5  11   28.20   20.30
  -6  -5 -11    3.10    7.90
  -6  -5 -11   17.30   24.60
   6   5  11   24.70   19.70
   6   5  11  -12.50   14.10
  -7  -5 -11   47.00   26.50
   7   5  11   54.59   24.90
   0  -6 -11    9.90    7.40
   0  -6 -11   47.10   30.60
   0  -6 -11  -29.00   20.60
   0   6  11  -24.10   25.60
  -1  -6 -11   26.70    7.90
  -1  -6 -11    3.40   20.00
  -1  -6 -11   63.79   21.60
   1   6  11   19.00   15.00
  -2  -6 -11    9.20    7.30
  -2  -6 -11  -13.40   18.10
   2   6  11   28.20   15.20
   2   6  11   -2.40   14.70
  -3  -6 -11   30.40   24.20
  -3  -6 -11   -2.20    6.80
  -3  -6 -11   -4.30   16.50
   3   6  11   -6.70   16.60
  -4  -6 -11   32.70   22.20
   4   6  11   -8.80   30.40
  -5  -6 -11   20.60    7.90
  -5  -6 -11   15.80   16.30
   5   6  11   18.30   14.40
   5   6  11    0.90   17.90
  -6  -6 -11   15.50    8.30
  -7  -6 -11   43.70   30.90
  -7  -6 -11   12.40   14.70
  -1  -7 -11   58.69   24.60
  -1  -7 -11  -21.30   21.30
  -1  -7 -11    7.30    7.40
   1   7  11  -16.40   20.20
  -2  -7 -11    4.70    7.60
  -2  -7 -11  -19.60   19.00
   2   7  11  -20.60   15.30
  -3  -7 -11   63.19   23.40
   3   7  11   29.70   17.30
  -4  -7 -11   45.10   23.60
   4   7  11   41.30   22.20
   4   7  11   42.10   15.90
  -5  -7 -11   40.60   24.80
  -5  -7 -11   69.99   22.60
   5   7  11   25.50   17.90
  -6  -7 -11   83.39   27.50
  -2  -8 -11  -27.00   21.70
  -2  -8 -11    8.40   13.20
  -3  -8 -11    0.40   11.20
  -3  -8 -11  -24.00   20.70
  -3  -8 -11   41.60   24.40
   3   8  11  -12.10   16.50
  -4  -8 -11   25.70   24.50
  -4  -8 -11  -30.20   18.80
  -4  -8 -11   -2.80   11.90
   4   8  11   15.30   17.90
  -5  -8 -11   67.29   26.60
   5   8  11   -0.30   19.10
  -1  -1 -12  143.49   25.30
  -1  -1 -12  212.38   35.70
   1   1  12  145.89   31.00
   1   1  12   90.79   29.80
  -2  -1 -12   85.59   14.00
  -2  -1 -12   55.89   22.40
  -2  -1 -12   99.09   27.30
   2   1  12    5.90   27.30
  -3  -1 -12    8.40    9.30
  -3  -1 -12   42.80   25.20
  -3  -1 -12   -1.00   20.70
  -4  -1 -12  139.19   30.70
  -4  -1 -12  170.48   23.50
  -4  -1 -12  101.09   23.20
   4   1  12  113.19   29.30
  -1  -2 -12   72.69   23.60
  -1  -2 -12  125.49   32.50
   1   2  12   11.90   26.60
   1   2  12   55.39   17.40
  -2  -2 -12   59.99   21.50
  -2  -2 -12  101.79   25.80
   2   2  12   25.70   16.80
  -3  -2 -12   54.79   20.60
   3   2  12   48.20   26.70
   3   2  12   35.80   18.00
  -4  -2 -12  163.58   15.60
  -4  -2 -12  181.58   37.10
  -4  -2 -12  179.38   39.60
   4   2  12  153.78   30.20
  -5  -2 -12   28.70   16.00
  -5  -2 -12   61.69   37.10
  -5  -2 -12   43.60   20.20
   5   2  12   33.80   26.60
  -1  -3 -12   55.99   22.90
   1   3  12   65.39   17.30
  -2  -3 -12  202.18   16.40
  -2  -3 -12  183.58   40.70
  -2  -3 -12  202.68   35.40
  -3  -3 -12  251.37   37.60
  -3  -3 -12  191.88   37.00
  -3  -3 -12  224.08   17.30
  -4  -3 -12   89.59   21.40
   4   3  12   70.19   25.80
   4   3  12   50.39   19.50
  -5  -3 -12   83.59   21.00
  -5  -3 -12   78.29   16.90
   5   3  12   91.49   26.50
  -6  -3 -12   19.90   10.30
   6   3  12   12.30   24.60
  -1  -4 -12   50.69   23.30
   1   4  12   83.19   18.10
  -2  -4 -12  183.18   15.50
  -2  -4 -12  109.19   23.50
   2   4  12   96.59   25.80
   2   4  12  150.68   22.60
  -3  -4 -12   32.80   19.90
   3   4  12   46.20   23.50
   3   4  12   29.00   18.00
  -4  -4 -12   34.10    9.10
  -4  -4 -12   71.49   25.30
  -4  -4 -12   -4.00   18.40
   4   4  12   -4.70   22.80
  -5  -4 -12  323.97   40.80
  -5  -4 -12  214.58   36.40
  -5  -4 -12  248.28   19.10
   5   4  12  252.47   43.70
  -6  -4 -12   82.29   50.19
  -6  -4 -12   27.10   14.50
   6   4  12   30.40   23.90
  -1  -5 -12  219.18   34.10
  -1  -5 -12  176.98   16.10
  -2  -5 -12  126.69   24.40
   2   5  12  142.89   30.00
   2   5  12  125.49   28.20
  -3  -5 -12   55.29    9.70
  -3  -5 -12    1.60   19.70
   3   5  12    4.30   17.50
  -4  -5 -12   -2.70   19.40
  -4  -5 -12   37.70    9.30
   4   5  12   30.20   22.30
  -5  -5 -12  167.98   18.30
   5   5  12  176.78   39.50
  -6  -5 -12  172.48   46.50
   6   5  12  218.68   51.69
  -2  -6 -12  114.09   15.50
  -2  -6 -12   84.09   24.90
   2   6  12   80.29   27.30
  -3  -6 -12   62.29    9.80
  -3  -6 -12   52.69   21.00
   3   6  12   14.70   29.20
  -4  -6 -12   81.09   21.70
   4   6  12   68.69   30.50
   4   6  12   46.50   20.90
   5   6  12   97.29   24.50
  -3  -7 -12   65.19   23.60
  -3  -7 -12   94.99   17.20
  -4  -7 -12   89.89   17.20
  -4  -7 -12   71.59   22.50
  -5  -7 -12   36.40    9.10

_computing_structure_solution     'SHELXT 2014/4 (Sheldrick, 2014)'
;
_shelx_hkl_checksum              9250
loop_
_space_group_symop_operation_xyz
'x, y, z'
'-x, -y, -z'
loop_
_atom_site_label
_atom_site_type_symbol
_atom_site_fract_x
_atom_site_fract_y
_atom_site_fract_z
_atom_site_U_iso_or_equiv
_atom_site_adp_type
_atom_site_occupancy
_atom_site_site_symmetry_order
_atom_site_calc_flag
_atom_site_refinement_flags_posn
_atom_site_refinement_flags_adp
_atom_site_refinement_flags_occupancy
_atom_site_disorder_assembly
_atom_site_disorder_group
Cd1 Cd 0.500000 0.000000 0.500000 0.03368(16) Uani 1 2 d S . P . .
C1 C 0.2931(7) 0.1634(6) 0.7679(5) 0.0323(10) Uani 1 1 d . . . . .
O1 O 0.2668(5) 0.1726(5) 0.6474(3) 0.0390(8) Uani 1 1 d . . . . .
Cu1 Cu 0.500000 0.000000 1.000000 0.0292(2) Uani 1 2 d S . P . .
O2 O 0.4576(5) 0.0808(4) 0.8008(3) 0.0325(7) Uani 1 1 d . . . . .
O4 O 0.2098(5) 0.0663(4) 1.0986(3) 0.0327(7) Uani 1 1 d . . . . .
O3 O -0.1116(5) 0.1931(5) 1.1079(4) 0.0426(8) Uani 1 1 d . . . . .
C3 C 0.0699(7) 0.1666(6) 1.0371(5) 0.0290(9) Uani 1 1 d . . . . .
O5 O 0.7063(5) 0.1965(5) 0.4011(4) 0.0350(7) Uani 1 1 d D . . . .
H5B H 0.785(7) 0.174(7) 0.454(5) 0.042 Uiso 1 1 d D U . . .
H5A H 0.782(7) 0.187(7) 0.315(3) 0.042 Uiso 1 1 d D U . . .
O6 O 0.2951(6) 0.1948(5) 0.3462(4) 0.0397(8) Uani 1 1 d D . . . .
H6B H 0.319(9) 0.296(4) 0.319(6) 0.048 Uiso 1 1 d D U . . .
H6A H 0.327(9) 0.176(8) 0.262(4) 0.048 Uiso 1 1 d D U . . .
O7 O 0.5326(6) 0.2860(5) 1.0070(4) 0.0431(8) Uani 1 1 d D . . . .
H7B H 0.551(9) 0.360(6) 0.921(4) 0.052 Uiso 1 1 d D U . . .
H7A H 0.644(5) 0.268(8) 1.024(7) 0.052 Uiso 1 1 d D U . . .
O9 O 0.8738(5) 0.1885(5) 0.6108(4) 0.0387(8) Uani 1 1 d D . . . .
H9B H 0.846(9) 0.103(5) 0.687(4) 0.046 Uiso 1 1 d D U . . .
H9A H 0.997(4) 0.189(8) 0.578(6) 0.046 Uiso 1 1 d D U . . .
O8 O 0.4022(7) 0.5051(5) 0.3053(5) 0.0579(11) Uani 1 1 d D . . . .
H8B H 0.478(9) 0.436(8) 0.362(7) 0.070 Uiso 1 1 d D U . . .
H8A H 0.327(9) 0.573(8) 0.362(7) 0.070 Uiso 1 1 d D U . . .
C4 C 0.0325(12) 0.4304(7) 0.8176(6) 0.077(2) Uani 1 1 d . U . . .
H4A H -0.041160 0.493378 0.893353 0.115 Uiso 1 1 calc R U . A 1
H4B H 0.107894 0.504203 0.730418 0.115 Uiso 1 1 calc R U . A 1
H4C H -0.061222 0.399817 0.789025 0.115 Uiso 1 1 calc R U . A 1
C2A C 0.154(4) 0.291(3) 0.8701(15) 0.075(2) Uani 0.51(3) 1 d . U P B 1
H2A H 0.251208 0.336239 0.884099 0.090 Uiso 0.51(3) 1 calc R U P B 1
C2B C 0.095(4) 0.235(3) 0.8745(16) 0.075(2) Uani 0.49(3) 1 d . U P B 2
H2B H -0.005759 0.193879 0.859271 0.090 Uiso 0.49(3) 1 calc R U P B 2
loop_
_atom_site_aniso_label
_atom_site_aniso_U_11
_atom_site_aniso_U_22
_atom_site_aniso_U_33
_atom_site_aniso_U_23
_atom_site_aniso_U_13
_atom_site_aniso_U_12
Cd1 0.0209(2) 0.0266(2) 0.0388(3) -0.00264(19) -0.00194(19) -0.00157(17)
C1 0.036(2) 0.031(2) 0.017(2) -0.0049(17) -0.0012(18) -0.0008(18)
O1 0.0286(17) 0.054(2) 0.0232(16) -0.0075(15) -0.0068(13) 0.0004(15)
Cu1 0.0229(4) 0.0434(4) 0.0186(4) -0.0087(3) -0.0021(3) -0.0084(3)
O2 0.0271(16) 0.0445(18) 0.0226(15) -0.0110(13) -0.0036(13) -0.0062(14)
O4 0.0239(16) 0.0458(18) 0.0224(15) -0.0062(13) -0.0030(12) -0.0080(13)
O3 0.0310(18) 0.059(2) 0.0342(18) -0.0112(16) -0.0118(15) -0.0045(16)
C3 0.032(2) 0.031(2) 0.020(2) -0.0132(17) -0.0024(17) -0.0001(17)
O5 0.0280(17) 0.0418(18) 0.0308(17) -0.0087(15) -0.0013(13) -0.0119(14)
O6 0.048(2) 0.0360(18) 0.0321(18) -0.0118(15) -0.0137(16) -0.0005(16)
O7 0.040(2) 0.044(2) 0.043(2) -0.0043(16) -0.0114(17) -0.0166(17)
O9 0.0253(17) 0.047(2) 0.0391(19) -0.0042(15) -0.0069(15) -0.0128(15)
O8 0.070(3) 0.038(2) 0.056(3) -0.0071(18) -0.022(2) -0.0023(19)
C4 0.104(5) 0.029(2) 0.033(2) -0.001(2) 0.016(3) 0.015(3)
C2A 0.103(5) 0.028(3) 0.031(2) -0.001(2) 0.015(3) 0.016(3)
C2B 0.103(5) 0.028(3) 0.032(2) -0.001(2) 0.015(3) 0.016(3)
loop_
_atom_type_symbol
_atom_type_description
_atom_type_scat_dispersion_real
_atom_type_scat_dispersion_imag
_atom_type_scat_source
C C 0.0033 0.0016 'International Tables Vol C Tables 4.2.6.8 and 6.1.1.4'
H H 0.0000 0.0000 'International Tables Vol C Tables 4.2.6.8 and 6.1.1.4'
O O 0.0106 0.0060 'International Tables Vol C Tables 4.2.6.8 and 6.1.1.4'
Cu Cu 0.3201 1.2651 'International Tables Vol C Tables 4.2.6.8 and 6.1.1.4'
Cd Cd -0.8075 1.2024 'International Tables Vol C Tables 4.2.6.8 and 6.1.1.4'
loop_
_geom_angle_atom_site_label_1
_geom_angle_atom_site_label_2
_geom_angle_atom_site_label_3
_geom_angle
_geom_angle_site_symmetry_1
_geom_angle_site_symmetry_3
_geom_angle_publ_flag
O1 Cd1 O1 180.0 2_656 . ?
O1 Cd1 O5 89.25(13) 2_656 . ?
O1 Cd1 O5 90.75(13) . . ?
O1 Cd1 O5 90.75(13) 2_656 2_656 ?
O1 Cd1 O5 89.25(13) . 2_656 ?
O5 Cd1 O5 180.0 . 2_656 ?
O1 Cd1 O6 76.72(12) 2_656 2_656 ?
O1 Cd1 O6 103.28(12) . 2_656 ?
O5 Cd1 O6 91.31(13) . 2_656 ?
O5 Cd1 O6 88.69(13) 2_656 2_656 ?
O1 Cd1 O6 103.28(12) 2_656 . ?
O1 Cd1 O6 76.72(12) . . ?
O5 Cd1 O6 88.70(13) . . ?
O5 Cd1 O6 91.31(13) 2_656 . ?
O6 Cd1 O6 180.0 2_656 . ?
O1 C1 O2 122.1(4) . . ?
O1 C1 C2B 111.1(11) . . ?
O2 C1 C2B 126.0(10) . . ?
O1 C1 C2A 123.5(9) . . ?
O2 C1 C2A 112.5(10) . . ?
C1 O1 Cd1 119.3(3) . . ?
O2 Cu1 O2 180.00(18) . 2_657 ?
O2 Cu1 O4 87.20(13) . 2_657 ?
O2 Cu1 O4 92.80(13) 2_657 2_657 ?
O2 Cu1 O4 92.80(13) . . ?
O2 Cu1 O4 87.20(13) 2_657 . ?
O4 Cu1 O4 180.0 2_657 . ?
C1 O2 Cu1 126.6(3) . . ?
C3 O4 Cu1 127.6(3) . . ?
O3 C3 O4 122.9(4) . . ?
O3 C3 C2B 110.9(11) . . ?
O4 C3 C2B 125.1(9) . . ?
O3 C3 C2A 122.4(8) . . ?
O4 C3 C2A 113.1(9) . . ?
Cd1 O5 H5B 112(4) . . ?
Cd1 O5 H5A 110(4) . . ?
H5B O5 H5A 106(5) . . ?
Cd1 O6 H6B 108(4) . . ?
Cd1 O6 H6A 114(4) . . ?
H6B O6 H6A 101(6) . . ?
H7B O7 H7A 100(6) . . ?
H9B O9 H9A 115(6) . . ?
H8B O8 H8A 99(7) . . ?
C2A C4 H4A 109.5 . . ?
C2A C4 H4B 109.5 . . ?
H4A C4 H4B 109.5 . . ?
C2A C4 H4C 109.5 . . ?
H4A C4 H4C 109.5 . . ?
H4B C4 H4C 109.5 . . ?
C4 C2A C1 119.6(13) . . ?
C4 C2A C3 118.5(14) . . ?
C1 C2A C3 106.8(12) . . ?
C4 C2A H2A 103.1 . . ?
C1 C2A H2A 103.1 . . ?
C3 C2A H2A 103.1 . . ?
C3 C2B C4 115.3(14) . . ?
C3 C2B C1 118.8(13) . . ?
C4 C2B C1 109.7(14) . . ?
C3 C2B H2B 103.6 . . ?
C4 C2B H2B 103.6 . . ?
C1 C2B H2B 103.6 . . ?
loop_
_geom_bond_atom_site_label_1
_geom_bond_atom_site_label_2
_geom_bond_distance
_geom_bond_site_symmetry_2
_geom_bond_publ_flag
Cd1 O1 2.262(3) 2_656 ?
Cd1 O1 2.262(3) . ?
Cd1 O5 2.313(3) . ?
Cd1 O5 2.313(3) 2_656 ?
Cd1 O6 2.317(3) 2_656 ?
Cd1 O6 2.317(3) . ?
C1 O1 1.242(5) . ?
C1 O2 1.254(5) . ?
C1 C2B 1.519(16) . ?
C1 C2A 1.572(16) . ?
Cu1 O2 1.935(3) . ?
Cu1 O2 1.935(3) 2_657 ?
Cu1 O4 1.952(3) 2_657 ?
Cu1 O4 1.952(3) . ?
O4 C3 1.267(5) . ?
O3 C3 1.234(6) . ?
C3 C2B 1.457(15) . ?
C3 C2A 1.619(18) . ?
O5 H5B 0.84(2) . ?
O5 H5A 0.84(2) . ?
O6 H6B 0.84(2) . ?
O6 H6A 0.84(2) . ?
O7 H7B 0.85(2) . ?
O7 H7A 0.84(2) . ?
O9 H9B 0.85(2) . ?
O9 H9A 0.84(2) . ?
O8 H8B 0.85(2) . ?
O8 H8A 0.85(2) . ?
C4 C2A 1.262(15) . ?
C4 C2B 1.48(2) . ?
C4 H4A 0.9600 . ?
C4 H4B 0.9600 . ?
C4 H4C 0.9600 . ?
C2A H2A 0.9800 . ?
C2B H2B 0.9800 . ?
