#------------------------------------------------------------------------------
#$Date: 2022-04-19 01:41:39 +0300 (Tue, 19 Apr 2022) $
#$Revision: 274566 $
#$URL: file:///home/coder/svn-repositories/cod/cif/7/24/48/7244805.cif $
#------------------------------------------------------------------------------
#
# This file is available in the Crystallography Open Database (COD),
# http://www.crystallography.net/
#
# All data on this site have been placed in the public domain by the
# contributors.
#
data_7244805
loop_
_publ_author_name
'Qin, Shu-Qin'
'Gan, Qian-Ying'
'Xu, Wei'
'Jiang, Ren-Wang'
_publ_section_title
;
 Hybrid interaction network of guanidinium-biphenyldisulfonic acid for the
 structure determination of liquid molecules
;
_journal_name_full               CrystEngComm
_journal_paper_doi               10.1039/D2CE00228K
_journal_year                    2022
_chemical_formula_moiety         'C12 H8 O6 S2, C11 H14 O2, 2(C H6 N3)'
_chemical_formula_sum            'C25 H34 N6 O8 S2'
_chemical_formula_weight         610.70
_space_group_crystal_system      triclinic
_space_group_IT_number           2
_space_group_name_Hall           '-P 1'
_space_group_name_H-M_alt        'P -1'
_atom_sites_solution_hydrogens   geom
_audit_creation_date             2021-12-13
_audit_creation_method
;
Olex2 1.3-alpha
(compiled 2020.11.12 svn.r5f609507 for OlexSys, GUI svn.r6408)
;
_audit_update_record
;
2022-02-17 deposited with the CCDC.	2022-04-14 downloaded from the CCDC.
;
_cell_angle_alpha                101.192(4)
_cell_angle_beta                 90.032(4)
_cell_angle_gamma                93.056(4)
_cell_formula_units_Z            1
_cell_length_a                   6.1959(3)
_cell_length_b                   7.1931(3)
_cell_length_c                   14.6132(6)
_cell_measurement_reflns_used    4375
_cell_measurement_temperature    149.99(10)
_cell_measurement_theta_max      73.6390
_cell_measurement_theta_min      6.1570
_cell_volume                     637.94(5)
_computing_molecular_graphics    'Olex2 1.3-alpha (Dolomanov et al., 2009)'
_computing_publication_material  'Olex2 1.3-alpha (Dolomanov et al., 2009)'
_computing_structure_refinement  'SHELXL 2018/3 (Sheldrick, 2015)'
_computing_structure_solution    'SHELXS  (Sheldrick, 2008)'
_diffrn_ambient_temperature      150.15
_diffrn_measured_fraction_theta_full 0.996
_diffrn_measured_fraction_theta_max 0.972
_diffrn_measurement_device_type  'SuperNova, Dual, Cu at home/near, AtlasS2'
_diffrn_measurement_method       multi-scan
_diffrn_radiation_type           CuK\a
_diffrn_radiation_wavelength     1.54184
_diffrn_reflns_av_unetI/netI     0.0166
_diffrn_reflns_Laue_measured_fraction_full 0.996
_diffrn_reflns_Laue_measured_fraction_max 0.972
_diffrn_reflns_limit_h_max       7
_diffrn_reflns_limit_h_min       -7
_diffrn_reflns_limit_k_max       8
_diffrn_reflns_limit_k_min       -7
_diffrn_reflns_limit_l_max       18
_diffrn_reflns_limit_l_min       -17
_diffrn_reflns_number            5959
_diffrn_reflns_point_group_measured_fraction_full 0.996
_diffrn_reflns_point_group_measured_fraction_max 0.972
_diffrn_reflns_theta_full        67.684
_diffrn_reflns_theta_max         73.737
_diffrn_reflns_theta_min         3.083
_exptl_absorpt_coefficient_mu    2.458
_exptl_crystal_colour            colourless
_exptl_crystal_colour_primary    colourless
_exptl_crystal_density_diffrn    1.590
_exptl_crystal_description       block
_exptl_crystal_F_000             322
_exptl_crystal_size_max          0.12
_exptl_crystal_size_mid          0.11
_exptl_crystal_size_min          0.1
_refine_diff_density_max         1.393
_refine_diff_density_min         -0.981
_refine_diff_density_rms         0.153
_refine_ls_extinction_method     none
_refine_ls_goodness_of_fit_ref   1.331
_refine_ls_hydrogen_treatment    constr
_refine_ls_matrix_type           full
_refine_ls_number_parameters     273
_refine_ls_number_reflns         5959
_refine_ls_number_restraints     278
_refine_ls_restrained_S_all      1.400
_refine_ls_R_factor_all          0.1003
_refine_ls_R_factor_gt           0.0959
_refine_ls_shift/su_max          0.001
_refine_ls_shift/su_mean         0.000
_refine_ls_structure_factor_coef Fsqd
_refine_ls_weighting_details
'w=1/[\s^2^(Fo^2^)+(0.2000P)^2^] where P=(Fo^2^+2Fc^2^)/3'
_refine_ls_weighting_scheme      calc
_refine_ls_wR_factor_gt          0.2744
_refine_ls_wR_factor_ref         0.2836
_reflns_Friedel_coverage         0.000
_reflns_number_gt                5306
_reflns_number_total             5959
_reflns_threshold_expression     'I > 2\s(I)'
_cod_data_source_file            d2ce00228k3.cif
_cod_data_source_block           12345
_cod_database_code               7244805
_shelx_shelxl_version_number     2018/3
_shelx_space_group_comment
;
The symmetry employed for this shelxl refinement is uniquely defined
by the following loop, which should always be used as a source of
symmetry information in preference to the above space-group names.
They are only intended as comments.
;
_shelx_estimated_absorpt_t_max   0.791
_shelx_estimated_absorpt_t_min   0.757
_olex2_refinement_description
;
1. Twinned data refinement
 Scales: 0.403(3)
 0.597(3)
2. Fixed Uiso
 At 1.2 times of:
  All C(H) groups, All N(H,H) groups
 At 1.5 times of:
  All C(H,H,H) groups
3. Restrained distances
 C2-O4
 1.38 with sigma of 0.02
 C4-C7
 1.5 with sigma of 0.02
 O5-C1
 1.38 with sigma of 0.02
 O4-C11
 1.4 with sigma of 0.02
 C6-O5
 2.3 with sigma of 0.02
 O4-C3
 2.3 with sigma of 0.02
 O5-C10
 1.4 with sigma of 0.02
 C8-C9
 1.55 with sigma of 0.02
 C7-C9
 2.5 with sigma of 0.02
 C7-C8
 1.37 with sigma of 0.02
 C11-C3
 2.4 with sigma of 0.02
 C6B-C1A \\sim C6B-C5B \\sim C5B-C4A \\sim C3B-C4A \\sim C3B-C2B \\sim C2B-C1A
 with sigma of 0.02
 C2A-C1A \\sim C2A-C3A \\sim C3A-C4A \\sim C5A-C4A \\sim C6A-C5A \\sim C6A-C1A
 with sigma of 0.02
4. Uiso/Uaniso restraints and constraints
Uanis(C3) \\sim Ueq, Uanis(O4) \\sim Ueq, Uanis(C2) \\sim Ueq, Uanis(C11) \\sim
Ueq, Uanis(C1) \\sim Ueq, Uanis(C4) \\sim Ueq, Uanis(C6) \\sim Ueq, Uanis(O5)
\\sim Ueq, Uanis(C5) \\sim Ueq, Uanis(C7) \\sim Ueq, Uanis(C10) \\sim Ueq,
Uanis(C8) \\sim Ueq, Uanis(C9) \\sim Ueq: with sigma of 0.01 and sigma for
terminal atoms of 0.02
5. Rigid body (RIGU) restrains
 C1A, C2B, C3B, C4A, C5B, C6B
 with sigma for 1-2 distances of 0.001 and sigma for 1-3 distances of 0.001
 C1A, C2A, C3A, C4A, C5A, C6A
 with sigma for 1-2 distances of 0.001 and sigma for 1-3 distances of 0.001
 O4, O5, C1, C2, C3, C4, C5, C6, C7, C8, C9, C10, C11
 with sigma for 1-2 distances of 0.001 and sigma for 1-3 distances of 0.001
6. Others
 Sof(C2B)=Sof(H2B)=Sof(C3B)=Sof(H3B)=Sof(C5B)=Sof(H5B)=Sof(C6B)=Sof(H6B)=1-
 FVAR(1)
 Sof(C2A)=Sof(H2A)=Sof(C3A)=Sof(H3A)=Sof(C5A)=Sof(H5A)=Sof(C6A)=Sof(H6A)=FVAR(1)
 Fixed Sof: O4(0.5) O5(0.5) C3(0.5) H3(0.5) C4(0.5) C5(0.5) H5(0.5) C6(0.5)
 H6(0.5) C1(0.5) C2(0.5) C7(0.5) H7(0.5) C8(0.5) H8(0.5) C9(0.5) H9A(0.5)
 H9B(0.5) H9C(0.5) C10(0.5) H10A(0.5) H10B(0.5) H10C(0.5) C11(0.5) H11A(0.5)
 H11B(0.5) H11C(0.5)
7.a Aromatic/amide H refined with riding coordinates:
 C3(H3), C5(H5), C6(H6), C7(H7), C8(H8), C2A(H2A), C2B(H2B), C3A(H3A),
 C3B(H3B), C5A(H5A), C5B(H5B), C6A(H6A), C6B(H6B)
7.b Fitted hexagon refined as free rotating group:
 C3(C4,C5,C6,C1,C2)
7.c X=CH2 refined with riding coordinates:
 N1(H1A,H1B), N2(H2C,H2D), N3(H3C,H3D)
7.d Idealised Me refined as rotating group:
 C9(H9A,H9B,H9C), C10(H10A,H10B,H10C), C11(H11A,H11B,H11C)
;
_shelx_res_file
;
TITL 12345_twinP -1lf4_sq R = 0.08 New: P-1
    12345.res
    created by SHELXL-2018/3 at 21:33:04 on 13-Dec-2021
CELL 1.54184 6.1959 7.1931 14.6132 101.192 90.032 93.056
ZERR 1 0.0003 0.0003 0.0006 0.004 0.004 0.004
LATT 1
SFAC C H N O S
UNIT 25 34 6 8 2
RIGU 0.001 0.001 C1A C2B C3B C4A C5B C6B
DFIX 1.38 C2 O4
ISOR 0.01 0.02 C3 O4 C2 C11 C1 C4 C6 O5 C5 C7 C10 C8 C9
RIGU 0.001 0.001 C1A C2A C3A C4A C5A C6A
DFIX 1.5 C4 C7
SADI C6B C1A C6B C5B C5B C4A C3B C4A C3B C2B C2B C1A
DFIX 1.38 O5 C1
SADI C2A C1A C2A C3A C3A C4A C5A C4A C6A C5A C6A C1A
RIGU 0.001 0.001 O4 O5 C1 C2 C3 > C6 C7 > C11
DFIX 1.4 O4 C11
DFIX 2.3 C6 O5
DFIX 2.3 O4 C3
DFIX 1.4 O5 C10
DFIX 1.55 C8 C9
DFIX 2.5 C7 C9
DFIX 1.37 C7 C8
DFIX 2.4 C11 C3

L.S. 4
PLAN  10
SIZE 0.1 0.11 0.12
TEMP -123
CONF
BOND $H
MORE -1
list 8
fmap 2
acta
OMIT 0 0 -1
OMIT 0 1 -1
OMIT 0 -1 1
OMIT 1 0 -1
REM <olex2.extras>
REM <HklSrc "%.\\12345.hkl">
REM </olex2.extras>

WGHT    0.200000
BASF   0.59724
FVAR      10.19442   0.47920
S1    5    0.660547    1.281040    0.139787    11.00000    0.01826    0.02106 =
         0.02109    0.00225   -0.00111    0.00189
O1    4    0.895058    1.295370    0.130716    11.00000    0.01754    0.02668 =
         0.02860    0.00294    0.00130    0.00150
O2    4    0.574675    1.085236    0.116181    11.00000    0.02409    0.02330 =
         0.02965   -0.00030   -0.00224   -0.00042
O3    4    0.551493    1.405843    0.089474    11.00000    0.02551    0.03420 =
         0.03005    0.01152   -0.00110    0.00586
PART -1
O4    4    0.183605    0.912594    0.356913    10.50000    0.22009    0.21774 =
         0.16151    0.00927   -0.02838    0.01161
O5    4    0.485402    1.065030    0.598405    10.50000    0.15477    0.07472 =
         0.14543    0.03801   -0.04296   -0.00669
AFIX  66
C3    1   -0.063455    0.984222    0.456197    10.50000    0.16361    0.07077 =
         0.15139    0.05289   -0.05144   -0.00324
AFIX  43
H3    2   -0.136688    0.953125    0.397643    10.50000   -1.20000
AFIX  65
C4    1   -0.180600    1.027561    0.537959    10.50000    0.19407    0.19341 =
         0.17888    0.03861   -0.02087    0.00769
C5    1   -0.073449    1.073061    0.623632    10.50000    0.17032    0.10080 =
         0.16044    0.05821   -0.00035    0.00874
AFIX  43
H5    2   -0.153514    1.102681    0.679513    10.50000   -1.20000
AFIX  65
C6    1    0.150847    1.075223    0.627542    10.50000    0.17291    0.18973 =
         0.16798    0.02978    0.00285    0.01592
AFIX  43
H6    2    0.224079    1.106321    0.686095    10.50000   -1.20000
AFIX  65
C1    1    0.267995    1.031885    0.545780    10.50000    0.14295    0.11528 =
         0.14126    0.02531   -0.02862    0.00560
C2    1    0.160846    0.986384    0.460107    10.50000    0.16713    0.16898 =
         0.16011    0.00838   -0.04836    0.00984
AFIX   0
C7    1   -0.417416    0.964885    0.518168    10.50000    0.19158    0.22248 =
         0.19092    0.05491   -0.01614   -0.00196
AFIX  43
H7    2   -0.444646    0.906868    0.570441    10.50000   -1.20000
AFIX   0
C8    1   -0.615143    0.934688    0.477884    10.50000    0.19221    0.21270 =
         0.20074    0.02172   -0.01732    0.01484
AFIX  43
H8    2   -0.734281    0.940325    0.519042    10.50000   -1.20000
AFIX   0
C9    1   -0.668773    0.893368    0.376007    10.50000    0.10521    0.21079 =
         0.19342    0.01676    0.00774    0.04764
AFIX 137
H9A   2   -0.820180    0.846549    0.366673    10.50000   -1.50000
H9B   2   -0.575024    0.796753    0.343583    10.50000   -1.50000
H9C   2   -0.646293    1.009701    0.350942    10.50000   -1.50000
AFIX   0
C10   1    0.577205    1.128327    0.692389    10.50000    0.06125    0.11958 =
         0.10541    0.05237    0.01577    0.01049
AFIX 137
H10A  2    0.462011    1.172504    0.735869    10.50000   -1.50000
H10B  2    0.685747    1.232406    0.692083    10.50000   -1.50000
H10C  2    0.645272    1.022416    0.712091    10.50000   -1.50000
AFIX   0
C11   1   -0.018828    0.879857    0.299042    10.50000    0.21318    0.13197 =
         0.12149    0.01997   -0.01466   -0.00009
AFIX 137
H11A  2   -0.086101    1.000865    0.301204    10.50000   -1.50000
H11B  2   -0.119268    0.792168    0.323616    10.50000   -1.50000
H11C  2    0.016150    0.825072    0.234361    10.50000   -1.50000
AFIX   0

PART 0
C12   1    1.037273    1.776552    0.093867    11.00000    0.02269    0.02361 =
         0.02975    0.00469    0.00147    0.00468

C1A   1    0.607416    1.358595    0.259725    11.00000    0.02075    0.03305 =
         0.02098    0.00037   -0.00127    0.00241
PART 1
C2A   1    0.406369    1.423103    0.283024    21.00000    0.02261    0.05683 =
         0.02344    0.00736   -0.00155    0.01128
AFIX  43
H2A   2    0.299779    1.429614    0.237161    21.00000   -1.20000
AFIX   0
PART 2
C2B   1    0.400676    1.325965    0.296587   -21.00000    0.02050    0.07045 =
         0.02256   -0.00070   -0.00304   -0.00484
AFIX  43
H2B   2    0.288917    1.262131    0.255967   -21.00000   -1.20000
AFIX   0
PART 1
C3A   1    0.368294    1.478523    0.378271    21.00000    0.02060    0.06179 =
         0.02449    0.00954    0.00150    0.00856
AFIX  43
H3A   2    0.230720    1.524058    0.396756    21.00000   -1.20000
AFIX   0
PART 2
C3B   1    0.357145    1.385006    0.390735   -21.00000    0.02222    0.07627 =
         0.02276   -0.00087    0.00185   -0.00966
AFIX  43
H3B   2    0.216279    1.366169    0.414110   -21.00000   -1.20000
AFIX   0
PART 0
C4A   1    0.522111    1.471140    0.449233    11.00000    0.02293    0.05339 =
         0.02185   -0.00021   -0.00275    0.00223
PART 1
C5A   1    0.722918    1.405851    0.414867    21.00000    0.02032    0.09428 =
         0.02076   -0.01134   -0.00955    0.01180
AFIX  43
H5A   2    0.834571    1.399611    0.458576    21.00000   -1.20000
AFIX   0
PART 2
C5B   1    0.723232    1.506928    0.419319   -21.00000    0.02526    0.06466 =
         0.02071   -0.00170   -0.00503   -0.00942
AFIX  43
H5B   2    0.832872    1.569481    0.461458   -21.00000   -1.20000
AFIX   0
PART 1
C6A   1    0.766214    1.349872    0.319901    21.00000    0.02600    0.08252 =
         0.02159   -0.00446   -0.00336    0.02115
AFIX  43
H6A   2    0.903590    1.307274    0.299130    21.00000   -1.20000
AFIX   0
PART 2
C6B   1    0.765408    1.448752    0.323864   -21.00000    0.02192    0.05692 =
         0.02124    0.00376   -0.00185   -0.00386
AFIX  43
H6B   2    0.906923    1.471620    0.302076   -21.00000   -1.20000
AFIX   0

PART 0
N1    3    1.152532    1.625705    0.094094    11.00000    0.02319    0.02446 =
         0.04942    0.00915    0.00178    0.00389
AFIX  93
H1A   2    1.086649    1.514511    0.094706    11.00000   -1.20000
H1B   2    1.294623    1.637159    0.093632    11.00000   -1.20000
AFIX   0
N2    3    0.824326    1.757612    0.094566    11.00000    0.02297    0.02052 =
         0.06056    0.00804    0.00148    0.00316
AFIX  93
H2C   2    0.746991    1.856947    0.095138    11.00000   -1.20000
H2D   2    0.759635    1.645646    0.094460    11.00000   -1.20000
AFIX   0
N3    3    1.133172    1.945943    0.094034    11.00000    0.02050    0.02360 =
         0.04145    0.00626   -0.00181    0.00105
AFIX  93
H3C   2    1.054836    2.044669    0.094608    11.00000   -1.20000
H3D   2    1.275133    1.959599    0.093571    11.00000   -1.20000
AFIX   0
HKLF 5 1 1 0 0 0 0.5 0 0 0 1




REM  12345_twinP -1lf4_sq R = 0.08 New: P-1
REM wR2 = 0.2836, GooF = S = 1.331, Restrained GooF = 1.400 for all data
REM R1 = 0.0959 for 5306 Fo > 4sig(Fo) and 0.1003 for all 5959 data
REM 273 parameters refined using 278 restraints

END

WGHT      0.2000      0.0000

REM Highest difference peak  1.393,  deepest hole -0.981,  1-sigma level  0.153
Q1    1   0.3691  1.0668  0.6465  11.00000  0.05    1.39
Q2    1  -0.0093  0.9523  0.4184  11.00000  0.05    1.03
Q3    1   0.1943  1.0637  0.6556  11.00000  0.05    0.89
Q4    1  -0.2728  1.0159  0.5541  11.00000  0.05    0.84
Q5    1  -0.1521  0.9620  0.4417  11.00000  0.05    0.66
Q6    1   0.6528  1.3385  0.2059  11.00000  0.05    0.59
Q7    1   0.5156  1.0159  0.5597  11.00000  0.05    0.52
Q8    1   0.3340  1.0128  0.5544  11.00000  0.05    0.52
Q9    1   0.5000  1.5000  0.5000  10.50000  0.05    0.46
Q10   1  -0.0769  0.9089  0.3154  11.00000  0.05    0.44
;
_shelx_res_checksum              70690
_shelx_hkl_file
;
  -7   2   3 2685.07 83.3082   1
  -7   3   3 84.2841 40.1376   1
  -7   4   1 2461.31 91.4011   1
  -7   4   2 122.281 45.4503   1
  -7   4   3 4578.56 90.4555   1
  -7   5  -6 383.864 47.3076   1
  -7   5  -5 157.593 47.4176   1
  -7   5  -1 39.6779 50.2356   1
  -7   5   0 35.4491 49.4375   1
  -7   5   1 9.23950 44.3951   1
  -7   5   2 11.9172 39.9844   1
  -7   5   3 35.9239 36.4144   1
  -7   6  -5 2522.25 80.6544   1
  -7   6  -4 288.631 50.6635   1
  -7   6  -3 539.348 58.4343   1
  -7   6  -2 3348.89 101.389   1
  -7   6  -1 615.023 60.2638   1
  -7   6   0 69.9118 43.0080   1
  -7   6   1 445.685 48.2968   1
  -7   6   2 3512.00 79.9368   1
  -7   7  -4 588.411 51.5906   1
  -7   7  -3 403.488 49.0921   1
  -7   7  -2 15.9172 41.3744   1
  -7   7  -1 110.938 43.5099   1
  -7   7   0 6.03834 37.7349   1
  -7   7   1 69.7093 35.7759   1
  -7   8  -3 680.874 48.5966   1
  -7   8  -2 201.868 41.4674   1
  -7   8  -1 445.705 43.5638   1
  -7   8   0 1233.38 51.3991   1
  -6   4   4 413.296 71.3272   1
  -6   5   3 101.871 63.8744   1
  -6   5   4 5.07928 56.0373   1
  -6   6   1 8477.56 193.186   1
  -6   6   2 6044.69 159.433   1
  -6   6   3 779.333 77.1351   1
  -6   6   4 6413.34 135.429   1
  -6   7  -7 832.399 73.8898   1
  -6   7  -6 575.198 73.6175   1
  -6   7  -5-9.58124 67.7681   1
  -6   7  -1 36.4970 71.3142   1
  -6   7   0 15.5971 69.1280   1
  -6   7   1 0.72471 65.0432   1
  -6   7   2 39.3402 56.5563   1
  -6   7   3-1.50386 54.7383   1
  -6   7   4 17.4840 47.2808   1
  -6   8  -7 1529.08 78.3513   1
  -6   8  -6 1.60330 59.3405   1
  -6   8  -5 8800.44 181.292   1
  -6   8  -4 3742.18 132.458   1
  -6   8  -3 846.657 89.2253   1
  -6   8  -2 1112.79 93.4245   1
  -6   8  -1 3119.59 125.157   1
  -6   8   0 5043.02 146.432   1
  -6   8   1 1580.65 93.4592   1
  -6   8   2 2070.82 91.9896   1
  -6   8   3 1673.33 77.8290   1
  -6   8   4 1318.70 64.4980   1
  -6   9  -6 171.726 54.7367   1
  -6   9  -5 113.565 60.2820   1
  -6   9  -4 214.188 64.2665   1
  -6   9  -3 136.015 63.5518   1
  -6   9  -2-1.45114 62.0045   1
  -6   9  -1 4.69277 58.6931   1
  -6   9   0 10.5132 54.1990   1
  -6   9   1 2.96868 51.7444   1
  -6   9   2 47.2381 47.9800   1
  -6   9   3-13.7611 40.9264   1
  -6   9   4 87.9052 39.8459   1
  -6  10  -6 4053.44 93.7297   1
  -6  10  -5 971.373 67.1617   1
  -6  10  -4 353.059 57.7033   1
  -6  10  -3 127.971 56.1787   1
  -6  10  -2-2.46920 54.2179   1
  -6  10  -1 50.9420 53.5901   1
  -6  10   0-19.7116 48.9004   1
  -6  10   1 320.774 51.8778   1
  -6  10   2 169.240 43.7931   1
  -6  10   3 1165.66 53.6929   1
  -6  11  -5 7.93378 37.7977   1
  -6  11  -4 85.6331 45.3022   1
  -6  11  -3 14.2120 44.0496   1
  -6  11  -2 40.0850 45.7600   1
  -6  11  -1-14.3676 42.9008   1
  -6  11   0-13.9722 40.3638   1
  -6  11   1-22.1854 35.8923   1
  -5  -3  -1 30.9843 120.209   1
  -5  -3   0 418.414 130.399   1
  -5  -3   1 96.3092 121.523   1
  -5  -3   2 98.7935 124.805   1
  -5  -2  -2 43250.4 667.783   1
  -5  -2  -1 1810.00 175.708   1
  -5  -2   0 612.319 131.097   1
  -5  -2   1 2131.55 169.686   1
  -5  -2   2 3619.80 208.298   1
  -5  -2   3 5.72308 103.666   1
  -5  -1  -3-29.3091 117.606   1
  -5  -1  -2 81.3202 121.497   1
  -5  -1  -1 34.9030 107.585   1
  -5  -1   0 157.961 106.299   1
  -5  -1   1-61.3170 106.632   1
  -5  -1   2 0.61534 105.544   1
   5   0   4 23128.2 637.985  -2
  -5   0  -4 23128.2 637.985   1
   5   0   3 38734.4 807.180  -2
  -5   0  -3 38734.4 807.180   1
   5   0   2 36811.8 775.826  -2
  -5   0  -2 36811.8 775.826   1
   5   0   1 313.712 152.773  -2
  -5   0  -1 313.712 152.773   1
  -5   1  -4 126.529 109.659   1
  -5   1  -3 7.13851 112.745   1
  -5   1  -2 210.601 115.827   1
  -5   2  -4 3071.53 204.432   1
  -5   2  -3 59202.0 716.153   1
  -5   3  -4 93.9366 140.749   1
  -5   6   3 707.693 87.6781   1
  -5   6   4 883.599 89.5925   1
  -5   6   5 38.5223 64.2731   1
  -5   7   2-22.0163 75.4914   1
  -5   7   3 23.9682 72.6980   1
  -5   7   4 430.573 78.9662   1
  -5   7   5 1463.13 90.9909   1
  -5   8  -7 194.155 82.1481   1
  -5   8  -6 2760.11 135.618   1
  -5   8  -5 4004.72 159.529   1
  -5   8  -2 8297.12 216.992   1
  -5   8  -1 870.165 103.792   1
  -5   8   0 1807.18 124.579   1
  -5   8   1 13078.9 252.987   1
  -5   8   2 19485.0 294.849   1
  -5   8   3 2524.04 119.109   1
  -5   8   4 1725.28 99.1289   1
  -5   8   5 9344.49 170.144   1
  -5   9  -7 0.16092 66.3595   1
  -5   9  -6 67.8250 69.2320   1
  -5   9  -5-18.5820 80.2621   1
  -5   9  -4 185.097 82.7789   1
  -5   9  -3 690.125 96.7514   1
  -5   9  -2-2.62575 78.0645   1
  -5   9  -1-15.6829 81.9848   1
  -5   9   0 29.6157 75.8268   1
  -5   9   1 15.4330 72.3018   1
  -5   9   2 68.2564 69.6373   1
  -5   9   3 292.972 70.0880   1
  -5   9   5 730.134 67.3380   1
  -5  10  -7 3935.86 120.482   1
  -5  10  -6 817.420 83.7667   1
  -5  10  -5 3355.33 132.756   1
  -5  10  -4 1155.12 100.098   1
  -5  10  -3 332.536 82.8220   1
  -5  10  -2 569.646 87.5361   1
  -5  10  -1 1365.12 103.027   1
  -5  10   0 1324.71 98.9715   1
  -5  10   1 77.2874 69.0598   1
  -5  10   2 3651.87 128.840   1
  -5  10   3 3888.36 122.622   1
  -5  10   4 1067.17 79.0272   1
  -5  10   5 1305.68 70.1790   1
  -5  11  -8 66.5338 60.5627   1
  -5  11  -6 330.392 64.7123   1
  -5  11  -5-2.38344 60.6723   1
  -5  11  -4 557.624 77.1725   1
  -5  11  -3 101.392 67.4103   1
  -5  11  -2 30.2813 65.7703   1
  -5  11  -1 18.2387 65.4995   1
  -5  11   0 38.5929 61.1995   1
  -5  11   1 43.6080 59.5560   1
  -5  11   2 16.1495 54.5742   1
  -5  11   3 202.282 55.6406   1
  -5  11   4 524.738 56.2025   1
  -5  12  -8 132.438 53.0182   1
  -5  12  -7 2066.17 95.2917   1
  -5  12  -6 4243.85 107.634   1
  -5  12  -5 60.8959 56.8632   1
  -5  12  -4 962.766 77.6300   1
  -5  12  -3 3079.86 115.056   1
  -5  12  -2 778.366 74.5547   1
  -5  12  -1 36.7228 58.0044   1
  -5  12   0 2272.63 98.4450   1
  -5  12   1 5140.97 128.603   1
  -5  12   2 1020.41 67.8008   1
  -5  12   3 1254.87 64.7879   1
  -5  12   4 5112.05 90.0076   1
  -5  13  -7 32.9888 48.6114   1
  -5  13  -6 79.5888 51.1480   1
  -5  13  -5 94.6985 51.9909   1
  -5  13  -4 18.9397 48.2173   1
  -5  13  -3 11.0218 49.6305   1
  -5  13  -2-3.29632 49.1246   1
  -5  13  -1 23.0253 47.9696   1
  -5  13   0 30.5371 46.6542   1
  -5  13   1-1.05996 43.0042   1
  -5  13   2 54.6030 39.8999   1
  -5  14  -5 3100.01 80.7113   1
  -5  14  -4 3023.79 82.3015   1
  -5  14  -3 32.5189 40.3648   1
  -5  14  -2 466.168 49.0964   1
  -5  14  -1 1798.74 66.1183   1
  -4  -7  -1 2545.33 184.859   1
  -4  -7   0 109.570 106.164   1
  -4  -7   1 650.848 125.160   1
  -4  -7   2 2602.57 184.817   1
  -4  -7   3 48.0688 110.890   1
  -4  -6  -3 14195.5 375.491   1
  -4  -6  -2 1773.16 169.756   1
  -4  -6  -1 34241.9 561.946   1
  -4  -6   0 93618.2 905.166   1
  -4  -6   1 23830.3 465.583   1
  -4  -6   2 59.1267 107.616   1
  -4  -6   3 26742.6 484.003   1
  -4  -6   4 40997.4 580.113   1
  -4  -5  -4 111.860 100.456   1
  -4  -5  -3 407.091 115.818   1
  -4  -5  -2 1276.10 142.820   1
  -4  -5  -1 1419.00 152.891   1
  -4  -5   0 672.211 168.221   1
  -4  -5   1 2414.97 175.671   1
  -4  -5   2 1068.16 135.490   1
  -4  -5   3 61.0209 98.7955   1
  -4  -5   4 179.136 108.873   1
  -4  -4  -5 12831.8 341.689   1
  -4  -4  -4 455.645 111.537   1
  -4  -4  -3 583.640 118.998   1
  -4  -4  -2 5331.49 234.313   1
  -4  -4  -1 11817.1 332.291   1
  -4  -4   0 7363.20 270.128   1
  -4  -4   1 11388.1 328.309   1
  -4  -4   2 11607.1 333.145   1
  -4  -4   3 1445.11 143.682   1
  -4  -4   4 5705.99 233.505   1
  -4  -4   5 14375.8 348.610   1
  -4  -3  -6 393.683 117.698   1
  -4  -3  -5 12.8498 88.5738   1
  -4  -3  -4 171.008 101.370   1
  -4  -3  -3 1140.90 132.945   1
  -4  -3  -2 1176.26 135.644   1
  -4  -3  -1 95.7351 107.057   1
  -4  -3   0 937.127 127.731   1
  -4  -3   1 1197.77 125.827   1
  -4  -3   2-13.1303 89.5358   1
  -4  -3   3 241.686 95.4906   1
  -4  -3   4 225.716 92.8670   1
  -4  -3   5 41.9105 92.3366   1
  -4  -2  -6 106.976 101.595   1
  -4  -2  -5 449.065 117.270   1
  -4  -2  -4 14074.5 348.190   1
  -4  -2  -3 6545.70 250.467   1
  -4  -2  -2 54.1588 96.7495   1
  -4  -2  -1 19986.3 395.988   1
  -4  -2   0 7468.25 252.961   1
  -4  -2   1 195.574 89.9475   1
  -4  -1  -6 56.7062 98.2393   1
  -4  -1  -5 355.624 120.274   1
  -4  -1  -4 59.4285 92.0954   1
  -4  -1  -3 252.896 95.7213   1
  -4  -1  -2 21.2104 86.6487   1
  -4  -1  -1 96.4904 83.5047   1
   4   0   6 7422.95 333.444  -2
  -4   0  -6 7422.95 333.444   1
   4   0   5 750.498 151.237  -2
  -4   0  -5 750.498 151.237   1
   4   0   4 1074.63 159.878  -2
  -4   0  -4 1074.63 159.878   1
   4   0   3 1343.96 170.533  -2
  -4   0  -3 1343.96 170.533   1
  -4   1  -5 767.662 111.165   1
  -4   1  -4 27.5419 82.3445   1
  -4   2  -5 35375.0 489.988   1
  -4   3 -12 935.832 87.6223   1
  -4   3  -7 905.436 111.493   1
  -4   3  -6-1.90490 75.6426   1
  -4   3  -5 1228.43 79.1921   1
  -4   3   1 93.2689 105.296   1
  -4   3   2 121.697 108.864   1
  -4   3   3 94.3638 111.272   1
  -4   4 -14 4008.52 114.378   1
  -4   4 -13 426.520 76.1605   1
  -4   4 -12 1463.05 106.275   1
  -4   4 -11 14955.4 258.304   1
  -4   4 -10 20867.8 303.744   1
  -4   4  -9 336.903 85.7433   1
  -4   4  -8 2493.68 163.919   1
  -4   4  -7 28012.6 394.045   1
  -4   4  -6 18763.9 321.242   1
  -4   4  -5 5313.83 176.151   1
  -4   4  -4 1987.47 114.545   1
  -4   4  -3 36754.0 388.127   1
  -4   4  -2 7327.00 176.297   1
  -4   4   1 933.021 147.925   1
  -4   4   2 163.058 121.657   1
  -4   4   3 2658.62 210.900   1
  -4   4   4 7728.28 316.347   1
  -4   4   5 4371.15 267.526   1
  -4   5 -14 619.199 69.3645   1
  -4   5 -13 404.353 75.3575   1
  -4   5 -12 917.053 94.7181   1
  -4   5 -11 298.514 83.3002   1
  -4   5 -10 1650.88 116.832   1
  -4   5  -9 771.960 99.4112   1
  -4   5  -8 24.1804 80.0741   1
  -4   5  -7 756.365 73.0948   1
  -4   5  -6 3848.01 170.638   1
  -4   5  -5 326.755 92.2480   1
  -4   5  -4 1227.39 113.594   1
  -4   5  -3-12.5683 75.9655   1
  -4   5  -2 2613.83 131.914   1
  -4   5  -1 1207.50 100.141   1
  -4   5   0 29.0525 56.8862   1
  -4   5   1 94.2352 135.158   1
  -4   5   2 151.283 136.647   1
  -4   5   3-32.0073 152.697   1
  -4   5   4-33.6253 169.092   1
  -4   5   5 93.0193 176.004   1
  -4   6 -14 106.304 58.0782   1
  -4   6 -13 457.419 77.6035   1
  -4   6 -12 1122.27 100.333   1
  -4   6 -11 43.9163 78.3186   1
  -4   6 -10 6530.59 194.831   1
  -4   6  -9 7589.96 202.375   1
  -4   6  -8 103.288 82.4097   1
  -4   6  -7 1470.52 90.3122   1
  -4   6  -6 21947.5 234.926   1
  -4   6  -5 29969.7 262.142   1
  -4   6  -4 11723.8 270.398   1
  -4   6  -3 11538.5 263.929   1
  -4   6  -2 38417.7 451.482   1
  -4   6  -1 45042.2 480.299   1
  -4   6   0 6152.73 164.200   1
  -4   6   1 315.357 75.9683   1
  -4   6   2 13695.8 435.824   1
  -4   6   3 27856.3 292.452   1
  -4   6   4 6927.29 156.218   1
  -4   6   5 204.417 72.6025   1
  -4   7 -13 94.1431 67.5901   1
  -4   7 -12 10.2540 74.4845   1
  -4   7 -11 455.671 91.4077   1
  -4   7 -10 18.5135 79.3637   1
  -4   7  -9 46.7117 80.2943   1
  -4   7  -8 448.924 94.6695   1
  -4   7  -7 23.8876 80.7608   1
  -4   7  -6 2000.17 96.2103   1
  -4   7  -5 778.755 127.734   1
  -4   7  -4 309.622 63.5630   1
  -4   7  -3 906.107 74.4668   1
  -4   7  -2 2863.46 157.520   1
  -4   7  -1 95.4749 89.9752   1
  -4   7   0 157.289 81.7518   1
  -4   7   1-2.46993 84.6032   1
  -4   7   2 28.7033 69.8904   1
  -4   7   3 327.249 71.7752   1
  -4   7   4 149.965 74.8981   1
  -4   7   5 815.514 88.7004   1
  -4   8 -14 4835.11 117.770   1
  -4   8 -13 1652.18 100.066   1
  -4   8 -12 862.660 94.0843   1
  -4   8 -11 6937.58 189.844   1
  -4   8 -10 1695.57 121.938   1
  -4   8  -9 589.974 96.3692   1
  -4   8  -8 1717.15 122.210   1
  -4   8  -7 3959.91 160.441   1
  -4   8  -6 3709.26 153.261   1
  -4   8  -5 148.047 83.7108   1
  -4   8  -4 10743.7 180.460   1
  -4   8  -3 3068.98 177.137   1
  -4   8  -2 51.1838 103.528   1
  -4   8  -1 3670.61 118.251   1
  -4   8   0 2249.40 91.8832   1
  -4   8   1 1488.92 82.8340   1
  -4   8   2 190.138 79.1080   1
  -4   8   3 4619.33 154.472   1
  -4   8   4 6225.26 171.221   1
  -4   8   5 219.339 73.3182   1
  -4   9 -13 2.00990 60.9088   1
  -4   9 -12 85.0510 66.4270   1
  -4   9 -11 175.565 78.5921   1
  -4   9 -10 695.845 97.6122   1
  -4   9  -9 113.202 86.0770   1
  -4   9  -8 8.94632 79.2803   1
  -4   9  -7 933.588 104.389   1
  -4   9  -6 672.420 68.5176   1
  -4   9  -5 1003.29 73.6361   1
  -4   9  -4 98.2677 81.7921   1
  -4   9  -3 1973.01 128.541   1
  -4   9  -2 593.243 100.150   1
  -4   9  -1-30.8093 80.1991   1
  -4   9   0 88.8917 81.9321   1
  -4   9   1-11.3669 76.6076   1
  -4   9   2 102.014 76.5935   1
  -4   9   3-44.7354 71.2009   1
  -4   9   4 6.77464 70.3067   1
  -4   9   5 259.964 69.9997   1
  -4   9   6 107.302 65.9017   1
  -4  10 -13 1595.75 85.1641   1
  -4  10 -12 1088.98 88.8805   1
  -4  10 -11 344.682 80.1685   1
  -4  10 -10 2607.38 84.7492   1
  -4  10  -9 357.759 58.8964   1
  -4  10  -8 664.372 101.859   1
  -4  10  -7 1296.59 116.812   1
  -4  10  -6 6248.06 129.853   1
  -4  10  -5 7445.04 196.426   1
  -4  10  -4 721.895 96.5669   1
  -4  10  -3 5238.72 176.014   1
  -4  10  -2 6744.02 196.454   1
  -4  10  -1 1482.34 117.160   1
  -4  10   0 72.1780 75.9049   1
  -4  10   1 3571.40 147.835   1
  -4  10   2 8018.35 197.743   1
  -4  10   3 688.377 85.2099   1
  -4  10   4 1412.22 98.5210   1
  -4  10   5 6439.85 152.333   1
  -4  10   6 214.123 59.8313   1
  -4  11 -12 137.951 62.6808   1
  -4  11 -11 14.3518 69.3001   1
  -4  11 -10 26.7485 47.5249   1
  -4  11  -9 344.302 58.3515   1
  -4  11  -8 44.9094 79.5279   1
  -4  11  -7 865.525 101.700   1
  -4  11  -6 127.829 68.2182   1
  -4  11  -5 268.919 77.1522   1
  -4  11  -4 689.551 91.3941   1
  -4  11  -3 733.778 92.9574   1
  -4  11  -2 11.4467 74.8540   1
  -4  11  -1-14.0871 75.8507   1
  -4  11   0 8.65921 73.7359   1
  -4  11   1-1.11543 71.7493   1
  -4  11   2 239.118 73.9412   1
  -4  11   3 90.1684 65.6865   1
  -4  11   4 665.874 80.0981   1
  -4  11   5 109.452 60.3552   1
  -4  12 -10 722.370 74.1193   1
  -4  12  -9 61.1886 71.5037   1
  -4  12  -8 69.0988 73.6496   1
  -4  12  -6 654.639 79.7486   1
  -4  12  -5 7245.82 174.079   1
  -4  12  -4 1213.01 98.0692   1
  -4  12  -3 898.451 92.1254   1
  -4  12  -2 9001.07 207.783   1
  -4  12  -1 10726.7 223.187   1
  -4  12   0 6186.19 173.176   1
  -4  12   1 44.6094 73.6102   1
  -4  12   2 10329.9 202.675   1
  -4  12   3 20930.3 263.372   1
  -4  12   4 8557.27 159.815   1
  -4  12   5 79.0074 51.8216   1
  -4  13 -10 294.209 60.1474   1
  -4  13  -9 157.129 64.7323   1
  -4  13  -8 122.933 68.9351   1
  -4  13  -6 376.215 62.4879   1
  -4  13  -5 61.6115 62.5928   1
  -4  13  -4 640.620 77.8305   1
  -4  13  -3 99.3769 68.3877   1
  -4  13  -2-21.3348 68.0806   1
  -4  13  -1-52.8331 67.5095   1
  -4  13   0 40.6119 63.8256   1
  -4  13   1 26.9466 63.4505   1
  -4  13   2 11.0202 58.0064   1
  -4  13   3 18.0562 55.0376   1
  -4  13   4 235.498 52.4668   1
  -4  13   5 19.9865 40.8568   1
  -4  14  -9 4053.21 99.7230   1
  -4  14  -8 128.602 60.7956   1
  -4  14  -7 3155.78 110.233   1
  -4  14  -6 11936.7 194.108   1
  -4  14  -5 1417.70 81.1091   1
  -4  14  -4 322.318 64.0468   1
  -4  14  -3 2670.59 105.288   1
  -4  14  -2 2798.35 108.945   1
  -4  14  -1 794.426 76.0681   1
  -4  14   0 348.989 63.9051   1
  -4  14   1 5206.20 127.757   1
  -4  14   2 1910.80 80.6668   1
  -4  14   3 26.8074 42.7561   1
  -4  15  -7 64.7579 48.2134   1
  -4  15  -6 186.701 54.0333   1
  -4  15  -5 170.507 53.3801   1
  -4  15  -4 24.0004 32.2075   1
  -4  15  -3 11.4644 34.0833   1
  -4  15  -2-7.88179 35.6765   1
  -4  15  -1-15.2256 30.7567   1
  -4  15   0-14.7795 44.3942   1
  -4  15   1 52.6900 42.4365   1
  -3  -9  -1 430.048 118.622   1
  -3  -9   0 262.308 108.699   1
  -3  -9   1 28.2874 99.6331   1
  -3  -9   2 148.184 102.359   1
  -3  -8  -4 18858.3 424.374   1
  -3  -8  -3 21672.4 448.062   1
  -3  -8  -2 13804.6 358.237   1
  -3  -8  -1 83.0586 98.6657   1
  -3  -8   0 14692.5 363.392   1
  -3  -8   1 30854.5 506.318   1
  -3  -8   2 6477.93 245.216   1
  -3  -8   3 96.8408 93.6458   1
  -3  -7  -5-9.07580 88.6482   1
  -3  -7  -4 576.193 112.459   1
  -3  -7  -3 15.7974 86.8738   1
  -3  -7  -2 64.0240 93.3687   1
  -3  -7  -1 1335.31 131.415   1
  -3  -7   0 693.561 117.104   1
  -3  -7   1 128.445 81.3402   1
  -3  -7   2 86.0386 81.2778   1
  -3  -7   3 57.2163 85.8305   1
  -3  -7   4 89.9807 79.2575   1
  -3  -6  -7 626.335 77.0108   1
  -3  -6  -6 6780.95 133.283   1
  -3  -6  -5 7173.75 130.802   1
  -3  -6  -4 1647.66 148.719   1
  -3  -6  -3 611.823 107.938   1
  -3  -6  -2 11939.2 310.289   1
  -3  -6  -1 13245.8 317.826   1
  -3  -6   0 1832.59 138.489   1
  -3  -6   1 3791.11 178.954   1
  -3  -6   2 11841.7 293.794   1
  -3  -6   3 10571.8 273.987   1
  -3  -6   4 2248.60 140.393   1
  -3  -5  -7 102.026 64.3069   1
  -3  -5  -6 18.6994 49.0146   1
  -3  -5  -5 125.915 50.8912   1
  -3  -5  -4-3.55140 79.6708   1
  -3  -5  -3 10.6895 71.6095   1
  -3  -5  -2 300.494 83.8332   1
  -3  -5  -1 423.165 96.5865   1
  -3  -5   0 112.701 83.8728   1
  -3  -5   1 1448.47 122.529   1
  -3  -5   2 1357.42 123.777   1
  -3  -5   3 100.370 78.3144   1
  -3  -5   4 359.266 83.3330   1
  -3  -5   5 569.925 97.1043   1
  -3  -4  -7 5636.80 124.719   1
  -3  -4  -6 512.219 57.6770   1
  -3  -4  -5 2093.78 140.109   1
  -3  -4  -4 2122.13 137.730   1
  -3  -4  -3 20693.0 370.259   1
  -3  -4  -2 581.816 100.624   1
  -3  -4  -1 5606.00 205.202   1
  -3  -4   0 12699.1 290.881   1
  -3  -4   1 13215.4 299.831   1
  -3  -4   2 1471.07 122.868   1
  -3  -4   3 16584.6 312.988   1
  -3  -4   4 671.064 94.4453   1
  -3  -4   5 1268.47 107.857   1
  -3  -3  -7 397.872 90.8461   1
  -3  -3  -6 260.743 79.0975   1
  -3  -3  -5 577.029 90.9350   1
  -3  -3  -4 125.947 74.1731   1
  -3  -3  -3 38.8390 81.0698   1
  -3  -3  -2 2196.96 138.520   1
  -3  -3  -1 742.038 103.958   1
  -3  -3   0 74.0282 69.9059   1
  -3  -3   1 108.115 77.7123   1
  -3  -3   2 167.108 75.1208   1
  -3  -2 -13 940.747 85.2125   1
  -3  -2  -8 111.389 111.019   1
  -3  -2  -7 2140.26 94.9215   1
  -3  -2  -6 57.2775 51.6136   1
  -3  -2  -5 13369.8 184.580   1
  -3  -2  -4 2615.67 144.510   1
  -3  -2  -3 42040.6 501.413   1
  -3  -2  -2 20101.7 332.932   1
  -3  -2  -1 5011.26 174.783   1
  -3  -1 -14 381.909 71.6811   1
  -3  -1 -13 140.930 73.4634   1
  -3  -1 -12 20.5139 72.5543   1
  -3  -1 -11 2879.08 133.015   1
  -3  -1  -9 29.6804 108.643   1
  -3  -1  -8-13.7703 92.7762   1
  -3  -1  -7 25.8459 48.5395   1
  -3  -1  -6 368.026 53.0955   1
  -3  -1  -5 761.059 60.4082   1
  -3  -1  -4 95.4945 49.1866   1
  -3  -1  -3 522.461 47.2167   1
  -3  -1  -2 22.1726 70.6227   1
   3   0  15 1962.30 122.467  -2
  -3   0 -15 1962.30 122.467   1
   3   0  14 2858.97 163.501  -2
  -3   0 -14 2858.97 163.501   1
   3   0  13 1100.46 136.951  -2
  -3   0 -13 1100.46 136.951   1
   3   0  12 892.937 137.728  -2
  -3   0 -12 892.937 137.728   1
   3   0  11 34032.2 512.249  -2
  -3   0 -11 34032.2 512.249   1
   3   0  10 7048.73 199.930  -2
  -3   0 -10 7048.73 199.930   1
   3   0   9 986.531 177.037  -2
  -3   0  -9 986.531 177.037   1
   3   0   8 16936.2 435.382  -2
  -3   0  -8 16936.2 435.382   1
   3   0   7 9117.63 300.674  -2
  -3   0  -7 9117.63 300.674   1
   3   0   6 2209.20 110.336  -2
  -3   0  -6 2209.20 110.336   1
   3   0   5 16112.9 248.325  -2
  -3   0  -5 16112.9 248.325   1
   3   0   4 13233.8 207.068  -2
  -3   0  -4 13233.8 207.068   1
   3   0   3 70.9802 48.9844  -2
  -3   0  -3 70.9802 48.9844   1
   3   0   2 5166.99 137.423  -2
  -3   0  -2 5166.99 137.423   1
   3   0   1 764.874 64.5610  -2
  -3   0  -1 764.874 64.5610   1
   3   0  -2 180476. 1053.70  -2
  -3   0   2 180476. 1053.70   1
   3   0  -3 4765.81 208.008  -2
  -3   0   3 4765.81 208.008   1
   3   0  -4 3533.01 193.716  -2
  -3   0   4 3533.01 193.716   1
  -3   1 -16 55.9312 47.6591   1
  -3   1 -15 80.4390 63.8163   1
  -3   1 -14 41.0972 74.8357   1
  -3   1 -13 424.565 88.4251   1
  -3   1 -12 197.426 83.9376   1
  -3   1 -11 1346.07 112.777   1
  -3   1 -10-39.7917 64.0448   1
  -3   1  -9 19.9214 60.6480   1
  -3   1  -8 557.662 95.4802   1
  -3   1  -7 814.673 91.0701   1
  -3   1  -6 100.404 43.4746   1
  -3   1  -5-0.38387 43.6380   1
  -3   1  -4 68.3278 40.6973   1
  -3   1  -3 341.274 54.8586   1
  -3   1  -2 31.5105 43.8457   1
  -3   1  -1 1269.98 61.1284   1
  -3   1   0 833.182 54.2468   1
  -3   1   1 388.004 38.7329   1
  -3   1   2 57.1568 78.2796   1
  -3   1   3 1062.41 114.383   1
  -3   1   4 177.070 85.4632   1
  -3   1   5 172.622 85.8026   1
  -3   1   6 17.9561 85.6751   1
  -3   1   7 209.816 97.3564   1
   3   2  15 1785.84 98.3081  -2
  -3   2 -16 1785.84 98.3081   1
   3   2  14 909.438 106.006  -2
  -3   2 -15 909.438 106.006   1
   3   2  13 3566.77 169.053  -2
  -3   2 -14 3566.77 169.053   1
   3   2  12 2968.55 164.098  -2
  -3   2 -13 2968.55 164.098   1
   3   2  11 14459.5 286.900  -2
  -3   2 -12 14459.5 286.900   1
   3   2  10 1045.84 134.753  -2
  -3   2 -11 1045.84 134.753   1
   3   2   9 5173.07 146.728  -2
  -3   2 -10 5173.07 146.728   1
   3   2   8 2698.85 111.963  -2
  -3   2  -9 2698.85 111.963   1
   3   2   7 2914.34 156.936  -2
  -3   2  -8 2914.34 156.936   1
   3   2   6 5386.50 172.399  -2
  -3   2  -7 5386.50 172.399   1
   3   2   5 12742.8 232.963  -2
  -3   2  -6 12742.8 232.963   1
  -3   2  -5 5188.96 165.297   1
   3   2   4 7564.68 178.119  -2
  -3   2  -5 7564.68 178.119   1
   3   2   3 51239.9 389.933  -2
  -3   2  -4 51239.9 389.933   1
   3   2   2 52947.2 373.660  -2
  -3   2  -3 52947.2 373.660   1
  -3   2  -2 2363.32 87.9879   1
  -3   2  -1 64.3059 46.5712   1
  -3   2   0 28294.1 215.946   1
  -3   2   1 70508.9 642.454   1
  -3   2   2 300.824 102.558   1
  -3   2   3 461.390 108.843   1
  -3   2   4 14744.7 323.102   1
  -3   2   5 21042.0 392.627   1
  -3   2   6 11502.7 303.455   1
  -3   2   7-20.1376 101.584   1
  -3   2   8 27642.9 496.593   1
  -3   3 -16 49.4669 54.3483   1
  -3   3 -15 127.681 72.3253   1
  -3   3 -14 119.288 78.5011   1
  -3   3 -13 388.529 92.7873   1
  -3   3 -12 2641.49 145.956   1
  -3   3 -11 572.875 103.228   1
  -3   3 -10 4.35663 64.0563   1
  -3   3  -9 555.988 68.5950   1
  -3   3  -8 23.4719 53.1563   1
  -3   3  -7 204.833 74.5580   1
  -3   3  -6-35.6568 63.6646   1
  -3   3  -5 1093.46 94.2524   1
  -3   3  -4 746.993 79.9993   1
  -3   3  -3 458.428 66.0031   1
  -3   3  -2 231.239 56.9605   1
  -3   3  -1 330.372 54.7841   1
  -3   3   0 115.359 104.752   1
  -3   3   1 160.847 110.733   1
  -3   3   2 688.978 129.487   1
  -3   3   3 1727.83 156.102   1
  -3   3   4 372.057 115.977   1
  -3   3   5 68.5703 106.536   1
  -3   3   6 592.580 125.390   1
  -3   3   7 40.6950 110.093   1
  -3   3   8 617.077 145.328   1
  -3   3   9 38.0164 151.820   1
  -3   4 -16 267.579 63.4202   1
  -3   4 -15 1320.09 101.868   1
  -3   4 -14 120.675 84.6416   1
  -3   4 -13 81.6370 92.3396   1
  -3   4 -12 7216.69 220.609   1
  -3   4 -11 4217.13 174.389   1
  -3   4 -10 90.7887 67.4914   1
  -3   4  -9 10775.3 177.032   1
  -3   4  -8 10459.1 165.866   1
  -3   4  -7 2876.20 143.405   1
  -3   4  -6 2326.42 131.447   1
  -3   4  -5 21320.3 309.801   1
  -3   4  -4 19010.7 282.041   1
  -3   4  -3 3952.99 136.883   1
  -3   4  -2 164.401 59.0514   1
  -3   4  -1 8460.59 151.945   1
  -3   4   0 18149.0 397.036   1
  -3   4   1 4209.13 223.940   1
  -3   4   2 317.357 130.616   1
  -3   4   3 2694.66 193.629   1
  -3   4   4 1789.81 166.049   1
  -3   4   5-1.31090 115.666   1
  -3   4   6 4037.42 234.049   1
  -3   4   7 11056.4 361.008   1
  -3   4   8 3463.79 243.855   1
  -3   5 -16 72.5384 57.8783   1
  -3   5 -15 188.859 76.8591   1
  -3   5 -14 2889.24 148.188   1
  -3   5 -13 156.870 94.3107   1
  -3   5 -12 1350.90 127.916   1
  -3   5 -11 35.2556 92.6855   1
  -3   5 -10 781.590 107.640   1
  -3   5  -9 88.4440 65.0962   1
  -3   5  -8 65.8044 59.8834   1
  -3   5  -7 574.996 111.469   1
  -3   5  -6 200.473 80.2815   1
  -3   5  -5 283.053 79.6100   1
  -3   5  -4 214.854 71.5704   1
  -3   5  -3-21.7347 67.0567   1
  -3   5  -2 1083.67 83.7224   1
  -3   5  -1 1262.14 82.5021   1
  -3   5   0 17.6761 129.751   1
  -3   5   1 80.7244 135.261   1
  -3   5   2 168.563 138.465   1
  -3   5   3 80.5054 134.452   1
  -3   5   4 91.5966 115.025   1
  -3   5   5 148.120 131.006   1
  -3   5   6 709.099 156.374   1
  -3   5   7 359.140 162.040   1
  -3   5   8 107.041 160.171   1
  -3   6 -16 367.922 67.1335   1
  -3   6 -15 1699.13 113.719   1
  -3   6 -14 1116.03 115.916   1
  -3   6 -13 5773.53 201.551   1
  -3   6 -12 128.950 95.4679   1
  -3   6 -11 5804.44 209.439   1
  -3   6 -10 13163.8 287.288   1
  -3   6  -9 6439.41 153.660   1
  -3   6  -8 44.2817 64.2565   1
  -3   6  -7 2305.56 96.3878   1
  -3   6  -6 27520.9 409.286   1
  -3   6  -5 17782.4 324.796   1
  -3   6  -4 1959.69 125.962   1
  -3   6  -3 1038.05 100.402   1
  -3   6  -2 10375.3 211.686   1
  -3   6  -1 5300.22 268.831   1
  -3   6   0 77.5622 151.327   1
  -3   6   1 4232.72 261.414   1
  -3   6   2 177.255 158.566   1
  -3   6   3 32.7652 148.132   1
  -3   6   4 48.3737 138.396   1
  -3   6   5-9.71704 147.325   1
  -3   6   6 838.430 187.556   1
  -3   6   7 17269.3 494.504   1
  -3   7 -16 290.361 62.4465   1
  -3   7 -15 618.241 86.7807   1
  -3   7 -14-18.0950 86.6135   1
  -3   7 -13 1718.55 133.417   1
  -3   7 -12 777.857 114.612   1
  -3   7 -11 72.5845 93.8524   1
  -3   7 -10 359.896 103.423   1
  -3   7  -9 193.342 94.1751   1
  -3   7  -8 467.648 75.5075   1
  -3   7  -7 76.6203 62.6670   1
  -3   7  -6 1382.54 85.2791   1
  -3   7  -5 111.005 86.8363   1
  -3   7  -4 581.796 96.7020   1
  -3   7  -3 189.952 81.9785   1
  -3   7  -2 25.4623 80.4341   1
  -3   7  -1 125.414 150.033   1
  -3   7   0 12.9531 153.613   1
  -3   7   1 618.492 183.496   1
  -3   7   2 424.291 177.431   1
  -3   7   3 22.4766 62.3989   1
  -3   7   4 8.85685 61.2251   1
  -3   7   5 175.102 64.7329   1
  -3   7   6 177.245 165.103   1
  -3   8 -16 339.421 58.2428   1
  -3   8 -15 317.945 78.4794   1
  -3   8 -14 2298.91 132.431   1
  -3   8 -13 9.54594 86.3687   1
  -3   8 -12 651.924 112.575   1
  -3   8 -11 567.908 116.846   1
  -3   8 -10 1317.30 133.136   1
  -3   8  -9 762.359 114.191   1
  -3   8  -8 156.911 73.0587   1
  -3   8  -7 508.201 79.0694   1
  -3   8  -6 3368.01 117.645   1
  -3   8  -5 4710.45 97.6263   1
  -3   8  -4 5423.98 101.786   1
  -3   8  -3 1286.72 64.7190   1
  -3   8  -2 3791.09 86.5630   1
  -3   8  -1 10485.7 184.476   1
  -3   8   0 61.9667 61.8783   1
  -3   8   1 44.8659 64.6195   1
  -3   8   2 926.593 82.0445   1
  -3   8   3 3033.84 114.210   1
  -3   8   4 56.5775 63.9704   1
  -3   8   5 1210.32 88.8778   1
  -3   8   6 7160.66 166.046   1
  -3   9 -15 698.968 78.1701   1
  -3   9 -14 221.548 81.1263   1
  -3   9 -13 234.041 90.2325   1
  -3   9 -12 216.238 99.7487   1
  -3   9 -11 19.2359 96.0159   1
  -3   9 -10 5.48830 60.8873   1
  -3   9  -9 32.0137 91.6953   1
  -3   9  -8 211.950 97.4813   1
  -3   9  -7 24.5387 84.6973   1
  -3   9  -6 402.117 73.5497   1
  -3   9  -5-18.3096 50.1007   1
  -3   9  -4 12.4629 47.6484   1
  -3   9  -3 733.529 58.8867   1
  -3   9  -2 541.965 69.7994   1
  -3   9  -1-1.85502 55.0118   1
  -3   9   0 204.815 70.0601   1
  -3   9   1 176.036 69.7453   1
  -3   9   2 162.567 68.2376   1
  -3   9   3 53.1364 64.9129   1
  -3   9   4 430.731 77.2139   1
  -3   9   5 417.477 76.6749   1
  -3   9   6 25.0283 67.1378   1
  -3  10 -15 923.980 73.9171   1
  -3  10 -14 613.781 87.4718   1
  -3  10 -13 1342.65 114.965   1
  -3  10 -12 288.636 95.4900   1
  -3  10 -11 100.608 58.5080   1
  -3  10 -10 1708.32 89.2384   1
  -3  10  -9 649.694 110.080   1
  -3  10  -8 553.127 106.518   1
  -3  10  -7 486.482 104.838   1
  -3  10  -6 124.225 54.0784   1
  -3  10  -5 2229.43 89.8538   1
  -3  10  -4 14810.6 170.430   1
  -3  10  -3 7179.26 153.484   1
  -3  10  -2 243.448 68.6547   1
  -3  10  -1 7428.23 145.246   1
  -3  10   0 8854.66 187.761   1
  -3  10   1 7214.03 169.784   1
  -3  10   2 688.561 89.7552   1
  -3  10   3 4331.59 151.797   1
  -3  10   4 7989.88 191.327   1
  -3  10   5 4394.05 144.566   1
  -3  10   6 1642.80 102.049   1
  -3  11 -14 720.672 78.0983   1
  -3  11 -13 16.9131 74.0942   1
  -3  11 -12 349.197 93.3174   1
  -3  11 -11 29.5193 54.7822   1
  -3  11 -10 16.3635 58.6325   1
  -3  11  -9 62.0968 63.7604   1
  -3  11  -8 28.3003 90.9043   1
  -3  11  -7 20.4285 92.1746   1
  -3  11  -6 93.3209 55.9124   1
  -3  11  -5 53.2456 54.6897   1
  -3  11  -4 256.237 77.0364   1
  -3  11  -3 42.3283 75.0112   1
  -3  11  -2 38.1228 77.4767   1
  -3  11  -1 8.96456 76.1673   1
  -3  11   0 81.0848 78.3363   1
  -3  11   1 200.370 77.6770   1
  -3  11   2 33.9822 74.9508   1
  -3  11   3-9.96977 71.1458   1
  -3  11   4 671.748 85.5022   1
  -3  11   5 35.1540 64.6306   1
  -3  11   6 15.3742 58.8142   1
  -3  12 -13 1468.15 95.2064   1
  -3  12 -12 2594.70 75.8453   1
  -3  12 -11 67.1859 52.6127   1
  -3  12 -10 886.323 71.2392   1
  -3  12  -9 1281.93 82.3471   1
  -3  12  -8 2182.06 95.0961   1
  -3  12  -7 5.84184 91.2814   1
  -3  12  -6 1056.59 74.0306   1
  -3  12  -5 7941.06 189.115   1
  -3  12  -4 9.43737 74.0974   1
  -3  12  -3 734.841 95.2980   1
  -3  12  -2 3584.62 147.484   1
  -3  12  -1 762.914 95.5990   1
  -3  12   0 3.00535 74.5254   1
  -3  12   1 1056.39 99.0998   1
  -3  12   2 6070.64 175.464   1
  -3  12   3 741.224 89.6175   1
  -3  12   4 710.333 85.8971   1
  -3  12   5 6006.62 148.665   1
  -3  12   6 1292.81 82.5169   1
  -3  13 -12 108.083 56.0489   1
  -3  13 -11 21.9594 48.6338   1
  -3  13 -10 14.5390 51.0611   1
  -3  13  -9 195.845 80.9946   1
  -3  13  -8 178.307 83.4289   1
  -3  13  -7-5.25285 79.3877   1
  -3  13  -5 21.9026 69.0746   1
  -3  13  -4 456.742 77.8998   1
  -3  13  -3 105.407 73.5049   1
  -3  13  -2-38.2810 72.0368   1
  -3  13  -1 52.3807 75.4685   1
  -3  13   0 77.8208 72.4717   1
  -3  13   1 61.5610 75.0369   1
  -3  13   2 25.3176 75.4315   1
  -3  13   3 258.442 72.1805   1
  -3  13   4-10.2912 61.4129   1
  -3  13   5 20.5251 54.8864   1
  -3  13   6 100.367 47.6028   1
  -3  14 -11 596.978 66.0999   1
  -3  14 -10 699.805 78.1697   1
  -3  14  -9 122.493 68.8226   1
  -3  14  -8 74.2320 75.8052   1
  -3  14  -7 953.309 94.2064   1
  -3  14  -6 994.073 98.0367   1
  -3  14  -5 3297.65 88.8639   1
  -3  14  -4 4626.93 139.553   1
  -3  14  -3 389.139 79.3415   1
  -3  14  -2 144.636 73.6488   1
  -3  14  -1 2734.04 122.933   1
  -3  14   0 6693.71 169.143   1
  -3  14   1 4221.29 138.487   1
  -3  14   2 245.187 71.9724   1
  -3  14   3 4152.94 124.562   1
  -3  14   4 5756.93 124.388   1
  -3  14   5 839.538 59.0612   1
  -3  15 -10 41.0909 52.2110   1
  -3  15  -9 61.3554 59.1184   1
  -3  15  -8 18.0497 62.1535   1
  -3  15  -7 24.2510 64.4221   1
  -3  15  -6 100.898 66.8197   1
  -3  15  -5 63.5359 42.7825   1
  -3  15  -4 28.2125 42.4623   1
  -3  15  -3 37.1209 42.7240   1
  -3  15  -2 17.7766 44.5550   1
  -3  15  -1 43.3856 41.2020   1
  -3  15   0 29.1034 60.4788   1
  -3  15   1 146.039 61.3570   1
  -3  15   2-1.45593 52.9988   1
  -3  15   3 38.1532 46.5380   1
  -3  15   4 1.38094 38.1731   1
  -3  16  -8 1548.81 71.4641   1
  -3  16  -7 279.395 55.0762   1
  -3  16  -6 1840.08 80.8999   1
  -3  16  -5 182.846 54.3051   1
  -3  16  -4-0.09874 32.8212   1
  -3  16  -3 313.487 39.1522   1
  -3  16  -2 306.664 60.5910   1
  -3  16  -1 296.470 56.0071   1
  -3  16   0 48.0284 47.2279   1
  -3  16   1 2063.81 76.2173   1
  -3  16   2 1115.96 56.6496   1
  -2 -11   1 306.841 131.838   1
  -2 -10  -9 833.929 69.2592   1
  -2 -10  -8 2810.17 102.337   1
  -2 -10  -7 1773.11 91.6013   1
  -2 -10  -2 182.489 110.223   1
  -2 -10  -1 1130.82 141.213   1
  -2 -10   0 321.588 111.453   1
  -2 -10   1 2078.75 164.713   1
  -2 -10   2 3373.12 190.344   1
  -2  -9 -10 377.287 65.3937   1
  -2  -9  -9 8.09096 55.6838   1
  -2  -9  -8 129.983 61.7539   1
  -2  -9  -7 135.803 59.3672   1
  -2  -9  -6 45.4320 58.9679   1
  -2  -9  -4-43.0596 95.2069   1
  -2  -9  -3 82.2474 97.3740   1
  -2  -9  -2-5.86584 97.2884   1
  -2  -9  -1 59.7329 92.1601   1
  -2  -9   0 637.283 109.534   1
  -2  -9   1 563.648 101.873   1
  -2  -9   2 274.248 92.1723   1
  -2  -9   3 910.142 112.951   1
  -2  -8 -11 2168.50 101.148   1
  -2  -8 -10 143.026 68.1318   1
  -2  -8  -9 18.8929 63.3205   1
  -2  -8  -8 9394.81 192.794   1
  -2  -8  -7 11748.8 201.923   1
  -2  -8  -6 742.254 65.5606   1
  -2  -8  -5 5159.86 112.957   1
  -2  -8  -4 3821.79 192.380   1
  -2  -8  -3 7143.71 247.086   1
  -2  -8  -2 4519.51 199.245   1
  -2  -8  -1 567.046 99.0902   1
  -2  -8   0 3840.36 175.884   1
  -2  -8   1 3970.82 176.097   1
  -2  -8   2 1418.38 119.909   1
  -2  -8   3 139.736 75.2429   1
  -2  -8   4 262.012 80.9363   1
  -2  -7 -11 1245.27 94.5757   1
  -2  -7 -10 69.0694 69.4296   1
  -2  -7  -9 3.56239 68.4674   1
  -2  -7  -8 558.323 81.9240   1
  -2  -7  -7 866.545 68.9074   1
  -2  -7  -6 471.582 59.8675   1
  -2  -7  -5-5.99676 49.3596   1
  -2  -7  -4 191.368 79.8915   1
  -2  -7  -3 387.242 86.2834   1
  -2  -7  -2 392.219 84.2460   1
  -2  -7  -1 344.554 87.9203   1
  -2  -7   0 1375.57 114.688   1
  -2  -7   1 46.8296 68.8554   1
  -2  -7   2 829.864 94.3540   1
  -2  -7   3 3150.97 142.065   1
  -2  -7   4 714.043 85.0968   1
  -2  -6 -13 1122.09 76.4091   1
  -2  -6 -12 43.5489 46.9582   1
  -2  -6 -11 220.883 81.5251   1
  -2  -6 -10 443.604 85.2174   1
  -2  -6  -9 11605.4 222.887   1
  -2  -6  -8 3384.62 108.611   1
  -2  -6  -7 6973.00 134.675   1
  -2  -6  -6 7622.94 129.722   1
  -2  -6  -5 2578.31 149.164   1
  -2  -6  -4 8496.06 241.014   1
  -2  -6  -3 6476.82 210.696   1
  -2  -6  -2 50656.0 542.446   1
  -2  -6  -1 10939.3 255.259   1
  -2  -6   0 345.389 75.3269   1
  -2  -6   1 21232.1 329.405   1
  -2  -6   2 39970.9 437.502   1
  -2  -6   3 15618.8 271.060   1
  -2  -6   4 43.2868 59.5359   1
  -2  -5 -14 166.682 61.2571   1
  -2  -5 -13 187.996 66.8074   1
  -2  -5 -12 439.720 86.1349   1
  -2  -5 -11 16.7779 77.5029   1
  -2  -5 -10 950.581 99.9030   1
  -2  -5  -9 219.322 78.1227   1
  -2  -5  -8 175.259 57.8265   1
  -2  -5  -7 28.3525 45.5985   1
  -2  -5  -6-43.2451 71.8261   1
  -2  -5  -5 210.474 70.7774   1
  -2  -5  -4 127.376 67.4461   1
  -2  -5  -3 21.2298 69.4868   1
  -2  -5  -2 851.090 91.1053   1
  -2  -5  -1 1541.45 106.986   1
  -2  -5   0 431.057 74.5383   1
  -2  -5   1 665.882 86.3875   1
  -2  -5   2 3511.44 138.498   1
  -2  -5   3 2442.12 116.669   1
  -2  -5   4 709.768 90.7848   1
  -2  -5   5 212.572 57.7607   1
  -2  -4 -15 3794.42 101.476   1
  -2  -4 -14 2539.81 108.669   1
  -2  -4 -13 223.165 74.8793   1
  -2  -4 -12 749.947 97.8507   1
  -2  -4 -11 460.164 92.3070   1
  -2  -4 -10 15912.5 271.462   1
  -2  -4  -9 1430.05 107.250   1
  -2  -4  -8 8718.62 144.486   1
  -2  -4  -7 2286.81 131.579   1
  -2  -4  -6 180.010 70.6921   1
  -2  -4  -5 246.052 71.0282   1
  -2  -4  -4 969.306 94.1269   1
  -2  -4  -3 25014.9 341.716   1
  -2  -4  -2 71.4874 61.4732   1
  -2  -4  -1 2840.61 128.231   1
  -2  -4   0 1750.67 105.489   1
  -2  -4   1 3230.74 130.676   1
  -2  -4   2 3160.84 130.697   1
  -2  -4   3 676.511 77.8164   1
  -2  -4   4 3097.33 118.264   1
  -2  -4   5 185.715 55.8364   1
  -2  -3 -15 305.996 64.8134   1
  -2  -3 -14 677.520 85.4053   1
  -2  -3 -13 213.732 79.5228   1
  -2  -3 -12-2.74585 82.2581   1
  -2  -3 -11 85.5044 85.1240   1
  -2  -3 -10 1593.03 114.788   1
  -2  -3  -9 29.7304 74.6850   1
  -2  -3  -8-3.32661 53.1980   1
  -2  -3  -7 57.3340 44.6633   1
  -2  -3  -6 13.9370 46.5769   1
  -2  -3  -5 5.81289 44.9391   1
  -2  -3  -4 2.88843 41.3202   1
  -2  -3  -3 105.412 44.7970   1
  -2  -3  -2 809.133 96.7584   1
  -2  -3  -1 810.492 81.5801   1
  -2  -3   0 77.9834 58.4696   1
  -2  -3   1 1563.92 92.1415   1
  -2  -3   2 2731.30 109.958   1
  -2  -2 -16 1297.37 74.9763   1
  -2  -2 -15 32.7131 64.8287   1
  -2  -2 -14 3322.82 147.480   1
  -2  -2 -13 848.197 103.458   1
  -2  -2 -12 886.231 105.489   1
   2  -2  13 833.081 126.834  -2
  -2  -2 -12 833.081 126.834   1
   2  -2  12 19005.2 309.376  -2
  -2  -2 -11 19005.2 309.376   1
  -2  -2 -10 25521.8 501.645   1
   2  -2  11 59908.0 496.123  -2
  -2  -2 -10 59908.0 496.123   1
  -2  -2  -9 371.783 117.541   1
   2  -2  10 7605.76 184.726  -2
  -2  -2  -9 7605.76 184.726   1
  -2  -2  -8 533.480 104.205   1
  -2  -2  -7 1372.08 73.6136   1
  -2  -2  -6 165.842 47.4124   1
  -2  -2  -5 4056.28 97.9621   1
  -2  -2  -4 15608.0 173.066   1
  -2  -2  -3 3281.60 80.3374   1
  -2  -2  -2 5770.58 91.2572   1
  -2  -2  -1 14831.7 119.722   1
  -2  -2   3 32760.6 196.181   1
  -2  -2   4 819.781 53.7823   1
  -2  -2   5 956.156 68.7919   1
  -2  -2   6 2.80791 57.1863   1
  -2  -2   7 6690.96 174.926   1
  -2  -1 -16 409.804 69.0862   1
  -2  -1 -15 279.127 77.1373   1
  -2  -1 -14 42.9160 82.9932   1
  -2  -1 -13 21.0272 87.8410   1
  -2  -1 -12 41.0546 86.3803   1
  -2  -1 -11 1266.35 74.8405   1
  -2  -1 -10 364.415 69.1827   1
  -2  -1  -9 104.852 55.4616   1
  -2  -1  -8 96.9906 77.8976   1
  -2  -1  -7 292.797 46.6987   1
  -2  -1  -6 28.8935 38.7252   1
  -2  -1  -5 80.8348 39.7227   1
  -2  -1  -4 129.794 38.6563   1
  -2  -1  -3 635.664 40.9770   1
  -2  -1  -2 31.5158 25.3719   1
  -2  -1  -1 19.7517 23.9702   1
  -2  -1   0 255.836 20.6395   1
  -2  -1   2 650.189 55.4613   1
  -2  -1   3 86.9908 46.3146   1
  -2  -1   4-7.96520 45.5172   1
  -2  -1   5 5.30216 58.5227   1
  -2  -1   6 56.0948 66.5719   1
  -2  -1   7 244.623 77.1798   1
  -2  -1   8 156.173 81.6026   1
  -2  -1   9 431.215 101.235   1
   2   0  17 482.083 76.8904  -2
  -2   0 -17 482.083 76.8904   1
   2   0  16 4589.75 188.834  -2
  -2   0 -16 4589.75 188.834   1
   2   0  15 12815.7 330.724  -2
  -2   0 -15 12815.7 330.724   1
   2   0  14 759.695 150.827  -2
  -2   0 -14 759.695 150.827   1
   2   0  13 681.546 152.090  -2
  -2   0 -13 681.546 152.090   1
   2   0  12 3702.67 223.045  -2
  -2   0 -12 3702.67 223.045   1
   2   0  11 44009.3 493.779  -2
  -2   0 -11 44009.3 493.779   1
   2   0  10 359.116 67.0130  -2
  -2   0 -10 359.116 67.0130   1
   2   0   9 1324.07 168.462  -2
  -2   0  -9 1324.07 168.462   1
   2   0   8 4550.39 232.239  -2
  -2   0  -8 4550.39 232.239   1
   2   0   7 25566.6 456.875  -2
  -2   0  -7 25566.6 456.875   1
   2   0   6 1127.74 75.3254  -2
  -2   0  -6 1127.74 75.3254   1
   2   0   5 8130.77 154.845  -2
  -2   0  -5 8130.77 154.845   1
   2   0   4 2683.69 91.1385  -2
  -2   0  -4 2683.69 91.1385   1
   2   0   3 100651. 452.461  -2
  -2   0  -3 100651. 452.461   1
   2   0   2 176289. 667.415  -2
  -2   0  -2 176289. 667.415   1
   2   0   1 13474.9 165.598  -2
  -2   0  -1 13474.9 165.598   1
   2   0   0 37.4283 28.7389  -2
  -2   0   0 37.4283 28.7389   1
   2   0  -1 69648.8 567.947  -2
  -2   0   1 69648.8 567.947   1
   2   0  -2 280890. 1160.09  -2
  -2   0   2 280890. 1160.09   1
   2   0  -3 57509.6 557.293  -2
  -2   0   3 57509.6 557.293   1
   2   0  -4 6428.79 208.443  -2
  -2   0   4 6428.79 208.443   1
   2   0  -5 11094.4 292.382  -2
  -2   0   5 11094.4 292.382   1
   2   0  -6 80839.4 827.657  -2
  -2   0   6 80839.4 827.657   1
   2   0  -7 45693.5 678.817  -2
  -2   0   7 45693.5 678.817   1
   2   0  -8 7042.76 301.028  -2
  -2   0   8 7042.76 301.028   1
   2   0  -9 6827.61 319.639  -2
  -2   0   9 6827.61 319.639   1
   2   0 -10 10991.3 410.732  -2
  -2   0  10 10991.3 410.732   1
  -2   1 -17-13.1620 55.2432   1
  -2   1 -16 540.743 85.4508   1
  -2   1 -15 1173.37 115.706   1
  -2   1 -14 250.515 95.4353   1
  -2   1 -13 199.182 96.9778   1
  -2   1 -12 98.4318 95.1991   1
  -2   1 -11 3283.15 123.675   1
  -2   1 -10 253.464 65.8096   1
  -2   1  -9 158.666 81.0755   1
  -2   1  -8 65.3412 66.0526   1
  -2   1  -7 77.8319 65.3733   1
  -2   1  -6 175.582 38.9590   1
  -2   1  -5 408.788 45.2326   1
  -2   1  -4 115.631 35.3351   1
  -2   1  -3 5.94105 38.0828   1
  -2   1  -2 279.860 40.0469   1
  -2   1  -1 45.2951 31.8202   1
  -2   1   0 300.644 75.1420   1
  -2   1   1 193.664 73.0745   1
  -2   1   2 35.9597 63.7837   1
  -2   1   3 274.791 71.5347   1
  -2   1   4 168.598 71.6525   1
  -2   1   5-17.1272 72.8833   1
  -2   1   6 287.257 86.1882   1
  -2   1   7 985.390 114.869   1
  -2   1   8 542.613 103.823   1
  -2   1   9 14.5252 94.2074   1
  -2   1  10 247.854 113.693   1
  -2   1  11 325.864 131.966   1
  -2   2 -17 474.667 68.7922   1
  -2   2 -16 218.371 82.6259   1
  -2   2 -15 4357.98 177.857   1
   2   2  13 3050.97 184.141  -2
  -2   2 -14 3050.97 184.141   1
   2   2  12 1115.36 154.961  -2
  -2   2 -13 1115.36 154.961   1
   2   2  11 22975.6 376.299  -2
  -2   2 -12 22975.6 376.299   1
   2   2  10 65508.4 443.265  -2
  -2   2 -11 65508.4 443.265   1
   2   2   9 7562.20 158.490  -2
  -2   2 -10 7562.20 158.490   1
   2   2   8 2057.92 143.234  -2
  -2   2  -9 2057.92 143.234   1
  -2   2  -8 107.212 69.1876   1
   2   2   6 10603.2 216.644  -2
  -2   2  -7 10603.2 216.644   1
   2   2   5 5248.72 151.296  -2
  -2   2  -6 5248.72 151.296   1
  -2   2  -5 28213.2 273.189   1
   2   2   4 43421.4 353.958  -2
  -2   2  -5 43421.4 353.958   1
   2   2   3 13866.5 193.293  -2
  -2   2  -4 13866.5 193.293   1
   2   2   2 9048.49 147.177  -2
  -2   2  -3 9048.49 147.177   1
  -2   2  -2 164.808 42.9732   1
  -2   2  -1 3.23448 34.2191   1
  -2   2   0 13042.3 250.962   1
  -2   2   1 7789.23 202.528   1
  -2   2   2 12509.3 251.512   1
  -2   2   3 2481.58 136.509   1
  -2   2   4 10053.0 237.880   1
  -2   2   5 6396.98 201.849   1
  -2   2   6 513.658 99.4717   1
  -2   2   7 6544.15 232.940   1
  -2   2   8 8136.65 268.919   1
  -2   2   9 237.947 110.937   1
  -2   2  10 19.0777 114.437   1
  -2   3 -17 892.658 82.0586   1
  -2   3 -16 194.661 84.6336   1
  -2   3 -15 320.444 101.717   1
  -2   3 -14 170.156 105.690   1
  -2   3 -13 863.888 122.172   1
  -2   3 -12 2348.15 156.673   1
  -2   3 -11 179.919 74.0655   1
  -2   3 -10 1036.37 80.1914   1
  -2   3  -9 1036.15 104.797   1
  -2   3  -8 365.560 80.9982   1
  -2   3  -7 35.8033 68.7871   1
  -2   3  -6 133.451 65.5803   1
  -2   3  -5 473.059 70.9615   1
  -2   3  -4 1504.57 86.5109   1
  -2   3  -3 1046.07 71.9547   1
  -2   3  -2 268.284 45.1947   1
  -2   3  -1 1388.38 122.457   1
  -2   3   0 2380.54 146.535   1
  -2   3   1 114.568 92.5337   1
  -2   3   2 395.362 106.749   1
  -2   3   3 38.4053 90.7962   1
  -2   3   4 36.8261 97.1029   1
  -2   3   5 384.660 103.536   1
  -2   3   6 287.313 101.233   1
  -2   3   7 711.198 120.658   1
  -2   3   8 149.545 102.037   1
  -2   3   9 34.0534 105.605   1
  -2   3  10 427.426 135.425   1
  -2   4 -17 2457.41 107.134   1
  -2   4 -16 4153.61 159.083   1
  -2   4 -15 50.3993 94.1934   1
  -2   4 -14 2466.24 161.328   1
  -2   4 -13 3346.85 180.358   1
  -2   4 -12 31811.1 447.545   1
  -2   4 -11 3028.47 120.706   1
  -2   4 -10 8760.14 167.604   1
  -2   4  -9 31067.1 277.860   1
  -2   4  -8 24429.7 359.547   1
  -2   4  -7 21490.5 322.310   1
  -2   4  -6 1936.32 111.553   1
  -2   4  -5 51116.8 432.703   1
  -2   4  -4 49180.8 407.261   1
  -2   4  -3 28212.3 298.612   1
  -2   4  -2 5205.88 111.879   1
  -2   4  -1 643.767 119.127   1
  -2   4   0 11744.5 299.381   1
  -2   4   1 1874.67 152.093   1
  -2   4   2 8423.05 264.654   1
  -2   4   3 2429.98 167.871   1
  -2   4   4 164.621 112.359   1
  -2   4   5 3158.98 188.804   1
  -2   4   6 53.5694 99.1958   1
  -2   4   7 37.4886 107.376   1
  -2   4   8 4601.16 238.283   1
  -2   4   9 5196.19 263.652   1
  -2   5 -17 146.652 67.3459   1
  -2   5 -16 122.210 82.1755   1
  -2   5 -15 64.1481 95.2321   1
  -2   5 -14 49.8587 109.811   1
  -2   5 -13 44.9461 99.8914   1
  -2   5 -12 2416.72 162.414   1
  -2   5 -11 230.041 72.5167   1
  -2   5 -10 146.376 64.7202   1
  -2   5  -9 1089.62 79.5482   1
  -2   5  -8 2114.37 133.773   1
  -2   5  -7 162.858 79.9623   1
  -2   5  -6 233.607 78.5818   1
  -2   5  -5 27.7262 64.6725   1
  -2   5  -4 4409.62 146.727   1
  -2   5  -3 87.0297 64.3086   1
  -2   5  -2 285.216 130.115   1
  -2   5  -1 2837.37 190.437   1
  -2   5   0 2458.34 191.917   1
  -2   5   1 309.866 130.166   1
  -2   5   2 348.832 126.375   1
  -2   5   3 23.6875 115.582   1
  -2   5   4 131.348 119.480   1
  -2   5   5 675.854 139.445   1
  -2   5   6 852.202 145.363   1
  -2   5   7 1289.07 166.886   1
  -2   5   8 249.793 142.414   1
  -2   5   9 54.2588 145.722   1
  -2   6 -17 1239.09 88.2890   1
  -2   6 -16 66.2086 79.9197   1
  -2   6 -15 463.786 107.762   1
  -2   6 -14 1054.92 129.529   1
  -2   6 -13 8705.70 259.063   1
  -2   6 -12 3417.48 185.436   1
  -2   6 -11 1571.93 140.083   1
  -2   6 -10 2211.92 105.296   1
  -2   6  -9 32.3034 61.7882   1
  -2   6  -8 3948.17 176.120   1
  -2   6  -7 1021.33 106.733   1
  -2   6  -6 12643.6 261.954   1
  -2   6  -5 3229.89 143.694   1
  -2   6  -4 7663.77 195.912   1
  -2   6  -3 15956.7 229.176   1
  -2   6  -2 4566.14 230.161   1
  -2   6  -1 2722.08 200.107   1
  -2   6   0 14306.6 393.365   1
  -2   6   1 1898.18 190.802   1
  -2   6   2 7530.46 298.288   1
  -2   6   3 91.8452 130.357   1
  -2   6   4 5681.96 274.797   1
  -2   6   5 1010.54 174.860   1
  -2   6   6 441.177 151.427   1
  -2   6   7 749.945 170.450   1
  -2   6   8 302.043 167.083   1
  -2   7 -17 649.485 71.6323   1
  -2   7 -16 268.445 84.9168   1
  -2   7 -15 231.689 98.7098   1
  -2   7 -14 386.564 112.429   1
  -2   7 -13 1720.99 147.992   1
  -2   7 -12 431.701 116.333   1
  -2   7 -11 36.5002 101.309   1
  -2   7 -10 274.220 75.9963   1
  -2   7  -9 120.477 67.7928   1
  -2   7  -8 165.844 68.9427   1
  -2   7  -7 375.738 95.2995   1
  -2   7  -6 25.1303 81.0602   1
  -2   7  -5 2597.59 142.083   1
  -2   7  -4 2224.35 132.312   1
  -2   7  -3 8.63377 66.0269   1
  -2   7  -2 2915.30 211.884   1
  -2   7  -1 3288.92 231.281   1
  -2   7   0 159.665 145.934   1
  -2   7   1 714.857 166.580   1
  -2   7   2 62.6294 140.799   1
  -2   7   3 22.7071 136.024   1
  -2   7   4 411.609 147.431   1
  -2   7   5 1072.31 186.275   1
  -2   7   6 1822.45 216.237   1
  -2   7   7-4.21055 155.439   1
  -2   8 -16 1531.02 107.662   1
  -2   8 -15 334.956 93.0360   1
  -2   8 -14 106.414 100.932   1
  -2   8 -13 5283.43 211.202   1
  -2   8 -12 4051.31 194.972   1
  -2   8 -11 128.121 104.136   1
  -2   8 -10 6536.93 132.853   1
  -2   8  -9 4310.50 98.1464   1
  -2   8  -8 7918.62 167.632   1
  -2   8  -7 1689.13 92.1009   1
  -2   8  -6 3928.24 179.931   1
  -2   8  -5 11831.3 278.519   1
  -2   8  -4 17736.1 336.400   1
  -2   8  -3 25.2617 80.9050   1
  -2   8  -2 313.239 153.864   1
  -2   8  -1 1204.35 185.679   1
  -2   8   0 541.273 172.258   1
  -2   8   1 3111.79 252.302   1
  -2   8   2 1954.16 230.517   1
  -2   8   3 505.467 167.995   1
  -2   8   4 4314.89 119.150   1
  -2   8   5 320.050 68.2933   1
  -2   8   6 118.914 72.4334   1
  -2   9 -16-17.3986 61.5813   1
  -2   9 -15 306.314 89.7102   1
  -2   9 -14 97.1342 92.3745   1
  -2   9 -13 453.306 113.414   1
  -2   9 -12 409.589 114.410   1
  -2   9 -11-2.60377 64.0238   1
  -2   9 -10 249.881 65.3121   1
  -2   9  -9 303.169 64.6089   1
  -2   9  -8 133.080 70.6068   1
  -2   9  -7 253.677 69.6958   1
  -2   9  -6 61.7206 61.9277   1
  -2   9  -5 2075.29 94.5638   1
  -2   9  -4-19.5472 58.1642   1
  -2   9  -3 307.400 99.7233   1
  -2   9  -2 2075.89 215.791   1
  -2   9  -1 1373.75 206.181   1
  -2   9   0-51.3728 165.472   1
  -2   9   1 91.3032 57.9989   1
  -2   9   2 33.2387 58.8829   1
  -2   9   3 42.8521 58.9765   1
  -2   9   4 599.662 76.1875   1
  -2   9   5 2208.73 104.369   1
  -2   9   6 556.435 85.9089   1
  -2  10 -16 115.755 42.1494   1
  -2  10 -15 171.189 75.0813   1
  -2  10 -14 1857.64 129.683   1
  -2  10 -13 320.281 101.501   1
  -2  10 -12 132.565 62.5994   1
  -2  10 -11 1280.83 82.4410   1
  -2  10 -10 165.727 63.9735   1
  -2  10  -9 4035.67 117.154   1
  -2  10  -8 1454.03 130.739   1
  -2  10  -7 3495.53 128.600   1
  -2  10  -6 519.590 81.1037   1
  -2  10  -5 5597.48 103.754   1
  -2  10  -4 19255.0 177.156   1
  -2  10  -3 3537.20 86.7857   1
  -2  10  -2 1122.42 70.9228   1
  -2  10  -1 8983.32 170.390   1
  -2  10   0 3441.28 119.540   1
  -2  10   1 4080.96 128.228   1
  -2  10   2 79.8535 65.8858   1
  -2  10   3 6435.33 157.334   1
  -2  10   4 2020.40 114.360   1
  -2  10   5 27.4789 75.8068   1
  -2  10   6 3986.99 137.656   1
  -2  11 -15-5.95020 60.7800   1
  -2  11 -14 33.3467 76.1058   1
  -2  11 -13 124.269 88.3683   1
  -2  11 -12-17.6739 57.2911   1
  -2  11 -11 41.4755 60.9186   1
  -2  11 -10 27.0647 62.0035   1
  -2  11  -9 85.2824 64.4046   1
  -2  11  -8 57.8875 61.3122   1
  -2  11  -7-5.98315 93.1103   1
  -2  11  -6 1046.74 115.701   1
  -2  11  -5 966.661 63.3149   1
  -2  11  -4 334.731 52.8764   1
  -2  11  -3 618.379 69.3159   1
  -2  11  -2 941.786 75.3835   1
  -2  11  -1-3.56742 66.9583   1
  -2  11   0 180.963 68.3692   1
  -2  11   1 62.2886 65.4765   1
  -2  11   2 479.876 83.8385   1
  -2  11   3 118.324 74.4721   1
  -2  11   4 814.745 93.7500   1
  -2  11   5 211.956 79.4176   1
  -2  11   6 120.826 67.7188   1
  -2  11   7 461.565 76.6986   1
  -2  11  10 25.0866 47.8754   1
  -2  12 -14 166.744 50.6252   1
  -2  12 -13 2631.95 80.3557   1
  -2  12 -12 2022.23 82.8067   1
  -2  12 -11 167.813 61.6797   1
  -2  12 -10-2.19496 60.7209   1
  -2  12  -9 315.120 67.3587   1
  -2  12  -8 147.534 64.4403   1
  -2  12  -7 1120.44 84.4385   1
  -2  12  -6 1144.06 126.616   1
  -2  12  -5 862.588 71.5870   1
  -2  12  -4 11141.6 216.220   1
  -2  12  -3 10088.6 210.923   1
  -2  12  -2 4490.10 154.567   1
  -2  12  -1 53.8529 73.3629   1
  -2  12   0 5286.94 165.438   1
  -2  12   1 15256.9 264.635   1
  -2  12   2 12312.2 237.928   1
  -2  12   3 137.331 79.6352   1
  -2  12   4 4297.95 151.689   1
  -2  12   5 12998.2 227.243   1
  -2  12   6 2468.14 109.962   1
  -2  12   7 65.3076 61.8749   1
  -2  13 -13 528.633 50.4055   1
  -2  13 -12 604.179 58.6919   1
  -2  13 -11 51.2967 57.0155   1
  -2  13 -10 7.42777 58.2072   1
  -2  13  -9 71.4912 59.5304   1
  -2  13  -8 383.384 67.7828   1
  -2  13  -7 143.686 63.5327   1
  -2  13  -6 349.895 89.4953   1
  -2  13  -5 134.892 67.3569   1
  -2  13  -4 14.2384 72.0819   1
  -2  13  -3 340.221 79.5276   1
  -2  13  -2 222.579 77.4089   1
  -2  13  -1-8.59763 82.9414   1
  -2  13   0 56.1335 78.7672   1
  -2  13   1-16.0774 75.4111   1
  -2  13   2 4.13709 76.2730   1
  -2  13   3 340.022 79.1796   1
  -2  13   4 558.594 83.4770   1
  -2  13   5 0.69031 64.7213   1
  -2  13   6 35.8132 57.8961   1
  -2  14 -12 3877.73 107.292   1
  -2  14 -11 2232.84 103.217   1
  -2  14 -10 14.3001 75.3463   1
  -2  14  -9 1021.09 99.8973   1
  -2  14  -8 5894.95 167.136   1
  -2  14  -7 3162.58 134.773   1
  -2  14  -6 47.4101 75.2635   1
  -2  14  -5 8814.59 133.082   1
  -2  14  -4 7147.06 124.175   1
  -2  14  -3 990.113 64.7488   1
  -2  14  -2 1148.53 66.2142   1
  -2  14  -1 2941.06 85.2120   1
  -2  14   0 6830.28 180.237   1
  -2  14   1 2546.66 122.748   1
  -2  14   2 1251.73 98.7192   1
  -2  14   3 3023.01 121.991   1
  -2  14   4 2056.77 99.4696   1
  -2  14   5 90.8446 54.4507   1
  -2  14   6 18.4062 46.6007   1
  -2  15 -11 72.8124 60.2981   1
  -2  15 -10 89.2126 41.6748   1
  -2  15  -9 36.2292 65.9285   1
  -2  15  -8 29.6707 71.8122   1
  -2  15  -7 453.666 80.8889   1
  -2  15  -6 98.5434 69.9526   1
  -2  15  -5 47.1687 44.4639   1
  -2  15  -4-1.76040 45.5791   1
  -2  15  -3 56.3815 46.7402   1
  -2  15  -2 32.0833 48.0081   1
  -2  15  -1 60.9820 69.6760   1
  -2  15   0-1.02864 65.1683   1
  -2  15   1 131.233 71.0479   1
   1  15  -8 154.938 88.2444  -2
  -2  15   2 154.938 88.2444   1
   1  15  -9 69.7771 82.6728  -2
  -2  15   3 69.7771 82.6728   1
   1  15 -10 11.0389 73.6130  -2
  -2  15   4 11.0389 73.6130   1
   1  15 -11-6.76787 59.5425  -2
  -2  15   5-6.76787 59.5425   1
   1  16   4 9076.33 141.542  -2
  -2  16 -10 9076.33 141.542   1
   1  16   3 7117.77 93.6339  -2
  -2  16  -9 7117.77 93.6339   1
   1  16   2 1867.09 104.717  -2
  -2  16  -8 1867.09 104.717   1
   1  16   1 2492.55 112.096  -2
  -2  16  -7 2492.55 112.096   1
   1  16   0 8022.93 161.851  -2
  -2  16  -6 8022.93 161.851   1
   1  16  -1 2496.00 110.630  -2
  -2  16  -5 2496.00 110.630   1
  -2  16  -4 93.3473 56.6735   1
   1  16  -2 154.361 80.2621  -2
  -2  16  -4 154.361 80.2621   1
  -2  16  -3 28.1725 58.4735   1
   1  16  -3 2507.83 102.336  -2
  -2  16  -3 2507.83 102.336   1
  -2  16  -2 172.911 62.1208   1
  -2  16  -1 106.433 61.0917   1
  -2  16   0 216.466 62.7850   1
  -2  16   1 528.431 67.3062   1
  -2  16   2 56.1958 51.0766   1
  -2  16   3 642.646 59.0326   1
  -2  17  -7 76.6423 44.5940   1
  -2  17  -6-8.13401 42.5749   1
  -2  17  -3 21.9738 45.5472   1
   1  17  -5-3.95867 61.6555  -2
  -2  17  -2-3.95867 61.6555   1
  -2  17  -1 19.7683 44.7591   1
   1  17  -7 41.9102 57.5776  -2
  -2  17   0 41.9102 57.5776   1
  -1 -12  -9 1205.45 60.9755   1
  -1 -12  -8 1986.70 79.1215   1
  -1 -11 -10 70.9571 46.3292   1
  -1 -11  -9 229.556 58.3682   1
  -1 -11  -8 265.528 61.6120   1
  -1 -11  -7 974.478 72.5884   1
  -1 -11  -6 579.549 67.7654   1
  -1 -11  -2 56.2255 99.9631   1
  -1 -11  -1 48.8676 101.928   1
  -1 -11   0 525.230 128.089   1
  -1 -11   1 2500.23 182.485   1
  -1 -11   2 657.305 131.750   1
  -1 -10 -11 1486.59 75.5572   1
  -1 -10 -10 2617.79 101.598   1
  -1 -10  -9 585.654 74.5462   1
  -1 -10  -8 356.113 67.7274   1
  -1 -10  -7 5317.38 142.503   1
  -1 -10  -6 5144.62 134.209   1
  -1 -10  -5 315.692 66.0209   1
  -1 -10  -4 3347.12 200.268   1
  -1 -10  -3 4056.39 212.130   1
  -1 -10  -2 391.468 106.037   1
  -1 -10  -1 2.83384 92.7698   1
  -1 -10   0 5763.99 232.958   1
  -1 -10   1 5652.34 226.182   1
  -1 -10   2 2445.66 156.725   1
  -1  -9 -12 9.85349 51.4633   1
  -1  -9 -11 207.172 64.7506   1
  -1  -9 -10 108.217 65.0504   1
  -1  -9  -9 1614.93 99.0647   1
  -1  -9  -8 302.310 71.2618   1
  -1  -9  -7 1321.85 88.8708   1
  -1  -9  -6 996.275 80.4826   1
  -1  -9  -5 2445.02 85.7911   1
  -1  -9  -4 27.6937 91.4040   1
  -1  -9  -3 787.280 119.631   1
  -1  -9  -2 1588.03 138.767   1
  -1  -9  -1-9.27652 85.0421   1
  -1  -9   0 1132.87 118.569   1
  -1  -9   1 3451.38 162.332   1
  -1  -9   2 126.945 78.7866   1
  -1  -9   3 595.988 92.7703   1
  -1  -8 -13 2937.07 99.5189   1
  -1  -8 -12 2788.95 112.248   1
  -1  -8 -11-8.26265 73.0093   1
  -1  -8 -10 5249.65 156.038   1
  -1  -8  -9 3817.00 137.866   1
  -1  -8  -8 17723.9 255.606   1
  -1  -8  -7 9.54698 55.6004   1
  -1  -8  -6 15929.5 189.304   1
  -1  -8  -5 42084.8 280.539   1
  -1  -8  -4 15567.2 355.002   1
  -1  -8  -3 207.016 87.2496   1
  -1  -8  -2 8107.34 236.380   1
  -1  -8  -1 51845.6 549.652   1
  -1  -8   0 37470.6 455.414   1
  -1  -8   1 7387.56 209.726   1
  -1  -8   2 17312.3 294.924   1
  -1  -8   3 20461.8 307.226   1
  -1  -8   4 13119.0 238.485   1
  -1  -7 -14 375.881 54.4569   1
  -1  -7 -13 14.7738 62.8649   1
  -1  -7 -12 475.908 81.2720   1
  -1  -7 -11 35.1265 76.5304   1
  -1  -7 -10 1632.53 109.863   1
  -1  -7  -9-2.46566 71.6291   1
  -1  -7  -8 2727.29 98.0523   1
  -1  -7  -7 698.876 66.8989   1
  -1  -7  -6 6.32940 45.0910   1
  -1  -7  -5 911.559 107.679   1
  -1  -7  -4 2134.24 132.118   1
  -1  -7  -3 104.869 63.3772   1
  -1  -7  -2 75.2803 65.1046   1
  -1  -7  -1 5143.66 169.384   1
  -1  -7   0 11719.1 238.634   1
  -1  -7   1 1811.84 106.439   1
  -1  -7   2 4129.29 137.768   1
  -1  -7   3 8395.87 181.320   1
  -1  -7   4 6377.70 153.170   1
  -1  -6 -15 5849.05 112.383   1
  -1  -6 -14 7468.02 111.367   1
  -1  -6 -13 1855.34 108.789   1
  -1  -6 -12 2720.31 132.517   1
  -1  -6 -11 10478.5 222.120   1
  -1  -6 -10 8877.93 205.653   1
  -1  -6  -9 18397.4 270.143   1
  -1  -6  -8 5621.65 125.409   1
  -1  -6  -7 26295.4 234.249   1
  -1  -6  -6 34416.6 476.924   1
  -1  -6  -5 7453.05 217.541   1
  -1  -6  -4 184.384 75.4084   1
  -1  -6  -3 6801.05 190.072   1
  -1  -6  -2 35866.2 401.003   1
  -1  -6  -1 17836.8 275.976   1
  -1  -6   0 4116.74 137.035   1
  -1  -6   1 14872.9 237.159   1
  -1  -6   2 1056.93 76.9655   1
  -1  -6   3 55.1947 46.2710   1
  -1  -6   4 1210.76 70.9101   1
  -1  -5 -15 201.166 61.8636   1
  -1  -5 -14 793.302 61.8380   1
  -1  -5 -13 564.932 89.5839   1
  -1  -5 -12 141.550 82.1025   1
  -1  -5 -11 84.4079 81.6744   1
  -1  -5 -10 2271.89 122.193   1
  -1  -5  -9 2094.20 113.599   1
  -1  -5  -8 1083.66 67.4428   1
  -1  -5  -7 163.886 76.2162   1
  -1  -5  -6 7514.33 208.918   1
  -1  -5  -5-9.74127 58.5771   1
  -1  -5  -4 2526.59 118.962   1
  -1  -5  -3 2694.91 115.331   1
  -1  -5  -2 50.6880 53.8531   1
  -1  -5  -1 1526.50 89.4886   1
  -1  -5   0 7347.68 163.182   1
  -1  -5   1 403.517 60.4364   1
  -1  -5   2 1656.14 82.6884   1
  -1  -5   3 4351.18 112.962   1
  -1  -5   4 46.8738 35.3413   1
  -1  -4 -16 7359.29 134.572   1
  -1  -4 -15 1840.97 102.111   1
  -1  -4 -14 9.39364 51.6031   1
  -1  -4 -13 3954.05 154.241   1
  -1  -4 -12 926.880 108.671   1
  -1  -4 -11 55.0145 79.3503   1
  -1  -4 -10 1384.57 108.244   1
  -1  -4  -9 21209.2 275.333   1
  -1  -4  -8 1862.41 115.561   1
  -1  -4  -7 4390.89 161.089   1
  -1  -4  -6 24242.8 329.608   1
  -1  -4  -5 15925.7 257.664   1
  -1  -4  -4 2564.61 108.899   1
  -1  -4  -3 712.278 70.5165   1
  -1  -4  -2 55350.2 419.238   1
  -1  -4  -1 80254.8 477.264   1
  -1  -4   0 65393.9 415.178   1
  -1  -4   1 22477.1 237.287   1
  -1  -4   2 16805.6 199.683   1
  -1  -4   3 28444.1 243.768   1
  -1  -4   4 24613.2 209.657   1
  -1  -4   5 9402.87 115.421   1
  -1  -3 -16 683.389 74.8366   1
  -1  -3 -15 986.188 97.2777   1
  -1  -3 -14 377.473 85.3357   1
  -1  -3 -13 77.4027 84.3568   1
  -1  -3 -12 546.650 94.2831   1
  -1  -3 -11 203.340 82.3766   1
  -1  -3 -10 780.123 91.5207   1
  -1  -3  -9 2611.98 125.367   1
  -1  -3  -8 352.466 57.4700   1
  -1  -3  -7 1520.99 79.0076   1
  -1  -3  -6 896.029 62.1567   1
  -1  -3  -5 4679.84 104.652   1
  -1  -3  -4 162.946 40.8041   1
  -1  -3  -3 770.961 49.7510   1
  -1  -3  -2 18961.5 222.344   1
  -1  -3  -1 19081.3 215.595   1
  -1  -3   0 2240.56 86.3507   1
  -1  -3   1 17114.2 196.135   1
  -1  -3   2 25455.0 227.715   1
  -1  -3   3 8604.43 128.559   1
  -1  -3   4 636.445 42.1945   1
  -1  -3   5 1057.57 46.5194   1
  -1  -3  11 136.986 100.821   1
  -1  -2 -17 8983.38 145.636   1
  -1  -2 -16 84.3649 67.9623   1
  -1  -2 -15 3539.88 154.027   1
  -1  -2 -14 7854.47 150.954   1
  -1  -2 -13 1361.16 116.095   1
  -1  -2 -12 618.519 102.221   1
  -1  -2 -11 737.459 101.376   1
  -1  -2 -10 17677.9 428.889   1
   1  -2  11 62304.0 469.663  -2
  -1  -2 -10 62304.0 469.663   1
  -1  -2  -9 140.701 97.8612   1
  -1  -2  -8 241.192 94.4047   1
  -1  -2  -7 426.394 48.4784   1
  -1  -2  -6 8781.95 131.877   1
  -1  -2  -5 11520.3 141.258   1
  -1  -2  -4 1695.33 59.3874   1
  -1  -2  -3 109.410 33.3210   1
  -1  -2  -2 32215.8 184.200   1
  -1  -2  -1 64112.2 236.437   1
  -1  -2   0 239244. 645.850   1
  -1  -2   1 5927.13 105.484   1
  -1  -2  11 2630.76 171.768   1
  -1  -2  12 418.048 146.238   1
  -1  -1 -17 2206.04 96.9638   1
  -1  -1 -16 117.324 76.2320   1
  -1  -1 -15 528.192 101.465   1
  -1  -1 -14 2605.75 100.089   1
  -1  -1 -13 1635.13 82.6234   1
  -1  -1 -12 173.500 58.9855   1
  -1  -1 -11 12.6973 50.2358   1
  -1  -1 -10 2086.75 91.7456   1
  -1  -1  -9 1360.85 130.665   1
  -1  -1  -8 1639.36 124.485   1
  -1  -1  -7 2651.17 74.7560   1
  -1  -1  -6 2232.47 65.7182   1
  -1  -1  -5 1760.34 56.7025   1
  -1  -1  -4 405.229 34.1637   1
  -1  -1  -3 3993.30 68.5682   1
  -1  -1  -2 2703.80 55.5446   1
  -1  -1  -1 99.7577 22.4372   1
  -1  -1   0 1929.68 27.8861   1
  -1  -1   1 1722.59 37.7121   1
  -1  -1   2 637.481 41.4632   1
  -1  -1  10-9.93742 93.3998   1
  -1  -1  11 351.968 115.164   1
  -1  -1  12 1542.33 175.255   1
   1   0  17 13202.8 279.373  -2
  -1   0 -17 13202.8 279.373   1
   1   0  16 3460.22 196.520  -2
  -1   0 -16 3460.22 196.520   1
   1   0  15 501.280 145.345  -2
  -1   0 -15 501.280 145.345   1
   1   0  14 20849.8 320.235  -2
  -1   0 -14 20849.8 320.235   1
   1   0  13 8055.47 169.565  -2
  -1   0 -13 8055.47 169.565   1
   1   0  12 525.658 91.6100  -2
  -1   0 -12 525.658 91.6100   1
   1   0  11 2606.91 110.612  -2
  -1   0 -11 2606.91 110.612   1
   1   0  10 88708.8 1080.55  -2
  -1   0 -10 88708.8 1080.55   1
   1   0   9 41862.6 683.941  -2
  -1   0  -9 41862.6 683.941   1
   1   0   8 1718.34 155.911  -2
  -1   0  -8 1718.34 155.911   1
   1   0   7 28465.7 460.676  -2
  -1   0  -7 28465.7 460.676   1
   1   0   6 70666.8 381.579  -2
  -1   0  -6 70666.8 381.579   1
   1   0   5 49596.3 298.760  -2
  -1   0  -5 49596.3 298.760   1
   1   0   4 24169.6 195.643  -2
  -1   0  -4 24169.6 195.643   1
   1   0   3 31334.5 211.333  -2
  -1   0  -3 31334.5 211.333   1
   1   0   2 115655. 470.921  -2
  -1   0  -2 115655. 470.921   1
   1   0   1 277226. 579.824  -2
  -1   0  -1 277226. 579.824   1
   1   0   0 88147.5 441.229  -2
  -1   0   0 88147.5 441.229   1
   1   0  -1 23538.7 244.073  -2
  -1   0   1 23538.7 244.073   1
   1   0  -2 20464.9 263.145  -2
  -1   0   2 20464.9 263.145   1
   1   0  -3 17834.3 275.584  -2
  -1   0   3 17834.3 275.584   1
   1   0  -4 2709.96 135.108  -2
  -1   0   4 2709.96 135.108   1
   1   0  -7 42002.8 612.378  -2
  -1   0   7 42002.8 612.378   1
   1   0  -8 28805.2 552.168  -2
  -1   0   8 28805.2 552.168   1
   1   0  -9 10496.1 371.397  -2
  -1   0   9 10496.1 371.397   1
   1   0 -10 15505.1 482.592  -2
  -1   0  10 15505.1 482.592   1
   1   0 -11 11260.0 446.523  -2
  -1   0  11 11260.0 446.523   1
   1   0 -12 27974.7 707.197  -2
  -1   0  12 27974.7 707.197   1
  -1   1 -17 369.957 77.1804   1
  -1   1 -16 703.188 103.251   1
  -1   1 -15 497.292 111.066   1
  -1   1 -14 100.784 67.3042   1
  -1   1 -13 217.325 69.1018   1
  -1   1 -12 136.980 46.5219   1
  -1   1 -11 1057.01 63.7222   1
  -1   1 -10 719.327 111.899   1
  -1   1  -9 3737.80 163.068   1
  -1   1  -8 1327.09 100.636   1
  -1   1  -7 368.337 69.8418   1
  -1   1  -6 5483.46 72.1871   1
  -1   1  -5-1.87417 22.0827   1
  -1   1  -4 4517.43 63.5712   1
  -1   1  -3 4266.67 92.7715   1
  -1   1  -2 18.2603 36.4264   1
  -1   1  -1 218.873 26.0547   1
  -1   1   0 3530.53 98.1580   1
  -1   1   1 1134.78 71.9300   1
  -1   1   2 349.688 76.8158   1
  -1   1   3 1401.10 94.0801   1
  -1   1   4 1784.14 101.147   1
  -1   1   5 621.766 84.3051   1
  -1   1   6 47.5654 78.7728   1
  -1   1   7 991.243 112.369   1
  -1   1   8 145.089 94.4410   1
  -1   1   9 231.274 101.893   1
  -1   1  10 643.375 135.451   1
  -1   1  11 0.46506 127.771   1
  -1   2 -17 285.751 78.4241   1
  -1   2 -16 6724.65 204.636   1
  -1   2 -15 12981.0 295.754   1
  -1   2 -14 2584.28 164.947   1
   1   2  13 3702.35 187.618  -2
  -1   2 -14 3702.35 187.618   1
  -1   2 -13 103.222 106.696   1
   1   2  12 801.086 134.971  -2
  -1   2 -13 801.086 134.971   1
  -1   2 -12 1566.61 103.295   1
   1   2  11 2168.05 161.280  -2
  -1   2 -12 2168.05 161.280   1
  -1   2 -11 44928.2 573.869   1
   1   2  10 63171.6 382.395  -2
  -1   2 -11 63171.6 382.395   1
  -1   2 -10 2608.68 149.351   1
  -1   2  -9 137.191 73.7742   1
  -1   2  -8 9271.48 204.982   1
  -1   2  -7 1512.58 94.9586   1
  -1   2  -6 99.1260 59.7673   1
  -1   2  -5 2138.21 40.8764   1
  -1   2  -4 11966.9 160.512   1
  -1   2  -3 583.353 55.1806   1
  -1   2  -2 12517.3 141.916   1
  -1   2  -1 219667. 776.514   1
  -1   2   0 6027.97 145.969   1
  -1   2   1 4648.90 144.454   1
  -1   2   2 43573.8 380.683   1
  -1   2   3 104989. 650.351   1
  -1   2   4 57740.6 511.125   1
  -1   2   5 13664.9 274.249   1
  -1   2   6 55660.3 573.546   1
  -1   2   7 28252.0 442.435   1
  -1   2   8 18340.6 384.889   1
  -1   2   9 4753.86 229.011   1
  -1   2  10 2924.84 204.920   1
  -1   2  11 5040.61 269.869   1
  -1   3 -18 1874.50 83.4324   1
  -1   3 -17 171.640 78.6322   1
  -1   3 -16 372.329 103.259   1
  -1   3 -15 2420.83 161.758   1
  -1   3 -14 4889.88 143.520   1
  -1   3 -13 229.202 71.7803   1
  -1   3 -12 26.5128 56.0485   1
  -1   3 -11 1532.34 74.7977   1
  -1   3 -10 8691.52 124.872   1
  -1   3  -9 582.698 85.1553   1
  -1   3  -8 3983.31 142.825   1
  -1   3  -7 199.069 66.9392   1
  -1   3  -6 2797.08 109.873   1
  -1   3  -5 37.8845 51.0229   1
  -1   3  -4 10240.5 159.261   1
  -1   3  -3 27542.7 236.313   1
  -1   3  -2 2880.49 71.7885   1
  -1   3  -1 7617.27 73.3462   1
  -1   3   0 19057.4 285.970   1
  -1   3   1 4361.03 165.735   1
  -1   3   2 15.8355 75.1633   1
  -1   3   3 86.2325 81.9355   1
  -1   3   4 795.873 116.086   1
  -1   3   5 3551.33 178.572   1
  -1   3   6 1299.58 136.543   1
  -1   3   7 352.846 115.442   1
  -1   3   8 367.971 117.250   1
  -1   3   9 17.6656 115.919   1
  -1   3  10 34.0256 126.258   1
  -1   3  11 623.334 169.755   1
  -1   4 -17 4529.16 154.369   1
  -1   4 -16 408.812 97.5274   1
  -1   4 -15 3835.24 184.136   1
  -1   4 -14 6515.55 231.417   1
  -1   4 -13 7726.06 172.389   1
  -1   4 -12 7629.51 139.342   1
  -1   4 -11 17876.1 189.781   1
  -1   4 -10 27901.4 214.523   1
  -1   4  -9 21696.0 325.381   1
  -1   4  -8 21.9880 70.8783   1
  -1   4  -7 17751.3 268.436   1
  -1   4  -6 39061.6 361.878   1
  -1   4  -5 42627.9 359.406   1
  -1   4  -4 465.829 60.3632   1
  -1   4  -3 22235.2 237.850   1
  -1   4  -2 144841. 417.072   1
  -1   4  -1 225.228 102.523   1
  -1   4   0 271.711 94.7078   1
  -1   4   1 9468.23 237.813   1
  -1   4   2 25911.0 377.267   1
  -1   4   3 9725.18 244.564   1
  -1   4   4 122.286 96.4176   1
  -1   4   5 25990.3 444.711   1
  -1   4   6 277.547 112.379   1
  -1   4   7 87.3111 120.295   1
  -1   4   8 109.197 116.015   1
  -1   4   9 3785.10 238.118   1
  -1   4  10 125.793 141.167   1
  -1   5 -17 1382.85 104.215   1
   1   5  15 1385.63 108.437  -2
  -1   5 -17 1385.63 108.437   1
  -1   5 -16 1922.43 133.891   1
  -1   5 -15 137.911 102.013   1
  -1   5 -14 906.098 132.506   1
  -1   5 -13 60.8408 111.437   1
  -1   5 -12 3784.16 109.058   1
  -1   5 -11 2455.69 86.5402   1
  -1   5 -10 3993.81 92.9439   1
  -1   5  -9 18.5974 73.6999   1
  -1   5  -8 1531.41 108.573   1
  -1   5  -7 200.818 72.9921   1
  -1   5  -6 2147.93 108.826   1
  -1   5  -5 1076.06 84.4332   1
  -1   5  -4 3450.60 115.995   1
  -1   5  -3 7882.62 98.1866   1
  -1   5  -2 781.713 47.9169   1
  -1   5  -1 1402.15 134.697   1
  -1   5   0 3866.47 176.159   1
  -1   5   1 498.458 117.300   1
  -1   5   2-14.4001 106.269   1
  -1   5   3 283.466 110.815   1
  -1   5   4 399.222 111.609   1
  -1   5   5-60.3731 102.688   1
  -1   5   6 1251.87 150.391   1
  -1   5   7 30.9721 114.757   1
  -1   5   8 57.9140 122.405   1
  -1   5   9 825.318 162.837   1
  -1   5  10 34.9090 147.140   1
  -1   6 -17 2214.75 76.8814   1
  -1   6 -16 6977.25 207.044   1
  -1   6 -15 3886.18 178.835   1
  -1   6 -14 552.662 118.523   1
  -1   6 -13 2318.69 164.021   1
  -1   6 -12 39931.2 508.666   1
  -1   6 -11 14483.9 154.014   1
  -1   6 -10 2793.24 86.1736   1
  -1   6  -9 16887.2 310.058   1
  -1   6  -8 29048.9 383.939   1
  -1   6  -7 39135.9 420.343   1
  -1   6  -6 21786.0 305.817   1
  -1   6  -5 1226.50 93.5324   1
  -1   6  -4 14954.1 168.152   1
  -1   6  -3 39751.8 226.957   1
  -1   6  -2 484.243 144.950   1
  -1   6  -1 8131.05 266.305   1
  -1   6   0 2235.59 175.264   1
  -1   6   1 1139.99 150.942   1
  -1   6   2 101.760 123.911   1
  -1   6   3 580.634 138.443   1
  -1   6   4 616.252 142.628   1
  -1   6   5 26091.6 507.006   1
  -1   6   6 6937.77 292.601   1
  -1   6   7 892.038 158.780   1
  -1   6   8 2035.96 202.170   1
  -1   6   9 7953.82 340.366   1
  -1   7 -17-13.9929 45.7745   1
  -1   7 -16 200.334 88.9833   1
  -1   7 -15 2853.15 157.398   1
  -1   7 -14 165.229 106.681   1
  -1   7 -13 29.5696 101.294   1
  -1   7 -12 185.227 112.193   1
  -1   7 -11 5936.56 124.708   1
  -1   7 -10 561.243 53.5804   1
  -1   7  -9 2567.69 72.8648   1
  -1   7  -8 101.007 78.6084   1
  -1   7  -7 1925.13 121.659   1
  -1   7  -6 98.0976 50.7644   1
  -1   7  -5 4828.31 113.643   1
  -1   7  -4 10586.7 152.587   1
  -1   7  -3 21.8749 56.9212   1
  -1   7  -2 4326.83 213.512   1
  -1   7  -1 8764.38 297.861   1
  -1   7   0 1408.91 172.323   1
  -1   7   1 45.5636 123.591   1
  -1   7   2-32.4954 129.076   1
  -1   7   3 1352.41 172.209   1
  -1   7   4 585.700 149.994   1
  -1   7   5 420.688 141.019   1
  -1   7   6 397.986 147.933   1
  -1   7   7 54.1804 141.799   1
  -1   7   8 96.9642 150.188   1
  -1   8 -17 538.706 49.5379   1
  -1   8 -16-11.4993 77.0577   1
  -1   8 -15 205.627 97.0623   1
  -1   8 -14 2121.99 153.123   1
  -1   8 -13 2398.85 162.976   1
  -1   8 -12 2587.06 168.763   1
  -1   8 -11 6706.37 132.623   1
  -1   8 -10 8419.82 116.641   1
  -1   8  -9 58.9732 43.9209   1
  -1   8  -8 7289.42 100.190   1
  -1   8  -7 14074.6 212.961   1
  -1   8  -6 16370.6 215.200   1
  -1   8  -5 947.475 67.3622   1
  -1   8  -4 5889.36 187.434   1
  -1   8  -3 60300.3 437.926   1
  -1   8  -2 4937.72 240.146   1
  -1   8  -1 935.474 213.919   1
  -1   8   0 4727.27 285.916   1
  -1   8   1 5674.61 282.116   1
  -1   8   2 2937.53 224.555   1
  -1   8   3 65.2672 141.773   1
  -1   8   4 6431.01 313.086   1
  -1   8   5 211.045 64.9271   1
  -1   8   6 1991.61 98.6382   1
  -1   8   7 4382.39 301.824   1
  -1   8  11 3754.55 135.398   1
  -1   9 -17 268.907 65.8960   1
  -1   9 -16 202.813 56.2294   1
  -1   9 -15 50.9896 83.0025   1
  -1   9 -14 271.560 99.3597   1
  -1   9 -13 194.622 106.857   1
  -1   9 -12 677.834 74.0980   1
  -1   9 -11 2406.82 96.9314   1
  -1   9 -10 95.1922 51.1433   1
  -1   9  -9 102.797 50.8873   1
  -1   9  -8 1172.71 62.8431   1
  -1   9  -7 23.6972 58.7579   1
  -1   9  -6 807.021 103.115   1
  -1   9  -5 3617.80 161.638   1
  -1   9  -4 4438.39 179.870   1
  -1   9  -3-37.8560 66.4982   1
  -1   9  -2 598.237 151.007   1
  -1   9  -1 1619.18 191.530   1
  -1   9   0-0.27097 146.866   1
  -1   9   1 48.1674 157.904   1
  -1   9   2 627.950 172.514   1
  -1   9   3 29.9100 56.6849   1
  -1   9   4 38.6131 57.1259   1
  -1   9   5 709.132 81.0557   1
  -1   9   6-11.7675 65.2223   1
  -1   9   7 99.6156 80.2001   1
  -1   9  11-18.9258 66.0190   1
  -1  10 -16 1426.58 65.0394   1
  -1  10 -15 2021.90 119.227   1
  -1  10 -14 322.423 94.0918   1
  -1  10 -13 2786.81 94.4709   1
  -1  10 -12 966.686 77.4292   1
  -1  10 -11 213.036 67.8601   1
  -1  10 -10 4129.89 115.426   1
  -1  10  -9 1864.60 77.1801   1
  -1  10  -8 169.542 52.1860   1
  -1  10  -7 1079.70 63.2128   1
  -1  10  -6 13649.6 200.079   1
  -1  10  -5 11855.3 187.600   1
  -1  10  -4 881.279 75.5454   1
  -1  10  -3 20090.9 373.573   1
  -1  10  -2 27697.4 561.018   1
  -1  10  -1 16363.5 460.943   1
  -1  10   0 379.824 64.1342   1
  -1  10   1 9248.09 168.945   1
  -1  10   2 25238.2 269.994   1
  -1  10   3 20972.0 253.931   1
  -1  10   4 235.209 72.5231   1
  -1  10   5 8696.90 176.327   1
  -1  10   6 19599.3 277.639   1
  -1  10   7 1975.08 114.717   1
  -1  10  11 832.813 69.5832   1
  -1  11 -16 1559.26 89.5580   1
  -1  11 -15 306.729 54.0673   1
  -1  11 -14 384.705 87.0735   1
  -1  11 -13 19.3235 56.2970   1
  -1  11 -12 2360.17 92.3800   1
  -1  11 -11 1401.83 82.0291   1
  -1  11 -10 140.863 63.8286   1
  -1  11  -9-21.0360 60.2346   1
  -1  11  -8 413.393 65.6894   1
  -1  11  -7 267.919 55.7873   1
  -1  11  -6 1317.66 67.6623   1
  -1  11  -5 2045.05 99.5959   1
  -1  11  -4 77.8991 45.1251   1
  -1  11  -3 826.990 69.7730   1
  -1  11  -2 897.963 65.6417   1
  -1  11  -1 97.9511 61.7232   1
  -1  11   0 44.0378 61.5385   1
  -1  11   1 68.5307 66.5687   1
  -1  11   2 225.806 72.0468   1
  -1  11   3 595.405 82.2516   1
  -1  11   4-9.40660 74.7848   1
  -1  11   5 224.515 81.4330   1
  -1  11   6 724.287 94.4712   1
  -1  11   7 56.4965 74.1262   1
  -1  11  10 592.458 69.7675   1
  -1  11  11 580.106 53.3508   1
  -1  12 -15 2391.60 102.313   1
  -1  12 -14 1721.35 56.1059   1
  -1  12 -13 924.540 56.3363   1
  -1  12 -12 7213.10 133.988   1
  -1  12 -11 13315.5 178.436   1
  -1  12 -10 2944.48 103.655   1
  -1  12  -9 2175.16 95.8515   1
  -1  12  -8 17629.2 211.164   1
  -1  12  -7 32207.2 274.793   1
  -1  12  -6 12911.8 178.571   1
  -1  12  -5 112.146 54.1513   1
  -1  12  -4 32141.9 274.376   1
  -1  12  -3 24686.4 248.513   1
  -1  12  -2 10270.9 175.127   1
  -1  12  -1 107.823 76.5633   1
  -1  12   0 4067.75 146.383   1
  -1  12   1 10493.6 218.980   1
  -1  12   2 3261.94 139.810   1
  -1  12   3 383.764 87.4052   1
  -1  12   4 1959.16 117.532   1
  -1  12   5 168.406 75.4010   1
  -1  12   7 576.436 80.8586   1
  -1  12  10 1812.97 69.0327   1
  -1  13 -13 257.078 41.2628   1
  -1  13 -12 737.197 52.7722   1
  -1  13 -11 147.453 44.1259   1
  -1  13 -10 252.366 61.5413   1
  -1  13  -9 189.547 62.9804   1
  -1  13  -8 39.4193 59.4180   1
  -1  13  -7 822.387 73.8949   1
  -1  13  -6 1912.64 116.294   1
  -1  13  -5 385.708 81.6697   1
  -1  13  -4 24.9517 49.6211   1
  -1  13  -3-2.56221 50.0921   1
  -1  13  -2 346.913 54.1171   1
  -1  13  -1-9.89017 75.4942   1
  -1  13   0 66.0003 79.0536   1
  -1  13   1 391.542 83.9345   1
  -1  13   2 41.3289 79.0887   1
  -1  13   3 203.910 80.5816   1
  -1  13   4 37.1030 69.8910   1
  -1  13   5 145.041 72.9952   1
  -1  13   6 113.160 67.6746   1
  -1  13   7 43.1767 57.0092   1
  -1  13   9 0.56812 44.9970   1
  -1  14 -13 1800.21 82.6468   1
  -1  14 -12 3547.38 119.251   1
  -1  14 -11 80.2741 46.9577   1
  -1  14 -10 63.0070 75.5514   1
  -1  14  -9 454.021 85.9302   1
  -1  14  -8 321.954 85.3874   1
  -1  14  -7 1278.32 103.225   1
  -1  14  -6 4307.62 145.643   1
  -1  14  -5 1146.95 97.7561   1
  -1  14  -4 1848.86 74.8053   1
  -1  14  -3 11649.0 148.998   1
  -1  14  -2 14962.4 163.606   1
  -1  14  -1 1333.45 105.659   1
  -1  14   0 1021.30 101.600   1
  -1  14   1 11900.4 230.032   1
  -1  14   2 20844.5 288.796   1
  -1  14   3 4834.34 150.312   1
  -1  14   4 271.653 74.3269   1
  -1  14   5 9242.71 169.797   1
  -1  14   6 3220.29 100.479   1
  -1  14   7 1727.62 69.3199   1
  -1  14   8 91.6032 45.6033   1
  -1  15 -12 943.623 71.4528   1
  -1  15 -11 117.951 42.0413   1
  -1  15 -10 92.9572 45.3526   1
  -1  15  -9 25.1405 47.9552   1
  -1  15  -8 264.754 77.4813   1
  -1  15  -7 240.314 75.5609   1
  -1  15  -6 99.4320 69.7106   1
  -1  15  -5 15.4071 69.8127   1
  -1  15  -4 43.8420 46.1661   1
  -1  15  -3 42.6653 44.4930   1
  -1  15  -2 17.2815 73.2401   1
  -1  15  -1 18.5582 70.3453   1
  -1  15   0 148.439 75.6973   1
  -1  15   1 20.1258 72.8148   1
  -1  15   2 168.285 73.6614   1
  -1  15   3 3.18118 61.8720   1
  -1  15   4 403.054 84.5680   1
  -1  15   5 179.821 52.4820   1
  -1  16 -11 3095.59 89.8145   1
  -1  16 -10 864.032 46.4602   1
  -1  16  -9 89.8865 42.0407   1
  -1  16  -8 3299.11 76.4921   1
  -1  16  -7 3419.70 113.126   1
  -1  16  -6 668.289 75.4598   1
  -1  16  -5 2148.08 96.4082   1
  -1  16  -4 3302.90 77.3842   1
  -1  16  -3 1993.37 97.4061   1
  -1  16  -2 145.200 64.6299   1
  -1  16  -1 904.315 81.3031   1
  -1  16   0 2844.56 108.898   1
  -1  16   1 999.009 78.1591   1
  -1  16   2 215.237 61.5656   1
  -1  16   3 2299.10 84.5572   1
  -1  16   4 673.569 56.3580   1
  -1  17  -8 32.2229 33.1461   1
  -1  17  -7 224.977 37.5001   1
  -1  17  -6 10.6157 35.6013   1
  -1  17  -5 0.99218 50.1533   1
  -1  17  -4 58.5415 49.1854   1
  -1  17  -3 44.1310 34.6214   1
  -1  17  -2-5.33505 43.1040   1
   0  17  -5 256.161 72.5031  -2
  -1  17  -2 256.161 72.5031   1
  -1  17  -1 51.0816 48.8640   1
  -1  17   0 27.4007 50.0015   1
  -1  17   1-28.2383 46.1096   1
  -1  17   2 13.8939 40.9829   1
   0 -13  -8 16.0955 40.0282   1
   0 -13  -7 374.156 53.3508   1
   0 -12 -10 131.567 41.0990   1
   0 -12  -9 425.849 53.2044   1
   0 -12  -8 1805.12 82.0537   1
   0 -12  -7 261.333 61.8226   1
   0 -12  -6 5692.52 133.627   1
   0 -12  -5 18.0783 58.2099   1
   0 -11 -11 224.520 50.7782   1
   0 -11 -10 93.5690 50.6739   1
   0 -11  -9 914.623 73.9731   1
   0 -11  -8 1269.89 85.4934   1
   0 -11  -7 136.267 64.9174   1
   0 -11  -6 849.402 77.9516   1
   0 -11  -5 960.195 81.8642   1
   0 -11  -4 35.2747 58.6988   1
   0 -11  -1 55.5619 99.2132   1
   0 -11   0 74.7817 100.308   1
   0 -10 -12 10478.0 150.595   1
   0 -10 -11 6620.22 141.433   1
   0 -10 -10 346.533 70.3042   1
   0 -10  -9 3099.89 120.937   1
   0 -10  -8 12853.7 216.855   1
   0 -10  -7 16098.9 239.125   1
   0 -10  -6 2192.85 105.000   1
   0 -10  -5 5306.09 137.396   1
   0 -10  -4 17770.5 195.356   1
   0 -10  -3 4825.08 222.785   1
   0 -10  -2 12.3265 87.9615   1
   0 -10  -1 1398.72 136.816   1
   0 -10   0 6700.82 237.611   1
   0 -10   1 1225.53 123.526   1
   0 -10   2 14855.1 314.818   1
   0  -9 -13 9.67936 45.9058   1
   0  -9 -12 1266.48 82.6371   1
   0  -9 -11 653.323 80.5993   1
   0  -9 -10 44.1668 70.2809   1
   0  -9  -9 445.067 79.8211   1
   0  -9  -8 853.347 86.9469   1
   0  -9  -7 3228.95 123.767   1
   0  -9  -6 286.823 68.3015   1
   0  -9  -5 372.201 56.0841   1
   0  -9  -4 180.711 48.9629   1
   0  -9  -3 334.759 93.3486   1
   0  -9  -2 112.073 77.1534   1
   0  -9  -1 31.0093 73.4043   1
   0  -9   0 455.311 89.6350   1
   0  -9   1 1148.19 107.378   1
   0  -9   2 45.8606 68.8531   1
   0  -9   3 198.595 74.5276   1
   0  -8 -14 8330.48 127.959   1
   0  -8 -13 5019.66 127.927   1
   0  -8 -12 128.203 68.9949   1
   0  -8 -11 2803.09 124.084   1
   0  -8 -10 17797.3 270.625   1
   0  -8  -9 3997.02 145.408   1
   0  -8  -8 2382.21 116.260   1
   0  -8  -7 12255.6 210.986   1
   0  -8  -6 18351.5 216.250   1
   0  -8  -5 15870.6 180.284   1
   0  -8  -4 2752.19 156.532   1
   0  -8  -3 12427.7 289.956   1
   0  -8  -2 15177.0 306.400   1
   0  -8  -1 3384.42 152.431   1
   0  -8   0 4701.07 171.702   1
   0  -8   1 2755.24 134.474   1
   0  -8   2 82778.9 604.237   1
   0  -8   3 32492.5 361.827   1
   0  -7 -14 754.744 67.1892   1
   0  -7 -13 2275.51 106.977   1
   0  -7 -12 323.094 83.0760   1
   0  -7 -11 437.379 86.8656   1
   0  -7 -10 451.075 85.7313   1
   0  -7  -9 5318.37 161.759   1
   0  -7  -8 1456.43 99.7319   1
   0  -7  -7 1670.81 77.1542   1
   0  -7  -6 375.753 91.4844   1
   0  -7  -5 1380.54 115.312   1
   0  -7  -4 717.301 91.8847   1
   0  -7  -3 28.3617 59.6299   1
   0  -7  -2 304.572 71.3658   1
   0  -7  -1 41.2782 61.6770   1
   0  -7   0 259.227 70.2900   1
   0  -7   1 280.327 63.6151   1
   0  -7   2 143.285 55.1644   1
   0  -7   3 78.2367 51.6058   1
   0  -7   4 834.896 65.6904   1
   0  -6 -15 4960.88 81.7650   1
   0  -6 -14 53.1761 60.4564   1
   0  -6 -13 5736.31 162.515   1
   0  -6 -12 8006.40 196.960   1
   0  -6 -11 3848.08 151.245   1
   0  -6 -10 288.910 84.7874   1
   0  -6  -9 13392.2 234.932   1
   0  -6  -8 22606.2 280.514   1
   0  -6  -7 15214.7 178.914   1
   0  -6  -6 1507.91 116.443   1
   0  -6  -5 51001.1 522.096   1
   0  -6  -4 28229.6 372.442   1
   0  -6  -3 8980.10 204.500   1
   0  -6  -2 49.8540 59.0547   1
   0  -6  -1 16707.4 259.989   1
   0  -6   0 64637.2 477.633   1
   0  -6   1 5002.67 136.315   1
   0  -6   2 144.884 52.8983   1
   0  -6   3 20344.9 224.406   1
   0  -6   4 708.481 51.9134   1
   0  -5 -16 24.2311 48.0845   1
   0  -5 -15 1017.69 56.4176   1
   0  -5 -14 339.350 76.7468   1
   0  -5 -13 179.887 80.4103   1
   0  -5 -12 341.540 87.5055   1
   0  -5 -11 192.265 87.2207   1
   0  -5 -10 730.265 93.2308   1
   0  -5  -9 152.296 72.2323   1
   0  -5  -8 3278.91 117.767   1
   0  -5  -7 137.192 68.0259   1
   0  -5  -6 1011.68 91.9826   1
   0  -5  -5 248.229 64.2942   1
   0  -5  -4 1140.67 84.1424   1
   0  -5  -3 129.757 55.1100   1
   0  -5  -2 115.436 57.7968   1
   0  -5  -1 989.130 70.6113   1
   0  -5   0 1098.57 71.2167   1
   0  -5   1 6.76919 43.0656   1
   0  -5   2 126.707 42.5288   1
   0  -5   3 407.854 41.6336   1
   0  -5   4 8.65435 29.3288   1
   0  -4 -16 2237.80 93.6897   1
   0  -4 -15 1660.22 71.2918   1
   0  -4 -14 2829.11 126.491   1
   0  -4 -13 947.150 100.673   1
   0  -4 -12 70.4197 82.6944   1
   0  -4 -11 7408.62 191.470   1
   0  -4 -10 1875.95 113.256   1
   0  -4  -9 1547.99 97.3155   1
   0  -4  -7 10767.1 228.386   1
   0  -4  -6 29626.8 351.079   1
   0  -4  -5 7878.84 176.574   1
   0  -4  -4 23663.7 286.645   1
   0  -4  -3 37469.0 333.828   1
   0  -4  -2 783.015 61.6526   1
   0  -4  -1 354.800 49.9135   1
   0  -4   0 7763.02 129.740   1
   0  -4   1 486204. 897.929   1
   0  -4   2 107230. 399.589   1
   0  -4   3 1769.54 52.2637   1
   0  -3 -17 706.699 56.6251   1
   0  -3 -16 1892.61 102.950   1
   0  -3 -15 11.4931 49.8286   1
   0  -3 -14 1080.54 98.2636   1
   0  -3 -13 624.187 64.9124   1
   0  -3 -12 199.557 61.7514   1
   0  -3 -11 538.020 64.3891   1
   0  -3 -10 1110.94 69.7789   1
   0  -3  -7 527.948 69.6603   1
   0  -3  -6 692.128 68.7069   1
   0  -3  -5 112.553 47.7237   1
   0  -3  -4 118.239 46.9423   1
   0  -3  -3 413.776 48.8592   1
   0  -3  -2 27.0664 44.9242   1
   0  -3  -1 398.476 47.7957   1
   0  -3   0 86.2641 35.8862   1
   0  -3   1 311.876 34.9374   1
   0  -3   2 129.547 27.3469   1
   0  -3   3 1740.75 37.0780   1
   0  -2 -17 372.955 61.2723   1
   0  -2 -16 5127.53 156.407   1
   0  -2 -15 1137.99 56.9512   1
   0  -2 -14 3292.22 97.8440   1
   0  -2 -13 6262.12 131.630   1
   0  -2 -12 5842.35 128.415   1
   0  -2 -11 567.844 66.9504   1
   0  -2 -10 11037.1 143.337   1
   0  -2  -9 16948.6 378.605   1
   0  -2  -8 29039.3 455.850   1
   0  -2  -7 1957.67 76.3309   1
   0  -2  -6 69706.9 348.797   1
   0  -2  -5 24070.9 193.494   1
   0  -2  -4 12094.0 129.298   1
   0  -2  -3 859.986 46.3089   1
   0  -2  -2 1092.99 51.3558   1
   0  -2  -1 56053.5 254.065   1
   0  -2   0 4010.52 64.0550   1
   0  -2   1 27155.6 133.623   1
   0  -2   2 46733.5 136.859   1
   0  -1 -17 100.238 63.4504   1
   0  -1 -16 160.793 85.4918   1
   0  -1 -15 1.30386 59.3468   1
   0  -1 -14 282.379 60.4365   1
   0  -1 -13 660.641 71.4822   1
   0  -1 -12 986.120 72.9571   1
   0  -1 -11 121.190 49.9330   1
   0  -1 -10 1925.34 152.076   1
   0  -1  -9 4884.94 199.045   1
   0  -1  -8 3704.52 163.281   1
   0  -1  -7 1078.75 99.8882   1
   0  -1  -6 3670.14 56.4258   1
   0  -1  -5 5850.74 62.6208   1
   0  -1  -4 4118.48 48.3982   1
   0  -1  -3 1044.97 27.5344   1
   0  -1  -2 108.434 13.6671   1
   0  -1  -1 10.4296 14.8911   1
   0  -1   0 12.5861 10.3416   1
   0   0  17 15654.4 307.041  -2
   0   0 -17 15654.4 307.041   1
   0   0  16 30.4322 64.2866  -2
   0   0 -16 30.4322 64.2866   1
   0   0  15 1981.23 126.574  -2
   0   0 -15 1981.23 126.574   1
   0   0  14 1201.13 117.997  -2
   0   0 -14 1201.13 117.997   1
   0   0  13 2972.76 206.394  -2
   0   0 -13 2972.76 206.394   1
   0   0  12 1198.30 95.4343  -2
   0   0 -12 1198.30 95.4343   1
   0   0  11 252.264 71.5701  -2
   0   0 -11 252.264 71.5701   1
   0   0  10 5449.98 291.713  -2
   0   0 -10 5449.98 291.713   1
   0   0   9 56007.3 768.090  -2
   0   0  -9 56007.3 768.090   1
   0   0   8 30787.0 524.252  -2
   0   0  -8 30787.0 524.252   1
   0   0   7 66970.5 408.903  -2
   0   0  -7 66970.5 408.903   1
   0   0   6 178256. 600.916  -2
   0   0  -6 178256. 600.916   1
   0   0   5 561694. 669.369  -2
   0   0  -5 561694. 669.369   1
   0   0   4 814644. 846.368  -2
   0   0  -4 814644. 846.368   1
   0   0   3 69852.8 242.213  -2
   0   0  -3 69852.8 242.213   1
   0   0   2 39280.3 146.085  -2
   0   0  -2 39280.3 146.085   1
   0   0   1 43174.7 92.1008  -2
   0   0  -1 43174.7 92.1008   1
   0   0 -12 1170.16 223.951  -2
   0   0  12 1170.16 223.951   1
   0   1 -17 3847.08 137.631   1
   0   1 -16 1064.92 74.3203   1
   0   1 -15 192.322 67.5592   1
   0   1 -14 1144.37 89.6832   1
   0   1 -13 4876.76 138.123   1
   0   1 -12 362.418 77.3900   1
   0   1 -11 240.914 64.0407   1
   0   1 -10 6.90738 81.4405   1
   0   1  -9 1832.60 122.518   1
   0   1  -8 34.6804 41.1743   1
   0   1  -7 59.1781 37.1054   1
   0   1  -6 1057.56 47.1387   1
   0   1  -5 916.626 60.4147   1
   0   1  -4 1065.03 58.3132   1
   0   1  -3 27.3992 35.8330   1
   0   1  -2 13.7102 20.2548   1
   0   1  -1 47.6983 12.5155   1
   0   1   0 25.4941 17.9892   1
   0   1  11-40.7073 129.307   1
   0   1  12 512.468 156.143   1
   0   2 -17 9909.40 201.549   1
   0   2 -16 6961.00 141.249   1
   0   2 -15 462.685 74.4445   1
   0   2 -14 9509.84 183.827   1
   0   2 -13 21303.0 258.589   1
   0   2 -12 19893.8 206.924   1
   0   2 -11 29.9197 62.2616   1
   0   2 -10 16611.3 312.708   1
   0   2  -9 54508.8 330.390   1
   0   2  -8 48889.3 287.416   1
   0   2  -7 5582.24 95.2289   1
   0   2  -6 17326.4 204.203   1
   0   2  -5 33668.7 256.753   1
   0   2  -4 35003.3 232.518   1
   0   2  -3 12444.3 127.653   1
   0   2  -2 47194.7 205.937   1
   0   2  -1 24606.6 127.460   1
   0   2   0 3494.57 81.9764   1
   0   2   1 50198.7 319.281   1
   0   2   2 936.394 79.7075   1
   0   2   9 10031.0 305.590   1
   0   2  10 6117.07 265.839   1
   0   2  11 170.011 136.572   1
   0   3 -17 714.167 91.3866   1
   0   3 -16 901.686 77.6376   1
   0   3 -15 846.931 83.8429   1
   0   3 -14 26.1421 70.5509   1
   0   3 -13 4345.42 138.458   1
   0   3 -12 590.588 66.6452   1
   0   3 -11 310.312 53.3570   1
   0   3 -10 281.021 53.9302   1
   0   3  -9 5335.06 112.965   1
   0   3  -8 3445.59 85.7671   1
   0   3  -7 143.961 54.0281   1
   0   3  -6 84.7748 47.1614   1
   0   3  -5 1082.59 61.8453   1
   0   3  -4 371.655 44.0859   1
   0   3  -3 1639.49 61.4895   1
   0   3  -2 146.771 40.4829   1
   0   3  -1 297.995 39.7970   1
   0   3   0 74.9098 72.0192   1
   0   3   1 262.363 86.3472   1
   0   3   2 91.5032 85.2916   1
   0   3   3 214.144 78.0753   1
   0   3   4 77.6007 74.8457   1
   0   3   5 47.7951 84.2629   1
   0   3   6 420.511 103.216   1
   0   3   7 395.860 108.089   1
   0   3   8 187.437 115.678   1
   0   3   9 394.427 127.724   1
   0   3  10 901.716 94.3174   1
   0   3  11 316.689 149.333   1
   0   4 -17-27.2202 72.2241   1
   0   4 -16 3701.56 103.079   1
   0   4 -15 7690.74 167.040   1
   0   4 -14 8206.91 177.092   1
   0   4 -13 213.285 76.6892   1
   0   4 -12 4844.65 112.635   1
   0   4 -11 22968.5 204.099   1
   0   4 -10 3514.74 104.119   1
   0   4  -9 1007.96 61.5746   1
   0   4  -8 32247.9 334.318   1
   0   4  -7 7180.12 153.485   1
   0   4  -6 921.673 71.4189   1
   0   4  -5 14597.0 184.790   1
   0   4  -4 3561.12 91.0555   1
   0   4  -3 1732.53 66.4807   1
   0   4  -2 97283.3 354.977   1
   0   4  -1 439151. 1151.40   1
   0   4   0 6414.59 166.903   1
   0   4   1 240.781 80.9669   1
   0   4   2 543.586 94.1773   1
   0   4   3 30684.6 401.692   1
   0   4   4 17632.1 330.345   1
   0   4   5 6383.22 226.693   1
   0   4   6 20522.5 402.458   1
   0   4   7 7528.03 273.441   1
   0   4   8 3789.15 220.765   1
   0   4   9 602.759 142.862   1
   0   4  10 888.183 175.400   1
   0   4  11 7156.97 192.871   1
   0   4  12 119.300 86.9677   1
   0   5 -17 760.411 83.2240   1
   0   5  15 1822.34 114.570  -2
   0   5 -17 1822.34 114.570   1
   0   5 -16-4.98964 81.5689   1
   0   5 -15 232.148 101.208   1
   0   5  13 489.630 148.719  -2
   0   5 -15 489.630 148.719   1
   0   5 -14 5449.40 208.967   1
   0   5  12 5820.44 235.644  -2
   0   5 -14 5820.44 235.644   1
   0   5 -13 162.224 75.2016   1
   0   5 -12 372.546 62.1339   1
   0   5 -11 1.13362 43.5919   1
   0   5 -10 4827.40 85.0272   1
   0   5  -9 0.15746 42.1134   1
   0   5  -8 608.025 73.8589   1
   0   5  -7 16.0620 54.3043   1
   0   5  -6-11.6678 51.0050   1
   0   5  -5 7.14999 50.6762   1
   0   5  -4 15.7650 43.7309   1
   0   5  -3 356.386 39.7949   1
   0   5  -2 82.3195 43.2667   1
   0   5  -1-24.4225 83.4809   1
   0   5   0 812.132 99.8622   1
   0   5   1 794.433 100.364   1
   0   5   2 85.5386 85.5127   1
   0   5   3 118.180 106.668   1
   0   5   4 1026.58 130.251   1
   0   5   5 157.814 110.365   1
   0   5   6 611.156 134.092   1
   0   5   7 89.0303 119.757   1
   0   5   8 1730.54 197.336   1
   0   5   9 89.2953 144.399   1
   0   5  10 487.641 155.558   1
   0   5  11 112.874 100.756   1
   0   5  12 289.605 89.1486   1
   0   6 -17 5420.33 101.300   1
   0   6 -16 1092.98 77.2585   1
   0   6 -15 133.917 93.7854   1
   0   6 -14 3821.82 131.668   1
   0   6 -13 11235.2 200.552   1
   0   6 -12 6472.48 155.264   1
   0   6 -11 50.7551 44.6329   1
   0   6 -10 8445.16 90.8349   1
   0   6  -9 13987.7 184.164   1
   0   6  -8 242.276 66.8490   1
   0   6  -7 340.317 67.9274   1
   0   6  -6 45.3160 57.2180   1
   0   6  -5 816.988 57.2789   1
   0   6  -4 584.131 51.3695   1
   0   6  -3 17697.6 173.323   1
   0   6  -2 88.9139 84.4148   1
   0   6  -1 4199.71 170.350   1
   0   6   0 54667.6 542.917   1
   0   6   1 13931.0 303.579   1
   0   6   2 41.4320 105.302   1
   0   6   3 6607.85 233.575   1
   0   6   4 20178.1 405.173   1
   0   6   5 34744.3 557.767   1
   0   6   6 937.442 155.718   1
   0   6   7 8730.04 331.020   1
   0   6   8 13290.6 419.301   1
   0   6   9 7103.35 326.757   1
   0   6  11 3166.82 155.752   1
   0   6  12 6869.17 178.443   1
   0   6  13 5185.84 135.504   1
   0   7 -17 285.084 49.7581   1
   0   7 -16 934.455 70.3422   1
   0   7 -15 220.283 87.4208   1
   0   7 -14 1701.40 133.933   1
   0   7 -13 261.522 78.4483   1
   0   7 -12 547.469 59.8921   1
   0   7 -11 1389.48 53.7957   1
   0   7 -10 1414.54 50.1345   1
   0   7  -9 1543.91 63.3568   1
   0   7  -8 41.9065 65.6375   1
   0   7  -7-3.23133 46.8844   1
   0   7  -6 17.8368 45.6682   1
   0   7  -5 13.5028 41.7544   1
   0   7  -4 659.319 53.6296   1
   0   7  -3 91.4083 53.8233   1
   0   7  -2 102.901 92.6830   1
   0   7  -1 297.114 104.996   1
   0   7   0 249.046 110.216   1
   0   7   1-4.35170 112.314   1
   0   7   2 305.452 116.594   1
   0   7   3 67.8424 112.888   1
   0   7   4 570.757 127.241   1
   0   7   5 853.244 137.501   1
   0   7   6 291.619 128.774   1
   0   7   7 967.599 166.923   1
   0   7   8 627.560 168.658   1
   0   7  11 376.240 102.483   1
   0   7  12 305.846 82.9729   1
   0   7  13 1822.08 86.6943   1
   0   8 -17 407.763 76.3747   1
   0   8 -16 855.165 65.9231   1
   0   8 -15 671.587 97.3453   1
   0   8 -14 16.4220 85.6148   1
   0   8 -13 1134.34 77.7760   1
   0   8 -12 11648.7 169.289   1
   0   8 -11 1013.95 73.2544   1
   0   8 -10 196.377 42.2282   1
   0   8  -9 16985.9 133.753   1
   0   8  -8 11601.8 133.855   1
   0   8  -7 2189.75 89.9534   1
   0   8  -6 3121.59 98.7224   1
   0   8  -5 14963.4 192.965   1
   0   8  -4 6053.25 162.581   1
   0   8  -3 28976.1 341.765   1
   0   8  -2 74101.7 662.684   1
   0   8  -1 2145.60 161.099   1
   0   8   0 3949.21 208.010   1
   0   8   1 2818.97 188.340   1
   0   8   2 12423.3 352.825   1
   0   8   3 9602.84 333.403   1
   0   8   4 1775.20 184.720   1
   0   8   5 10308.0 370.947   1
   0   8   6 19914.1 232.473   1
   0   8   7 7009.39 335.694   1
   0   8  11 2162.21 124.468   1
   0   8  12 128.478 68.7831   1
   0   8  13 4001.92 97.6348   1
   0   9 -17 70.2484 66.6833   1
   0   9 -16 78.3532 46.7336   1
   0   9 -15 2736.16 93.5663   1
   0   9 -14 183.323 86.7370   1
   0   9 -13 264.207 62.5449   1
   0   9 -12 5.03110 62.1209   1
   0   9 -11 2834.60 97.8251   1
   0   9 -10 75.1713 52.4156   1
   0   9  -9 263.672 45.7385   1
   0   9  -8 293.328 43.7262   1
   0   9  -7 51.3905 38.5847   1
   0   9  -6 76.3938 51.5807   1
   0   9  -5 114.507 63.7425   1
   0   9  -4 197.449 63.6366   1
   0   9  -3 219.145 72.5423   1
   0   9  -2 19.4950 98.2363   1
   0   9  -1 832.046 133.318   1
   0   9   0 227.596 124.489   1
   0   9   1-76.0930 122.581   1
   0   9   2 146.861 123.165   1
   0   9   3 378.164 138.454   1
   0   9   4 231.304 63.8755   1
   0   9   5 393.170 72.1227   1
   0   9   6 152.801 75.7429   1
   0   9   7 3673.33 135.725   1
   0   9  11 486.724 82.7902   1
   0   9  12 1040.88 73.4268   1
   0  10 -16 473.625 83.3403   1
   0  10 -15 2664.51 136.751   1
   0  10 -14 4171.15 85.5266   1
   0  10 -13 2972.95 95.3558   1
   0  10 -12 1263.65 81.0751   1
   0  10 -11 16504.7 198.939   1
   0  10 -10 18128.1 204.051   1
   0  10  -9 2099.73 79.4167   1
   0  10  -8 2270.87 70.3752   1
   0  10  -7 10701.9 130.203   1
   0  10  -6 27094.9 186.250   1
   0  10  -5 10315.8 140.781   1
   0  10  -4 9873.41 227.698   1
   0  10  -3 5251.28 178.016   1
   0  10   0 6737.44 152.050   1
   0  10   1 1354.89 90.0935   1
   0  10   2 23.2012 65.2375   1
   0  10   3 4686.77 129.868   1
   0  10   4 18548.2 267.455   1
   0  10   5 5551.35 163.667   1
   0  10   6 2446.86 122.544   1
   0  10   7 16524.2 256.886   1
   0  10  10 245.157 85.3584   1
   0  10  11 5622.52 136.979   1
   0  10  12 8281.48 123.931   1
   0  11 -16 20.0024 63.5157   1
   0  11 -15 483.606 90.2825   1
   0  11 -14 249.825 58.4632   1
   0  11 -13 297.786 53.3465   1
   0  11 -12 65.7367 51.8578   1
   0  11 -11 1393.95 78.8144   1
   0  11 -10 2345.16 71.3796   1
   0  11  -9 621.727 67.5718   1
   0  11  -8 14.4244 53.7775   1
   0  11  -7 360.904 51.8824   1
   0  11  -6 795.418 56.2721   1
   0  11  -5 1014.66 75.6083   1
   0  11  -4 18.2552 45.0515   1
   0  11  -3 46.1448 40.8401   1
   0  11  -2 322.762 42.8237   1
   0  11  -1 59.4818 67.6659   1
   0  11   0 115.835 66.6412   1
   0  11   1 49.3426 69.4771   1
   0  11   2 8.49702 70.9978   1
   0  11   3-11.5281 74.5875   1
   0  11   4 30.2514 74.1790   1
   0  11   5 990.515 100.408   1
   0  11   6 713.459 95.8072   1
   0  11   7 170.773 77.3833   1
   0  11   8 1360.50 94.2877   1
   0  11  10 39.5111 66.7965   1
   0  11  11 85.9300 52.3335   1
   0  12 -15 424.034 77.4190   1
   0  12 -14 322.098 91.7114   1
   0  12 -13 1840.57 80.8505   1
   0  12 -12 295.347 64.0897   1
   0  12 -11 211.035 48.7456   1
   0  12 -10 6583.92 101.443   1
   0  12  -9 6277.54 174.437   1
   0  12  -8 999.268 109.089   1
   0  12  -7 2327.37 126.546   1
   0  12  -6 23525.7 295.697   1
   0  12  -5 19321.5 212.245   1
   0  12  -4 19735.0 179.374   1
   0  12  -3 13564.9 151.575   1
   0  12  -2 22055.8 186.209   1
   0  12  -1 45112.1 404.414   1
   0  12   0 9054.46 199.156   1
   0  12   1 115.637 79.0385   1
   0  12   2 12907.6 239.213   1
   0  12   3 25299.5 324.864   1
   0  12   4 6200.40 176.712   1
   0  12   5 80.9940 78.4467   1
   0  12   6 5329.55 159.992   1
   0  12   7 334.301 80.9133   1
   0  12   9 356.549 72.5389   1
   0  12  10 100.017 49.0386   1
   0  13 -14 1301.16 88.7368   1
   0  13 -13 85.2155 52.6183   1
   0  13 -12 419.652 61.9482   1
   0  13 -11 229.515 46.0433   1
   0  13 -10 14.1980 52.2193   1
   0  13  -9 10.8766 51.0378   1
   0  13  -8 46.2048 82.1176   1
   0  13  -7 93.1439 76.6387   1
   0  13  -6 25.2737 74.4229   1
   0  13  -5 8.85884 70.6280   1
   0  13  -4 179.187 51.8485   1
   0  13  -3 40.5834 48.8324   1
   0  13  -2 4435.74 158.128   1
   0  13  -1 88.5025 79.4816   1
   0  13   0 21.3352 76.4602   1
   0  13   1 40.5380 78.0717   1
   0  13   2 50.1612 77.7521   1
   0  13   3 226.673 83.7981   1
   0  13   4-33.1278 70.9630   1
   0  13   5 286.213 79.4125   1
   0  13   6 711.882 81.0864   1
   0  13   7 361.271 67.5779   1
   0  13   8 64.7003 60.4164   1
   0  13   9 35.0716 45.5125   1
   0  14 -13 1143.69 75.6472   1
   0  14 -12 1841.60 99.2679   1
   0  14 -11 6992.88 103.991   1
   0  14 -10 4911.02 98.1134   1
   0  14  -9 915.945 65.4831   1
   0  14  -8 334.216 85.3392   1
   0  14  -7 8167.47 183.678   1
   0  14  -6 9056.07 189.424   1
   0  14  -5 28.8870 67.5164   1
   0  14  -4 118.742 50.8529   1
   0  14  -3 6082.19 108.080   1
   0  14  -2 915.526 90.6294   1
   0  14  -1 214.211 78.0784   1
   0  14   0 222.583 79.5445   1
   0  14   1 373.478 82.0950   1
   0  14   2 9.90215 74.7051   1
   0  14   3 1903.28 112.377   1
   0  14   4 2162.30 109.196   1
   0  14   5 70.5990 66.1885   1
   0  14   6 3136.08 103.333   1
   0  14   8 509.655 52.1436   1
   0  15 -12 12.9277 54.8661   1
   0  15 -11 347.059 43.2155   1
   0  15 -10 461.803 50.7040   1
   0  15  -9 110.654 48.2591   1
   0  15  -8 14.4509 45.8985   1
   0  15  -7 124.446 50.2036   1
   0  15  -6 304.583 74.4674   1
   0  15  -5-6.84500 67.6301   1
   0  15  -4-15.5800 45.5352   1
   0  15  -3 204.581 82.4571   1
   0  15  -2-30.2239 70.0787   1
   0  15  -1 43.6842 73.8831   1
   0  15   0 5.44421 44.5763   1
   0  15   1 33.9931 72.1067   1
   0  15   2 45.1661 70.3920   1
   0  15   3-2.27027 66.2882   1
   0  15   4 206.649 65.7863   1
   0  15   5 124.260 54.3974   1
   0  15   6 129.317 47.4499   1
   0  16 -11-22.8328 50.7762   1
   0  16 -10 600.811 42.7026   1
   0  16  -9 528.130 47.6038   1
   0  16  -8 196.359 43.5063   1
   0  16  -7 1529.16 60.8613   1
   0  16  -6 3111.83 75.9517   1
   0  16  -5 5829.94 92.5837   1
   0  16  -4 416.317 47.6552   1
  -1  16  -3 4592.73 126.909  -2
   0  16  -3 4592.73 126.909   1
   0  16  -3 2099.43 97.2301   1
   0  16  -2 7846.90 105.835   1
  -1  16  -5 5044.78 118.168  -2
   0  16  -1 5044.78 118.168   1
   0  16  -1 1933.07 100.566   1
   0  16   0 18.2613 65.0785   1
   0  16   1 1620.93 92.7905   1
   0  16   2 4706.76 121.781   1
   0  16   3 1111.69 70.8789   1
   0  16   4 88.9341 48.5050   1
   0  17  -8 73.9592 44.3024   1
   0  17  -7 95.5980 46.2297   1
   0  17  -6 13.3537 47.0030   1
   0  17  -5 140.781 49.9055   1
   0  17  -4 96.4425 49.3707   1
   0  17  -3 137.229 34.9357   1
   0  17  -2 32.7270 32.0621   1
   0  17  -1-4.97813 49.7962   1
   0  17   0 15.5914 49.1533   1
   0  17   1 19.2372 46.8642   1
   0  17   2 25.1016 41.2390   1
   1 -13  -9 3.49540 35.9019   1
   1 -13  -8 187.041 46.2532   1
   1 -13  -7 44.5545 49.8396   1
   1 -13  -6 130.385 50.6559   1
   1 -13  -5 121.318 53.1127   1
   1 -13  -4-18.7362 56.1133   1
   1 -12 -10 2076.23 71.0246   1
   1 -12  -7 645.927 69.7727   1
   1 -12  -6 2398.39 102.889   1
   1 -12  -5 252.755 65.7040   1
   1 -12  -4 1976.67 95.6478   1
   1 -12  -3 404.621 70.6338   1
   1 -11 -11 752.169 57.8780   1
   1 -11 -10 664.892 64.4892   1
   1 -11  -9 138.533 62.2313   1
   1 -11  -8 82.4731 63.9770   1
   1 -11  -7 66.8029 63.3448   1
   1 -11  -6 715.006 83.4873   1
   1 -11  -5 214.685 68.4280   1
   1 -11  -4-28.0895 64.0292   1
   1 -11  -3 598.730 74.5489   1
   1 -11  -2 249.053 63.0543   1
   1 -11   3 675.951 97.4007   1
   1 -11   4 80.1841 83.1351   1
   1 -11   5 1512.98 110.679   1
   1 -10 -12 720.362 57.9942   1
   1 -10 -11 942.912 73.7113   1
   1 -10 -10 4023.42 127.550   1
   1 -10  -9 4027.47 133.809   1
   1 -10  -8 102.645 71.1269   1
   1 -10  -7 1776.42 106.750   1
   1 -10  -6 19269.0 266.270   1
   1 -10  -5 8897.58 185.357   1
   1 -10  -4 276.206 72.0233   1
   1 -10  -3 19077.9 246.546   1
   1  -9 -13 152.089 45.7284   1
   1  -9 -12 757.163 70.9041   1
   1  -9 -11-22.6384 64.4795   1
   1  -9 -10-34.8143 68.1040   1
   1  -9  -9 31.9428 73.7532   1
   1  -9  -8 244.079 77.3144   1
   1  -9  -7 61.9283 75.4535   1
   1  -9  -6-0.72352 65.5331   1
   1  -9  -5 691.145 79.9408   1
   1  -9  -4 73.6115 60.3658   1
   1  -8 -14 4358.58 93.2220   1
   1  -8 -13 10.5607 53.9362   1
   1  -8 -12 5294.08 142.101   1
   1  -8 -11 4506.88 145.855   1
   1  -8 -10 6914.59 178.006   1
   1  -8  -9-5.65172 75.8213   1
   1  -8  -8 3999.25 142.511   1
   1  -8  -7 6657.23 171.124   1
   1  -8  -6 2020.98 105.953   1
   1  -8  -5 156.265 64.4760   1
   1  -7 -14 2018.23 82.9435   1
   1  -7 -13 479.921 70.5423   1
   1  -7 -12 5.36121 69.7204   1
   1  -7 -11 666.253 90.0370   1
   1  -7 -10 1509.39 107.900   1
   1  -7  -9 353.943 83.8367   1
   1  -7  -8 375.252 81.6687   1
   1  -7  -7 84.9474 66.4229   1
   1  -7  -6 701.253 77.7976   1
   1  -6 -15 113.458 42.4539   1
   1  -6 -14 5323.52 131.677   1
   1  -6 -13 6379.48 160.193   1
   1  -6 -12 147.514 75.5843   1
   1  -6 -11 735.509 92.5731   1
   1  -6 -10 14579.2 255.229   1
   1  -6  -9 17216.5 265.571   1
   1  -6  -8 3566.84 132.809   1
   1  -6  -7 1526.34 93.0303   1
   1  -5 -16 350.495 47.9571   1
   1  -5 -15 101.002 49.3122   1
   1  -5 -14 50.6132 64.5319   1
   1  -5 -13 1105.67 95.7954   1
   1  -5 -12 110.326 77.4850   1
   1  -5 -11-30.1804 51.2025   1
   1  -5 -10 134.267 53.2167   1
   1  -5  -9 1814.52 107.443   1
   1  -5  -8 9.62197 66.3971   1
   1  -4 -16 841.428 66.8256   1
   1  -4 -15 2878.66 99.6882   1
   1  -4 -14 441.192 51.5014   1
   1  -4 -13 2089.45 80.5339   1
   1  -4 -12 21.5701 51.6877   1
   1  -4 -11 4070.44 104.513   1
   1  -4 -10 7.84842 50.2949   1
   1  -4  -9 7126.87 97.0723   1
   1  -4   4 480.971 30.2318   1
   1  -3 -16 57.0089 60.4143   1
   1  -3 -15 533.358 76.2318   1
   1  -3 -14 27.7192 47.1146   1
   1  -3 -13 125.509 53.8143   1
  -1  -3  13 913.976 128.435  -2
   1  -3 -12 913.976 128.435   1
   1  -3 -12 519.580 94.8269   1
  -1  -3  12 2267.96 140.666  -2
   1  -3 -11 2267.96 140.666   1
   1  -3 -11 1317.18 104.267   1
  -1  -3  11 186.669 102.545  -2
   1  -3 -10 186.669 102.545   1
   1  -3 -10 29.9568 47.9911   1
   1  -3   4 9846.25 84.1953   1
   1  -2 -17 539.718 55.3432   1
   1  -2 -16 78.1115 45.2806   1
   1  -2 -15 360.305 57.6016   1
   1  -2 -14 408.002 87.9269   1
   1  -2 -13 2952.26 95.8158   1
   1  -2 -12 2124.06 86.3577   1
   1  -2 -11 10978.7 156.630   1
   1  -2 -10 5792.03 92.3022   1
   1  -2   3 606.526 33.7177   1
   1  -1 -17 421.861 58.5379   1
   1  -1 -16 729.797 58.3847   1
   1  -1 -15 446.739 62.5356   1
   1  -1 -14 561.649 98.9737   1
   1  -1 -13 224.148 92.9046   1
   1  -1 -12 144.295 91.2045   1
   1  -1 -11 51.6113 54.0919   1
   1  -1 -10 1093.86 66.6970   1
   1  -1  -7 1737.73 72.3431   1
   1  -1  -6 57.5257 45.2550   1
   1  -1  -5 967.925 54.6363   1
   1  -1  -4 2267.92 88.7959   1
   1  -1  -3 1898.40 84.8851   1
   1  -1   2 6.95888 29.5368   1
   1  -1   3 3512.25 63.3683   1
  -1   0  17 3126.31 99.5119  -2
   1   0 -17 3126.31 99.5119   1
  -1   0  16 13536.2 223.312  -2
   1   0 -16 13536.2 223.312   1
  -1   0  15 5691.72 172.971  -2
   1   0 -15 5691.72 172.971   1
  -1   0  14 4709.11 246.378  -2
   1   0 -14 4709.11 246.378   1
  -1   0  13 2548.53 202.070  -2
   1   0 -13 2548.53 202.070   1
  -1   0  12 30492.6 542.255  -2
   1   0 -12 30492.6 542.255   1
  -1   0  11 10863.4 221.543  -2
   1   0 -11 10863.4 221.543   1
  -1   0  10 15048.3 237.371  -2
   1   0 -10 15048.3 237.371   1
  -1   0   9 11111.5 365.047  -2
   1   0  -9 11111.5 365.047   1
  -1   0   8 29941.1 342.595  -2
   1   0  -8 29941.1 342.595   1
  -1   0   7 42906.3 379.884  -2
   1   0  -7 42906.3 379.884   1
  -1   0   6 98096.8 525.964  -2
   1   0  -6 98096.8 525.964   1
  -1   0   5 33185.0 285.389  -2
   1   0  -5 33185.0 285.389   1
  -1   0   4 2792.79 87.6103  -2
   1   0  -4 2792.79 87.6103   1
  -1   0   3 18852.4 187.064  -2
   1   0  -3 18852.4 187.064   1
  -1   0   2 21779.8 278.776  -2
   1   0  -2 21779.8 278.776   1
  -1   0   1 27480.4 242.119  -2
   1   0  -1 27480.4 242.119   1
  -1   0   0 92431.8 407.479  -2
   1   0   0 92431.8 407.479   1
  -1   0  -1 273714. 686.896  -2
   1   0   1 273714. 686.896   1
  -1   0  -2 107964. 448.263  -2
   1   0   2 107964. 448.263   1
  -1   0 -11 3220.47 176.603  -2
   1   0  11 3220.47 176.603   1
   1   1 -17-11.8002 41.2099   1
   1   1 -16 869.279 66.9292   1
   1   1 -15 138.792 62.0356   1
   1   1 -14 53.4584 63.6610   1
   1   1 -13 320.413 99.7592   1
   1   1 -12 3074.33 156.903   1
   1   1 -11 495.231 53.8985   1
   1   1 -10-8.19606 40.5762   1
   1   1  -9 1195.23 68.6378   1
   1   1  -8 618.054 54.2862   1
   1   1  -7 8245.64 124.483   1
   1   1  -6 1861.61 64.9239   1
   1   1  -5 8.19848 33.6399   1
   1   1  -4 1309.72 46.7566   1
   1   1  -3 424.201 34.4576   1
   1   1  -2 1021.51 28.4149   1
   1   1  -1 2479.10 39.4254   1
   1   1   0 1864.85 41.6063   1
   1   1   1 81.6774 32.8117   1
   1   1  10 1820.53 116.415   1
   1   1  11-7.33969 83.8300   1
   1   1  12 72.9865 83.4407   1
   1   2 -17 3099.42 80.2389   1
   1   2 -16 134.123 55.7578   1
   1   2 -15 1372.64 83.7169   1
   1   2 -14 281.893 69.0020   1
   1   2 -13 1974.16 76.6506   1
   1   2 -12 885.424 91.6805   1
   1   2 -11 5057.81 103.135   1
   1   2 -10 129.943 53.3617   1
   1   2  -9 651.054 58.0920   1
   1   2  -8 9638.29 141.900   1
   1   2  -7 65503.2 326.250   1
   1   2  -6 63.9030 24.7369   1
   1   2  -5 16755.9 99.0153   1
   1   2  -4 77245.2 190.377   1
   1   2  -3 63582.8 155.635   1
   1   2  -2 41327.2 104.075   1
   1   2  -1 4965.75 56.9871   1
   1   2   0 214925. 550.482   1
   1   2   1 66939.1 297.999   1
   1   2  10 17025.0 276.396   1
   1   2  11 541.006 83.6137   1
   1   2  12 664.367 96.9731   1
   1   2  13 1169.85 101.981   1
   1   3 -17 1099.55 58.3883   1
  -1   3  15 2456.39 157.408  -2
   1   3 -16 2456.39 157.408   1
   1   3 -16 1536.04 106.032   1
  -1   3  14-24.4007 105.970  -2
   1   3 -15-24.4007 105.970   1
   1   3 -15 27.0504 61.6392   1
  -1   3  13 386.365 90.5373  -2
   1   3 -14 386.365 90.5373   1
   1   3 -14 201.996 89.9819   1
   1   3 -13 429.174 73.6201   1
   1   3 -12 816.054 79.4878   1
  -1   3  10 282.311 96.9280  -2
   1   3 -11 282.311 96.9280   1
   1   3 -11 239.416 48.6243   1
  -1   3   9 193.117 72.0830  -2
   1   3 -10 193.117 72.0830   1
   1   3 -10-22.0039 69.4782   1
  -1   3   8 1112.54 106.534  -2
   1   3  -9 1112.54 106.534   1
   1   3  -9 385.976 66.7859   1
  -1   3   7 974.097 101.998  -2
   1   3  -8 974.097 101.998   1
   1   3  -8 45.3455 55.7980   1
   1   3  -7 78.9013 37.9616   1
   1   3  -6 3181.46 70.7270   1
   1   3  -5 916.011 27.8990   1
   1   3  -4 585.334 22.9332   1
   1   3  -3 7526.61 63.8465   1
   1   3  -2 20556.6 89.6838   1
   1   3  -1 14659.6 169.844   1
   1   3   0 1784.73 44.8961   1
   1   3   1 18571.8 126.684   1
   1   3   9 1724.64 110.898   1
   1   3  10 612.645 90.3955   1
   1   3  11 157.643 78.7770   1
   1   3  12 540.336 91.9264   1
   1   3  13-25.6037 77.1935   1
   1   3  14 303.135 76.9606   1
   1   4 -16 7264.42 104.984   1
   1   4 -15 1944.37 74.3296   1
   1   4 -14 2124.36 77.9698   1
   1   4 -13 1677.97 93.6964   1
   1   4 -12 7294.21 150.344   1
   1   4 -11 2677.71 70.7370   1
   1   4 -10 2877.57 66.5654   1
   1   4  -9 292.103 51.1888   1
   1   4  -8 1838.15 70.4027   1
   1   4  -7 8076.60 113.859   1
   1   4  -6 151.605 33.5356   1
   1   4  -5 8404.77 96.6760   1
   1   4  -4 22459.4 128.351   1
   1   4  -3 25416.6 124.103   1
   1   4  -2 14612.2 91.0571   1
   1   4  -1 17840.6 110.952   1
   1   4   0 54968.5 225.315   1
   1   4   1 74230.2 265.763   1
   1   4   2 49025.1 422.529   1
   1   4   3 528.275 93.2819   1
   1   4   4 2352.06 139.342   1
   1   4   5 12226.1 283.880   1
   1   4   6 17450.6 357.236   1
   1   4   7 2478.43 173.257   1
   1   4   8 1185.77 151.004   1
   1   4   9 16308.9 231.086   1
   1   4  10 1126.75 98.3257   1
   1   4  11 64.3955 91.2508   1
   1   4  12 856.849 98.5468   1
   1   4  13 3655.25 138.790   1
   1   4  14-34.2301 63.4122   1
   1   5 -17 262.293 64.5518   1
   1   5 -16 505.070 49.8828   1
   1   5 -15 1585.41 70.4373   1
   1   5 -14 1028.33 65.9440   1
   1   5 -13 115.507 65.6525   1
   1   5 -12 355.684 69.0484   1
   1   5 -11 1383.19 50.8438   1
   1   5 -10 254.479 38.9549   1
   1   5  -9 1387.88 69.7055   1
   1   5  -8 1001.62 56.3561   1
   1   5  -7 306.921 39.0746   1
   1   5  -6 547.823 40.1381   1
   1   5  -5 8.27626 27.3019   1
   1   5  -4 23.3147 25.4500   1
   1   5  -3 3832.02 57.6481   1
   1   5  -2 1450.65 42.2976   1
   1   5  -1 375.132 35.8754   1
   1   5   0 6291.03 90.2431   1
   1   5   1 1313.87 51.0586   1
   1   5   2 22.1792 78.8836   1
   1   5   3 2335.37 136.401   1
   1   5   4 1745.14 136.191   1
   1   5   5-20.4672 98.6016   1
   1   5   6 5122.87 226.928   1
   1   5   7 142.559 115.767   1
   1   5   8 465.874 140.448   1
   1   5   9 1007.69 181.538   1
   1   5  10 1949.07 144.372   1
   1   5  11 5.91887 89.8400   1
   1   5  12 79.8482 83.2378   1
   1   5  13 365.808 81.4339   1
   1   5  14 691.004 72.6209   1
   1   6 -17 35.6370 60.0124   1
   1   6 -16 966.709 99.8324   1
   1   6 -15 1690.69 91.4896   1
   1   6 -14 4015.74 96.7243   1
   1   6 -13 40.9379 66.6480   1
   1   6 -12 1069.85 75.2805   1
   1   6 -11 7177.68 119.610   1
   1   6 -10 8783.26 102.208   1
   1   6  -9 553.827 95.7303   1
   1   6  -8 5337.80 141.222   1
   1   6  -7 2197.71 62.7022   1
   1   6  -6 2039.37 56.6902   1
   1   6  -5 2110.73 53.8793   1
   1   6  -4 1161.04 42.7466   1
   1   6  -3 30.3210 27.5562   1
   1   6  -2 879.841 68.8524   1
   1   6  -1 12899.1 130.910   1
   1   6   0 3494.27 78.9307   1
   1   6   1 16710.3 151.203   1
   1   6   2 26891.7 373.074   1
   1   6   3 5507.98 202.910   1
   1   6   4 192.553 126.996   1
   1   6   5 5272.05 238.793   1
   1   6   6 21508.8 466.154   1
   1   6   7 15413.5 416.149   1
   1   6   8 3054.88 239.576   1
   1   6   9 8853.60 357.562   1
   1   6  10 8739.83 227.687   1
   1   6  11 9619.21 223.071   1
   1   6  12 2438.13 126.917   1
   1   6  13 1495.92 94.2549   1
   1   6  14 6241.58 122.902   1
   1   7 -17 258.405 64.7159   1
   1   7 -16 81.7921 76.7999   1
   1   7 -15-44.7258 91.2082   1
   1   7 -14 38.3432 66.4339   1
   1   7 -13 228.744 94.5970   1
   1   7 -12 74.0098 61.7708   1
   1   7 -11 912.836 62.2697   1
   1   7 -10 37.6140 42.1574   1
   1   7  -9-3.60409 45.1633   1
   1   7  -8 22.3626 52.8495   1
   1   7  -7 1543.81 85.3716   1
   1   7  -6 5.29582 50.8113   1
   1   7  -5 610.918 72.0352   1
   1   7  -4 5217.42 80.4701   1
   1   7  -3 7655.60 103.548   1
   1   7  -2 3431.22 113.134   1
   1   7  -1 1515.12 78.6851   1
   1   7   0 10734.0 170.146   1
   1   7   1 4498.12 169.901   1
   1   7   2 55.4464 93.7791   1
   1   7   3 109.052 94.9939   1
   1   7   4 1477.61 140.895   1
   1   7   5 624.694 130.637   1
   1   7   6 4.64477 64.6136   1
   1   7   7 793.453 86.0717   1
   1   7   8 1186.51 186.238   1
   1   7  10 1353.36 124.596   1
   1   7  11 55.8419 84.4365   1
   1   7  12 293.056 81.4373   1
   1   7  13 42.2875 54.3863   1
   1   7  14 331.239 46.8677   1
  -1   8  14 8086.25 152.470  -2
   1   8 -17 8086.25 152.470   1
   1   8 -16 633.145 91.9313   1
   1   8 -15 135.545 91.6619   1
   1   8 -14 361.159 107.030   1
   1   8 -13 1139.54 66.4585   1
   1   8 -12 2907.09 100.954   1
   1   8 -11-6.81685 58.5915   1
   1   8 -10 766.401 63.7256   1
   1   8  -9 1460.99 55.4168   1
   1   8  -8 1912.99 56.1622   1
   1   8  -7 2076.02 100.826   1
   1   8  -6-8.42002 47.9902   1
   1   8  -5 612.483 63.8679   1
   1   8  -4 8834.09 202.409   1
   1   8  -3 14886.6 245.173   1
   1   8  -2 14307.2 227.077   1
   1   8  -1 6164.46 148.598   1
   1   8   5 44111.3 384.384   1
   1   8   6 17528.5 260.154   1
   1   8   7 17.9991 89.1730   1
   1   8  10 4837.98 172.940   1
   1   8  11-64.9563 81.1137   1
   1   8  12 2641.64 109.201   1
   1   8  13 2597.59 85.2651   1
   1   9 -16 406.121 78.5578   1
   1   9 -15 110.409 86.7960   1
   1   9 -14 130.031 93.0061   1
   1   9 -13 182.908 62.2797   1
   1   9 -12 1069.43 81.3727   1
   1   9 -11-1.34236 63.4940   1
   1   9 -10 97.0198 50.7371   1
   1   9  -9 1032.74 52.8916   1
   1   9  -8 11.5904 49.2367   1
   1   9  -7 317.862 50.2422   1
   1   9  -6 230.390 52.1155   1
   1   9  -5 273.062 71.5245   1
   1   9  -4 785.522 85.9293   1
   1   9  -3 441.023 69.7667   1
   1   9  -2 128.447 61.3479   1
   1   9   2 1578.44 93.6876   1
   1   9   3 761.268 81.4807   1
   1   9   4 79.4166 76.1537   1
   1   9   5 2483.27 122.699   1
   1   9   6 1579.88 122.170   1
   1   9   7 1373.07 109.792   1
   1   9   8 343.847 83.6495   1
   1   9   9 1386.99 122.229   1
   1   9  10 93.9743 82.3060   1
   1   9  11 167.619 69.6728   1
   1   9  12-5.44326 51.6663   1
   1   9  13 429.947 44.8358   1
   1  10 -16 586.994 77.2457   1
   1  10 -15 952.907 98.1239   1
   1  10 -14 290.734 91.0818   1
   1  10 -13 132.463 60.7797   1
   1  10 -12 5676.91 127.557   1
   1  10 -11 5365.05 127.580   1
   1  10 -10 131.141 46.2611   1
   1  10  -9 8896.46 112.192   1
   1  10  -8 10354.9 109.520   1
   1  10  -7 4018.42 89.9005   1
   1  10  -6 347.048 58.3671   1
   1  10  -5 5362.83 110.886   1
   1  10  -4 14492.8 162.715   1
   1  10  -3 8883.44 221.080   1
   1  10  -2 2546.88 104.772   1
   1  10  -1 5863.07 140.775   1
   1  10   0 6075.14 147.748   1
   1  10   1 13.2741 64.2595   1
   1  10   2 288.697 73.3457   1
   1  10   3 3969.55 140.012   1
   1  10   4 3222.45 133.857   1
   1  10   5 376.877 86.0056   1
   1  10   6 4840.52 161.491   1
   1  10   7 5044.51 161.515   1
   1  10   8 251.577 85.1118   1
   1  10   9 487.368 95.1193   1
   1  10  10 2595.70 115.875   1
   1  10  11 1344.56 82.1369   1
   1  10  12 64.8903 42.5165   1
   1  11 -15 21.4297 73.5078   1
   1  11 -14 427.559 93.6163   1
   1  11 -13 269.914 62.5802   1
   1  11 -12 445.116 67.1406   1
   1  11 -11 90.1094 46.4226   1
   1  11 -10 156.298 48.2886   1
   1  11  -9 107.750 46.3363   1
   1  11  -8 279.709 48.0745   1
   1  11  -7 151.287 76.0965   1
   1  11  -6 163.265 58.6343   1
   1  11  -5 924.482 69.4030   1
   1  11  -4 1201.82 71.3348   1
   1  11  -3 871.399 56.2173   1
   1  11  -2 680.207 79.8847   1
   1  11  -1 2346.14 109.649   1
   1  11   0 542.544 80.0982   1
   1  11   1 16.0470 72.7903   1
   1  11   2 64.2184 77.5721   1
   1  11   3 1084.12 98.9066   1
   1  11   4 166.135 84.5815   1
   1  11   5 0.80112 78.0523   1
   1  11   6 460.643 90.1846   1
   1  11   7 783.426 91.4636   1
   1  11   8 216.438 86.2977   1
   1  11   9 180.639 71.6271   1
   1  11  10 56.9838 56.7370   1
   1  11  11 75.0153 44.2073   1
   1  12 -15 602.387 75.1083   1
   1  12 -14 1411.67 100.072   1
   1  12 -13 5725.71 168.520   1
   1  12 -12 251.052 61.5679   1
   1  12 -11 2977.08 73.1482   1
   1  12 -10 9951.86 117.635   1
   1  12  -9 4582.00 88.9287   1
   1  12  -8 588.731 61.0221   1
   1  12  -7 487.986 59.6172   1
   1  12  -6 8911.83 187.359   1
   1  12  -5 7000.29 162.826   1
   1  12  -4 737.830 59.0839   1
   1  12  -3 1868.19 71.6302   1
   1  12  -2 1910.59 105.622   1
   1  12  -1 442.377 81.1302   1
   1  12   0 253.308 79.2388   1
   1  12   1 21.1644 74.5263   1
   1  12   2 28.2472 75.1523   1
   1  12   3 99.4598 78.9250   1
   1  12   4 3566.48 145.002   1
   1  12   5 1337.42 109.686   1
   1  12   6 208.072 79.9141   1
   1  12   7 3895.50 133.559   1
   1  12   8 1760.77 101.494   1
   1  12   9 1294.48 78.2778   1
   1  12  10 222.915 46.3208   1
   1  13 -13 387.962 77.8055   1
   1  13 -12 50.0440 52.0042   1
   1  13 -11 22.2633 40.3225   1
   1  13 -10 718.408 60.5020   1
   1  13  -9 185.225 54.4319   1
   1  13  -8 336.029 56.9719   1
   1  13  -7 23.3166 50.6853   1
   1  13  -6 164.142 54.0818   1
   1  13  -5 13.2204 49.1047   1
   1  13  -4 159.005 49.6438   1
   1  13  -3 28.3526 69.1111   1
   1  13  -2 476.899 80.1969   1
   1  13  -1 228.149 50.9956   1
   1  13   0 73.4551 49.3730   1
   1  13   1 126.002 78.2076   1
   1  13   2 257.848 84.7251   1
   1  13   3 77.5419 79.2988   1
   1  13   4 135.854 78.8785   1
   1  13   5 216.170 77.5191   1
   1  13   6 38.8616 67.5970   1
   1  13   7 105.064 65.3762   1
   1  13   8 241.714 55.2025   1
   1  13   9 41.7203 40.6085   1
   1  14 -11 33.7233 41.5525   1
   1  14 -10 578.337 53.6887   1
   1  14  -9 1413.66 66.3240   1
   1  14  -8 994.317 64.0708   1
   1  14  -7 600.315 57.9506   1
   1  14  -6 757.131 61.9434   1
   1  14  -5 4807.13 99.6815   1
   1  14  -4 5646.63 84.8430   1
   1  14  -3 25.3174 49.2488   1
   1  14  -2 1056.58 86.8164   1
   1  14  -1 3140.22 84.3409   1
   1  14   0 1145.42 62.7927   1
   1  14   1 252.573 79.0448   1
   1  14   2 349.214 84.0798   1
   1  14   3 1538.03 101.587   1
   1  14   4 33.7110 69.8557   1
   1  14   5 320.224 48.9860   1
   1  14   6 747.345 69.1093   1
   1  14   7 50.0858 45.6620   1
   1  15 -11-22.0571 45.4398   1
   1  15 -10 120.002 44.4078   1
   1  15  -9 74.0848 43.9051   1
   1  15  -8 63.0127 44.6776   1
   1  15  -7 63.3648 45.0074   1
   1  15  -6 128.675 46.9781   1
   1  15  -5 134.643 46.0042   1
   1  15  -4 210.233 66.7524   1
   1  15  -3 53.4776 43.0538   1
   1  15  -2 149.855 45.7847   1
   1  15  -1 98.8273 45.1473   1
   1  15   0 53.6069 72.3783   1
   1  15   1 96.1068 68.8257   1
   1  15   2 175.857 72.0302   1
   1  15   3-2.30525 64.7420   1
   1  15   4-4.93087 30.8350   1
   1  15   5 140.409 43.0329   1
   1  16 -10 24.2657 43.3597   1
   1  16  -9 34.1194 44.9371   1
   1  16  -8 71.5917 35.8572   1
   1  16  -7 582.976 43.8414   1
   1  16  -6 129.810 34.3549   1
   1  16  -5 464.494 66.6530   1
   1  16  -4 3299.36 100.652   1
   1  16  -3 1616.11 57.1644   1
   1  16  -2 14.1346 36.7519   1
   1  16  -1 1264.40 83.1976   1
   1  16   0 1973.06 94.1316   1
   1  16   1 1529.04 83.4916   1
   1  16   2 206.843 44.4893   1
   1  16   3 999.470 69.2812   1
   1  17  -7-10.8906 39.5877   1
   1  17  -6 41.1828 42.0290   1
   1  17  -5 11.0236 32.0822   1
   1  17  -4 42.9182 32.2106   1
   1  17  -3 58.4302 32.4028   1
   1  17  -2 2.61819 57.1593   1
   1  17  -1-31.0734 57.2471   1
   1  17   0 108.555 55.2727   1
   1  17   1 35.0211 44.6325   1
   2 -14  -6 14.9352 38.5839   1
   2 -14  -5 28.9300 46.5587   1
   2 -14  -4 2131.68 79.9510   1
   2 -14  -3 3315.07 95.6990   1
   2 -13  -8 158.681 42.4284   1
   2 -13  -7 618.276 57.8670   1
   2 -13  -6 5.10577 49.1351   1
   2 -13  -5 10.1562 53.3843   1
   2 -13  -4 580.445 66.1968   1
   2 -13  -3 357.680 65.6601   1
   2 -13  -2-9.04862 59.4708   1
   2 -13   6 287.299 92.4688   1
   2 -13   7 129.897 76.9004   1
   2 -12 -10 1814.32 61.1145   1
   2 -12  -9 2293.12 80.3417   1
   2 -12  -8 468.136 64.7687   1
   2 -12  -7 149.892 60.5785   1
   2 -12  -6 2250.11 103.944   1
   2 -12  -5 13277.1 213.153   1
   2 -12  -4 3936.33 132.911   1
   2 -12  -3 121.590 68.5831   1
   2 -12   3 8515.05 226.441   1
   2 -12   4 9773.12 233.287   1
   2 -12   5 724.375 105.537   1
   2 -12   6 988.571 111.859   1
   2 -12   7 780.616 106.549   1
   2 -12   8 110.528 85.7591   1
   2 -11 -11 20.4692 36.2691   1
   2 -11 -10 32.0361 48.2623   1
   2 -11  -9-1.50919 54.6156   1
   2 -11  -8 765.340 78.2948   1
   2 -11  -7 556.829 74.3326   1
   2 -11  -6 74.1531 66.3313   1
   2 -11  -5 159.803 72.2515   1
   2 -11  -4 996.103 90.0644   1
   2 -11   1 33.6203 94.6901   1
   2 -11   2 763.923 108.676   1
   2 -11   3 498.109 101.596   1
   2 -11   4 320.069 97.2737   1
   2 -11   5 810.516 101.989   1
   2 -11   6 1017.83 109.881   1
   2 -11   7-12.7923 84.9121   1
   2 -11   8 52.8502 83.6188   1
   2 -10 -12 75.4845 38.0529   1
   2 -10 -11 1380.52 72.9165   1
   2 -10 -10 1885.72 93.6442   1
   2 -10  -9 1076.70 86.8194   1
   2 -10  -8 14.9888 69.1536   1
   2 -10  -7 174.595 72.4650   1
   2 -10  -6 3808.55 139.267   1
   2 -10  -5 11.8189 70.6077   1
   2 -10   0 3300.38 149.945   1
   2 -10   1 8051.91 205.709   1
   2 -10   2 910.726 102.359   1
   2 -10   3 2958.94 136.877   1
   2 -10   4 15580.7 267.547   1
   2 -10   5 4537.53 162.948   1
   2 -10   6 542.913 97.7134   1
   2 -10   7 3004.48 138.701   1
   2 -10   8 1392.07 114.616   1
   2  -9 -13 773.195 47.6699   1
   2  -9 -12 463.504 56.2733   1
   2  -9 -11 45.2350 56.4602   1
   2  -9 -10 30.7152 64.8189   1
   2  -9  -9 1905.55 108.065   1
   2  -9  -8 431.703 82.2868   1
   2  -9  -7 515.442 85.9331   1
   2  -9  -6 459.743 81.6885   1
   2  -9  -1 42.1643 82.2725   1
   2  -9   5 2096.39 116.058   1
   2  -9   6 5.77528 81.5959   1
   2  -9   7 188.925 80.8155   1
   2  -9   8 97.1623 82.1628   1
   2  -9   9 210.166 84.7980   1
   2  -8 -13 4317.08 98.8482   1
   2  -8 -12 8270.44 156.621   1
   2  -8 -11 1424.77 92.8669   1
   2  -8 -10 3.69089 72.5686   1
   2  -8  -9 1630.49 107.086   1
   2  -8  -8 10620.2 219.019   1
   2  -8  -7 9965.30 218.999   1
   2  -8   7 1499.14 108.953   1
   2  -8   8 6223.86 182.233   1
   2  -8   9 2914.09 143.865   1
   2  -7 -14 49.4142 41.2490   1
   2  -7 -13 109.684 50.9647   1
   2  -7 -12 186.016 65.4253   1
   2  -7 -11 221.545 73.9305   1
   2  -7 -10 384.014 80.2243   1
   2  -7  -9 2155.17 81.7746   1
   2  -7  -8 107.825 54.8462   1
   2  -7  -7 61.2522 53.5372   1
   2  -7  -6 2788.86 128.862   1
   2  -7   8 98.0908 83.6107   1
   2  -7   9 97.0729 83.4462   1
   2  -7  10 211.161 94.5256   1
   2  -6 -14 2636.50 82.2915   1
   2  -6 -13 1170.11 78.4089   1
   2  -6 -12 38.4533 44.9025   1
   2  -6 -11 15.0182 49.3905   1
   2  -6 -10 1229.89 72.3058   1
   2  -6  -9 7.95624 54.2349   1
   2  -6  -8 586.590 63.3640   1
   2  -6  -7 1050.81 97.5414   1
   2  -6   4 9305.81 159.665   1
   2  -6   9 31.5289 79.2902   1
   2  -6  10 1366.25 107.430   1
   2  -5 -15 53.0110 42.0906   1
   2  -5 -14 395.911 42.6419   1
   2  -5 -13 789.203 53.7328   1
   2  -5 -12 257.420 53.5022   1
   2  -5 -11 415.178 56.3982   1
   2  -5 -10 781.353 65.9066   1
   2  -5  -9 176.350 55.6421   1
   2  -5  -8 647.455 61.1648   1
   2  -5   4 5439.31 118.095   1
   2  -5  10 98.0544 79.5977   1
   2  -5  11 154.157 88.8105   1
   2  -4 -15 133.216 37.4060   1
   2  -4 -14 1501.79 60.0771   1
   2  -4 -13 5978.13 111.046   1
   2  -4 -12 198.852 55.7920   1
   2  -4 -11 33.8026 53.5247   1
   2  -4 -10 926.795 53.5995   1
   2  -4  -9 9847.86 118.204   1
   2  -4  -8 9348.57 139.473   1
   2  -4   3 31803.1 270.668   1
   2  -4   4 59814.5 351.381   1
   2  -4   5 54355.9 309.954   1
   2  -4  10 6239.79 169.788   1
   2  -4  11 2350.58 125.957   1
   2  -4  12 26456.3 338.331   1
   2  -3 -16 160.877 47.4841   1
   2  -3 -15 128.195 42.4219   1
   2  -3 -14 1.49537 69.1068   1
   2  -3 -13 298.924 81.9226   1
  -2  -3  13 242.400 100.021  -2
   2  -3 -12 242.400 100.021   1
   2  -3 -12 79.6474 82.5719   1
  -2  -3  12 1587.39 85.6342  -2
   2  -3 -11 1587.39 85.6342   1
   2  -3 -11 321.899 89.9412   1
  -2  -3  11 1535.65 122.336  -2
   2  -3 -10 1535.65 122.336   1
   2  -3 -10 744.659 64.5281   1
  -2  -3  10 1848.95 123.379  -2
   2  -3  -9 1848.95 123.379   1
   2  -3  -9 129.051 49.4968   1
   2  -3   3 1033.32 62.4968   1
   2  -3   4 1693.29 70.3138   1
   2  -3   5 515.393 46.8165   1
   2  -3  10 797.588 92.8710   1
   2  -3  11 219.765 89.7275   1
   2  -3  12 1906.96 118.170   1
   2  -3  13 722.114 94.1825   1
   2  -2 -16 541.501 41.1218   1
   2  -2 -15 2414.21 75.8028   1
   2  -2 -14 286.339 84.2233   1
   2  -2 -13 948.207 106.137   1
   2  -2 -12 782.874 69.7855   1
   2  -2 -11 7319.46 142.832   1
   2  -2 -10 68.3809 51.0358   1
   2  -2  -9 724.590 62.2331   1
   2  -2  -2 18539.2 153.413   1
   2  -2   2 234.125 47.8456   1
   2  -2   3 2385.62 78.9034   1
   2  -2   4 9486.40 141.551   1
  -2  -2  -9 6230.24 174.486  -2
   2  -2  10 6230.24 174.486   1
  -2  -2 -10 68438.7 512.704  -2
   2  -2  11 68438.7 512.704   1
  -2  -2 -11 26144.3 337.541  -2
   2  -2  12 26144.3 337.541   1
   2  -2  13 39.0708 82.1457   1
   2  -1 -16 14.8977 37.4448   1
   2  -1 -15 265.372 50.6256   1
   2  -1 -14 305.251 87.3797   1
   2  -1 -13 292.766 90.5870   1
   2  -1 -12 213.639 61.0058   1
   2  -1 -11 692.889 68.4905   1
   2  -1 -10 430.092 59.3476   1
   2  -1  -9 9.16811 38.4131   1
   2  -1  -2 63.0588 37.4844   1
   2  -1   0 417.433 50.9089   1
   2  -1   1 82.3648 42.2023   1
   2  -1   2 285.401 45.7865   1
   2  -1   3 25.2052 36.6235   1
   2  -1  10 255.546 79.1706   1
   2  -1  11 2775.41 139.194   1
   2  -1  12 85.2830 85.0301   1
   2  -1  13 129.251 78.9730   1
   2  -1  14 212.946 78.6489   1
  -2   0  17 1229.61 97.3097  -2
   2   0 -17 1229.61 97.3097   1
  -2   0  16 3158.12 166.830  -2
   2   0 -16 3158.12 166.830   1
  -2   0  15 271.183 73.1085  -2
   2   0 -15 271.183 73.1085   1
  -2   0  14 4138.67 147.360  -2
   2   0 -14 4138.67 147.360   1
  -2   0  13 104.617 81.0387  -2
   2   0 -13 104.617 81.0387   1
  -2   0  12 36.5949 80.1044  -2
   2   0 -12 36.5949 80.1044   1
  -2   0  11 1787.92 118.246  -2
   2   0 -11 1787.92 118.246   1
  -2   0  10 11161.4 176.363  -2
   2   0 -10 11161.4 176.363   1
  -2   0   8 7395.58 285.335  -2
   2   0  -8 7395.58 285.335   1
  -2   0   7 44954.9 629.502  -2
   2   0  -7 44954.9 629.502   1
  -2   0   6 85596.8 836.002  -2
   2   0  -6 85596.8 836.002   1
  -2   0   5 13391.4 332.630  -2
   2   0  -5 13391.4 332.630   1
  -2   0   4 7987.59 257.432  -2
   2   0  -4 7987.59 257.432   1
  -2   0   3 68186.9 683.147  -2
   2   0  -3 68186.9 683.147   1
  -2   0   2 332662. 1168.99  -2
   2   0  -2 332662. 1168.99   1
  -2   0   1 72179.1 396.220  -2
   2   0  -1 72179.1 396.220   1
  -2   0   0 36.2888 43.4908  -2
   2   0   0 36.2888 43.4908   1
  -2   0  -1 13357.9 229.988  -2
   2   0   1 13357.9 229.988   1
  -2   0  -2 175614. 821.199  -2
   2   0   2 175614. 821.199   1
  -2   0  -3 94971.7 612.418  -2
   2   0   3 94971.7 612.418   1
  -2   0 -10 394.517 114.044  -2
   2   0  10 394.517 114.044   1
  -2   0 -11 49629.2 606.773  -2
   2   0  11 49629.2 606.773   1
  -2   0 -12 4267.34 209.070  -2
   2   0  12 4267.34 209.070   1
  -2   0 -13 748.818 127.846  -2
   2   0  13 748.818 127.846   1
  -2   0 -14 817.782 124.647  -2
   2   0  14 817.782 124.647   1
   2   1 -17 146.036 54.4024   1
   2   1 -16 1114.99 96.5082   1
   2   1 -15 739.051 61.5201   1
   2   1 -14 23.8434 56.1269   1
   2   1 -13 17.2329 46.5089   1
   2   1 -12 106.788 60.0502   1
   2   1 -11 1054.35 76.8711   1
   2   1 -10-9.04343 40.9565   1
   2   1  -9 706.321 94.4599   1
   2   1  -8 262.421 80.1347   1
   2   1  -7 468.189 47.4764   1
   2   1  -6 68.2529 37.5580   1
   2   1  -5 114.128 39.3979   1
   2   1  -4 22.1677 37.1654   1
   2   1  -3 145.455 30.7321   1
   2   1  -2 907.717 41.0991   1
   2   1  -1 739.608 57.3541   1
   2   1   0 326.571 48.6817   1
   2   1   1 54.2450 44.0160   1
   2   1   2 17.1408 40.3976   1
   2   1   9 118.370 75.3780   1
   2   1  10 330.352 88.2771   1
   2   1  11 1031.45 110.245   1
   2   1  12 46.7575 85.3017   1
   2   1  13 66.8582 82.0515   1
   2   1  14 53.3346 70.5317   1
   2   1  15 260.222 68.2517   1
   2   2 -17 410.475 64.8399   1
   2   2 -16 2269.49 121.096   1
   2   2 -15 4423.06 167.963   1
   2   2 -14 1761.48 133.327   1
   2   2 -13 1121.94 65.5365   1
   2   2 -12 5828.12 111.307   1
   2   2 -11 1824.56 71.7985   1
   2   2 -10 5808.19 79.5133   1
   2   2  -9 346.669 87.4435   1
   2   2  -8 7953.89 217.186   1
   2   2  -7 9225.61 222.280   1
   2   2  -6 61.1063 38.9853   1
   2   2  -5 1624.54 63.5257   1
   2   2  -4 1500.02 50.4670   1
   2   2  -3 46215.1 217.149   1
   2   2  -2 3133.96 65.9941   1
   2   2  -1 3243.64 75.3650   1
   2   2   0 677.782 56.5817   1
   2   2   9 291.027 85.9920   1
   2   2  10 24459.3 334.591   1
   2   2  11 12255.1 247.686   1
   2   2  12 742.053 101.526   1
   2   2  13 864.909 99.1438   1
   2   2  14 3225.13 125.766   1
   2   2  15 22.3946 56.3693   1
  -2   3  16 1020.09 96.7584  -2
   2   3 -17 1020.09 96.7584   1
  -2   3  15 218.158 104.733  -2
   2   3 -16 218.158 104.733   1
  -2   3  14 657.169 130.971  -2
   2   3 -15 657.169 130.971   1
  -2   3  13 539.854 90.4247  -2
   2   3 -14 539.854 90.4247   1
  -2   3  12 189.422 87.6721  -2
   2   3 -13 189.422 87.6721   1
  -2   3  11 1539.94 84.6129  -2
   2   3 -12 1539.94 84.6129   1
  -2   3  10 1546.50 82.2606  -2
   2   3 -11 1546.50 82.2606   1
   2   3 -11 571.872 121.013   1
  -2   3   9 1376.33 59.2392  -2
   2   3 -10 1376.33 59.2392   1
  -2   3   8 1256.76 132.323  -2
   2   3  -9 1256.76 132.323   1
  -2   3   7 2674.31 151.210  -2
   2   3  -8 2674.31 151.210   1
  -2   3   6 783.075 112.061  -2
   2   3  -7 783.075 112.061   1
   2   3  -6 58.2243 35.4161   1
   2   3  -5 80.9614 30.4474   1
   2   3  -4 280.817 36.7762   1
   2   3  -3 547.914 38.9867   1
   2   3  -2 2352.05 68.1514   1
   2   3  -1 1396.72 56.2955   1
   2   3   0 87.7188 63.9848   1
   2   3   8 31.4795 74.7752   1
   2   3   9 170.981 84.7537   1
   2   3  10 1312.27 98.9154   1
   2   3  11 183.901 95.7217   1
   2   3  12 10.0061 82.0849   1
   2   3  13 160.034 79.6968   1
   2   3  14 660.393 77.2814   1
   2   3  15 185.750 53.1996   1
   2   4 -17 4618.50 124.945   1
   2   4 -16 3374.55 137.194   1
   2   4 -15 12.5413 55.3747   1
   2   4 -14 490.028 72.2575   1
   2   4 -13 3734.02 94.9313   1
   2   4 -12 3533.34 92.5887   1
   2   4 -11 1724.43 53.3308   1
   2   4 -10 2221.67 56.9051   1
   2   4  -9 3102.62 73.7664   1
   2   4  -8 1308.00 80.7312   1
   2   4  -7 56.7188 50.9589   1
   2   4  -6 823.143 67.4115   1
   2   4  -5 92.8073 47.5424   1
   2   4  -4 2388.39 86.6257   1
   2   4  -3 542.349 58.0682   1
   2   4  -2 2461.00 109.970   1
   2   4  -1 2564.26 112.877   1
   2   4   0 1546.17 94.7712   1
   2   4   2 54.8507 60.5504   1
   2   4   7 1362.60 140.250   1
   2   4   8 7038.80 156.224   1
   2   4   9 1159.33 100.011   1
   2   4  10 15179.3 274.479   1
   2   4  11 458.119 100.217   1
   2   4  12 641.175 97.6681   1
   2   4  13 226.166 73.4944   1
   2   4  14 2599.72 103.388   1
   2   4  15 3131.71 86.7246   1
   2   5 -16 363.071 54.4857   1
   2   5 -15-4.20903 57.0024   1
   2   5 -14 38.1493 62.2963   1
   2   5 -13 477.336 73.2410   1
   2   5 -12 1824.03 74.4147   1
   2   5 -11 28.4022 44.7331   1
   2   5 -10 1728.17 57.2871   1
   2   5  -9 1436.09 45.4023   1
   2   5  -8 447.767 63.2450   1
   2   5  -7-23.1478 49.6325   1
   2   5  -6 98.7282 50.7372   1
   2   5  -5 182.008 52.5220   1
   2   5  -4 1008.15 72.7136   1
   2   5  -3 1878.46 104.280   1
   2   5  -2 2592.55 113.467   1
   2   5  -1 491.540 75.0768   1
   2   5   0 422.473 69.7809   1
   2   5   4 67.1057 88.8102   1
   2   5   5 82.5435 89.3304   1
   2   5   6 21.9455 96.9362   1
   2   5   7 19.1173 63.8492   1
   2   5   8 132.108 73.5225   1
   2   5   9 112.440 83.1426   1
   2   5  10 1114.58 116.313   1
   2   5  11 25.3310 87.4248   1
   2   5  12 299.117 85.1058   1
   2   5  13 168.774 69.7847   1
   2   5  14 197.301 56.0681   1
   2   6 -16 747.136 59.4576   1
   2   6 -15 2400.86 90.6626   1
  -2   6  12 3923.88 176.973  -2
   2   6 -14 3923.88 176.973   1
   2   6 -14 5704.59 191.800   1
   2   6 -13 34.7813 66.4048   1
   2   6 -12 1136.07 65.9750   1
   2   6 -11 2655.97 81.6570   1
   2   6 -10 924.059 44.5209   1
   2   6  -9 119.809 46.1900   1
   2   6  -8 258.340 42.6657   1
   2   6  -7 8113.87 171.821   1
   2   6  -6 4955.16 131.850   1
   2   6  -5 396.931 58.1220   1
   2   6  -4 1.71623 66.8064   1
   2   6  -3 12571.2 235.056   1
   2   6  -2 32189.1 353.813   1
   2   6  -1 18647.7 268.719   1
   2   6   0 445.858 70.6159   1
   2   6   6 7240.78 173.475   1
   2   6   7 6103.57 185.557   1
   2   6   8 3405.73 153.532   1
   2   6   9 11618.9 243.843   1
   2   6  10 507.219 101.223   1
   2   6  11 251.183 88.7802   1
   2   6  12 64.6195 75.0623   1
   2   6  13 965.469 79.2099   1
   2   6  14 459.501 53.6023   1
   2   7 -16 271.309 70.3123   1
   2   7 -15 419.782 62.2946   1
   2   7 -14 112.199 61.8846   1
   2   7 -13 2614.32 102.911   1
   2   7 -12 76.9160 62.8770   1
   2   7 -11 1483.92 128.489   1
   2   7 -10 439.531 51.6272   1
   2   7  -9 1231.76 48.2272   1
   2   7  -8-3.40390 33.0507   1
   2   7  -7 9.19213 37.2605   1
   2   7  -6 80.4201 53.0794   1
   2   7  -5 69.0672 67.7448   1
   2   7  -4 436.995 78.9657   1
   2   7  -3 2542.94 123.374   1
   2   7  -2 802.331 80.7563   1
   2   7  -1 23.0281 59.9612   1
   2   7   5 74.3689 78.6828   1
   2   7   6 369.418 92.9661   1
   2   7   7 803.861 74.3696   1
   2   7   8 683.039 103.898   1
   2   7   9 7.62693 90.8752   1
   2   7  10 28.3249 86.6920   1
   2   7  11 1242.86 103.628   1
   2   7  12 146.723 67.4408   1
   2   7  13 22.7639 48.7673   1
   2   8 -16 47.1298 68.3950   1
   2   8 -15 1552.22 109.249   1
   2   8 -14 2505.22 137.898   1
   2   8 -13 1039.18 120.183   1
   2   8 -12 484.082 113.807   1
   2   8 -11 4691.67 121.771   1
   2   8 -10 8693.18 111.065   1
   2   8  -9 2286.58 59.2326   1
   2   8  -8 348.273 39.8739   1
   2   8  -7 1274.74 47.2949   1
   2   8  -6 2121.56 55.4479   1
   2   8  -5 2218.45 130.648   1
   2   8  -4 182.813 71.7146   1
   2   8  -3 75.2888 65.7610   1
   2   8  -2 936.485 94.1036   1
   2   8   3 7566.48 170.335   1
   2   8   4 3911.63 138.956   1
   2   8   5 4837.17 160.584   1
   2   8   6 663.686 96.9567   1
   2   8   7 9643.91 156.504   1
   2   8   8 8521.52 212.385   1
   2   8   9-3.76569 87.0824   1
   2   8  10 127.803 77.8624   1
   2   8  11 2019.60 107.613   1
   2   8  12 2366.60 95.0282   1
   2   8  13 493.137 49.8625   1
   2   9 -16-13.7808 64.0560   1
   2   9 -15 58.2863 75.1251   1
   2   9 -14 117.443 88.6880   1
   2   9 -13 1748.14 131.201   1
   2   9 -12 292.565 105.210   1
   2   9 -11 1184.39 59.0794   1
   2   9 -10 72.6417 47.6853   1
   2   9  -9 679.893 51.9332   1
   2   9  -8 262.937 42.4135   1
   2   9  -7 53.0960 39.3045   1
   2   9  -6 321.062 40.9590   1
   2   9  -5 185.556 38.1432   1
   2   9  -4 507.474 43.4812   1
   2   9  -3 754.039 55.9172   1
   2   9  -2 307.189 62.9389   1
   2   9  -1 614.170 76.2047   1
   2   9   0 723.512 79.3826   1
   2   9   1 68.9746 67.8061   1
   2   9   2 25.0961 69.3667   1
   2   9   3 14.2691 75.3504   1
   2   9   4-13.2313 81.4142   1
   2   9   5-8.58684 79.3568   1
   2   9   6 57.2604 85.6607   1
   2   9   7 101.349 87.5705   1
   2   9   8 133.090 85.9154   1
   2   9   9-12.1726 75.1345   1
   2   9  10 356.134 76.3356   1
   2   9  11 238.159 62.6387   1
   2   9  12 185.510 48.6621   1
   2  10 -15 984.774 88.8997   1
   2  10 -14 1056.47 104.306   1
   2  10 -13 1393.16 122.111   1
   2  10 -12 8411.90 223.652   1
   2  10 -11 2337.34 68.6221   1
   2  10 -10 1027.34 58.3342   1
   2  10  -9 10268.5 123.122   1
   2  10  -8 4760.61 90.4948   1
   2  10  -7 1136.73 59.6370   1
   2  10  -6-7.49549 40.6542   1
   2  10  -5 6925.70 100.634   1
   2  10  -4 7237.18 99.6833   1
   2  10  -3 657.527 54.1509   1
   2  10  -2 3497.64 85.4046   1
   2  10  -1 2086.61 73.0193   1
   2  10   0 439.239 53.7736   1
   2  10   1 1066.13 97.0085   1
   2  10   2 177.805 80.3833   1
   2  10   3 2632.41 128.331   1
   2  10   4 24.5055 82.8974   1
   2  10   5 2389.49 132.938   1
   2  10   6 2088.25 87.5551   1
   2  10   7 1468.40 110.764   1
   2  10   8 2621.00 121.786   1
   2  10   9 871.661 84.2559   1
   2  10  10 1027.02 78.6217   1
   2  10  11 246.694 50.2048   1
   2  11 -15 27.1532 80.3926   1
   2  11 -14 397.319 83.6135   1
   2  11 -13 92.9550 86.5830   1
   2  11 -12 1066.72 113.004   1
   2  11 -11 8.68630 42.6535   1
   2  11 -10 151.886 46.3533   1
   2  11  -9 227.749 48.5577   1
   2  11  -8 147.084 47.3749   1
   2  11  -7 568.891 54.2426   1
   2  11  -6-4.07329 50.5508   1
   2  11  -5 339.325 53.1196   1
   2  11  -4 174.967 50.3231   1
   2  11  -3 325.262 52.5371   1
   2  11  -2 65.5216 52.8831   1
   2  11  -1 271.372 51.8885   1
   2  11   0 81.5050 49.5382   1
   2  11   1-3.81252 73.5671   1
   2  11   2 20.1013 78.0078   1
   2  11   3 5.48881 79.5510   1
   2  11   4-5.62286 75.9051   1
   2  11   5 30.1624 58.9432   1
   2  11   6-9.64020 53.5798   1
   2  11   7 29.8915 67.5291   1
   2  11   8 21.8836 63.9163   1
   2  11   9 2.76817 53.9436   1
   2  11  10 409.750 50.7102   1
   2  12 -14 753.658 106.707   1
   2  12 -13 1712.11 101.706   1
   2  12 -12 308.392 85.0394   1
   2  12 -11 3202.19 84.9063   1
   2  12 -10 1910.96 62.8030   1
   2  12  -9 23.8790 44.4252   1
   2  12  -8 692.077 55.1739   1
   2  12  -7 2366.37 80.2130   1
   2  12  -6 2454.29 80.6701   1
   2  12  -5-9.40604 49.1835   1
   2  12  -4 1379.87 68.6617   1
   2  12  -3 8539.50 124.265   1
   2  12  -2 19.8096 48.8612   1
   2  12  -1 628.387 60.6108   1
   2  12   0 1623.10 70.6080   1
   2  12   1 1706.57 114.275   1
   2  12   2 125.293 84.3521   1
   2  12   3-53.6038 82.0637   1
   2  12   4 2700.31 131.774   1
   2  12   5 502.849 49.5220   1
   2  12   6 194.968 67.0319   1
   2  12   7 189.245 63.2213   1
   2  12   8 19.5571 50.8522   1
   2  12   9 35.1887 40.2797   1
   2  13 -12-15.8101 124.270   1
   2  13 -11 9.64333 49.6747   1
   2  13 -10 173.530 54.1013   1
   2  13  -9 340.154 50.5545   1
   2  13  -8 49.6986 48.5148   1
   2  13  -7 1.67732 48.1127   1
   2  13  -6 9.21389 40.8808   1
   2  13  -5-19.8602 50.0203   1
   2  13  -4 75.0495 66.7884   1
   2  13  -3 31.5521 48.4643   1
   2  13  -2 31.9709 47.9611   1
   2  13  -1 43.9106 47.9242   1
   2  13   0-27.6265 74.1861   1
   2  13   1-16.9523 76.5514   1
   2  13   2 78.3943 77.2727   1
   2  13   3-9.53471 75.7359   1
   2  13   4 30.8046 38.7992   1
   2  13   5 63.4022 42.1832   1
   2  13   6 40.0921 51.0998   1
   2  13   7 74.4567 46.3292   1
   2  13   8-0.68946 36.5840   1
   2  14 -11 154.951 47.4200   1
   2  14 -10 2901.70 95.8318   1
   2  14  -9 3518.02 105.155   1
   2  14  -8 2715.80 100.578   1
   2  14  -7 751.855 56.0448   1
   2  14  -6 712.129 45.5788   1
   2  14  -5 4879.37 98.7172   1
   2  14  -4 4188.47 124.525   1
   2  14  -3 30.7982 43.3398   1
   2  14  -2 54.3729 44.7734   1
   2  14  -1 79.1154 45.0361   1
   2  14   0 83.6778 70.3408   1
   2  14   1 637.613 86.0279   1
   2  14   2-12.6221 51.1475   1
   2  14   3 192.543 75.2632   1
   2  14   4 1316.97 51.3637   1
   2  14   5 261.275 34.1168   1
   2  14   6 32.7745 36.1645   1
   2  15 -10 131.958 45.9201   1
   2  15  -9 24.7432 48.4730   1
   2  15  -8 154.289 55.1307   1
   2  15  -7 79.0073 58.9165   1
   2  15  -6 33.8000 40.0326   1
   2  15  -5-7.15008 41.4904   1
   2  15  -4 77.1880 44.7215   1
   2  15  -3-0.14145 43.4174   1
   2  15  -2-7.72488 41.3495   1
   2  15  -1 40.8795 75.7832   1
   2  15   0 214.199 78.5944   1
   2  15   1 77.8046 72.9550   1
   2  15   2 36.8492 59.5971   1
   2  15   3 6.17100 52.2124   1
   2  15   4-28.6166 43.2339   1
   2  16  -8 751.104 56.2020   1
   2  16  -7 722.292 56.4959   1
   2  16  -6 22.1207 47.0592   1
   2  16  -5 503.731 39.6108   1
   2  16  -4 3901.85 70.1811   1
   2  16  -3 124.710 36.6545   1
   2  16  -2 201.538 64.6593   1
   2  16  -1 616.503 72.7520   1
   2  16   0 902.284 73.7292   1
   2  16   1 54.8112 52.0489   1
   2  16   2 68.4941 44.2378   1
   3 -14  -5 978.196 54.3005   1
   3 -14  -4 6271.03 112.550   1
   3 -14  -3 4552.81 106.152   1
   3 -14  -2 300.506 56.2394   1
   3 -14  -1 4092.71 107.266   1
   3 -13  -7 364.907 45.1810   1
   3 -13  -6 103.989 47.5950   1
   3 -13  -5 43.7769 51.3379   1
   3 -13  -4 7.43912 55.3909   1
   3 -13  -3 264.842 63.6217   1
   3 -13  -2 198.005 70.1174   1
   3 -13   4 436.317 101.328   1
   3 -13   5 45.0218 90.5862   1
   3 -13   6-10.3815 85.6236   1
   3 -13   7-26.1246 85.7117   1
   3 -13   8 131.924 82.8792   1
   3 -13   9 106.313 77.1150   1
   3 -12  -9 2101.05 64.7622   1
   3 -12  -8 1223.06 66.6294   1
   3 -12  -7 44.7982 53.1048   1
   3 -12  -6 1346.99 82.5135   1
   3 -12  -5 6288.31 150.558   1
   3 -12  -4 841.950 83.9292   1
   3 -12   2 3151.94 163.336   1
   3 -12   3 723.764 114.655   1
   3 -12   4 19.2380 95.7110   1
   3 -12   5 6397.94 202.818   1
   3 -12   6 682.157 105.542   1
   3 -12   7-15.4049 87.2205   1
   3 -12   8 1131.16 105.999   1
   3 -12   9 808.622 100.351   1
   3 -12  10 448.515 82.1983   1
   3 -11 -10-9.17662 36.2753   1
   3 -11  -9 322.103 52.6784   1
   3 -11  -8 1604.48 83.9576   1
   3 -11  -7 442.871 70.4268   1
   3 -11  -6 13.7506 62.6710   1
   3 -11  -5 17.7365 69.1291   1
   3 -11   1-4.04365 95.1879   1
   3 -11   2 70.9737 97.7682   1
   3 -11   3 1.50751 96.9494   1
   3 -11   4 123.101 93.4748   1
   3 -11   5 100.660 92.9225   1
   3 -11   6 52.9847 93.8008   1
   3 -11   7 10.2071 87.7441   1
   3 -11   8-1.00260 84.7337   1
   3 -11   9 17.4054 78.6463   1
   3 -11  10 27.7207 78.6548   1
   3 -11  11 51.3823 76.9957   1
   3 -10 -11 2811.38 74.0183   1
   3 -10 -10 439.897 55.9032   1
   3 -10  -9 444.275 64.2344   1
   3 -10  -8 1423.64 91.2185   1
   3 -10  -7 1836.74 106.298   1
   3 -10  -6 1663.97 105.427   1
   3 -10  -4 8665.50 196.706   1
   3 -10   0 7710.39 221.600   1
   3 -10   1 6352.95 200.480   1
   3 -10   2 348.000 99.3274   1
   3 -10   3 6253.81 198.828   1
   3 -10   4 12790.4 268.323   1
   3 -10   5 1771.77 129.721   1
   3 -10   6 45.0235 88.9882   1
   3 -10   7 377.214 97.2625   1
   3 -10   8 398.137 95.1416   1
   3 -10   9 407.192 94.3934   1
   3 -10  10 696.220 100.926   1
   3 -10  11-9.13284 81.4868   1
   3  -9 -12 21.5094 34.5539   1
   3  -9 -11 33.2395 45.8036   1
   3  -9 -10 385.393 65.3402   1
   3  -9  -9 416.295 71.2233   1
   3  -9  -8 767.271 57.5347   1
   3  -9  -7 280.782 54.1530   1
   3  -9  -6 57.3442 73.7028   1
   3  -9  -5 481.578 86.1296   1
   3  -9  -1 100.592 90.7611   1
   3  -9   0 109.573 84.4415   1
   3  -9   1 4.77950 83.8220   1
   3  -9   2 546.926 96.8112   1
   3  -9   3 609.216 98.2103   1
   3  -9   4 36.8711 83.7867   1
   3  -9   5 40.8751 87.8127   1
   3  -9   6 350.020 93.8303   1
   3  -9   7 68.2174 85.0840   1
   3  -9   8 179.573 93.7328   1
   3  -9   9 19.7902 86.2787   1
   3  -9  10-10.3897 84.4494   1
   3  -9  11 5.23241 86.1313   1
   3  -9  12 268.580 81.7225   1
   3  -8 -12 3073.00 87.0254   1
   3  -8 -11 17.1791 55.3834   1
   3  -8 -10 1176.65 59.5924   1
   3  -8  -9 1829.55 73.2405   1
   3  -8  -8 1443.96 73.5539   1
   3  -8  -7 1900.00 80.2971   1
   3  -8  -6 6915.68 189.525   1
   3  -8  -5 1309.12 114.940   1
   3  -8  -2 881.940 101.866   1
   3  -8  -1 36.3023 82.5764   1
   3  -8   0 18.3167 77.9925   1
   3  -8   1 9423.82 206.030   1
   3  -8   2 3541.97 144.341   1
   3  -8   3 1054.88 107.030   1
   3  -8   4 4806.47 166.746   1
   3  -8   5 4075.95 157.587   1
   3  -8   6 2681.76 141.379   1
   3  -8   7 368.603 97.6944   1
   3  -8   8 141.332 88.3037   1
   3  -8   9 622.839 104.778   1
   3  -8  10 1034.50 117.509   1
   3  -8  11 348.066 102.595   1
   3  -8  12 521.394 93.3436   1
   3  -7 -13 434.729 44.1449   1
   3  -7 -12 700.534 45.1865   1
   3  -7 -11 984.775 55.4786   1
   3  -7 -10 302.386 49.1382   1
   3  -7  -9 1593.29 74.6895   1
   3  -7  -8 535.096 61.0587   1
   3  -7  -7 722.762 96.3056   1
   3  -7  -6 365.501 93.2886   1
   3  -7  -3 24.8460 85.9308   1
   3  -7   3 241.774 72.2950   1
   3  -7   5 10.1050 78.7498   1
   3  -7   6 1121.53 103.631   1
   3  -7   7 17.7227 82.2514   1
   3  -7   8 157.001 88.6291   1
   3  -7   9 218.557 93.5203   1
   3  -7  10 274.903 100.748   1
   3  -7  11-1.40308 85.8551   1
   3  -7  12 702.027 104.190   1
   3  -7  13 1477.73 109.906   1
   3  -6 -13 803.178 41.5063   1
   3  -6 -12 7167.81 105.946   1
   3  -6 -11 7422.90 119.300   1
   3  -6 -10 1499.80 73.0369   1
   3  -6  -9 104.208 52.8249   1
   3  -6  -8 1035.19 71.9369   1
   3  -6  -7 26425.4 356.080   1
   3  -6  -6 1167.97 111.698   1
   3  -6   3 1273.11 91.0395   1
   3  -6   4 2481.99 115.474   1
   3  -6   6 21636.4 298.755   1
   3  -6   7 1954.80 117.766   1
   3  -6   8 34.9637 81.7503   1
   3  -6   9 4972.93 177.463   1
   3  -6  10 10579.3 252.035   1
   3  -6  11 4853.15 182.081   1
   3  -6  12 99.1622 89.2415   1
   3  -6  13 5239.98 173.967   1
   3  -5 -14 654.638 56.6993   1
   3  -5 -13 30.7451 56.2149   1
   3  -5 -12 54.4138 42.5422   1
   3  -5 -11 1101.77 64.7371   1
   3  -5 -10 342.176 44.4171   1
   3  -5  -9 492.016 46.3488   1
   3  -5  -8 314.659 60.1443   1
   3  -5  -7 732.056 101.586   1
   3  -5  -6 957.457 65.0644   1
   3  -5   2 1232.17 94.7252   1
   3  -5   3 20.2980 56.3288   1
   3  -5   4 329.836 65.4498   1
   3  -5   7 444.499 80.7100   1
   3  -5   8-27.8801 76.2985   1
   3  -5   9 62.4972 87.7140   1
   3  -5  10 529.300 101.121   1
   3  -5  11 43.0596 89.4256   1
   3  -5  12 1144.20 116.724   1
   3  -5  13 157.522 89.0143   1
   3  -5  14 2518.26 127.205   1
   3  -4 -14 4788.71 125.631   1
   3  -4 -13 2542.72 114.174   1
   3  -4 -12-23.5853 71.8016   1
   3  -4 -11 2964.52 73.6148   1
   3  -4 -10 2244.09 68.1400   1
   3  -4  -9 723.775 51.2656   1
   3  -4  -8 5971.10 99.2655   1
   3  -4  -7 18208.0 193.319   1
   3  -4  -6 7536.50 206.951   1
   3  -4   2 86.5603 56.4520   1
   3  -4   3 4860.13 145.210   1
   3  -4   4 21836.2 276.924   1
   3  -4   5 23286.5 278.722   1
   3  -4   8 9209.87 204.447   1
   3  -4   9 9020.31 215.431   1
   3  -4  10 98.4396 91.1978   1
   3  -4  11 3793.15 164.982   1
   3  -4  12 6825.17 205.178   1
   3  -4  13 113.033 87.2623   1
   3  -4  14 213.107 79.4422   1
  -3  -3  16 549.338 76.5605  -2
   3  -3 -15 549.338 76.5605   1
   3  -3 -14 609.715 76.9951   1
   3  -3 -13 720.936 88.5564   1
  -3  -3  13 247.872 71.6005  -2
   3  -3 -12 247.872 71.6005   1
  -3  -3  12 717.000 104.073  -2
   3  -3 -11 717.000 104.073   1
   3  -3 -11-21.8242 84.8827   1
  -3  -3  11 2954.00 144.067  -2
   3  -3 -10 2954.00 144.067   1
   3  -3 -10 2224.67 139.028   1
  -3  -3  10 1061.30 79.8502  -2
   3  -3  -9 1061.30 79.8502   1
   3  -3  -9 27.3333 53.4244   1
  -3  -3   9 1931.91 125.150  -2
   3  -3  -8 1931.91 125.150   1
   3  -3  -8 1217.69 113.763   1
  -3  -3   8 157.047 72.0403  -2
   3  -3  -7 157.047 72.0403   1
   3  -3   1 617.905 81.2740   1
   3  -3   2 350.877 66.9710   1
   3  -3   3 534.946 67.5144   1
   3  -3   4 837.884 76.0635   1
   3  -3   5 1223.56 81.8917   1
   3  -3   8 63.2297 70.5177   1
   3  -3   9 468.559 85.4869   1
   3  -3  10 62.4791 80.4609   1
   3  -3  11 416.332 94.6639   1
   3  -3  12 2272.40 133.328   1
   3  -3  13 298.110 91.3171   1
   3  -3  14 65.4504 77.2203   1
   3  -3  15 155.867 70.1877   1
   3  -2 -15 2277.22 98.4491   1
   3  -2 -14 612.909 83.3707   1
   3  -2 -13 5976.72 181.032   1
   3  -2 -12 4643.61 118.602   1
   3  -2 -11 26.6006 55.3545   1
   3  -2 -10 3706.99 109.991   1
   3  -2  -9 3279.61 102.854   1
   3  -2  -8 47711.7 315.330   1
   3  -2  -7 29.4886 52.4718   1
   3  -2  -1 98513.0 594.770   1
   3  -2   0 35576.6 361.597   1
   3  -2   1 162.561 63.4394   1
   3  -2   2 2702.50 113.564   1
   3  -2   3 32632.8 341.866   1
   3  -2   4 11273.4 204.109   1
  -3  -2  -7 3803.09 143.911  -2
   3  -2   8 3803.09 143.911   1
  -3  -2  -8 2615.69 142.924  -2
   3  -2   9 2615.69 142.924   1
  -3  -2  -9 4544.66 180.572  -2
   3  -2  10 4544.66 180.572   1
  -3  -2 -10 831.157 137.065  -2
   3  -2  11 831.157 137.065   1
  -3  -2 -11 17503.5 308.816  -2
   3  -2  12 17503.5 308.816   1
  -3  -2 -12 3621.94 171.723  -2
   3  -2  13 3621.94 171.723   1
  -3  -2 -13 4043.02 161.446  -2
   3  -2  14 4043.02 161.446   1
   3  -2  15 62.7408 65.5547   1
   3  -1 -16 20.1970 44.8922   1
   3  -1 -15 1670.21 96.4052   1
   3  -1 -14 737.421 88.6513   1
   3  -1 -13 31.0298 52.8807   1
   3  -1 -12 1268.47 78.5136   1
   3  -1 -11 54.6385 58.9428   1
   3  -1 -10 306.897 57.5267   1
   3  -1  -9 608.523 67.2370   1
   3  -1  -8 1782.53 65.0052   1
   3  -1  -3 1519.56 91.0890   1
   3  -1  -2 122.440 59.5643   1
   3  -1  -1 475.151 71.2523   1
   3  -1   0 976.353 85.3996   1
   3  -1   1 1358.85 89.0727   1
   3  -1   2 81.5082 56.7196   1
   3  -1   3 341.209 63.8321   1
   3  -1   4 69.4911 60.0205   1
   3  -1   8 400.714 75.2403   1
   3  -1   9 21.8218 75.7150   1
   3  -1  10-33.3991 84.5284   1
   3  -1  11 1268.57 115.632   1
   3  -1  12 147.365 85.9400   1
   3  -1  13 416.666 89.0973   1
   3  -1  14 102.402 72.5217   1
   3  -1  15 84.9097 64.4226   1
  -3   0  16 187.610 72.4182  -2
   3   0 -16 187.610 72.4182   1
  -3   0  15 16987.4 336.909  -2
   3   0 -15 16987.4 336.909   1
  -3   0  14 21242.4 418.394  -2
   3   0 -14 21242.4 418.394   1
  -3   0  13 6105.48 180.560  -2
   3   0 -13 6105.48 180.560   1
  -3   0  12 6482.61 190.951  -2
   3   0 -12 6482.61 190.951   1
  -3   0  11 27375.4 289.346  -2
   3   0 -11 27375.4 289.346   1
  -3   0  10 27676.8 286.678  -2
   3   0 -10 27676.8 286.678   1
  -3   0   9 91751.2 602.961  -2
   3   0  -9 91751.2 602.961   1
  -3   0   8 21945.4 291.200  -2
   3   0  -8 21945.4 291.200   1
  -3   0   7 78579.8 774.234  -2
   3   0  -7 78579.8 774.234   1
  -3   0   6 73983.5 741.928  -2
   3   0  -6 73983.5 741.928   1
  -3   0   5 42384.3 394.107  -2
   3   0  -5 42384.3 394.107   1
  -3   0   4 3668.02 124.157  -2
   3   0  -4 3668.02 124.157   1
  -3   0   3 4771.06 192.069  -2
   3   0  -3 4771.06 192.069   1
  -3   0   2 185248. 1098.22  -2
   3   0  -2 185248. 1098.22   1
  -3   0   1 11522.8 282.771  -2
   3   0  -1 11522.8 282.771   1
  -3   0   0 2127.74 137.738  -2
   3   0   0 2127.74 137.738   1
  -3   0  -1 823.426 104.041  -2
   3   0   1 823.426 104.041   1
  -3   0  -2 5073.13 194.327  -2
   3   0   2 5073.13 194.327   1
  -3   0  -3 65.3788 76.2062  -2
   3   0   3 65.3788 76.2062   1
  -3   0  -8 18775.6 352.118  -2
   3   0   8 18775.6 352.118   1
  -3   0  -9 1162.80 137.644  -2
   3   0   9 1162.80 137.644   1
  -3   0 -10 7682.51 266.579  -2
   3   0  10 7682.51 266.579   1
  -3   0 -11 36719.8 553.016  -2
   3   0  11 36719.8 553.016   1
  -3   0 -12 1104.28 144.907  -2
   3   0  12 1104.28 144.907   1
  -3   0 -13 1187.45 140.223  -2
   3   0  13 1187.45 140.223   1
  -3   0 -14 3118.32 168.285  -2
   3   0  14 3118.32 168.285   1
  -3   0 -15 2024.19 125.370  -2
   3   0  15 2024.19 125.370   1
   3   1 -16 339.981 61.8768   1
   3   1 -15 429.356 79.1663   1
   3   1 -14 3149.42 151.347   1
   3   1 -13 212.355 62.0628   1
   3   1 -12-44.9601 59.8892   1
   3   1 -11 294.279 51.8196   1
   3   1 -10 1627.23 60.8374   1
   3   1  -9 4554.57 95.9520   1
   3   1  -8 283.058 46.4664   1
   3   1  -7 502.638 55.5867   1
   3   1  -6 1538.10 72.3755   1
   3   1  -5 3003.00 89.6646   1
   3   1  -4 308.215 45.9924   1
   3   1  -3 1196.35 86.0696   1
   3   1  -2 730.278 74.2386   1
   3   1  -1 1139.67 83.6913   1
   3   1   0 1823.85 98.0473   1
   3   1   1 340.320 63.8415   1
   3   1   2 0.56893 54.9739   1
   3   1   7-22.0138 62.7094   1
   3   1   8-20.1212 71.0260   1
   3   1   9 1.18166 80.5996   1
   3   1  10 409.443 91.5523   1
   3   1  11 2650.41 139.985   1
   3   1  12-4.57838 80.7259   1
   3   1  13 215.488 75.6342   1
   3   1  14 443.782 78.4551   1
   3   1  15 407.853 64.2270   1
   3   2 -16 5536.35 134.982   1
   3   2 -15 1953.20 108.845   1
   3   2 -14 27.2723 80.5050   1
   3   2 -13 1844.63 88.8036   1
   3   2 -12 1058.60 64.3440   1
   3   2 -11 135.973 43.7567   1
   3   2 -10 549.526 49.7795   1
   3   2  -9 27406.2 186.287   1
   3   2  -8 1737.98 55.2543   1
   3   2  -7 4272.86 129.840   1
   3   2  -6 19782.8 185.919   1
   3   2  -5 27244.1 213.756   1
   3   2  -4 6319.50 107.356   1
   3   2  -3 3479.22 126.663   1
   3   2  -2 77763.6 537.015   1
   3   2  -1 68206.7 503.102   1
   3   2   0 18625.8 268.078   1
   3   2   1 4584.01 143.019   1
   3   2   7 1802.56 101.477   1
   3   2   8 12.7310 75.3836   1
   3   2   9 12.9010 81.6033   1
   3   2  10 2.12276 83.6453   1
   3   2  11 7301.58 201.870   1
   3   2  12 1516.49 115.284   1
   3   2  13 880.041 91.3047   1
   3   2  14 528.848 74.4782   1
   3   2  15 1051.00 67.6866   1
  -3   3  15 799.618 90.4934  -2
   3   3 -16 799.618 90.4934   1
  -3   3  14 1848.50 129.643  -2
   3   3 -15 1848.50 129.643   1
  -3   3  13 1465.05 104.525  -2
   3   3 -14 1465.05 104.525   1
  -3   3  12 259.045 67.8513  -2
   3   3 -13 259.045 67.8513   1
  -3   3  11 725.558 75.8760  -2
   3   3 -12 725.558 75.8760   1
  -3   3  10 3786.98 89.2068  -2
   3   3 -11 3786.98 89.2068   1
  -3   3   9 785.939 65.1626  -2
   3   3 -10 785.939 65.1626   1
   3   3 -10 486.793 120.455   1
  -3   3   8 2344.54 89.4281  -2
   3   3  -9 2344.54 89.4281   1
   3   3  -9 906.755 84.3877   1
  -3   3   7 173.419 55.8884  -2
   3   3  -8 173.419 55.8884   1
   3   3  -8-20.3953 80.4501   1
   3   3  -7 18.4029 52.5660   1
   3   3  -6 572.406 46.4505   1
   3   3  -5 989.744 55.2568   1
   3   3  -4 1677.21 76.9829   1
   3   3  -3-3.82423 47.1235   1
   3   3  -2 139.668 58.5245   1
   3   3  -1 72.1462 56.5533   1
   3   3   6 184.472 68.1395   1
   3   3   7 387.421 75.6472   1
   3   3   8 116.823 79.2545   1
   3   3   9 237.504 82.4545   1
   3   3  10 46.2064 86.3610   1
   3   3  11-37.2275 85.1282   1
   3   3  12-8.89705 78.0731   1
   3   3  13 376.933 77.8230   1
   3   3  14 20.6778 57.7416   1
   3   3  15 124.221 44.8735   1
   3   4 -16 4.08602 53.8205   1
   3   4 -15 1936.65 92.3871   1
   3   4 -14 5196.50 117.620   1
   3   4 -13 1526.60 67.5876   1
   3   4 -12 45.3914 49.4855   1
   3   4 -11 31.6486 41.5841   1
   3   4 -10 14068.2 134.365   1
   3   4  -9 19.2736 39.8075   1
   3   4  -8 2022.75 54.7613   1
   3   4  -7 1135.29 65.7838   1
   3   4  -6 151.298 56.2911   1
   3   4  -5 1208.26 112.554   1
   3   4  -4 681.915 98.7426   1
   3   4  -3 14858.4 300.025   1
   3   4  -2 1348.48 117.873   1
   3   4   6 775.580 84.8127   1
   3   4   7 5636.57 162.064   1
   3   4   8 2801.67 132.417   1
   3   4   9-17.7572 84.2817   1
   3   4  10 7457.31 194.070   1
   3   4  11 584.483 93.5604   1
   3   4  12 41.2889 73.9392   1
   3   4  13 897.441 83.4583   1
   3   4  14 881.031 67.9153   1
   3   5 -16 143.049 51.7397   1
   3   5 -15 556.692 65.3252   1
   3   5 -14 345.314 59.0922   1
   3   5 -13 340.462 50.7118   1
   3   5 -12 1369.94 67.6993   1
   3   5 -11 145.175 42.2167   1
   3   5 -10 2754.57 69.1906   1
   3   5  -9 133.786 39.1976   1
   3   5  -8 139.417 37.3481   1
   3   5  -7 0.48574 39.6405   1
   3   5  -6 515.833 69.9765   1
   3   5  -5 470.807 90.6896   1
   3   5  -4 314.843 86.6610   1
   3   5  -3 13.6490 76.3785   1
   3   5  -2 1265.90 111.226   1
   3   5   5 135.931 67.8003   1
   3   5   6 63.9590 70.5386   1
   3   5   7 112.157 89.8206   1
   3   5   8 2361.52 125.302   1
   3   5   9 10.0495 82.1988   1
   3   5  10 280.513 84.6048   1
   3   5  11 463.666 84.8011   1
   3   5  12 2510.85 112.539   1
   3   5  13 10.6957 57.4894   1
   3   5  14-0.32904 40.1591   1
  -3   6  13 1224.05 148.447  -2
   3   6 -15 1224.05 148.447   1
   3   6 -15-10.2894 54.2716   1
   3   6 -14 1403.73 73.3600   1
   3   6 -13 4026.79 110.995   1
   3   6 -12 814.731 57.8748   1
   3   6 -11 1554.06 87.9239   1
   3   6 -10 11330.2 110.803   1
   3   6  -9 6532.93 84.9709   1
   3   6  -8 591.327 45.9439   1
   3   6  -7 2891.35 78.6264   1
   3   6  -6 6852.98 104.346   1
   3   6  -5 2019.90 136.511   1
   3   6  -4 1672.55 128.036   1
   3   6  -3 8593.16 236.094   1
   3   6  -2 11136.0 263.948   1
   3   6   3 456.405 88.9842   1
   3   6   4 1366.33 74.5957   1
   3   6   5 6961.15 120.541   1
   3   6   6 6700.41 167.897   1
   3   6   7 648.993 92.0780   1
   3   6   8 5835.95 172.766   1
   3   6   9 9240.58 203.227   1
   3   6  10 78.3545 77.7214   1
   3   6  11 913.969 88.4371   1
   3   6  12 3086.73 111.214   1
   3   6  13 1608.14 77.8105   1
   3   7 -15 128.252 127.546   1
   3   7 -14 138.827 88.2797   1
   3   7 -13 289.550 99.7832   1
   3   7 -12 811.784 71.3791   1
   3   7 -11 232.616 105.680   1
   3   7 -10 805.200 66.5753   1
   3   7  -9 306.587 61.9514   1
   3   7  -8 159.142 50.5385   1
   3   7  -7 431.087 54.2361   1
   3   7  -6 76.9150 44.1814   1
   3   7  -5 1091.17 48.8959   1
   3   7  -4 92.1424 37.9301   1
   3   7  -3 23.4336 45.6758   1
   3   7  -2 77.5790 82.1944   1
   3   7   0 489.384 87.8182   1
   3   7   1 1137.60 102.400   1
   3   7   2 19.2924 83.1720   1
   3   7   3 14.0718 50.4148   1
   3   7   4 598.489 62.6200   1
   3   7   5-2.69848 53.2351   1
   3   7   6 317.403 81.1010   1
   3   7   7 421.735 84.5477   1
   3   7   8 755.292 89.3889   1
   3   7   9 312.734 80.6531   1
   3   7  10 27.3185 65.5967   1
   3   7  11 596.733 72.8247   1
   3   7  12 595.001 65.1744   1
   3   7  13 51.5480 39.5054   1
   3   8 -15 4107.92 178.642   1
   3   8 -14 2338.81 126.263   1
   3   8 -13 38.7846 89.5460   1
   3   8 -12 404.397 106.332   1
   3   8 -11 7565.29 123.906   1
   3   8 -10 1213.60 73.2365   1
   3   8  -9 501.385 67.8345   1
   3   8  -8 3955.12 103.304   1
   3   8  -7 102.757 49.2728   1
   3   8  -6 717.460 56.6477   1
   3   8  -5 2919.19 58.9451   1
   3   8  -4 8390.76 99.2957   1
   3   8  -3 77.4429 41.5183   1
   3   8  -2 6594.63 111.809   1
   3   8  -1 33343.8 204.002   1
   3   8   0 12633.2 121.058   1
   3   8   1 96.7241 58.7482   1
   3   8   2 10430.3 227.339   1
   3   8   3 17599.5 176.605   1
   3   8   4 14972.5 169.112   1
   3   8   5 1500.59 77.5793   1
   3   8   6 4570.13 105.665   1
   3   8   7 11324.2 211.091   1
   3   8   8 8251.11 182.643   1
   3   8   9 6.07347 65.3460   1
   3   8  10 329.605 68.9635   1
   3   8  11 1119.95 74.4427   1
   3   8  12 614.780 52.6813   1
   3   9 -15 477.015 176.894   1
   3   9 -14 608.341 129.539   1
   3   9 -13 859.551 107.124   1
   3   9 -12 40.9249 91.4345   1
   3   9 -11 2127.15 77.7747   1
   3   9 -10 251.228 58.6408   1
   3   9  -9 230.520 62.5144   1
   3   9  -8 248.429 62.0698   1
   3   9  -7 1094.91 77.5903   1
   3   9  -6 25.4355 61.5015   1
   3   9  -5 179.716 43.1853   1
   3   9  -4-5.36306 45.8994   1
   3   9  -3 1262.52 69.1180   1
   3   9  -2 280.495 56.6166   1
   3   9  -1-50.1534 68.2027   1
   3   9   0 270.960 58.1996   1
   3   9   1 343.741 65.4883   1
   3   9   2-7.65602 89.4603   1
   3   9   3-25.0359 89.3670   1
   3   9   4 27.4401 53.4739   1
   3   9   5 96.2733 53.1885   1
   3   9   6 39.4693 51.0262   1
   3   9   7 1643.62 100.550   1
   3   9   8-2.19137 62.5625   1
   3   9   9 76.4898 57.4864   1
   3   9  10 947.166 69.2629   1
   3   9  11 1515.36 66.9506   1
   3  10 -14 4072.37 195.029   1
   3  10 -13 3142.38 163.091   1
   3  10 -12 1533.04 127.620   1
   3  10 -11 3488.37 88.8624   1
   3  10 -10 9126.95 139.365   1
   3  10  -9 7764.17 136.192   1
   3  10  -8 1.37649 58.0522   1
   3  10  -7 4699.87 116.824   1
   3  10  -6 8257.83 111.239   1
   3  10  -5 6120.46 105.572   1
   3  10  -4 48.4537 51.1891   1
   3  10  -3 4991.55 106.645   1
   3  10  -2 17592.6 181.058   1
   3  10  -1 839.245 74.1366   1
   3  10   0 1014.43 70.4288   1
   3  10   1 4666.93 172.124   1
   3  10   2 2933.33 145.256   1
   3  10   3 888.803 108.037   1
   3  10   4 429.983 55.9043   1
   3  10   5 5314.91 103.941   1
   3  10   6 610.211 56.0621   1
   3  10   7 17.7059 59.6894   1
   3  10   8 1558.46 83.9611   1
   3  10   9 287.175 53.9705   1
   3  10  10 19.3474 38.1861   1
   3  11 -14-9.16574 201.814   1
   3  11 -13 717.915 192.136   1
   3  11 -12 591.673 170.123   1
   3  11 -11 176.711 52.6043   1
   3  11 -10 64.8050 54.2140   1
   3  11  -9 424.229 66.1374   1
   3  11  -8 19.1048 62.1608   1
   3  11  -7 294.653 74.4304   1
   3  11  -6 138.299 50.1450   1
   3  11  -5 65.9011 51.6110   1
   3  11  -4 93.0145 52.5193   1
   3  11  -3 45.1105 53.5874   1
   3  11  -2 66.6668 55.8736   1
   3  11  -1 150.762 54.1870   1
   3  11   0 543.476 60.0464   1
   3  11   1-12.4582 86.6286   1
   3  11   2 30.7037 89.6985   1
   3  11   3 30.4775 83.9677   1
   3  11   4 4.19836 43.1977   1
   3  11   5 354.588 47.1346   1
   3  11   6 526.840 62.6635   1
   3  11   7 283.087 52.2386   1
   3  11   8 86.0408 43.9713   1
   3  11   9 20.1664 36.1616   1
   3  12 -12 8895.61 279.392   1
   3  12 -11 8862.88 121.523   1
   3  12 -10 1832.11 82.3231   1
   3  12  -9 3493.36 108.499   1
   3  12  -8 6853.66 141.335   1
   3  12  -7 8103.17 166.844   1
   3  12  -6 2446.83 77.1710   1
   3  12  -5 133.645 51.4121   1
   3  12  -4 2842.11 84.4838   1
   3  12  -3 3716.87 95.1350   1
   3  12  -2 138.091 53.5742   1
   3  12  -1 22.9274 50.4800   1
   3  12   0 126.835 86.4792   1
   3  12   1 418.606 88.9753   1
   3  12   2 340.439 90.4056   1
   3  12   3 347.097 82.2353   1
   3  12   4 16.8923 67.4130   1
   3  12   5 3463.26 71.9601   1
   3  12   6 3685.57 89.3734   1
   3  12   7 1184.13 55.2100   1
   3  13 -11 625.544 50.2080   1
   3  13 -10 258.493 53.0313   1
   3  13  -9 28.7649 57.8128   1
   3  13  -8 621.188 76.0842   1
   3  13  -7 17.7304 63.6701   1
   3  13  -6 184.817 45.7451   1
   3  13  -5 103.103 45.2970   1
   3  13  -4 571.215 55.9883   1
   3  13  -3 55.6256 48.2333   1
   3  13  -2 18.8226 46.8511   1
   3  13  -1 159.268 51.3418   1
   3  13   0 82.7673 77.6869   1
   3  13   1 5.89708 74.1023   1
   3  13   2 29.3203 68.3591   1
   3  13   3 15.1675 62.3074   1
   3  13   4-28.8225 57.0372   1
   3  13   5 11.3695 42.8640   1
   3  14 -10 2746.44 73.6946   1
   3  14  -9 36.7825 43.7032   1
   3  14  -8 1300.45 73.2380   1
   3  14  -7 3580.26 106.817   1
   3  14  -6 2937.77 101.802   1
   3  14  -5 125.220 43.5194   1
   3  14  -4 996.305 55.7810   1
   3  14  -3 8854.05 112.738   1
   3  14  -2 953.774 54.6237   1
   3  14  -1 70.6997 68.2289   1
   3  14   0 1029.51 89.7298   1
   3  14   1 1213.64 84.1354   1
   3  14   2 655.720 69.5938   1
   3  14   3 44.7376 50.3364   1
   3  14   4 1874.19 65.5379   1
   3  15  -8 22.0347 38.2015   1
   3  15  -7 11.8760 43.3019   1
   3  15  -6 150.528 48.3805   1
   3  15  -5 118.613 33.6364   1
   3  15  -4 71.6351 33.7731   1
   3  15  -3 50.7116 33.6360   1
   3  15  -2-4.47369 55.3738   1
   3  15  -1 101.508 56.4041   1
   3  15   0-17.7984 54.6717   1
   3  15   1 56.1368 50.3040   1
   3  15   2 21.4113 40.6839   1
   3  16  -2 2228.94 66.3802   1
   4 -14  -3 24.3709 36.4691   1
   4 -14  -2 2144.23 70.2073   1
   4 -14  -1 5504.72 107.266   1
   4 -14   0 344.025 50.7271   1
   4 -13  -6 66.6188 35.0496   1
   4 -13  -5 27.6866 38.9322   1
   4 -13  -4 318.984 50.8154   1
   4 -13  -3 25.3110 48.0643   1
   4 -13   4 540.212 93.6533   1
   4 -13   5 96.6989 79.9861   1
   4 -13   6 183.232 80.3747   1
   4 -13   7 38.3936 76.5802   1
   4 -13   8 51.8980 71.5466   1
   4 -13   9 85.8453 66.7099   1
   4 -12  -7 9560.87 125.783   1
   4 -12  -6 4734.24 106.741   1
   4 -12  -5 85.3236 54.6158   1
   4 -12  -4 8958.07 165.554   1
   4 -12  -2 10750.3 190.457   1
   4 -12   2 9103.68 230.817   1
   4 -12   3 904.166 112.025   1
   4 -12   4 1164.95 116.714   1
   4 -12   5 5929.85 192.107   1
   4 -12   6 525.559 95.5695   1
   4 -12   7 4.70703 78.4999   1
   4 -12   8 3.28975 74.9661   1
   4 -12   9 1.96791 74.7948   1
   4 -12  10 399.687 76.4974   1
   4 -12  11 83.9794 63.7705   1
   4 -11  -8 38.9852 39.3932   1
   4 -11  -7 20.2658 49.4289   1
   4 -11  -6 364.951 63.1930   1
   4 -11  -5 192.683 41.6208   1
   4 -11  -4 809.567 76.6392   1
   4 -11  -3 102.393 69.5158   1
   4 -11   1 80.7402 90.7963   1
   4 -11   2 1.00231 93.5275   1
   4 -11   3 779.062 109.086   1
   4 -11   4 697.279 109.297   1
   4 -11   5 340.768 96.2038   1
   4 -11   6 78.1086 89.0726   1
   4 -11   7 688.971 106.824   1
   4 -11   8-0.10434 79.4816   1
   4 -11   9 194.506 83.9375   1
   4 -11  10 13.6618 75.7386   1
   4 -11  11 83.1122 65.4097   1
   4 -11  12 45.4655 63.7828   1
   4 -10  -9 1857.03 70.4206   1
   4 -10  -8 3108.86 98.0434   1
   4 -10  -7 23.7097 39.1004   1
   4 -10  -6 249.842 45.4478   1
   4 -10  -5 6579.98 162.851   1
   4 -10  -4 1389.37 105.602   1
   4 -10   0 63.9965 87.9641   1
   4 -10   1 1655.59 128.871   1
   4 -10   2 7408.54 216.680   1
   4 -10   3 5025.75 186.564   1
   4 -10   4 611.978 108.750   1
   4 -10   5 6608.87 208.787   1
   4 -10   6 4699.96 184.752   1
   4 -10   7 1145.76 119.907   1
   4 -10   8 538.500 105.961   1
   4 -10   9 238.400 85.7386   1
   4 -10  10 1595.67 119.082   1
   4 -10  11 406.975 87.7485   1
   4 -10  12 775.297 81.9109   1
   4  -9 -10 111.025 39.1288   1
   4  -9  -9 66.1674 33.6038   1
   4  -9  -8 167.933 42.0617   1
   4  -9  -7 326.988 48.2691   1
   4  -9  -6 181.794 68.6890   1
   4  -9  -5 297.124 83.9903   1
   4  -9  -1 10.0828 93.5450   1
   4  -9   0 15.1155 91.2365   1
   4  -9   1-33.5006 89.8915   1
   4  -9   2 601.303 105.097   1
   4  -9   3 2276.16 141.025   1
   4  -9   4 53.6585 90.4880   1
   4  -9   5 738.184 108.342   1
   4  -9   6 448.886 102.310   1
   4  -9   7 722.257 106.566   1
   4  -9   8-9.12592 91.0589   1
   4  -9   9 103.324 93.9222   1
   4  -9  10 603.978 99.6490   1
   4  -9  11 102.073 79.9712   1
   4  -9  12 87.3984 75.0269   1
   4  -9  13 62.6253 59.3606   1
   4  -8 -11 5865.48 68.6894   1
   4  -8 -10 4508.90 75.9569   1
   4  -8  -9 6.73329 39.7058   1
   4  -8  -8 1758.23 70.0016   1
   4  -8  -7 2243.95 82.1772   1
   4  -8  -6 11216.6 234.411   1
   4  -8  -5 201.714 88.3813   1
   4  -8  -2 175.433 87.5231   1
   4  -8  -1 1305.97 110.714   1
   4  -8   0 2074.79 88.9099   1
   4  -8   1 3650.77 92.9070   1
   4  -8   2 46.8012 57.7834   1
   4  -8   3 2339.03 93.6361   1
   4  -8   4 8032.25 147.863   1
   4  -8   5 71.0482 90.1236   1
   4  -8   6 3165.89 157.924   1
   4  -8   7 3427.60 163.941   1
   4  -8   8 1601.27 132.551   1
   4  -8   9 575.898 111.231   1
   4  -8  10 1358.00 121.037   1
   4  -8  11 6034.44 190.821   1
   4  -8  12 765.480 94.6167   1
   4  -8  13 1393.22 94.6448   1
   4  -7 -11 295.006 34.3943   1
   4  -7 -10 234.396 40.7885   1
   4  -7  -9 1.96228 43.8032   1
   4  -7  -8 12.2905 46.8539   1
   4  -7  -7 413.724 86.9396   1
   4  -7  -6 1109.39 109.618   1
   4  -7  -3 395.726 80.9461   1
   4  -7  -2-31.1352 54.8584   1
   4  -7  -1 61.4898 56.0165   1
   4  -7   0 119.156 47.5364   1
   4  -7   1 40.3940 45.2416   1
   4  -7   2 2278.16 75.5491   1
   4  -7   3 657.287 66.7526   1
   4  -7   4 184.178 59.4708   1
   4  -7   5 726.806 68.8555   1
   4  -7   6 1858.35 84.6289   1
   4  -7   7 11.8917 92.3847   1
   4  -7   8 333.293 102.938   1
   4  -7   9 50.8792 93.9324   1
   4  -7  10 9.49106 96.8465   1
   4  -7  11 411.451 96.8582   1
   4  -7  12 91.4459 84.8764   1
   4  -7  13 124.533 73.0961   1
   4  -7  14 778.684 71.8387   1
   4  -6 -12 922.459 64.4966   1
   4  -6 -11 35.0460 34.8848   1
   4  -6 -10 819.244 53.9055   1
   4  -6  -9 58.3526 48.0756   1
   4  -6  -8 1446.77 74.2954   1
   4  -6  -7 110.531 86.9533   1
   4  -6  -6 11687.7 259.002   1
   4  -6  -4 7613.23 178.721   1
   4  -6  -3 28826.3 328.452   1
   4  -6  -2 16117.1 179.743   1
   4  -6  -1 302.659 58.4926   1
   4  -6   0 6094.87 103.488   1
   4  -6   1 40550.0 243.557   1
   4  -6   2 33453.3 225.158   1
   4  -6   3 10227.8 132.051   1
   4  -6   4 9240.65 149.173   1
   4  -6   5 25210.8 235.082   1
   4  -6   6 19914.3 211.526   1
   4  -6   7 1188.02 121.370   1
   4  -6   8 40.6071 96.6663   1
   4  -6   9 6559.39 213.329   1
   4  -6  10 5833.72 202.858   1
   4  -6  11 51.4302 93.5229   1
   4  -6  12 1117.17 111.961   1
   4  -6  13 399.907 83.8825   1
   4  -6  14 44.0517 64.4680   1
   4  -5 -13 337.506 49.8821   1
   4  -5 -12 927.634 74.0612   1
   4  -5 -11 677.273 78.9913   1
   4  -5 -10 11.5561 35.1557   1
   4  -5  -9 2.26163 37.3464   1
   4  -5  -8-13.8415 38.5056   1
   4  -5  -7 611.142 64.3352   1
   4  -5  -6 303.318 57.6935   1
   4  -5  -5 21.4730 49.8490   1
   4  -5  -4 114.988 68.6722   1
   4  -5  -3-2.86239 67.0463   1
   4  -5  -2 21.2764 67.3747   1
   4  -5  -1 135.256 51.5431   1
   4  -5   0 73.0526 48.3287   1
   4  -5   1 951.167 65.4781   1
   4  -5   2 2426.04 70.8723   1
   4  -5   3-0.85582 41.7793   1
   4  -5   4 1147.07 58.0487   1
   4  -5   5 177.837 56.7034   1
   4  -5   6 3014.93 142.206   1
   4  -5   7 780.299 104.600   1
   4  -5   8 42.0183 89.5638   1
   4  -5   9 757.834 111.536   1
   4  -5  10 1525.89 131.412   1
   4  -5  11 212.082 98.7592   1
   4  -5  12 688.500 106.672   1
   4  -5  13 322.065 84.2140   1
   4  -5  14 586.302 78.1983   1
   4  -4 -14 3452.06 83.1987   1
   4  -4 -13 1361.65 78.5683   1
   4  -4 -12 11065.2 203.063   1
   4  -4 -11 14995.7 166.736   1
   4  -4 -10 229.507 49.8986   1
   4  -4  -9 2173.62 66.7951   1
   4  -4  -8 1865.40 85.3577   1
   4  -4  -7 40137.7 298.160   1
   4  -4  -6 1177.79 75.4428   1
   4  -4  -5 5985.29 108.753   1
   4  -4  -4 9944.17 116.152   1
   4  -4  -3 3095.25 78.8797   1
   4  -4  -2 376.060 53.4053   1
   4  -4  -1 1162.32 102.761   1
   4  -4   0 10914.2 254.798   1
   4  -4   1 60.5837 70.3968   1
   4  -4   2 7623.02 213.525   1
   4  -4   3 40177.6 457.482   1
   4  -4   4 1542.67 60.7752   1
   4  -4   5 4525.78 104.176   1
   4  -4   6 16007.4 269.857   1
   4  -4   7 24436.0 340.936   1
   4  -4   8 2423.33 140.187   1
   4  -4   9 262.176 95.5301   1
   4  -4  10 18585.7 326.599   1
   4  -4  11 13528.6 283.053   1
   4  -4  12 1286.46 116.907   1
   4  -4  13 514.042 94.1518   1
   4  -4  14 3564.83 126.383   1
  -4  -3  15 1198.65 80.4330  -2
   4  -3 -14 1198.65 80.4330   1
  -4  -3  14 430.389 88.6393  -2
   4  -3 -13 430.389 88.6393   1
  -4  -3  13 1554.09 106.007  -2
   4  -3 -12 1554.09 106.007   1
   4  -3 -12 516.450 82.8790   1
  -4  -3  12 1830.15 89.0588  -2
   4  -3 -11 1830.15 89.0588   1
  -4  -3  11 330.783 74.3883  -2
   4  -3 -10 330.783 74.3883   1
  -4  -3  10 58.1319 74.8932  -2
   4  -3  -9 58.1319 74.8932   1
  -4  -3   9 1695.75 126.328  -2
   4  -3  -8 1695.75 126.328   1
   4  -3  -8 74.3034 88.7341   1
  -4  -3   8 3097.76 146.243  -2
   4  -3  -7 3097.76 146.243   1
   4  -3  -7 2944.65 112.047   1
  -4  -3   7 853.755 109.730  -2
   4  -3  -6 853.755 109.730   1
   4  -3  -6 1565.99 99.0736   1
  -4  -3   6 355.860 100.632  -2
   4  -3  -5 355.860 100.632   1
   4  -3  -5 47.4769 76.0976   1
  -4  -3   5 585.155 96.5901  -2
   4  -3  -4 585.155 96.5901   1
   4  -3  -4 624.864 51.0490   1
   4  -3  -3 119.399 68.0803   1
   4  -3  -2 258.089 75.0930   1
   4  -3  -1 24.4405 66.2690   1
   4  -3   0 401.880 76.6449   1
   4  -3   1 997.858 100.582   1
   4  -3   2 223.664 73.1325   1
   4  -3   3 369.433 83.7544   1
   4  -3   4 449.750 80.6040   1
   4  -3   5 952.750 90.2364   1
   4  -3   6 13.4752 73.5955   1
   4  -3   7 939.175 100.553   1
   4  -3   8 38.2557 87.5457   1
   4  -3   9 165.263 96.5338   1
   4  -3  10 322.331 98.9082   1
   4  -3  11 85.4178 87.1352   1
   4  -3  12 957.782 109.504   1
   4  -3  13 18.9787 79.0380   1
   4  -3  14 785.037 84.7228   1
   4  -3  15 133.640 55.8766   1
   4  -2 -14 11391.5 175.155   1
   4  -2 -13 7470.62 171.342   1
   4  -2 -12 1095.26 66.3627   1
   4  -2 -11 5534.72 119.245   1
   4  -2 -10 7665.45 115.813   1
   4  -2  -9 3231.43 103.650   1
   4  -2  -8 13425.3 185.004   1
   4  -2  -7 17738.9 174.652   1
   4  -2  -6 17250.9 168.746   1
   4  -2  -5 4944.37 98.4109   1
   4  -2  -4 2511.92 98.4621   1
   4  -2  -3 12904.4 270.565   1
   4  -2  -2 7610.65 210.463   1
   4  -2  -1 4991.02 177.736   1
   4  -2   0 11914.5 256.138   1
   4  -2   1 30835.1 399.185   1
   4  -2   2 25257.0 369.871   1
   4  -2   3 1868.34 116.455   1
   4  -2   4 20830.1 329.430   1
  -4  -2  -4 41051.7 366.460  -2
   4  -2   5 41051.7 366.460   1
  -4  -2  -5 4045.44 154.747  -2
   4  -2   6 4045.44 154.747   1
  -4  -2  -6 1030.29 121.873  -2
   4  -2   7 1030.29 121.873   1
  -4  -2  -7 22826.1 330.351  -2
   4  -2   8 22826.1 330.351   1
  -4  -2  -8 44020.6 466.622  -2
   4  -2   9 44020.6 466.622   1
  -4  -2  -9 1204.73 143.000  -2
   4  -2  10 1204.73 143.000   1
  -4  -2 -10 4123.21 184.043  -2
   4  -2  11 4123.21 184.043   1
  -4  -2 -11 9228.95 240.002  -2
   4  -2  12 9228.95 240.002   1
  -4  -2 -12 16892.6 290.553  -2
   4  -2  13 16892.6 290.553   1
  -4  -2 -13 240.378 94.2215  -2
   4  -2  14 240.378 94.2215   1
  -4  -2 -14 8627.54 151.932  -2
   4  -2  15 8627.54 151.932   1
   4  -1 -15 360.291 48.6382   1
   4  -1 -14 952.672 75.4474   1
   4  -1 -13 2012.44 74.0911   1
   4  -1 -12 1647.49 77.5138   1
   4  -1 -11 27.3231 52.7947   1
   4  -1 -10 925.908 58.5086   1
   4  -1  -9 359.584 63.7405   1
   4  -1  -8 3728.22 111.703   1
   4  -1  -7 22.9957 48.3586   1
   4  -1  -6 643.635 54.6502   1
   4  -1  -5 496.966 66.2569   1
   4  -1  -4 286.722 80.6713   1
   4  -1  -3 10.9029 65.0458   1
   4  -1  -2-1.06223 66.9053   1
   4  -1  -1 179.273 70.6505   1
   4  -1   0 63.9525 66.5510   1
   4  -1   1 69.5373 68.8573   1
   4  -1   2 50.1195 64.3257   1
   4  -1   3 96.7338 72.4110   1
   4  -1   5 507.487 70.6384   1
   4  -1   6-24.7659 74.7791   1
   4  -1   7-11.2825 73.9040   1
   4  -1   8 382.119 86.7392   1
   4  -1   9 1282.97 112.218   1
   4  -1  10 139.062 84.6983   1
   4  -1  11 41.3450 84.9067   1
   4  -1  12 353.014 90.4179   1
   4  -1  13 1490.89 107.783   1
   4  -1  14 208.702 71.0765   1
   4  -1  15-0.31223 49.5950   1
  -4   0  15 10954.1 205.780  -2
   4   0 -15 10954.1 205.780   1
  -4   0  14 56.5817 64.5684  -2
   4   0 -14 56.5817 64.5684   1
  -4   0  13 10673.9 196.238  -2
   4   0 -13 10673.9 196.238   1
  -4   0  12 35752.2 374.112  -2
   4   0 -12 35752.2 374.112   1
  -4   0  11 2740.87 104.890  -2
   4   0 -11 2740.87 104.890   1
  -4   0  10 2915.55 133.819  -2
   4   0 -10 2915.55 133.819   1
  -4   0   9 4507.29 157.387  -2
   4   0  -9 4507.29 157.387   1
  -4   0   8 156079. 798.264  -2
   4   0  -8 156079. 798.264   1
  -4   0   7 29410.8 246.631  -2
   4   0  -7 29410.8 246.631   1
  -4   0   6 4245.26 111.477  -2
   4   0  -6 4245.26 111.477   1
  -4   0   5 72883.2 337.475  -2
   4   0  -5 72883.2 337.475   1
  -4   0   4 87148.1 910.558  -2
   4   0  -4 87148.1 910.558   1
  -4   0   3 40168.2 618.850  -2
   4   0  -3 40168.2 618.850   1
  -4   0   2 10547.1 320.508  -2
   4   0  -2 10547.1 320.508   1
  -4   0   1 49044.1 671.470  -2
   4   0  -1 49044.1 671.470   1
  -4   0   0 54260.0 708.292  -2
   4   0   0 54260.0 708.292   1
  -4   0  -1 41546.4 617.949  -2
   4   0   1 41546.4 617.949   1
  -4   0  -2 5893.85 251.143  -2
   4   0   2 5893.85 251.143   1
  -4   0  -5 597.480 98.4807  -2
   4   0   5 597.480 98.4807   1
  -4   0  -6 7128.59 222.414  -2
   4   0   6 7128.59 222.414   1
  -4   0  -7 24.4836 100.997  -2
   4   0   7 24.4836 100.997   1
  -4   0  -8 121.752 107.367  -2
   4   0   8 121.752 107.367   1
  -4   0  -9 22563.2 426.472  -2
   4   0   9 22563.2 426.472   1
  -4   0 -10 12467.8 331.024  -2
   4   0  10 12467.8 331.024   1
  -4   0 -11 20.7666 110.574  -2
   4   0  11 20.7666 110.574   1
  -4   0 -12 1585.99 153.407  -2
   4   0  12 1585.99 153.407   1
  -4   0 -13 17075.8 341.602  -2
   4   0  13 17075.8 341.602   1
  -4   0 -14 12376.8 255.468  -2
   4   0  14 12376.8 255.468   1
   4   1 -15 1186.30 67.8737   1
   4   1 -14 525.254 69.1463   1
   4   1 -13 19.3051 48.0400   1
   4   1 -12 734.232 66.8922   1
   4   1 -11 229.704 47.6624   1
   4   1 -10-12.9443 53.7293   1
   4   1  -9 240.534 60.0370   1
  -4   1   8 5536.01 372.880  -2
   4   1  -8 5536.01 372.880   1
   4   1  -8 981.712 58.1197   1
  -4   1   7 1087.79 340.087  -2
   4   1  -7 1087.79 340.087   1
   4   1  -7 1221.96 57.1043   1
  -4   1   6 591.980 347.301  -2
   4   1  -6 591.980 347.301   1
   4   1  -6 17.6332 41.1572   1
  -4   1   5 778.821 379.674  -2
   4   1  -5 778.821 379.674   1
   4   1  -5 282.377 47.0672   1
   4   1  -4 234.784 76.6106   1
   4   1  -3-2.34942 66.0414   1
   4   1  -2-23.5479 69.3966   1
   4   1  -1 139.782 69.6289   1
   4   1   0 212.111 70.8673   1
   4   1   1 104.843 70.1495   1
   4   1   5 304.800 52.6871   1
   4   1   6 79.6744 69.8680   1
   4   1   7 40.2434 76.8138   1
   4   1   8 296.160 83.8476   1
   4   1   9 38.5460 81.3312   1
   4   1  10 195.974 82.6595   1
   4   1  11 177.832 79.0362   1
   4   1  12 51.6347 72.9405   1
   4   1  13 261.981 75.9340   1
   4   1  14 648.572 67.6272   1
   4   2 -15 2049.34 80.8403   1
   4   2 -14 4716.66 132.409   1
   4   2 -13 3465.77 92.7836   1
   4   2 -12 161.400 54.9118   1
   4   2 -11 1976.53 69.7850   1
   4   2 -10 1633.02 78.9353   1
   4   2  -9 17015.3 178.536   1
   4   2  -8 3427.98 76.0872   1
   4   2  -7 9732.05 109.444   1
   4   2  -6 7736.66 120.786   1
   4   2  -5 94.5051 43.5693   1
   4   2  -4 3149.26 77.4545   1
   4   2  -3 4602.15 169.761   1
   4   2  -2 9389.97 233.158   1
   4   2  -1 200.091 75.5997   1
   4   2   0 6737.13 203.586   1
   4   2   4 10462.3 130.207   1
   4   2   5 420.457 54.5603   1
   4   2   6 132.885 72.6747   1
   4   2   7 6832.47 176.033   1
   4   2   8 13558.7 242.260   1
   4   2   9 73.7262 80.4520   1
   4   2  10 1872.18 115.914   1
   4   2  11 3750.24 142.852   1
   4   2  12 6411.63 169.272   1
   4   2  13 43.3964 61.6219   1
   4   2  14 3994.53 105.317   1
  -4   3  14 1342.27 78.5264  -2
   4   3 -15 1342.27 78.5264   1
  -4   3  13 500.944 86.2850  -2
   4   3 -14 500.944 86.2850   1
  -4   3  12 1702.07 85.2976  -2
   4   3 -13 1702.07 85.2976   1
  -4   3  11 2194.06 96.2253  -2
   4   3 -12 2194.06 96.2253   1
  -4   3  10 347.183 62.8619  -2
   4   3 -11 347.183 62.8619   1
  -4   3   9 118.663 70.7392  -2
   4   3 -10 118.663 70.7392   1
  -4   3   8 1682.63 73.0734  -2
   4   3  -9 1682.63 73.0734   1
   4   3  -9 1571.50 202.848   1
  -4   3   7 4203.30 85.9585  -2
   4   3  -8 4203.30 85.9585   1
  -4   3   6 385.410 91.0742  -2
   4   3  -7 385.410 91.0742   1
   4   3  -6 344.456 72.8648   1
  -4   3   4 1099.52 153.746  -2
   4   3  -5 1099.52 153.746   1
   4   3  -5 51.6896 47.5698   1
   4   3  -4 243.251 44.9233   1
   4   3  -3 215.952 45.4546   1
   4   3   2 978.259 89.1845   1
   4   3   3 954.553 87.3279   1
   4   3   4 130.728 45.9481   1
   4   3   5 30.6919 46.7652   1
   4   3   6 235.375 73.2925   1
   4   3   7 143.866 74.6178   1
   4   3   8 698.378 91.9954   1
   4   3   9 940.359 97.4330   1
   4   3  10 31.4958 73.7281   1
   4   3  11 127.737 72.9940   1
   4   3  12 805.386 81.6586   1
   4   3  13 1000.98 74.7730   1
   4   3  14 41.9913 43.3540   1
   4   4 -14 466.661 60.3157   1
   4   4 -13 5717.33 102.565   1
   4   4 -12 1967.08 61.6802   1
   4   4 -11 121.758 41.0972   1
   4   4 -10-21.9951 68.4028   1
   4   4  -9 24456.5 187.046   1
   4   4  -8 7536.25 116.627   1
   4   4  -7 134.021 66.0064   1
   4   4  -6 10724.8 166.427   1
   4   4  -5 12986.2 119.025   1
   4   4  -4 5040.91 76.7127   1
   4   4  -3 1452.64 51.7616   1
   4   4  -2 9876.19 110.716   1
   4   4  -1 9220.26 113.566   1
   4   4   0 5640.79 121.951   1
   4   4   1 9310.54 189.014   1
   4   4   2 3761.24 138.659   1
   4   4   3 532.173 83.7853   1
   4   4   4 349.664 50.1196   1
   4   4   5 11235.7 141.093   1
   4   4   6 3183.61 121.747   1
   4   4   7 1712.81 104.544   1
   4   4   8 8162.47 186.032   1
   4   4   9 11114.1 212.983   1
   4   4  10 4512.47 143.681   1
   4   4  11 126.213 67.1804   1
   4   4  12 4728.42 128.001   1
   4   4  13 8501.15 142.261   1
   4   5 -14 77.6979 273.790   1
   4   5 -13 456.003 69.6686   1
   4   5 -12 483.968 75.7457   1
   4   5 -11 135.587 49.5392   1
   4   5 -10 8.00400 38.2828   1
   4   5  -9 447.141 57.3062   1
   4   5  -8 3749.45 91.2238   1
   4   5  -7-18.0449 63.0947   1
   4   5  -6 345.631 74.6749   1
   4   5  -5 626.492 53.5508   1
   4   5  -4 126.543 40.8945   1
   4   5  -3 15.7811 39.0772   1
   4   5  -2 948.587 50.4650   1
   4   5  -1 2140.02 63.0714   1
   4   5   0 236.344 55.3010   1
   4   5   1 1407.32 71.4946   1
   4   5   2 787.494 98.2331   1
   4   5   3 325.532 86.0861   1
   4   5   4 85.3087 48.6267   1
   4   5   5 162.391 49.8805   1
   4   5   6 59.5741 52.8243   1
   4   5   7 53.8888 66.5622   1
   4   5   8 37.4132 68.7989   1
   4   5   9 682.466 80.8255   1
   4   5  10-7.80775 65.2165   1
   4   5  11 16.6509 55.1098   1
   4   5  12 51.4384 50.4600   1
   4   5  13 1230.54 60.3632   1
  -4   6  12 1576.43 352.234  -2
   4   6 -14 1576.43 352.234   1
   4   6 -13 57.3309 303.195   1
   4   6 -12 58.3715 59.5243   1
   4   6 -11 23.8496 45.7553   1
   4   6 -10 378.087 41.8297   1
   4   6  -9 7253.91 111.684   1
   4   6  -8 12507.5 144.658   1
   4   6  -7 5197.33 130.384   1
   4   6  -6 2515.33 107.416   1
   4   6  -5 23901.7 179.420   1
   4   6  -4 41317.3 215.628   1
   4   6  -3 27310.9 181.594   1
   4   6  -2 82.4528 51.9081   1
   4   6  -1 22837.4 181.047   1
   4   6   0 87626.6 344.742   1
   4   6   1 34197.0 243.782   1
   4   6   2 1346.21 118.413   1
   4   6   3 10968.4 224.116   1
   4   6   4 17568.3 171.096   1
   4   6   5 24292.4 200.535   1
   4   6   6 2308.89 77.3466   1
   4   6   7 4341.75 134.647   1
   4   6   8 3352.61 124.246   1
   4   6   9 1508.82 91.9662   1
   4   6  10 55.2506 60.2171   1
   4   6  11 1107.82 71.1623   1
   4   6  12 211.107 46.2908   1
   4   7 -14 388.765 269.643   1
   4   7 -13 1051.52 293.482   1
   4   7 -12 11.3979 281.146   1
   4   7 -11 267.953 55.2066   1
   4   7 -10 200.719 46.0363   1
   4   7  -9 882.537 60.1445   1
   4   7  -8 53.7960 48.9297   1
   4   7  -7 416.035 78.3590   1
   4   7  -6 6.18808 74.5663   1
   4   7  -5 301.147 52.0528   1
   4   7  -4 48.9735 50.5712   1
   4   7  -3 49.0453 48.4353   1
   4   7  -2 2880.26 78.3984   1
   4   7  -1 670.241 57.8612   1
   4   7   0 212.637 52.8660   1
   4   7   1 2328.36 86.7292   1
   4   7   2 822.512 106.537   1
   4   7   3 93.1574 87.8121   1
   4   7   4 26.7374 87.0690   1
   4   7   5 843.084 58.9376   1
   4   7   6 305.715 50.7093   1
   4   7   7 1.57824 62.5376   1
   4   7   8 1624.50 89.4559   1
   4   7   9 166.151 57.3658   1
   4   7  10 231.307 54.0792   1
   4   7  11 73.6414 44.3058   1
   4   8 -14 3042.19 247.585   1
   4   8 -13 5720.65 332.752   1
   4   8 -12 5882.82 329.972   1
   4   8 -11 559.649 59.3844   1
   4   8 -10 9899.14 152.573   1
   4   8  -9 11634.4 170.821   1
   4   8  -8 10060.7 166.173   1
   4   8  -7 518.607 60.7459   1
   4   8  -6 5708.37 100.991   1
   4   8  -5 7840.93 118.804   1
   4   8  -4 5503.27 105.041   1
   4   8  -3 456.718 52.9104   1
   4   8  -2 5023.17 97.4193   1
   4   8  -1 11061.0 134.676   1
   4   8   0 1096.59 62.2706   1
   4   8   1 2727.51 111.892   1
   4   8   2 2911.61 141.175   1
   4   8   3 739.310 101.548   1
   4   8   4 2006.14 123.001   1
   4   8   5 3466.05 83.8074   1
   4   8   6 7490.84 109.766   1
   4   8   7 177.015 60.5389   1
   4   8   8 2988.01 98.9032   1
   4   8   9 6120.85 122.506   1
   4   8  10 1471.70 63.6431   1
   4   9 -13 665.893 292.059   1
   4   9 -12 116.112 319.555   1
   4   9 -11 177.712 50.5642   1
   4   9 -10 52.6568 54.5716   1
   4   9  -9 2795.36 103.533   1
   4   9  -8 266.397 74.0388   1
   4   9  -7 17.6569 68.0952   1
   4   9  -6 147.185 50.0040   1
   4   9  -5 101.885 49.9417   1
   4   9  -4 75.1768 49.7627   1
   4   9  -3 1125.35 60.6128   1
   4   9  -2 1270.33 63.5914   1
   4   9  -1-9.86710 49.8237   1
   4   9   0 791.046 59.2519   1
   4   9   1 630.037 78.7648   1
   4   9   2 99.1211 65.0225   1
   4   9   3-3.49150 78.8547   1
   4   9   4 11.2212 71.8129   1
   4   9   5 84.3476 69.4674   1
   4   9   6 31.1436 38.3962   1
   4   9   7 135.721 49.0629   1
   4   9   8 244.653 47.1170   1
   4   9   9-3.49214 36.4772   1
   4  10 -13 600.803 231.248   1
   4  10 -12 715.200 283.518   1
   4  10 -11 3927.09 89.4657   1
   4  10 -10 1314.70 72.8272   1
   4  10  -9 82.2134 60.6069   1
   4  10  -8 3357.68 112.586   1
   4  10  -7 1367.88 90.4240   1
   4  10  -6 25.5708 44.8119   1
   4  10  -5 3094.41 82.5028   1
   4  10  -4 5258.16 105.545   1
   4  10  -3 1927.33 76.4172   1
   4  10  -2 155.232 51.5543   1
   4  10  -1 16835.7 153.109   1
   4  10   0 9651.38 118.261   1
   4  10   1 1509.35 90.4972   1
   4  10   2 2097.06 95.1291   1
   4  10   3 3934.43 111.834   1
   4  10   4 8326.07 173.689   1
   4  10   5 1642.39 90.5821   1
   4  10   7 2703.71 73.8815   1
   4  10   8 1896.89 50.7324   1
   4  11 -12 225.316 230.705   1
   4  11 -11 118.545 40.2549   1
   4  11 -10 789.851 59.6843   1
   4  11  -9 153.983 55.9625   1
   4  11  -8 208.738 61.6515   1
   4  11  -7 7.57428 60.0476   1
   4  11  -6-2.85170 41.3488   1
   4  11  -5 74.0525 43.1227   1
   4  11  -4 67.9890 45.6568   1
   4  11  -3 1130.66 63.6100   1
   4  11  -2 74.4182 47.3693   1
   4  11  -1 165.401 46.9929   1
   4  11   0 563.255 88.2493   1
   4  11   1 203.209 75.6752   1
   4  11   2 68.7593 55.4175   1
   4  11   3-6.68558 51.9381   1
   4  11   4 83.2950 48.4253   1
   4  11   5 69.5870 41.9861   1
   4  11   6 2.85203 68.9447   1
   4  12 -10 1659.68 63.6070   1
   4  12  -9 5965.19 115.227   1
   4  12  -8 163.764 56.2743   1
   4  12  -7 517.636 62.4670   1
   4  12  -6 1348.14 53.4492   1
   4  12  -5 1985.94 60.9882   1
   4  12  -4 41.7547 38.9764   1
   4  12  -3 923.858 54.2646   1
   4  12  -2 4058.96 84.7685   1
   4  12  -1 44.0601 41.6311   1
   4  12   0 878.789 86.7576   1
   4  12   1 1583.70 95.9061   1
   4  12   2 519.693 72.2629   1
   4  12   3 246.462 56.8596   1
   4  12   4 991.198 62.5974   1
   4  13  -9 74.8720 37.5330   1
   4  13  -8 18.2531 44.1213   1
   4  13  -7 7.42533 44.1310   1
   4  13  -6-73.9864 48.6083   1
   4  13  -5 54.3896 32.3329   1
   4  13  -4 213.122 37.2405   1
   4  13  -3 198.920 38.5097   1
   4  13  -2-7.83392 35.5943   1
   4  13  -1 30.8361 56.5733   1
   4  13   0 80.0843 57.9262   1
   4  13   1-2.57170 50.9838   1
   4  13   2-2.24145 44.8904   1
   4  13   3-23.8803 39.7348   1
   4  14  -7 553.595 45.2043   1
   4  14  -6 123.258 39.1523   1
   4  14  -5 1271.65 57.8433   1
   4  14  -4 1233.94 40.1207   1
   4  14  -3 219.437 29.8232   1
   4  14  -2 2080.98 72.8649   1
   4  14  -1 2205.31 74.3921   1
   4  14   0 408.024 48.7103   1
   4  14   1 808.639 49.4660   1
   5 -13  -2 31.9204 33.6905   1
   5 -13  -1-2.99293 37.4099   1
   5 -13   0 32.9691 42.9247   1
   5 -12  -5 2420.81 62.2064   1
   5 -12  -4 6163.62 105.280   1
   5 -12  -3 1347.60 46.0573   1
   5 -12  -2 1016.38 66.0394   1
   5 -12  -1 5018.69 121.986   1
   5 -12   4 842.081 90.3584   1
   5 -12   5 16.4518 71.2563   1
   5 -12   6 3099.48 120.790   1
   5 -12   7 1529.09 97.0660   1
   5 -12   8 61.6011 62.0429   1
   5 -12   9 1294.75 77.3479   1
   5 -11  -6 904.508 51.0300   1
   5 -11  -5 43.0847 29.2332   1
   5 -11  -4 576.355 41.8917   1
   5 -11  -3 184.989 57.8716   1
   5 -11   2 13.6683 76.3367   1
   5 -11   3 116.767 76.2455   1
   5 -11   4 467.579 88.0951   1
   5 -11   5 19.2630 73.8549   1
   5 -11   6 236.887 82.0384   1
   5 -11   7 3.49961 72.5016   1
   5 -11   8 16.6420 67.5360   1
   5 -11   9-24.8078 67.2403   1
   5 -11  10 375.858 62.2704   1
   5 -10  -7 3485.64 56.8372   1
   5 -10  -6 2497.12 59.8027   1
   5 -10  -5 1446.06 56.8126   1
   5 -10  -4 989.226 84.5049   1
   5 -10  -3 3999.15 135.474   1
   5 -10   1 1433.27 109.525   1
   5 -10   2 547.930 91.8970   1
   5 -10   3 246.201 88.1864   1
   5 -10   4 979.126 106.857   1
   5 -10   5 2828.47 138.518   1
   5 -10   6 598.484 96.5132   1
   5 -10   7 2915.17 139.325   1
   5 -10   8 2815.36 130.039   1
   5 -10   9 122.733 74.8785   1
   5 -10  10 705.610 78.9649   1
   5 -10  11 2830.58 100.745   1
   5  -9  -8 143.134 27.2420   1
   5  -9  -7 290.519 37.6509   1
   5  -9  -6 733.768 49.7564   1
   5  -9  -5 811.198 79.1525   1
   5  -9  -4 892.693 90.5938   1
   5  -9   0 81.0544 81.8950   1
   5  -9   1 31.7011 86.4313   1
   5  -9   2 10.8898 83.3206   1
   5  -9   3 521.136 97.2721   1
   5  -9   4 120.211 86.8408   1
   5  -9   5 4.04627 86.4898   1
   5  -9   6 4.22673 83.1208   1
   5  -9   7-33.2274 83.2821   1
   5  -9   8 197.665 83.2142   1
   5  -9   9 66.0584 77.2296   1
   5  -9  10 27.4283 69.6491   1
   5  -9  11 322.489 67.6686   1
   5  -9  12 620.907 61.6004   1
   5  -8  -9 1141.02 37.8259   1
   5  -8  -8 512.537 39.6893   1
   5  -8  -7 3543.79 78.1759   1
   5  -8  -6 5098.46 146.242   1
   5  -8  -5 10067.4 211.749   1
   5  -8  -4 1966.70 122.328   1
   5  -8  -1 14378.4 244.971   1
   5  -8   0 1886.63 118.594   1
   5  -8   1 877.494 72.0659   1
   5  -8   2 8402.80 149.929   1
   5  -8   3 8773.80 153.832   1
   5  -8   4 6153.63 191.125   1
   5  -8   5 3399.73 152.309   1
   5  -8   6 2336.18 136.032   1
   5  -8   7 313.587 92.3546   1
   5  -8   8 379.956 99.5525   1
   5  -8   9 1070.18 104.244   1
   5  -8  10 148.032 76.9941   1
   5  -8  11 140.081 69.9221   1
   5  -8  12 3233.90 106.918   1
   5  -7 -10 74.2154 39.5465   1
   5  -7  -9-3.16878 29.4381   1
   5  -7  -8 1125.48 82.3553   1
   5  -7  -7 331.903 45.7644   1
   5  -7  -6 120.822 74.2269   1
   5  -7  -5 1435.07 111.386   1
   5  -7  -2 43.7618 73.6758   1
   5  -7  -1 159.760 52.3083   1
   5  -7   0-3.22117 53.3846   1
   5  -7   1 6.84197 54.5026   1
   5  -7   2 237.548 60.4663   1
   5  -7   3 1379.06 80.6764   1
   5  -7   4 224.052 59.9926   1
   5  -7   5 257.448 60.6814   1
   5  -7   6-1.23114 57.9587   1
   5  -7   7 472.304 98.8900   1
   5  -7   8 730.799 105.739   1
   5  -7   9-20.9304 85.8032   1
   5  -7  10 70.4246 82.7674   1
   5  -7  11 359.784 82.1544   1
   5  -7  12 153.048 68.3278   1
   5  -7  13 160.267 52.1968   1
   5  -6 -11 3342.18 82.8610   1
   5  -6 -10 2767.13 93.8309   1
   5  -6  -9 1164.69 49.3394   1
   5  -6  -8 253.285 42.4607   1
   5  -6  -7 123.544 75.1682   1
   5  -6  -6 1394.30 113.388   1
   5  -6  -5 112.584 86.5542   1
   5  -6  -4 1040.00 90.0247   1
   5  -6  -3 861.645 89.7421   1
   5  -6  -2 5198.61 164.735   1
   5  -6  -1 11051.5 234.382   1
   5  -6   0 6183.65 125.688   1
   5  -6   1 19.8433 56.4731   1
   5  -6   2 6966.70 115.069   1
   5  -6   3 14006.4 187.134   1
   5  -6   4 37888.7 297.659   1
   5  -6   5 70.1036 60.7825   1
   5  -6   6 9096.07 152.157   1
   5  -6   7 19870.9 326.971   1
   5  -6   8 11689.5 258.646   1
   5  -6   9 2777.59 146.676   1
   5  -6  10 842.854 105.732   1
   5  -6  11 12657.7 233.818   1
   5  -6  12 4959.77 142.619   1
   5  -6  13 405.623 62.1229   1
   5  -5 -11 1198.32 67.7765   1
   5  -5 -10 772.278 71.8785   1
   5  -5  -9-6.27255 38.1241   1
   5  -5  -8 299.940 37.3192   1
   5  -5  -7 679.233 89.3802   1
   5  -5  -6 1703.90 75.2328   1
   5  -5  -5 316.394 58.8587   1
   5  -5  -4 380.587 77.6449   1
   5  -5  -3 414.920 82.8511   1
   5  -5  -2 30.1243 57.5606   1
   5  -5  -1 183.965 60.9308   1
   5  -5   0 141.782 61.8308   1
   5  -5   1 189.100 48.2619   1
   5  -5   2 580.307 64.1654   1
   5  -5   3 287.557 61.0863   1
   5  -5   4 32.3838 57.2187   1
   5  -5   5 99.0361 59.8073   1
   5  -5   6-26.7669 59.5794   1
   5  -5   7 629.741 97.3331   1
   5  -5   8 7.49151 87.7055   1
   5  -5   9 161.410 91.0269   1
   5  -5  10-19.7369 80.1090   1
   5  -5  11 1050.27 103.607   1
   5  -5  12 960.645 90.4303   1
   5  -5  13 33.3065 58.0564   1
   5  -4 -12 225.722 42.2508   1
   5  -4 -11 1145.18 46.4654   1
   5  -4 -10 3715.74 81.0674   1
   5  -4  -9 3657.96 88.7596   1
   5  -4  -8 400.261 81.5613   1
   5  -4  -7 3808.72 99.3261   1
   5  -4  -6 18094.9 197.174   1
   5  -4  -5 12044.7 130.502   1
   5  -4  -4 263.831 55.8217   1
   5  -4  -3 21908.8 230.413   1
   5  -4  -2 32705.3 282.806   1
   5  -4  -1 16165.2 176.066   1
   5  -4   0 147.175 50.7658   1
   5  -4   1 8012.93 154.032   1
   5  -4   2 22870.2 191.047   1
   5  -4   3 41155.2 256.102   1
   5  -4   4 2223.92 88.5198   1
   5  -4   5 4878.57 118.206   1
   5  -4   6 3981.13 110.401   1
   5  -4   7 5390.63 180.591   1
   5  -4   8 61.9114 86.7388   1
   5  -4   9 686.123 103.610   1
   5  -4  10 3028.46 147.669   1
   5  -4  11 318.427 86.8831   1
   5  -4  12 935.960 88.2225   1
   5  -4  13 727.537 74.1942   1
   5  -3 -12 263.711 50.1432   1
  -5  -3  12 78.9655 63.5583  -2
   5  -3 -11 78.9655 63.5583   1
   5  -3 -11 41.0194 55.3075   1
  -5  -3  11 1966.35 103.330  -2
   5  -3 -10 1966.35 103.330   1
   5  -3 -10 32.9609 63.8181   1
  -5  -3  10 309.782 82.4841  -2
   5  -3  -9 309.782 82.4841   1
   5  -3  -9 37.9521 68.6534   1
  -5  -3   9 255.104 83.9952  -2
   5  -3  -8 255.104 83.9952   1
   5  -3  -8 244.853 79.8665   1
   5  -3  -7-3.53234 49.0568   1
   5  -3  -6 625.930 62.4330   1
   5  -3  -5 67.0656 43.5625   1
   5  -3  -4-0.12285 42.2090   1
   5  -3  -3 25.9536 44.4207   1
   5  -3  -2 193.397 50.1206   1
   5  -3  -1 7.62131 47.2626   1
   5  -3   0 83.9358 47.6096   1
   5  -3   1 127.987 57.7474   1
   5  -3   2 481.661 52.0077   1
   5  -3   3 545.132 56.7191   1
   5  -3   4 43.5252 53.6105   1
   5  -3   5 43.7455 53.7999   1
   5  -3   6 211.128 59.1606   1
   5  -3   7 1355.00 112.976   1
   5  -3   8 102.611 83.9973   1
   5  -3   9-14.8019 86.5334   1
   5  -3  10 424.581 93.4920   1
   5  -3  11 413.372 88.5805   1
   5  -3  12 17.2438 72.3793   1
   5  -3  13 10.9722 59.4912   1
   5  -2 -13-18.8938 37.7062   1
   5  -2 -12 3540.10 71.7011   1
   5  -2 -11 7079.80 109.695   1
   5  -2 -10 4141.00 95.7472   1
   5  -2  -9 3.61842 47.3114   1
   5  -2  -8 915.933 65.0674   1
   5  -2  -7 8769.42 146.552   1
   5  -2  -6 2164.91 89.3884   1
   5  -2  -5 124.055 42.2504   1
   5  -2  -4 5936.84 101.989   1
   5  -2  -3 345.071 50.7310   1
   5  -2  -2 668.643 56.2899   1
   5  -2  -1 6030.28 112.352   1
   5  -2   0 1951.57 87.7506   1
   5  -2   1 56.2781 48.3728   1
   5  -2   2 191.506 63.1179   1
  -5  -2  -2 96705.4 614.052  -2
   5  -2   3 96705.4 614.052   1
   5  -2   3 47161.8 328.727   1
  -5  -2  -3 7269.86 200.869  -2
   5  -2   4 7269.86 200.869   1
   5  -2   4 2386.96 119.109   1
  -5  -2  -4 1563.57 89.6119  -2
   5  -2   5 1563.57 89.6119   1
  -5  -2  -5 9879.89 157.904  -2
   5  -2   6 9879.89 157.904   1
  -5  -2  -6 26091.3 345.154  -2
   5  -2   7 26091.3 345.154   1
  -5  -2  -7 13698.3 269.220  -2
   5  -2   8 13698.3 269.220   1
  -5  -2  -8 2509.39 156.460  -2
   5  -2   9 2509.39 156.460   1
  -5  -2  -9 28081.6 369.186  -2
   5  -2  10 28081.6 369.186   1
  -5  -2 -10 19016.7 299.983  -2
   5  -2  11 19016.7 299.983   1
  -5  -2 -11 3769.06 147.880  -2
   5  -2  12 3769.06 147.880   1
  -5  -2 -12 24.0859 79.0190  -2
   5  -2  13 24.0859 79.0190   1
   5  -1 -13 457.337 47.9280   1
   5  -1 -12 12.0685 33.6465   1
   5  -1 -11 760.369 54.5519   1
   5  -1 -10 960.214 50.4400   1
   5  -1  -9 180.506 52.3296   1
   5  -1  -8 21.7840 49.6433   1
   5  -1  -7 279.191 56.8581   1
   5  -1  -6 51.6015 53.8978   1
  -5  -1   5 514.747 121.712  -2
   5  -1  -5 514.747 121.712   1
   5  -1  -5 492.437 69.7378   1
   5  -1  -4 485.751 53.8990   1
  -5  -1   3 317.928 141.548  -2
   5  -1  -3 317.928 141.548   1
   5  -1  -3 43.0474 51.2315   1
   5  -1  -2 113.718 47.6606   1
  -5  -1   1 53.8488 134.301  -2
   5  -1  -1 53.8488 134.301   1
   5  -1  -1-1.39870 51.5943   1
  -5  -1   0 194.171 136.465  -2
   5  -1   0 194.171 136.465   1
   5  -1   0 8.24512 51.5216   1
  -5  -1  -1 249.810 145.751  -2
   5  -1   1 249.810 145.751   1
   5  -1   1 46.2448 53.6094   1
  -5  -1  -2 256.169 149.743  -2
   5  -1   2 256.169 149.743   1
   5  -1   2 211.515 59.3860   1
   5  -1   3 32.1135 44.9557   1
   5  -1   4 29.6000 44.8391   1
   5  -1   5 78.0008 46.8380   1
   5  -1   6 278.880 56.7623   1
   5  -1   7 56.3132 77.4031   1
   5  -1   8 598.022 89.8274   1
   5  -1   9 304.521 88.0185   1
   5  -1  10 446.637 87.6730   1
   5  -1  11 663.164 88.1573   1
   5  -1  12 324.177 74.2078   1
   5  -1  13 6.72160 54.4304   1
  -5   0  13 10749.0 140.097  -2
   5   0 -13 10749.0 140.097   1
  -5   0  12 1978.09 84.5074  -2
   5   0 -12 1978.09 84.5074   1
  -5   0  11 654.047 72.8118  -2
   5   0 -11 654.047 72.8118   1
  -5   0  10 11362.2 166.533  -2
   5   0 -10 11362.2 166.533   1
  -5   0   9 13873.3 231.192  -2
   5   0  -9 13873.3 231.192   1
  -5   0   8 11161.5 215.304  -2
   5   0  -8 11161.5 215.304   1
  -5   0   7 1415.92 104.057  -2
   5   0  -7 1415.92 104.057   1
  -5   0   6 10867.1 216.020  -2
   5   0  -6 10867.1 216.020   1
  -5   0   5 25250.5 254.482  -2
   5   0  -5 25250.5 254.482   1
  -5   0   4 184.809 57.0344  -2
   5   0  -4 184.809 57.0344   1
  -5   0   3 1961.00 96.3179  -2
   5   0  -3 1961.00 96.3179   1
  -5   0   2 1906.06 96.1945  -2
   5   0  -2 1906.06 96.1945   1
  -5   0   1 126.529 56.2339  -2
   5   0  -1 126.529 56.2339   1
  -5   0   0 58.7841 55.1707  -2
   5   0   0 58.7841 55.1707   1
  -5   0  -1 395.122 88.4299  -2
   5   0   1 395.122 88.4299   1
  -5   0  -2 37742.0 399.834  -2
   5   0   2 37742.0 399.834   1
  -5   0  -3 38315.2 356.910  -2
   5   0   3 38315.2 356.910   1
  -5   0  -4 22193.7 222.154  -2
   5   0   4 22193.7 222.154   1
  -5   0  -5 2214.48 108.336  -2
   5   0   5 2214.48 108.336   1
  -5   0  -6 1717.74 100.702  -2
   5   0   6 1717.74 100.702   1
  -5   0  -7 8445.17 260.184  -2
   5   0   7 8445.17 260.184   1
  -5   0  -8 16051.3 348.835  -2
   5   0   8 16051.3 348.835   1
  -5   0  -9 30008.1 465.839  -2
   5   0   9 30008.1 465.839   1
  -5   0 -10 735.851 120.102  -2
   5   0  10 735.851 120.102   1
  -5   0 -11 9702.32 255.613  -2
   5   0  11 9702.32 255.613   1
  -5   0 -12 10797.6 245.198  -2
   5   0  12 10797.6 245.198   1
  -5   0 -13 8595.30 188.885  -2
   5   0  13 8595.30 188.885   1
   5   1 -13 162.433 32.4302   1
   5   1 -12 302.828 42.4106   1
   5   1 -11 218.974 36.5016   1
   5   1 -10 783.498 50.4375   1
   5   1  -9 13.5088 48.4200   1
   5   1  -8 175.915 52.2715   1
  -5   1   7 798.006 109.925  -2
   5   1  -7 798.006 109.925   1
   5   1  -7 449.486 86.1167   1
  -5   1   6 863.130 81.5054  -2
   5   1  -6 863.130 81.5054   1
   5   1  -5 11.0420 45.5598   1
  -5   1   4 886.537 158.786  -2
   5   1  -4 886.537 158.786   1
   5   1  -4 182.227 42.5163   1
   5   1  -3 159.655 39.2684   1
  -5   1   2 77.1183 132.019  -2
   5   1  -2 77.1183 132.019   1
   5   1  -2 30.0093 41.4234   1
  -5   1   1 152.348 137.869  -2
   5   1  -1 152.348 137.869   1
   5   1  -1 26.9766 38.6124   1
   5   1   0 118.502 58.8747   1
   5   1   1 106.800 59.0318   1
   5   1   2 135.219 63.8234   1
   5   1   3-4.53035 61.5541   1
   5   1   4 92.3422 46.9123   1
   5   1   5-7.40896 46.9416   1
   5   1   6 469.022 54.9553   1
   5   1   7-10.9476 70.4364   1
   5   1   8 22.9806 69.2160   1
   5   1   9 500.285 85.0208   1
   5   1  10 175.520 74.6611   1
   5   1  11 29.1720 63.4263   1
   5   1  12 170.912 59.3817   1
   5   1  13 671.683 57.0897   1
   5   2 -13 525.242 38.1104   1
   5   2 -12 1662.22 58.5899   1
   5   2 -11 1432.43 51.6419   1
   5   2 -10 167.961 39.8499   1
   5   2  -9 256.086 51.9445   1
   5   2  -8 4881.16 155.144   1
   5   2  -7 1672.31 73.4549   1
   5   2  -6 27.2354 71.7949   1
   5   2  -5 6638.09 101.172   1
   5   2  -4 1138.21 57.0265   1
   5   2  -3 24.8555 44.1822   1
   5   2  -2 3108.13 71.9114   1
   5   2  -1 1732.99 60.9203   1
  -5   2  -1 620.894 157.853  -2
   5   2   0 620.894 157.853   1
   5   2   0 479.695 57.0977   1
  -5   2  -2 1715.55 193.371  -2
   5   2   1 1715.55 193.371   1
   5   2   1 1167.18 95.3468   1
  -5   2  -3 101899. 820.243  -2
   5   2   2 101899. 820.243   1
   5   2   2 30007.1 345.105   1
   5   2   3 2649.98 126.977   1
   5   2   4 392.321 80.8622   1
   5   2   5 3052.62 84.6554   1
   5   2   6 9363.85 133.871   1
   5   2   7 4041.39 137.051   1
   5   2   8 1024.28 87.8007   1
   5   2   9 9173.87 192.293   1
   5   2  10 7299.16 166.379   1
   5   2  11 1419.64 86.2333   1
   5   2  12 1.65605 48.9432   1
  -5   3  12 246.620 62.7802  -2
   5   3 -13 246.620 62.7802   1
  -5   3  11 129.265 74.4051  -2
   5   3 -12 129.265 74.4051   1
  -5   3  10 1982.06 82.4214  -2
   5   3 -11 1982.06 82.4214   1
  -5   3   9 251.542 66.4066  -2
   5   3 -10 251.542 66.4066   1
  -5   3   8 222.999 100.849  -2
   5   3  -9 222.999 100.849   1
   5   3  -9 39.4799 407.161   1
  -5   3   7-24.3592 87.0911  -2
   5   3  -8-24.3592 87.0911   1
   5   3  -8 28.1771 74.7395   1
   5   3  -7 854.144 64.2923   1
   5   3  -6 294.794 73.7034   1
   5   3  -5 606.988 55.1757   1
   5   3  -4-3.58289 43.5711   1
   5   3  -3 9.21398 44.5082   1
   5   3  -2 37.6801 39.3123   1
   5   3  -1 140.091 41.0159   1
   5   3   0 306.099 48.6823   1
   5   3   1 22.5240 47.3215   1
   5   3   2 198.016 63.3015   1
   5   3   3 173.942 61.9815   1
   5   3   4-21.5798 69.7579   1
   5   3   5 207.997 46.4336   1
   5   3   6 43.5879 45.5906   1
   5   3   7 266.306 68.4817   1
   5   3   8 192.741 67.9415   1
   5   3   9 366.747 68.9938   1
   5   3  10 345.136 65.5629   1
   5   3  11 970.409 68.1547   1
   5   3  12 284.847 45.7768   1
   5   4 -13 235.833 42.7191   1
   5   4 -12 1200.68 75.2022   1
   5   4 -11 2646.41 73.5004   1
   5   4 -10 2157.50 76.1395   1
   5   4  -9 168.852 47.4777   1
   5   4  -8 6660.72 115.523   1
   5   4  -7 11417.1 149.236   1
   5   4  -6 16143.5 223.749   1
   5   4  -5-3.53160 44.9210   1
   5   4  -4 8110.88 111.044   1
   5   4  -3 14396.3 144.617   1
   5   4  -2 8636.49 107.032   1
   5   4  -1 1667.65 60.9562   1
   5   4   0 642.250 50.8998   1
   5   4   1 33100.8 220.564   1
   5   4   2 53.4998 64.4320   1
   5   4   3 574.955 86.0746   1
   5   4   4 783.796 88.5132   1
   5   4   5 1989.41 70.2817   1
   5   4   6 73.0389 43.8357   1
   5   4   7 1125.20 80.3426   1
   5   4   8 7568.24 157.073   1
   5   4   9 116.864 59.5416   1
   5   4  10 1473.65 79.0421   1
   5   4  11 3695.56 95.8885   1
   5   5 -12 461.917 55.0151   1
   5   5 -11 1049.30 53.2589   1
   5   5 -10 74.7274 42.7343   1
   5   5  -9 115.234 45.2418   1
   5   5  -8 801.310 58.3667   1
   5   5  -7 1592.95 73.7318   1
   5   5  -6 132.573 71.0807   1
   5   5  -5 83.3903 44.2764   1
   5   5  -4 305.333 45.8786   1
   5   5  -3 42.1427 43.6867   1
   5   5  -2 1.65186 40.7182   1
   5   5  -1 620.339 48.1155   1
   5   5   0 191.946 44.6075   1
   5   5   1 8.52628 43.8294   1
   5   5   2 216.497 68.4587   1
   5   5   3 20.6168 62.1204   1
   5   5   4 5.97542 69.5844   1
   5   5   5 482.863 75.4717   1
   5   5   6 66.2074 40.7565   1
   5   5   7 140.875 51.2242   1
   5   5   8 43.1187 53.6242   1
   5   5   9 92.6218 50.5255   1
   5   5  10 208.081 50.2644   1
   5   5  11-9.34297 32.1007   1
   5   6 -12 2244.95 74.0616   1
   5   6 -11 2018.82 57.9406   1
   5   6 -10 36.4187 31.3552   1
   5   6  -9 3749.09 70.0271   1
   5   6  -8 3767.09 87.3271   1
   5   6  -7 1190.53 67.4487   1
   5   6  -6 2406.26 70.4135   1
   5   6  -5 1593.01 65.5222   1
   5   6  -4 730.294 57.1516   1
   5   6  -3 511.321 48.0656   1
   5   6  -2 2749.46 67.7808   1
   5   6  -1 2545.90 75.2507   1
   5   6   0 3448.31 86.6296   1
   5   6   1 14856.9 148.758   1
   5   6   2 8591.76 158.903   1
   5   6   3 2519.77 98.3814   1
   5   6   4 142.280 71.2003   1
   5   6   5 4987.66 136.541   1
   5   6   6 8719.21 159.918   1
   5   6   7 7118.08 131.641   1
   5   6   8 431.214 55.4531   1
   5   6   9 4286.34 96.6666   1
   5   6  10 4940.69 75.9430   1
   5   7 -11 64.4836 326.424   1
   5   7 -10 53.3402 34.5405   1
   5   7  -9 11.0958 38.4509   1
   5   7  -8 1643.81 66.6937   1
   5   7  -7 1044.79 60.9557   1
   5   7  -6 117.695 42.2505   1
   5   7  -5 19.3497 43.2204   1
   5   7  -4 26.0749 43.6767   1
   5   7  -3-4.53015 46.0476   1
   5   7  -2 361.794 47.9653   1
   5   7  -1 363.429 49.3368   1
   5   7   0 75.3342 45.6830   1
   5   7   1 253.281 65.1753   1
   5   7   2-27.2321 61.2950   1
   5   7   3 9.84465 56.2186   1
   5   7   4 158.621 56.3235   1
   5   7   5-11.6345 51.6254   1
   5   7   6 25.8171 52.9758   1
   5   7   8 314.041 38.8356   1
   5   7   9 0.55590 66.2606   1
   5   8 -10 988.372 57.9040   1
   5   8  -9 1402.03 73.3000   1
   5   8  -8 6132.92 95.0955   1
   5   8  -7 14033.6 149.568   1
   5   8  -6 1865.57 61.8649   1
   5   8  -5 1821.32 65.7256   1
   5   8  -4 9388.38 124.598   1
   5   8  -3 16153.7 161.663   1
   5   8  -2 9545.60 116.132   1
   5   8  -1 268.033 46.0334   1
   5   8   0 17344.3 150.056   1
   5   8   1 8304.44 145.687   1
   5   8   2 4670.03 116.062   1
   5   8   3 227.715 57.3548   1
   5   8   4 497.972 55.0622   1
   5   8   5 2404.75 77.0404   1
   5   8   6 1852.53 129.536   1
   5   8   7 261.792 81.6785   1
   5   8   8 91.1394 68.1229   1
   5   9 -10 56.8328 37.6257   1
   5   9  -9 852.201 60.6611   1
   5   9  -8 301.763 56.2306   1
   5   9  -7 96.0745 58.4753   1
   5   9  -6 30.1968 29.7590   1
   5   9  -5 40.8135 38.4713   1
   5   9  -4-20.1236 39.9140   1
   5   9  -3 23.3103 41.8048   1
   5   9  -2 305.580 46.4410   1
   5   9  -1 17.6747 36.8742   1
   5   9   0 11.7705 37.9266   1
   5   9   1 28.2056 53.3934   1
   5   9   2 46.4762 50.1795   1
   5   9   3 34.1665 46.6713   1
   5   9   4 183.734 45.2267   1
   5   9   5 50.3232 37.4342   1
   5   9   6 178.581 74.9694   1
   5   9   7-6.50804 61.3178   1
   5  10 -10 29.8438 32.0495   1
   5  10  -9 631.084 50.0738   1
   5  10  -8 976.326 62.8485   1
   5  10  -7 40.3470 47.4473   1
   5  10  -6 99.1042 53.4044   1
   5  10  -5 104.022 33.1029   1
   5  10  -4-8.15906 36.3839   1
   5  10  -3 637.944 45.8747   1
   5  10  -2 1679.62 59.4498   1
   5  10  -1 1802.41 58.6935   1
   5  10   0 1174.44 62.8268   1
   5  10   1 3179.31 84.1955   1
   5  10   2 3268.39 82.4069   1
   5  10   3 200.726 43.1041   1
   5  10   4 280.409 39.3900   1
   5  10   5 1579.03 48.0483   1
   5  11  -9 20.3957 32.0639   1
   5  11  -8 209.636 41.5467   1
   5  11  -7 23.5682 38.1641   1
   5  11  -6 11.0261 42.5394   1
   5  11  -5-11.1869 28.8649   1
   5  11  -4 1.82562 29.7599   1
   5  11  -3 48.7452 32.0312   1
   5  11  -2 24.7296 31.5076   1
   5  11  -1 40.5634 48.8982   1
   5  11   0-4.45838 46.5112   1
   5  11   1 2.70438 44.4650   1
   5  11   2 51.3424 43.0457   1
   5  11   3-8.28423 34.7624   1
   5  12  -7 812.806 46.4448   1
   5  12  -6 190.117 38.7164   1
   5  12  -5 36.7608 36.1625   1
   5  12  -4 432.733 29.9339   1
   5  12  -3 454.461 31.4109   1
   5  12  -2 0.07149 36.6968   1
   5  12  -1 1154.22 58.2759   1
   5  12   0 330.445 43.1757   1
   5  12   1-10.9034 35.3807   1
   5  12   2 1370.89 51.2088   1
   6 -11  -1-2.06725 39.0630   1
   6 -11   0-3.54130 40.4892   1
   6 -11   6 57.3922 45.0022   1
   6 -10  -4 1960.43 43.2120   1
   6 -10  -3 1170.58 60.0791   1
   6 -10  -2 178.378 47.6140   1
   6 -10  -1 224.365 53.7625   1
   6 -10   3 79.2878 56.2205   1
   6 -10   4 290.401 62.9078   1
   6 -10   5 855.189 70.9946   1
   6 -10   6 3390.23 104.351   1
   6 -10   7 382.909 57.6513   1
   6 -10   8 435.448 54.2994   1
   6  -9  -5 0.30434 24.0270   1
   6  -9  -4 110.474 45.3752   1
   6  -9  -3-6.81034 48.5998   1
   6  -9  -2 39.8155 53.7361   1
   6  -9   2 33.2331 58.8461   1
   6  -9   3 116.966 60.1793   1
   6  -9   4 108.652 63.6774   1
   6  -9   5 29.5083 61.7246   1
   6  -9   6 183.933 63.6017   1
   6  -9   7 545.722 66.7816   1
   6  -9   8 62.0291 49.7964   1
   6  -9   9 115.118 47.7244   1
   6  -8  -7 522.638 41.2296   1
   6  -8  -6 193.370 27.2506   1
   6  -8  -5 130.019 48.1904   1
   6  -8  -4 1414.70 79.1642   1
   6  -8  -3 1773.57 92.3741   1
   6  -8   1 2708.76 102.653   1
   6  -8   3 573.333 77.6536   1
   6  -8   4 3010.99 117.221   1
   6  -8   5 6927.17 160.174   1
   6  -8   7 1464.56 89.5817   1
   6  -8   8 3380.96 110.483   1
   6  -8   9 876.970 67.5835   1
   6  -8  10 39.4037 43.7744   1
   6  -7  -8 1.07787 29.9398   1
   6  -7  -7 49.7560 38.3990   1
   6  -7  -6 76.1972 28.7772   1
   6  -7  -5 132.662 56.2707   1
   6  -7  -4 0.95375 58.5102   1
   6  -7  -3-1.71784 62.1760   1
   6  -7   0-27.5504 74.0513   1
   6  -7   1 23.3384 71.0949   1
   6  -7   2 12.0670 47.2144   1
   6  -7   3 142.388 49.1236   1
   6  -7   5 59.5886 63.3931   1
   6  -7   6 400.139 73.2520   1
   6  -7   7 621.066 79.3842   1
   6  -7   8 171.628 64.4666   1
   6  -7   9-3.10444 54.0355   1
   6  -7  10 25.0518 49.2770   1
   6  -6  -8 2934.63 81.9690   1
   6  -6  -7 0.05122 45.3056   1
   6  -6  -6 3521.43 66.9541   1
   6  -6  -5 8226.88 168.940   1
   6  -6  -4 6616.39 163.404   1
   6  -6  -3 794.486 86.5704   1
   6  -6  -2 7288.85 172.983   1
   6  -6  -1 9834.31 202.574   1
   6  -6   0 6638.15 124.223   1
   6  -6   1 463.424 58.0675   1
   6  -6   2 484.093 47.5714   1
   6  -6   3 2287.02 68.6773   1
   6  -6   4 6655.24 101.058   1
   6  -6   5 718.908 49.9839   1
   6  -6   6 217.617 52.5397   1
   6  -6   7 75.2173 48.5150   1
   6  -6   8 330.371 70.5497   1
   6  -6   9 439.986 66.9903   1
   6  -6  10 216.000 55.1353   1
   6  -5  -9 34.4241 34.7311   1
   6  -5  -8 22.2383 44.0949   1
   6  -5  -7 203.358 53.2072   1
   6  -5  -6 171.516 58.8944   1
   6  -5  -5 387.671 69.6719   1
   6  -5  -4 13.6700 44.2531   1
   6  -5  -3 140.127 63.7266   1
   6  -5  -2 67.1026 65.8122   1
   6  -5  -1 109.080 51.3438   1
   6  -5   0 12.4701 54.2552   1
   6  -5   1 31.3809 54.1981   1
   6  -5   2 130.162 57.7114   1
   6  -5   3 51.3164 41.4669   1
   6  -5   4 254.963 46.1544   1
   6  -5   5 647.189 56.9747   1
   6  -5   6 271.690 50.4449   1
   6  -5   7-13.3668 65.7774   1
   6  -5   8-6.06984 61.1850   1
   6  -5   9 145.572 61.9907   1
   6  -5  10 114.523 55.8524   1
   6  -5  11-6.25255 43.8833   1
   6  -4 -10-8.33255 30.7655   1
   6  -4  -9 2091.59 49.8900   1
   6  -4  -8 25.8979 30.4823   1
   6  -4  -7 1329.64 81.0365   1
   6  -4  -6 62.6135 38.3106   1
   6  -4  -5 137.239 41.7401   1
   6  -4  -4 507.906 52.4618   1
   6  -4  -3 8029.75 181.085   1
   6  -4  -2 184.447 55.7113   1
   6  -4  -1 4484.38 116.761   1
   6  -4   0 7183.09 142.042   1
   6  -4   1 4139.18 117.243   1
   6  -4   2 591.553 70.9173   1
   6  -4   3 300.271 47.6238   1
   6  -4   4 23186.3 212.076   1
   6  -4   5 3815.25 96.3962   1
   6  -4   6 194.202 50.8762   1
   6  -4   7 1172.64 92.4501   1
   6  -4   8 2388.08 109.240   1
   6  -4   9 2118.29 98.1286   1
   6  -4  10 515.187 66.1857   1
   6  -4  11 728.285 60.7585   1
   6  -3 -10 16.5430 34.7546   1
   6  -3  -9 237.944 32.2846   1
   6  -3  -8 209.578 36.3449   1
   6  -3  -7-4.53720 36.0816   1
   6  -3  -6 18.0912 37.9015   1
   6  -3  -5 41.8229 33.1980   1
   6  -3  -4 25.7095 35.6618   1
   6  -3  -3 32.9270 37.1065   1
   6  -3  -2 27.2772 39.4298   1
   6  -3  -1 7.59511 53.6571   1
   6  -3   0-0.54319 54.8475   1
   6  -3   1-23.9983 58.1045   1
   6  -3   2 12.2083 57.9974   1
   6  -3   3-3.41588 81.4021   1
   6  -3   4 21.9120 47.9411   1
   6  -3   5 647.671 58.6298   1
   6  -3   6 77.8947 48.0029   1
   6  -3   7 66.2235 61.0077   1
   6  -3   8 39.2890 62.2255   1
   6  -3   9 174.842 65.4744   1
   6  -3  10 96.4788 55.2219   1
   6  -3  11-15.7313 44.6416   1
   6  -2 -10 526.874 32.5715   1
   6  -2  -9 2526.43 61.6407   1
   6  -2  -8 4650.69 84.9541   1
   6  -2  -7 612.506 46.6512   1
   6  -2  -6 192.465 43.2242   1
   6  -2  -5 1245.99 50.0662   1
   6  -2  -4 4589.68 81.0332   1
   6  -2  -3 135.575 35.0116   1
   6  -2  -2 122.407 54.9608   1
   6  -2  -1 644.847 66.9755   1
   6  -2   0 264.867 61.9622   1
   6  -2   1 19.7450 57.8436   1
   6  -2   2 122.257 56.9284   1
   6  -2   3 8527.26 200.430   1
  -6  -2  -3 16463.5 272.029  -2
   6  -2   4 16463.5 272.029   1
   6  -2   4 4341.44 134.183   1
  -6  -2  -4 16028.1 259.371  -2
   6  -2   5 16028.1 259.371   1
   6  -2   5 1833.94 103.920   1
  -6  -2  -5 10616.0 205.951  -2
   6  -2   6 10616.0 205.951   1
   6  -2   6 948.965 89.7780   1
  -6  -2  -6 698.218 97.5775  -2
   6  -2   7 698.218 97.5775   1
  -6  -2  -7 2430.21 120.390  -2
   6  -2   8 2430.21 120.390   1
  -6  -2  -8 9526.66 179.183  -2
   6  -2   9 9526.66 179.183   1
  -6  -2  -9 19612.6 225.404  -2
   6  -2  10 19612.6 225.404   1
  -6  -2 -10 2708.36 94.1943  -2
   6  -2  11 2708.36 94.1943   1
   6  -1 -11-17.1469 32.9479   1
   6  -1 -10 183.516 29.1252   1
   6  -1  -9 9.62612 26.3459   1
  -6  -1   8 447.683 75.8131  -2
   6  -1  -8 447.683 75.8131   1
   6  -1  -8 330.667 61.4312   1
  -6  -1   7 168.685 53.2189  -2
   6  -1  -7 168.685 53.2189   1
  -6  -1   6-7.07903 55.9156  -2
   6  -1  -6-7.07903 55.9156   1
  -6  -1   5 12.6172 55.9499  -2
   6  -1  -5 12.6172 55.9499   1
   6  -1  -5-0.89612 60.4307   1
  -6  -1   4 281.364 62.6272  -2
   6  -1  -4 281.364 62.6272   1
   6  -1  -4 159.779 62.3727   1
   6  -1  -3-12.4058 40.3259   1
   6  -1  -2 26.5000 51.6707   1
  -6  -1   1 15.3213 124.723  -2
   6  -1  -1 15.3213 124.723   1
   6  -1  -1 11.2095 65.0521   1
  -6  -1   0-2.71859 129.544  -2
   6  -1   0-2.71859 129.544   1
   6  -1   0 81.1052 70.5898   1
  -6  -1  -1 44.2034 133.475  -2
   6  -1   1 44.2034 133.475   1
   6  -1   1 15.4932 75.0466   1
   6  -1   2 50.3342 58.8318   1
   6  -1   3-37.2864 61.6553   1
   6  -1   4 55.3204 56.3160   1
   6  -1   5 45.0917 46.8306   1
   6  -1   6 21.7956 43.7816   1
   6  -1   7-38.7276 59.3097   1
   6  -1   8 17.3673 56.4117   1
   6  -1   9 17.6065 52.8787   1
   6  -1  10 50.2630 49.3711   1
   6  -1  11 42.3885 41.7368   1
  -6   0  11 632.582 63.1620  -2
   6   0 -11 632.582 63.1620   1
  -6   0  10 3312.33 80.2307  -2
   6   0 -10 3312.33 80.2307   1
  -6   0   9 1065.78 53.5216  -2
   6   0  -9 1065.78 53.5216   1
  -6   0   8 2500.37 89.2876  -2
   6   0  -8 2500.37 89.2876   1
  -6   0   7 60.8456 52.7306  -2
   6   0  -7 60.8456 52.7306   1
  -6   0   6 240.432 87.7078  -2
   6   0  -6 240.432 87.7078   1
  -6   0   5 475.282 66.3803  -2
   6   0  -5 475.282 66.3803   1
  -6   0   4 15672.1 305.272  -2
   6   0  -4 15672.1 305.272   1
  -6   0   3 1298.92 98.8915  -2
   6   0  -3 1298.92 98.8915   1
  -6   0   2 534.157 85.0945  -2
   6   0  -2 534.157 85.0945   1
  -6   0   1 4327.57 152.605  -2
   6   0  -1 4327.57 152.605   1
  -6   0   0 3396.74 141.930  -2
   6   0   0 3396.74 141.930   1
  -6   0  -1 3316.40 143.634  -2
   6   0   1 3316.40 143.634   1
  -6   0  -2 6529.19 181.682  -2
   6   0   2 6529.19 181.682   1
  -6   0  -3 34812.4 378.069  -2
   6   0   3 34812.4 378.069   1
  -6   0  -4 3866.40 145.032  -2
   6   0   4 3866.40 145.032   1
  -6   0  -5 228.653 75.5816  -2
   6   0   5 228.653 75.5816   1
  -6   0  -6 798.688 64.3218  -2
   6   0   6 798.688 64.3218   1
  -6   0  -7 2038.48 126.985  -2
   6   0   7 2038.48 126.985   1
  -6   0  -8 1507.99 112.578  -2
   6   0   8 1507.99 112.578   1
  -6   0  -9 654.756 87.2371  -2
   6   0   9 654.756 87.2371   1
  -6   0 -10 3607.03 125.063  -2
   6   0  10 3607.03 125.063   1
   6   1 -11 302.390 40.6782   1
   6   1 -10 159.405 33.1756   1
  -6   1   9 28.4519 68.2635  -2
   6   1  -9 28.4519 68.2635   1
   6   1  -9 21.4096 49.1137   1
  -6   1   8 486.444 82.6321  -2
   6   1  -8 486.444 82.6321   1
  -6   1   7 133.522 82.8207  -2
   6   1  -7 133.522 82.8207   1
  -6   1   6 58.8337 85.0396  -2
   6   1  -6 58.8337 85.0396   1
  -6   1   5-5.72002 93.0905  -2
   6   1  -5-5.72002 93.0905   1
   6   1  -5 19.8166 54.3860   1
   6   1  -4 104.170 63.1299   1
  -6   1   3 46.7330 122.703  -2
   6   1  -3 46.7330 122.703   1
   6   1  -3-45.0183 62.6733   1
  -6   1   2 24.8070 123.739  -2
   6   1  -2 24.8070 123.739   1
   6   1  -2 4.24227 59.4471   1
  -6   1   1 51.9640 127.213  -2
   6   1  -1 51.9640 127.213   1
   6   1  -1-47.2708 65.0929   1
  -6   1   0 77.0995 129.182  -2
   6   1   0 77.0995 129.182   1
   6   1   0-0.08143 62.5358   1
  -6   1  -1 162.480 94.4667  -2
   6   1   1 162.480 94.4667   1
   6   1   1 126.679 67.8623   1
  -6   1  -2 15.2640 136.737  -2
   6   1   2 15.2640 136.737   1
   6   1   2 2.83576 56.1654   1
   6   1   3 119.329 60.5912   1
   6   1   4 71.5510 54.4268   1
   6   1   5 174.105 51.7518   1
   6   1   6 6.06379 36.8285   1
   6   1   7 102.861 42.3058   1
   6   1   8 307.412 46.4313   1
   6   1   9 402.117 54.3013   1
   6   1  10-5.64829 42.4415   1
   6   2 -11 1026.92 54.2519   1
   6   2 -10 414.127 37.2762   1
   6   2  -9 3279.34 76.1744   1
   6   2  -8 2025.56 98.9237   1
   6   2  -7 1697.69 97.6015   1
   6   2  -6 4.84148 65.9244   1
   6   2  -5 2375.98 75.6463   1
   6   2  -4 14.4414 57.5965   1
   6   2  -3 253.682 53.0275   1
   6   2  -2 181.594 53.7466   1
   6   2  -1 2060.62 85.1594   1
   6   2   0 581.387 60.9553   1
  -6   2  -2 94.8580 143.341  -2
   6   2   1 94.8580 143.341   1
   6   2   1 9.91823 54.6895   1
  -6   2  -3 18393.1 357.236  -2
   6   2   2 18393.1 357.236   1
   6   2   2 4840.85 118.394   1
  -6   2  -4 15136.4 328.854  -2
   6   2   3 15136.4 328.854   1
   6   2   3 7436.93 177.670   1
  -6   2  -5 11991.2 295.759  -2
   6   2   4 11991.2 295.759   1
   6   2   4 8301.26 179.040   1
  -6   2  -6 7205.22 236.305  -2
   6   2   5 7205.22 236.305   1
   6   2   5 5688.38 145.846   1
  -6   2  -7 392.977 130.512  -2
   6   2   6 392.977 130.512   1
   6   2   6 470.366 68.7584   1
  -6   2  -8 1816.85 152.105  -2
   6   2   7 1816.85 152.105   1
   6   2   7 1065.62 68.4712   1
  -6   2  -9 6031.38 201.486  -2
   6   2   8 6031.38 201.486   1
   6   2   8 4018.07 101.544   1
  -6   2 -10 12787.5 216.998  -2
   6   2   9 12787.5 216.998   1
   6   2   9 7768.47 122.609   1
   6   3 -11 284.767 38.7903   1
   6   3 -10 164.048 31.2940   1
   6   3  -9 199.558 37.9524   1
   6   3  -8 3.33414 53.2006   1
   6   3  -7 61.9738 60.1934   1
   6   3  -6-31.3424 65.3162   1
   6   3  -5 156.746 56.9006   1
   6   3  -4-17.4437 56.5494   1
   6   3  -3 16.5846 46.8560   1
   6   3  -2 32.3587 48.6928   1
   6   3  -1-10.6649 51.2593   1
   6   3   0 71.3080 45.3830   1
   6   3   1 44.6473 45.8406   1
   6   3   2 4.34293 47.1663   1
   6   3   3 269.736 49.8801   1
   6   3   4 172.847 50.7241   1
   6   3   5 82.4164 49.0738   1
   6   3   6 74.4806 45.8697   1
   6   3   7 5.75843 74.5478   1
   6   3   8 68.4569 34.8539   1
   6   3   9 255.676 62.9109   1
   6   4 -10 406.073 33.3214   1
   6   4  -9 532.157 40.9002   1
   6   4  -8 952.745 76.7891   1
   6   4  -7 1036.80 82.2440   1
   6   4  -6 652.350 78.1543   1
   6   4  -5 4072.70 109.007   1
   6   4  -4 2314.95 93.2857   1
   6   4  -3 305.768 49.4042   1
   6   4  -2 112.970 48.8785   1
   6   4  -1 1660.25 75.8759   1
   6   4   0 2493.36 76.0110   1
   6   4   1 3839.98 88.3655   1
   6   4   2 5659.32 101.957   1
   6   4   3 3716.46 84.1948   1
   6   4   4 1361.81 59.1653   1
   6   4   5 33.7828 39.5324   1
   6   4   6 1036.01 47.5652   1
   6   4   7 2353.59 79.7990   1
   6   4   8 2171.26 67.6473   1
   6   5 -10 28.9798 35.8633   1
   6   5  -9-4.53225 28.9998   1
   6   5  -8-18.9221 33.6617   1
   6   5  -7 182.355 59.4015   1
   6   5  -6 163.348 64.0592   1
   6   5  -5 7.48773 46.8925   1
   6   5  -4 33.8496 50.2724   1
   6   5  -3 34.6253 50.4314   1
   6   5  -2 10.7282 44.3643   1
   6   5  -1 177.333 47.7397   1
   6   5   0 190.401 43.4070   1
   6   5   1 26.7623 41.1021   1
   6   5   2 190.315 42.3366   1
   6   5   3 305.991 44.0489   1
   6   5   4 63.1730 35.7872   1
   6   5   5 13.9442 31.9321   1
   6   5   6 104.219 75.3157   1
   6   5   7 88.2362 65.6225   1
   6   5   8 135.974 59.2464   1
   6   6  -9 2170.31 71.7004   1
   6   6  -8 39.0950 44.8742   1
   6   6  -7 3167.19 103.780   1
   6   6  -6 9796.99 175.945   1
   6   6  -5 2574.49 64.1163   1
   6   6  -4 58.6501 36.9747   1
   6   6  -3 2123.42 65.1865   1
   6   6  -2 5380.82 130.959   1
   6   6  -1 5263.24 131.267   1
   6   6   0 1152.15 66.3575   1
   6   6   1 4195.65 97.3590   1
   6   6   2 1295.82 64.5269   1
   6   6   3 1012.43 59.0634   1
   6   6   4 26.0476 40.6677   1
   6   6   5 19.0275 36.1421   1
   6   6   6 152.166 68.5730   1
   6   6   7 60.6262 56.8354   1
   6   7  -8 37.6018 37.4275   1
   6   7  -7 1.56520 43.4110   1
   6   7  -6 86.8215 50.1107   1
   6   7  -5 52.2978 27.8082   1
   6   7  -4 42.0650 32.4125   1
   6   7  -3 6.19619 34.6442   1
   6   7  -2 59.3414 49.6706   1
   6   7  -1 215.511 56.4227   1
   6   7   0 206.473 54.5815   1
   6   7   1 56.1894 42.7952   1
   6   7   2 451.868 47.8664   1
   6   7   3 467.417 44.8683   1
   6   7   4-5.54028 36.1536   1
   6   7   5 59.1137 32.4490   1
   6   7   6 10.0178 53.8023   1
   6   8  -7 2047.83 65.7103   1
   6   8  -6 5.32059 41.3529   1
   6   8  -5 335.838 27.4717   1
   6   8  -4 488.935 36.7198   1
   6   8  -3 1199.03 64.8852   1
   6   8  -2 9.70217 43.8612   1
   6   8  -1 557.960 56.0966   1
   6   8   0 1965.45 79.5912   1
   6   8   1 8.07821 41.5650   1
   6   8   2 299.345 41.1323   1
   6   8   3 674.634 43.2434   1
   6   8   4-0.57198 29.8848   1
   6   8   5 11.6427 50.3995   1
   6   9  -4 28.0414 25.6093   1
   6   9  -3 24.1312 37.5068   1
   6   9  -2 97.9632 40.1127   1
   6   9  -1 150.542 42.3549   1
   6   9   0-7.26767 39.4324   1
   6   9   1 155.484 41.1735   1
   6   9   2 267.406 39.0833   1
   6   9   3 19.3796 30.4125   1
   6  10  -3 389.257 35.4275   1
   6  10  -2 626.023 41.8939   1
   6  10  -1 23.1667 29.2320   1
   6  10   0 488.694 39.3643   1
   6  10   1 278.575 33.5532   1
   7  -8   0 765.731 46.9109   1
   7  -8   1 227.276 39.2192   1
   7  -7  -2 4.03724 34.4019   1
   7  -7  -1 30.5715 35.6445   1
   7  -7   0 28.4490 37.0280   1
   7  -6  -3 380.559 39.8939   1
   7  -6  -2 2378.39 80.2980   1
   7  -6  -1 294.147 46.5314   1
   7  -6   0 37.8047 40.3372   1
   7  -5  -4 371.913 39.9584   1
   7  -5  -3-8.71408 36.7041   1
   7  -5  -2 5.28826 38.6805   1
   7  -5  -1-0.79253 30.5197   1
   7  -5   0 22.9355 31.7263   1
   7  -5   1 9.60637 53.0941   1
   7  -5   2 169.988 38.9184   1
   7  -5   3 394.792 40.6460   1
   7  -5   4 156.011 50.1001   1
   7  -5   5 105.272 51.9205   1
   7  -4  -4 4415.69 87.0637   1
   7  -4  -3 4099.11 87.5603   1
   7  -4  -2 106.355 31.0710   1
   7  -4  -1 2269.68 57.7217   1
   7  -4   0 4059.40 72.6835   1
   7  -4   1 5682.52 97.6479   1
   7  -4   2 112.525 40.1764   1
   7  -4   3 1299.73 56.2653   1
   7  -4   4 4166.16 81.0169   1
   7  -4   5 1388.56 50.9375   1
   7  -4   6 121.607 48.8976   1
   7  -3  -4 88.4269 36.3057   1
   7  -3  -3 52.9870 46.3430   1
   7  -3  -2 47.5506 48.6837   1
   7  -3  -1-26.0079 49.4789   1
   7  -3   0 50.5384 40.2498   1
   7  -3   1 11.9095 40.6571   1
   7  -3   2 147.527 43.4342   1
   7  -3   3 211.571 43.2937   1
   7  -3   4 79.2821 38.4544   1
   7  -3   5 399.890 40.4592   1
   7  -3   6 86.9874 54.6226   1
   7  -3   7 58.6124 47.3784   1
   7  -2  -5 1196.84 54.0155   1
   7  -2  -4 220.285 30.4617   1
   7  -2  -3 3312.97 94.6604   1
   7  -2  -2 1392.15 77.3739   1
   7  -2  -1 417.350 64.1216   1
   7  -2   0 69.6761 42.9227   1
   7  -2   1 2544.26 77.1711   1
   7  -2   2 2343.47 76.8799   1
   7  -2   3 458.124 49.9755   1
   7  -2   4 463.765 46.6876   1
   7  -2   5 1132.82 54.3397   1
   7  -2   6 1508.69 87.4544   1
   7  -2   7 414.337 57.9015   1
  -7  -1   6-8.62814 45.9668  -2
   7  -1  -6-8.62814 45.9668   1
  -7  -1   5 2.10935 48.9233  -2
   7  -1  -5 2.10935 48.9233   1
  -7  -1   4 34.5803 55.8778  -2
   7  -1  -4 34.5803 55.8778   1
   7  -1  -4 13.4879 39.9784   1
  -7  -1   3 18.2014 55.2293  -2
   7  -1  -3 18.2014 55.2293   1
   7  -1  -3 0.10255 47.7450   1
  -7  -1   2 15.6420 63.4606  -2
   7  -1  -2 15.6420 63.4606   1
   7  -1  -2 18.0027 49.0707   1
  -7  -1   1 7.32328 50.5053  -2
   7  -1  -1 7.32328 50.5053   1
   7  -1  -1 33.6948 52.1906   1
  -7  -1   0 125.211 87.2641  -2
   7  -1   0 125.211 87.2641   1
   7  -1   0 15.8173 35.8254   1
  -7  -1  -1 86.2705 91.9081  -2
   7  -1   1 86.2705 91.9081   1
   7  -1   1 56.7098 56.0468   1
   7  -1   2 2.93610 42.7317   1
   7  -1   3-2.91175 40.7033   1
   7  -1   4-19.2040 39.4309   1
   7  -1   5 120.415 37.3994   1
   7  -1   6 140.985 56.9556   1
   7  -1   7-3.66235 47.1692   1
  -7   0   7 4127.22 103.965  -2
   7   0  -7 4127.22 103.965   1
  -7   0   6 2458.30 96.3214  -2
   7   0  -6 2458.30 96.3214   1
  -7   0   5 286.852 60.6097  -2
   7   0  -5 286.852 60.6097   1
  -7   0   4 1136.66 60.0906  -2
   7   0  -4 1136.66 60.0906   1
  -7   0   3 352.156 49.1621  -2
   7   0  -3 352.156 49.1621   1
  -7   0   2 198.127 48.7715  -2
   7   0  -2 198.127 48.7715   1
  -7   0   1 43.0961 38.5892  -2
   7   0  -1 43.0961 38.5892   1
  -7   0   0 68.1598 57.1978  -2
   7   0   0 68.1598 57.1978   1
  -7   0  -1 3126.99 109.521  -2
   7   0   1 3126.99 109.521   1
  -7   0  -2 6024.72 141.546  -2
   7   0   2 6024.72 141.546   1
  -7   0  -3 6426.02 140.928  -2
   7   0   3 6426.02 140.928   1
  -7   0  -4 26.0374 53.4154  -2
   7   0   4 26.0374 53.4154   1
  -7   0  -5 4700.52 107.556  -2
   7   0   5 4700.52 107.556   1
  -7   0  -6 18449.1 304.762  -2
   7   0   6 18449.1 304.762   1
  -7   0  -7 1563.29 101.022  -2
   7   0   7 1563.29 101.022   1
  -7   1   7 163.068 45.3112  -2
   7   1  -7 163.068 45.3112   1
  -7   1   6 23.5033 49.8466  -2
   7   1  -6 23.5033 49.8466   1
  -7   1   5 49.9858 55.2759  -2
   7   1  -5 49.9858 55.2759   1
  -7   1   4 39.5760 60.0523  -2
   7   1  -4 39.5760 60.0523   1
   7   1  -4 29.1624 41.9613   1
  -7   1   3 4.81885 59.9400  -2
   7   1  -3 4.81885 59.9400   1
   7   1  -3 28.8548 44.2002   1
  -7   1   2-1.97219 63.0033  -2
   7   1  -2-1.97219 63.0033   1
   7   1  -2 1.79655 45.0950   1
  -7   1   1 2.45748 84.9534  -2
   7   1  -1 2.45748 84.9534   1
   7   1  -1 10.1916 48.5037   1
  -7   1   0 64.4561 90.6345  -2
   7   1   0 64.4561 90.6345   1
   7   1   0 63.9163 54.2985   1
  -7   1  -1 134.022 89.3274  -2
   7   1   1 134.022 89.3274   1
   7   1   1 58.0424 49.3538   1
   7   1   2-1.07205 39.5214   1
   7   1   3 37.0842 37.9892   1
   7   1   4 35.5521 34.9814   1
   7   1   5-18.1916 33.9619   1
   7   1   6-3.38362 47.9464   1
   7   2  -7 1095.05 36.6159   1
   7   2  -6 1793.69 67.2244   1
   7   2  -5 400.974 49.5614   1
   7   2  -4 1930.18 52.8913   1
   7   2  -3 1703.46 53.4388   1
   7   2  -2 698.816 60.2678   1
   7   2  -1 279.289 41.8251   1
   7   2   0 2230.65 68.3582   1
   7   2   1 3486.88 79.8647   1
   7   2   2 868.396 50.6830   1
   7   2   3 310.253 40.0848   1
   7   2   4 2380.87 61.8995   1
   7   2   5 3261.17 100.749   1
   7   3  -7 349.916 37.4493   1
   7   3  -6 48.7986 37.5262   1
   7   3  -5 112.662 42.4190   1
   7   3  -4-0.55643 27.8060   1
   7   3  -3 12.9770 30.2909   1
   7   3  -2 102.630 42.4355   1
   7   3  -1 21.7479 46.4901   1
   7   3   0 274.112 40.3741   1
   7   3   1 388.453 40.4394   1
   7   3   2-1.03617 34.3893   1
   7   3   3 110.714 32.6551   1
   7   3   4 155.738 30.2727   1
   7   4  -6 677.763 46.9909   1
   7   4  -5 4332.04 93.6113   1
   7   4  -4 1391.45 42.1674   1
   7   4  -3 76.6496 28.7838   1
   7   4  -2 393.913 49.3223   1
   7   4  -1 4128.84 97.6422   1
   7   4   0 1137.51 64.0096   1
   7   4   1 36.5296 31.5782   1
   7   4   2 2236.19 55.0769   1
   7   4   3 1944.72 48.4111   1
   7   5  -5-14.6983 34.7032   1
   7   5  -4 57.1653 37.9121   1
   7   5  -3 59.6231 26.4850   1
   7   5  -2-18.1059 35.4844   1
   7   5  -1 298.098 42.4711   1
   7   5   0 284.770 43.0866   1
   7   5   1 146.469 38.2781   1
   7   5   2 194.280 39.2710   1
   7   6  -4 45.2727 32.5068   1
   7   6  -3 696.228 46.9046   1
   7   6  -2 2575.95 48.8216   1
   7   6  -1 114.669 34.0694   1
   7   6   0 445.424 40.3976   1
   7   6   1 716.260 43.3920   1
  -7  -4  -3 3288.30 98.0741   2
  -7  -4  -2 3602.63 70.2536   2
  -7  -4  -1 27.0795 35.2934   2
  -7  -4   0 1760.15 59.3805   2
  -7  -4   1 5910.12 126.819   2
  -7  -4   2 565.285 60.8703   2
  -7  -4   3 96.5111 48.0435   2
  -7  -3  -5 419.804 57.9036   2
  -7  -3  -4 300.083 35.6797   2
  -7  -3  -3 176.335 36.9502   2
  -7  -3  -2 20.7965 36.8196   2
  -7  -3  -1 641.008 49.7489   2
  -7  -3   0 410.723 45.9306   2
  -7  -3   1 26.6827 38.1872   2
  -7  -3   2 106.330 55.9724   2
  -7  -3   3 8.89669 47.8287   2
  -7  -3   4 32.1861 44.7701   2
  -7  -2  -6 296.172 54.9672   2
  -7  -2  -5 5742.77 135.346   2
  -7  -2  -4 3773.00 74.0808   2
  -7  -2  -3 538.630 46.6159   2
  -7  -2  -2 1391.14 62.0034   2
  -7  -2  -1 5362.97 100.568   2
  -7  -2   0 3543.37 86.7045   2
  -7  -2   1 351.298 46.4152   2
  -7  -2   2 1068.70 77.8007   2
  -7  -2   3 2646.88 94.5812   2
  -7  -2   4 2812.69 87.5853   2
  -7  -2   5 586.248 48.9857   2
  -7  -2   7 1068.16 51.8299   2
  -7  -1  -6 44.7493 53.0058   2
  -7  -1  -5-12.5566 34.7662   2
  -7  -1  -4 69.2452 37.8053   2
  -7  -1  -3 0.06337 41.2274   2
  -7  -1  -2 14.7782 42.4053   2
  -7  -1  -1 72.9437 55.9111   2
  -7  -1   0 78.7041 36.0840   2
  -7  -1   1-13.2842 53.3510   2
  -7  -1   2-14.3630 57.1734   2
  -7  -1   3-0.77895 49.9139   2
  -7  -1   4-7.42323 48.5888   2
  -7  -1   5 70.8652 38.7676   2
  -7   1  -7-13.4034 46.9841   2
  -7   1  -6 263.027 61.1214   2
  -7   1  -5 192.959 39.7544   2
  -7   1  -4 21.2519 38.2367   2
  -7   1  -3 13.4660 42.4515   2
  -7   1  -2 15.6528 42.0503   2
  -7   1  -1 63.2842 56.3950   2
  -7   1   0 3.68043 57.7591   2
  -7   1   1 15.5869 51.0041   2
  -7   1   2 50.2604 49.7563   2
  -7   1   3 25.8033 47.0255   2
  -7   1   4 60.0395 45.7080   2
  -7   2  -7 772.779 61.3893   2
  -7   2  -6 2147.99 57.2827   2
  -7   2  -5 1696.09 57.6040   2
  -7   2  -4 677.192 47.6315   2
  -7   2  -3 687.466 50.4249   2
  -7   2  -2 3667.54 85.6274   2
  -7   2  -1 3985.02 87.8202   2
  -7   2   0 45.4445 41.8802   2
  -7   2   1 554.590 65.2815   2
  -7   2   2 1781.89 59.1652   2
  -7   2   3 4029.54 74.2895   2
  -7   2   4 282.231 34.7179   2
  -7   2   5 1563.01 72.2751   2
  -7   2   6 1447.20 61.5006   2
  -7   2   7 152.899 23.9764   2
  -7   3  -6 179.588 33.7966   2
  -7   3  -5 616.424 42.4146   2
  -7   3  -4 120.909 38.1750   2
  -7   3  -3 330.572 42.7606   2
  -7   3  -2 232.691 41.2489   2
  -7   3  -1 4.14109 39.6225   2
  -7   3   0 56.3661 52.6521   2
  -7   3   1 39.9414 47.2402   2
  -7   3   2 6.52303 35.0350   2
  -7   3   3 108.734 33.7817   2
  -7   3   4 170.533 48.5972   2
  -7   3   5 231.840 45.4288   2
  -7   3   6 19.2577 24.2215   2
  -7   4  -6 195.663 40.8335   2
  -7   4  -5 2069.07 55.0567   2
  -7   4  -4 6532.30 90.9387   2
  -7   4  -3 1984.02 60.7390   2
  -7   4  -2 197.708 40.2131   2
  -7   4  -1 8602.69 147.863   2
  -7   4   0 7490.84 138.826   2
  -7   4   1 3940.85 102.487   2
  -7   4   2 172.882 34.3800   2
  -7   4   3 6738.68 83.7201   2
  -7   4   4 6796.00 124.102   2
  -7   4   5 2855.68 78.1756   2
  -7   4   6 80.0206 32.1755   2
  -7   5  -6 670.285 45.2853   2
  -7   5  -5 247.280 43.3096   2
  -7   5  -4 203.929 47.8162   2
  -7   5  -3 626.622 58.5036   2
  -7   5  -2 267.144 50.5668   2
  -7   5  -1 6.30494 46.8953   2
  -7   5   0 36.4512 43.3911   2
  -7   5   1-6.72101 42.7482   2
  -7   5   2 62.2552 29.8312   2
  -7   5   3-16.6392 42.0584   2
  -7   5   4 503.501 48.4607   2
  -7   5   5 21.4399 33.5055   2
  -7   6  -5 3932.27 82.5981   2
  -7   6  -4 468.555 47.6962   2
  -7   6  -3 870.832 55.5508   2
  -7   6  -2 5133.23 103.546   2
  -7   6  -1 947.453 59.5178   2
  -7   6   0 130.921 43.1867   2
  -7   6   1 584.987 36.0117   2
  -7   6   2 5145.02 66.2288   2
  -7   6   3 612.006 48.4548   2
  -7   6   4 101.636 34.3820   2
  -7   7  -5 170.065 34.3375   2
  -7   7  -4 756.617 47.5969   2
  -7   7  -3 549.159 46.4471   2
  -7   7  -2 10.5467 36.2882   2
  -7   7  -1 80.5518 37.5216   2
  -7   7   0 9.85903 34.0412   2
  -7   7   1 102.658 24.7669   2
  -7   7   2-22.0931 33.4420   2
  -7   8  -3 1091.66 47.0475   2
  -7   8  -2 304.061 37.7880   2
  -7   8  -1 484.215 39.4769   2
  -6 -10   3 503.440 51.3383   2
  -6 -10   4 68.8767 39.1927   2
  -6 -10   5 158.092 39.3780   2
  -6  -9  -3 92.6588 44.0941   2
  -6  -9  -2 579.808 56.1400   2
  -6  -9  -1 396.520 54.5910   2
  -6  -9   0 20.2630 45.4403   2
  -6  -9   4 8.12492 47.0936   2
  -6  -9   5-7.15640 46.9720   2
  -6  -9   6-9.15532 39.2966   2
  -6  -9   7 99.4783 36.8955   2
  -6  -8  -5 13.0992 44.4893   2
  -6  -8  -4 47.0965 47.4195   2
  -6  -8  -2 580.180 62.3304   2
  -6  -8  -1 42.9826 53.5117   2
  -6  -8   0 3828.05 106.344   2
  -6  -8   5 331.800 57.1439   2
  -6  -8   6-10.3428 46.6240   2
  -6  -8   7 2344.71 78.2859   2
  -6  -8   8 1558.07 62.1334   2
  -6  -7  -6 49.4346 46.6046   2
  -6  -7  -5 153.417 53.6835   2
  -6  -7  -4 23.2399 52.9192   2
  -6  -7  -3 963.945 74.2992   2
  -6  -7  -2 755.776 71.6430   2
  -6  -7   0 435.918 63.8165   2
  -6  -7   5 65.5192 56.7898   2
  -6  -7   6 90.9362 54.5442   2
  -6  -7   7 15.3941 45.2133   2
  -6  -7   8 15.5333 26.3402   2
  -6  -7   9 72.8891 36.8213   2
  -6  -6  -7 159.721 49.3258   2
  -6  -6  -6 336.643 60.4079   2
  -6  -6  -5 16.9082 43.1208   2
  -6  -6  -4 18.3537 44.1214   2
  -6  -6  -3 1655.25 70.1215   2
  -6  -6  -2 2281.90 63.0405   2
  -6  -6  -1 7517.46 98.8131   2
  -6  -6   0 1990.77 79.7427   2
  -6  -6   1 9266.82 140.184   2
  -6  -6   2 9365.28 140.123   2
  -6  -6   3 3188.57 129.191   2
  -6  -6   4 100.892 69.1231   2
  -6  -6   5 2917.38 111.547   2
  -6  -6   6 11183.6 184.012   2
  -6  -6   7 3354.54 104.200   2
  -6  -6   8 13.7800 46.4702   2
  -6  -6   9 2206.79 75.9620   2
  -6  -6  10 1935.41 62.4375   2
  -6  -5  -8 266.412 50.5786   2
  -6  -5  -7 238.798 58.8145   2
  -6  -5  -6 153.207 61.5144   2
  -6  -5  -5 29.5747 61.6613   2
  -6  -5  -4 105.312 38.7268   2
  -6  -5  -3 569.557 46.1590   2
  -6  -5  -2 400.962 45.8960   2
  -6  -5  -1 85.6649 42.2362   2
  -6  -5   0 228.893 57.6757   2
  -6  -5   1 249.078 56.9221   2
  -6  -5   2 10.6286 53.8806   2
  -6  -5   3 64.5116 52.1851   2
  -6  -5   4 3.78807 66.9540   2
  -6  -5   5 45.2830 44.1474   2
  -6  -5   6 237.741 62.0818   2
  -6  -5   7 255.974 57.9808   2
  -6  -5   8 221.688 36.1677   2
  -6  -5   9 37.9134 44.7126   2
  -6  -5  10 19.3847 35.7995   2
  -6  -4  -9 130.759 48.1364   2
  -6  -4  -8 5058.91 120.353   2
  -6  -4  -7 5057.82 130.326   2
  -6  -4  -6 1949.78 101.045   2
  -6  -4  -5 67.6700 65.1514   2
  -6  -4  -4 2474.46 79.0561   2
  -6  -4  -3 6600.33 118.412   2
  -6  -4  -2 9943.54 122.851   2
  -6  -4  -1 6336.61 137.543   2
  -6  -4   0 3999.03 113.302   2
  -6  -4   1 2765.11 100.095   2
  -6  -4   2 243.975 61.3450   2
  -6  -4   3 458.181 63.1629   2
  -6  -4   4 3580.90 138.917   2
  -6  -4   5 5616.32 106.276   2
  -6  -4   6 867.389 55.1124   2
  -6  -4   7 1234.46 79.8432   2
  -6  -4   8 1100.83 70.9487   2
  -6  -4   9 552.857 38.0437   2
  -6  -4  10 455.316 31.7773   2
  -6  -3  -9 458.282 59.5963   2
  -6  -3  -8 155.826 61.1234   2
  -6  -3  -7 36.7246 61.9031   2
  -6  -3  -6 89.9040 67.5303   2
  -6  -3  -5 47.0318 47.0908   2
  -6  -3  -4 244.543 50.9696   2
  -6  -3  -3 490.319 58.2443   2
  -6  -3  -2 17.3913 76.6637   2
  -6  -3  -1 106.117 58.7364   2
  -6  -3   0 168.929 61.9128   2
  -6  -3   1-19.1963 58.5051   2
  -6  -3   2 89.5701 58.3576   2
  -6  -3   3 11.7600 55.6247   2
  -6  -3   4 11.6238 36.9824   2
  -6  -3   5 191.990 37.3716   2
  -6  -3   6-19.0877 34.0404   2
  -6  -3   7 83.8752 37.8294   2
  -6  -3   8 44.4925 35.5106   2
  -6  -3   9 144.921 35.1524   2
  -6  -3  10 118.863 28.2624   2
  -6  -3  11 290.159 37.9986   2
  -6  -2  -5 9888.16 193.598   2
  -6  -2  -4 15664.0 236.409   2
  -6  -2  -2 8475.33 205.323   2
  -6  -2  -1 43.8817 59.0824   2
  -6  -2   0 824.444 73.5667   2
  -6  -2   1 3289.53 107.754   2
  -6  -2   2 204.312 60.7435   2
  -6  -2   3 419.603 39.4011   2
  -6  -2   4 21.9833 34.5972   2
  -6  -2   5 3160.25 69.7990   2
  -6  -2   6 43.3536 34.8106   2
  -6  -2   7 1884.37 65.6339   2
  -6  -2   8 2319.72 66.0699   2
  -6  -2   9 3518.32 59.7117   2
  -6  -2  10 464.694 35.7751   2
  -6  -2  11 1034.14 53.1343   2
  -6  -1 -10 31.5624 46.4948   2
  -6  -1  -9 869.192 74.7524   2
  -6  -1  -8 623.008 73.7813   2
  -6  -1  -7 155.727 67.5052   2
  -6  -1  -6 72.5248 46.0685   2
  -6  -1  -5 303.111 51.0138   2
  -6  -1  -4 156.973 78.8000   2
  -6  -1  -3 277.732 66.1987   2
  -6  -1  -2 59.3241 80.0453   2
  -6  -1  -1 94.2164 75.4974   2
  -6  -1   0 31.6539 72.9418   2
  -6  -1   1-12.2666 73.9695   2
  -6  -1   2-11.9812 58.4624   2
  -6  -1   3 26.8322 55.1418   2
  -6  -1   4 105.772 53.9764   2
  -6  -1   5 6.27792 61.8809   2
  -6  -1   6-85.3953 61.2618   2
  -6  -1   8 3.94858 52.8903   2
  -6  -1   9 25.9852 28.6659   2
  -6  -1  10 199.739 30.9115   2
  -6  -1  11 279.782 40.7422   2
  -6   1 -10 92.8870 49.3254   2
  -6   1  -9 11.7549 44.1503   2
  -6   1  -8 8.63515 47.0549   2
  -6   1  -7 35.7912 52.0633   2
  -6   1  -6 18.2088 41.3921   2
  -6   1  -5 12.1460 52.4467   2
  -6   1  -4 36.9700 58.9742   2
  -6   1  -3 32.9213 60.3203   2
  -6   1  -2 5.17712 60.3245   2
  -6   1  -1 33.0460 75.0957   2
  -6   1   0 53.5175 69.4179   2
  -6   1   1 13.4400 71.4859   2
  -6   1   2 55.6636 65.6646   2
  -6   1   3-18.8717 67.3453   2
  -6   1   4 296.532 73.9457   2
  -6   1   5-59.7187 60.0209   2
  -6   1   9 68.4367 50.2620   2
  -6   1  10 222.249 47.3429   2
  -6   1  11 12.2555 34.6436   2
  -6   2 -10 3162.07 95.7814   2
  -6   2  -9 1418.55 82.7772   2
  -6   2  -8 786.878 73.2771   2
  -6   2  -7 12.6332 43.2104   2
  -6   2  -6 1541.28 92.6579   2
  -6   2  -5 3162.34 123.769   2
  -6   2  -4 7009.33 174.857   2
  -6   2  -3 12813.8 225.795   2
  -6   2  -2 195.851 59.1855   2
  -6   2  -1 20.2978 49.7479   2
  -6   2   0 291.648 60.7349   2
  -6   2   1 1072.15 72.4901   2
  -6   2   2 115.132 52.5752   2
  -6   2   3 217.850 54.8489   2
  -6   2   4 6945.07 159.255   2
  -6   2   5 1927.97 70.7394   2
  -6   2   6 249.571 73.6654   2
  -6   2   7 800.963 82.2536   2
  -6   2   8 5635.36 141.048   2
  -6   2   9 2893.43 69.3888   2
  -6   2  10 550.620 51.6194   2
  -6   3 -10 222.130 41.0240   2
  -6   3  -9 323.638 48.9605   2
  -6   3  -8 61.1436 46.9911   2
  -6   3  -7 64.5225 48.5069   2
  -6   3  -6 94.1689 53.5392   2
  -6   3  -5 969.050 73.2171   2
  -6   3  -4 58.0365 61.9501   2
  -6   3  -3-5.15262 49.9691   2
  -6   3  -2 36.2146 47.4805   2
  -6   3  -1 13.3855 48.1931   2
  -6   3   0 19.5428 52.4402   2
  -6   3   1 7.42926 51.6936   2
  -6   3   2-22.6245 49.1097   2
  -6   3   3 67.3979 63.3831   2
  -6   3   4 52.0853 60.6979   2
  -6   3   5 52.3129 68.6296   2
  -6   3   6 34.6265 61.3179   2
  -6   3   7 35.0239 60.1487   2
  -6   3   8 298.612 41.8018   2
  -6   3   9 271.805 35.8732   2
  -6   3  10-9.45034 37.8779   2
  -6   4 -10 838.982 48.9697   2
  -6   4  -9 2407.36 137.799   2
  -6   4  -8 4137.06 172.085   2
  -6   4  -7 1805.00 73.8361   2
  -6   4  -6 274.577 56.5083   2
  -6   4  -5 5777.14 101.141   2
  -6   4  -4 35808.5 236.858   2
  -6   4  -3 519.931 56.2427   2
  -6   4  -2 898.572 60.0285   2
  -6   4  -1 6142.86 110.749   2
  -6   4   0 11229.0 158.977   2
  -6   4   1 6397.28 98.1777   2
  -6   4   2 294.109 51.2168   2
  -6   4   3 10454.6 133.409   2
  -6   4   4 746.079 70.0204   2
  -6   4   5 241.878 76.2550   2
  -6   4   6 62.8006 61.1728   2
  -6   4   7 1508.29 86.6732   2
  -6   4   8 29.4060 33.1488   2
  -6   4   9 2639.30 56.8751   2
  -6   5 -11-4.86776 58.1375   2
  -6   5 -10 166.633 77.7613   2
  -6   5  -9 159.810 86.0936   2
  -6   5  -8-8.51691 51.2619   2
  -6   5  -7 2.17395 37.8147   2
  -6   5  -6 380.916 45.7717   2
  -6   5  -5 972.256 56.3200   2
  -6   5  -4 370.874 50.6054   2
  -6   5  -3 82.7165 45.6090   2
  -6   5  -2 222.606 48.2029   2
  -6   5  -1 68.1665 36.7057   2
  -6   5   0-4.57483 40.5181   2
  -6   5   1 52.8035 47.1083   2
  -6   5   2 19.4836 43.8635   2
  -6   5   3 196.494 45.2592   2
  -6   5   4-11.1469 45.8386   2
  -6   5   5 427.115 69.4606   2
  -6   5   6 104.007 57.1817   2
  -6   5   7 176.589 37.5430   2
  -6   5   8-0.08503 29.0306   2
  -6   6 -10 190.843 72.1762   2
  -6   6  -9 540.874 89.9505   2
  -6   6  -8 557.988 48.5882   2
  -6   6  -7 145.604 46.7005   2
  -6   6  -6 312.190 51.2646   2
  -6   6  -5 1166.88 70.3513   2
  -6   6  -4 10196.7 153.941   2
  -6   6  -3 3686.35 104.254   2
  -6   6  -2 716.545 67.8525   2
  -6   6  -1 741.412 48.5310   2
  -6   6   0 9343.20 126.692   2
  -6   6   1 12710.3 142.646   2
  -6   6   2 9792.15 124.410   2
  -6   6   3 1277.41 57.2563   2
  -6   6   4 9112.52 123.851   2
  -6   6   5 11143.3 126.320   2
  -6   6   6 4802.55 81.1110   2
  -6   6   7 30.5227 29.1563   2
  -6   6   8 2855.02 73.5019   2
  -6   7 -10 42.4136 62.0301   2
  -6   7  -9 18.0686 69.1289   2
  -6   7  -8 243.355 40.2869   2
  -6   7  -7 974.225 58.2337   2
  -6   7  -6 709.396 57.8302   2
  -6   7  -5 9.26937 46.4113   2
  -6   7  -4 90.1316 51.6015   2
  -6   7  -3 170.169 53.4296   2
  -6   7  -2-12.0543 43.1502   2
  -6   7  -1 14.7081 41.1099   2
  -6   7   0 16.7225 43.0071   2
  -6   7   1-0.55242 40.2383   2
  -6   7   2 9.00404 39.6089   2
  -6   7   3-23.0838 31.3678   2
  -6   7   4 3.87882 40.3125   2
  -6   7   5 162.986 36.0440   2
  -6   7   6 90.3487 41.8298   2
  -6   8  -9 846.958 81.7053   2
  -6   8  -8 4170.89 73.9209   2
  -6   8  -7 2170.34 66.7299   2
  -6   8  -6 39.4421 42.4513   2
  -6   8  -5 10531.1 138.039   2
  -6   8  -4 4897.23 102.449   2
  -6   8  -3 957.728 64.1566   2
  -6   8  -2 1254.26 56.2977   2
  -6   8  -1 4367.57 83.4088   2
  -6   8   0 7917.21 106.060   2
  -6   8   1 2597.02 67.6076   2
  -6   8   2 3162.70 68.0043   2
  -6   8   3 2460.04 66.2332   2
  -6   8   4 1882.86 55.2798   2
  -6   8   5 189.989 31.5903   2
  -6   9  -8 21.0009 30.1560   2
  -6   9  -7 684.715 43.9746   2
  -6   9  -6 196.655 40.6984   2
  -6   9  -5 70.3653 41.6200   2
  -6   9  -4 260.312 56.1488   2
  -6   9  -3 244.919 56.1369   2
  -6   9  -2 43.2070 35.7849   2
  -6   9  -1 10.1786 33.7855   2
  -6   9   0-18.3197 33.4569   2
  -6   9   1 31.2005 32.6971   2
  -6   9   2 35.2546 24.6466   2
  -6   9   3-17.4985 46.8090   2
  -6   9   4 161.356 46.8658   2
  -6  10  -7 660.438 46.4166   2
  -6  10  -6 5751.27 101.375   2
  -6  10  -5 1550.95 66.2465   2
  -6  10  -4 547.169 53.6728   2
  -6  10  -3 186.471 47.8396   2
  -6  10  -2 50.8425 30.9397   2
  -6  10  -1 120.116 30.4652   2
  -6  10   0-4.46976 28.9920   2
  -6  10   1 487.786 33.4030   2
  -6  10   2 211.607 44.8512   2
  -6  10   3 1733.67 63.8760   2
  -6  10   4 2821.75 67.3417   2
  -6  11  -6 50.1745 30.7548   2
  -6  11  -5-34.8138 35.0337   2
  -6  11  -4 128.015 39.4643   2
  -6  11  -3-1.85975 37.3312   2
  -6  11  -2 83.3870 37.5383   2
  -6  11  -1-17.9261 23.5299   2
  -6  11   0-5.34340 23.0432   2
  -6  11   1-10.0251 33.8140   2
  -6  11   2-14.7562 32.9559   2
  -5 -12   5 51.8084 43.8776   2
  -5 -12   6 142.079 42.3351   2
  -5 -12   7 931.385 50.1789   2
  -5 -11  -4 22.0861 54.0563   2
  -5 -11  -3-4.97490 58.2260   2
  -5 -11  -2 133.217 65.2998   2
  -5 -11  -1 12.9604 61.3166   2
  -5 -11   0-4.82654 65.0435   2
  -5 -11   1 88.2977 64.6014   2
  -5 -11   6-3.44495 50.2603   2
  -5 -11   7 17.8013 44.8251   2
  -5 -11   8 167.455 30.9531   2
  -5 -11   9 6.32146 33.5355   2
  -5 -10  -6 7696.35 137.529   2
  -5 -10  -5 3870.86 117.853   2
  -5 -10  -4 681.279 77.4637   2
  -5 -10  -3 362.288 77.9139   2
  -5 -10  -2 6205.62 162.662   2
  -5 -10  -1 5913.49 161.202   2
  -5 -10   0 2034.64 110.849   2
  -5 -10   1 2961.95 122.919   2
  -5 -10   2 2983.96 120.346   2
  -5 -10   7 37.7919 54.2271   2
  -5 -10   8 929.975 67.4807   2
  -5 -10   9 601.392 37.3424   2
  -5 -10  10-13.3299 24.8175   2
  -5  -9  -7 22.2949 54.8202   2
  -5  -9  -6 412.319 72.0028   2
  -5  -9  -5 47.2503 69.4413   2
  -5  -9  -4 310.422 79.4408   2
  -5  -9  -3 116.741 77.2978   2
  -5  -9  -2 110.207 76.3856   2
  -5  -9  -1 82.6211 76.9209   2
  -5  -9   0 22.0096 75.9802   2
  -5  -9   1-6.21961 74.0551   2
  -5  -9   2 520.271 83.4489   2
  -5  -9   3 7.74991 62.7916   2
  -5  -9   7 144.300 64.2864   2
  -5  -9   8 414.206 67.9494   2
  -5  -9   9 845.278 45.4705   2
  -5  -9  10 91.5549 29.7910   2
  -5  -9  11 88.9874 37.6800   2
  -5  -8  -8 163.227 57.3950   2
  -5  -8  -7 235.251 71.7026   2
  -5  -8  -6 3359.10 131.887   2
  -5  -8  -5 4691.27 158.241   2
  -5  -8  -4 992.460 102.558   2
  -5  -8  -3 386.828 87.8888   2
  -5  -8  -2 8063.89 203.913   2
  -5  -8  -1 14542.4 258.122   2
  -5  -8   0 27323.9 339.805   2
  -5  -8   1 350.782 84.7932   2
  -5  -8   2 14704.1 240.303   2
  -5  -8   3 28035.7 311.222   2
  -5  -8   4 16952.1 232.476   2
  -5  -8   7 16062.4 243.347   2
  -5  -8   8 6094.66 154.592   2
  -5  -8   9 1435.75 86.1277   2
  -5  -8  10 998.979 45.1306   2
  -5  -8  11 1253.25 41.1935   2
  -5  -7  -9 12.7501 55.7088   2
  -5  -7  -8 742.714 82.5201   2
  -5  -7  -7-7.91900 76.6682   2
  -5  -7  -6 82.1229 79.0893   2
  -5  -7  -5-27.9383 80.1431   2
  -5  -7  -4 198.065 86.6789   2
  -5  -7  -3-22.7735 79.8687   2
  -5  -7  -2 19.3762 57.5674   2
  -5  -7  -1 477.066 64.1147   2
  -5  -7   0 107.448 57.7826   2
  -5  -7   1 490.470 64.6060   2
  -5  -7   2 537.976 65.0022   2
  -5  -7   3 42.9642 50.8547   2
  -5  -7   4 33.9649 84.8016   2
  -5  -7   7 1164.37 97.3278   2
  -5  -7   8 1716.47 103.897   2
  -5  -7   9 72.5224 62.0017   2
  -5  -7  10 59.4111 35.7244   2
  -5  -7  11 19.7864 48.7218   2
  -5  -7  12 2471.38 75.8710   2
  -5  -6 -10 11340.5 170.748   2
  -5  -6  -9 9985.06 187.440   2
  -5  -6  -8 1018.63 100.448   2
  -5  -6  -7 15693.9 269.683   2
  -5  -6  -6 16366.9 286.877   2
  -5  -6  -5 9192.05 227.274   2
  -5  -6  -4 225.772 60.6068   2
  -5  -6  -3 4385.38 114.509   2
  -5  -6  -2 14641.0 189.599   2
  -5  -6  -1 22259.3 231.665   2
  -5  -6   0 4761.39 100.388   2
  -5  -6   1 3742.62 90.8717   2
  -5  -6   2 4041.52 107.975   2
  -5  -6   3 711.409 107.768   2
  -5  -6   4 1366.74 120.679   2
  -5  -6   5 2489.00 134.308   2
  -5  -6   6 3476.14 150.258   2
  -5  -6   7 1391.39 102.553   2
  -5  -6   8 4047.56 141.979   2
  -5  -6   9 4104.44 133.768   2
  -5  -6  10 61.2784 36.6266   2
  -5  -6  11 2150.41 92.8847   2
  -5  -6  12 2252.18 82.5916   2
  -5  -6  13 1207.78 55.5129   2
  -5  -5 -11 78.7283 52.8420   2
  -5  -5 -10 411.421 75.8142   2
  -5  -5  -9 211.601 79.9767   2
  -5  -5  -8 97.0683 84.3014   2
  -5  -5  -7 258.851 92.3363   2
  -5  -5  -6 123.441 89.2391   2
  -5  -5  -5 909.446 108.895   2
  -5  -5  -4 33.6337 58.8848   2
  -5  -5  -3 11.6912 61.1968   2
  -5  -5  -2 427.565 69.7993   2
  -5  -5  -1 75.8989 59.5413   2
  -5  -5   0 347.378 55.0830   2
  -5  -5   1 1046.30 61.7506   2
  -5  -5   2 47.8249 64.8661   2
  -5  -5   3 55.2571 63.2048   2
  -5  -5   4 575.956 74.8548   2
  -5  -5   5 107.030 93.0327   2
  -5  -5   6 214.531 81.1479   2
  -5  -5   7 2051.49 83.1821   2
  -5  -5   8 1038.97 64.4303   2
  -5  -5   9 145.750 69.1357   2
  -5  -5  10 102.543 41.5518   2
  -5  -5  11 1171.94 81.9207   2
  -5  -5  12 428.472 57.1903   2
  -5  -5  13 18.6754 39.0178   2
  -5  -4 -11 8434.89 161.077   2
  -5  -4 -10 3474.75 131.647   2
  -5  -4  -9 269.483 87.8327   2
  -5  -4  -8 16408.8 284.611   2
  -5  -4  -7 2283.24 136.142   2
  -5  -4  -6 3.67312 90.4532   2
  -5  -4  -5 3552.37 159.747   2
  -5  -4  -4 1479.75 82.7159   2
  -5  -4  -3 980.403 74.1753   2
  -5  -4  -2 151.739 61.9431   2
  -5  -4  -1 50905.1 336.988   2
  -5  -4   0 1046.32 74.8348   2
  -5  -4   1 2478.56 103.154   2
  -5  -4   2 12632.6 193.104   2
  -5  -4   3 21267.9 242.499   2
  -5  -4   4 12453.1 191.379   2
  -5  -4   5 154.717 99.7321   2
  -5  -4   6 21194.9 213.527   2
  -5  -4   7 14599.5 143.521   2
  -5  -4   8 7627.18 129.666   2
  -5  -4   9 217.580 50.9655   2
  -5  -4  10 2545.55 76.7269   2
  -5  -4  11 2746.35 72.9860   2
  -5  -4  12 1251.92 50.2394   2
  -5  -4  13 273.318 48.2029   2
  -5  -3 -12 560.741 63.6785   2
  -5  -3 -11 1913.32 103.745   2
  -5  -3 -10 668.821 91.8485   2
  -5  -3  -9 700.659 99.6609   2
  -5  -3  -8 317.930 94.3830   2
  -5  -3  -7 495.469 99.2743   2
  -5  -3  -6 113.062 91.0972   2
  -5  -3  -5 430.482 64.1667   2
  -5  -3  -4-13.0446 58.4740   2
  -5  -3  -3 260.829 60.6766   2
  -5  -3  -2 359.930 64.4847   2
  -5  -3  -1 8.70193 51.1362   2
  -5  -3   0 344.110 67.6975   2
  -5  -3   1 171.459 55.2447   2
  -5  -3   2 72.1845 52.4149   2
  -5  -3   3 7.22908 61.4072   2
  -5  -3   4-1.14596 47.7616   2
  -5  -3   5 924.762 59.8630   2
  -5  -3   6 372.630 50.5684   2
  -5  -3   7 1092.20 70.4878   2
  -5  -3   8 14.1875 50.9216   2
  -5  -3   9 14.0972 65.7336   2
  -5  -3  10 212.929 68.5658   2
  -5  -3  11 2015.65 98.1418   2
  -5  -3  12 15.7705 53.4120   2
  -5  -3  13 16.0978 43.5275   2
  -5  -2  -3 5454.59 176.451   2
  -5  -2  -2 54856.0 379.522   2
  -5  -2  -1 1852.50 95.2877   2
  -5  -2   0 737.202 76.9999   2
  -5  -2   1 2607.45 87.0139   2
  -5  -2   2 4826.15 110.307   2
  -5  -2   3 39.6218 51.3909   2
  -5  -2   4 1748.01 88.9350   2
  -5  -2   5 9024.77 128.857   2
  -5  -2   6-10.2304 43.7731   2
  -5  -2   7 1818.66 81.2294   2
  -5  -2   8 5970.84 120.759   2
  -5  -2   9 206.742 52.2971   2
  -5  -2  10 145.503 49.1251   2
  -5  -2  11 1301.34 62.4815   2
  -5  -2  12 1597.67 60.0660   2
  -5  -2  13 580.551 39.1059   2
  -5  -1 -13 1206.15 68.4035   2
  -5  -1 -12 333.985 69.2526   2
  -5  -1 -11 85.2412 72.8096   2
  -5  -1 -10 475.596 90.9343   2
  -5  -1  -9 1127.95 112.738   2
  -5  -1  -8 155.572 86.6459   2
  -5  -1  -7 91.3715 84.9356   2
  -5  -1  -6 864.055 103.115   2
  -5  -1  -5 40.1500 51.3090   2
  -5  -1  -4 193.382 50.0391   2
  -5  -1  -3 1.53943 48.7159   2
  -5  -1  -2 176.240 81.4077   2
  -5  -1  -1 161.180 63.2012   2
  -5  -1   0 144.272 63.5587   2
  -5  -1   1 58.7334 60.0433   2
  -5  -1   2 33.9902 53.0779   2
  -5  -1   3 253.248 65.2397   2
  -5  -1   4 303.414 59.3511   2
  -5  -1   5 31.2749 62.6692   2
  -5  -1   6 946.139 55.2227   2
  -5  -1   7 552.710 60.9742   2
  -5  -1   8 128.826 53.1479   2
  -5  -1   9 31.5730 48.2931   2
  -5  -1  10 780.065 49.3639   2
  -5  -1  11 220.208 45.7247   2
  -5  -1  12 361.556 43.0656   2
  -5  -1  13 168.061 32.3826   2
  -5   1 -13 55.7982 55.3313   2
  -5   1 -12 689.642 78.8711   2
  -5   1 -11 1075.39 92.8900   2
  -5   1 -10 677.168 95.1456   2
  -5   1  -9 507.913 92.4204   2
  -5   1  -8 1256.24 104.422   2
  -5   1  -7 112.244 81.0200   2
  -5   1  -6 603.625 59.7925   2
  -5   1  -5 104.471 51.5646   2
  -5   1  -4 96.7287 71.8414   2
  -5   1  -3 65.4513 63.8419   2
  -5   1  -2 251.294 67.9448   2
  -5   1  -1 122.634 63.5295   2
  -5   1   0-60.0126 60.4094   2
  -5   1   1 3.27841 42.9942   2
  -5   1   2 187.485 49.2867   2
  -5   1   3 33.4518 44.7994   2
  -5   1   4 569.320 55.0182   2
  -5   1   5 761.676 80.6210   2
  -5   1   7 364.353 84.3369   2
  -5   1   8 20.5332 50.9904   2
  -5   1   9 138.780 49.4894   2
  -5   1  10 1021.76 52.7522   2
  -5   1  11 490.849 48.4856   2
  -5   1  12 30.0060 35.7422   2
  -5   1  13 446.373 48.0220   2
  -5   2 -13 27.9361 55.3012   2
  -5   2 -12 1011.52 84.5379   2
  -5   2 -11 7225.08 176.262   2
  -5   2 -10 14678.5 248.333   2
  -5   2  -9 1460.17 107.206   2
  -5   2  -8 10187.4 215.045   2
  -5   2  -7 18315.3 181.360   2
  -5   2  -6 7859.20 126.290   2
  -5   2  -5 1150.59 68.2083   2
  -5   2  -4 4243.58 141.312   2
  -5   2  -3 74245.6 512.458   2
  -5   2  -2 277.156 79.7723   2
  -5   2  -1 125.715 52.6894   2
  -5   2   0 2898.23 70.7579   2
  -5   2   1 9303.09 111.332   2
  -5   2   2 972.384 57.2086   2
  -5   2   3 505.552 47.2193   2
  -5   2   4 9148.40 114.751   2
  -5   2   5 150.546 80.7459   2
  -5   2   6 2929.15 93.0549   2
  -5   2   7 11318.7 214.405   2
  -5   2   8 1062.25 65.3133   2
  -5   2   9 38.2710 46.8623   2
  -5   2  10 4792.53 83.3604   2
  -5   2  11 7736.72 110.023   2
  -5   2  12 3869.66 72.4070   2
  -5   3 -13 9.08492 52.8133   2
  -5   3 -12 32.6030 60.6922   2
  -5   3 -11 771.568 82.7058   2
  -5   3 -10 645.026 88.1801   2
  -5   3  -9 41.1396 73.8968   2
  -5   3  -8 224.940 77.0754   2
  -5   3  -7 2384.71 79.1921   2
  -5   3  -6 300.126 55.2529   2
  -5   3  -5-15.4338 65.5347   2
  -5   3  -4 114.923 70.4008   2
  -5   3  -3 815.638 60.2712   2
  -5   3  -2 800.671 59.1479   2
  -5   3  -1 147.746 49.0473   2
  -5   3   0 115.368 42.7509   2
  -5   3   1 50.5912 41.5261   2
  -5   3   2 277.382 47.9112   2
  -5   3   3 79.1027 45.5389   2
  -5   3   4 12.4015 49.6140   2
  -5   3   5 107.173 74.8015   2
  -5   3   6 793.446 67.6100   2
  -5   3   7 43.3820 81.4535   2
  -5   3   8 155.246 391.033   2
  -5   4 -13 1221.62 69.8477   2
  -5   4 -12 1743.29 90.1499   2
  -5   4 -11 809.685 81.4959   2
  -5   4 -10 5279.65 148.980   2
  -5   4  -9 1162.88 93.5775   2
  -5   4  -8 1.89593 69.1062   2
  -5   4  -7 8703.10 127.110   2
  -5   4  -6 6110.70 156.384   2
  -5   4  -5 7758.85 174.202   2
  -5   4  -4 3957.13 138.165   2
  -5   4  -3 65360.1 298.993   2
  -5   4  -2 36151.9 227.250   2
  -5   4  -1 11810.3 121.581   2
  -5   4   0 169.701 46.2107   2
  -5   4   1 23045.0 167.282   2
  -5   4   2 49514.3 240.683   2
  -5   4   3 32399.5 196.865   2
  -5   4   4 385.841 56.5468   2
  -5   4   5 15592.4 221.826   2
  -5   4   6 24654.6 208.200   2
  -5   4   7 4968.22 103.826   2
  -5   4   8 479.297 79.8245   2
  -5   4   9 4530.04 97.6640   2
  -5   4  10 4358.55 87.6353   2
  -5   4  11 1311.95 75.0486   2
  -5   5 -13 56.9084 47.3334   2
  -5   5 -12 1771.70 84.1497   2
  -5   5 -11 2072.06 98.5185   2
  -5   5 -10 101.695 66.0853   2
  -5   5  -9 301.438 72.3328   2
  -5   5  -8-4.80757 44.2630   2
  -5   5  -7 1103.03 62.1338   2
  -5   5  -6 33.1410 71.3626   2
  -5   5  -5 125.488 77.6949   2
  -5   5  -4 47.6298 63.4437   2
  -5   5  -3 550.676 57.4203   2
  -5   5  -2 1042.80 53.5100   2
  -5   5  -1 266.560 45.4094   2
  -5   5   0 236.465 44.8664   2
  -5   5   1 324.207 45.7381   2
  -5   5   2 21.6046 45.3684   2
  -5   5   3 658.345 60.9371   2
  -5   5   4 418.061 85.8063   2
  -5   5   5 353.793 82.9171   2
  -5   5   6 2120.81 80.2547   2
  -5   5   7 937.367 60.6161   2
  -5   5   8 379.627 40.3817   2
  -5   5   9-3.49825 40.0066   2
  -5   5  10 824.876 67.7003   2
  -5   6 -13 576.832 51.9175   2
  -5   6 -12 8212.56 140.359   2
  -5   6 -11 20691.8 232.674   2
  -5   6 -10 1638.93 90.1384   2
  -5   6  -9 4566.56 131.900   2
  -5   6  -8 20527.1 173.359   2
  -5   6  -7 34859.3 330.772   2
  -5   6  -6 14803.2 233.527   2
  -5   6  -5 185.525 84.0040   2
  -5   6  -4 63319.3 400.243   2
  -5   6  -3 23924.7 186.569   2
  -5   6  -2 11316.0 134.522   2
  -5   6  -1 54.2404 50.2399   2
  -5   6   0 10327.1 130.823   2
  -5   6   1 15998.6 148.522   2
  -5   6   2 7759.81 121.341   2
  -5   6   3 1139.08 63.5282   2
  -5   6   4 1371.58 100.922   2
  -5   6   5 143.190 53.2601   2
  -5   6   6 1930.42 74.6729   2
  -5   6   7 172.175 37.9255   2
  -5   6   8 275.214 35.8142   2
  -5   6   9 1454.66 54.6767   2
  -5   6  10 3041.02 84.1449   2
  -5   7 -13 189.999 71.8566   2
  -5   7 -12 291.982 49.9502   2
  -5   7 -11 612.771 62.3086   2
  -5   7 -10 35.9826 54.5805   2
  -5   7  -9 17.8244 57.3616   2
  -5   7  -8 1345.71 86.5652   2
  -5   7  -7 989.761 85.0478   2
  -5   7  -6 2.73202 68.6001   2
  -5   7  -5 377.250 71.4644   2
  -5   7  -4 384.044 69.6652   2
  -5   7  -3 2560.58 77.5498   2
  -5   7  -2 329.349 53.5481   2
  -5   7  -1 64.7511 47.7175   2
  -5   7   0 27.2706 48.7544   2
  -5   7   1 142.903 53.5311   2
  -5   7   2 20.0387 49.2865   2
  -5   7   3 47.9093 48.3193   2
  -5   7   4 632.953 84.0673   2
  -5   7   5 1872.69 75.4123   2
  -5   7   6 167.137 49.9949   2
  -5   7   7 446.315 46.9186   2
  -5   7   8 1386.97 51.5056   2
  -5   7   9-134.488 309.365   2
  -5   7  10 23.5496 239.979   2
  -5   8 -12 3538.06 69.6958   2
  -5   8 -11 138.510 43.7867   2
  -5   8 -10 187.369 52.2089   2
  -5   8  -9 1766.78 80.4126   2
  -5   8  -8 130.871 63.7023   2
  -5   8  -7 192.911 57.6013   2
  -5   8  -6 3747.41 110.562   2
  -5   8  -5 5280.49 128.869   2
  -5   8  -4 9424.66 163.551   2
  -5   8  -3 15017.4 149.684   2
  -5   8  -2 12590.1 138.594   2
  -5   8  -1 1526.39 66.3788   2
  -5   8   0 3158.35 92.0021   2
  -5   8   1 23193.7 200.512   2
  -5   8   2 33686.7 218.439   2
  -5   8   3 4431.67 91.3851   2
  -5   8   4 2823.49 83.6510   2
  -5   8   5 13953.9 142.933   2
  -5   8   6 7073.50 140.136   2
  -5   8   7 4609.13 105.261   2
  -5   8   8 346.759 48.1903   2
  -5   8   9 1220.05 267.023   2
  -5   9 -12 637.279 75.7995   2
  -5   9 -11 82.4096 77.4490   2
  -5   9 -10-0.68416 84.7227   2
  -5   9  -9 39.0799 43.8753   2
  -5   9  -8 403.156 56.3193   2
  -5   9  -7 37.1819 50.4501   2
  -5   9  -6 46.0041 57.1085   2
  -5   9  -5 11.1419 59.6345   2
  -5   9  -4 279.416 67.4693   2
  -5   9  -3 885.290 57.9720   2
  -5   9  -2 17.2596 43.1168   2
  -5   9  -1 98.2265 53.8598   2
  -5   9   0 114.918 53.0382   2
  -5   9   1-5.83574 50.3043   2
  -5   9   2 128.953 44.8149   2
  -5   9   3 384.484 79.1094   2
  -5   9   4 1197.82 89.6517   2
  -5   9   5 1110.33 79.0164   2
  -5   9   6 942.101 68.8847   2
  -5   9   7 337.516 50.8594   2
  -5   9   8 269.391 278.616   2
  -5  10 -11 1790.50 95.8278   2
  -5  10 -10 454.758 83.7640   2
  -5  10  -9 193.418 42.2517   2
  -5  10  -8 4285.14 92.2555   2
  -5  10  -7 3766.26 95.7208   2
  -5  10  -6 908.207 65.3981   2
  -5  10  -5 3686.40 103.149   2
  -5  10  -4 1796.66 82.7593   2
  -5  10  -3 505.051 48.5172   2
  -5  10  -2 1141.74 62.0180   2
  -5  10  -1 2461.94 77.8366   2
  -5  10   0 2491.75 75.9973   2
  -5  10   1 146.662 45.5271   2
  -5  10   2 6626.08 100.512   2
  -5  10   3 6271.83 143.333   2
  -5  10   4 1271.21 81.5902   2
  -5  10   5 1938.14 82.6119   2
  -5  10   6 3278.66 85.2607   2
  -5  10   7 4203.87 79.4921   2
  -5  11  -9 90.3050 33.6095   2
  -5  11  -8 57.2214 39.3065   2
  -5  11  -7 29.0204 42.2461   2
  -5  11  -6 537.784 71.0783   2
  -5  11  -5 0.79715 62.9728   2
  -5  11  -4 903.902 85.5494   2
  -5  11  -3 146.198 42.7209   2
  -5  11  -2 34.6447 44.3627   2
  -5  11  -1 7.67853 40.8548   2
  -5  11   0 22.3268 42.1899   2
  -5  11   1 120.406 40.7546   2
  -5  11   2 104.203 62.4168   2
  -5  11   3 334.924 63.0143   2
  -5  11   4 889.772 66.4798   2
  -5  11   5 36.6790 47.1877   2
  -5  11   6 1027.62 52.4879   2
  -5  12  -8 140.751 40.3332   2
  -5  12  -7 2786.44 85.7946   2
  -5  12  -6 5895.73 121.563   2
  -5  12  -5 117.809 60.1807   2
  -5  12  -4 1687.42 86.2949   2
  -5  12  -3 4662.68 78.9157   2
  -5  12  -2 1173.27 52.8518   2
  -5  12  -1 13.1509 37.3529   2
  -5  12   0 3667.19 71.2943   2
  -5  12   1 8805.55 93.3861   2
  -5  12   2 1735.68 77.6914   2
  -5  12   3 1957.04 75.4893   2
  -5  12   4 7986.96 114.683   2
  -5  13  -7 12.2251 35.7646   2
  -5  13  -6 49.7748 43.7110   2
  -5  13  -5 249.054 50.6198   2
  -5  13  -4 52.9712 46.3811   2
  -5  13  -3 3.92798 47.1144   2
  -5  13  -2-11.8354 30.3602   2
  -5  13  -1 30.6337 28.5805   2
  -5  13   0 6.82416 28.1714   2
  -5  13   1 21.7556 41.0917   2
  -5  13   2 90.0794 40.4413   2
  -5  13   3 571.347 43.9223   2
  -5  14  -5 3684.75 72.7944   2
  -5  14  -4 4124.60 78.8225   2
  -5  14  -3 67.9526 33.5386   2
  -4 -14   5 1073.77 59.5410   2
  -4 -13  -3-19.3786 59.0782   2
  -4 -13  -2-2.64446 63.0694   2
  -4 -13  -1-8.26063 67.5643   2
  -4 -13   5 66.5867 53.1170   2
  -4 -13   7 9.74192 47.3087   2
  -4 -13   8 10.0875 43.5830   2
  -4 -13   9 75.2120 39.2445   2
  -4 -12  -5 9643.51 167.182   2
  -4 -12  -4 2509.75 112.746   2
  -4 -12  -3 606.041 88.4184   2
  -4 -12  -2 1118.07 104.701   2
  -4 -12  -1 3454.28 142.736   2
  -4 -12   0 1849.69 119.147   2
  -4 -12   1 45.1149 81.5794   2
  -4 -12   2 7221.61 188.293   2
  -4 -12   7 688.753 68.9367   2
  -4 -12   8 186.241 40.1438   2
  -4 -12   9 6234.45 126.528   2
  -4 -12  10 1645.24 69.2849   2
  -4 -12  11 365.635 40.6192   2
  -4 -11  -7 824.362 73.7176   2
  -4 -11  -6 13.1366 64.3678   2
  -4 -11  -5 133.810 77.8076   2
  -4 -11  -4 211.534 85.9425   2
  -4 -11  -3-26.9527 83.4463   2
  -4 -11  -2 0.70121 85.5709   2
  -4 -11  -1 385.063 94.7689   2
  -4 -11   0 1151.51 112.223   2
  -4 -11   1 261.479 89.9265   2
  -4 -11   2 176.207 89.0662   2
  -4 -11   3 2145.78 125.330   2
  -4 -11   7 66.5544 64.0254   2
  -4 -11   8 258.259 65.7971   2
  -4 -11   9 164.238 41.9312   2
  -4 -11  10 932.764 46.0148   2
  -4 -11  11 152.703 46.3487   2
  -4 -11  12 120.630 37.7572   2
  -4 -10  -8 4861.67 122.857   2
  -4 -10  -7 6472.14 161.494   2
  -4 -10  -6 2163.06 122.136   2
  -4 -10  -5 3986.06 157.229   2
  -4 -10  -4 16116.0 288.445   2
  -4 -10  -3 6780.90 201.554   2
  -4 -10  -2 3316.20 157.198   2
  -4 -10  -1 2505.01 140.510   2
  -4 -10   0 14269.9 273.954   2
  -4 -10   1 25241.3 347.546   2
  -4 -10   2 163.260 87.4423   2
  -4 -10   3 3358.30 143.753   2
  -4 -10   4 8945.77 205.111   2
  -4 -10   8 3861.12 132.873   2
  -4 -10   9 144.604 61.8647   2
  -4 -10  10 1479.71 59.7737   2
  -4 -10  11 4158.28 75.1772   2
  -4 -10  12 753.331 54.3557   2
  -4  -9  -9-5.66296 62.1713   2
  -4  -9  -8 509.188 83.5159   2
  -4  -9  -7 341.375 86.5225   2
  -4  -9  -6 31.1008 85.9004   2
  -4  -9  -5 200.473 93.9705   2
  -4  -9  -4 63.4470 92.1304   2
  -4  -9  -3 9.48282 91.5396   2
  -4  -9  -2 117.652 92.3623   2
  -4  -9  -1 1006.24 112.556   2
  -4  -9   0 1001.87 109.766   2
  -4  -9   1 23.4361 82.2349   2
  -4  -9   2 1833.12 122.812   2
  -4  -9   3 1912.02 118.439   2
  -4  -9   4 155.719 77.2034   2
  -4  -9   8 307.004 79.8092   2
  -4  -9   9 2887.49 119.866   2
  -4  -9  10 78.5187 43.8813   2
  -4  -9  11 245.581 44.3582   2
  -4  -9  12 175.452 35.2725   2
  -4  -9  13 694.286 47.5288   2
  -4  -8 -10 3714.44 114.439   2
  -4  -8  -9 13825.9 227.097   2
  -4  -8  -8 6645.13 186.735   2
  -4  -8  -7 205.542 94.7712   2
  -4  -8  -6 13653.3 278.517   2
  -4  -8  -5 6139.06 200.471   2
  -4  -8  -4 3799.16 167.586   2
  -4  -8  -3 1318.53 123.412   2
  -4  -8  -2 4760.02 176.835   2
  -4  -8  -1 4218.66 115.722   2
  -4  -8   0 1400.26 82.9205   2
  -4  -8   1 14828.9 195.445   2
  -4  -8   2 6651.93 137.944   2
  -4  -8   3 647.027 70.8120   2
  -4  -8   4 8821.34 200.370   2
  -4  -8   5 13002.2 229.903   2
  -4  -8   8 11323.1 225.070   2
  -4  -8   9 13158.5 230.565   2
  -4  -8  10 10664.8 139.534   2
  -4  -8  11 548.086 49.3497   2
  -4  -8  12 6279.53 92.7870   2
  -4  -8  13 5683.14 75.8883   2
  -4  -7 -11 175.881 61.4057   2
  -4  -7 -10 618.330 80.9484   2
  -4  -7  -9 452.072 93.8380   2
  -4  -7  -8 3421.37 157.521   2
  -4  -7  -7-30.8908 94.0455   2
  -4  -7  -6 576.243 111.517   2
  -4  -7  -5 1528.45 130.392   2
  -4  -7  -4 60.1452 94.1418   2
  -4  -7  -3 244.615 66.1108   2
  -4  -7  -2 1502.97 83.0805   2
  -4  -7  -1 3366.43 105.899   2
  -4  -7   0 294.700 64.7273   2
  -4  -7   1 766.372 61.5187   2
  -4  -7   2 3736.90 93.4125   2
  -4  -7   3 32.9262 48.3425   2
  -4  -7   4 33.4358 50.4269   2
  -4  -7   5 507.562 67.9050   2
  -4  -7   8 47.4597 77.4738   2
  -4  -7   9 858.667 94.4810   2
  -4  -7  10 222.194 72.7043   2
  -4  -7  11 248.915 47.1100   2
  -4  -7  12 3.97195 38.7730   2
  -4  -7  13 1162.84 46.8957   2
  -4  -7  14 501.104 51.6602   2
  -4  -6 -11 2440.01 113.938   2
  -4  -6 -10 21.0241 82.6818   2
  -4  -6  -9 3396.38 155.622   2
  -4  -6  -8 6945.94 212.323   2
  -4  -6  -7 8700.44 238.952   2
  -4  -6  -6 3963.83 174.792   2
  -4  -6  -5 38731.6 456.761   2
  -4  -6  -4 27571.4 380.279   2
  -4  -6  -3 19305.4 211.920   2
  -4  -6  -2 2611.72 99.9325   2
  -4  -6  -1 45613.9 320.548   2
  -4  -6   0 117623. 430.214   2
  -4  -6   1 29905.2 222.665   2
  -4  -6   2 42.9502 51.7189   2
  -4  -6   3 36326.0 242.524   2
  -4  -6   4 56868.4 405.555   2
  -4  -6   5 35321.2 322.081   2
  -4  -6   6 3560.95 161.310   2
  -4  -6   8 14452.8 258.426   2
  -4  -6   9 8014.62 195.628   2
  -4  -6  10 396.688 81.0637   2
  -4  -6  11 33.9103 44.3832   2
  -4  -6  12 54.2433 39.9272   2
  -4  -6  13 61.8190 34.0033   2
  -4  -6  14 207.112 50.5153   2
  -4  -5 -12 96.6050 65.2810   2
  -4  -5 -11-4.75239 79.9863   2
  -4  -5 -10 47.2355 87.6011   2
  -4  -5  -9 1413.69 126.972   2
  -4  -5  -8-2.10661 97.8841   2
  -4  -5  -7-9.61611 97.0178   2
  -4  -5  -6 175.003 99.3109   2
  -4  -5  -5 264.203 92.8554   2
  -4  -5  -4 167.158 64.8308   2
  -4  -5  -3 652.398 67.2317   2
  -4  -5  -2 1682.47 81.2543   2
  -4  -5  -1 1863.97 70.1777   2
  -4  -5   0 317.782 50.5526   2
  -4  -5   1 2688.45 77.2475   2
  -4  -5   2 1231.59 63.2671   2
  -4  -5   3 0.72463 51.6586   2
  -4  -5   4 105.919 58.6350   2
  -4  -5   5 1036.50 70.7664   2
  -4  -5   6 533.940 77.1343   2
  -4  -5   7 49.9429 65.4636   2
  -4  -5   8 4553.96 113.900   2
  -4  -5   9 419.652 63.2195   2
  -4  -5  10 8.97966 38.2659   2
  -4  -5  11 162.852 37.8700   2
  -4  -5  12 556.495 40.2543   2
  -4  -5  13 470.392 69.6501   2
  -4  -5  14 46.9379 52.1098   2
  -4  -5  15 41.7838 40.6832   2
  -4  -4 -13 18285.7 206.653   2
  -4  -4 -12 10218.1 200.511   2
  -4  -4 -11 379.120 91.0325   2
  -4  -4 -10 9951.48 238.848   2
  -4  -4  -9 22264.9 351.949   2
  -4  -4  -8 15912.6 302.214   2
  -4  -4  -7 3243.93 159.617   2
  -4  -4  -6 5599.74 186.683   2
  -4  -4  -5 17478.9 296.146   2
  -4  -4  -4 673.574 66.6477   2
  -4  -4  -3 973.863 69.1451   2
  -4  -4  -2 6291.31 103.340   2
  -4  -4  -1 13809.8 145.415   2
  -4  -4   0 7490.50 142.186   2
  -4  -4   1 11199.3 170.640   2
  -4  -4   2 12018.1 179.481   2
  -4  -4   3 1792.71 72.4667   2
  -4  -4   4 7493.51 122.929   2
  -4  -4   5 19501.1 188.668   2
  -4  -4   6 14792.4 163.030   2
  -4  -4   7 144.191 69.5105   2
  -4  -4   8 8827.27 148.572   2
  -4  -4   9 28242.8 252.353   2
  -4  -4  10 14.7365 39.2036   2
  -4  -4  11 172.750 50.7602   2
  -4  -4  12 1865.69 75.3441   2
  -4  -4  13 5733.74 103.711   2
  -4  -4  14 563.745 68.5848   2
  -4  -4  15 857.983 60.0202   2
  -4  -3 -13 2058.21 100.494   2
  -4  -3 -12 1577.38 111.197   2
  -4  -3 -11 139.875 89.1560   2
  -4  -3 -10 31.0375 90.7852   2
  -4  -3  -9 1956.56 134.384   2
  -4  -3  -8 1512.41 127.915   2
  -4  -3  -7 163.725 93.3090   2
  -4  -3  -6 464.520 96.0992   2
  -4  -3  -5 7.95573 78.7511   2
  -4  -3  -4 165.227 56.0716   2
  -4  -3  -3 1386.18 60.9434   2
  -4  -3  -2 1231.38 113.971   2
  -4  -3  -1 78.9735 78.3574   2
  -4  -3   0 961.803 106.606   2
  -4  -3   1 1359.45 118.046   2
  -4  -3   2 10.2913 82.5491   2
  -4  -3   3 327.504 95.1326   2
  -4  -3   4 298.694 51.6925   2
  -4  -3   5 33.4689 50.4819   2
  -4  -3   6 543.946 77.2111   2
  -4  -3   7 423.703 70.9054   2
  -4  -3   8 703.256 76.7303   2
  -4  -3   9 1926.60 118.947   2
  -4  -3  13 1200.52 93.8086   2
  -4  -2  -4 17840.1 238.845   2
  -4  -2  -3 7330.02 228.015   2
  -4  -2  -2 134.079 86.2006   2
  -4  -2  -1 23007.2 383.410   2
  -4  -2   0 8557.74 243.160   2
  -4  -2   1 200.699 91.5465   2
  -4  -2   2 11913.4 289.578   2
  -4  -2   3 5632.05 209.647   2
  -4  -2   4 3986.69 187.515   2
  -4  -2   5 206.816 53.4440   2
  -4  -2   6 9817.57 171.605   2
  -4  -2   7 11696.7 146.364   2
  -4  -2   8 4064.17 97.8860   2
  -4  -2   9 19235.5 215.678   2
  -4  -2  10 1842.62 86.3912   2
  -4  -2  11 2085.66 86.5010   2
  -4  -2  12 203.706 55.0519   2
  -4  -2  13 3251.08 89.5934   2
  -4  -2  14 4487.61 128.324   2
  -4  -2  15 1916.87 81.2218   2
  -4  -1 -14 1135.42 81.9997   2
  -4  -1 -13 392.352 82.6406   2
  -4  -1 -12 131.758 84.6864   2
  -4  -1 -11 301.555 90.6656   2
  -4  -1 -10 391.898 92.8049   2
  -4  -1  -9 36.5809 85.4052   2
  -4  -1  -8 455.479 96.6196   2
  -4  -1  -7 16.9556 78.4883   2
  -4  -1  -6 84.1229 75.0365   2
  -4  -1  -5 464.898 84.3111   2
  -4  -1  -4-54.3947 69.4648   2
  -4  -1  -3 442.111 98.8335   2
  -4  -1  -2 2.51780 83.7027   2
  -4  -1  -1 186.665 87.9584   2
  -4  -1   0 189.016 87.9480   2
  -4  -1   1 148.645 86.8480   2
  -4  -1   2-23.1837 84.2533   2
  -4  -1   3 52.7875 89.4516   2
  -4  -1   4 216.189 95.6451   2
  -4  -1   5 383.747 72.2754   2
  -4  -1   6 9.84747 45.7749   2
  -4  -1   7 1428.31 69.4123   2
  -4  -1   8 1103.28 77.4089   2
  -4  -1   9 244.715 61.7514   2
  -4  -1  10-15.4218 59.8511   2
  -4  -1  11 279.491 48.9927   2
  -4  -1  12 746.235 65.4005   2
  -4  -1  13 14.0560 46.7185   2
  -4  -1  14 359.855 67.1623   2
  -4  -1  15 1076.97 68.3314   2
  -4   1 -15 78.3961 50.6800   2
  -4   1 -14 384.734 71.6929   2
  -4   1 -13 2754.04 125.258   2
  -4   1 -12 578.744 92.2768   2
  -4   1 -11 113.891 85.4608   2
  -4   1 -10 285.305 90.7575   2
  -4   1  -9 2174.37 125.786   2
  -4   1  -8 840.656 95.0695   2
  -4   1  -7 8.91921 75.2249   2
  -4   1  -6 179.839 81.0574   2
  -4   1  -5 1046.65 86.8518   2
  -4   1  -1 159.664 97.2670   2
  -4   1   0 107.848 87.0496   2
  -4   1   1 304.178 102.904   2
  -4   1   2 18.4426 92.2106   2
  -4   1   3 44.4285 84.1408   2
  -4   1   4 476.135 71.5104   2
  -4   1   5 597.961 45.7035   2
  -4   1   6 744.473 52.3432   2
  -4   1   7 2.25626 43.7670   2
  -4   1   8 4199.73 112.887   2
  -4   1   9 449.858 61.9322   2
  -4   1  10 1017.65 59.8452   2
  -4   1  11 12.0101 43.0722   2
  -4   1  12 1732.66 79.0722   2
  -4   1  13 2228.50 78.6207   2
  -4   1  14 903.799 74.6769   2
  -4   1  15 341.322 51.3276   2
  -4   2 -15 2076.96 84.1425   2
  -4   2 -14 192.544 66.6507   2
  -4   2 -13 6281.92 169.171   2
  -4   2 -12 2812.13 135.230   2
  -4   2 -11 749.061 99.9163   2
  -4   2 -10 1914.41 122.548   2
  -4   2  -9 31385.0 366.663   2
  -4   2  -8 19064.0 278.588   2
  -4   2  -7 1130.21 99.2699   2
  -4   2  -6 5917.50 103.410   2
  -4   2  -5 43432.1 243.705   2
  -4   2  -1 46616.7 572.005   2
  -4   2   0 16642.3 352.194   2
  -4   2   1 7110.26 239.776   2
  -4   2   2 10071.2 276.009   2
  -4   2   3 16338.1 339.376   2
  -4   2   4 3243.48 77.2180   2
  -4   2   5 7008.05 116.753   2
  -4   2   6 20421.1 164.028   2
  -4   2   7 21064.7 148.408   2
  -4   2   8 15519.1 162.776   2
  -4   2   9 3587.99 93.9205   2
  -4   2  10 8781.10 113.372   2
  -4   2  11 6303.29 98.9497   2
  -4   2  12 1164.39 70.2142   2
  -4   2  13 7297.07 117.346   2
  -4   2  14 11442.6 169.438   2
  -4   3 -15 391.608 58.1856   2
  -4   3 -14 1105.81 85.4263   2
  -4   3 -13 16.8974 73.1071   2
  -4   3 -12 1583.57 110.052   2
  -4   3 -11 84.3366 82.1031   2
  -4   3 -10 569.452 95.8997   2
  -4   3  -9 441.831 90.2897   2
  -4   3  -8 104.173 77.3095   2
  -4   3  -7 1667.38 106.583   2
  -4   3  -6 57.6548 46.5948   2
  -4   3  -5 1642.73 65.6343   2
  -4   3   1 114.657 95.4917   2
  -4   3   2 317.029 101.186   2
  -4   3   3 134.183 54.3996   2
  -4   3   4 879.342 64.7276   2
  -4   3   5 38.3791 65.3000   2
  -4   3   8 67.2782 127.598   2
  -4   4 -15 6833.01 127.921   2
  -4   4 -14 6183.63 145.893   2
  -4   4 -13 743.961 86.3601   2
  -4   4 -12 2341.87 120.647   2
  -4   4 -11 23772.5 315.781   2
  -4   4 -10 34046.0 373.657   2
  -4   4  -9 445.709 88.7857   2
  -4   4  -8 4074.75 144.976   2
  -4   4  -7 42075.0 251.694   2
  -4   4  -6 27449.1 203.654   2
  -4   4  -5 8207.92 166.634   2
  -4   4  -4 2615.92 113.107   2
  -4   4   2 532.637 62.6493   2
  -4   4   3 4695.40 77.7066   2
  -4   4   4 13205.0 170.101   2
  -4   4   5 8104.20 138.299   2
  -4   4   6 1594.27 67.6834   2
  -4   4   7 53532.3 269.368   2
  -4   4   8 2500.55 73.4181   2
  -4   4   9 2476.26 67.3641   2
  -4   4  10 232.129 41.9533   2
  -4   4  11 17690.7 162.784   2
  -4   4  12 11598.0 129.407   2
  -4   4  13 1351.04 77.2713   2
  -4   5 -15-16.2793 45.4531   2
  -4   5 -14 996.861 78.4954   2
  -4   5 -13 608.278 80.0038   2
  -4   5 -12 1303.21 101.071   2
  -4   5 -11 354.908 88.1161   2
  -4   5 -10 2620.69 129.215   2
  -4   5  -9 1348.46 108.715   2
  -4   5  -8 62.0343 76.1252   2
  -4   5  -7 1163.61 67.5697   2
  -4   5  -6 5683.25 106.813   2
  -4   5  -5 359.657 78.3173   2
  -4   5  -4 1849.42 107.535   2
  -4   5  -3 18.1475 72.1804   2
  -4   5  -2 4854.68 142.347   2
  -4   5  -1 1917.41 88.9000   2
  -4   5   0 78.4419 45.8640   2
  -4   5   1 212.300 46.0774   2
  -4   5   2 70.2608 40.1350   2
  -4   5   3 4.90137 48.8783   2
  -4   5   4 152.175 65.3728   2
  -4   5   5 5.72569 59.8031   2
  -4   5   6 454.916 53.5882   2
  -4   5   7 733.662 57.1206   2
  -4   5   8-6.67797 38.1304   2
  -4   5   9-4.43994 47.0961   2
  -4   5  10 23.6492 45.5467   2
  -4   5  11 700.732 75.5424   2
  -4   5  12 1034.32 258.400   2
  -4   6 -15 1039.43 59.7377   2
  -4   6 -14 96.4367 57.1365   2
  -4   6 -13 600.829 75.9024   2
  -4   6 -12 1800.14 105.759   2
  -4   6 -11 91.5907 77.2840   2
  -4   6 -10 10758.4 215.522   2
  -4   6  -9 12096.7 225.273   2
  -4   6  -8 112.793 53.7039   2
  -4   6  -7 2208.11 80.2336   2
  -4   6  -6 35058.5 238.450   2
  -4   6  -5 46492.2 400.196   2
  -4   6  -4 17890.6 262.489   2
  -4   6  -3 16636.8 166.003   2
  -4   6  -2 56725.2 265.174   2
  -4   6  -1 66969.2 266.419   2
  -4   6   0 10252.2 119.924   2
  -4   6   1 462.368 54.7890   2
  -4   6   2 26328.3 189.796   2
  -4   6   3 44670.5 217.629   2
  -4   6   4 9892.53 140.474   2
  -4   6   5 372.662 66.8703   2
  -4   6   6 14939.6 149.373   2
  -4   6   7 59.2903 38.4422   2
  -4   6   8 1858.25 55.7995   2
  -4   6   9 100.004 45.6546   2
  -4   6  10 852.147 74.6187   2
  -4   6  11 98.2926 217.235   2
  -4   7 -15 1484.35 60.0002   2
  -4   7 -14 1290.12 72.5809   2
  -4   7 -13 249.100 64.2002   2
  -4   7 -12 132.138 71.4907   2
  -4   7 -11 695.129 91.0190   2
  -4   7 -10-13.3762 75.3362   2
  -4   7  -9 62.7486 76.5529   2
  -4   7  -8 714.064 64.2559   2
  -4   7  -7-0.70209 54.1314   2
  -4   7  -6 3073.03 130.429   2
  -4   7  -5 1400.95 107.952   2
  -4   7  -4 369.534 87.5569   2
  -4   7  -3 1206.89 70.6239   2
  -4   7  -2 4049.94 89.0376   2
  -4   7  -1 102.839 48.3121   2
  -4   7   0 171.464 52.3789   2
  -4   7   1 151.916 51.0396   2
  -4   7   2 28.5820 49.7447   2
  -4   7   3 483.641 67.2369   2
  -4   7   4 209.651 70.6457   2
  -4   7   5 1139.61 64.8595   2
  -4   7   6 1442.77 64.0692   2
  -4   7   7 510.880 63.6312   2
  -4   7   8-4.23993 54.5891   2
  -4   7   9 15.7280 138.273   2
  -4   7  10 304.050 185.549   2
  -4   7  11 486.853 223.192   2
  -4   7  12-23.2117 225.914   2
  -4   8 -14 6402.71 116.496   2
  -4   8 -13 2453.83 94.6075   2
  -4   8 -12 1195.46 86.3066   2
  -4   8 -11 10998.6 195.526   2
  -4   8 -10 2786.16 119.035   2
  -4   8  -9 1185.92 65.7189   2
  -4   8  -8 2727.96 85.2668   2
  -4   8  -7 6294.57 169.714   2
  -4   8  -6 5708.68 166.834   2
  -4   8  -5 133.981 87.0381   2
  -4   8  -4 16032.8 261.940   2
  -4   8  -3 3523.76 85.4726   2
  -4   8  -2 96.2441 52.9168   2
  -4   8  -1 5574.78 99.8649   2
  -4   8   0 3356.09 83.6809   2
  -4   8   1 2491.47 84.3163   2
  -4   8   2 342.316 60.9684   2
  -4   8   3 6706.30 146.203   2
  -4   8   4 9504.98 160.916   2
  -4   8   5 296.968 72.4338   2
  -4   8   6 14131.4 175.938   2
  -4   8   7 2828.31 94.3338   2
  -4   8   8 2259.24 81.6985   2
  -4   8   9 60.9022 164.557   2
  -4   8  10 5442.55 254.738   2
  -4   8  11 7056.23 275.387   2
  -4   9 -14 1090.79 55.8489   2
  -4   9 -13-0.80049 48.4582   2
  -4   9 -12 161.708 58.1661   2
  -4   9 -11 217.973 66.7828   2
  -4   9 -10 1112.07 87.2339   2
  -4   9  -9 276.224 49.7806   2
  -4   9  -8 10.6780 51.5838   2
  -4   9  -7 1460.17 108.100   2
  -4   9  -6 957.557 98.6586   2
  -4   9  -5 1431.07 118.656   2
  -4   9  -4 140.594 51.4824   2
  -4   9  -3 3350.37 86.8406   2
  -4   9  -2 981.469 65.8006   2
  -4   9  -1-16.9712 58.3864   2
  -4   9   0 118.578 56.6511   2
  -4   9   1 30.0726 56.0161   2
  -4   9   2 228.450 60.3020   2
  -4   9   3-27.1554 79.5434   2
  -4   9   4 51.9976 74.3822   2
  -4   9   5 400.395 79.7698   2
  -4   9   6 176.774 64.4391   2
  -4   9   7 435.103 62.8408   2
  -4   9   8 139.649 51.0756   2
  -4   9   9-12.1371 218.430   2
  -4   9  10 242.907 242.464   2
  -4   9  11 637.985 206.574   2
  -4  10 -13 1973.00 66.2877   2
  -4  10 -12 1552.25 74.5205   2
  -4  10 -11 422.971 63.7902   2
  -4  10 -10 3312.52 109.190   2
  -4  10  -9 531.718 51.1538   2
  -4  10  -8 1099.53 94.8936   2
  -4  10  -7 2002.13 114.888   2
  -4  10  -6 9160.57 208.815   2
  -4  10  -5 10728.4 174.378   2
  -4  10  -4 1171.94 71.9289   2
  -4  10  -3 8625.84 136.393   2
  -4  10  -2 12158.4 161.128   2
  -4  10  -1 2590.54 90.5927   2
  -4  10   0 148.452 59.0920   2
  -4  10   1 5959.92 113.962   2
  -4  10   2 14476.8 155.989   2
  -4  10   3 933.715 92.1559   2
  -4  10   4 2051.87 105.598   2
  -4  10   5 8536.65 152.051   2
  -4  10   6 276.914 63.9425   2
  -4  10   7 116.607 59.4752   2
  -4  10   8 3755.17 251.266   2
  -4  10   9 2234.52 260.977   2
  -4  10  10 629.654 213.664   2
  -4  11 -12 83.3564 34.9251   2
  -4  11 -11 19.9796 45.9105   2
  -4  11 -10 20.5443 35.3178   2
  -4  11  -9 491.319 71.0655   2
  -4  11  -8 15.8034 55.8513   2
  -4  11  -7 1347.17 99.8048   2
  -4  11  -6 163.449 80.2660   2
  -4  11  -5 422.081 98.6178   2
  -4  11  -4 1210.13 69.1292   2
  -4  11  -3 1237.82 72.7390   2
  -4  11  -2-10.0093 58.0183   2
  -4  11  -1 47.3222 57.4866   2
  -4  11   0 20.2761 58.7354   2
  -4  11   1 11.0128 53.3416   2
  -4  11   2 394.202 83.1529   2
  -4  11   3 172.671 76.7792   2
  -4  11   4 1059.91 91.7349   2
  -4  11   5 151.811 66.5782   2
  -4  11   6 410.046 61.9465   2
  -4  11   7 83.0841 46.9213   2
  -4  11   8-77.1947 246.530   2
  -4  12 -10 896.943 58.3219   2
  -4  12  -9 40.8582 56.5843   2
  -4  12  -8 38.6686 66.5640   2
  -4  12  -7 23.5460 70.7813   2
  -4  12  -6 916.181 93.7200   2
  -4  12  -5 11721.4 223.662   2
  -4  12  -4 1914.04 74.1023   2
  -4  12  -3 1545.30 75.4339   2
  -4  12  -2 15624.7 168.941   2
  -4  12  -1 19499.2 186.335   2
  -4  12   0 10753.4 142.900   2
  -4  12   1 7.12519 51.8699   2
  -4  12   2 15758.3 231.454   2
  -4  12   3 30491.5 248.528   2
  -4  12   4 12362.5 164.956   2
  -4  12   5 87.0628 56.8850   2
  -4  12   6 5682.27 102.410   2
  -4  12   7 10637.4 259.563   2
  -4  13  -9 171.570 48.7050   2
  -4  13  -8 100.658 58.7885   2
  -4  13  -7 194.347 70.1323   2
  -4  13  -6 524.047 82.1428   2
  -4  13  -5 143.885 79.8279   2
  -4  13  -4 879.915 56.5131   2
  -4  13  -3 170.132 51.0874   2
  -4  13  -2-4.71633 50.2250   2
  -4  13  -1 10.2019 47.4974   2
  -4  13   0 54.4891 45.8136   2
  -4  13   1 132.817 44.9614   2
  -4  13   2-46.1296 64.7862   2
  -4  13   3 16.9483 61.0124   2
  -4  13   4 393.589 60.4891   2
  -4  13   5 43.1855 44.9630   2
  -4  14  -8 171.018 50.0114   2
  -4  14  -7 3791.34 107.122   2
  -4  14  -6 15048.1 201.084   2
  -4  14  -5 2075.91 99.8845   2
  -4  14  -4 466.486 75.1400   2
  -4  14  -3 4137.50 78.1998   2
  -4  14  -2 5151.05 86.2305   2
  -4  14  -1 1446.65 57.4792   2
  -4  14   0 485.457 43.8856   2
  -4  14   1 7591.07 135.149   2
  -4  14   2 2829.52 86.9435   2
  -4  14   3-5.99884 45.5543   2
  -4  14   4 2984.02 74.3480   2
  -4  15  -7 48.0251 40.5200   2
  -4  15  -6 138.140 47.9338   2
  -4  15  -5 261.814 54.6522   2
  -4  15  -4 85.6782 52.9204   2
  -4  15  -3 58.3639 32.1369   2
  -4  15  -2 40.5784 31.9738   2
  -4  15  -1 8.22777 27.7130   2
  -4  15   0 14.0186 40.2270   2
  -4  15   1 66.6888 40.1496   2
  -3 -14   5 186.424 61.0008   2
  -3 -14   6 3419.55 104.561   2
  -3 -14   7 3986.58 106.945   2
  -3 -14   8 1402.30 73.3826   2
  -3 -14   9 35.2899 44.4057   2
  -3 -14  10 2476.52 69.1716   2
  -3 -13  -5-38.8833 65.7242   2
  -3 -13  -4-50.8198 75.2111   2
  -3 -13  -3 70.6071 80.9954   2
  -3 -13  -2 15.2156 84.2938   2
  -3 -13  -1 3.32018 86.6201   2
  -3 -13   0 265.504 100.109   2
  -3 -13   1 183.339 94.0310   2
  -3 -13   8 738.862 75.6060   2
  -3 -13   9 11.4043 58.4098   2
  -3 -13  10 301.842 55.5274   2
  -3 -13  11 567.291 53.0142   2
  -3 -13  12 554.412 45.2492   2
  -3 -12  -6 9195.84 176.227   2
  -3 -12  -5 7702.26 187.201   2
  -3 -12  -4 222.434 91.7697   2
  -3 -12  -3 821.226 107.219   2
  -3 -12  -2 650.640 109.790   2
  -3 -12  -1 640.016 112.090   2
  -3 -12   0 226.456 103.640   2
  -3 -12   1 5.29054 99.5437   2
  -3 -12   2 237.556 103.410   2
  -3 -12   3 7727.00 217.647   2
  -3 -12   9 4050.65 131.730   2
  -3 -12  10 1998.66 98.1094   2
  -3 -12  11 9809.12 160.565   2
  -3 -12  12 9632.70 140.803   2
  -3 -12  13 1551.72 58.8726   2
  -3 -11  -7 892.304 92.7301   2
  -3 -11  -6 1090.51 101.197   2
  -3 -11  -5 745.771 106.232   2
  -3 -11  -4 0.22420 89.8958   2
  -3 -11  -3 94.3011 96.4684   2
  -3 -11  -2 65.4920 97.6792   2
  -3 -11  -1 41.6448 96.7214   2
  -3 -11   0 888.868 116.200   2
  -3 -11   1 341.972 102.142   2
  -3 -11   2 139.359 96.2887   2
  -3 -11   3 130.834 91.3212   2
  -3 -11   4 177.422 90.2107   2
  -3 -11   8 27.8058 65.4206   2
  -3 -11   9 597.379 88.5192   2
  -3 -11  10 186.694 73.2406   2
  -3 -11  11 150.381 65.0491   2
  -3 -11  12 986.886 76.1368   2
  -3 -11  13 894.812 61.5127   2
  -3 -11  14 95.6880 36.9422   2
  -3 -10  -8 4225.55 139.347   2
  -3 -10  -7 26.1934 82.5596   2
  -3 -10  -6 1260.71 115.044   2
  -3 -10  -5 9916.27 244.142   2
  -3 -10  -4 719.957 114.827   2
  -3 -10  -3 1705.86 135.011   2
  -3 -10  -2 5030.84 187.134   2
  -3 -10  -1 8896.44 228.993   2
  -3 -10   0 1638.21 126.564   2
  -3 -10   1 1220.83 116.938   2
  -3 -10   2 29203.2 370.844   2
  -3 -10   3 8546.68 210.412   2
  -3 -10   4 136.861 84.0355   2
  -3 -10   8 9.68821 70.7809   2
  -3 -10   9 9706.86 190.635   2
  -3 -10  10 11084.9 141.825   2
  -3 -10  11 4033.91 134.946   2
  -3 -10  12 1891.97 95.7637   2
  -3 -10  13 3533.84 105.115   2
  -3 -10  14 4183.75 92.8224   2
  -3  -9  -9 67.4795 78.4968   2
  -3  -9  -8-9.47612 83.3359   2
  -3  -9  -7 3598.78 159.509   2
  -3  -9  -6 84.0971 92.0928   2
  -3  -9  -5 185.526 94.2811   2
  -3  -9  -4 102.253 92.8123   2
  -3  -9  -3 6.11128 89.0211   2
  -3  -9  -2-6.91094 85.2524   2
  -3  -9  -1 614.089 105.002   2
  -3  -9   0 535.987 96.0796   2
  -3  -9   1 10.7421 77.0631   2
  -3  -9   2 350.833 85.2208   2
  -3  -9   3 2032.01 119.371   2
  -3  -9   4-31.1823 80.3062   2
  -3  -9   5 314.836 83.3213   2
  -3  -9   9 1134.56 139.754   2
  -3  -9  10 272.343 71.5017   2
  -3  -9  11 2439.05 78.9750   2
  -3  -9  12 27.7328 44.0189   2
  -3  -9  13 940.726 76.4083   2
  -3  -9  14 729.741 61.5429   2
  -3  -9  15 341.031 42.5563   2
  -3  -8 -10 810.179 92.9516   2
  -3  -8  -9 28.1481 84.3725   2
  -3  -8  -8 17533.8 307.994   2
  -3  -8  -7 21314.0 349.556   2
  -3  -8  -6 7770.42 224.652   2
  -3  -8  -5 2657.60 146.890   2
  -3  -8  -4 22053.3 340.387   2
  -3  -8  -3 25180.1 349.222   2
  -3  -8  -2 16489.8 277.650   2
  -3  -8  -1 241.875 88.0564   2
  -3  -8   0 19066.5 204.010   2
  -3  -8   1 46033.2 311.909   2
  -3  -8   2 10687.9 161.080   2
  -3  -8   3 156.775 76.1258   2
  -3  -8   4 14385.4 239.497   2
  -3  -8   5 5224.37 156.208   2
  -3  -8   9 525.423 84.4243   2
  -3  -8  10 1477.97 102.130   2
  -3  -8  11 8375.14 132.372   2
  -3  -8  12 489.871 54.8737   2
  -3  -8  13 141.471 43.5718   2
  -3  -8  14 2675.86 64.7152   2
  -3  -8  15 4214.09 87.1358   2
  -3  -7 -11 1245.20 99.8883   2
  -3  -7 -10 71.8723 84.4556   2
  -3  -7  -9 530.951 108.430   2
  -3  -7  -8 1243.84 127.910   2
  -3  -7  -7 754.185 109.182   2
  -3  -7  -6 489.525 101.365   2
  -3  -7  -5-19.0814 88.0489   2
  -3  -7  -4 882.128 100.887   2
  -3  -7  -3 3.96581 78.1879   2
  -3  -7  -2 163.094 52.1987   2
  -3  -7  -1 1835.77 76.2636   2
  -3  -7   0 1057.37 65.9914   2
  -3  -7   2 127.555 86.0746   2
  -3  -7   3 5.08593 89.9349   2
  -3  -7   4 155.191 60.4827   2
  -3  -7   5 2077.35 85.9752   2
  -3  -7   9 389.454 80.6292   2
  -3  -7  10 834.850 90.0712   2
  -3  -7  11 358.002 54.8542   2
  -3  -7  12 903.420 61.9400   2
  -3  -7  13 329.462 48.6328   2
  -3  -7  14 159.492 38.7137   2
  -3  -7  15 124.727 32.2630   2
  -3  -6 -11 2198.85 121.960   2
  -3  -6 -10 72.1575 88.9969   2
  -3  -6  -9 17702.2 318.041   2
  -3  -6  -8 8931.62 235.424   2
  -3  -6  -7 876.328 108.173   2
  -3  -6  -6 9920.90 232.528   2
  -3  -6  -5 8980.29 211.766   2
  -3  -6  -4 1806.59 113.665   2
  -3  -6  -3 613.549 88.1459   2
  -3  -6  -1 16820.1 268.400   2
  -3  -6   0 2394.84 118.148   2
  -3  -6   6 13380.3 256.825   2
  -3  -6   8 750.579 93.3885   2
  -3  -6   9 7353.38 185.274   2
  -3  -6  10 12629.2 234.197   2
  -3  -6  11 1687.36 74.9937   2
  -3  -6  12 812.402 60.7141   2
  -3  -6  13 4013.18 91.7299   2
  -3  -6  14 1402.97 58.8660   2
  -3  -6  15 22.5765 32.4989   2
  -3  -5 -12 5712.89 164.539   2
  -3  -5 -11 1122.46 113.949   2
  -3  -5 -10 634.054 107.230   2
  -3  -5  -9 54.9037 93.3963   2
  -3  -5  -8 4133.42 166.369   2
  -3  -5  -7 32.1696 83.6123   2
  -3  -5  -6 26.4746 77.1498   2
  -3  -5  -5 203.624 71.9513   2
  -3  -5  -2 391.337 70.4821   2
  -3  -5  -1 555.715 79.7496   2
  -3  -5   0 92.6656 63.3253   2
  -3  -5   8 171.024 56.1123   2
  -3  -5   9 214.682 77.2500   2
  -3  -5  10 3059.60 76.2343   2
  -3  -5  11 45.2913 41.4603   2
  -3  -5  12 1467.96 59.1216   2
  -3  -5  13 338.255 50.8488   2
  -3  -5  14 303.430 46.2320   2
  -3  -5  15 495.007 66.8152   2
  -3  -5  16 132.577 45.4756   2
  -3  -4 -13 2245.82 110.956   2
  -3  -4 -12 84.8963 86.7954   2
  -3  -4 -11 864.406 113.262   2
  -3  -4 -10 13828.8 280.167   2
  -3  -4  -9 17.5318 90.4356   2
  -3  -4  -8 4640.75 167.046   2
  -3  -4  -7 8731.29 204.418   2
  -3  -4  -6 595.817 81.8736   2
  -3  -4  -3 25323.6 306.173   2
  -3  -4  -2 732.475 75.0731   2
  -3  -4  -1 5856.46 161.713   2
  -3  -4   0 12881.2 235.529   2
  -3  -4   8 2786.79 89.8496   2
  -3  -4   9 20.9328 58.1491   2
  -3  -4  10 15028.3 143.760   2
  -3  -4  11 39.8779 41.6081   2
  -3  -4  12 55.4240 39.8183   2
  -3  -4  13 1587.21 56.8696   2
  -3  -4  14 5352.88 156.998   2
  -3  -4  15 1994.63 97.1325   2
  -3  -4  16-0.73848 46.6028   2
  -3  -3 -14 47.3967 61.0613   2
  -3  -3 -13 909.959 97.2777   2
  -3  -3 -12 37.0558 82.5976   2
  -3  -3 -11 17.3248 88.7370   2
  -3  -3 -10 102.789 92.2416   2
  -3  -3  -9 344.459 87.9406   2
  -3  -3  -8 165.171 77.1998   2
  -3  -3  -7 574.343 78.2579   2
  -3  -3  -6 222.029 66.3268   2
  -3  -3  -4 112.704 64.3589   2
  -3  -3  -3 26.4116 58.2331   2
  -3  -3  -2 2242.41 110.614   2
  -3  -3  -1 918.398 82.1714   2
  -3  -3   0 92.8024 62.3431   2
  -3  -3   1 88.8664 63.6809   2
  -3  -3   9 1172.60 99.2491   2
  -3  -3  10 865.415 68.5651   2
  -3  -3  11 1110.00 101.256   2
  -3  -3  12 699.828 95.0307   2
  -3  -3  14 454.619 81.4536   2
  -3  -3  15 903.454 83.5638   2
  -3  -2 -14 1241.08 92.1860   2
  -3  -2  -3 43651.5 418.323   2
  -3  -2  -2 22058.5 302.875   2
  -3  -2  -1 5590.07 161.733   2
  -3  -2   0 23302.0 307.959   2
  -3  -2   1 83836.9 583.046   2
  -3  -2   2 93518.7 630.128   2
  -3  -2   8 2248.53 81.0791   2
  -3  -2   9 33986.4 268.741   2
  -3  -2  10 671.178 55.9952   2
  -3  -2  11 156.407 58.8451   2
  -3  -2  12 1023.17 74.5667   2
  -3  -2  13 1725.65 83.4158   2
  -3  -2  14 96.6740 75.4607   2
  -3  -2  15 1893.19 102.737   2
  -3  -2  16 5042.86 123.326   2
  -3  -1 -15 829.209 72.7398   2
  -3  -1 -14 650.778 87.1680   2
  -3  -1 -13 239.505 85.5681   2
  -3  -1 -12 50.3762 86.2896   2
  -3  -1 -11 4225.00 160.306   2
  -3  -1 -10 704.085 95.4940   2
  -3  -1  -9-16.5841 73.4108   2
  -3  -1  -8-10.1552 63.9268   2
  -3  -1  -7 0.97147 60.4576   2
  -3  -1  -3 530.369 82.2249   2
  -3  -1  -2 12.5905 65.9396   2
  -3  -1  -1 405.699 79.9795   2
  -3  -1   0 2264.43 119.932   2
  -3  -1   1 1581.99 109.233   2
  -3  -1   2 954.407 94.9665   2
  -3  -1   3 1575.10 111.517   2
  -3  -1   8 359.162 56.2128   2
  -3  -1   9 5391.17 118.513   2
  -3  -1  10 1817.03 70.2208   2
  -3  -1  11 327.197 63.8260   2
  -3  -1  12-11.5141 56.8249   2
  -3  -1  13 188.489 58.8119   2
  -3  -1  14 1508.05 108.783   2
  -3  -1  15 369.083 75.3681   2
  -3  -1  16 356.891 61.6334   2
  -3   1 -15 121.197 62.0164   2
  -3   1 -14 88.5476 71.8788   2
  -3   1 -13 746.780 96.7910   2
  -3   1 -12 329.477 86.8764   2
  -3   1 -11 1901.86 119.890   2
  -3   1 -10-15.5267 78.1095   2
  -3   1  -9 9.20389 68.3297   2
  -3   1  -8 688.923 77.2249   2
  -3   1  -2 70.2565 80.3826   2
  -3   1  -1 2205.95 131.917   2
  -3   1   0 1260.85 114.784   2
  -3   1   1 663.594 96.2020   2
  -3   1   2 189.541 83.4580   2
  -3   1   3 2181.35 127.892   2
  -3   1   4 556.784 59.0740   2
  -3   1   5 470.950 57.1765   2
  -3   1   6 34.9953 50.0933   2
  -3   1   7 700.962 95.1780   2
  -3   1   8 2085.29 67.8891   2
  -3   1   9 681.024 55.9071   2
  -3   1  10 399.973 52.2137   2
  -3   1  11 69.6107 48.3684   2
  -3   1  12 1304.92 80.6927   2
  -3   1  13 15.7284 57.4151   2
  -3   1  14 666.191 90.7305   2
  -3   1  15 1868.07 103.273   2
  -3   1  16 13.9883 50.8457   2
  -3   2 -16 241.289 53.4916   2
  -3   2 -15 96.7754 62.9698   2
  -3   2 -14 4295.64 144.922   2
  -3   2 -13 881.291 103.277   2
  -3   2 -12 6426.40 186.502   2
  -3   2 -11 1720.55 113.611   2
  -3   2 -10 7474.48 182.354   2
  -3   2  -9 3833.40 133.105   2
  -3   2  -8 1158.38 83.9933   2
  -3   2  -1 133.620 91.8762   2
  -3   2   0 52859.4 527.429   2
  -3   2   1 145073. 849.734   2
  -3   2   2 759.304 98.1706   2
  -3   2   3 665.498 55.2232   2
  -3   2   4 32088.8 234.302   2
  -3   2   5 43839.7 275.249   2
  -3   2   6 25447.2 278.088   2
  -3   2   7 43.5907 44.9100   2
  -3   2   8 59130.7 253.783   2
  -3   2   9 3804.14 79.8926   2
  -3   2  10 4359.95 80.5133   2
  -3   2  11 30.6470 45.8134   2
  -3   2  12 5300.05 126.290   2
  -3   2  13 6046.11 129.716   2
  -3   2  14 612.570 87.8454   2
  -3   2  15 2450.92 107.017   2
  -3   2  16 871.441 61.6375   2
  -3   3 -16 56.1228 48.4671   2
  -3   3 -15 187.662 63.9012   2
  -3   3 -14 169.633 77.3602   2
  -3   3 -13 567.429 95.7543   2
  -3   3 -12 4260.75 155.920   2
  -3   3 -11 720.931 94.7008   2
  -3   3 -10 101.520 77.2924   2
  -3   3  -9 951.982 97.4346   2
  -3   3  -8 112.640 65.4133   2
  -3   3   0 192.196 87.7640   2
  -3   3   1 270.656 64.5039   2
  -3   3   2 1287.38 75.7766   2
  -3   3   3 3266.27 85.5563   2
  -3   3   4 722.486 53.0077   2
  -3   3   5 315.245 44.6078   2
  -3   3   6 1212.02 80.8144   2
  -3   3   7 121.241 87.0087   2
  -3   3   8 1327.18 89.2577   2
  -3   3   9-21.9410 109.309   2
  -3   4 -16 399.781 53.3259   2
  -3   4 -15 2056.28 101.048   2
  -3   4 -14 313.413 81.4357   2
  -3   4 -13 32.0864 82.2703   2
  -3   4 -12 12313.1 239.400   2
  -3   4 -11 6718.63 184.912   2
  -3   4 -10 271.477 84.4076   2
  -3   4  -9 15801.9 241.318   2
  -3   4  -8 15820.4 225.477   2
  -3   4   0 33371.0 407.620   2
  -3   4   1 7953.90 213.937   2
  -3   4   2 401.722 87.9482   2
  -3   4   3 4737.95 130.860   2
  -3   4   4 3621.99 118.393   2
  -3   4   5 2.82282 57.3078   2
  -3   4   6 8773.27 134.811   2
  -3   4   7 23848.1 153.060   2
  -3   4   8 7719.53 87.3307   2
  -3   4   9 875.848 50.5636   2
  -3   4  10 2442.10 66.1733   2
  -3   4  11 3507.90 87.2788   2
  -3   4  12 23.1618 44.3306   2
  -3   4  13 2901.16 88.8599   2
  -3   4  14 5448.66 146.208   2
  -3   4  15 57.2674 49.5756   2
  -3   5 -16 135.916 47.6730   2
  -3   5 -15 240.873 68.1260   2
  -3   5 -14 4594.29 147.740   2
  -3   5 -13 317.496 85.9157   2
  -3   5 -12 2248.25 124.607   2
  -3   5 -11-41.6000 86.2644   2
  -3   5 -10 1208.47 104.766   2
  -3   5  -9 100.770 79.3365   2
  -3   5  -8 74.2437 71.0439   2
  -3   5  -7 583.063 76.9966   2
  -3   5  -1 2242.73 133.280   2
  -3   5   0 104.838 76.5678   2
  -3   5   1 228.164 78.4457   2
  -3   5   2 300.076 87.0317   2
  -3   5   3 126.264 74.2391   2
  -3   5   4 155.664 61.4618   2
  -3   5   5 264.349 51.9079   2
  -3   5   6 1327.24 47.8193   2
  -3   5   7 785.673 45.2489   2
  -3   5   8 419.956 42.3789   2
  -3   5   9 596.783 47.0714   2
  -3   5  10 421.260 53.0770   2
  -3   5  11 1168.30 62.2155   2
  -3   5  12 120.792 53.9839   2
  -3   5  13 9.06965 49.5932   2
  -3   5  14 706.023 63.4414   2
  -3   6 -16 533.820 54.1609   2
  -3   6 -15 2666.39 103.040   2
  -3   6 -14 1694.40 103.881   2
  -3   6 -13 8881.59 201.322   2
  -3   6 -12 100.573 82.8683   2
  -3   6 -11 8968.70 208.477   2
  -3   6 -10 20571.1 290.088   2
  -3   6  -9 9405.97 203.081   2
  -3   6  -8 36.4114 74.0682   2
  -3   6  -7 3458.30 86.4159   2
  -3   6  -6 35084.7 341.455   2
  -3   6  -1 9251.47 223.716   2
  -3   6   0 74.7880 81.4573   2
  -3   6   1 7459.84 217.446   2
  -3   6   2 227.607 79.3102   2
  -3   6   3 17.3983 75.9719   2
  -3   6   4 128.776 34.6482   2
  -3   6   5 52.8521 35.0510   2
  -3   6   6 1685.52 61.9866   2
  -3   6   7 33198.7 180.991   2
  -3   6   8 1263.77 80.4425   2
  -3   6   9 77.9748 49.3690   2
  -3   6  10 1830.78 70.5718   2
  -3   6  11 8686.91 146.346   2
  -3   6  12 8079.49 131.750   2
  -3   6  13 859.310 77.0695   2
  -3   7 -16 398.063 48.0002   2
  -3   7 -15 853.830 71.9053   2
  -3   7 -14 13.3993 71.1783   2
  -3   7 -13 2664.00 126.795   2
  -3   7 -12 1125.50 107.740   2
  -3   7 -11-8.61701 84.5050   2
  -3   7 -10 742.876 99.0779   2
  -3   7  -9 268.852 87.4093   2
  -3   7  -8 249.510 59.2261   2
  -3   7  -7 102.331 43.2505   2
  -3   7  -6 1795.87 75.3568   2
  -3   7  -5 118.386 75.1192   2
  -3   7  -1 254.113 85.7437   2
  -3   7   0 11.8318 70.8321   2
  -3   7   1 1111.83 109.375   2
  -3   7   2 795.167 62.0629   2
  -3   7   3 75.3255 37.3783   2
  -3   7   4 63.3930 39.5606   2
  -3   7   5 344.956 43.6000   2
  -3   7   6 568.659 51.6808   2
  -3   7   7 1042.39 72.2796   2
  -3   7   8 711.441 110.322   2
  -3   7   9 2222.29 141.015   2
  -3   7  10 404.867 98.6429   2
  -3   7  11 1186.89 108.982   2
  -3   7  12 1064.85 96.2468   2
  -3   7  13 518.263 110.236   2
  -3   8 -16 324.179 41.0715   2
  -3   8 -15 382.199 60.2292   2
  -3   8 -14 2957.03 112.882   2
  -3   8 -13-7.47699 72.4764   2
  -3   8 -12 961.654 102.172   2
  -3   8 -11 862.270 99.5122   2
  -3   8 -10 1822.02 119.969   2
  -3   8  -9 1084.21 104.996   2
  -3   8  -8 130.782 45.6363   2
  -3   8  -7 587.851 55.1483   2
  -3   8  -6 4446.26 152.258   2
  -3   8  -5 6431.03 170.899   2
  -3   8  -4 7295.70 174.806   2
  -3   8  -3 1494.75 101.372   2
  -3   8  -2 4786.63 138.719   2
  -3   8  -1 14326.9 163.603   2
  -3   8   0 54.8601 53.9771   2
  -3   8   1 47.8921 35.8728   2
  -3   8   2 1390.96 46.9739   2
  -3   8   3 4853.83 80.8541   2
  -3   8   4 113.988 43.3343   2
  -3   8   5 1753.55 66.5516   2
  -3   8   6 9326.84 146.770   2
  -3   8   7 2510.97 90.0254   2
  -3   8   8 1974.32 136.543   2
  -3   8   9 2404.37 140.949   2
  -3   8  10 1586.61 119.334   2
  -3   8  11 17.9617 76.2685   2
  -3   8  12 3821.12 129.233   2
  -3   9 -15 881.777 59.8943   2
  -3   9 -14 268.274 65.2432   2
  -3   9 -13 261.947 74.8576   2
  -3   9 -12 399.582 83.7114   2
  -3   9 -11 67.1727 80.1946   2
  -3   9 -10 34.1425 79.5439   2
  -3   9  -9 24.4856 56.0483   2
  -3   9  -8 307.628 50.2193   2
  -3   9  -7 81.4578 80.6600   2
  -3   9  -6 689.645 98.5595   2
  -3   9  -5 31.0141 80.6010   2
  -3   9  -4 5.00104 51.7287   2
  -3   9  -3 1020.03 63.5991   2
  -3   9  -2 625.350 57.4474   2
  -3   9  -1 18.7515 46.7555   2
  -3   9   0 145.113 45.6414   2
  -3   9   1 277.701 40.0558   2
  -3   9   2 173.995 37.8209   2
  -3   9   3 92.0131 41.4764   2
  -3   9   4 635.297 56.0200   2
  -3   9   5 647.907 58.5654   2
  -3   9   6 129.720 60.3342   2
  -3   9   7 379.596 62.6405   2
  -3   9   8 1027.43 115.610   2
  -3   9   9 445.187 94.1908   2
  -3   9  10 559.135 94.9675   2
  -3   9  11 43.3599 72.9734   2
  -3   9  12 9.67808 116.754   2
  -3  10 -15 970.712 53.7647   2
  -3  10 -14 848.325 66.6041   2
  -3  10 -13 1783.25 94.6395   2
  -3  10 -12 419.965 78.8796   2
  -3  10 -11 79.0428 78.3754   2
  -3  10 -10 204.994 81.3178   2
  -3  10  -9 1101.50 70.4375   2
  -3  10  -8 865.490 57.3324   2
  -3  10  -7 691.225 66.9829   2
  -3  10  -6 131.255 85.6390   2
  -3  10  -5 2972.09 136.228   2
  -3  10  -4 20669.4 186.841   2
  -3  10  -3 9957.21 136.498   2
  -3  10  -2 322.922 60.0820   2
  -3  10  -1 9450.46 132.434   2
  -3  10   0 14795.6 167.612   2
  -3  10   1 11582.6 116.022   2
  -3  10   2 1302.55 54.8467   2
  -3  10   3 6425.63 103.830   2
  -3  10   4 12060.2 134.541   2
  -3  10   5 6514.11 104.554   2
  -3  10   6 2196.18 87.9754   2
  -3  10   7 2473.86 85.9287   2
  -3  10   8 1778.52 127.525   2
  -3  10   9 722.679 95.3074   2
  -3  10  10 553.453 87.6124   2
  -3  10  11 3647.18 146.195   2
  -3  11 -14 790.554 55.2097   2
  -3  11 -13 12.2360 51.9174   2
  -3  11 -12 629.981 73.6344   2
  -3  11 -11 28.9647 68.5592   2
  -3  11 -10-11.7654 49.1521   2
  -3  11  -9 77.2683 52.7979   2
  -3  11  -8 6.31492 44.7169   2
  -3  11  -7 73.7800 55.8833   2
  -3  11  -6 53.2177 85.4522   2
  -3  11  -5 150.215 88.9573   2
  -3  11  -4 277.312 54.9345   2
  -3  11  -3 45.1367 54.1041   2
  -3  11  -2 96.6338 54.6714   2
  -3  11  -1 43.4302 52.1208   2
  -3  11   0 115.772 53.8432   2
  -3  11   1 319.595 50.0530   2
  -3  11   2 12.1542 50.8148   2
  -3  11   3 7.07910 48.6368   2
  -3  11   4 969.074 59.7149   2
  -3  11   5 72.3797 57.3100   2
  -3  11   6-0.45591 54.6990   2
  -3  11   7 581.669 56.6085   2
  -3  11   8 1896.08 120.286   2
  -3  11   9 500.907 94.1357   2
  -3  11  10 25.2388 122.477   2
  -3  12 -13 1511.79 65.8288   2
  -3  12 -12 3541.83 100.627   2
  -3  12 -11 84.6822 60.3647   2
  -3  12 -10 1112.43 59.7876   2
  -3  12  -9 1671.44 72.2255   2
  -3  12  -8 2777.79 86.6287   2
  -3  12  -7-4.89908 82.9144   2
  -3  12  -6 1294.03 110.962   2
  -3  12  -5 10813.7 226.087   2
  -3  12  -4-6.11217 54.4028   2
  -3  12  -3 1077.26 68.2082   2
  -3  12  -2 5063.31 104.697   2
  -3  12  -1 1045.94 100.796   2
  -3  12   0 49.9432 46.0490   2
  -3  12   1 1784.63 66.1835   2
  -3  12   2 8842.51 134.269   2
  -3  12   3 1254.42 65.5425   2
  -3  12   4 1139.50 81.5245   2
  -3  12   5 8679.27 134.469   2
  -3  12   6 1868.39 76.0976   2
  -3  12   7 80.0239 48.8837   2
  -3  12   8 1606.19 147.610   2
  -3  12   9 2376.72 173.376   2
  -3  13 -12 151.564 42.6911   2
  -3  13 -11 70.0175 48.2750   2
  -3  13 -10-19.8990 38.2123   2
  -3  13  -9 252.281 46.0186   2
  -3  13  -8 235.886 83.8945   2
  -3  13  -7-21.3623 82.7359   2
  -3  13  -6 6.08122 76.0633   2
  -3  13  -5 30.3405 80.0719   2
  -3  13  -4 575.205 58.4504   2
  -3  13  -3 135.147 68.9165   2
  -3  13  -2-12.7164 69.6442   2
  -3  13  -1 79.3082 60.8335   2
  -3  13   0 60.2094 55.5247   2
  -3  13   1 126.206 54.6442   2
  -3  13   2-30.8991 74.4701   2
  -3  13   3 428.384 79.4418   2
  -3  13   4 44.7364 70.4797   2
  -3  13   5 19.6200 61.9307   2
  -3  13   6 160.020 53.4563   2
  -3  13   7 419.915 194.568   2
  -3  14 -10 923.318 64.8291   2
  -3  14  -9 117.737 63.1601   2
  -3  14  -8 176.183 69.8321   2
  -3  14  -7 1303.82 104.134   2
  -3  14  -6 1223.51 110.411   2
  -3  14  -5 4641.47 161.711   2
  -3  14  -4 6755.55 111.276   2
  -3  14  -3 565.470 59.4729   2
  -3  14  -2 243.152 56.7109   2
  -3  14  -1 4037.88 96.0980   2
  -3  14   0 10447.1 132.387   2
  -3  14   1 6027.41 147.087   2
  -3  14   2 420.971 75.3804   2
  -3  14   3 6504.53 142.495   2
  -3  14   4 9075.93 152.946   2
  -3  14   5 1232.91 69.5673   2
  -3  15  -9 31.5820 45.5545   2
  -3  15  -8 71.9641 56.8822   2
  -3  15  -7 44.0200 62.7777   2
  -3  15  -6 130.843 69.1499   2
  -3  15  -5 105.606 77.0917   2
  -3  15  -4 20.1814 44.1648   2
  -3  15  -3 71.9892 44.8479   2
  -3  15  -2 130.534 49.3552   2
  -3  15  -1 132.399 46.0740   2
  -3  15   0 16.6519 39.8671   2
  -3  15   1-0.64635 59.6135   2
  -3  15   2 12.1061 57.5562   2
  -3  15   3 64.4777 52.8702   2
  -3  15   4-19.0981 44.4225   2
  -3  16  -7 572.840 56.5654   2
  -3  16  -6 3132.10 96.4062   2
  -3  16  -5 223.748 60.9702   2
  -3  16  -4 3.64785 57.6514   2
  -3  16  -3 389.780 40.7393   2
  -3  16  -2 528.854 41.8172   2
  -3  16  -1 432.497 53.2316   2
  -3  16   0 65.4569 47.7418   2
  -3  16   1 3118.70 83.2227   2
  -3  16   2 1989.89 65.2229   2
  -2 -14   7 1301.23 84.8988   2
  -2 -14   8 3526.66 112.833   2
  -2 -14   9 4120.82 113.925   2
  -2 -14  10 2930.28 91.7937   2
  -2 -14  11 108.124 43.8350   2
  -2 -13  -3 45.8395 87.0860   2
  -2 -13  -2 60.0311 94.8054   2
  -2 -13  -1 66.2577 94.5679   2
  -2 -13   0-33.8834 97.4626   2
  -2 -13   1 20.9545 101.300   2
  -2 -13   7-7.82667 73.7199   2
  -2 -13   8 89.1061 72.2744   2
  -2 -13   9 472.076 78.2596   2
  -2 -13  10 190.554 67.2393   2
  -2 -13  11 44.6445 53.2990   2
  -2 -13  12 17.3102 49.3774   2
  -2 -13  13 684.820 52.5512   2
  -2 -12  -4 6871.74 193.408   2
  -2 -12  -3 45.5896 91.3808   2
  -2 -12  -2 300.658 102.810   2
  -2 -12  -1 3528.38 169.769   2
  -2 -12   0 3368.30 169.552   2
  -2 -12   1 1421.74 139.686   2
  -2 -12   2 38.2496 108.445   2
  -2 -12   8 917.834 100.598   2
  -2 -12   9 92.7684 79.2696   2
  -2 -12  10 2521.41 119.951   2
  -2 -12  11 3648.59 127.055   2
  -2 -12  12 418.483 68.5260   2
  -2 -12  13 2238.25 87.6365   2
  -2 -12  14 786.756 55.1256   2
  -2 -11  -5 25.0756 89.5345   2
  -2 -11  -4-30.0331 91.2278   2
  -2 -11  -3-4.81141 91.7832   2
  -2 -11  -2 5.17337 95.5158   2
  -2 -11  -1-24.5517 96.2326   2
  -2 -11   0 124.762 105.279   2
  -2 -11   1 537.436 118.337   2
  -2 -11   2 83.3258 100.792   2
  -2 -11   3 811.736 110.193   2
  -2 -11   4 354.411 102.338   2
  -2 -11   9 370.945 86.5991   2
  -2 -11  10 222.060 84.2275   2
  -2 -11  11 15.3657 72.5024   2
  -2 -11  12 1423.98 97.2112   2
  -2 -11  13 81.7906 61.1332   2
  -2 -11  14 461.411 60.3306   2
  -2 -11  15-8.24712 38.5039   2
  -2 -10  -6 4771.62 171.567   2
  -2 -10  -5 5245.69 178.600   2
  -2 -10  -4 155.970 92.0510   2
  -2 -10  -3 4699.75 179.652   2
  -2 -10  -2 374.923 99.1809   2
  -2 -10  -1 2373.88 142.434   2
  -2 -10   0 764.154 109.116   2
  -2 -10   1 3467.98 150.309   2
  -2 -10   2 5845.10 177.819   2
  -2 -10   3 1151.70 104.167   2
  -2 -10   4 12501.4 238.044   2
  -2 -10   9 15338.5 268.835   2
  -2 -10  10 1389.32 113.133   2
  -2 -10  11 3122.65 137.215   2
  -2 -10  12 10665.3 209.075   2
  -2 -10  13 1673.85 97.5509   2
  -2 -10  14 1001.14 77.5037   2
  -2 -10  15 1034.27 65.4748   2
  -2  -9  -7 182.762 93.0760   2
  -2  -9  -6 110.565 88.6577   2
  -2  -9  -5 70.3625 89.2834   2
  -2  -9  -4-20.4964 89.5628   2
  -2  -9  -3 103.933 87.6631   2
  -2  -9  -2 41.0165 81.6931   2
  -2  -9  -1 146.408 82.0722   2
  -2  -9   0 1018.90 95.3598   2
  -2  -9   1 564.740 81.4102   2
  -2  -9   2 430.171 74.0753   2
  -2  -9   3 1314.99 94.7045   2
  -2  -9   4 880.132 86.5469   2
  -2  -9   5 246.818 72.5085   2
  -2  -9  10 102.781 88.8721   2
  -2  -9  11 1520.24 112.609   2
  -2  -9  12 583.173 91.6986   2
  -2  -9  13 2342.87 114.548   2
  -2  -9  14 35.7380 62.8285   2
  -2  -9  15-4.25001 52.8727   2
  -2  -9  16 11.3182 39.3678   2
  -2  -8  -8 17783.8 288.716   2
  -2  -8  -7 20099.3 316.153   2
  -2  -8  -6 1137.25 115.836   2
  -2  -8  -5 7787.68 208.453   2
  -2  -8  -4 5712.92 177.797   2
  -2  -8  -3 10464.3 212.562   2
  -2  -8   8 396.360 78.1756   2
  -2  -8   9 3343.25 127.928   2
  -2  -8  10 14900.9 181.986   2
  -2  -8  11 6964.71 125.117   2
  -2  -8  12 788.334 93.3269   2
  -2  -8  13 1245.65 99.2165   2
  -2  -8  14 3217.98 120.340   2
  -2  -8  15 1848.86 87.2518   2
  -2  -8  16 80.4094 45.1855   2
  -2  -7  -8 1196.62 115.311   2
  -2  -7  -7 1555.34 122.149   2
  -2  -7  -6 649.691 104.361   2
  -2  -7  -5-5.04725 78.6709   2
  -2  -7   8 4.13161 65.3139   2
  -2  -7   9 1698.14 99.9417   2
  -2  -7  10 718.700 61.8051   2
  -2  -7  11 1992.03 79.8368   2
  -2  -7  12 79.7951 51.6516   2
  -2  -7  13 2738.46 85.9176   2
  -2  -7  14 125.108 48.4758   2
  -2  -7  15 461.231 68.5600   2
  -2  -7  16 275.223 48.6643   2
  -2  -6  -9 22375.8 329.530   2
  -2  -6  -8 5965.70 187.315   2
  -2  -6  -7 10509.4 226.986   2
  -2  -6  -6 8964.51 195.357   2
  -2  -6   9 130.389 72.0611   2
  -2  -6  10 1172.74 68.5552   2
  -2  -6  11 2949.93 90.3921   2
  -2  -6  12 1226.49 69.5891   2
  -2  -6  13 55.9548 50.3651   2
  -2  -6  14 5201.95 105.679   2
  -2  -6  15 2639.32 74.0277   2
  -2  -6  16 645.308 60.5717   2
  -2  -5 -10 1880.14 132.315   2
  -2  -5  -9 348.194 90.5875   2
  -2  -5  -8 258.369 86.3602   2
  -2  -5  -7 51.1478 76.2587   2
  -2  -5  -2 992.792 65.3233   2
  -2  -5   9 1788.87 95.5847   2
  -2  -5  10 2080.99 75.7960   2
  -2  -5  11 50.8425 49.2091   2
  -2  -5  12 2017.32 80.0597   2
  -2  -5  13 453.601 57.0605   2
  -2  -5  14 23.4382 48.3977   2
  -2  -5  15 20.9961 42.3437   2
  -2  -5  16 419.428 43.0693   2
  -2  -5  17 241.931 45.8435   2
  -2  -4 -11 961.887 106.748   2
  -2  -4 -10 28538.1 359.776   2
  -2  -4  -9 2391.41 131.693   2
  -2  -4  -8 12419.6 215.867   2
  -2  -4  -3 29421.4 250.918   2
  -2  -4  -2 83.8140 52.2562   2
  -2  -4   9 3841.92 123.835   2
  -2  -4  10 2568.53 67.2506   2
  -2  -4  11 2064.04 65.5863   2
  -2  -4  12 3952.85 84.3705   2
  -2  -4  13 3990.65 98.8038   2
  -2  -4  14 605.686 56.4040   2
  -2  -4  15 14.9185 43.3088   2
  -2  -4  16 3044.82 111.610   2
  -2  -4  17 3943.80 88.7632   2
  -2  -3 -12 183.641 83.4550   2
  -2  -3 -11 325.530 91.1019   2
  -2  -3 -10 2737.67 134.219   2
  -2  -3  -9 5.16419 68.5383   2
  -2  -3  -3 157.890 46.3750   2
  -2  -3  -2 662.733 56.8583   2
  -2  -3  -1 775.441 58.1317   2
  -2  -3  10 1414.69 70.7587   2
  -2  -3  11 717.986 65.9242   2
  -2  -3  12 992.174 100.232   2
  -2  -3  13 153.842 58.4637   2
  -2  -3  14 182.795 80.2445   2
  -2  -3  15 560.399 85.6819   2
  -2  -3  16 10.9035 42.6548   2
  -2  -3  17 942.452 66.2495   2
  -2  -2 -13 1415.18 110.370   2
  -2  -2 -12 1350.10 109.153   2
  -2  -2  -3 3810.98 104.316   2
  -2  -2  -2 6690.58 130.974   2
  -2  -2  -1 17112.2 202.277   2
  -2  -2   3 84727.0 320.053   2
  -2  -2  10 6479.52 122.836   2
  -2  -2  11 2074.14 86.1311   2
  -2  -2  12 6465.43 137.200   2
  -2  -2  13 1158.90 78.8841   2
  -2  -2  14 1632.64 117.421   2
  -2  -2  15 3654.31 145.068   2
  -2  -2  16 2086.94 69.4227   2
  -2  -2  17 382.482 58.3500   2
  -2  -1 -14 62.3728 72.7564   2
  -2  -1 -13-28.9886 77.8101   2
  -2  -1 -12-26.8645 84.1193   2
  -2  -1 -11 1805.82 116.479   2
  -2  -1 -10 582.785 78.7147   2
  -2  -1  -9 148.636 59.1020   2
  -2  -1  -3 934.389 67.3915   2
  -2  -1  -2 23.8326 45.8163   2
  -2  -1  -1 37.1827 50.6833   2
  -2  -1   0 422.818 57.3564   2
  -2  -1   3 246.686 46.3066   2
  -2  -1  10-25.6768 41.3881   2
  -2  -1  11 1059.38 73.9616   2
  -2  -1  12 90.9763 57.7922   2
  -2  -1  13-7.40268 58.0997   2
  -2  -1  14 13.1421 81.3892   2
  -2  -1  15 603.674 57.4465   2
  -2  -1  16 1122.40 58.8660   2
  -2  -1  17 153.500 54.3790   2
  -2   1 -15 1950.44 104.299   2
  -2   1 -14 425.125 87.7278   2
  -2   1 -13 295.527 86.1900   2
  -2   1 -12 204.137 83.5346   2
  -2   1 -11 4291.77 142.243   2
  -2   1 -10 307.830 68.6889   2
  -2   1  -2 485.974 72.9233   2
  -2   1  -1 138.845 67.3716   2
  -2   1   0 681.726 75.1344   2
  -2   1   1 490.197 50.4437   2
  -2   1   2 124.850 32.5852   2
  -2   1   3 750.000 42.2019   2
  -2   1   4 362.789 46.0219   2
  -2   1   5-17.6106 58.3860   2
  -2   1   6 586.479 72.3770   2
  -2   1   7 1812.27 103.340   2
  -2   1   8 1077.52 86.1009   2
  -2   1   9-4.28605 32.9568   2
  -2   1  10 511.693 48.2455   2
  -2   1  11 871.079 72.0268   2
  -2   1  12 258.391 64.0469   2
  -2   1  13 230.693 55.7060   2
  -2   1  14 345.862 60.6954   2
  -2   1  15 285.593 83.8587   2
  -2   1  16-6.18999 66.3149   2
  -2   1  17 115.016 52.0229   2
  -2   2 -15 6870.83 162.402   2
  -2   2 -14 2786.64 130.128   2
  -2   2 -13 107.520 80.0398   2
  -2   2 -12 8803.67 200.565   2
  -2   2 -11 44257.3 393.667   2
  -2   2 -10 8478.70 167.726   2
  -2   2  -1 15.9071 70.9732   2
  -2   2   0 29000.2 215.572   2
  -2   2   1 16484.1 136.357   2
  -2   2   2 27924.8 174.041   2
  -2   2   3 5622.12 84.1697   2
  -2   2   4 22326.3 186.410   2
  -2   2   5 14530.0 154.973   2
  -2   2   6 1160.79 87.2813   2
  -2   2   7 13310.6 245.464   2
  -2   2   8 16532.4 280.019   2
  -2   2   9 762.498 39.2354   2
  -2   2  10 39.9612 37.0808   2
  -2   2  11 8780.39 123.297   2
  -2   2  12 937.461 59.5575   2
  -2   2  13 1157.02 117.085   2
  -2   2  14 343.799 95.8918   2
  -2   2  15 2584.57 128.739   2
  -2   2  16 774.749 79.0446   2
  -2   3 -16 280.417 65.4553   2
  -2   3 -15 384.557 78.6219   2
  -2   3 -14 168.375 84.8833   2
  -2   3 -13 1119.59 105.881   2
  -2   3 -12 3259.39 139.501   2
  -2   3 -11 314.845 71.3286   2
  -2   3 -10 1344.75 91.1214   2
  -2   3  -1 2793.88 105.695   2
  -2   3   0 4936.24 97.1232   2
  -2   3   1 296.866 40.1801   2
  -2   3   2 848.221 44.2878   2
  -2   3   3 162.066 35.9307   2
  -2   3   4 7.81308 31.6406   2
  -2   3   5 842.170 78.5122   2
  -2   4 -16 6130.13 132.650   2
  -2   4 -15 100.398 73.0265   2
  -2   4 -14 3467.47 144.233   2
  -2   4 -13 4966.86 166.021   2
  -2   4 -12 42484.0 413.649   2
  -2   4 -11 4359.27 127.589   2
  -2   4 -10 11757.8 175.056   2
  -2   4  -9 39981.9 291.306   2
  -2   4  -4 81470.1 464.054   2
  -2   4  -3 50788.5 318.636   2
  -2   4  -2 8519.45 162.324   2
  -2   4  -1 956.087 76.8983   2
  -2   4   0 21422.2 256.312   2
  -2   4   1 3538.45 95.0447   2
  -2   4   2 17471.6 195.496   2
  -2   4   3 5186.57 117.034   2
  -2   4   4 416.367 56.4216   2
  -2   4   5 7180.33 146.853   2
  -2   4   6 244.342 73.1782   2
  -2   4   7 50.5683 67.5213   2
  -2   4   8 10306.2 108.758   2
  -2   4   9 11593.8 105.735   2
  -2   4  10 1171.96 63.9973   2
  -2   4  11 45.9957 47.7237   2
  -2   4  12 164.127 60.5022   2
  -2   4  13 6670.79 132.301   2
  -2   4  14 1745.54 76.5740   2
  -2   4  15 179.447 73.3402   2
  -2   5 -16 131.256 58.8381   2
  -2   5 -15-9.50646 68.9687   2
  -2   5 -14 63.6913 80.8988   2
  -2   5 -13 35.0124 85.0960   2
  -2   5 -12 3278.47 145.338   2
  -2   5 -11 345.870 75.2282   2
  -2   5 -10 190.177 65.5649   2
  -2   5  -9 1480.10 152.200   2
  -2   5  -8 2879.75 168.335   2
  -2   5  -7 216.236 89.0655   2
  -2   5  -6 347.063 81.8252   2
  -2   5  -5 66.4959 63.8853   2
  -2   5  -4 8517.80 174.303   2
  -2   5  -3 89.3419 55.5321   2
  -2   5  -2 462.828 67.9219   2
  -2   5  -1 5547.41 141.656   2
  -2   5   0 4278.79 134.561   2
  -2   5   1 533.965 77.0058   2
  -2   5   2 863.553 66.4118   2
  -2   5   3 136.283 51.3056   2
  -2   5   4 205.037 57.8328   2
  -2   5   5 1372.01 83.1161   2
  -2   5   6 1685.04 92.5131   2
  -2   5   7 2561.15 66.8746   2
  -2   5   8 713.434 40.8309   2
  -2   5   9 269.067 42.8568   2
  -2   5  10 930.504 61.7134   2
  -2   5  11 418.081 68.0122   2
  -2   5  12 252.955 64.2850   2
  -2   5  13 941.331 70.3273   2
  -2   5  14 469.062 55.6202   2
  -2   6 -16 120.950 57.6158   2
  -2   6 -15 628.094 83.3916   2
  -2   6 -14 1761.44 114.699   2
  -2   6 -13 13218.9 248.893   2
  -2   6 -12 4919.18 168.115   2
  -2   6 -11 2127.33 125.088   2
  -2   6 -10 3361.97 235.587   2
  -2   6  -9 108.885 61.9975   2
  -2   6  -8 5404.75 225.047   2
  -2   6  -7 1565.98 132.144   2
  -2   6  -3 30528.0 294.105   2
  -2   6  -2 7954.17 166.852   2
  -2   6  -1 4552.61 139.008   2
  -2   6   0 25652.5 319.245   2
  -2   6   1 3130.09 133.579   2
  -2   6   2 14737.6 206.919   2
  -2   6   3 296.384 61.1460   2
  -2   6   4 10876.0 192.988   2
  -2   6   5 2068.81 101.471   2
  -2   6   6 668.620 47.5738   2
  -2   6   7 1364.19 52.0329   2
  -2   6   8 691.923 42.5836   2
  -2   6   9 45.9433 48.8440   2
  -2   6  10 1485.91 87.9877   2
  -2   6  11 58.3712 62.4207   2
  -2   6  12 33.9836 90.4712   2
  -2   6  13 1375.57 74.2840   2
  -2   6  14 3400.09 112.570   2
  -2   7 -16 369.118 58.3104   2
  -2   7 -15 290.398 71.9555   2
  -2   7 -14 643.493 93.2872   2
  -2   7 -13 2849.20 144.992   2
  -2   7 -12 490.225 101.428   2
  -2   7 -11-6.80821 89.0095   2
  -2   7 -10 339.593 83.5690   2
  -2   7  -9 198.032 76.8072   2
  -2   7  -8 133.329 71.3573   2
  -2   7  -2 5425.90 149.951   2
  -2   7  -1 5690.72 163.793   2
  -2   7   0 223.499 77.9817   2
  -2   7   1 1274.99 107.391   2
  -2   7   2 92.2615 58.6542   2
  -2   7   3 177.476 60.4908   2
  -2   7   4 735.172 77.2173   2
  -2   7   5 2322.31 66.7919   2
  -2   7   6 3755.79 66.8444   2
  -2   7   7 62.1264 48.6646   2
  -2   7   8 120.574 51.7163   2
  -2   7   9 2546.26 102.924   2
  -2   7  10 534.726 73.2218   2
  -2   7  11 360.646 67.7409   2
  -2   7  12 193.194 61.6229   2
  -2   7  13 121.232 71.9485   2
  -2   7  14 99.6259 58.2293   2
  -2   8 -16 1940.70 78.2886   2
  -2   8 -15 443.756 75.0321   2
  -2   8 -14 40.2615 81.5443   2
  -2   8 -13 7809.35 198.011   2
  -2   8 -12 6094.90 187.078   2
  -2   8 -11 88.6821 57.4788   2
  -2   8 -10 7476.16 178.777   2
  -2   8  -9 4997.54 153.321   2
  -2   8  -8 10624.8 207.670   2
  -2   8  -7 2405.40 118.004   2
  -2   8  -2 581.155 81.1304   2
  -2   8  -1 1537.60 109.748   2
  -2   8   0 747.089 96.9543   2
  -2   8   1 4715.79 176.793   2
  -2   8   2 3109.52 155.906   2
  -2   8   3 745.026 80.1596   2
  -2   8   4 6504.55 81.4580   2
  -2   8   5 504.656 44.5316   2
  -2   8   6 174.869 42.9334   2
  -2   8   7 14044.3 185.941   2
  -2   8   8 14457.9 191.093   2
  -2   8   9 2179.32 144.379   2
  -2   8  10 108.790 66.9664   2
  -2   8  11 2092.40 129.707   2
  -2   8  12 11420.9 222.043   2
  -2   8  13 5819.84 142.269   2
  -2   9 -16 23.4319 43.3394   2
  -2   9 -15 373.899 67.7416   2
  -2   9 -14 81.2652 75.0019   2
  -2   9 -13 676.998 97.7370   2
  -2   9 -12 407.023 100.924   2
  -2   9 -11 58.8391 75.9731   2
  -2   9 -10 271.938 84.2538   2
  -2   9  -9 347.298 83.4925   2
  -2   9  -8 175.552 82.4845   2
  -2   9  -7 319.646 84.0328   2
  -2   9  -6 76.1015 74.0540   2
  -2   9  -5 3070.07 126.384   2
  -2   9  -4-20.2134 71.3241   2
  -2   9  -1 2162.89 128.321   2
  -2   9   0 3.88984 78.3695   2
  -2   9   1 73.0794 83.3486   2
  -2   9   2 22.3804 42.3991   2
  -2   9   3-4.82242 39.7327   2
  -2   9   4 748.120 50.5492   2
  -2   9   5 3440.02 70.4451   2
  -2   9   6 654.740 56.8729   2
  -2   9   7 711.510 55.4977   2
  -2   9   8 633.159 73.3663   2
  -2   9   9 2517.91 149.842   2
  -2   9  10 55.3372 89.0628   2
  -2   9  11 77.0534 84.2450   2
  -2   9  12 584.129 80.9646   2
  -2   9  13 1069.75 73.9407   2
  -2  10 -16 113.540 38.3052   2
  -2  10 -15 235.426 57.5558   2
  -2  10 -14 2374.11 107.642   2
  -2  10 -13 458.810 88.3480   2
  -2  10 -12 300.212 95.4353   2
  -2  10 -11 1409.03 101.288   2
  -2  10 -10 164.463 78.2031   2
  -2  10  -9 4698.98 158.887   2
  -2  10  -8 2246.35 125.223   2
  -2  10  -7 4984.24 170.416   2
  -2  10  -6 764.814 95.8553   2
  -2  10  -5 7748.75 187.014   2
  -2  10  -4 23949.4 190.269   2
  -2  10  -3 4710.51 147.655   2
  -2  10  -2 1360.34 97.0629   2
  -2  10  -1 12023.5 198.536   2
  -2  10   0 5679.36 121.485   2
  -2  10   1 5796.58 98.1899   2
  -2  10   2 64.5432 48.6162   2
  -2  10   3 9451.86 109.979   2
  -2  10   4 2706.87 76.9094   2
  -2  10   5 63.0581 49.3309   2
  -2  10   6 5480.47 97.4077   2
  -2  10   7 282.685 49.5028   2
  -2  10   8-15.1728 60.7699   2
  -2  10   9 1744.53 127.754   2
  -2  10  10 2930.96 135.622   2
  -2  10  11 2105.49 110.563   2
  -2  10  12 89.1678 60.7017   2
  -2  11 -15 10.4217 44.4931   2
  -2  11 -14 50.2919 60.3790   2
  -2  11 -13 161.026 73.3751   2
  -2  11 -12 57.9024 81.2228   2
  -2  11 -11 87.8141 71.6016   2
  -2  11 -10 32.5246 73.5529   2
  -2  11  -9 69.0599 86.1324   2
  -2  11  -8 58.6668 85.8256   2
  -2  11  -7 47.2358 85.2863   2
  -2  11  -6 1623.02 116.711   2
  -2  11  -5 1406.88 111.389   2
  -2  11  -4 456.872 61.6255   2
  -2  11  -3 804.224 65.8446   2
  -2  11  -2 1239.27 102.390   2
  -2  11  -1 32.7051 55.0294   2
  -2  11   0 323.905 84.9727   2
  -2  11   1 192.229 61.0040   2
  -2  11   2 702.431 69.4031   2
  -2  11   3 148.073 50.1503   2
  -2  11   4 1336.66 64.7644   2
  -2  11   5 329.680 53.3351   2
  -2  11   6 169.847 49.9742   2
  -2  11   7 759.060 53.7230   2
  -2  11   8 1377.78 118.985   2
  -2  11   9-26.6894 80.2231   2
  -2  11  10 61.7802 70.3642   2
  -2  11  11-4.25066 57.9044   2
  -2  12 -14 163.989 55.2353   2
  -2  12 -13 3372.56 112.918   2
  -2  12 -12 2482.66 119.047   2
  -2  12 -11 140.779 73.3235   2
  -2  12 -10 52.1014 75.8340   2
  -2  12  -9 441.507 91.9004   2
  -2  12  -8 289.693 87.0769   2
  -2  12  -7 1244.72 114.923   2
  -2  12  -6 1694.08 117.252   2
  -2  12  -5 1388.76 73.6412   2
  -2  12  -4 14915.0 169.803   2
  -2  12  -3 12931.9 159.075   2
  -2  12  -2 6052.41 117.006   2
  -2  12  -1 50.3520 45.9397   2
  -2  12   0 7344.79 129.318   2
  -2  12   1 21022.3 203.970   2
  -2  12   2 17344.5 188.578   2
  -2  12   3 155.761 61.7443   2
  -2  12   4 6286.21 103.077   2
  -2  12   5 19793.5 163.319   2
  -2  12   6 3652.28 80.1802   2
  -2  12   7 201.792 43.5826   2
  -2  12   8 535.469 86.3914   2
  -2  12   9 3286.27 118.105   2
  -2  12  10 2519.08 96.6053   2
  -2  13 -14 35.4031 37.3021   2
  -2  13 -13 637.907 61.1882   2
  -2  13 -12 746.789 76.6906   2
  -2  13 -11 83.1654 69.7275   2
  -2  13 -10-10.9228 67.6893   2
  -2  13  -9 99.7041 79.9710   2
  -2  13  -8 485.937 91.9193   2
  -2  13  -7 126.286 83.3902   2
  -2  13  -6 418.665 93.1286   2
  -2  13  -5-18.3013 53.4575   2
  -2  13  -4 28.7297 56.1457   2
  -2  13  -3 344.694 57.6050   2
  -2  13  -2 304.574 60.5306   2
  -2  13  -1-20.4708 54.9336   2
  -2  13   0 10.4057 55.2636   2
  -2  13   1-18.7864 58.3753   2
  -2  13   2 26.8418 59.4640   2
  -2  13   3 465.426 62.6635   2
  -2  13   4 836.025 67.7791   2
  -2  13   5-13.0448 43.2826   2
  -2  13   6 23.3191 39.8650   2
  -2  13   7 1064.45 91.7789   2
  -2  13   8 232.144 72.3758   2
  -2  14 -12 5180.29 106.005   2
  -2  14 -11 2693.66 97.5056   2
  -2  14 -10 34.8295 38.4770   2
  -2  14  -9 1314.93 98.3135   2
  -2  14  -8 6405.39 172.627   2
  -2  14  -7 3930.86 146.085   2
  -2  14  -6 24.7984 82.1451   2
  -2  14  -5 10709.9 134.867   2
  -2  14  -4 9132.29 130.431   2
  -2  14  -3 1346.10 98.5404   2
  -2  14  -2 1458.62 72.4842   2
  -2  14  -1 4191.69 95.4221   2
  -2  14   0 9260.13 134.670   2
  -2  14   1 3495.93 92.3316   2
  -2  14   2 1795.62 75.4585   2
  -2  14   3 4923.04 100.955   2
  -2  14   4 2996.96 83.2939   2
  -2  14   5 99.2091 46.3805   2
  -2  14   6 63.5907 51.5581   2
  -2  15 -11 116.033 41.7384   2
  -2  15 -10 142.411 37.1477   2
  -2  15  -9 75.5635 34.9775   2
  -2  15  -8 45.9055 70.0338   2
  -2  15  -7 558.758 83.0396   2
  -2  15  -6 41.5215 73.1865   2
  -2  15  -5 59.4925 45.7801   2
  -2  15  -4 58.0238 46.9840   2
  -2  15  -3 77.5551 46.7349   2
  -2  15  -2 49.9248 72.6012   2
  -2  15  -1 55.3648 72.5705   2
  -2  15   0 19.1907 41.0095   2
  -2  15   1 244.857 48.8647   2
  -2  15   2 98.7949 47.9071   2
  -2  15   3 160.225 45.9428   2
  -2  15   4 14.7748 55.2960   2
  -2  15   5-9.85922 49.0371   2
  -2  16  -9 6363.14 112.587   2
  -2  16  -8 2377.05 96.7039   2
  -2  16  -7 242.614 49.3056   2
  -2  16  -6 7036.69 144.755   2
  -2  16  -5 790.220 76.1642   2
  -2  16  -4 144.968 40.0780   2
  -2  16  -3 57.4880 56.3166   2
  -2  16  -2 224.720 49.9617   2
  -2  16  -1 168.380 46.8799   2
  -2  16   0 266.726 62.0973   2
  -2  16   1 734.382 70.4292   2
  -2  16   2 3.11942 53.8427   2
  -2  16   3 1170.11 64.9917   2
  -2  17  -7 184.535 50.8521   2
  -2  17  -6 11.5965 52.2006   2
  -2  17  -5 118.569 57.5433   2
  -2  17  -4 80.5962 58.6302   2
  -2  17  -3 72.9894 34.4733   2
  -2  17  -2-26.7753 44.3383   2
  -2  17  -1 0.13508 43.7677   2
  -2  17   0-10.4494 41.3519   2
  -1 -14  10 743.453 76.3806   2
  -1 -14  11 82.5207 51.7078   2
  -1 -14  12 1171.46 61.1737   2
  -1 -13   8 454.069 82.4773   2
  -1 -13   9 128.879 78.7109   2
  -1 -13  10 909.336 89.3451   2
  -1 -13  11-14.5625 62.0967   2
  -1 -13  12 53.9675 58.9325   2
  -1 -13  13 457.081 55.7146   2
  -1 -13  14 41.0580 39.0202   2
  -1 -12  -2-48.2971 85.8009   2
  -1 -12  -1 41.2257 88.9243   2
  -1 -12   0 467.612 101.696   2
  -1 -12   1 932.906 113.219   2
  -1 -12   6 14988.2 255.304   2
  -1 -12   7 907.142 104.871   2
  -1 -12   8 921.054 101.262   2
  -1 -12   9 6357.86 176.681   2
  -1 -12  10 12868.5 230.975   2
  -1 -12  11 3603.09 134.952   2
  -1 -12  12 332.650 75.6630   2
  -1 -12  13 6783.53 146.624   2
  -1 -12  14 1517.89 77.7571   2
  -1 -12  15 554.742 48.1930   2
  -1 -11  -2 115.165 87.2470   2
  -1 -11  -1-2.24715 83.3221   2
  -1 -11   0 875.095 100.583   2
  -1 -11   1 3460.06 144.534   2
  -1 -11   2 900.963 100.566   2
  -1 -11   8 413.839 93.4728   2
  -1 -11   9 175.766 90.0413   2
  -1 -11  10 211.146 92.2579   2
  -1 -11  11 132.058 82.8315   2
  -1 -11  12 615.731 87.8877   2
  -1 -11  13 386.172 78.4438   2
  -1 -11  14 538.980 70.2169   2
  -1 -11  15 7.19168 49.1998   2
  -1 -10  -2 681.357 89.5598   2
  -1 -10  -1 75.6797 70.8881   2
  -1 -10   0 8998.48 182.910   2
  -1 -10   1 7521.43 166.491   2
  -1 -10   2 3162.41 120.390   2
  -1 -10   3 16174.6 237.241   2
  -1 -10   8 15669.6 274.024   2
  -1 -10   9 13050.0 253.562   2
  -1 -10  10 155.929 90.8502   2
  -1 -10  11 7669.33 198.094   2
  -1 -10  12 8123.29 196.419   2
  -1 -10  13 176.140 81.4381   2
  -1 -10  14 413.452 78.3370   2
  -1 -10  15 940.354 76.7075   2
  -1 -10  16 589.954 54.6625   2
  -1  -9   9 1682.83 124.093   2
  -1  -9  10 25.9089 89.6443   2
  -1  -9  11 69.9445 90.7727   2
  -1  -9  12 1417.68 115.425   2
  -1  -9  13 245.191 84.1969   2
  -1  -9  14 79.5871 74.5077   2
  -1  -9  15 55.5886 62.7120   2
  -1  -9  16 415.361 60.1240   2
  -1  -8   9 2050.65 125.299   2
  -1  -8  10 1041.58 110.391   2
  -1  -8  11-7.80379 89.4074   2
  -1  -8  12 3595.72 149.531   2
  -1  -8  13 1344.58 115.298   2
  -1  -8  14 512.049 87.4191   2
  -1  -8  15 128.106 69.9770   2
  -1  -8  16 704.091 69.3030   2
  -1  -8  17 1852.48 67.6419   2
  -1  -7   9-19.0801 71.7696   2
  -1  -7  10 115.424 83.6501   2
  -1  -7  11 1399.16 112.305   2
  -1  -7  12 113.039 85.4418   2
  -1  -7  13 204.349 86.3119   2
  -1  -7  14-1.25786 79.4452   2
  -1  -7  15-5.57540 68.5253   2
  -1  -7  16 45.3045 60.2980   2
  -1  -7  17 294.913 49.8806   2
  -1  -6   9 891.277 84.7491   2
  -1  -6  10 10845.4 209.317   2
  -1  -6  11 9741.50 209.431   2
  -1  -6  12 1236.32 103.881   2
  -1  -6  13 95.6569 84.6483   2
  -1  -6  14 4284.69 151.177   2
  -1  -6  15 1771.76 107.276   2
  -1  -6  16 1124.34 82.2479   2
  -1  -6  17 68.2137 46.3838   2
  -1  -5  10 253.143 72.1013   2
  -1  -5  11 1724.13 74.3207   2
  -1  -5  12 341.254 58.1336   2
  -1  -5  13 77.9973 54.0002   2
  -1  -5  14 1080.76 71.2076   2
  -1  -5  15 1574.48 103.302   2
  -1  -5  16 567.836 71.1397   2
  -1  -5  17 275.016 51.7111   2
  -1  -4  -3 801.906 35.1428   2
  -1  -4  10 3219.11 113.819   2
  -1  -4  11 3020.04 73.7456   2
  -1  -4  12 6633.31 122.440   2
  -1  -4  13 1544.14 76.9743   2
  -1  -4  14 2364.86 86.4722   2
  -1  -4  15 2133.58 79.3029   2
  -1  -4  16 7870.32 114.042   2
  -1  -4  17 3084.34 104.752   2
  -1  -3  -3 799.593 34.5339   2
  -1  -3  -2 21543.9 151.348   2
  -1  -3  11 219.784 55.3112   2
  -1  -3  12 730.110 90.0521   2
  -1  -3  13 314.483 84.9765   2
  -1  -3  14 168.480 54.9389   2
  -1  -3  15 34.5343 49.8415   2
  -1  -3  16 1521.90 100.253   2
  -1  -3  17 1107.38 54.2988   2
  -1  -2  -3 66.0532 25.0733   2
  -1  -2  -2 34642.0 187.650   2
  -1  -2  11 5088.54 87.2645   2
  -1  -2  12 891.982 66.1924   2
  -1  -2  13 2073.92 83.4915   2
  -1  -2  14 281.384 59.3484   2
  -1  -2  15 1345.51 109.169   2
  -1  -2  16 182.573 52.0515   2
  -1  -2  17 3343.07 78.3897   2
  -1  -1  -2 3109.15 67.2515   2
  -1  -1  -1 153.140 34.0761   2
  -1  -1   1 4635.55 53.4839   2
  -1  -1   3 571.613 69.5543   2
  -1  -1   4 1630.90 69.1970   2
  -1  -1   5 11.7672 38.7243   2
  -1  -1   6 1876.25 75.6682   2
  -1  -1   7 8592.90 145.367   2
  -1  -1  11 608.156 63.3839   2
  -1  -1  12 2827.78 138.204   2
  -1  -1  13 282.328 90.0267   2
  -1  -1  14-0.87244 82.6733   2
  -1  -1  15 121.680 57.1476   2
  -1  -1  16 969.063 65.3420   2
  -1  -1  17 25.8401 40.6145   2
  -1   1 -12 236.585 87.0107   2
  -1   1 -11 1355.92 89.9673   2
  -1   1  -1 456.701 57.9358   2
  -1   1   0 7047.17 75.1865   2
  -1   1   1 2735.61 53.5864   2
  -1   1   2 756.721 39.3289   2
  -1   1   3 2225.03 49.1728   2
  -1   1   4 2914.83 58.0454   2
  -1   1   5 1020.02 45.7093   2
  -1   1   6 42.8822 36.9772   2
  -1   1   7 1761.12 63.2829   2
  -1   1   8 137.672 41.0123   2
  -1   1   9 604.711 94.2182   2
  -1   1  10 1265.17 60.3636   2
  -1   1  11 53.2841 55.2546   2
  -1   1  12 212.401 91.3038   2
  -1   1  13 313.167 99.9588   2
  -1   1  14 580.784 70.3977   2
  -1   1  15 494.887 65.7499   2
  -1   1  16 847.378 63.2477   2
  -1   1  17 409.986 59.0430   2
  -1   2 -14 3994.79 137.745   2
  -1   2 -13 41.9897 89.0391   2
  -1   2 -12 2141.15 104.068   2
  -1   2 -11 49580.0 367.717   2
  -1   2  -1 446448. 701.249   2
  -1   2   0 14176.2 92.5055   2
  -1   2   1 8189.08 44.7184   2
  -1   2   2 68314.2 168.893   2
  -1   2   3 158938. 259.050   2
  -1   2   4 91262.9 214.087   2
  -1   2   5 21040.6 112.167   2
  -1   2   6 94447.3 366.900   2
  -1   2   7 50100.3 292.993   2
  -1   2   8 34053.8 258.745   2
  -1   2   9 9366.24 147.708   2
  -1   2  10 5881.21 104.724   2
  -1   2  11 11059.8 190.781   2
  -1   2  12 2008.51 91.2798   2
  -1   2  13 2950.66 104.393   2
  -1   2  14 475.908 69.2477   2
  -1   2  15 396.451 60.9425   2
  -1   2  16 140.213 49.5087   2
  -1   3 -14 7897.55 188.335   2
  -1   3 -13 350.200 95.3348   2
  -1   3 -12 62.8553 70.0692   2
  -1   3 -11 1705.11 87.4471   2
  -1   3 -10 14964.2 390.217   2
  -1   3  -2 5474.42 65.3631   2
  -1   3  -1 15958.1 101.859   2
  -1   3   0 34459.9 239.229   2
  -1   3   1 6913.41 62.4904   2
  -1   3   2 5.57170 21.3617   2
  -1   3   3 126.955 25.4615   2
  -1   3   4 1191.28 45.1824   2
  -1   3   5 5626.76 90.0374   2
  -1   3   6 2133.34 67.5446   2
  -1   3   7 742.839 73.4419   2
  -1   3   8 766.009 84.0589   2
  -1   3   9 138.883 51.5914   2
  -1   3  10 9.96837 46.6288   2
  -1   3  11 1404.35 80.7142   2
  -1   3  12 447.326 70.4319   2
  -1   3  13 130.910 86.9065   2
  -1   3  14 39.9018 58.9226   2
  -1   3  15 680.424 87.6499   2
  -1   3  16 116.501 56.1983   2
  -1   4 -15 5799.27 153.163   2
  -1   4 -14 10166.9 213.735   2
  -1   4 -13 11787.9 238.896   2
  -1   4 -12 9987.01 176.610   2
  -1   4 -11 20797.4 230.961   2
  -1   4 -10 46775.8 684.697   2
  -1   4  -9 39708.8 582.458   2
  -1   4  -8-20.4847 104.262   2
  -1   4  -7 30056.8 433.660   2
  -1   4  -6 65384.7 574.057   2
  -1   4  -5 75887.2 554.798   2
  -1   4  -4 807.561 80.9374   2
  -1   4  -3 39805.6 173.092   2
  -1   4  -2 277532. 477.297   2
  -1   4  -1 564.623 38.4719   2
  -1   4   0 441.922 42.5763   2
  -1   4   1 15411.7 98.6045   2
  -1   4   2 44619.1 177.556   2
  -1   4   3 16408.5 132.279   2
  -1   4   4 236.509 37.5295   2
  -1   4   5 38945.5 233.557   2
  -1   4   6 351.931 44.3796   2
  -1   4   7 110.963 45.2183   2
  -1   4   8 222.605 51.5114   2
  -1   4   9 7739.78 88.1045   2
  -1   4  10-17.7840 62.8098   2
  -1   4  11 4222.31 118.154   2
  -1   4  12 62.7213 63.1634   2
  -1   4  13 2310.48 76.5665   2
  -1   4  14 491.412 51.6779   2
  -1   4  15 3546.73 93.6450   2
  -1   5 -16 2868.45 100.999   2
  -1   5 -15 291.342 81.7262   2
  -1   5 -14 1539.24 118.504   2
  -1   5 -13 9.85525 91.7036   2
  -1   5 -12 4355.15 153.873   2
  -1   5 -11 3586.78 252.391   2
  -1   5 -10 6734.91 286.806   2
  -1   5  -9-8.66592 115.447   2
  -1   5  -8 2267.91 170.140   2
  -1   5  -7 333.808 106.927   2
  -1   5  -6 3967.86 172.803   2
  -1   5  -5 1976.54 127.769   2
  -1   5  -4 6437.70 174.153   2
  -1   5  -3 15735.9 130.136   2
  -1   5  -2 1516.25 52.8198   2
  -1   5  -1 2608.64 66.5043   2
  -1   5   0 7975.16 196.235   2
  -1   5   1 665.385 40.0389   2
  -1   5   2 14.1309 34.1699   2
  -1   5   3 543.590 39.8010   2
  -1   5   4 655.165 44.8120   2
  -1   5   5 44.7005 36.7807   2
  -1   5   6 2404.29 77.4945   2
  -1   5   7 109.264 44.8007   2
  -1   5   8 11.1076 36.8111   2
  -1   5   9 1941.63 60.6016   2
  -1   5  10 151.506 63.6366   2
  -1   5  11 7.00803 62.4145   2
  -1   5  12 121.862 63.8698   2
  -1   5  13 1306.09 65.7050   2
  -1   5  14 26.0559 41.8378   2
  -1   5  15 122.616 58.3224   2
  -1   6 -16 9437.69 157.991   2
  -1   6 -15 5790.76 155.673   2
  -1   6 -14 874.353 108.063   2
  -1   6 -13 3428.83 153.661   2
  -1   6 -11 23953.6 545.968   2
  -1   6 -10 4516.91 262.873   2
  -1   6  -9 26564.4 521.373   2
  -1   6  -8 47897.4 652.411   2
  -1   6  -7 65894.5 708.596   2
  -1   6  -6 37761.9 495.834   2
  -1   6  -5 2157.26 136.747   2
  -1   6  -4 32130.3 395.064   2
  -1   6  -3 79724.8 327.672   2
  -1   6  -2 410.079 49.1573   2
  -1   6  -1 17060.7 257.386   2
  -1   6   1 1922.68 62.0424   2
  -1   6   2 150.554 37.2162   2
  -1   6   3 1109.03 51.3833   2
  -1   6   4 1086.83 51.1021   2
  -1   6   5 44149.8 284.817   2
  -1   6   6 11229.9 155.843   2
  -1   6   7 1691.79 133.734   2
  -1   6   8 3755.62 75.7710   2
  -1   6   9 18882.7 152.666   2
  -1   6  10 14715.8 201.556   2
  -1   6  11 849.629 79.9478   2
  -1   6  12 194.127 53.8267   2
  -1   6  13 7732.50 114.320   2
  -1   6  14 7179.94 165.593   2
  -1   6  15 83.9611 56.0938   2
  -1   7 -16 221.616 62.8999   2
  -1   7 -15 3897.11 134.825   2
  -1   7 -14 382.487 96.6582   2
  -1   7 -13 46.5899 93.2641   2
  -1   7 -11 8658.59 338.401   2
  -1   7 -10 786.017 161.930   2
  -1   7  -9 3843.81 222.402   2
  -1   7  -8 48.9859 105.480   2
  -1   7  -7 2703.10 168.948   2
  -1   7  -6 185.591 101.729   2
  -1   7  -5 10859.1 275.549   2
  -1   7  -4 24383.9 387.464   2
  -1   7  -3 60.4209 45.2654   2
  -1   7  -2 7927.52 130.078   2
  -1   7  -1 15910.2 269.932   2
  -1   7   0 2284.97 87.4710   2
  -1   7   1 40.2602 37.7854   2
  -1   7   2-3.13371 40.0780   2
  -1   7   3 2384.25 67.9126   2
  -1   7   4 935.004 52.2718   2
  -1   7   5 654.846 51.8763   2
  -1   7   6 802.333 57.7299   2
  -1   7   7 123.251 45.2985   2
  -1   7   8 329.542 44.8764   2
  -1   7   9 411.282 53.0028   2
  -1   7  10 1733.69 71.6202   2
  -1   7  11 773.606 75.3303   2
  -1   7  12 44.1470 57.5644   2
  -1   7  13 681.257 93.1218   2
  -1   7  14 2931.16 114.230   2
  -1   8 -16 24.1116 54.0941   2
  -1   8 -15 221.441 76.2578   2
  -1   8 -14 2998.07 139.446   2
  -1   8 -13 3499.93 158.581   2
  -1   8 -10 12388.6 191.056   2
  -1   8  -9 17.7567 65.8429   2
  -1   8  -8 11098.1 178.155   2
  -1   8  -7 29251.1 525.043   2
  -1   8  -6 37078.2 563.774   2
  -1   8  -5 2091.56 158.962   2
  -1   8  -4 10240.1 281.490   2
  -1   8  -2 7506.48 172.138   2
  -1   8  -1 1013.60 112.549   2
  -1   8   0 5678.69 110.814   2
  -1   8   1 7920.46 126.943   2
  -1   8   2 4792.23 92.0536   2
  -1   8   3 209.571 60.5089   2
  -1   8   4 11394.8 213.603   2
  -1   8   5 366.702 52.6255   2
  -1   8   6 2883.46 89.5360   2
  -1   8   7 8209.94 115.857   2
  -1   8   8 4871.36 116.970   2
  -1   8   9 31.1015 61.5210   2
  -1   8  10 8478.12 139.455   2
  -1   8  11 6676.80 208.903   2
  -1   8  12 7983.28 205.758   2
  -1   8  13-25.0792 73.4272   2
  -1   9 -16 299.212 55.2760   2
  -1   9 -15 46.2447 67.2233   2
  -1   9 -14 367.875 92.0531   2
  -1   9 -11 3626.21 131.792   2
  -1   9 -10 31.7102 81.4571   2
  -1   9  -9 152.495 85.7115   2
  -1   9  -8 1529.28 112.189   2
  -1   9  -7 94.1236 77.5495   2
  -1   9  -2 975.566 92.1126   2
  -1   9  -1 2484.23 85.4830   2
  -1   9   0 50.6494 43.4348   2
  -1   9   1 99.2095 76.7671   2
  -1   9   2 882.135 107.424   2
  -1   9   3-1.08792 45.9639   2
  -1   9   4 99.1443 49.7308   2
  -1   9   5 985.599 68.5099   2
  -1   9   6 8.51286 45.0189   2
  -1   9   7-2.31186 80.9870   2
  -1   9   8 410.791 90.2704   2
  -1   9   9 14.2765 83.2845   2
  -1   9  10-3.06595 58.3305   2
  -1   9  11 33.7504 87.6163   2
  -1   9  12 1083.66 106.140   2
  -1   9  13 239.897 69.5764   2
  -1  10 -16 1692.46 69.2051   2
  -1  10 -15 2611.01 101.362   2
  -1  10 -14 679.990 100.959   2
  -1  10 -12 1400.05 96.1480   2
  -1  10 -11 337.590 86.7702   2
  -1  10 -10 5210.34 163.667   2
  -1  10  -9 2474.61 127.715   2
  -1  10  -8 215.932 85.1373   2
  -1  10  -7 1404.70 107.750   2
  -1  10  -6 17964.7 274.157   2
  -1  10  -5 15687.5 250.529   2
  -1  10  -4 1242.30 101.365   2
  -1  10  -1 25981.4 380.145   2
  -1  10   0 492.741 103.026   2
  -1  10   1 13441.1 179.286   2
  -1  10   2 34580.7 284.539   2
  -1  10   3 29350.3 271.297   2
  -1  10   4 528.163 73.6681   2
  -1  10   5 12292.9 228.439   2
  -1  10   6 26304.6 218.526   2
  -1  10   7 2518.09 127.844   2
  -1  10   8 175.761 66.6022   2
  -1  10   9 5897.66 129.164   2
  -1  10  10 6439.77 198.584   2
  -1  10  11 1693.04 118.518   2
  -1  10  12 1066.28 91.6238   2
  -1  11 -15 393.909 61.3138   2
  -1  11 -14 523.337 81.3124   2
  -1  11 -12 3080.84 114.390   2
  -1  11 -11 1981.29 110.216   2
  -1  11 -10 250.401 81.9653   2
  -1  11  -9 8.95409 83.6312   2
  -1  11  -8 334.730 96.4385   2
  -1  11  -7 380.385 94.0912   2
  -1  11  -6 1716.19 124.131   2
  -1  11  -5 2581.10 128.532   2
  -1  11  -4 74.8691 78.9041   2
  -1  11  -3 1363.18 106.441   2
  -1  11  -2 1373.75 72.1046   2
  -1  11  -1 186.823 56.8339   2
  -1  11   0 98.1200 62.6974   2
  -1  11   1 85.5931 66.3788   2
  -1  11   2 343.976 70.2060   2
  -1  11   3 854.093 96.3453   2
  -1  11   4 3.07792 60.9958   2
  -1  11   5 274.162 52.0197   2
  -1  11   6 1098.99 61.1105   2
  -1  11   7 128.003 65.5570   2
  -1  11   8 63.3345 61.7291   2
  -1  11   9 256.467 61.8518   2
  -1  11  10 1305.64 107.110   2
  -1  11  11 1186.11 92.8866   2
  -1  12 -15 3652.99 86.1030   2
  -1  12 -14 2509.32 100.951   2
  -1  12 -13 1073.14 99.7580   2
  -1  12 -12 8905.70 166.888   2
  -1  12 -11 16770.7 243.953   2
  -1  12 -10 3796.79 145.013   2
  -1  12  -9 2699.35 136.609   2
  -1  12  -8 20965.4 311.118   2
  -1  12  -7 39305.1 416.746   2
  -1  12  -6 16051.2 275.858   2
  -1  12  -5 74.4485 93.9233   2
  -1  12  -4 42776.5 423.839   2
  -1  12  -3 32806.6 364.417   2
  -1  12  -2 14725.9 169.190   2
  -1  12  -1 108.319 62.8041   2
  -1  12   0 5574.39 166.933   2
  -1  12   1 14330.2 249.501   2
  -1  12   2 4644.83 160.409   2
  -1  12   3 441.030 97.7425   2
  -1  12   4 2349.85 91.9521   2
  -1  12   5 365.781 53.2575   2
  -1  12   6 3747.89 83.0441   2
  -1  12   7 1017.18 75.1421   2
  -1  12   8 644.639 67.4241   2
  -1  12   9 751.798 93.4193   2
  -1  12  10 3277.92 116.149   2
  -1  13 -14 143.304 50.5760   2
  -1  13 -13 322.636 72.0674   2
  -1  13 -12 939.168 75.2007   2
  -1  13 -11 209.180 69.2985   2
  -1  13 -10 365.746 84.5684   2
  -1  13  -9 241.338 84.6495   2
  -1  13  -8 31.9583 83.6273   2
  -1  13  -7 869.509 105.502   2
  -1  13  -6 2629.49 137.713   2
  -1  13  -5 502.114 98.6624   2
  -1  13  -4 50.1477 82.6759   2
  -1  13  -3 4.05309 84.0923   2
  -1  13  -2 428.586 63.7849   2
  -1  13  -1-12.5595 55.0133   2
  -1  13   0 30.2972 79.8045   2
  -1  13   1 391.182 94.2389   2
  -1  13   2 55.0460 85.4949   2
  -1  13   3 308.096 65.9459   2
  -1  13   4 17.4530 59.1788   2
  -1  13   5 158.912 57.6038   2
  -1  13   6 148.475 45.2151   2
  -1  13   7 54.3308 53.2786   2
  -1  13   8 352.959 52.4395   2
  -1  13   9 15.8930 59.4923   2
  -1  14 -13 2652.99 85.6004   2
  -1  14 -12 4153.00 102.573   2
  -1  14 -11 147.766 61.1964   2
  -1  14 -10 152.874 73.0670   2
  -1  14  -9 566.296 86.5126   2
  -1  14  -8 416.815 89.1752   2
  -1  14  -7 1520.13 114.492   2
  -1  14  -6 5876.95 173.328   2
  -1  14  -5 1493.29 111.571   2
  -1  14  -4 2437.60 128.736   2
  -1  14  -3 15991.3 257.450   2
  -1  14  -2 21142.5 190.871   2
  -1  14  -1 1705.54 109.729   2
  -1  14   0 1432.52 110.844   2
  -1  14   1 15924.2 253.423   2
  -1  14   2 27459.3 232.748   2
  -1  14   3 7046.30 125.465   2
  -1  14   4 534.435 64.6613   2
  -1  14   5 14998.3 153.012   2
  -1  14   6 5426.63 90.0659   2
  -1  14   7 3783.87 115.536   2
  -1  15 -12 1373.32 65.1077   2
  -1  15 -11 98.9476 51.8191   2
  -1  15 -10 128.775 62.2717   2
  -1  15  -9 3.05402 68.9099   2
  -1  15  -8 332.724 77.9186   2
  -1  15  -7 321.243 80.3254   2
  -1  15  -6 115.687 79.0709   2
  -1  15  -5 82.2288 53.4396   2
  -1  15  -4 46.8270 53.7019   2
  -1  15  -3 38.2409 54.8478   2
  -1  15  -2 40.5247 75.3732   2
  -1  15  -1 4.62035 53.2018   2
  -1  15   0 114.645 54.2812   2
  -1  15   1 105.117 53.4524   2
  -1  15   2 235.214 56.6746   2
  -1  15   3 3.36415 49.8230   2
  -1  15   4 0.80494 46.3419   2
  -1  15   5 377.680 45.4951   2
  -1  15   6 34.4897 54.7013   2
  -1  16 -10 1079.17 45.5626   2
  -1  16  -9 86.5270 59.2754   2
  -1  16  -8 4374.45 122.027   2
  -1  16  -7 5288.22 138.485   2
  -1  16  -6 1136.33 90.2207   2
  -1  16  -5 3593.45 123.270   2
  -1  16  -4 4798.41 90.1654   2
  -1  16  -3 2783.12 105.491   2
  -1  16  -2 88.2312 73.8454   2
  -1  16  -1 1288.73 60.9861   2
  -1  16   0 4276.37 86.9022   2
  -1  16   1 1343.06 62.3936   2
  -1  16   2 327.916 50.0635   2
  -1  16   3 3459.19 71.8307   2
  -1  16   4 1263.41 48.2530   2
  -1  17  -8 47.9624 47.8894   2
  -1  17  -7 381.123 57.2637   2
  -1  17  -6 50.8283 52.4559   2
  -1  17  -5 62.7619 51.2882   2
  -1  17  -4 79.9362 35.6934   2
  -1  17  -3 80.6021 52.4597   2
  -1  17  -2-4.52410 54.6090   2
  -1  17  -1 10.6311 53.9128   2
  -1  17   0 39.6227 53.1467   2
  -1  17   1 0.87732 48.1408   2
   0 -13  10 15.1570 72.7185   2
   0 -13  11 284.676 71.5527   2
   0 -13  12 531.553 70.6474   2
   0 -13  13 52.1627 53.8016   2
   0 -13  14 1187.59 61.4702   2
   0 -12   9 9403.19 202.210   2
   0 -12  10 8186.27 187.672   2
   0 -12  11 287.274 80.9136   2
   0 -12  12 314.892 74.6947   2
   0 -12  15 564.708 54.9079   2
   0 -11   8-15.9458 86.3760   2
   0 -11   9 860.259 102.235   2
   0 -11  10 3224.07 144.523   2
   0 -11  11 1716.85 118.894   2
   0 -11  12 98.9707 82.7921   2
   0 -11  13 273.944 84.2899   2
   0 -11  14 258.190 69.3721   2
   0 -11  15 397.829 61.9900   2
   0 -11  16 61.8609 42.9569   2
   0 -10   7 17466.3 266.297   2
   0 -10   8 3854.41 153.453   2
   0 -10   9 3056.69 146.743   2
   0 -10  10 24314.4 336.024   2
   0 -10  11 21766.4 321.484   2
   0 -10  12 1667.47 123.982   2
   0 -10  13 3352.77 143.042   2
   0 -10  14 4680.60 143.878   2
   0 -10  15 2907.42 110.792   2
   0 -10  16 480.787 58.7408   2
   0  -9   3 387.666 114.123   2
   0  -9   4 335.535 117.954   2
   0  -9   5 304.503 124.415   2
   0  -9   6 217.826 125.195   2
   0  -9   8 435.851 97.9787   2
   0  -9   9 511.950 101.390   2
   0  -9  10 64.1973 91.4878   2
   0  -9  11 3697.87 156.615   2
   0  -9  12-32.4960 90.7830   2
   0  -9  13 404.318 95.3778   2
   0  -9  14 279.253 85.8532   2
   0  -9  15 3009.55 120.981   2
   0  -9  16 2.24901 58.8178   2
   0  -9  17 42.3271 43.2145   2
   0  -8   1 4721.46 187.988   2
   0  -8   2 138322. 960.741   2
   0  -8   3 52777.8 640.668   2
   0  -8   4 11772.0 334.409   2
   0  -8   5 30623.5 555.959   2
   0  -8   6 6981.17 293.432   2
   0  -8   7 4649.90 257.505   2
   0  -8   8 21487.6 520.439   2
   0  -8   9 26557.9 348.156   2
   0  -8  10 353.660 102.950   2
   0  -8  11 1399.11 120.742   2
   0  -8  12 15032.0 277.730   2
   0  -8  13 1626.28 125.767   2
   0  -8  14 38.6126 91.4834   2
   0  -8  15 819.149 91.6309   2
   0  -8  16 1000.23 84.9288   2
   0  -8  17 584.442 59.7306   2
   0  -7   0 581.768 79.8537   2
   0  -7   1 526.925 89.7613   2
   0  -7   2 240.610 88.3130   2
   0  -7   3 91.7143 93.3112   2
   0  -7   4 1289.75 136.332   2
   0  -7   5 7.10322 103.594   2
   0  -7   6 137.468 112.679   2
   0  -7   7-28.2456 124.025   2
   0  -7   8 52.3099 122.538   2
   0  -7   9 2751.73 133.881   2
   0  -7  10 2394.62 134.447   2
   0  -7  11 1987.10 131.749   2
   0  -7  12 793.644 109.023   2
   0  -7  13 358.200 99.9192   2
   0  -7  14 1827.64 125.816   2
   0  -7  15 201.949 84.9542   2
   0  -7  16 955.252 86.6514   2
   0  -7  17 333.432 60.3949   2
   0  -6  -1 26009.0 271.575   2
   0  -6   0 100662. 596.426   2
   0  -6   1 8146.54 197.098   2
   0  -6   2 177.378 84.1372   2
   0  -6   3 36540.0 471.145   2
   0  -6   4 1278.99 132.050   2
   0  -6   5 1833.39 154.630   2
   0  -6   6 170.421 113.128   2
   0  -6   7 674.764 136.080   2
   0  -6   8 569.958 127.681   2
   0  -6   9 28917.5 550.960   2
   0  -6  10 11790.7 231.266   2
   0  -6  11 36.0289 85.3358   2
   0  -6  12 7507.61 202.029   2
   0  -6  13 12495.5 254.485   2
   0  -6  14 3864.48 157.357   2
   0  -6  15 212.571 85.6376   2
   0  -6  16 1269.90 96.5763   2
   0  -6  17 6198.93 131.300   2
   0  -5  -1 1674.26 71.6826   2
   0  -5   0 1761.08 84.8455   2
   0  -5   1-1.02252 63.7632   2
   0  -5   2 178.567 79.6682   2
   0  -5   3 787.131 105.646   2
   0  -5   4-18.1025 90.0205   2
   0  -5   5 5.27199 95.7452   2
   0  -5   6 4.48759 93.9013   2
   0  -5   7 37.6097 96.5204   2
   0  -5   8 1051.05 142.055   2
   0  -5   9 27.8463 103.546   2
   0  -5  10 6509.07 169.598   2
   0  -5  11 32.3048 86.8185   2
   0  -5  12 440.352 98.9150   2
   0  -5  13 164.999 95.3234   2
   0  -5  14 5762.00 180.850   2
   0  -5  15 307.752 88.7197   2
   0  -5  16 16.7456 70.9904   2
   0  -5  17 787.817 53.1362   2
   0  -5  18 1531.55 71.5787   2
   0  -4  -1 548.208 45.6058   2
   0  -4   0 13103.8 176.232   2
   0  -4   1 925073. 1666.77   2
   0  -4   2 215766. 904.998   2
   0  -4   3 3983.08 162.972   2
   0  -4   4 7936.52 223.112   2
   0  -4   5 28179.0 415.629   2
   0  -4   6 1638.76 134.109   2
   0  -4   7 13370.1 319.706   2
   0  -4   8 58949.6 657.132   2
   0  -4  11 25412.4 312.386   2
   0  -4  12 5156.55 173.579   2
   0  -4  13 262.682 91.9989   2
   0  -4  14 8106.75 204.726   2
   0  -4  15 7253.69 186.966   2
   0  -4  16 4319.12 138.072   2
   0  -4  17 37.9455 63.5656   2
   0  -4  18 7271.82 128.772   2
   0  -3  -1 643.300 40.5756   2
   0  -3   0 151.077 42.6423   2
   0  -3   1 620.044 65.0226   2
   0  -3   2 313.039 79.2657   2
   0  -3   3 3466.06 144.147   2
   0  -3   4 762.735 103.801   2
   0  -3   5 2111.55 127.300   2
   0  -3   6 38.8929 77.7267   2
   0  -3   7 170.217 86.2602   2
   0  -3   8 6451.87 208.087   2
   0  -3  11 285.888 60.1021   2
   0  -3  12 636.615 70.0890   2
   0  -3  13 4613.70 116.434   2
   0  -3  14 16.5747 59.1862   2
   0  -3  15 811.196 71.2015   2
   0  -3  16 879.311 87.7668   2
   0  -3  17 727.296 80.4478   2
   0  -3  18 162.858 51.7511   2
   0  -2  -1 80920.8 209.619   2
   0  -2   0 6370.16 82.6943   2
   0  -2   1 51446.3 292.108   2
   0  -2   2 98447.0 489.471   2
   0  -2   3 24701.5 279.635   2
   0  -2   4 55370.1 302.917   2
   0  -2   5 49961.2 303.266   2
   0  -2   6 24181.1 225.154   2
   0  -2   7 8148.29 144.376   2
   0  -2   8 60473.1 599.204   2
   0  -2   9 67000.5 696.559   2
   0  -2  11 26.2604 53.8602   2
   0  -2  12 19795.6 202.062   2
   0  -2  13 21479.2 222.694   2
   0  -2  14 9756.97 159.247   2
   0  -2  15 533.518 65.9272   2
   0  -2  16 7673.22 131.112   2
   0  -2  17 10521.8 193.340   2
   0  -2  18 1110.29 68.7255   2
   0  -1 -12 1700.94 196.241   2
   0  -1   0 22.7241 12.5769   2
   0  -1   1 85.4890 29.6558   2
   0  -1   2 21.6801 12.4204   2
   0  -1   3 48.0660 15.3299   2
   0  -1   4 1023.07 26.1189   2
   0  -1   5 951.593 27.1318   2
   0  -1   6 995.530 29.6263   2
   0  -1   7 99.8189 76.6214   2
   0  -1   8 24.3445 75.4062   2
   0  -1   9 1875.58 137.103   2
   0  -1  10 8.42036 95.1958   2
   0  -1  11 203.700 48.2136   2
   0  -1  12 327.095 61.8724   2
   0  -1  13 4680.02 116.090   2
   0  -1  14 1196.55 78.5074   2
   0  -1  15 284.331 50.3223   2
   0  -1  16 1064.52 71.1140   2
   0  -1  17 4414.27 135.993   2
   0   1 -12 612.069 162.878   2
   0   1 -11 353.592 143.900   2
   0   1  -1 114.912 24.8983   2
   0   1   0 30.1138 19.6620   2
   0   1   1 17.3133 15.5195   2
   0   1   2 115.993 28.3540   2
   0   1   3 962.896 58.4724   2
   0   1   4 3782.65 89.2776   2
   0   1   5 5938.83 122.678   2
   0   1   6 4120.58 80.6908   2
   0   1   7 1042.23 53.8402   2
   0   1   8 3528.72 85.6953   2
   0   1   9 4867.12 182.869   2
   0   1  10 1899.36 86.6950   2
   0   1  11 123.298 65.1582   2
   0   1  12 1072.42 91.2341   2
   0   1  13 674.356 79.5612   2
   0   1  14 358.256 71.0399   2
   0   1  15 23.1909 61.9209   2
   0   1  16 182.836 78.5717   2
   0   1  17 159.129 64.9131   2
   0   2 -12 33319.0 639.545   2
   0   2 -11 91.3954 137.873   2
   0   2 -10 28945.2 533.674   2
   0   2  -9 107525. 942.322   2
   0   2  -3 28200.2 279.911   2
   0   2  -2 107079. 456.651   2
   0   2  -1 53679.8 273.001   2
   0   2   0 8112.45 76.1410   2
   0   2   1 78424.0 268.588   2
   0   2   2 1320.26 53.6853   2
   0   2   3 926.952 57.9647   2
   0   2   4 11845.5 154.657   2
   0   2   5 21786.7 223.971   2
   0   2   6 57875.8 406.120   2
   0   2   7 1938.35 71.2437   2
   0   2   8 28165.7 236.011   2
   0   2   9 17078.6 315.689   2
   0   2  10 11131.2 174.769   2
   0   2  11 652.745 67.4787   2
   0   2  12 6493.24 149.542   2
   0   2  13 6617.83 152.114   2
   0   2  14 3426.45 116.026   2
   0   2  15 1364.04 86.9012   2
   0   2  16 5848.62 163.041   2
   0   2  17 431.915 65.8068   2
   0   3 -12 1013.18 193.057   2
   0   3 -11 524.303 157.729   2
   0   3 -10 566.774 145.243   2
   0   3  -9 12037.8 347.191   2
   0   3  -8 7675.54 265.839   2
   0   3  -7 303.751 109.012   2
   0   3  -6 113.895 94.3118   2
   0   3  -5 2163.93 131.101   2
   0   3  -4 690.759 89.6581   2
   0   3  -3 3986.48 140.024   2
   0   3  -2 324.141 76.8660   2
   0   3  -1 686.395 76.5138   2
   0   3   0 172.946 42.1532   2
   0   3   1 520.624 52.0427   2
   0   3   2 57.7366 44.1603   2
   0   3   3 448.222 50.2096   2
   0   3   4 151.081 46.5067   2
   0   3   5 110.156 53.6660   2
   0   3   6 640.777 69.4121   2
   0   3   7 626.965 56.4372   2
   0   3   8 311.101 55.8948   2
   0   3   9 656.376 63.6205   2
   0   3  10 1225.80 67.6816   2
   0   3  11 663.509 66.8970   2
   0   3  12 147.285 74.1041   2
   0   3  13 730.125 79.8182   2
   0   3  14 1204.44 86.7849   2
   0   3  15 63.1573 86.3761   2
   0   3  16 2104.15 107.904   2
   0   4 -12 5468.24 139.133   2
   0   4 -11 38990.6 692.401   2
   0   4 -10 7326.35 306.284   2
   0   4  -9 1958.87 184.767   2
   0   4  -8 63602.4 740.458   2
   0   4  -7 13736.0 332.048   2
   0   4  -6 1682.12 150.039   2
   0   4  -5 29244.6 410.671   2
   0   4  -4 8158.77 210.166   2
   0   4  -3 3426.50 131.863   2
   0   4  -2 232457. 890.854   2
   0   4  -1 999999. 1764.13   2
   0   4   0 14542.1 147.380   2
   0   4   1 484.143 50.1949   2
   0   4   2 961.027 58.7451   2
   0   4   3 45080.4 314.648   2
   0   4   4 27452.4 266.588   2
   0   4   5 8917.02 170.137   2
   0   4   6 30123.9 321.246   2
   0   4   7 10045.4 204.094   2
   0   4   8 6532.32 134.667   2
   0   4   9 1498.91 58.2422   2
   0   4  10 1850.72 76.9271   2
   0   4  11 8175.47 163.857   2
   0   4  12 158.898 73.2095   2
   0   4  13 1008.71 87.1895   2
   0   4  14 3496.11 115.090   2
   0   4  15 2209.96 77.7708   2
   0   4  16 2951.28 109.151   2
   0   5 -14 8447.42 182.485   2
   0   5 -13 246.625 95.6575   2
   0   5 -12 800.382 183.184   2
   0   5 -11-11.1837 160.327   2
   0   5 -10 9762.04 361.605   2
   0   5  -9 29.4111 128.668   2
   0   5  -8 1064.24 153.235   2
   0   5  -7 26.2820 109.473   2
   0   5  -6-33.0121 106.015   2
   0   5  -5-73.5837 97.9263   2
   0   5  -4 7.38642 90.9555   2
   0   5  -3 884.651 109.664   2
   0   5  -2 278.116 94.5439   2
   0   5  -1 6.09944 93.9950   2
   0   5   0 1802.38 73.4729   2
   0   5   1 1557.52 58.6037   2
   0   5   2 147.937 50.0761   2
   0   5   3 142.449 55.1943   2
   0   5   4 1474.54 86.0118   2
   0   5   5 177.046 59.3358   2
   0   5   6 1076.39 88.3073   2
   0   5   7 124.717 63.1321   2
   0   5   8 3451.45 75.1995   2
   0   5   9 153.422 45.6866   2
   0   5  10 823.470 66.7244   2
   0   5  11 183.635 77.4679   2
   0   5  12 381.420 111.764   2
   0   5  13 98.8423 95.4714   2
   0   5  14 456.827 91.6665   2
   0   5  15 1385.73 99.4086   2
   0   6 -14 5569.27 163.682   2
   0   6 -11 29.4719 156.261   2
   0   6 -10 15530.7 438.333   2
   0   6  -9 27779.7 554.460   2
   0   6  -8 330.688 125.037   2
   0   6  -7 564.241 135.285   2
   0   6  -6 428.023 113.261   2
   0   6  -5 1646.01 148.640   2
   0   6  -4 1494.54 148.301   2
   0   6  -3 40220.8 494.128   2
   0   6  -2 193.109 104.814   2
   0   6  -1 9186.58 250.265   2
   0   6   0 103214. 466.170   2
   0   6   1 24402.8 206.242   2
   0   6   2 55.1937 44.2440   2
   0   6   3 11779.1 199.570   2
   0   6   4 35165.2 352.631   2
   0   6   5 57586.7 473.909   2
   0   6   6 1500.27 102.594   2
   0   6   7 14302.7 265.937   2
   0   6   8 24639.4 148.205   2
   0   6   9 15075.9 154.392   2
   0   6  10 343.803 75.9090   2
   0   6  11 4404.03 134.324   2
   0   6  12 9594.92 244.882   2
   0   6  13 7076.73 206.077   2
   0   6  14 280.567 58.6528   2
   0   6  15 6860.96 100.196   2
   0   7 -15 330.197 75.1775   2
   0   7 -14 2603.78 131.697   2
   0   7 -11 2450.21 224.164   2
   0   7 -10 2674.68 225.827   2
   0   7  -9 2823.63 213.249   2
   0   7  -8 48.1313 120.135   2
   0   7  -7 15.8131 115.741   2
   0   7  -6 43.3245 116.945   2
   0   7  -5 15.8267 117.339   2
   0   7  -4 1401.10 149.576   2
   0   7  -3 135.902 115.728   2
   0   7  -2 278.881 123.426   2
   0   7  -1 579.537 127.183   2
   0   7   0 456.827 112.200   2
   0   7   1 0.49442 46.1478   2
   0   7   2 456.736 54.3196   2
   0   7   3 47.6552 47.3770   2
   0   7   4 1047.68 72.9758   2
   0   7   5 1564.26 107.745   2
   0   7   6 470.391 86.3778   2
   0   7   7 1978.80 54.3939   2
   0   7   8 1552.82 54.4228   2
   0   7   9 6500.70 111.079   2
   0   7  10 451.551 111.879   2
   0   7  11 523.225 107.754   2
   0   7  12 464.507 103.683   2
   0   7  13 2986.90 139.917   2
   0   7  14 1074.24 62.6601   2
   0   8 -15 1129.44 89.6953   2
   0   8 -14-10.6324 88.2184   2
   0   8 -10 336.409 172.970   2
   0   8  -9 29501.1 302.615   2
   0   8  -8 20787.2 514.759   2
   0   8  -7 4527.76 259.499   2
   0   8  -6 6947.09 291.300   2
   0   8  -5 34064.0 581.629   2
   0   8  -4 12348.4 355.425   2
   0   8  -3 60698.0 755.382   2
   0   8  -2 150986. 1121.69   2
   0   8  -1 4211.05 212.487   2
   0   8   0 6919.65 187.980   2
   0   8   1 4720.03 154.964   2
   0   8   2 21165.7 233.495   2
   0   8   3 17148.7 217.135   2
   0   8   4 3490.59 113.970   2
   0   8   5 20113.9 153.855   2
   0   8   6 25252.8 176.373   2
   0   8   7 14326.7 130.117   2
   0   8   8 2707.15 93.1745   2
   0   8   9 4905.12 119.730   2
   0   8  10 22064.7 355.702   2
   0   8  11 3492.03 160.994   2
   0   8  12 202.843 85.6846   2
   0   8  13 7206.79 123.861   2
   0   8  14 13621.8 193.959   2
   0   9 -16 67.7543 46.2596   2
   0   9 -15 3904.11 117.981   2
   0   9 -14 272.317 91.7431   2
   0   9 -10 4.32567 74.0499   2
   0   9  -9 482.396 82.8026   2
   0   9  -8 454.351 81.6689   2
   0   9  -7 54.1536 70.5610   2
   0   9  -6 364.903 150.092   2
   0   9  -5 234.189 141.739   2
   0   9  -4 363.683 158.605   2
   0   9  -3 397.223 152.845   2
   0   9  -2 52.4018 126.513   2
   0   9  -1 1614.24 172.502   2
   0   9   0 509.397 90.4234   2
   0   9   1 46.9490 74.3062   2
   0   9   2 138.747 77.0093   2
   0   9   3 494.172 50.9076   2
   0   9   4 247.242 42.5690   2
   0   9   5 476.826 49.2325   2
   0   9   6 277.901 50.2099   2
   0   9   7 3969.77 107.141   2
   0   9   8 1002.34 75.2936   2
   0   9   9 562.084 70.9246   2
   0   9  10 35.2842 90.8025   2
   0   9  11 557.742 103.909   2
   0   9  12 1879.01 82.1885   2
   0   9  13 27.5121 43.5509   2
   0  10 -16 576.717 51.6682   2
   0  10 -15 3906.60 114.761   2
   0  10 -11 23805.0 296.474   2
   0  10 -10 25773.5 324.267   2
   0  10  -9 3221.85 125.910   2
   0  10  -8 3771.84 137.160   2
   0  10  -7 17329.9 247.870   2
   0  10  -6 40246.9 361.322   2
   0  10  -5 16118.3 232.371   2
   0  10  -4 14082.1 211.455   2
   0  10  -3 8544.33 338.609   2
   0  10  -2 22837.9 495.020   2
   0  10  -1 1525.21 125.302   2
   0  10   0 9446.88 243.037   2
   0  10   1 2022.60 68.7784   2
   0  10   2 44.3250 44.7395   2
   0  10   3 6340.34 107.088   2
   0  10   4 23546.4 194.694   2
   0  10   5 7480.58 139.176   2
   0  10   6 3120.28 103.474   2
   0  10   7 21120.7 222.176   2
   0  10   8 16758.0 195.326   2
   0  10   9 4416.54 110.500   2
   0  10  10 409.355 60.0389   2
   0  10  11 10419.5 148.875   2
   0  10  12 15652.6 147.499   2
   0  11 -15 563.901 61.9586   2
   0  11 -14 332.798 79.1139   2
   0  11 -12 81.3549 69.8780   2
   0  11 -11 1803.36 114.621   2
   0  11 -10 3130.65 135.455   2
   0  11  -9 884.022 108.235   2
   0  11  -8 21.6775 87.0378   2
   0  11  -7 655.839 103.957   2
   0  11  -6 1103.73 112.491   2
   0  11  -5 1688.53 118.243   2
   0  11  -4 18.6999 81.6014   2
   0  11  -3 109.494 83.7693   2
   0  11  -2 438.459 68.6000   2
   0  11  -1 134.579 60.8915   2
   0  11   0 130.143 44.8965   2
   0  11   1 65.9101 62.0180   2
   0  11   2 21.0175 51.9502   2
   0  11   3 19.9647 57.1966   2
   0  11   4 23.0913 59.6206   2
   0  11   5 1413.00 82.2019   2
   0  11   6 1082.55 77.0925   2
   0  11   7 218.044 64.6047   2
   0  11   8 2085.22 84.9047   2
   0  11   9 1483.70 75.4251   2
   0  11  10 6.31348 45.4549   2
   0  11  11 390.541 87.4802   2
   0  12 -15 678.993 55.0549   2
   0  12 -14 422.190 73.1317   2
   0  12 -12 416.997 73.0514   2
   0  12 -10 8243.96 193.179   2
   0  12  -9 8784.58 209.679   2
   0  12  -8 1269.67 117.304   2
   0  12  -7 2914.39 149.513   2
   0  12  -6 34464.4 406.475   2
   0  12  -5 31664.0 386.069   2
   0  12  -4 28812.7 363.997   2
   0  12  -3 19833.7 183.707   2
   0  12  -2 27980.0 221.184   2
   0  12  -1 61925.6 304.526   2
   0  12   0 11634.7 240.615   2
   0  12   1 106.507 63.7094   2
   0  12   2 17892.4 207.303   2
   0  12   3 35362.3 284.789   2
   0  12   4 8737.34 152.994   2
   0  12   5 39.0676 64.1354   2
   0  12   6 8118.61 109.886   2
   0  12   7 414.305 64.8417   2
   0  12   8 2756.20 74.5686   2
   0  12   9 733.895 48.5308   2
   0  12  10 154.066 69.0442   2
   0  13 -14 1740.68 76.9124   2
   0  13 -12 594.063 67.5708   2
   0  13 -11 282.929 73.4629   2
   0  13 -10 37.5546 76.5672   2
   0  13  -9-26.2598 82.3629   2
   0  13  -8-16.6583 82.0029   2
   0  13  -7 221.467 93.9818   2
   0  13  -6 87.4571 89.2869   2
   0  13  -5-6.89070 89.0698   2
   0  13  -4 263.182 93.7792   2
   0  13  -3 86.5642 62.2171   2
   0  13  -2 593.802 68.8214   2
   0  13  -1 244.390 63.2381   2
   0  13   0 62.1423 91.3119   2
   0  13   1 34.1671 92.5025   2
   0  13   2 32.7428 92.9684   2
   0  13   3 161.457 62.7723   2
   0  13   4 55.2804 59.7405   2
   0  13   5 432.643 52.1513   2
   0  13   6 1211.87 56.6502   2
   0  13   7 632.058 50.0764   2
   0  13   8 27.0955 49.7050   2
   0  14 -12 2194.90 83.4806   2
   0  14 -11 8092.15 152.248   2
   0  14 -10 5928.94 149.226   2
   0  14  -9 1268.28 99.1769   2
   0  14  -8 508.168 93.4650   2
   0  14  -7 12184.6 239.913   2
   0  14  -6 13436.0 256.340   2
   0  14  -5 2228.08 143.888   2
   0  14  -4 118.152 92.5282   2
   0  14  -3 9126.00 140.359   2
   0  14  -2 1364.29 75.7462   2
   0  14  -1 308.791 60.6844   2
   0  14   0 385.740 92.7743   2
   0  14   1 519.046 94.8197   2
   0  14   2 26.0942 87.2991   2
   0  14   3 2758.30 132.287   2
   0  14   4 3281.07 94.0711   2
   0  14   5 50.3531 51.4770   2
   0  14   6 6479.60 156.575   2
   0  14   7 5526.59 132.893   2
   0  15 -11 426.621 61.2639   2
   0  15 -10 545.285 73.7759   2
   0  15  -9 134.967 71.1275   2
   0  15  -8 19.1674 72.1223   2
   0  15  -7 195.616 78.0306   2
   0  15  -6 498.710 89.7325   2
   0  15  -5 31.2199 80.2074   2
   0  15  -4-7.81247 73.4923   2
   0  15  -3 183.513 55.2668   2
   0  15  -2-4.72220 49.5294   2
   0  15  -1 42.3613 76.6430   2
   0  15   0 49.4323 78.8340   2
   0  15   1-1.98762 78.0963   2
   0  15   2 15.1059 76.0924   2
   0  15   3 18.3557 51.8307   2
   0  15   4 377.703 53.4042   2
   0  15   5 300.054 46.6021   2
   0  15   6 95.1679 59.6373   2
   0  16 -10 787.631 59.9432   2
   0  16  -9 792.968 71.6704   2
   0  16  -8 202.999 66.0046   2
   0  16  -7 2188.49 103.539   2
   0  16  -6 4613.57 135.956   2
   0  16  -5 8500.79 172.399   2
   0  16  -4 599.463 81.6218   2
   0  16  -3 3030.26 114.295   2
   0  16  -2 11619.5 123.058   2
   0  16  -1 2654.03 106.833   2
   0  16   0 0.18024 67.1486   2
   0  16   1 2476.75 77.0564   2
   0  16   2 7381.64 106.421   2
   0  16   3 2071.85 64.2410   2
   0  16   4 293.816 61.9262   2
   0  17  -8 86.5586 49.7598   2
   0  17  -7 121.665 52.7477   2
   0  17  -6 29.6565 50.7467   2
   0  17  -5 192.801 48.4436   2
   0  17  -4 121.745 37.9494   2
   0  17  -3 160.537 57.9680   2
   0  17  -2 18.6443 55.3736   2
   0  17  -1 25.6482 38.3001   2
   0  17   0 16.2035 38.4697   2
   0  17   1 5.44859 36.3117   2
   1 -12   4 51006.3 764.600   2
   1 -12  11 15942.6 235.137   2
   1 -12  12 8283.86 167.054   2
   1 -12  13 906.354 80.5555   2
   1 -12  14 1748.13 80.8589   2
   1 -11   3 1761.49 184.298   2
   1 -11   4 213.260 136.150   2
   1 -11   5 3208.32 247.293   2
   1 -11   6 2057.80 219.925   2
   1 -11   7 321.597 152.941   2
   1 -11   9-32.3809 87.0327   2
   1 -11  10 205.939 85.6500   2
   1 -11  11 1959.66 117.072   2
   1 -11  12 2670.11 127.324   2
   1 -11  13-12.6279 72.0597   2
   1 -11  14 367.544 70.4901   2
   1 -11  15 302.217 55.7914   2
   1 -10   1 31205.3 493.058   2
   1 -10   2 49726.1 658.820   2
   1 -10   3 29928.9 546.650   2
   1 -10   4 1473.32 176.439   2
   1 -10   5 18194.0 475.323   2
   1 -10   6 20798.4 525.814   2
   1 -10   7 1576.18 206.989   2
   1 -10   8 172.111 145.147   2
   1 -10   9 2630.51 136.948   2
   1 -10  10 5328.64 177.280   2
   1 -10  11 264.072 96.4309   2
   1 -10  12 1126.42 110.164   2
   1 -10  13 2914.08 133.541   2
   1 -10  14 347.946 81.4552   2
   1 -10  15 1988.19 96.8861   2
   1 -10  16 1402.01 72.4331   2
   1  -9   0 117.590 89.3616   2
   1  -9   1 2964.69 169.963   2
   1  -9   2 1099.37 134.148   2
   1  -9   3-18.1207 106.196   2
   1  -9   4 6677.77 280.983   2
   1  -9   5 5781.41 277.885   2
   1  -9   6 1035.26 168.613   2
   1  -9   7 86.2814 133.118   2
   1  -9   8 1630.25 102.875   2
   1  -9   9 97.8117 78.1610   2
   1  -9  10 22.7812 94.2827   2
   1  -9  11 3357.60 154.541   2
   1  -9  12 963.557 112.573   2
   1  -9  13 179.929 93.6200   2
   1  -9  14 281.820 86.5242   2
   1  -9  15 28.6993 69.7429   2
   1  -9  16 204.085 60.9997   2
   1  -8   0 7634.83 219.920   2
   1  -8   1 1210.93 151.679   2
   1  -8   2 8593.97 263.106   2
   1  -8   3 95490.0 880.978   2
   1  -8   4 8759.27 306.996   2
   1  -8   5 1759.93 181.570   2
   1  -8   6 33135.6 616.946   2
   1  -8   7 27450.6 577.493   2
   1  -8   8 13362.4 424.890   2
   1  -8   9 8.97055 79.0159   2
   1  -8  10 13345.4 224.586   2
   1  -8  11 8861.85 225.496   2
   1  -8  12 3306.28 164.715   2
   1  -8  13 2735.17 145.956   2
   1  -8  14 2305.87 129.850   2
   1  -8  15 169.810 83.5478   2
   1  -8  16 27.5522 65.5196   2
   1  -8  17 399.378 50.9185   2
   1  -7  -1 87.1138 57.2608   2
   1  -7   0 2533.82 123.097   2
   1  -7   1 13130.8 272.688   2
   1  -7   2 7363.28 230.358   2
   1  -7   3 5.87770 101.486   2
   1  -7   4 19764.9 401.952   2
   1  -7   5 9692.77 309.338   2
   1  -7   6 201.738 117.808   2
   1  -7   7 3221.88 226.009   2
   1  -7   8 94.8756 130.438   2
   1  -7   9 3906.30 131.799   2
   1  -7  10 851.929 95.1836   2
   1  -7  11 9223.72 193.393   2
   1  -7  12 184.842 101.491   2
   1  -7  13 14.3531 93.0428   2
   1  -7  14 311.294 97.3427   2
   1  -7  15 3073.12 137.316   2
   1  -7  16 210.006 75.1333   2
   1  -7  17 26.9363 46.5650   2
   1  -6  -2 148.012 46.5862   2
   1  -6  -1 1988.38 92.4387   2
   1  -6   0 3358.64 124.380   2
   1  -6   1 12080.7 240.515   2
   1  -6   2 1343.45 133.920   2
   1  -6   3 72016.4 666.021   2
   1  -6   4 29063.5 463.741   2
   1  -6   5 2052.71 167.085   2
   1  -6   6 38442.6 588.837   2
   1  -6   7 67243.4 821.027   2
   1  -6   8 48245.1 717.619   2
   1  -6   9 25610.3 535.706   2
   1  -6  10 4267.56 136.886   2
   1  -6  11 21304.0 275.230   2
   1  -6  12 48225.5 487.658   2
   1  -6  13 2656.18 148.817   2
   1  -6  14 728.732 112.074   2
   1  -6  15 4368.82 162.074   2
   1  -6  16 7170.92 171.785   2
   1  -6  17 2255.72 88.9804   2
   1  -5  -2 30.0323 36.0139   2
   1  -5  -1 642.011 58.9945   2
   1  -5   0 5914.85 146.376   2
   1  -5   1 2188.41 111.354   2
   1  -5   2 1444.10 110.482   2
   1  -5   3 14179.6 287.866   2
   1  -5   4 5964.57 214.320   2
   1  -5   5 1783.31 147.337   2
   1  -5   6 3674.14 195.948   2
   1  -5   7 403.613 117.707   2
   1  -5   8 2502.13 188.610   2
   1  -5   9 61.7277 110.257   2
   1  -5  10 5914.30 151.556   2
   1  -5  11 2981.42 153.175   2
   1  -5  12 4390.00 177.439   2
   1  -5  13 17.8641 101.844   2
   1  -5  14 1173.81 119.247   2
   1  -5  15 233.595 90.0567   2
   1  -5  16 2141.95 116.968   2
   1  -5  17 1338.05 83.5947   2
   1  -4  -3 17555.6 151.418   2
   1  -4  -2 40781.0 261.700   2
   1  -4  -1 13713.0 173.703   2
   1  -4   0 337.345 58.3781   2
   1  -4   1 352.462 69.6482   2
   1  -4   2 266220. 1039.02   2
   1  -4   3 36582.6 427.764   2
   1  -4   4 984.944 116.427   2
   1  -4   5 75825.5 683.911   2
   1  -4   6 64611.8 659.729   2
   1  -4   7 29088.1 467.685   2
   1  -4   8 107.433 104.601   2
   1  -4   9 36469.4 555.986   2
   1  -4  10 39040.4 332.678   2
   1  -4  11 22876.7 328.571   2
   1  -4  12 9335.53 230.726   2
   1  -4  13 8663.19 228.743   2
   1  -4  14 6868.44 204.794   2
   1  -4  15 4159.76 161.192   2
   1  -4  16 495.329 59.1334   2
   1  -4  17 4995.36 132.275   2
   1  -3  -4 1441.11 45.0924   2
   1  -3  -3 161.274 29.7934   2
   1  -3  -2 4.98984 28.4457   2
   1  -3  -1 6631.65 118.004   2
   1  -3   0 30819.8 266.830   2
   1  -3   1 12982.0 202.632   2
   1  -3   2 4702.23 142.869   2
   1  -3   3 48087.4 446.336   2
   1  -3   4 17178.2 192.699   2
   1  -3   5 2.57851 53.6401   2
   1  -3   6 3777.71 112.881   2
   1  -3   7 304.373 63.1646   2
   1  -3   8 4989.44 147.228   2
   1  -3   9 862.247 85.2183   2
   1  -3  11 1842.20 133.156   2
   1  -3  12 100.140 95.8214   2
   1  -3  13 260.826 106.871   2
   1  -3  14 5410.07 186.617   2
   1  -3  15 2785.09 140.860   2
   1  -3  16 378.083 80.3781   2
   1  -3  17 137.043 65.8078   2
   1  -2 -11 18231.9 428.319   2
   1  -2 -10 9764.64 299.818   2
   1  -2   0 9642.49 133.767   2
   1  -2   1 397114. 985.111   2
   1  -2   2 21251.2 153.616   2
   1  -2   3 806.211 56.0494   2
   1  -2   4 15290.4 159.453   2
   1  -2   5 2455.31 80.5451   2
   1  -2   6 73.6103 50.0651   2
   1  -2   7 2115.44 90.3482   2
   1  -2   8 12143.7 194.428   2
   1  -2   9 171.560 89.8578   2
   1  -2  10 2607.30 177.273   2
   1  -2  11 43964.6 656.004   2
   1  -2  12 1601.57 127.292   2
   1  -2  13 28.4471 96.1208   2
   1  -2  14 2844.49 145.914   2
   1  -2  15 13731.6 181.869   2
   1  -2  16 6983.77 184.888   2
   1  -2  17 238.440 70.6178   2
   1  -1 -11 115.236 132.095   2
   1  -1 -10 1878.27 172.141   2
   1  -1  -9 865.481 123.662   2
   1  -1  -2 985.085 50.3193   2
   1  -1  -1 3036.27 51.7291   2
   1  -1   1 254.993 22.8688   2
   1  -1   2-11.0177 29.6237   2
   1  -1   3 4258.89 75.3212   2
   1  -1   4 4302.70 81.1390   2
   1  -1   5 11.3692 38.5234   2
   1  -1   6 6818.44 117.711   2
   1  -1   7 523.339 55.4680   2
   1  -1   8 1153.45 109.955   2
   1  -1   9 3731.76 176.614   2
   1  -1  10 701.288 120.912   2
   1  -1  11 1298.47 75.7888   2
   1  -1  12 125.432 61.5676   2
   1  -1  13 315.383 72.4671   2
   1  -1  14 229.720 58.9840   2
   1  -1  15 517.843 113.504   2
   1  -1  16 789.251 99.8494   2
   1  -1  17 461.847 75.8993   2
   1   1 -12 4375.99 273.204   2
   1   1 -11 1135.36 176.106   2
   1   1 -10 15.8287 121.605   2
   1   1  -9 2311.01 176.251   2
   1   1  -8 1333.05 141.449   2
   1   1  -7 17267.5 341.274   2
   1   1  -6 3717.22 167.271   2
   1   1  -5 18.4105 78.6143   2
   1   1  -4 2747.83 130.258   2
   1   1  -3 803.741 107.298   2
   1   1  -2 1597.05 96.2810   2
   1   1  -1 5199.00 131.038   2
   1   1   0 3099.63 104.869   2
   1   1   1 138.315 35.3163   2
   1   1   2 2956.44 77.0169   2
   1   1   3 4465.29 64.5963   2
   1   1   4 427.172 34.6266   2
   1   1   5 2030.37 54.8404   2
   1   1   6 1809.46 94.9463   2
   1   1   7 2349.86 112.549   2
   1   1   8 1437.35 110.261   2
   1   1   9 1224.54 116.993   2
   1   1  10 2212.99 82.0925   2
   1   1  11 65.9992 57.4115   2
   1   1  12 102.787 76.0765   2
   1   1  13 2017.62 109.827   2
   1   1  14 3460.00 122.779   2
   1   1  15 679.758 105.003   2
   1   1  16 76.6445 78.0269   2
   1   1  17 2769.91 107.677   2
   1   2 -12 1373.35 197.931   2
   1   2 -11 8526.58 337.586   2
   1   2 -10 111.781 129.438   2
   1   2  -9 1253.62 158.993   2
   1   2  -8 19919.2 414.447   2
   1   2  -7 139699. 990.303   2
   1   2  -6 68.0541 105.782   2
   1   2  -5 36661.7 456.319   2
   1   2  -4 176440. 929.038   2
   1   2  -3 134189. 728.731   2
   1   2  -2 87886.7 564.152   2
   1   2  -1 11038.5 205.462   2
   1   2   0 372508. 1053.18   2
   1   2   1 71411.5 265.073   2
   1   2   2 36544.5 248.193   2
   1   2   3 86.5071 44.7501   2
   1   2   4 2140.76 49.6330   2
   1   2   5 12285.1 195.733   2
   1   2   6 8465.84 180.176   2
   1   2   7 349.652 77.3362   2
   1   2   8 212.574 72.7357   2
   1   2   9 110.382 82.9208   2
   1   2  10 18017.2 369.577   2
   1   2  11 818.114 94.8808   2
   1   2  12 768.257 127.234   2
   1   2  13 1610.93 142.925   2
   1   2  14 9678.69 256.182   2
   1   2  15 4346.80 167.835   2
   1   2  16 188.411 77.6084   2
   1   2  17 12505.4 178.582   2
   1   3 -12 1353.14 196.296   2
   1   3 -11 430.279 154.166   2
   1   3 -10-42.7006 139.051   2
   1   3  -9 946.432 163.139   2
   1   3  -8 21.4210 121.690   2
   1   3  -7 3.50481 114.738   2
   1   3  -6 7480.24 259.188   2
   1   3  -5 2134.93 154.163   2
   1   3  -4 1169.39 118.859   2
   1   3  -3 16041.6 288.350   2
   1   3  -2 46175.4 456.154   2
   1   3  -1 30533.2 369.982   2
   1   3   0 3745.31 56.2068   2
   1   3   1 25300.0 184.944   2
   1   3   2 23496.4 226.005   2
   1   3   3 850.416 65.3154   2
   1   3   4 146.175 58.2276   2
   1   3   5 5601.08 149.207   2
   1   3   6 987.317 88.1096   2
   1   3   7 1529.04 103.490   2
   1   3   8 335.189 80.9879   2
   1   3   9 2337.12 78.1296   2
   1   3  10 897.988 70.5205   2
   1   3  11 214.819 63.6460   2
   1   3  12 629.652 86.7609   2
   1   3  13 36.9989 104.111   2
   1   3  14 614.497 114.234   2
   1   3  15 1000.03 108.379   2
   1   3  16 982.831 89.6127   2
   1   4 -12 10722.5 394.746   2
   1   4 -11 5415.09 296.059   2
   1   4 -10 5030.78 271.612   2
   1   4  -9 584.188 143.817   2
   1   4  -8 3672.40 220.614   2
   1   4  -7 17096.5 395.635   2
   1   4  -6 286.085 124.137   2
   1   4  -5 16831.5 341.800   2
   1   4  -4 48475.2 553.520   2
   1   4  -3 60446.3 600.036   2
   1   4  -2 33019.3 424.302   2
   1   4  -1 43661.8 490.755   2
   1   4   0 109840. 320.001   2
   1   4   1 112317. 429.793   2
   1   4   2 76469.2 449.823   2
   1   4   3 828.141 72.7321   2
   1   4   4 3601.68 127.299   2
   1   4   5 19727.8 277.810   2
   1   4   6 28579.5 351.639   2
   1   4   7 4186.57 157.666   2
   1   4   8 1911.51 123.290   2
   1   4   9 22619.9 203.335   2
   1   4  10 1501.22 79.9304   2
   1   4  11 99.6369 73.7330   2
   1   4  12 1209.77 137.262   2
   1   4  13 5483.87 203.812   2
   1   4  14 31.1464 93.8558   2
   1   4  15 2522.10 128.282   2
   1   4  16 10829.1 183.011   2
   1   5 -11 2751.03 228.064   2
   1   5 -10 478.576 157.526   2
   1   5  -9 2669.58 206.581   2
   1   5  -8 1914.38 175.213   2
   1   5  -7 440.330 132.623   2
   1   5  -6 1066.63 146.442   2
   1   5  -5-10.1162 117.621   2
   1   5  -4 108.673 123.321   2
   1   5  -3 9355.07 275.006   2
   1   5  -2 3359.65 179.298   2
   1   5  -1 815.347 127.064   2
   1   5   0 12687.6 132.664   2
   1   5   1 2387.10 61.7596   2
   1   5   2 40.5973 60.8944   2
   1   5   3 3682.39 127.773   2
   1   5   4 3267.85 131.712   2
   1   5   5-16.1557 73.2977   2
   1   5   6 8704.95 215.348   2
   1   5   7 246.341 83.9945   2
   1   5   8 1240.08 65.4930   2
   1   5   9 2390.63 86.3586   2
   1   5  10 2789.99 167.873   2
   1   5  11 73.1974 105.263   2
   1   5  12 111.364 107.091   2
   1   5  13 731.252 114.926   2
   1   5  14 1231.08 119.001   2
   1   5  15 240.481 79.3807   2
   1   6 -11 13120.5 438.207   2
   1   6 -10 16303.2 470.528   2
   1   6  -9 1285.99 183.748   2
   1   6  -8 14152.1 413.053   2
   1   6  -7 4815.09 261.693   2
   1   6  -6 4860.59 255.660   2
   1   6  -5 4765.03 242.681   2
   1   6  -4 2698.63 194.339   2
   1   6  -3 100.333 131.899   2
   1   6  -2 2398.32 193.491   2
   1   6  -1 28640.7 476.484   2
   1   6   0 6842.45 245.671   2
   1   6   1 29488.6 220.063   2
   1   6   2 58138.5 332.348   2
   1   6   3 9993.92 212.096   2
   1   6   4 110.505 80.5418   2
   1   6   5 9797.86 230.973   2
   1   6   6 39389.4 459.047   2
   1   6   7 34162.3 303.708   2
   1   6   8 6713.48 152.944   2
   1   6   9 21048.8 265.793   2
   1   6  10 11824.1 290.464   2
   1   6  11 14026.3 309.474   2
   1   6  12 3820.66 181.142   2
   1   6  13 2410.72 146.015   2
   1   6  14 10822.4 225.567   2
   1   6  15 9851.45 116.432   2
   1   7 -11 1698.55 224.901   2
   1   7 -10 101.779 168.627   2
   1   7  -9-8.19326 159.481   2
   1   7  -8-3.71838 152.298   2
   1   7  -7 4300.84 264.284   2
   1   7  -6 61.7568 134.560   2
   1   7  -5 19.7564 132.967   2
   1   7  -4 11825.6 355.989   2
   1   7  -3 18239.1 438.621   2
   1   7  -2 8456.87 307.671   2
   1   7  -1 3415.63 208.968   2
   1   7   0 19341.7 410.945   2
   1   7   1 8813.07 136.871   2
   1   7   2 94.5961 50.9920   2
   1   7   3 142.834 53.3650   2
   1   7   4 3179.43 151.541   2
   1   7   5 1029.61 110.897   2
   1   7   6 65.1884 45.8873   2
   1   7   7 939.795 59.7944   2
   1   7   8 3349.90 123.513   2
   1   7   9 41.6005 103.783   2
   1   7  10 2149.66 157.492   2
   1   7  11 37.1139 105.385   2
   1   7  12 592.702 115.471   2
   1   7  13 69.5512 86.7717   2
   1   7  14 710.394 84.9858   2
   1   8 -10 1312.18 218.450   2
   1   8  -9 2503.41 118.753   2
   1   8  -8 3461.01 129.995   2
   1   8  -7 5534.20 307.694   2
   1   8  -6 80.2573 137.449   2
   1   8  -5 1382.84 189.314   2
   1   8  -4 24550.5 551.747   2
   1   8  -3 39207.8 677.710   2
   1   8  -2 33844.0 618.767   2
   1   8  -1 12201.0 372.462   2
   1   8   0 61893.9 465.049   2
   1   8   1 82484.0 673.033   2
   1   8   2 12688.8 273.936   2
   1   8   3 320.624 91.7924   2
   1   8   4 20084.8 356.234   2
   1   8   5 56151.7 288.777   2
   1   8   6 21281.5 188.341   2
   1   8   7 38.6502 52.1904   2
   1   8   8 23621.4 222.892   2
   1   8   9 5283.28 208.464   2
   1   8  10 8004.44 241.255   2
   1   8  11 155.129 100.734   2
   1   8  12 4395.88 168.936   2
   1   8  13 4954.16 154.288   2
   1   8  14 858.911 50.0653   2
   1   9 -10 46.9020 87.2200   2
   1   9  -9 2002.84 112.434   2
   1   9  -8 187.818 93.1166   2
   1   9  -7 616.535 87.7691   2
   1   9  -6 404.411 84.8342   2
   1   9  -5 529.224 184.351   2
   1   9  -4 2062.72 227.990   2
   1   9  -3 1200.76 195.948   2
   1   9  -2 294.350 154.867   2
   1   9  -1 6384.05 298.130   2
   1   9   0 1968.04 140.197   2
   1   9   1 72.3627 87.3854   2
   1   9   2 2320.03 150.618   2
   1   9   3 1160.24 81.8077   2
   1   9   4 94.5914 66.5530   2
   1   9   5 3257.02 92.2420   2
   1   9   6 322.203 58.1799   2
   1   9   7 1889.14 90.3151   2
   1   9   8 483.111 64.5497   2
   1   9   9 2493.55 158.162   2
   1   9  10 202.803 101.279   2
   1   9  11 339.019 101.216   2
   1   9  12 51.9126 75.9878   2
   1   9  13 986.037 58.0833   2
   1  10 -11 9094.10 193.866   2
   1  10 -10 201.252 86.4824   2
   1  10  -9 13102.3 258.110   2
   1  10  -8 18103.4 266.566   2
   1  10  -7 7816.92 186.236   2
   1  10  -6 807.601 94.4299   2
   1  10  -5 9921.81 202.239   2
   1  10  -4 28401.4 314.553   2
   1  10  -3 18000.0 248.723   2
   1  10  -2 3715.67 127.349   2
   1  10  -1 7822.26 119.495   2
   1  10   0 8691.19 124.051   2
   1  10   1 65.0066 60.4179   2
   1  10   2 530.298 73.3223   2
   1  10   3 5573.25 143.694   2
   1  10   4 4614.64 105.466   2
   1  10   5 487.670 71.2948   2
   1  10   6 6915.23 143.038   2
   1  10   7 7389.92 143.292   2
   1  10   8 533.189 66.5679   2
   1  10   9 974.712 73.9699   2
   1  10  10 4367.03 169.098   2
   1  10  11 2634.03 124.823   2
   1  10  12 108.448 47.7506   2
   1  11 -15 53.1376 44.8345   2
   1  11 -11 226.721 75.7796   2
   1  11 -10 1226.40 110.786   2
   1  11  -9 183.620 90.0026   2
   1  11  -8 487.917 99.8447   2
   1  11  -7 330.541 87.8140   2
   1  11  -6 275.341 87.2446   2
   1  11  -5 1842.73 115.638   2
   1  11  -4 2318.28 119.229   2
   1  11  -3 1379.66 102.545   2
   1  11  -2 886.661 82.2820   2
   1  11  -1 3590.17 93.1236   2
   1  11   0 862.039 62.1716   2
   1  11   1 32.0546 66.8721   2
   1  11   2 148.926 68.2709   2
   1  11   3 1417.34 85.8142   2
   1  11   4 274.849 69.1204   2
   1  11   5-10.4898 66.1989   2
   1  11   6 761.246 76.3635   2
   1  11   7 1386.69 81.5157   2
   1  11   8 415.493 64.8617   2
   1  11   9 321.286 58.8603   2
   1  11  10 65.4476 73.4507   2
   1  11  11 133.580 46.5711   2
   1  12 -12 393.067 70.0052   2
   1  12 -11 4195.75 137.545   2
   1  12 -10 13573.6 239.530   2
   1  12  -9 6540.74 185.084   2
   1  12  -8 950.926 110.753   2
   1  12  -7 733.187 110.268   2
   1  12  -6 14333.2 281.785   2
   1  12  -5 11679.4 255.489   2
   1  12  -4 1273.19 118.919   2
   1  12  -3 2862.90 146.886   2
   1  12  -2 2580.08 140.651   2
   1  12  -1 613.068 95.1269   2
   1  12   0 389.780 64.2955   2
   1  12   1 42.1131 87.0211   2
   1  12   2 7.85653 67.9620   2
   1  12   3 121.049 68.0788   2
   1  12   4 5160.41 129.374   2
   1  12   5 2123.77 95.7843   2
   1  12   6 425.596 69.9401   2
   1  12   7 8123.53 138.617   2
   1  12   8 3225.03 91.1207   2
   1  12   9 2383.27 82.1105   2
   1  12  10 427.274 51.3980   2
   1  13 -14 26.5426 41.0144   2
   1  13 -12 33.4999 53.1379   2
   1  13 -11-41.1301 64.4652   2
   1  13 -10 994.305 92.9292   2
   1  13  -9 119.519 81.8706   2
   1  13  -8 463.043 96.8132   2
   1  13  -7 73.5593 93.2667   2
   1  13  -6 199.772 94.5549   2
   1  13  -5-26.4556 91.8118   2
   1  13  -4 303.739 97.3502   2
   1  13  -3 211.283 96.5056   2
   1  13  -2 787.756 100.512   2
   1  13  -1 345.799 87.2355   2
   1  13   0 136.954 60.9536   2
   1  13   1 335.467 99.4751   2
   1  13   2 583.526 74.3757   2
   1  13   3 159.883 66.2938   2
   1  13   4 268.624 66.9960   2
   1  13   5 422.821 68.0070   2
   1  13   6 66.5503 57.0301   2
   1  13   7 225.423 56.2727   2
   1  13   8 442.375 42.2980   2
   1  14 -12 1467.78 63.9586   2
   1  14 -11 53.2510 54.2455   2
   1  14 -10 825.575 81.5218   2
   1  14  -9 1767.12 109.220   2
   1  14  -8 1402.27 107.526   2
   1  14  -7 884.842 104.521   2
   1  14  -6 1320.45 115.280   2
   1  14  -5 7054.87 198.109   2
   1  14  -4 8289.76 140.266   2
   1  14  -3 18.6577 61.1944   2
   1  14  -2 1556.76 82.8179   2
   1  14  -1 4635.73 112.760   2
   1  14   0 1769.07 123.733   2
   1  14   1 447.547 100.443   2
   1  14   2 601.961 101.988   2
   1  14   3 2459.49 129.548   2
   1  14   4 200.248 86.0896   2
   1  14   5 593.713 58.1913   2
   1  14   6 1277.92 91.1979   2
   1  14   7 112.290 59.0735   2
   1  15  -7 64.6504 76.9635   2
   1  15  -6 251.057 81.0926   2
   1  15  -5 203.131 80.3664   2
   1  15  -4 425.647 60.2024   2
   1  15  -3 66.7304 54.0852   2
   1  15  -2 257.615 55.8789   2
   1  15  -1 102.035 52.5427   2
   1  15   0 153.681 86.6812   2
   1  15   1 191.790 81.9814   2
   1  15   2 410.532 85.1968   2
   1  15   3 72.4448 74.3049   2
   1  15   4 13.3848 45.5238   2
   1  15   5 324.319 68.9808   2
   1  15   6 162.637 54.8296   2
   1  16 -10 45.0731 43.4115   2
   1  16  -9 28.2069 51.6004   2
   1  16  -8 114.109 57.9607   2
   1  16  -7 828.882 77.1728   2
   1  16  -6 230.503 68.0650   2
   1  16  -5 774.876 82.2981   2
   1  16  -4 5049.05 136.572   2
   1  16  -3 2621.51 102.608   2
   1  16  -2 94.9717 58.6864   2
   1  17  -6 45.3612 49.0318   2
   1  17  -5 15.6911 43.7282   2
   1  17  -4 44.7628 49.3813   2
   1  17  -1 40.8524 47.9081   2
   1  17   0 157.728 36.9468   2
   1  17   1 40.2504 47.7241   2
   2 -11   3 1188.69 187.569   2
   2 -11   4 522.882 163.963   2
   2 -11   5 1240.13 181.719   2
   2 -11  12-34.1547 71.7629   2
   2 -11  13 109.499 62.0088   2
   2 -10   2 1718.64 178.623   2
   2 -10   3 5098.82 260.733   2
   2 -10   4 25797.2 563.549   2
   2 -10   5 8152.65 350.255   2
   2 -10   6 862.905 182.000   2
   2 -10   7 5613.99 311.609   2
   2 -10  10 125.629 82.9236   2
   2 -10  11 1329.88 110.273   2
   2 -10  12 154.735 77.5281   2
   2 -10  13 321.520 77.0841   2
   2 -10  14 1622.05 91.2798   2
   2  -9   1 2083.25 158.279   2
   2  -9   2 3117.20 199.656   2
   2  -9   3 450.653 127.836   2
   2  -9   4-14.2020 112.493   2
   2  -9   5 3283.61 229.609   2
   2  -9   6 43.5863 130.595   2
   2  -9   7 689.521 171.149   2
   2  -9   8 325.741 159.143   2
   2  -9   9 416.457 97.1191   2
   2  -9  10 285.568 94.2978   2
   2  -9  11 62.1479 86.9460   2
   2  -9  12 397.090 96.1597   2
   2  -9  13 474.293 90.3535   2
   2  -9  14 18.1002 70.7326   2
   2  -9  15 282.364 63.0223   2
   2  -8   0 743.252 103.450   2
   2  -8   1 1339.07 132.180   2
   2  -8   2 498.337 112.152   2
   2  -8   3 35.4896 99.4793   2
   2  -8   4 22759.3 478.916   2
   2  -8   5 16137.9 429.535   2
   2  -8   6 5601.89 283.834   2
   2  -8   7 3110.16 230.799   2
   2  -8   8 11780.0 200.376   2
   2  -8   9 5366.42 151.883   2
   2  -8  10 7884.79 209.374   2
   2  -8  11 36.2653 92.2017   2
   2  -8  12 4987.02 177.153   2
   2  -8  13 5712.63 182.508   2
   2  -8  14 72.2473 84.3094   2
   2  -8  15 379.078 77.9139   2
   2  -7  -1 1221.30 107.035   2
   2  -7   0 174.684 85.8773   2
   2  -7   1 4439.27 190.960   2
   2  -7   2 4365.90 197.942   2
   2  -7   3-22.3785 100.502   2
   2  -7   4 2694.65 187.096   2
   2  -7   5 3567.14 216.933   2
   2  -7   6 53.7636 111.451   2
   2  -7   7 545.330 148.205   2
   2  -7   8 205.449 78.7535   2
   2  -7   9 261.907 79.8758   2
   2  -7  10 373.383 88.2676   2
   2  -7  11 29.6703 98.3159   2
   2  -7  12 448.417 103.434   2
   2  -7  13 1918.63 140.845   2
   2  -7  14 501.565 97.8490   2
   2  -7  15 233.908 76.8222   2
   2  -7  16 197.099 52.2639   2
   2  -6  -2 12799.4 232.306   2
   2  -6  -1 2908.71 132.516   2
   2  -6   0 19589.6 326.748   2
   2  -6   1 3522.86 165.629   2
   2  -6   2 6282.47 220.462   2
   2  -6   3 23595.0 427.569   2
   2  -6   4 10853.9 314.093   2
   2  -6   5 4775.34 230.040   2
   2  -6   6 19180.1 441.763   2
   2  -6   7 1543.18 167.512   2
   2  -6   8 5975.51 276.018   2
   2  -6   9 149.682 75.8574   2
   2  -6  10 2967.26 128.874   2
   2  -6  11 2084.43 144.116   2
   2  -6  12 4202.61 180.826   2
   2  -6  13 10013.8 246.557   2
   2  -6  14 1300.90 118.653   2
   2  -6  15 490.424 90.0172   2
   2  -6  16 91.6784 59.1779   2
   2  -5  -3 145.655 49.2610   2
   2  -5  -2 570.083 70.9154   2
   2  -5  -1 440.609 74.5335   2
   2  -5   0 3163.95 141.215   2
   2  -5   1 4387.29 171.495   2
   2  -5   2 443.278 100.974   2
   2  -5   3 20.0154 95.9231   2
   2  -5   4 6916.97 246.429   2
   2  -5   5 15.1192 98.2767   2
   2  -5   6 279.198 116.387   2
   2  -5   7 131.883 108.044   2
   2  -5   8 3215.76 211.133   2
   2  -5   9 1683.22 101.092   2
   2  -5  10 283.795 82.1505   2
   2  -5  11 311.645 108.038   2
   2  -5  12 2760.28 157.964   2
   2  -5  13 28.5908 99.7718   2
   2  -5  14 67.1865 90.7134   2
   2  -5  15 17.8173 66.6930   2
   2  -5  16 96.3340 59.9101   2
   2  -4  -4 401.971 56.3977   2
   2  -4  -3 4306.25 132.827   2
   2  -4  -2 12993.1 229.087   2
   2  -4  -1 2415.83 117.980   2
   2  -4   0 16730.7 282.439   2
   2  -4   1 725.812 95.1083   2
   2  -4   2 8006.14 225.243   2
   2  -4   3 42224.0 508.381   2
   2  -4   4 73953.6 693.633   2
   2  -4   5 74609.9 735.422   2
   2  -4   6 2916.43 179.432   2
   2  -4   7 32283.0 525.212   2
   2  -4   8 31977.7 535.089   2
   2  -4   9 44028.1 358.365   2
   2  -4  10 11504.9 251.247   2
   2  -4  11 4363.57 184.656   2
   2  -4  12 38855.1 461.282   2
   2  -4  13 3778.79 171.790   2
   2  -4  14 2612.91 144.694   2
   2  -4  15 75.6287 72.0378   2
   2  -4  16 4396.01 127.917   2
   2  -4  17 2250.40 84.2052   2
   2  -3  -1 164.339 61.2921   2
   2  -3   0 3051.15 120.458   2
   2  -3   1 1935.81 114.185   2
   2  -3   2 364.514 87.6571   2
   2  -3   3 1538.01 128.116   2
   2  -3   4 2247.10 85.4952   2
   2  -3   5 576.624 63.2350   2
   2  -3   6 158.663 59.2726   2
   2  -3   7 16.5186 57.6298   2
   2  -3   8 492.643 72.2763   2
   2  -3   9 1487.18 101.158   2
   2  -3  10 1237.03 95.5888   2
   2  -3  11 253.774 110.996   2
   2  -3  12 3099.10 164.727   2
   2  -3  13 973.367 124.572   2
   2  -3  14 165.049 60.1887   2
   2  -3  15 375.275 83.6871   2
   2  -3  16 211.281 71.6807   2
   2  -3  17 993.308 71.4214   2
   2  -2  -7 22764.3 342.296   2
   2  -2  -6 1935.73 109.492   2
   2  -2  -5 22518.4 278.852   2
   2  -2  -4 32347.9 285.716   2
   2  -2  -3 6961.01 117.306   2
   2  -2  -2 42663.2 229.840   2
   2  -2   1-5.00381 56.4782   2
   2  -2   2 254.520 34.8772   2
   2  -2   3 2833.31 72.8310   2
   2  -2   4 11317.9 148.118   2
   2  -2   5 27573.2 242.485   2
   2  -2   6 887.712 69.1679   2
   2  -2   7 11861.3 189.954   2
   2  -2   8 133.909 58.4867   2
   2  -2   9 1445.71 133.063   2
   2  -2  10 7952.79 274.833   2
   2  -2  11 40225.1 642.662   2
   2  -2  13 97.2697 78.7728   2
   2  -2  14 1809.36 119.525   2
   2  -2  15 4494.95 157.013   2
   2  -2  16 245.557 72.2184   2
   2  -2  17 586.288 64.6590   2
   2  -1  -9 57.8044 103.182   2
   2  -1  -8 1975.53 147.113   2
   2  -1  -7 3449.84 167.532   2
   2  -1  -6 983.672 103.343   2
   2  -1  -5-11.9863 72.3634   2
   2  -1  -4 378.091 68.6025   2
   2  -1  -3 817.098 72.8074   2
   2  -1  -2 123.544 58.5501   2
   2  -1  -1 550.641 60.4895   2
   2  -1   0 317.290 17.4212   2
   2  -1   1 69.3667 22.7892   2
   2  -1   2 252.566 32.5450   2
   2  -1   3 29.7429 29.9147   2
   2  -1   4 145.347 39.3424   2
   2  -1   5 321.779 50.9111   2
   2  -1   6 203.251 49.7051   2
   2  -1   7 136.256 49.9956   2
   2  -1   8 59.6596 74.5261   2
   2  -1   9 148.551 88.7091   2
   2  -1  10 319.744 75.0873   2
   2  -1  11 3836.55 136.940   2
   2  -1  12 108.395 62.3405   2
   2  -1  13 174.888 82.0202   2
   2  -1  14 305.339 93.0666   2
   2  -1  15 1224.52 105.274   2
   2  -1  16 762.620 84.4576   2
   2  -1  17 5.51793 53.5127   2
   2   1 -11 1539.91 184.378   2
   2   1 -10-35.2858 125.557   2
   2   1  -9 1507.03 157.748   2
   2   1  -8 396.541 116.220   2
   2   1  -7 770.509 119.926   2
   2   1  -6 173.880 88.8714   2
   2   1  -5 182.999 87.4567   2
   2   1  -4 21.4597 87.3680   2
   2   1  -3 320.440 92.7906   2
   2   1  -2 1825.07 121.866   2
   2   1  -1 1113.91 113.954   2
   2   1   0 386.225 34.3034   2
   2   1   1 39.1646 33.4868   2
   2   1   2 30.0578 37.6199   2
   2   1   3 765.609 61.5058   2
   2   1   4 378.729 56.4157   2
   2   1   5 54.5582 43.0908   2
   2   1   6 3.11397 39.0625   2
   2   1   7 289.652 73.9653   2
   2   1   8 65.3196 75.1733   2
   2   1   9 121.701 58.3084   2
   2   1  10 388.982 69.4640   2
   2   1  11 1369.72 94.5489   2
   2   1  12 44.8936 82.7831   2
   2   1  13 28.2349 86.5174   2
   2   1  14 77.2368 86.7404   2
   2   1  15 404.935 90.8216   2
   2   1  16 592.405 81.3451   2
   2   2 -11 2890.75 215.569   2
   2   2 -10 9577.85 330.922   2
   2   2  -9 898.555 145.044   2
   2   2  -8 16993.8 386.693   2
   2   2  -7 19221.1 389.725   2
   2   2  -6 169.913 102.541   2
   2   2  -5 3153.62 179.584   2
   2   2  -4 3126.76 173.856   2
   2   2  -3 99165.9 756.020   2
   2   2  -2 5288.16 196.473   2
   2   2  -1 5739.31 199.923   2
   2   2   0 1208.75 53.2529   2
   2   2   1 18036.9 193.534   2
   2   2   4 20733.2 252.658   2
   2   2   5 6352.14 153.878   2
   2   2   7 1246.39 100.818   2
   2   2  14 4245.05 169.485   2
   2   2  15 4.87477 77.1724   2
   2   2  16 1851.22 100.920   2
   2   3 -11 973.739 171.325   2
   2   3 -10 1948.49 188.884   2
   2   3  -9 2252.96 191.273   2
   2   3  -8 1811.52 169.507   2
   2   3  -7 275.848 120.658   2
   2   3  -6 200.691 119.054   2
   2   3  -5 305.232 126.932   2
   2   3  -4 597.726 134.389   2
   2   3  -3 1298.82 151.651   2
   2   3  -2 5512.27 222.951   2
   2   3  -1 2725.02 164.409   2
   2   3   0 188.293 100.768   2
   2   3   1 941.318 68.2415   2
   2   3   2 646.969 66.6728   2
   2   3   3 197.238 63.1062   2
   2   3   4-4.68284 62.2110   2
   2   3   5 5.94240 63.4987   2
   2   3   6-26.1391 71.1069   2
   2   3   7-4.34337 70.6948   2
   2   3   8-0.90853 59.5129   2
   2   3   9 55.1357 67.8835   2
   2   3  10 1925.54 109.477   2
   2   3  11 147.077 113.512   2
   2   3  12 310.965 117.823   2
   2   3  13 202.062 112.231   2
   2   3  14 1059.54 124.494   2
   2   3  15 370.519 82.3743   2
   2   3  16-3.02055 59.0627   2
   2   4 -11 3085.32 242.424   2
   2   4 -10 3783.68 252.580   2
   2   4  -9 6321.49 295.435   2
   2   4  -8 3066.36 218.734   2
   2   4  -7 58.7613 125.443   2
   2   4  -6 2208.43 189.469   2
   2   4  -5 239.967 123.503   2
   2   4  -4 5993.93 253.895   2
   2   4  -3 1242.58 168.242   2
   2   4  -2 5520.69 245.566   2
   2   4  -1 4930.34 222.155   2
   2   4   0 2802.83 170.835   2
   2   4   1 3580.36 119.518   2
   2   4   2 149.853 73.3695   2
   2   4   3 31802.5 342.602   2
   2   4   4 1227.60 98.7626   2
   2   4   5 299.504 82.0345   2
   2   4   6 193.145 77.9718   2
   2   4   7 2661.62 145.144   2
   2   4   8 10569.2 180.894   2
   2   4   9 1737.71 103.284   2
   2   4  10 22777.2 397.146   2
   2   4  11 791.682 134.999   2
   2   4  12 1146.98 147.628   2
   2   4  13 439.105 110.269   2
   2   4  14 3729.64 158.282   2
   2   4  15 5788.08 157.789   2
   2   5 -11-12.8014 166.008   2
   2   5 -10 3412.16 269.204   2
   2   5  -9 2847.11 238.330   2
   2   5  -8 1185.10 181.279   2
   2   5  -7-14.2102 137.283   2
   2   5  -6 422.145 152.006   2
   2   5  -5 516.890 159.632   2
   2   5  -4 189.377 135.877   2
   2   5  -3 4909.51 251.616   2
   2   5  -2 6325.49 268.434   2
   2   5  -1 944.357 161.753   2
   2   5   0 539.386 66.1648   2
   2   5   1 2083.23 109.833   2
   2   5   2 1243.36 95.2268   2
   2   5   3 41.1633 67.6603   2
   2   5   4 202.341 78.3864   2
   2   5   5 316.353 83.0509   2
   2   5   6-7.03577 85.4754   2
   2   5   7 1.54692 63.0435   2
   2   5   8 185.309 72.3749   2
   2   5   9 295.012 81.4081   2
   2   5  10 1489.56 152.386   2
   2   5  11 33.9886 110.376   2
   2   5  12 607.583 123.900   2
   2   5  13 340.324 100.745   2
   2   5  14 391.329 89.4008   2
   2   5  15 937.093 78.6327   2
   2   6 -10 1848.50 231.866   2
   2   6  -9 300.643 177.719   2
   2   6  -8 559.934 178.326   2
   2   6  -7 19790.7 512.968   2
   2   6  -6 12917.1 417.028   2
   2   6  -5 863.108 178.072   2
   2   6  -4-4.35651 155.245   2
   2   6  -3 31718.2 601.704   2
   2   6  -2 76009.4 878.792   2
   2   6  -1 36581.1 588.397   2
   2   6   0 494.936 71.0810   2
   2   6   1 15468.9 277.559   2
   2   6   2 71048.2 582.352   2
   2   6   3 8611.71 221.863   2
   2   6   4 12505.9 273.024   2
   2   6   5 3480.37 168.091   2
   2   6   6 10926.4 184.819   2
   2   6   7 10082.8 188.498   2
   2   6   8 4524.47 141.468   2
   2   6   9 17866.3 357.177   2
   2   6  10 620.681 128.157   2
   2   6  11 185.858 113.356   2
   2   6  12 104.973 102.498   2
   2   6  13 1604.69 122.598   2
   2   6  14 937.875 91.6922   2
   2   7 -10 962.879 208.279   2
   2   7  -9 3132.30 265.431   2
   2   7  -8 28.2505 81.9860   2
   2   7  -7 139.926 171.319   2
   2   7  -6 292.838 159.423   2
   2   7  -5 174.367 165.984   2
   2   7  -4 1122.53 196.340   2
   2   7  -3 6625.51 319.058   2
   2   7  -2 1803.75 208.252   2
   2   7  -1 97.8471 138.938   2
   2   7   0 2414.29 117.051   2
   2   7   1 521.825 95.1770   2
   2   7   2 617.531 99.5991   2
   2   7   3 582.829 101.181   2
   2   7   4 333.453 102.382   2
   2   7   5-0.92041 65.9154   2
   2   7   6 699.671 83.4209   2
   2   7   7 1452.92 100.315   2
   2   7   8 1017.31 134.703   2
   2   7   9 16.3343 110.459   2
   2   7  10 24.9935 111.711   2
   2   7  11 1909.07 147.747   2
   2   7  12 215.796 99.2415   2
   2   7  13 11.4548 78.6778   2
   2   7  14 13.2900 59.6648   2
   2   8  -9 4171.95 142.221   2
   2   8  -8 629.539 91.5529   2
   2   8  -7 2285.20 117.641   2
   2   8  -6 3906.00 139.798   2
   2   8  -5 6250.09 349.258   2
   2   8  -4 579.108 187.960   2
   2   8  -3 458.100 186.212   2
   2   8  -2 2346.74 235.761   2
   2   8  -1 6628.71 183.895   2
   2   8   0 6599.53 221.836   2
   2   8   1 844.504 113.770   2
   2   8   2 6990.92 232.891   2
   2   8   3 10485.2 180.793   2
   2   8   4 5718.16 146.893   2
   2   8   5 7663.29 170.682   2
   2   8   6 1004.63 93.4891   2
   2   8   7 17481.6 206.706   2
   2   8   8 14525.7 323.241   2
   2   8   9-7.16234 106.729   2
   2   8  10 227.242 110.244   2
   2   8  11 3688.32 166.478   2
   2   8  12 4621.53 162.657   2
   2   8  13 1032.05 84.0025   2
   2   9 -10 19.6613 85.9884   2
   2   9  -9 1255.51 115.170   2
   2   9  -8 394.119 86.5137   2
   2   9  -7 113.813 85.1049   2
   2   9  -6 667.278 94.1356   2
   2   9  -5 333.380 84.7314   2
   2   9  -4 928.737 96.3875   2
   2   9  -3 1514.96 103.598   2
   2   9  -2 475.090 83.3219   2
   2   9  -1 567.222 57.4994   2
   2   9   0 1096.63 64.9554   2
   2   9   1 103.231 51.4148   2
   2   9   2 62.0508 63.5966   2
   2   9   3 79.7784 71.5267   2
   2   9   4 5.39200 71.8513   2
   2   9   5 57.6978 96.6469   2
   2   9   6 84.9984 66.0298   2
   2   9   7 231.870 62.6134   2
   2   9   8 315.932 113.669   2
   2   9   9 7.75301 103.970   2
   2   9  10 687.514 113.228   2
   2   9  11 350.461 93.8402   2
   2   9  12 346.542 78.5462   2
   2  10 -10 1743.48 113.594   2
   2  10  -9 16853.1 284.155   2
   2  10  -8 7841.79 212.872   2
   2  10  -7 1659.94 126.120   2
   2  10  -6-9.50826 82.0278   2
   2  10  -5 12734.9 238.318   2
   2  10  -4 13182.7 238.394   2
   2  10  -3 1041.35 102.720   2
   2  10  -2 6058.51 140.049   2
   2  10  -1 3278.98 92.6999   2
   2  10   0 678.696 63.1466   2
   2  10   1 1862.26 77.9985   2
   2  10   2 297.216 74.7805   2
   2  10   3 4347.20 179.147   2
   2  10   4 148.070 96.1799   2
   2  10   5 4635.16 126.829   2
   2  10   6 4012.51 118.059   2
   2  10   7 2704.08 99.1117   2
   2  10   8 4635.30 112.327   2
   2  10   9 1725.68 129.870   2
   2  10  10 1961.85 124.248   2
   2  10  11 578.006 83.7471   2
   2  11 -11-31.3638 66.2681   2
   2  11 -10 211.499 84.6520   2
   2  11  -9 346.654 85.7065   2
   2  11  -8 246.367 95.8347   2
   2  11  -7 956.781 117.959   2
   2  11  -6-8.93136 95.1021   2
   2  11  -5 556.171 104.123   2
   2  11  -4 241.571 87.5143   2
   2  11  -3 553.463 76.3629   2
   2  11  -2 89.6932 73.2086   2
   2  11  -1 398.580 76.8968   2
   2  11   0 116.378 62.4235   2
   2  11   1 13.3237 58.6082   2
   2  11   2 27.5202 90.1365   2
   2  11   3 24.5728 96.2805   2
   2  11   4-1.38125 65.4654   2
   2  11   5 15.8341 65.0886   2
   2  11   6 36.4950 61.6688   2
   2  11   7 70.4691 58.0379   2
   2  11   8 43.3817 52.5267   2
   2  11   9 32.6401 77.8840   2
   2  11  10 916.418 86.8279   2
   2  12 -11 4384.06 123.474   2
   2  12 -10 2698.43 120.700   2
   2  12  -9-23.2519 85.1508   2
   2  12  -8 970.580 111.842   2
   2  12  -7 3769.17 160.117   2
   2  12  -6 3958.35 168.974   2
   2  12  -5 36.6697 92.5691   2
   2  12  -4 2071.27 141.861   2
   2  12  -3 13890.1 281.887   2
   2  12  -2 74.8004 91.1718   2
   2  12  -1 1035.00 112.751   2
   2  12   0 2448.12 135.541   2
   2  12   1 2711.58 99.0376   2
   2  12   2 171.066 95.4254   2
   2  12   3 47.9041 65.3151   2
   2  12   4 5357.65 131.336   2
   2  12   5 1118.00 80.3879   2
   2  12   6 437.769 64.8566   2
   2  12   7 517.724 59.5427   2
   2  12   8 37.8426 76.3601   2
   2  12   9-60.4349 66.1178   2
   2  13 -11 81.4057 52.5289   2
   2  13 -10 180.001 68.7144   2
   2  13  -9 515.968 86.4995   2
   2  13  -8 33.2694 80.6069   2
   2  13  -7-7.40499 84.0324   2
   2  13  -6 36.7291 86.2527   2
   2  13  -5 23.3827 88.9426   2
   2  13  -4 113.767 87.0443   2
   2  13  -3 69.6866 86.8338   2
   2  13  -2 46.1767 85.4546   2
   2  13  -1 1.47850 78.3594   2
   2  13   0-30.8647 82.6626   2
   2  13   2 67.9056 90.9034   2
   2  13   3 38.9612 62.4241   2
   2  13   4 53.7738 61.4469   2
   2  13   5 101.446 57.5876   2
   2  13   6 139.478 53.5429   2
   2  13   7 117.816 45.9377   2
   2  14 -11 70.5300 45.0529   2
   2  14 -10 3363.18 105.365   2
   2  14  -9 4657.05 133.854   2
   2  14  -8 3824.31 135.662   2
   2  14  -7 1210.35 104.594   2
   2  14  -6 1126.56 106.410   2
   2  14  -5 8150.69 202.812   2
   2  14  -4 6580.60 186.316   2
   2  14  -3-11.7006 82.3782   2
   2  14  -2 280.217 86.7587   2
   2  14  -1 176.418 57.8821   2
   2  14   0 178.939 56.4882   2
   2  14   1 1107.07 108.927   2
   2  14   2-20.4969 84.5972   2
   2  14   3 399.947 88.0614   2
   2  14   4 3055.40 121.633   2
   2  14   5 606.304 77.6564   2
   2  14   6 38.9588 57.7654   2
   2  15 -10 118.454 46.2556   2
   2  15  -9 8.81364 51.1849   2
   2  15  -8 246.366 61.9676   2
   2  15  -7 23.6790 62.7040   2
   2  15  -6 34.8343 71.5872   2
   2  15  -5 22.8438 44.9699   2
   2  15  -4 93.6312 48.3800   2
   2  15  -3 17.4645 49.1754   2
   2  15  -2 19.0660 48.5933   2
   2  15  -1 22.8101 47.7043   2
   2  15   0 148.053 79.4378   2
   2  15   1 52.6322 74.8988   2
   2  15   2 54.7951 68.4796   2
   2  15   3-6.58086 65.3824   2
   2  15   4 0.59112 59.0918   2
   2  16  -8 1073.21 64.4842   2
   2  16  -7 1001.85 69.0929   2
   2  16  -6 45.1548 55.4244   2
   2  16  -5 771.068 71.2867   2
   2  16  -4 5855.96 84.3855   2
   2  16  -3 148.194 38.6868   2
   2  16  -2 420.633 42.2418   2
   2  16  -1 1033.35 74.7466   2
   2  16   0 1777.56 85.2645   2
   2  16   1 205.715 59.2025   2
   2  16   2 155.566 56.1564   2
   3 -10   2 471.099 158.286   2
   3 -10   3 8598.55 343.717   2
   3 -10   4 17726.6 477.726   2
   3 -10   5 2259.38 222.177   2
   3  -9   1-11.8671 111.316   2
   3  -9   2 450.904 133.337   2
   3  -9   3 895.841 153.330   2
   3  -9   4 63.5850 131.843   2
   3  -9   5 80.1257 126.779   2
   3  -9   6 586.203 149.108   2
   3  -9  11 40.1446 72.2969   2
   3  -8   0 17.9802 100.910   2
   3  -8   1 11832.1 340.583   2
   3  -8   2 4036.91 227.055   2
   3  -8   3 1247.63 165.658   2
   3  -8   4 6341.38 294.132   2
   3  -8   5 5989.11 291.121   2
   3  -8   6 4218.75 268.358   2
   3  -8   7 794.691 169.887   2
   3  -8   8 192.207 134.824   2
   3  -8   9 949.596 107.434   2
   3  -8  10 1408.57 117.678   2
   3  -8  11 589.109 100.186   2
   3  -7  -1 874.533 118.175   2
   3  -7   0-7.45709 89.4200   2
   3  -7   1 141.930 95.6471   2
   3  -7   2 0.20917 104.375   2
   3  -7   3 391.649 125.187   2
   3  -7   4 849.012 140.810   2
   3  -7   5 119.850 116.422   2
   3  -7   6 1780.27 191.394   2
   3  -7   7 145.133 128.614   2
   3  -7   8 237.648 80.1132   2
   3  -7   9 182.695 78.9156   2
   3  -7  10 519.053 102.826   2
   3  -7  11 19.2289 86.6135   2
   3  -7  12 749.862 103.235   2
   3  -6  -2 170.833 85.8517   2
   3  -6  -1 5756.69 215.688   2
   3  -6   0 88.6258 102.073   2
   3  -6   1 6423.22 246.602   2
   3  -6   2 13904.0 354.592   2
   3  -6   3 1093.78 144.236   2
   3  -6   4 2483.67 193.611   2
   3  -6   5 22707.7 497.393   2
   3  -6   6 36094.2 637.870   2
   3  -6   7 3282.83 231.308   2
   3  -6   8 31.6882 77.6299   2
   3  -6   9 8625.04 185.838   2
   3  -6  10 18065.7 306.253   2
   3  -6  11 7618.18 214.638   2
   3  -5  -3 153.416 74.0747   2
   3  -5  -2 293.720 88.7358   2
   3  -5  -1 92.3415 87.8546   2
   3  -5   0 124.848 96.5548   2
   3  -5   1 1600.97 147.338   2
   3  -5   2 1621.70 149.960   2
   3  -5   3-42.9268 110.329   2
   3  -5   4 385.879 109.125   2
   3  -5   5 208.406 110.846   2
   3  -5   6 374.023 118.987   2
   3  -5   7 455.274 131.431   2
   3  -5   8 50.3810 71.4808   2
   3  -5   9 145.548 80.4631   2
   3  -5  10 1147.23 124.458   2
   3  -5  11 18.3087 99.8024   2
   3  -4  -4 3383.38 149.528   2
   3  -4  -3 3699.89 157.433   2
   3  -4  -2 322.021 85.6844   2
   3  -4  -1 5891.51 206.815   2
   3  -4   0 28919.7 455.278   2
   3  -4   1 11966.2 308.352   2
   3  -4   2 302.984 115.382   2
   3  -4   3 5782.09 239.750   2
   3  -4   4 26521.1 483.200   2
   3  -4   5 29297.3 514.919   2
   3  -4   6 3517.29 207.712   2
   3  -4   7 3988.26 226.848   2
   3  -4   8 15576.2 227.652   2
   3  -4   9 15571.2 237.102   2
   3  -4  10 233.539 104.447   2
   3  -4  11 5640.42 198.744   2
   3  -3  -1 164.518 81.7233   2
   3  -3   0 123.949 80.6282   2
   3  -3   1 375.398 97.6838   2
   3  -3   2 531.712 110.326   2
   3  -3   3 649.565 118.579   2
   3  -3   4 1280.18 138.031   2
   3  -3   5 1511.53 148.328   2
   3  -3   6 15.5769 98.6273   2
   3  -3   7 392.053 106.622   2
   3  -3   8 120.014 65.1400   2
   3  -3   9 633.501 113.407   2
   3  -2   1 189.819 92.9812   2
   3  -2   2 3474.79 163.215   2
   3  -2   3 46196.4 559.119   2
   3  -2   4 16051.9 356.977   2
   3  -2   5 5761.20 131.341   2
   3  -2   6 46.6228 57.7478   2
   3  -2   7 7270.75 163.268   2
   3  -2   8 1090.89 89.4611   2
   3  -2   9 3967.95 204.662   2
   3  -2  10 6528.00 265.244   2
   3  -2  12 5229.49 159.090   2
   3  -2  13 766.928 91.9456   2
   3  -2  14 3302.72 126.678   2
   3  -2  15 27.1569 64.8338   2
   3  -1   3 392.869 43.9908   2
   3  -1   4 90.4202 45.4118   2
   3  -1   5 7.62770 45.9091   2
   3  -1   6 139.422 53.7391   2
   3  -1   7 1078.68 76.7161   2
   3  -1   8 577.829 97.8713   2
   3  -1   9 12.9902 111.194   2
   3  -1  10 24.6376 123.632   2
   3  -1  11 1494.24 109.129   2
   3  -1  12 231.644 85.8750   2
   3  -1  13 445.621 83.4256   2
   3  -1  14 55.6570 71.8382   2
   3  -1  15 107.678 64.0847   2
   3   1  -7 982.393 146.670   2
   3   1  -6 2638.82 177.692   2
   3   1  -5 6147.50 232.712   2
   3   1  -4 611.355 124.645   2
   3   1  -3 2106.94 151.738   2
   3   1  -2 1083.34 124.721   2
   3   1  -1 1444.74 54.5070   2
   3   1   0 2204.85 71.6136   2
   3   1   1 377.554 48.6890   2
   3   1   2 18.0135 46.6337   2
   3   1   3 525.680 59.7431   2
   3   1   4 74.8278 45.8578   2
   3   1   5 796.492 61.1082   2
   3   1   6 349.608 70.9957   2
   3   1   7-3.40889 70.8213   2
   3   1   8 0.70710 90.5695   2
   3   1   9 24.4069 62.1765   2
   3   1  10 513.637 90.8430   2
   3   1  11 3377.66 148.904   2
   3   1  12 66.2807 83.8900   2
   3   1  13 167.193 85.8137   2
   3   1  14 530.624 87.5424   2
   3   1  15 675.287 75.4684   2
   3   2  -8 3487.42 224.174   2
   3   2  -7 9261.05 315.818   2
   3   2  -6 40596.2 602.095   2
   3   2  -5 53277.6 658.304   2
   3   2  -4 12529.1 341.416   2
   3   2  -3 6088.60 242.280   2
   3   2  -2 125706. 949.184   2
   3   2  -1 89449.5 386.955   2
   3   2   0 23598.1 236.303   2
   3   2   1 5172.11 123.650   2
   3   2   4 3130.21 143.811   2
   3   2   5 17771.3 320.861   2
   3   3  -9 2062.97 219.090   2
   3   3  -8 29.4557 138.087   2
   3   3  -7 32.8270 128.228   2
   3   3  -6 951.463 158.861   2
   3   3  -5 2158.00 189.981   2
   3   3  -4 3563.10 229.721   2
   3   3  -3-23.8193 124.263   2
   3   3  -2 295.109 136.214   2
   3   3  -1 172.568 47.1317   2
   3   3   0 113.494 54.8879   2
   3   3   1 869.929 75.3331   2
   3   3   2 2503.48 107.845   2
   3   3   3 43.0590 63.6104   2
   3   3   4 78.5838 66.0790   2
   3   3   5 1174.63 99.6893   2
   3   3   6 146.066 76.7222   2
   3   3   7 468.475 63.8298   2
   3   3   8 88.7600 60.5845   2
   3   3   9 193.763 85.7971   2
   3   3  10 81.8244 81.6540   2
   3   3  11-2.32174 86.2493   2
   3   3  12 15.0542 83.3570   2
   3   3  13 572.252 95.9313   2
   3   3  14-12.5578 70.2088   2
   3   3  15 118.345 57.0376   2
   3   4 -10 22439.9 555.079   2
   3   4  -9-33.0984 169.335   2
   3   4  -8 3938.06 261.331   2
   3   4  -7 2662.50 220.368   2
   3   4  -6 448.760 148.528   2
   3   4  -5 2958.57 230.455   2
   3   4  -4 1413.34 188.661   2
   3   4  -3 29874.8 559.694   2
   3   4  -2 2303.81 201.443   2
   3   4  -1 15284.2 204.589   2
   3   4   0 14819.4 236.839   2
   3   4   1 6312.55 166.033   2
   3   4   2 690.835 81.2428   2
   3   4   3 23786.5 329.916   2
   3   4   4 2390.39 127.029   2
   3   4   5 2152.85 129.788   2
   3   4   6 659.055 66.5339   2
   3   4   7 7305.61 146.581   2
   3   4   8 3676.47 119.742   2
   3   4   9 5.67949 85.4734   2
   3   4  10 9970.58 237.704   2
   3   4  11 633.974 103.672   2
   3   4  12 102.845 85.0714   2
   3   4  13 1576.90 114.037   2
   3   4  14 1464.29 90.2610   2
   3   5  -9 431.000 195.205   2
   3   5  -8 78.8980 168.968   2
   3   5  -7-14.9028 153.806   2
   3   5  -6 1077.23 191.605   2
   3   5  -5 958.551 185.271   2
   3   5  -4 728.800 171.983   2
   3   5  -3 95.3339 154.138   2
   3   5  -2 2150.53 199.994   2
   3   5  -1 1935.03 96.8352   2
   3   5   0 59.5335 69.0327   2
   3   5   1 534.120 83.1252   2
   3   5   2 376.139 80.8209   2
   3   5   3 33.7241 78.3379   2
   3   5   4 34.1035 79.0330   2
   3   5   5 255.140 61.0663   2
   3   5   6 49.5663 61.3901   2
   3   5   7 37.9646 64.0607   2
   3   5   8 3238.33 155.968   2
   3   5   9 14.8847 92.5490   2
   3   5  10 458.128 98.5428   2
   3   5  11 684.767 106.345   2
   3   5  12 3946.72 158.989   2
   3   5  13 205.523 84.6713   2
   3   5  14-6.83407 56.9009   2
   3   6  -9 10732.9 432.138   2
   3   6  -8 1229.36 222.673   2
   3   6  -7 4965.42 149.637   2
   3   6  -6 11962.9 217.138   2
   3   6  -5 5219.71 316.047   2
   3   6  -4 3755.93 275.298   2
   3   6  -3 21358.7 534.039   2
   3   6  -2 20052.0 501.859   2
   3   6  -1 5393.47 153.067   2
   3   6   0 2665.27 138.042   2
   3   6   1 18618.2 320.257   2
   3   6   2 16069.8 309.643   2
   3   6   3 539.278 106.067   2
   3   6   4 2005.46 93.7242   2
   3   6   5 10282.1 177.738   2
   3   6   6 9871.78 180.722   2
   3   6   7 691.829 112.004   2
   3   6   8 7060.96 217.244   2
   3   6   9 13532.8 283.805   2
   3   6  10 180.547 93.5956   2
   3   6  11 1513.18 122.472   2
   3   6  12 5009.46 167.530   2
   3   6  13 2766.41 114.050   2
   3   7  -8 323.257 85.3051   2
   3   7  -7 830.784 97.6470   2
   3   7  -6 148.099 82.7001   2
   3   7  -5 2113.02 116.163   2
   3   7  -4 200.637 177.076   2
   3   7  -3 113.922 162.455   2
   3   7  -2 199.600 76.9815   2
   3   7  -1 135.569 84.0176   2
   3   7   0 1121.72 116.456   2
   3   7   1 2028.84 140.479   2
   3   7   2 151.097 59.7786   2
   3   7   3-12.1731 65.2839   2
   3   7   4 1082.52 84.7635   2
   3   7   5 4.35715 68.9878   2
   3   7   6 584.924 107.670   2
   3   7   7 791.158 121.293   2
   3   7   8 1104.04 123.925   2
   3   7   9 564.252 111.051   2
   3   7  10 56.4054 83.2113   2
   3   7  11 1138.29 107.026   2
   3   7  12 1033.43 94.1359   2
   3   7  13 113.245 58.6647   2
   3   8  -9 728.062 100.655   2
   3   8  -8 6024.47 187.285   2
   3   8  -7 190.986 81.2362   2
   3   8  -6 1236.79 110.323   2
   3   8  -5 5605.21 171.828   2
   3   8  -4 15477.5 258.218   2
   3   8  -3 165.664 82.1665   2
   3   8  -2 10947.8 173.610   2
   3   8  -1 49807.4 361.044   2
   3   8   0 21163.4 240.856   2
   3   8   1 201.403 69.8599   2
   3   8   2 20122.4 245.864   2
   3   8   3 30001.6 233.337   2
   3   8   4 27110.3 296.848   2
   3   8   5 2766.55 158.067   2
   3   8   6 8400.40 245.824   2
   3   8   7 20222.3 359.066   2
   3   8   8 14862.7 311.692   2
   3   8   9-2.84731 95.5258   2
   3   8  10 674.393 101.130   2
   3   8  11 1996.44 114.479   2
   3   8  12 1248.25 84.8080   2
   3   9  -9 770.594 111.055   2
   3   9  -8 29.3713 87.1626   2
   3   9  -7 1867.67 131.165   2
   3   9  -6-7.08736 93.7527   2
   3   9  -5 370.620 88.2694   2
   3   9  -4 5.69523 87.5661   2
   3   9  -3 2354.19 103.146   2
   3   9  -2 380.489 79.4234   2
   3   9  -1 1.83582 72.0281   2
   3   9   0 529.618 63.8176   2
   3   9   1 654.024 72.2335   2
   3   9   2-11.5111 65.1130   2
   3   9   3 36.6836 89.8666   2
   3   9   4 172.656 96.3298   2
   3   9   5 150.147 101.050   2
   3   9   6 82.1450 63.5956   2
   3   9   7 3191.35 166.421   2
   3   9   8 5.68760 92.1452   2
   3   9   9 68.2980 91.3500   2
   3   9  10 1732.09 110.368   2
   3   9  11 3442.62 116.806   2
   3  10 -10 13576.1 216.638   2
   3  10  -9 11197.9 223.605   2
   3  10  -8 0.60744 82.9474   2
   3  10  -7 7149.83 206.574   2
   3  10  -6 14642.0 287.263   2
   3  10  -5 10966.4 258.746   2
   3  10  -4 97.3618 99.3568   2
   3  10  -3 8845.28 240.323   2
   3  10  -2 29431.5 410.922   2
   3  10  -1 1334.12 123.964   2
   3  10   0 1535.92 90.3131   2
   3  10   1 8845.04 161.876   2
   3  10   2 5585.04 132.741   2
   3  10   3 2085.85 142.805   2
   3  10   4 777.173 115.059   2
   3  10   5 10485.6 259.199   2
   3  10   6 1280.09 80.7998   2
   3  10   7 48.0348 92.2969   2
   3  10   8 3217.29 149.572   2
   3  10   9 700.298 95.9277   2
   3  10  10-18.1172 65.3660   2
   3  11 -10 96.3461 66.9579   2
   3  11  -9 643.791 85.7518   2
   3  11  -8-9.84430 80.2562   2
   3  11  -7 461.239 95.5611   2
   3  11  -6 269.061 95.2436   2
   3  11  -5 140.821 88.9823   2
   3  11  -4 104.057 92.3755   2
   3  11  -3 126.762 90.8521   2
   3  11  -2 114.705 91.9753   2
   3  11  -1 226.247 92.3555   2
   3  11   0 788.846 108.432   2
   3  11   1 9.61284 62.7162   2
   3  11   2 46.7013 60.8483   2
   3  11   3 120.955 93.9161   2
   3  11   4-15.5478 88.1196   2
   3  11   5 604.794 69.4316   2
   3  11   6 976.101 69.9216   2
   3  11   7 615.803 96.5364   2
   3  11   8 206.968 77.0753   2
   3  11   9 5.38020 61.8763   2
   3  12 -10 2274.00 98.2754   2
   3  12  -9 4374.04 139.071   2
   3  12  -8 9644.66 208.127   2
   3  12  -7 11258.1 233.985   2
   3  12  -6 4097.45 164.736   2
   3  12  -5 260.414 92.5123   2
   3  12  -4 4794.29 180.566   2
   3  12  -3 6372.57 200.582   2
   3  12  -2 215.749 91.9862   2
   3  12  -1-0.10654 87.3353   2
   3  12   0 196.893 86.7648   2
   3  12   1 503.394 86.1124   2
   3  12   3 723.780 104.359   2
   3  12   4 190.528 62.3503   2
   3  12   5 6574.65 121.579   2
   3  12   6 7263.58 113.306   2
   3  12   7 2564.19 114.643   2
   3  13 -10 302.883 55.9216   2
   3  13  -9 26.7840 57.4169   2
   3  13  -8 812.297 86.7959   2
   3  13  -7 86.4447 72.0318   2
   3  13  -6 325.035 84.0238   2
   3  13  -5 154.998 80.6078   2
   3  13  -4 923.177 103.555   2
   3  13  -3 9.62172 82.1428   2
   3  13  -2 39.8369 75.7592   2
   3  13  -1 140.416 82.2119   2
   3  13   0 187.851 74.6466   2
   3  13   1-9.31222 70.6742   2
   3  13   3 0.07696 76.9979   2
   3  13   4 70.1330 82.0052   2
   3  13   5 27.8044 65.2871   2
   3  14  -9 52.9693 48.0525   2
   3  14  -8 1713.14 88.4676   2
   3  14  -7 4758.43 134.570   2
   3  14  -6 4263.39 135.566   2
   3  14  -5 201.400 74.2225   2
   3  14  -4 1669.93 107.788   2
   3  14  -3 13283.7 225.574   2
   3  14  -2 1265.24 96.2414   2
   3  14  -1 118.938 70.3221   2
   3  14   0 2012.70 73.5554   2
   3  14   1 2771.95 120.942   2
   3  14   2 1526.52 99.2107   2
   3  14   3 36.3420 67.4893   2
   3  14   4 4506.20 110.459   2
   3  15  -8 62.6340 42.0982   2
   3  15  -7 29.6277 49.6637   2
   3  15  -6 126.966 56.2262   2
   3  15  -5 141.065 37.1423   2
   3  15  -4 76.1684 38.5941   2
   3  15  -3 63.9438 39.2757   2
   3  15  -2 69.4776 40.3246   2
   3  15  -1 156.013 42.7277   2
   3  15   0 6.05573 61.5184   2
   3  15   1 36.0383 58.2391   2
   3  15   2 34.5883 52.5892   2
   4  -8   0 2519.53 204.193   2
   4  -8   1 3877.25 239.960   2
   4  -8   2 187.888 136.063   2
   4  -8   3 2959.47 228.857   2
   4  -8   4 12497.5 415.690   2
   4  -7  -1 125.391 123.578   2
   4  -7   0 89.6848 126.127   2
   4  -7   1 99.9530 122.624   2
   4  -7   2 2924.84 216.082   2
   4  -7   3 953.378 165.485   2
   4  -7   4 312.380 140.998   2
   4  -7   5 1362.85 189.667   2
   4  -7   6 2837.69 228.893   2
   4  -6  -2 20008.4 427.000   2
   4  -6  -1 377.986 125.825   2
   4  -6   0 7885.66 296.389   2
   4  -6   1 56508.9 764.091   2
   4  -6   2 50218.2 738.516   2
   4  -6   3 14845.4 424.787   2
   4  -6   4 15569.0 444.312   2
   4  -6   5 41777.5 720.853   2
   4  -6   6 31458.1 630.456   2
   4  -6   7 1967.08 210.321   2
   4  -5  -3 124.151 106.094   2
   4  -5  -2-41.6014 104.586   2
   4  -5  -1 199.762 114.953   2
   4  -5   0 80.3742 111.037   2
   4  -5   1 1409.25 158.395   2
   4  -5   2 3847.91 236.939   2
   4  -5   3 27.0031 117.667   2
   4  -5   4 1679.67 178.434   2
   4  -5   5 187.575 134.756   2
   4  -5   6 5691.31 290.249   2
   4  -5   7 1165.91 185.999   2
   4  -4  -3 3986.13 202.886   2
   4  -4  -2 514.284 112.094   2
   4  -4  -1 1657.02 156.244   2
   4  -4   0 14384.8 388.283   2
   4  -4   1 61.1223 114.622   2
   4  -4   2 9870.39 333.033   2
   4  -4   3 51309.1 734.209   2
   4  -4   4 2511.77 195.763   2
   4  -4   5 7111.03 303.348   2
   4  -4   6 25131.8 537.305   2
   4  -4   7 39015.1 674.542   2
   4  -4   8 3536.91 242.438   2
   4  -3  -4 795.729 118.776   2
   4  -3  -3 145.806 92.5526   2
   4  -3  -2 236.713 93.8383   2
   4  -3  -1 81.0034 94.1002   2
   4  -3   0 318.447 99.0975   2
   4  -3   1 1313.47 154.127   2
   4  -3   2 549.876 151.061   2
   4  -3   3 430.530 134.067   2
   4  -3   4 646.179 135.136   2
   4  -3   5 1667.93 178.020   2
   4  -3   6 107.103 119.938   2
   4  -3   7 1436.01 181.932   2
   4  -3   8 97.4477 161.728   2
   4  -2   0 13520.3 331.327   2
   4  -2   1 37959.5 557.302   2
   4  -2   2 31529.6 522.375   2
   4  -2   3 2597.24 193.187   2
   4  -2   4 29462.2 547.631   2
   4  -2   5 41348.1 643.543   2
   4  -2   6 5252.37 256.431   2
   4  -2   7 882.059 159.214   2
   4  -1   2-7.34441 94.5556   2
   4  -1   3 216.808 102.392   2
   4  -1   4-61.8528 110.824   2
   4  -1   5 937.110 139.096   2
   4  -1   6 9.54839 114.830   2
   4   1   3 317.340 99.2741   2
   4   1   4-44.7380 93.2199   2
   4   1   5 542.318 124.671   2
   4   2   4 17184.9 375.596   2
   4   3  -3 416.350 143.019   2
   4   4  -5 21916.3 509.532   2
   4   4  -4 8487.95 326.136   2
   4   4  -3 2182.19 198.928   2
   4   4   9 19776.3 296.639   2
   4   4  10 7940.59 192.245   2
   4   4  11 431.955 80.2169   2
   4   5  -6 832.902 229.155   2
   4   5  -5 1253.57 224.230   2
   4   5  -4 55.4994 178.463   2
   4   5  -3-2.40824 154.186   2
   4   5   1 1821.84 123.748   2
   4   5   2 1644.45 120.717   2
   4   5   3 405.701 110.177   2
   4   5   4 161.082 105.613   2
   4   5   7 31.5871 86.8252   2
   4   5   8-41.4321 84.1777   2
   4   5   9 1325.20 110.868   2
   4   5  10-26.3072 75.0681   2
   4   5  11-40.2367 69.1039   2
   4   6  -7 7938.75 206.119   2
   4   6  -6 3633.33 139.998   2
   4   6  -5 41470.4 750.493   2
   4   6  -4 66227.6 916.832   2
   4   6  -3 41927.1 731.104   2
   4   6   0 122523. 790.325   2
   4   6   1 45021.5 491.723   2
   4   6   2 2188.71 158.351   2
   4   6   3 17047.0 329.068   2
   4   6   4 29134.4 336.828   2
   4   6   5 40303.5 406.885   2
   4   6   6 4007.20 157.174   2
   4   6   7 7387.39 196.763   2
   4   6   8 5748.15 175.222   2
   4   6   9 2845.12 127.271   2
   4   6  10 12.9358 72.2038   2
   4   6  11 1925.49 94.7810   2
   4   7  -8 57.0408 77.0531   2
   4   7  -7 693.312 98.3395   2
   4   7  -6 23.5040 83.8043   2
   4   7  -5 429.204 102.661   2
   4   7  -4 16.0152 186.916   2
   4   7  -1 946.743 124.099   2
   4   7   0 311.650 105.405   2
   4   7   1 3600.29 109.629   2
   4   7   3 230.068 83.0198   2
   4   7   4 10.9219 83.6726   2
   4   7   5 1483.24 111.647   2
   4   7   6 499.292 94.9296   2
   4   7   7-45.3978 82.3827   2
   4   7   8 2862.66 130.869   2
   4   7   9 317.935 81.2201   2
   4   7  10 533.861 71.1593   2
   4   8  -8 14821.6 251.496   2
   4   8  -7 726.955 98.9635   2
   4   8  -6 8807.75 227.500   2
   4   8  -5 12416.8 272.232   2
   4   8  -4 8822.03 240.048   2
   4   8  -3 577.539 108.597   2
   4   8  -2 7100.75 219.969   2
   4   8   2 4873.02 162.744   2
   4   8   3 1436.41 80.8922   2
   4   8   4 3745.01 106.046   2
   4   8   5 5965.47 176.307   2
   4   8   6 12844.5 243.357   2
   4   8   7 166.009 85.1982   2
   4   8   8 5728.40 160.859   2
   4   8   9 11264.8 194.935   2
   4   8  10 2814.89 98.7478   2
   4   9  -9 3798.27 128.393   2
   4   9  -8 484.447 84.6243   2
   4   9  -7-6.18636 79.0045   2
   4   9  -6 172.971 96.6873   2
   4   9  -5 138.991 99.8771   2
   4   9  -4 75.0866 96.0969   2
   4   9  -3 1717.93 134.919   2
   4   9  -2 1654.84 137.807   2
   4   9  -1 25.1543 96.1598   2
   4   9   0 822.945 115.492   2
   4   9   1 955.156 114.417   2
   4   9   2 163.018 59.5588   2
   4   9   3 35.6940 54.9097   2
   4   9   4 68.0742 79.3909   2
   4   9   5 217.516 80.1472   2
   4   9   6 60.2410 78.1155   2
   4   9   7 249.022 78.1823   2
   4   9   8 456.508 76.2118   2
   4   9   9-46.5149 57.8325   2
   4  10  -9 174.968 62.0009   2
   4  10  -8 4488.44 142.232   2
   4  10  -7 2039.94 118.704   2
   4  10  -6-31.6995 86.7671   2
   4  10  -5 4291.71 167.770   2
   4  10  -4 8323.16 225.229   2
   4  10  -3 3072.90 154.635   2
   4  10  -2 210.891 96.3481   2
   4  10  -1 21917.3 347.866   2
   4  10   0 12664.1 265.962   2
   4  10   1 2221.24 134.704   2
   4  10   2 3283.20 145.293   2
   4  10   3 7185.72 178.788   2
   4  10   4 15861.4 257.468   2
   4  10   5 3656.26 92.7029   2
   4  10   6 2140.80 116.326   2
   4  10   7 5061.88 138.097   2
   4  11  -9 134.252 60.3391   2
   4  11  -8 215.501 69.2145   2
   4  11  -7 27.0465 66.7633   2
   4  11  -6-10.8385 78.7309   2
   4  11  -5 196.990 84.1157   2
   4  11  -4 131.305 82.7558   2
   4  11  -3 1796.23 126.048   2
   4  11  -2 227.003 89.2292   2
   4  11  -1 227.422 88.1674   2
   4  11   0 1053.71 104.646   2
   4  11   1 303.713 79.7538   2
   4  11   2 84.2512 72.1590   2
   4  11   5 184.646 66.4223   2
   4  12  -9 7354.95 126.686   2
   4  12  -8 216.944 59.5230   2
   4  12  -7 732.554 80.7115   2
   4  12  -6 1990.51 106.688   2
   4  12  -5 2941.21 127.313   2
   4  12  -4 64.0748 75.3491   2
   4  12  -3 1392.69 105.890   2
   4  12  -2 5792.17 170.889   2
   4  12  -1-4.06516 73.6534   2
   4  12   0 1609.47 103.939   2
   4  12   1 3123.20 119.019   2
   4  12   3 453.859 78.8574   2
   4  12   4 2139.97 94.7516   2
   4  13  -8 34.1360 43.1476   2
   4  13  -7 28.3865 52.8103   2
   4  13  -6 8.37180 54.5537   2
   4  13  -5 52.2532 62.4109   2
   4  13  -4 386.632 69.9633   2
   4  13  -3 398.536 71.7504   2
   4  13  -2 5.44107 66.7238   2
   4  13  -1 13.0834 63.2191   2
   4  13   0 102.989 58.1782   2
   4  13   2 6.21806 61.4272   2
   4  13   3 26.5066 52.3014   2
   4  14  -7 724.190 52.3094   2
   4  14  -6 133.603 49.3801   2
   4  14  -5 1718.77 77.9903   2
   4  14  -4 1949.32 84.2158   2
   4  14  -3 372.547 58.9794   2
   4  14  -2 3736.21 102.020   2
   4  14  -1 4074.74 73.2101   2
   4  14   0 762.137 67.9113   2
   4  14   1 1669.59 76.7070   2
   5  -4  -1 22993.2 512.885   2
   5  -4   0 260.458 142.184   2
   5  -4   1 11406.1 384.182   2
   5  -4   2 35567.1 647.361   2
   5  -3  -3-28.5756 139.134   2
   5  -3  -2 449.430 133.102   2
   5  -3  -1 110.637 121.336   2
   5  -3   0 83.6791 137.032   2
   5  -3   1 267.559 138.685   2
   5  -3   2 780.117 160.372   2
   5  -3   3 765.040 159.345   2
   5  -2  -3 425.050 128.076   2
   5  -2  -2 945.891 142.029   2
   5  -2  -1 7813.55 300.019   2
   5  -2   0 2596.33 193.817   2
   5  -2   1 231.843 127.697   2
   5  -2   2 465.468 158.729   2
   5  -2   3 75409.8 931.375   2
   5  -2   4 4268.21 256.652   2
   5  -1  -1 6.56001 116.214   2
   5  -1   0-7.03396 114.238   2
   5  -1   1 73.1237 119.812   2
   5  -1   2 237.909 122.325   2
   5  -1   3 113.598 134.224   2
   5  -1   4 108.101 131.890   2
   5   1   1 146.124 109.348   2
   5   1   2 120.917 118.992   2
   5   1   3-41.1532 109.981   2
   5   2   2 46852.4 666.161   2
   5   2   3 4044.12 234.897   2
   5   6  -7 1790.73 108.640   2
   5   6  -6 3306.97 140.582   2
   5   6  -5 2467.55 134.041   2
   5   7  -7 1441.53 94.5412   2
   5   7  -6 169.617 73.6234   2
   5   7  -5 11.9839 82.4495   2
   5   8  -8 7881.20 150.116   2
   5   8  -7 17399.6 242.049   2
   5   8  -6 2544.21 122.453   2
   5   8  -5 2752.52 133.856   2
   5   8  -4 14345.8 271.516   2
   5   8  -3 24383.3 356.588   2
   5   8  -2 12923.3 270.639   2
   5   8  -1 415.100 102.513   2
   5   8   0 23918.2 352.262   2
   5   8   1 13051.7 262.720   2
   5   8   2 7505.62 198.323   2
   5   8   3 310.266 87.2067   2
   5   8   4 938.873 90.0207   2
   5   9  -7 156.110 61.5735   2
   5   9  -6 76.6739 65.6935   2
   5   9  -5 34.9184 68.9884   2
   5   9  -4 16.9766 75.1726   2
   5   9  -3-15.5963 74.6113   2
   5   9  -2 434.946 91.9546   2
   5   9  -1 23.1731 84.0264   2
   5   9   0-27.3876 81.1362   2
   5   9   1 128.293 82.1447   2
   5   9   2 76.1255 70.4290   2
   5   9   3 85.7612 69.9652   2
   5  10  -8 1146.69 65.1355   2
   5  10  -7 38.3627 53.0861   2
   5  10  -6 99.9646 57.7336   2
   5  10  -5 197.012 71.3449   2
   5  10  -4 0.88744 67.2734   2
   5  10  -3 970.011 93.5803   2
   5  10  -2 2299.90 120.508   2
   5  10  -1 2605.06 123.181   2
   5  10   0 1812.50 106.665   2
   5  10   1 5028.01 145.191   2
   5  10   2 5400.62 139.259   2
   5  10   3 310.736 58.7549   2
   5  11  -8 288.932 42.9675   2
   5  11  -7 31.5524 43.3433   2
   5  11  -6 3.91329 51.0345   2
   5  11  -5-15.2152 56.7615   2
   5  11  -4-21.3753 57.7188   2
   5  11  -3 27.3900 60.8444   2
   5  11  -2 68.1073 60.3563   2
   5  11  -1 82.2931 60.5348   2
   5  11   0-36.9731 59.1321   2
   5  11   1-19.0567 54.5132   2
   5  11   2 126.502 50.9181   2
   5  11   3 20.1531 47.7671   2
   5  12  -6 239.769 46.0850   2
   5  12  -5 88.6701 45.3368   2
   5  12  -4 713.331 62.3238   2
   5  12  -3 724.811 65.6177   2
   5  12  -2 2.63672 51.1198   2
   5  12  -1 2025.09 82.4793   2
   5  12   0 520.972 55.8265   2
   6   4  -5 2917.10 149.359   2
   6   5  -6 263.748 58.2195   2
   6   5  -5 29.6842 61.1019   2
   6   6  -6 13358.8 182.538   2
   6   6  -5 3398.11 117.851   2
   6   6  -4 23.3722 64.1422   2
   6   6  -3 2862.82 124.997   2
   6   6   5 20.8169 52.1852   2
   6   7  -6 123.291 48.4925   2
   6   7  -5 55.4183 55.2395   2
   6   7  -4 66.9244 57.6913   2
   6   7  -3 1.37194 62.1536   2
   6   7  -2 113.290 67.8196   2
   6   7  -1 375.872 76.5738   2
   6   7   0 305.506 75.6369   2
   6   7   1 144.043 69.1789   2
   6   7   2 706.535 81.5991   2
   6   7   3 723.097 75.0017   2
   6   7   4 32.1242 49.1267   2
   6   8  -6 25.7559 41.4399   2
   6   8  -5 412.051 54.7947   2
   6   8  -4 654.546 66.8948   2
   6   8  -3 1918.49 95.4279   2
   6   8  -2 12.2167 61.2591   2
   6   8  -1 940.721 82.7151   2
   6   8   0 3570.03 119.226   2
   6   8   1 46.3843 58.4720   2
   6   8   2 550.983 64.7717   2
   6   8   3 1107.59 67.8956   2
   6   9  -6 3.40238 36.8562   2
   6   9  -5 44.9743 43.2993   2
   6   9  -4 16.7128 44.0300   2
   6   9  -3 26.1407 49.8717   2
   6   9  -2 142.222 53.9941   2
   6   9  -1 364.468 58.0279   2
   6   9   0 3.40764 48.6006   2
   6   9   1 361.006 53.3772   2
   6   9   2 495.619 53.1118   2
   6  10  -4 91.1222 39.0115   2
   6  10  -3 582.220 51.5691   2
   6  10  -2 1193.62 61.3119   2
   6  10  -1 59.6583 41.5185   2
   6  10   0 854.599 53.8893   2
   7   3  -4-26.3127 39.2955   2
   7   3  -3-10.4761 42.6259   2
   7   4  -4 1670.42 62.5406   2
   7   4  -3 62.8644 43.4627   2
   7   4  -2 380.966 55.5865   2
   7   4   4 205.284 43.9137   2
   7   5  -3 65.7952 38.6155   2
   7   5  -2-23.7358 43.7193   2
   7   5  -1 324.968 51.9836   2
   7   5   0 436.074 55.9345   2
   7   5   1 181.965 49.1307   2
   7   5   2 221.361 45.9283   2
   7   5   3 393.090 45.7163   2
   7   6  -3 967.243 48.4909   2
   7   6  -2 3696.27 85.0054   2
   7   6  -1 143.368 40.6014   2
   7   6   0 621.623 50.7627   2
   7   6   1 915.156 54.8550   2
   0   0   0 0.00000 0.00000   0
TITL 12345_twin1_hklf4 in P1
REM P1 (#1 in standard setting)
CELL 1.54184   6.195905  14.386104  14.613208 101.1916  90.0321  93.0560
ZERR    1.00   0.000342   0.000611   0.000636   0.0036   0.0040   0.0041
LATT -1
SFAC C H N O S
UNIT 1.00 1.00 1.00 1.00 1.00
REM  CrysAlisPro recorded range (K): Min=149.9; max=150.1; aver:150.0
TEMP -123
TREF
HKLF 5

BASF 0.61918
END
;
_shelx_hkl_checksum              59218
_olex2_submission_special_instructions 'No special instructions were received'
loop_
_space_group_symop_operation_xyz
'x, y, z'
'-x, -y, -z'
loop_
_atom_site_label
_atom_site_type_symbol
_atom_site_fract_x
_atom_site_fract_y
_atom_site_fract_z
_atom_site_U_iso_or_equiv
_atom_site_adp_type
_atom_site_occupancy
_atom_site_site_symmetry_order
_atom_site_calc_flag
_atom_site_refinement_flags_posn
_atom_site_refinement_flags_adp
_atom_site_refinement_flags_occupancy
_atom_site_disorder_assembly
_atom_site_disorder_group
S1 S 0.66055(11) 1.28104(10) 0.13979(5) 0.0204(4) Uani 1 1 d . . . . .
O1 O 0.8951(4) 1.2954(3) 0.13072(17) 0.0246(6) Uani 1 1 d . . . . .
O2 O 0.5747(4) 1.0852(3) 0.11618(18) 0.0265(6) Uani 1 1 d . . . . .
O3 O 0.5515(4) 1.4058(4) 0.08947(18) 0.0291(7) Uani 1 1 d . . . . .
O4 O 0.184(4) 0.913(5) 0.3569(15) 0.204(8) Uani 0.5 1 d D U P A -1
O5 O 0.485(3) 1.0650(18) 0.5984(11) 0.123(4) Uani 0.5 1 d D U P A -1
C3 C -0.063(3) 0.984(2) 0.4562(10) 0.125(4) Uani 0.5 1 d DG U P A -1
H3 H -0.136688 0.953125 0.397643 0.150 Uiso 0.5 1 calc R U P A -1
C4 C -0.1806(19) 1.028(3) 0.5380(14) 0.189(8) Uani 0.5 1 d DG U P A -1
C5 C -0.073(3) 1.073(3) 0.6236(11) 0.139(5) Uani 0.5 1 d G U P A -1
H5 H -0.153514 1.102681 0.679513 0.167 Uiso 0.5 1 calc R U P A -1
C6 C 0.151(3) 1.075(3) 0.6275(10) 0.177(7) Uani 0.5 1 d DG U P A -1
H6 H 0.224079 1.106321 0.686095 0.213 Uiso 0.5 1 calc R U P A -1
C1 C 0.268(2) 1.032(3) 0.5458(13) 0.133(5) Uani 0.5 1 d DG U P A -1
C2 C 0.161(3) 0.986(2) 0.4601(10) 0.169(7) Uani 0.5 1 d DG U P A -1
C7 C -0.417(5) 0.965(6) 0.518(3) 0.200(10) Uani 0.5 1 d D U P A -1
H7 H -0.444646 0.906868 0.570441 0.240 Uiso 0.5 1 calc R U P A -1
C8 C -0.615(6) 0.935(6) 0.478(3) 0.204(12) Uani 0.5 1 d D U P A -1
H8 H -0.734281 0.940325 0.519042 0.245 Uiso 0.5 1 calc R U P A -1
C9 C -0.669(5) 0.893(5) 0.376(2) 0.171(11) Uani 0.5 1 d D U P A -1
H9A H -0.820180 0.846549 0.366673 0.257 Uiso 0.5 1 calc R U P A -1
H9B H -0.575024 0.796753 0.343583 0.257 Uiso 0.5 1 calc R U P A -1
H9C H -0.646293 1.009701 0.350942 0.257 Uiso 0.5 1 calc R U P A -1
C10 C 0.577(2) 1.128(3) 0.6924(12) 0.091(4) Uani 0.5 1 d D U P A -1
H10A H 0.462011 1.172504 0.735869 0.137 Uiso 0.5 1 calc R U P A -1
H10B H 0.685747 1.232406 0.692083 0.137 Uiso 0.5 1 calc R U P A -1
H10C H 0.645272 1.022416 0.712091 0.137 Uiso 0.5 1 calc R U P A -1
C11 C -0.019(5) 0.880(4) 0.2990(16) 0.157(9) Uani 0.5 1 d D U P A -1
H11A H -0.086101 1.000865 0.301204 0.235 Uiso 0.5 1 calc R U P A -1
H11B H -0.119268 0.792168 0.323616 0.235 Uiso 0.5 1 calc R U P A -1
H11C H 0.016150 0.825072 0.234361 0.235 Uiso 0.5 1 calc R U P A -1
C12 C 1.0373(6) 1.7766(5) 0.0939(3) 0.0253(8) Uani 1 1 d . . . . .
C1A C 0.6074(5) 1.3586(5) 0.2597(2) 0.0256(8) Uani 1 1 d D . . . .
C2A C 0.4064(14) 1.423(2) 0.2830(6) 0.034(3) Uani 0.48(2) 1 d D . P B 1
H2A H 0.299779 1.429614 0.237161 0.041 Uiso 0.48(2) 1 calc R U P B 1
C2B C 0.4007(13) 1.326(3) 0.2966(6) 0.039(3) Uani 0.52(2) 1 d D . P B 2
H2B H 0.288917 1.262131 0.255967 0.047 Uiso 0.52(2) 1 calc R U P B 2
C3A C 0.3683(16) 1.479(2) 0.3783(6) 0.035(3) Uani 0.48(2) 1 d D . P B 1
H3A H 0.230720 1.524058 0.396756 0.042 Uiso 0.48(2) 1 calc R U P B 1
C3B C 0.3571(14) 1.385(3) 0.3907(7) 0.042(3) Uani 0.52(2) 1 d D . P B 2
H3B H 0.216279 1.366169 0.414110 0.051 Uiso 0.52(2) 1 calc R U P B 2
C4A C 0.5221(6) 1.4711(6) 0.4492(3) 0.0337(9) Uani 1 1 d D . . . .
C5A C 0.7229(16) 1.406(3) 0.4149(7) 0.048(4) Uani 0.48(2) 1 d D . P B 1
H5A H 0.834571 1.399611 0.458576 0.057 Uiso 0.48(2) 1 calc R U P B 1
C5B C 0.7232(15) 1.507(2) 0.4193(7) 0.039(3) Uani 0.52(2) 1 d D . P B 2
H5B H 0.832872 1.569481 0.461458 0.046 Uiso 0.52(2) 1 calc R U P B 2
C6A C 0.7662(17) 1.350(3) 0.3199(6) 0.045(4) Uani 0.48(2) 1 d D . P B 1
H6A H 0.903590 1.307274 0.299130 0.054 Uiso 0.48(2) 1 calc R U P B 1
C6B C 0.7654(15) 1.449(2) 0.3239(6) 0.034(2) Uani 0.52(2) 1 d D . P B 2
H6B H 0.906923 1.471620 0.302076 0.041 Uiso 0.52(2) 1 calc R U P B 2
N1 N 1.1525(5) 1.6257(4) 0.0941(2) 0.0320(8) Uani 1 1 d . . . . .
H1A H 1.086649 1.514511 0.094706 0.038 Uiso 1 1 calc R U . . .
H1B H 1.294623 1.637159 0.093632 0.038 Uiso 1 1 calc R U . . .
N2 N 0.8243(5) 1.7576(4) 0.0946(3) 0.0346(8) Uani 1 1 d . . . . .
H2C H 0.746991 1.856947 0.095138 0.042 Uiso 1 1 calc R U . . .
H2D H 0.759635 1.645646 0.094460 0.042 Uiso 1 1 calc R U . . .
N3 N 1.1332(5) 1.9459(4) 0.0940(2) 0.0285(7) Uani 1 1 d . . . . .
H3C H 1.054836 2.044669 0.094608 0.034 Uiso 1 1 calc R U . . .
H3D H 1.275133 1.959599 0.093571 0.034 Uiso 1 1 calc R U . . .
loop_
_atom_site_aniso_label
_atom_site_aniso_U_11
_atom_site_aniso_U_22
_atom_site_aniso_U_33
_atom_site_aniso_U_23
_atom_site_aniso_U_13
_atom_site_aniso_U_12
S1 0.0183(6) 0.0211(6) 0.0211(6) 0.0023(3) -0.0011(4) 0.0019(3)
O1 0.0175(11) 0.0267(12) 0.0286(13) 0.0029(10) 0.0013(9) 0.0015(9)
O2 0.0241(12) 0.0233(13) 0.0296(13) -0.0003(10) -0.0022(10) -0.0004(9)
O3 0.0255(12) 0.0342(14) 0.0301(14) 0.0115(11) -0.0011(10) 0.0059(10)
O4 0.220(12) 0.218(17) 0.162(7) 0.009(10) -0.028(7) 0.012(12)
O5 0.155(7) 0.075(7) 0.145(8) 0.038(6) -0.043(6) -0.007(6)
C3 0.164(7) 0.071(9) 0.151(8) 0.053(8) -0.051(6) -0.003(8)
C4 0.194(8) 0.193(18) 0.179(9) 0.039(11) -0.021(6) 0.008(10)
C5 0.170(7) 0.101(11) 0.160(8) 0.058(9) 0.000(7) 0.009(9)
C6 0.173(7) 0.190(17) 0.168(8) 0.030(11) 0.003(7) 0.016(10)
C1 0.143(7) 0.115(12) 0.141(7) 0.025(9) -0.029(5) 0.006(9)
C2 0.167(7) 0.169(16) 0.160(7) 0.008(10) -0.048(6) 0.010(9)
C7 0.192(8) 0.22(2) 0.191(14) 0.055(14) -0.016(8) -0.002(11)
C8 0.192(11) 0.21(2) 0.201(14) 0.022(13) -0.017(11) 0.015(13)
C9 0.105(14) 0.21(2) 0.193(15) 0.017(17) 0.008(11) 0.048(17)
C10 0.061(7) 0.120(12) 0.105(8) 0.052(8) 0.016(5) 0.010(7)
C11 0.213(17) 0.132(18) 0.121(12) 0.020(13) -0.015(12) 0.000(15)
C12 0.0227(16) 0.0236(16) 0.0297(18) 0.0047(13) 0.0015(14) 0.0047(12)
C1A 0.0208(15) 0.0331(18) 0.0210(16) 0.0004(13) -0.0013(12) 0.0024(12)
C2A 0.023(3) 0.057(7) 0.023(3) 0.007(4) -0.002(2) 0.011(3)
C2B 0.021(3) 0.070(8) 0.023(3) -0.001(4) -0.003(2) -0.005(3)
C3A 0.021(3) 0.062(7) 0.024(3) 0.010(4) 0.001(2) 0.009(4)
C3B 0.022(3) 0.076(9) 0.023(3) -0.001(4) 0.002(2) -0.010(4)
C4A 0.0229(17) 0.053(2) 0.0218(18) -0.0002(15) -0.0027(13) 0.0022(15)
C5A 0.020(3) 0.094(12) 0.021(3) -0.011(5) -0.010(3) 0.012(5)
C5B 0.025(3) 0.065(7) 0.021(3) -0.002(4) -0.005(2) -0.009(4)
C6A 0.026(3) 0.083(11) 0.022(3) -0.004(4) -0.003(2) 0.021(5)
C6B 0.022(3) 0.057(6) 0.021(3) 0.004(3) -0.002(2) -0.004(3)
N1 0.0232(14) 0.0245(15) 0.049(2) 0.0092(13) 0.0018(14) 0.0039(11)
N2 0.0230(15) 0.0205(15) 0.061(2) 0.0080(14) 0.0015(14) 0.0032(11)
N3 0.0205(14) 0.0236(15) 0.0414(18) 0.0063(13) -0.0018(13) 0.0010(11)
loop_
_atom_type_symbol
_atom_type_description
_atom_type_scat_dispersion_real
_atom_type_scat_dispersion_imag
_atom_type_scat_source
C C 0.0181 0.0091 'International Tables Vol C Tables 4.2.6.8 and 6.1.1.4'
H H 0.0000 0.0000 'International Tables Vol C Tables 4.2.6.8 and 6.1.1.4'
N N 0.0311 0.0180 'International Tables Vol C Tables 4.2.6.8 and 6.1.1.4'
O O 0.0492 0.0322 'International Tables Vol C Tables 4.2.6.8 and 6.1.1.4'
S S 0.3331 0.5567 'International Tables Vol C Tables 4.2.6.8 and 6.1.1.4'
loop_
_geom_angle_atom_site_label_1
_geom_angle_atom_site_label_2
_geom_angle_atom_site_label_3
_geom_angle
_geom_angle_site_symmetry_1
_geom_angle_site_symmetry_3
_geom_angle_publ_flag
O1 S1 C1A 106.11(15) . . ?
O2 S1 O1 111.83(14) . . ?
O2 S1 O3 112.69(15) . . ?
O2 S1 C1A 105.94(16) . . ?
O3 S1 O1 112.66(15) . . ?
O3 S1 C1A 107.02(16) . . ?
C11 O4 C2 117.3(18) . . ?
C10 O5 C1 141.4(15) . . ?
C4 C3 H3 120.0 . . ?
C4 C3 C2 120.0 . . ?
C2 C3 H3 120.0 . . ?
C3 C4 C5 120.0 . . ?
C3 C4 C7 110(2) . . ?
C5 C4 C7 128(2) . . ?
C4 C5 H5 120.0 . . ?
C6 C5 C4 120.0 . . ?
C6 C5 H5 120.0 . . ?
C5 C6 H6 120.0 . . ?
C5 C6 C1 120.0 . . ?
C1 C6 H6 120.0 . . ?
C6 C1 O5 92.7(12) . . ?
C2 C1 O5 147.3(12) . . ?
C2 C1 C6 120.0 . . ?
C3 C2 O4 94.2(13) . . ?
C1 C2 O4 145.5(13) . . ?
C1 C2 C3 120.0 . . ?
C4 C7 H7 98.8 . . ?
C8 C7 C4 162(4) . . ?
C8 C7 H7 98.8 . . ?
C7 C8 H8 116.2 . . ?
C7 C8 C9 128(3) . . ?
C9 C8 H8 116.2 . . ?
C8 C9 H9A 109.5 . . ?
C8 C9 H9B 109.5 . . ?
C8 C9 H9C 109.5 . . ?
H9A C9 H9B 109.5 . . ?
H9A C9 H9C 109.5 . . ?
H9B C9 H9C 109.5 . . ?
O5 C10 H10A 109.5 . . ?
O5 C10 H10B 109.5 . . ?
O5 C10 H10C 109.5 . . ?
H10A C10 H10B 109.5 . . ?
H10A C10 H10C 109.5 . . ?
H10B C10 H10C 109.5 . . ?
O4 C11 H11A 109.5 . . ?
O4 C11 H11B 109.5 . . ?
O4 C11 H11C 109.5 . . ?
H11A C11 H11B 109.5 . . ?
H11A C11 H11C 109.5 . . ?
H11B C11 H11C 109.5 . . ?
N2 C12 N1 119.4(3) . . ?
N2 C12 N3 119.5(3) . . ?
N3 C12 N1 121.0(3) . . ?
C2A C1A S1 117.4(4) . . ?
C2B C1A S1 121.0(4) . . ?
C6A C1A S1 117.2(5) . . ?
C6A C1A C2A 125.4(7) . . ?
C6B C1A S1 122.9(5) . . ?
C6B C1A C2B 116.1(6) . . ?
C1A C2A H2A 122.1 . . ?
C1A C2A C3A 115.8(7) . . ?
C3A C2A H2A 122.1 . . ?
C1A C2B H2B 119.2 . . ?
C3B C2B C1A 121.6(7) . . ?
C3B C2B H2B 119.2 . . ?
C2A C3A H3A 117.9 . . ?
C2A C3A C4A 124.1(7) . . ?
C4A C3A H3A 117.9 . . ?
C2B C3B H3B 120.7 . . ?
C4A C3B C2B 118.6(7) . . ?
C4A C3B H3B 120.7 . . ?
C3A C4A C4A 123.4(5) . 2_686 ?
C3B C4A C4A 118.7(5) . 2_686 ?
C5A C4A C3A 113.7(6) . . ?
C5A C4A C4A 122.8(6) . 2_686 ?
C5B C4A C3B 123.2(7) . . ?
C5B C4A C4A 118.1(6) . 2_686 ?
C4A C5A H5A 118.3 . . ?
C6A C5A C4A 123.5(8) . . ?
C6A C5A H5A 118.3 . . ?
C4A C5B H5B 121.1 . . ?
C4A C5B C6B 117.9(8) . . ?
C6B C5B H5B 121.1 . . ?
C1A C6A C5A 117.4(8) . . ?
C1A C6A H6A 121.3 . . ?
C5A C6A H6A 121.3 . . ?
C1A C6B C5B 122.6(8) . . ?
C1A C6B H6B 118.7 . . ?
C5B C6B H6B 118.7 . . ?
C12 N1 H1A 120.0 . . ?
C12 N1 H1B 120.0 . . ?
H1A N1 H1B 120.0 . . ?
C12 N2 H2C 120.0 . . ?
C12 N2 H2D 120.0 . . ?
H2C N2 H2D 120.0 . . ?
C12 N3 H3C 120.0 . . ?
C12 N3 H3D 120.0 . . ?
H3C N3 H3D 120.0 . . ?
loop_
_geom_bond_atom_site_label_1
_geom_bond_atom_site_label_2
_geom_bond_distance
_geom_bond_site_symmetry_2
_geom_bond_publ_flag
S1 O1 1.459(2) . ?
S1 O2 1.455(2) . ?
S1 O3 1.457(2) . ?
S1 C1A 1.770(3) . ?
O4 C2 1.51(2) . ?
O4 C11 1.49(2) . ?
O5 C1 1.535(17) . ?
O5 C10 1.465(19) . ?
C3 H3 0.9500 . ?
C3 C4 1.3900 . ?
C3 C2 1.3900 . ?
C4 C5 1.3900 . ?
C4 C7 1.52(3) . ?
C5 H5 0.9500 . ?
C5 C6 1.3900 . ?
C6 H6 0.9500 . ?
C6 C1 1.3900 . ?
C1 C2 1.3900 . ?
C7 H7 0.9500 . ?
C7 C8 1.35(2) . ?
C8 H8 0.9500 . ?
C8 C9 1.49(3) . ?
C9 H9A 0.9800 . ?
C9 H9B 0.9800 . ?
C9 H9C 0.9800 . ?
C10 H10A 0.9800 . ?
C10 H10B 0.9800 . ?
C10 H10C 0.9800 . ?
C11 H11A 0.9800 . ?
C11 H11B 0.9800 . ?
C11 H11C 0.9800 . ?
C12 N1 1.331(5) . ?
C12 N2 1.319(4) . ?
C12 N3 1.326(5) . ?
C1A C2A 1.372(8) . ?
C1A C2B 1.416(8) . ?
C1A C6A 1.331(10) . ?
C1A C6B 1.397(9) . ?
C2A H2A 0.9500 . ?
C2A C3A 1.395(11) . ?
C2B H2B 0.9500 . ?
C2B C3B 1.390(11) . ?
C3A H3A 0.9500 . ?
C3A C4A 1.418(9) . ?
C3B H3B 0.9500 . ?
C3B C4A 1.373(9) . ?
C4A C4A 1.491(7) 2_686 ?
C4A C5A 1.411(10) . ?
C4A C5B 1.349(9) . ?
C5A H5A 0.9500 . ?
C5A C6A 1.398(12) . ?
C5B H5B 0.9500 . ?
C5B C6B 1.405(11) . ?
C6A H6A 0.9500 . ?
C6B H6B 0.9500 . ?
N1 H1A 0.8800 . ?
N1 H1B 0.8800 . ?
N2 H2C 0.8800 . ?
N2 H2D 0.8800 . ?
N3 H3C 0.8800 . ?
N3 H3D 0.8800 . ?
loop_
_geom_torsion_atom_site_label_1
_geom_torsion_atom_site_label_2
_geom_torsion_atom_site_label_3
_geom_torsion_atom_site_label_4
_geom_torsion
_geom_torsion_site_symmetry_1
_geom_torsion_site_symmetry_2
_geom_torsion_site_symmetry_3
_geom_torsion_site_symmetry_4
_geom_torsion_publ_flag
S1 C1A C2A C3A 178.4(7) . . . . ?
S1 C1A C2B C3B 179.6(8) . . . . ?
S1 C1A C6A C5A -178.2(9) . . . . ?
S1 C1A C6B C5B -178.8(7) . . . . ?
O1 S1 C1A C2A 157.3(9) . . . . ?
O1 S1 C1A C2B -166.5(10) . . . . ?
O1 S1 C1A C6A -22.6(12) . . . . ?
O1 S1 C1A C6B 11.3(8) . . . . ?
O2 S1 C1A C2A -83.7(9) . . . . ?
O2 S1 C1A C2B -47.5(10) . . . . ?
O2 S1 C1A C6A 96.5(12) . . . . ?
O2 S1 C1A C6B 130.3(8) . . . . ?
O3 S1 C1A C2A 36.8(9) . . . . ?
O3 S1 C1A C2B 73.0(10) . . . . ?
O3 S1 C1A C6A -143.1(12) . . . . ?
O3 S1 C1A C6B -109.2(8) . . . . ?
O5 C1 C2 O4 12(4) . . . . ?
O5 C1 C2 C3 -177(2) . . . . ?
C3 C4 C5 C6 0.0 . . . . ?
C3 C4 C7 C8 -45(13) . . . . ?
C4 C3 C2 O4 175(2) . . . . ?
C4 C3 C2 C1 0.0 . . . . ?
C4 C5 C6 C1 0.0 . . . . ?
C4 C7 C8 C9 35(15) . . . . ?
C5 C4 C7 C8 152(11) . . . . ?
C5 C6 C1 O5 178.6(13) . . . . ?
C5 C6 C1 C2 0.0 . . . . ?
C6 C1 C2 O4 -171(3) . . . . ?
C6 C1 C2 C3 0.0 . . . . ?
C2 C3 C4 C5 0.0 . . . . ?
C2 C3 C4 C7 -165(2) . . . . ?
C7 C4 C5 C6 162(3) . . . . ?
C10 O5 C1 C6 -4(2) . . . . ?
C10 O5 C1 C2 173.6(16) . . . . ?
C11 O4 C2 C3 2(3) . . . . ?
C11 O4 C2 C1 174.5(17) . . . . ?
C1A C2A C3A C4A -0.1(15) . . . . ?
C1A C2B C3B C4A -2.3(16) . . . . ?
C2A C1A C6A C5A 2.0(17) . . . . ?
C2A C3A C4A C4A -179.3(9) . . . 2_686 ?
C2A C3A C4A C5A 1.4(15) . . . . ?
C2B C1A C6B C5B -0.9(13) . . . . ?
C2B C3B C4A C4A -178.0(8) . . . 2_686 ?
C2B C3B C4A C5B 2.2(15) . . . . ?
C3A C4A C5A C6A -1.2(17) . . . . ?
C3B C4A C5B C6B -1.5(14) . . . . ?
C4A C4A C5A C6A 179.5(10) 2_686 . . . ?
C4A C4A C5B C6B 178.7(8) 2_686 . . . ?
C4A C5A C6A C1A -0.4(19) . . . . ?
C4A C5B C6B C1A 0.8(15) . . . . ?
C6A C1A C2A C3A -1.7(15) . . . . ?
C6B C1A C2B C3B 1.6(13) . . . . ?
loop_
_twin_individual_id
_twin_individual_mass_fraction_refined
1 0.403(3)
2 0.597(3)
