#------------------------------------------------------------------------------
#$Date: 2022-02-22 01:35:25 +0200 (Tue, 22 Feb 2022) $
#$Revision: 273073 $
#$URL: file:///home/coder/svn-repositories/cod/cif/7/24/44/7244458.cif $
#------------------------------------------------------------------------------
#
# This file is available in the Crystallography Open Database (COD),
# http://www.crystallography.net/
#
# All data on this site have been placed in the public domain by the
# contributors.
#
data_7244458
loop_
_publ_author_name
'Senchyk, Ganna A.'
'Lysenko, Andrey B.'
'Krautscheid, Harald'
'Rusanov, Eduard B.'
'Karbowiak, Miroslaw'
'Domasevitch, Kostiantyn V.'
_publ_section_title
;
 1,2,4-Triazolyl-4-acetate: a ditopic ligand combining soft and hard donor
 sites in homometallic (AgI) and heterometallic (AgI/UVI) coordination
 polymers
;
_journal_name_full               CrystEngComm
_journal_paper_doi               10.1039/D1CE01549D
_journal_year                    2022
_chemical_formula_moiety         'C16 H16 Ag4 N12 O8, 2(H2 O)'
_chemical_formula_sum            'C16 H20 Ag4 N12 O10'
_chemical_formula_weight         971.92
_chemical_name_systematic
'poly[[tetrakis[2-(1,2,4-triazol-4-yl)acetato)]tetrasilver(I)] dihydrate]]'
_space_group_crystal_system      triclinic
_space_group_IT_number           2
_space_group_name_Hall           '-P 1'
_space_group_name_H-M_alt        'P -1'
_atom_sites_solution_hydrogens   mixed
_atom_sites_solution_primary     direct
_atom_sites_solution_secondary   difmap
_audit_creation_method           SHELXL-2014/7
_audit_update_record
;
2021-07-20 deposited with the CCDC.	2022-01-27 downloaded from the CCDC.
;
_cell_angle_alpha                78.290(2)
_cell_angle_beta                 81.497(3)
_cell_angle_gamma                71.575(2)
_cell_formula_units_Z            1
_cell_length_a                   7.2514(2)
_cell_length_b                   7.4533(3)
_cell_length_c                   12.9171(4)
_cell_measurement_reflns_used    11151
_cell_measurement_temperature    296(2)
_cell_measurement_theta_max      28.326
_cell_measurement_theta_min      2.921
_cell_volume                     645.92(4)
_computing_cell_refinement       'SAINT (Bruker, 2008)'
_computing_data_collection       'APEX2 (Bruker, 2008)'
_computing_data_reduction        'SAINT (Bruker, 2008)'
_computing_molecular_graphics    'Diamond 2.1e (Brandenburg, 1999)'
_computing_publication_material  'WinGX 1.70.01 (Farrugia, 1999)'
_computing_structure_refinement  'SHELXL-2014/7 (Sheldrick, 2014)'
_computing_structure_solution    'SHELXS-97 (Sheldrick, 2008)'
_diffrn_ambient_temperature      296(2)
_diffrn_measured_fraction_theta_full 1.000
_diffrn_measured_fraction_theta_max 0.997
_diffrn_measurement_device_type  'Bruker APEX2 area-detector diffractometer'
_diffrn_measurement_method       '\w scans'
_diffrn_radiation_type           MoK\a
_diffrn_radiation_wavelength     0.71073
_diffrn_reflns_av_R_equivalents  0.0369
_diffrn_reflns_av_unetI/netI     0.0335
_diffrn_reflns_Laue_measured_fraction_full 1.000
_diffrn_reflns_Laue_measured_fraction_max 0.997
_diffrn_reflns_limit_h_max       9
_diffrn_reflns_limit_h_min       -9
_diffrn_reflns_limit_k_max       9
_diffrn_reflns_limit_k_min       -9
_diffrn_reflns_limit_l_max       17
_diffrn_reflns_limit_l_min       -17
_diffrn_reflns_number            11151
_diffrn_reflns_point_group_measured_fraction_full 1.000
_diffrn_reflns_point_group_measured_fraction_max 0.997
_diffrn_reflns_theta_full        25.242
_diffrn_reflns_theta_max         28.326
_diffrn_reflns_theta_min         2.921
_diffrn_source                   'fine-focus sealed tube'
_exptl_absorpt_coefficient_mu    3.065
_exptl_absorpt_correction_T_max  0.7210
_exptl_absorpt_correction_T_min  0.6512
_exptl_absorpt_correction_type   empirical
_exptl_absorpt_process_details   'SADABS (Bruker, 2008)'
_exptl_crystal_colour            colorless
_exptl_crystal_density_diffrn    2.499
_exptl_crystal_description       prism
_exptl_crystal_F_000             468
_exptl_crystal_size_max          0.220
_exptl_crystal_size_mid          0.210
_exptl_crystal_size_min          0.190
_refine_diff_density_max         0.450
_refine_diff_density_min         -0.534
_refine_diff_density_rms         0.090
_refine_ls_extinction_method     none
_refine_ls_goodness_of_fit_ref   1.040
_refine_ls_hydrogen_treatment    constr
_refine_ls_matrix_type           full
_refine_ls_number_parameters     190
_refine_ls_number_reflns         3202
_refine_ls_number_restraints     0
_refine_ls_restrained_S_all      1.040
_refine_ls_R_factor_all          0.0300
_refine_ls_R_factor_gt           0.0232
_refine_ls_shift/su_max          0.001
_refine_ls_shift/su_mean         0.000
_refine_ls_structure_factor_coef Fsqd
_refine_ls_weighting_details
'w=1/[\s^2^(Fo^2^)+(0.0211P)^2^+0.1011P] where P=(Fo^2^+2Fc^2^)/3'
_refine_ls_weighting_scheme      calc
_refine_ls_wR_factor_gt          0.0530
_refine_ls_wR_factor_ref         0.0559
_reflns_Friedel_coverage         0.000
_reflns_number_gt                2714
_reflns_number_total             3202
_reflns_threshold_expression     'I > 2\s(I)'
_cod_data_source_file            d1ce01549d2.cif
_cod_data_source_block           1
_cod_database_code               7244458
_shelx_shelxl_version_number     2014/7
_shelx_space_group_comment
;
The symmetry employed for this shelxl refinement is uniquely defined
by the following loop, which should always be used as a source of
symmetry information in preference to the above space-group names.
They are only intended as comments.
;
_shelx_estimated_absorpt_t_min   0.552
_shelx_estimated_absorpt_t_max   0.594
_shelx_res_file
;

    dk2014_01.res created by SHELXL-2014/7

TITL dk1 in P-1
CELL  0.71073   7.2514   7.4533  12.9171   78.290   81.497   71.575
ZERR     1.00   0.0002   0.0003   0.0004    0.002    0.003    0.002
LATT   1
SFAC  C    H    N    O    AG
UNIT  16   20   12   10   4
MERG   2
OMIT     0   0   1
FMAP   2
PLAN   20
SIZE     0.19   0.21   0.22
ACTA
BOND
BOND   $H

EQIV $1 -1-X, 1-Y, 1-Z
EQIV $2  1+X, 1+Y, Z
EQIV $3  1+X, Y, Z
EQIV $4  X, -1+Y, Z
EQIV $5  2-X, -Y, -Z
EQIV $6  -X, -Y, 1-Z
EQIV $7  1+X, -1+Y, Z
EQIV $8  -X, 1-Y, 1-Z
EQIV $9  -1-X, -Y, 1-Z
EQIV $10  -1+X, Y, Z
EQIV $11  -2+X, 1+Y, Z
EQIV $12 -1+X, 1+Y, Z
EQIV $13 1-X, -Y, -Z

RTAB H..O H1W O4_$1
RTAB H..O H2W O3_$2
RTAB H..O H1 O3_$3
RTAB H..O H1 O1W_$4
RTAB H..O H2 O1_$5
RTAB H..O H2 O2_$5
RTAB H..O H3A O4_$6
RTAB H..O H3B O1W_$7
RTAB H..O H5 O1W_$8
RTAB H..O H5 O4_$9
RTAB H..O H6 O1W_$10
RTAB H..O H6 O1_$11
RTAB H..O H7A O1W_$10
RTAB H..O H7B O1W_$8

RTAB O..O O1W O4_$1
RTAB O..O O1W O3_$2
RTAB O..O C1 O3_$3
RTAB O..O C1 O1W_$4
RTAB O..O C2 O1_$5
RTAB O..O C2 O2_$5
RTAB O..O C3 O4_$6
RTAB O..O C3 O1W_$7
RTAB O..O C5 O1W_$8
RTAB O..O C5 O4_$9
RTAB O..O C6 O1W_$10
RTAB O..O C6 O1_$11
RTAB O..O C7 O1W_$10
RTAB O..O C7 O1W_$8

RTAB XHY O1W H1W O4_$1
RTAB XHY O1W H2W O3_$2
RTAB XHY C1 H1 O3_$3
RTAB XHY C1 H1 O1W_$4
RTAB XHY C2 H2 O1_$5
RTAB XHY C2 H2 O2_$5
RTAB XHY C3 H3A O4_$6
RTAB XHY C3 H3B O1W_$7
RTAB XHY C5 H5 O1W_$8
RTAB XHY C5 H5 O4_$9
RTAB XHY C6 H6 O1W_$10
RTAB XHY C6 H6 O1_$11
RTAB XHY C7 H7A O1W_$10
RTAB XHY C7 H7B O1W_$8

BIND AG1 O3_$3
BIND AG1 O1_$12
BIND AG2 O2_$13

CONF
L.S.   5
TEMP    23.00
WGHT    0.021100    0.101100
FVAR       0.59638
AG1   5    0.099297    0.231737    0.201300    11.00000    0.01939    0.04445 =
         0.03575   -0.00206    0.00544    0.00047
AG2   5    0.329158    0.442125   -0.036879    11.00000    0.03318    0.03109 =
         0.02154    0.00228   -0.00364   -0.00613
O1    4    1.172271   -0.423419    0.120476    11.00000    0.02280    0.03732 =
         0.03468   -0.00914   -0.00524    0.00707
O2    4    0.949732   -0.265443    0.007938    11.00000    0.03127    0.04138 =
         0.02528   -0.01090   -0.00478   -0.00338
O3    4   -0.726791    0.139914    0.399568    11.00000    0.09199    0.10074 =
         0.04932   -0.03322    0.01874   -0.07416
O4    4   -0.813902    0.189880    0.566330    11.00000    0.06636    0.08798 =
         0.04099   -0.01342    0.02238   -0.05278
N1    3    0.403481    0.099768    0.157465    11.00000    0.02317    0.03612 =
         0.02310    0.00340    0.00378    0.00076
N2    3    0.495646    0.174113    0.065618    11.00000    0.02567    0.02314 =
         0.02205   -0.00007    0.00191   -0.00297
N3    3    0.713593   -0.056643    0.153461    11.00000    0.01884    0.02699 =
         0.02193   -0.00596   -0.00314    0.00246
N4    3   -0.202401    0.310586    0.262718    11.00000    0.02143    0.03568 =
         0.02384    0.00159   -0.00056   -0.00024
N5    3   -0.354068    0.432261    0.206791    11.00000    0.02131    0.03365 =
         0.02026    0.00122   -0.00168   -0.00414
N6    3   -0.467319    0.353049    0.369777    11.00000    0.02403    0.03034 =
         0.02037   -0.00445    0.00357   -0.01056
C1    1    0.536977   -0.037485    0.208358    11.00000    0.02758    0.03955 =
         0.02157    0.00486    0.00560    0.00449
AFIX  43
H1    2    0.513631   -0.111528    0.273237    11.00000   -1.20000
AFIX   0
C2    1    0.679575    0.077021    0.065825    11.00000    0.02209    0.02427 =
         0.02873   -0.00009    0.00385   -0.00530
AFIX  43
H2    2    0.775135    0.097513    0.012229    11.00000   -1.20000
AFIX   0
C3    1    0.900751   -0.192760    0.183681    11.00000    0.02053    0.03532 =
         0.02365   -0.00728   -0.00766    0.00571
AFIX  23
H3A   2    0.877016   -0.283392    0.245708    11.00000   -1.20000
H3B   2    0.979884   -0.123410    0.203000    11.00000   -1.20000
AFIX   0
C4    1    1.014420   -0.303506    0.095078    11.00000    0.02035    0.02196 =
         0.02478   -0.00320   -0.00106   -0.00505
C5    1   -0.274479    0.265664    0.359496    11.00000    0.02783    0.04067 =
         0.02260    0.00374   -0.00153   -0.00126
AFIX  43
H5    2   -0.202605    0.184602    0.413751    11.00000   -1.20000
AFIX   0
C6    1   -0.511138    0.454280    0.273388    11.00000    0.01793    0.04250 =
         0.02548   -0.00279   -0.00091   -0.00606
AFIX  43
H6    2   -0.635528    0.529415    0.256370    11.00000   -1.20000
AFIX   0
C7    1   -0.599812    0.344529    0.467456    11.00000    0.03329    0.03993 =
         0.02228   -0.00889    0.00747   -0.01857
AFIX  23
H7A   2   -0.685698    0.472882    0.471763    11.00000   -1.20000
H7B   2   -0.522401    0.304563    0.527802    11.00000   -1.20000
AFIX   0
C8    1   -0.724275    0.211495    0.477103    11.00000    0.03350    0.04263 =
         0.03264   -0.00720    0.00415   -0.01892
O1W   4    0.189811    0.821880    0.377719    11.00000    0.04300    0.05229 =
         0.07012   -0.01754    0.00224   -0.01716
AFIX   3
H1W   2    0.084211    0.796410    0.403149    11.00000   -1.50000
H2W   2    0.184931    0.928890    0.393239    11.00000   -1.50000
AFIX   0
HKLF    4

REM  dk1 in P-1
REM R1 =  0.0232 for    2714 Fo > 4sig(Fo)  and  0.0300 for all    3202 data
REM    190 parameters refined using      0 restraints

END

WGHT      0.0211      0.1011

REM Highest difference peak  0.450,  deepest hole -0.534,  1-sigma level  0.090
Q1    1   0.3976  0.3801 -0.0911  11.00000  0.05    0.45
Q2    1   0.2249  0.5267 -0.0523  11.00000  0.05    0.41
Q3    1   0.0792  0.2720  0.2612  11.00000  0.05    0.40
Q4    1   1.2326 -0.4904  0.0401  11.00000  0.05    0.36
Q5    1   0.3682  0.2736  0.0447  11.00000  0.05    0.34
Q6    1  -0.9013  0.2426  0.5150  11.00000  0.05    0.33
Q7    1   0.2345  0.6328 -0.0403  11.00000  0.05    0.32
Q8    1   0.2271  0.1452  0.1254  11.00000  0.05    0.32
Q9    1   0.9519 -0.2598  0.1415  11.00000  0.05    0.32
Q10   1   0.4396  0.3216 -0.0240  11.00000  0.05    0.31
Q11   1   0.1440  0.2995  0.2409  11.00000  0.05    0.31
Q12   1   0.8024 -0.1202  0.1731  11.00000  0.05    0.31
Q13   1  -0.3038  0.4108  0.1217  11.00000  0.05    0.31
Q14   1   0.0021  0.1880  0.4624  11.00000  0.05    0.31
Q15   1   0.8396  0.1518  0.0354  11.00000  0.05    0.30
Q16   1   0.2158  0.1152  0.2197  11.00000  0.05    0.30
Q17   1  -0.0242  0.3798  0.2957  11.00000  0.05    0.30
Q18   1  -0.0078  0.3423  0.1973  11.00000  0.05    0.30
Q19   1   0.9715  0.0342  0.0607  11.00000  0.05    0.30
Q20   1   1.3117 -0.5450  0.1623  11.00000  0.05    0.29
;
_shelx_res_checksum              75920
_shelx_hkl_file
;
  -1   0   0   -0.10    1.00
  -1   0   0   -0.12    0.75
  -1   0   0    0.86    0.81
  -1   0   0   -0.34    0.62
  -1   0   0    0.89    0.65
  -1   0   0    0.58    0.74
   1   0   0    0.11    0.94
   1   0   0   -0.50    0.30
   1   0   0   -0.55    0.71
   1   0   0    0.06    0.67
   1   0   0   -0.26    0.57
   2   0   0  369.85   15.44
   2   0   0  332.34   15.86
   2   0   0  304.15   16.36
   2   0   0  332.74   17.29
  -2   0   0  338.08   16.02
  -2   0   0  330.03   17.12
  -2   0   0  337.07   15.93
  -2   0   0  329.52   15.00
  -3   0   0  259.73   12.60
   3   0   0  234.40   12.21
   3   0   0  259.64   12.51
  -3   0   0  220.75   11.57
   3   0   0  221.52   13.03
  -3   0   0  218.46   13.66
   4   0   0  684.73   35.21
  -4   0   0  799.94   33.87
  -4   0   0  693.85   31.71
  -4   0   0  718.41   36.14
   4   0   0  708.82   33.83
   5   0   0 1792.80   84.73
   5   0   0 1882.84   82.69
  -5   0   0 1789.23   85.53
  -5   0   0 1867.50   77.06
  -6   0   0   31.30    4.87
  -6   0   0   26.94    6.62
   6   0   0   37.20    6.78
   6   0   0   29.00    4.78
   7   0   0  148.96   11.14
   7   0   0  162.53   13.86
  -7   0   0  153.21   10.90
  -7   0   0  136.03   12.92
  -7   0   0  135.52   13.52
  -8   0   0    3.28    5.18
  -8   0   0    8.36    5.26
  -9   0   0  197.64   17.72
  -9   0   0  181.85   17.66
  -8   1   0  101.20   12.61
  -8   1   0  101.77   13.51
   7  -1   0  101.11    9.52
  -7   1   0   86.25   11.67
  -7   1   0   81.02   10.66
  -7   1   0  107.56    9.02
  -6   1   0 1374.96   58.17
   6  -1   0 1305.63   64.88
   6  -1   0 1367.92   62.49
  -6   1   0 1320.86   63.77
  -6   1   0 1260.75   65.31
   5  -1   0   13.42    4.17
   5  -1   0   18.43    3.93
  -5   1   0   17.30    5.41
  -5   1   0   13.58    3.57
  -4   1   0 2159.58  101.96
   4  -1   0 2240.09  100.79
   4  -1   0 2187.19   99.27
  -4   1   0 2314.52   92.50
  -3   1   0  233.40   14.62
   3  -1   0  249.68   13.31
  -3   1   0  261.68   14.04
  -3   1   0  269.66   13.65
  -3   1   0  256.09   12.75
   3  -1   0  199.24   13.46
   2  -1   0 1565.06   71.04
  -2   1   0 1688.18   72.01
   2  -1   0 1568.81   71.47
  -2   1   0 1654.99   72.46
  -2   1   0 1539.19   71.26
   1  -1   0 4682.30  205.23
  -1   1   0 4742.53  203.02
  -1   1   0 4913.37  205.16
   1  -1   0 4616.49  206.42
  -1   1   0 4685.61  205.15
   0   1   0 1075.04   46.73
   0  -1   0 1020.38   46.90
   0   1   0 1063.47   48.01
   0   1   0 1075.15   45.91
   0   1   0 1081.56   46.69
   0   1   0 1025.78   46.84
   1   1   0  602.04   27.11
   1   1   0  548.30   26.03
  -1  -1   0  591.02   26.08
  -1  -1   0  604.54   27.11
  -1  -1   0  607.72   26.61
  -1  -1   0  573.68   24.77
   1   1   0  575.79   24.77
   1   1   0  596.85   26.67
  -2  -1   0  216.46   10.20
  -2  -1   0  189.95    9.22
  -2  -1   0  176.71   10.30
  -2  -1   0  187.51    9.10
  -2  -1   0  177.41    9.72
   2   1   0  142.78    9.95
   2   1   0  186.31    9.16
   2   1   0  211.40   11.05
  -3  -1   0 6666.53  279.42
   3   1   0 6282.65  277.31
  -3  -1   0 5900.95  276.88
   3   1   0 6584.31  256.71
  -3  -1   0 6297.13  256.40
   3   1   0 6020.05  271.91
   3   1   0 6512.49  277.06
  -3  -1   0 6716.91  271.27
   4   1   0  674.56   31.29
  -4  -1   0  671.50   33.32
  -4  -1   0  708.85   30.44
   4   1   0  661.78   32.59
  -4  -1   0  634.58   29.21
   4   1   0  607.95   31.23
   5   1   0   56.42    5.89
   5   1   0   43.72    6.17
  -5  -1   0   46.87    5.14
  -5  -1   0   47.47    6.96
   5   1   0   49.64    5.02
  -6  -1   0   75.42    6.79
   6   1   0   72.47    8.59
  -6  -1   0   70.77    9.09
   6   1   0   75.98    6.86
   7   1   0  651.19   31.91
  -7  -1   0  649.09   34.68
   7   1   0  583.62   34.73
  -7  -1   0  621.89   30.33
  -7  -1   0  642.15   35.57
  -8  -1   0  393.84   21.46
  -8  -1   0  418.11   26.49
  -8  -1   0  352.53   24.52
  -9  -1   0    1.78    4.93
  -9  -1   0    7.75    6.92
  -8   2   0   72.25   11.99
  -8   2   0   56.31   10.53
  -7   2   0   64.12   10.74
  -7   2   0   46.67    8.68
   7  -2   0   47.66    7.50
  -7   2   0   45.84    6.94
  -6   2   0  751.28   39.55
   6  -2   0  766.64   38.59
  -6   2   0  761.97   35.93
  -6   2   0  739.36   41.51
  -5   2   0  546.08   32.14
  -5   2   0  596.02   28.08
   5  -2   0  578.73   29.82
  -4   2   0   30.19    6.05
   4  -2   0   35.49    5.08
  -4   2   0   35.54    5.25
  -3   2   0 1917.71   86.73
  -3   2   0 1967.41   88.39
   3  -2   0 1895.05   86.52
  -2   2   0   -1.36    1.53
   2  -2   0    1.23    1.78
   2  -2   0   -1.10    1.80
  -2   2   0   -0.12    1.67
  -1   2   0 4768.37  197.18
   1  -2   0 4414.61  201.73
   1  -2   0 4656.34  200.86
  -1   2   0 4589.57  197.96
   0  -2   0  910.18   41.47
   0   2   0  896.92   41.26
   0   2   0  923.80   39.92
   0   2   0  901.52   40.54
   0   2   0  915.28   41.39
  -1  -2   0 7027.06  276.38
  -1  -2   0 6733.22  281.77
  -1  -2   0 5810.95  282.74
   1   2   0 6352.48  276.28
   1   2   0 6373.89  281.37
  -1  -2   0 6812.71  281.36
   1   2   0 6641.31  260.76
  -1  -2   0 6399.82  280.06
   1   2   0 6280.14  282.79
   2   2   0 3532.07  156.48
   2   2   0 3509.08  143.87
  -2  -2   0 3690.30  155.02
   2   2   0 3465.09  152.17
   2   2   0 3568.48  155.24
  -2  -2   0 3776.40  152.27
  -2  -2   0 3449.53  156.47
  -2  -2   0 3437.78  143.85
   3   2   0 1240.87   57.11
   3   2   0 1225.21   55.06
  -3  -2   0 1318.90   55.03
   3   2   0 1229.11   52.50
  -3  -2   0 1180.36   52.33
  -3  -2   0 1290.85   57.82
   4   2   0  580.63   30.36
  -4  -2   0  634.07   31.42
  -4  -2   0  595.17   27.76
  -4  -2   0  642.99   28.72
   4   2   0  630.82   30.72
   5   2   0   51.54    5.54
  -5  -2   0   37.22    4.87
   5   2   0   40.40    5.89
   5   2   0   51.70    6.04
  -5  -2   0   31.81    6.12
   6   2   0 1475.20   68.48
  -6  -2   0 1375.98   61.59
   6   2   0 1466.56   65.86
  -6  -2   0 1439.62   69.01
   6   2   0 1401.33   65.96
  -7  -2   0  172.03   15.05
   7   2   0  209.02   12.74
  -7  -2   0  184.67   14.55
  -7  -2   0  213.63   13.06
   7   2   0  162.07   14.38
  -8  -2   0  140.90   10.74
  -8  -2   0  120.29   13.51
  -8  -2   0  107.49   12.31
  -9  -2   0   17.16    7.46
  -9  -2   0    0.05    4.69
  -7   3   0  605.03   36.72
  -7   3   0  594.97   34.10
   7  -3   0  579.98   33.12
   6  -3   0    9.21    4.39
  -6   3   0   13.55    4.40
  -6   3   0    3.96    4.35
  -6   3   0    3.59    4.76
  -6   3   0   11.67    4.41
  -5   3   0   48.17    8.68
   5  -3   0   55.18    7.42
  -5   3   0   54.24    6.83
  -5   3   0   68.63    8.44
  -5   3   0   42.82    6.57
   4  -3   0  155.68   11.73
  -4   3   0  180.96   13.71
  -4   3   0  167.44   11.54
  -4   3   0  174.47   12.01
   3  -3   0 1163.83   55.44
   3  -3   0 1134.68   54.33
  -3   3   0 1145.95   53.16
  -3   3   0 1177.14   54.14
  -2   3   0 2399.68  105.29
   2  -3   0 2368.51  106.79
  -2   3   0 2347.40  103.88
   2  -3   0 2352.63  105.95
  -1   3   0    3.60    1.52
  -1   3   0    6.25    2.65
  -1   3   0    5.64    2.30
   1  -3   0    5.68    2.51
   0   3   0 1455.62   64.93
   0   3   0 1507.84   63.77
   0   3   0 1472.20   63.58
   0   3   0 1421.89   66.03
   0  -3   0 1452.16   66.45
   1   3   0   89.45    6.68
   1   3   0   99.51    6.93
  -1  -3   0   97.02    7.06
  -2  -3   0 6866.65  318.60
  -2  -3   0 7765.88  312.60
  -2  -3   0 7649.82  312.85
   2   3   0 7059.42  316.57
   2   3   0 7212.81  310.90
  -2  -3   0 7171.57  293.59
   3   3   0 1095.16   50.13
  -3  -3   0 1090.98   46.60
   3   3   0 1080.49   48.91
  -3  -3   0 1072.75   51.09
  -4  -3   0   79.04    6.68
   4   3   0   95.02    8.37
   4   3   0   85.51    6.64
  -4  -3   0   83.57    8.25
   5   3   0  774.70   39.12
  -5  -3   0  799.13   40.23
  -5  -3   0  790.41   35.90
  -6  -3   0   89.58    8.96
   6   3   0  108.46    9.66
  -6  -3   0   71.99    9.61
   6   3   0   99.19    9.01
  -6  -3   0   90.61    8.31
   6   3   0  111.35    9.33
  -7  -3   0  214.97   14.12
   7   3   0  243.52   14.77
   7   3   0  229.81   16.77
   7   3   0  213.72   15.41
  -7  -3   0  217.73   15.90
  -7  -3   0  224.11   17.19
  -8  -3   0   36.97    6.67
  -8  -3   0   15.94    7.04
  -8  -3   0   36.31    7.98
  -9  -3   0   73.59   11.34
  -9  -3   0   59.79    8.52
  -9  -3   0   67.72   11.78
  -7   4   0   34.25    8.29
  -7   4   0   56.29   11.51
  -7   4   0   48.96    8.31
  -6   4   0   12.75    4.81
  -6   4   0   14.97    5.77
  -6   4   0   15.37    5.23
  -6   4   0   11.30    6.07
  -5   4   0  124.36   13.63
  -5   4   0  123.54   10.80
  -5   4   0  116.01   10.32
  -5   4   0   92.26   10.25
  -4   4   0 1260.89   59.47
  -4   4   0 1265.48   59.38
  -3   4   0   24.47    5.17
  -3   4   0   25.20    4.56
   3  -4   0   26.22    5.81
   2  -4   0  162.02   11.73
  -2   4   0  155.97   11.38
  -2   4   0  161.45   10.52
  -2   4   0  158.42   11.10
  -2   4   0  153.04    9.97
  -1   4   0   20.98    2.59
  -1   4   0   15.90    3.91
  -1   4   0   17.31    2.56
  -1   4   0   14.81    3.66
   1  -4   0   22.41    4.45
   0   4   0  708.76   30.64
   0  -4   0  693.24   34.31
   0   4   0  688.19   33.41
   0   4   0  680.95   33.94
  -1  -4   0 3834.88  171.61
   1   4   0 3979.18  170.72
   1   4   0 3802.23  167.52
  -2  -4   0    6.28    2.91
  -2  -4   0    4.98    1.16
   2   4   0    5.18    2.49
  -2  -4   0    3.66    1.30
   2   4   0    4.42    2.72
  -3  -4   0    4.70    1.96
   3   4   0    6.74    2.81
  -3  -4   0    7.20    3.48
   3   4   0   17.47    3.96
  -3  -4   0    3.96    2.73
  -4  -4   0  261.85   14.52
   4   4   0  263.35   16.11
   4   4   0  255.36   15.12
  -4  -4   0  293.85   17.32
  -4  -4   0  252.35   14.70
  -5  -4   0 1102.18   51.76
  -5  -4   0 1081.66   54.54
  -5  -4   0 1098.02   49.29
   5   4   0 1110.57   53.89
   5   4   0 1156.49   51.83
   6   4   0  312.50   22.24
  -6  -4   0  416.38   21.12
   6   4   0  381.13   22.76
  -6  -4   0  392.15   24.07
   6   4   0  441.02   22.27
  -6  -4   0  376.23   21.70
  -7  -4   0   10.00    4.54
   7   4   0    7.30    4.07
  -7  -4   0    9.14    5.68
   7   4   0   12.43    4.67
  -7  -4   0    9.80    4.25
   7   4   0   14.81    5.42
  -8  -4   0  173.33   14.40
  -8  -4   0  130.61   14.93
  -8  -4   0  168.70   12.84
  -9  -4   0    5.39    4.62
  -9  -4   0    0.09    6.42
  -9  -4   0   15.31    6.53
  -6   5   0   98.11   11.24
  -6   5   0  124.69   12.66
  -6   5   0   71.95   12.54
  -5   5   0  257.20   17.40
  -5   5   0  251.87   17.24
  -5   5   0  239.88   19.53
  -5   5   0  237.07   17.28
  -5   5   0  240.74   17.68
  -4   5   0  108.27   11.07
   4  -5   0   90.83   11.73
  -4   5   0   99.47    9.55
  -4   5   0  107.99   10.44
  -3   5   0   67.40    8.72
   3  -5   0   62.84    9.17
  -3   5   0   77.33    9.09
  -3   5   0   86.58    7.55
  -2   5   0   -0.76    2.47
  -2   5   0   -1.77    2.89
  -2   5   0   -2.21    2.16
   2  -5   0   -1.80    2.73
  -2   5   0   -1.38    2.62
  -1   5   0 1172.00   50.06
   1  -5   0 1134.97   54.76
  -1   5   0 1054.65   52.86
  -1   5   0 1125.17   54.07
   0   5   0  320.80   18.95
   0  -5   0  330.05   19.36
   0   5   0  320.46   18.63
  -1  -5   0  554.85   28.63
   1   5   0  529.16   27.67
   1   5   0  535.25   28.19
   2   5   0    9.22    3.44
   2   5   0    1.35    3.13
  -2  -5   0    2.71    3.33
  -3  -5   0  551.44   31.03
   3   5   0  586.01   30.32
  -3  -5   0  599.05   27.03
   3   5   0  594.82   29.91
  -3  -5   0  603.29   26.93
   4   5   0 1358.72   64.27
   4   5   0 1420.66   65.67
  -4  -5   0 1427.83   62.77
  -4  -5   0 1410.60   67.21
  -4  -5   0 1366.38   61.17
  -5  -5   0   35.78    5.03
   5   5   0   33.18    6.43
  -5  -5   0   26.01    6.50
   5   5   0   32.17    5.82
  -5  -5   0   38.07    5.99
  -6  -5   0  102.99    9.40
  -6  -5   0  115.88    9.83
   6   5   0   96.55   10.93
   6   5   0  110.18   10.27
  -6  -5   0  122.39   12.55
   6   5   0  110.34   10.03
   7   5   0   82.02   10.68
  -7  -5   0   92.61   12.01
   7   5   0  118.37   10.49
   7   5   0  115.25   11.35
  -7  -5   0  104.51   10.34
  -7  -5   0  123.43   10.54
  -8  -5   0  268.41   20.98
  -8  -5   0  252.32   17.34
  -8  -5   0  273.13   18.98
  -9  -5   0   53.36    8.68
  -9  -5   0   72.98   12.65
  -9  -5   0   61.41   10.59
  -5   6   0  334.00   22.22
  -5   6   0  292.64   23.52
  -5   6   0  319.77   21.54
   4  -6   0   87.67   12.71
  -4   6   0   78.66   10.37
  -4   6   0   78.04   10.33
  -3   6   0    4.91    4.90
   3  -6   0    4.14    5.26
  -3   6   0    9.31    4.66
  -2   6   0  618.01   34.19
  -2   6   0  617.88   33.70
   2  -6   0  654.97   35.58
  -1   6   0   71.99    9.03
  -1   6   0   75.28    9.04
   1  -6   0   89.91   10.25
   0   6   0  568.36   30.90
   0  -6   0  624.46   32.50
   0   6   0  565.25   31.37
   1   6   0   -0.77    2.91
   1   6   0    0.70    3.53
  -1  -6   0    4.07    3.65
   2   6   0  312.11   18.65
  -2  -6   0  316.30   19.47
   2   6   0  289.59   18.71
  -3  -6   0  580.33   31.29
   3   6   0  534.02   29.29
   3   6   0  568.21   30.21
  -4  -6   0  543.92   31.07
   4   6   0  529.42   29.60
   4   6   0  565.37   29.52
   5   6   0   58.01    8.32
  -5  -6   0   70.79    6.65
  -5  -6   0   70.34    9.96
   5   6   0   58.49    8.11
  -6  -6   0    0.39    3.32
   6   6   0   10.02    5.19
   6   6   0    2.68    3.83
  -6  -6   0   -1.03    3.45
  -6  -6   0    4.26    5.08
   7   6   0  281.06   21.12
  -7  -6   0  293.61   19.13
  -7  -6   0  302.36   18.95
   7   6   0  332.71   21.05
  -7  -6   0  272.61   21.49
   7   6   0  290.45   19.66
  -8  -6   0    0.09    4.33
  -8  -6   0   -3.34    5.05
  -8  -6   0    4.21    4.65
   4  -7   0   14.38    8.73
  -4   7   0   24.95    7.81
  -4   7   0   24.54    7.10
   3  -7   0   12.95    7.09
  -3   7   0    9.51    5.87
  -3   7   0   -0.04    4.15
  -2   7   0  467.41   27.54
  -2   7   0  435.95   27.50
  -1   7   0   33.52    7.01
  -1   7   0   30.14    7.09
   1  -7   0   31.48    7.66
   0  -7   0   12.61    5.50
   0   7   0   19.11    5.84
   0   7   0   14.09    5.07
  -1  -7   0  159.46   13.69
   1   7   0  149.03   12.64
   1   7   0  156.12   13.15
  -2  -7   0   52.10    8.59
   2   7   0   50.75    7.97
   2   7   0   43.23    7.60
  -3  -7   0  556.76   31.93
   3   7   0  560.01   30.97
   3   7   0  531.03   29.99
   4   7   0    0.81    3.43
   4   7   0    2.32    4.15
  -4  -7   0    1.46    4.56
   5   7   0   51.59    8.78
  -5  -7   0   58.42    9.76
   5   7   0   47.72    8.30
   6   7   0  301.15   21.19
   6   7   0  311.37   20.82
  -6  -7   0  299.66   22.48
   7   7   0  112.98   13.87
   7   7   0  132.47   12.65
  -7  -7   0  108.71   14.27
   7   7   0  152.58   13.83
  -8  -7   0   10.04    7.11
  -2   8   0   11.28    6.18
   2  -8   0    7.07    6.26
  -2   8   0   12.05    6.66
   1  -8   0   -0.91    5.01
  -1   8   0    7.08    5.18
  -1   8   0    2.81    5.26
   0  -8   0  168.25   15.39
   0   8   0  153.72   14.03
   0   8   0  136.69   13.44
   1   8   0  279.38   20.21
  -1  -8   0  333.36   22.54
   1   8   0  286.55   20.70
   2   8   0  147.01   13.20
   2   8   0  148.10   13.81
  -2  -8   0  161.85   14.81
  -3  -8   0   35.95    8.22
   3   8   0   23.86    7.12
   3   8   0   21.87    6.28
  -4  -8   0   26.73    7.99
   4   8   0   20.33    6.72
   4   8   0   20.15    6.38
  -5  -8   0   -2.01    4.23
   5   8   0    4.04    5.48
   5   8   0    4.00    4.72
  -6  -8   0  298.74   23.16
   6   8   0  293.97   21.65
   6   8   0  291.53   21.17
  -7  -8   0    2.68    6.35
   7   8   0    9.62    6.22
   0  -9   0  183.87   17.33
   0   9   0  102.73   13.43
   0   9   0  150.78   15.74
   1   9   0    8.59    5.60
  -1  -9   0   17.89    7.50
   1   9   0    9.72    5.96
   2   9   0   52.47   10.13
   2   9   0   39.35    8.31
  -2  -9   0   40.08    9.58
   3   9   0   23.53    6.88
   3   9   0   22.89    7.93
  -3  -9   0   27.08    8.37
   4   9   0   99.65   12.60
  -4  -9   0   83.31   13.24
   4   9   0  104.87   13.17
   5   9   0   45.39    9.44
   5   9   0   36.85    9.02
  -5  -9   0   54.08   11.64
   6   9   0    2.80    6.12
   6   9   0   -2.02    5.10
   5   9  -1   31.24    9.02
   5   9  -1   39.12    9.08
  -5  -9   1   42.36   11.13
   4   9  -1   48.74   10.34
  -4  -9   1   38.25    9.98
   4   9  -1   37.29    8.74
  -3  -9   1  116.56   15.02
   3   9  -1  111.34   13.50
   3   9  -1   81.69   12.18
  -2  -9   1   -6.68    4.49
   2   9  -1   -1.87    4.98
   2   9  -1   -0.70    4.11
  -1  -9   1    7.99    6.72
   1   9  -1    6.26    5.14
   1   9  -1   -1.96    5.11
   0   9  -1  106.47   14.15
   0   9  -1  156.09   16.27
   0  -9   1  149.75   16.96
   7   8  -1   -4.36    5.88
   6   8  -1  105.45   13.44
  -6  -8   1  116.88   15.12
   6   8  -1   89.95   12.37
  -5  -8   1   57.35   11.39
   5   8  -1   42.90    8.77
   5   8  -1   40.32    9.04
   4   8  -1  154.48   15.08
   4   8  -1  165.67   14.38
  -4  -8   1  185.48   16.67
  -3  -8   1    5.48    5.55
   3   8  -1    6.60    5.42
   3   8  -1    2.68    4.27
  -2  -8   1   12.00    6.27
   2   8  -1   14.67    5.30
   2   8  -1   10.31    6.20
  -1  -8   1  198.85   16.90
   1   8  -1  183.15   15.29
   1   8  -1  171.67   15.35
   0   8  -1  383.41   25.40
   0  -8   1  406.27   26.86
   0   8  -1  380.84   25.18
  -1   8  -1   16.76    6.96
   1  -8   1   21.70    7.72
  -1   8  -1   27.50    7.83
   2  -8   1   -1.48    5.05
  -2   8  -1   -3.08    4.04
  -2   8  -1   -1.80    4.62
  -8  -7   1   29.24    9.81
  -7  -7   1    7.00    7.06
   7   7  -1   16.36    6.59
   7   7  -1   11.36    7.25
  -6  -7   1  287.17   22.30
   6   7  -1  293.58   20.03
   6   7  -1  285.98   21.25
  -5  -7   1  209.52   18.15
   5   7  -1  226.92   17.42
   5   7  -1  217.21   16.13
   4   7  -1   47.08    8.34
   4   7  -1   46.87    7.93
  -4  -7   1   70.89   10.57
   3   7  -1   54.42    8.25
   3   7  -1   46.39    7.97
  -3  -7   1   46.65    8.59
   2   7  -1   -4.22    3.44
   2   7  -1    1.70    3.50
  -2  -7   1   -5.53    3.05
   1   7  -1  640.95   35.67
  -1  -7   1  655.22   36.57
   1   7  -1  668.85   35.35
   0   7  -1   -1.13    3.65
   0  -7   1   -3.18    3.52
   0   7  -1   -0.22    4.10
  -1   7  -1    3.14    4.04
  -1   7  -1   -0.95    4.56
   1  -7   1   -3.98    3.99
   2  -7   1   70.55   10.84
  -2   7  -1   66.78    9.93
  -2   7  -1   66.90   10.11
   3  -7   1   99.34   13.30
  -3   7  -1   65.27   10.31
  -3   7  -1   81.66   11.33
  -4   7  -1  158.62   15.04
  -4   7  -1  156.07   15.23
   4  -7   1  183.50   17.73
  -8  -6   1   88.39   13.71
  -8  -6   1   76.31   10.19
   7   6  -1  246.82   20.07
   7   6  -1  262.34   18.77
  -7  -6   1  269.40   17.74
  -7  -6   1  254.88   20.77
   7   6  -1  270.28   18.45
  -6  -6   1    5.26    5.51
  -6  -6   1    5.89    3.84
   6   6  -1    6.43    4.24
   6   6  -1    9.22    5.72
   6   6  -1    1.60    4.21
   5   6  -1  227.47   16.71
   5   6  -1  224.88   15.66
  -5  -6   1  230.09   17.86
  -5  -6   1  231.41   13.93
   4   6  -1  145.68   11.51
   4   6  -1  133.29   12.11
  -4  -6   1  138.20   12.92
   3   6  -1  613.17   32.42
  -3  -6   1  621.19   33.42
   3   6  -1  572.86   31.23
   2   6  -1  376.15   22.16
  -2  -6   1  404.42   23.74
   2   6  -1  396.09   23.24
   1   6  -1  346.64   21.75
   1   6  -1  367.93   21.42
  -1  -6   1  386.35   22.59
   0   6  -1  197.25   14.07
   0   6  -1  165.93   12.95
   0  -6   1  183.30   14.06
  -1   6  -1    9.29    4.50
  -1   6  -1    6.86    4.13
   1  -6   1    5.41    4.08
  -2   6  -1 1302.96   64.16
   2  -6   1 1351.32   65.70
  -2   6  -1 1307.87   63.56
  -3   6  -1   83.95   10.25
  -3   6  -1   58.47    9.14
   3  -6   1   64.28   10.06
   4  -6   1   36.91    8.83
  -4   6  -1   47.61    8.76
  -4   6  -1   56.27    8.85
  -5   6  -1   25.21    7.31
  -5   6  -1   22.27    6.63
  -5   6  -1   25.26    7.85
  -9  -5   1   28.34    9.62
  -9  -5   1   39.48    9.26
  -9  -5   1   39.74    7.73
  -8  -5   1   48.96    7.95
  -8  -5   1   49.27    8.70
  -8  -5   1   28.51    9.09
   7   5  -1  245.25   19.58
  -7  -5   1  297.27   21.46
   7   5  -1  289.90   19.45
  -7  -5   1  300.28   18.73
  -7  -5   1  262.15   17.27
  -6  -5   1  103.56    9.52
   6   5  -1  106.46   10.13
  -6  -5   1  110.68   12.37
   6   5  -1  107.96    9.81
   6   5  -1   91.69   11.11
  -6  -5   1   98.49    9.19
  -5  -5   1   58.83    6.55
  -5  -5   1   70.20    7.67
  -5  -5   1   62.91    9.41
   5   5  -1   68.15    8.87
   5   5  -1   55.50    7.02
   4   5  -1 1480.22   68.88
   4   5  -1 1463.87   70.62
  -4  -5   1 1511.68   72.35
  -4  -5   1 1560.02   67.67
  -3  -5   1   30.52    3.60
   3   5  -1   26.09    5.36
   3   5  -1   28.74    5.31
  -3  -5   1   36.32    6.38
   2   5  -1 1392.61   65.95
   2   5  -1 1392.95   64.63
  -2  -5   1 1444.67   66.88
   1   5  -1    6.36    3.22
   1   5  -1   12.93    4.31
  -1  -5   1   16.69    4.44
   0   5  -1  194.95   13.41
   0  -5   1  204.17   13.62
   0   5  -1  178.86   12.83
  -1   5  -1  892.78   41.23
  -1   5  -1  825.63   42.98
  -1   5  -1  936.08   39.89
  -1   5  -1  863.91   43.68
   1  -5   1  886.92   44.28
  -2   5  -1  354.88   21.57
   2  -5   1  367.17   22.35
  -2   5  -1  371.49   19.86
  -2   5  -1  400.13   19.32
  -2   5  -1  347.41   21.50
  -3   5  -1   30.70    5.03
   3  -5   1   23.74    6.44
  -3   5  -1   38.74    7.08
  -3   5  -1   37.54    6.78
  -4   5  -1   -1.02    3.23
  -4   5  -1   -0.22    3.19
  -4   5  -1    2.01    3.97
   4  -5   1   -0.58    4.29
  -5   5  -1  419.78   25.16
  -5   5  -1  425.74   24.51
  -5   5  -1  367.80   26.53
  -5   5  -1  439.20   25.43
  -5   5  -1  407.36   24.84
  -6   5  -1   57.97   10.92
  -6   5  -1   71.16   10.02
  -9  -4   1    9.09    7.63
  -9  -4   1   20.39    7.54
  -8  -4   1  800.08   43.59
  -8  -4   1  859.23   40.22
  -8  -4   1  827.22   46.61
  -7  -4   1    3.11    3.59
  -7  -4   1    1.62    4.03
   7   4  -1    2.52    4.06
  -7  -4   1   -0.87    5.00
   7   4  -1    4.93    4.30
  -6  -4   1   23.57    5.10
   6   4  -1   28.55    6.02
   6   4  -1   20.82    6.18
  -6  -4   1   30.47    5.52
  -6  -4   1   27.83    7.24
   6   4  -1   33.81    5.54
  -5  -4   1  132.72    9.62
   5   4  -1  128.75    9.89
  -5  -4   1  134.24   11.90
  -5  -4   1  115.41    9.34
   5   4  -1  122.78    9.13
   5   4  -1   92.07   10.59
   4   4  -1  947.11   48.06
  -4  -4   1 1041.79   46.22
  -4  -4   1 1016.34   44.51
   4   4  -1 1006.48   46.39
  -4  -4   1  968.30   49.24
  -3  -4   1 1002.75   44.52
   3   4  -1  982.29   45.61
   3   4  -1  973.84   46.86
  -3  -4   1  975.26   47.96
  -2  -4   1   73.67    4.91
  -2  -4   1   73.92    7.06
  -2  -4   1   75.81    4.63
   2   4  -1   75.65    7.14
   2   4  -1   76.69    6.59
   1   4  -1 1107.76   51.21
   1   4  -1 1071.45   50.10
  -1  -4   1 1092.85   51.46
   0   4  -1  132.01    9.51
   0   4  -1  121.90    6.56
   0   4  -1  119.29    9.10
   0  -4   1  137.86    9.55
  -1   4  -1  737.05   36.28
   1  -4   1  743.51   36.93
  -1   4  -1  734.69   36.64
  -1   4  -1  770.23   34.87
  -2   4  -1   88.98    7.07
  -2   4  -1   94.64    8.38
   2  -4   1   94.21    8.52
  -2   4  -1  103.78    8.64
  -3   4  -1  295.99   17.61
  -3   4  -1  273.22   17.20
  -3   4  -1  281.49   16.50
   3  -4   1  279.36   18.00
  -4   4  -1  965.67   48.94
  -4   4  -1  988.89   48.58
   4  -4   1 1057.30   51.08
  -5   4  -1  239.72   16.83
  -5   4  -1  261.48   17.38
  -5   4  -1  263.73   17.36
  -5   4  -1  276.13   17.50
  -5   4  -1  252.30   19.20
  -6   4  -1  133.31   11.80
  -6   4  -1  151.35   12.84
  -6   4  -1  130.62   11.83
  -6   4  -1  124.35   11.99
  -6   4  -1  122.94   14.34
  -7   4  -1   -7.36    3.91
  -7   4  -1   11.76    6.42
  -9  -3   1  123.93   15.90
  -9  -3   1  129.23   14.45
  -8  -3   1   54.93   10.38
  -8  -3   1   54.32    7.34
  -8  -3   1   48.49    8.85
  -7  -3   1    4.45    3.59
   7   3  -1    5.38    3.62
   7   3  -1    4.82    4.01
  -7  -3   1   11.36    5.96
  -7  -3   1    5.68    4.35
  -6  -3   1  175.03   12.84
   6   3  -1  197.74   13.89
   6   3  -1  171.54   12.28
  -6  -3   1  198.23   12.09
  -6  -3   1  169.53   14.51
   6   3  -1  184.70   13.65
   5   3  -1 1940.36   83.04
  -5  -3   1 1830.99   84.30
  -5  -3   1 1769.40   87.24
  -5  -3   1 1881.64   78.88
   5   3  -1 1907.52   85.88
  -4  -3   1  387.48   19.26
  -4  -3   1  395.89   22.47
   4   3  -1  421.33   22.47
  -4  -3   1  365.30   20.01
   4   3  -1  394.02   20.85
  -3  -3   1   15.08    3.98
  -3  -3   1   16.29    2.87
   3   3  -1   26.93    4.35
  -3  -3   1   14.66    3.06
   3   3  -1   17.43    3.22
   2   3  -1  575.67   28.70
  -2  -3   1  590.91   29.42
  -2  -3   1  619.96   27.06
   2   3  -1  574.80   27.88
   1   3  -1 1395.03   63.01
  -1  -3   1 1419.96   62.02
  -1  -3   1 1439.75   64.73
   1   3  -1 1428.84   64.34
   0   3  -1 2758.68  116.84
   0   3  -1 2592.80  117.49
   0   3  -1 2727.17  119.75
   0  -3   1 2691.02  120.18
   0  -3   1 2753.22  116.87
   1  -3   1  306.39   17.13
  -1   3  -1  316.89   17.23
  -1   3  -1  331.86   15.64
  -1   3  -1  319.45   15.93
  -1   3  -1  334.68   17.32
  -2   3  -1  639.81   31.10
  -2   3  -1  642.76   30.36
  -2   3  -1  625.53   31.16
   2  -3   1  636.86   31.64
  -3   3  -1   39.90    5.32
   3  -3   1   35.83    5.69
  -3   3  -1   42.94    5.36
  -3   3  -1   33.13    5.45
  -4   3  -1  790.58   42.04
  -4   3  -1  855.36   40.25
  -5   3  -1  520.08   30.67
  -5   3  -1  514.92   27.83
  -5   3  -1  555.91   27.91
  -6   3  -1   -0.67    2.98
  -6   3  -1    3.30    3.82
  -6   3  -1    1.64    4.37
  -6   3  -1   -4.42    3.67
  -7   3  -1  194.83   14.73
  -7   3  -1  175.56   15.47
  -7   3  -1  190.14   16.92
  -9  -2   1  100.13   12.97
  -9  -2   1  123.24   15.32
  -8  -2   1   -3.49    3.91
  -8  -2   1    0.11    5.06
  -8  -2   1   -5.44    2.97
  -7  -2   1  679.08   36.35
  -7  -2   1  702.41   32.46
   7   2  -1  698.05   34.70
   7   2  -1  670.81   37.26
  -7  -2   1  635.29   37.71
  -6  -2   1  534.43   30.61
   6   2  -1  533.77   29.50
  -6  -2   1  506.14   28.55
   6   2  -1  575.21   27.49
  -6  -2   1  525.96   25.74
   6   2  -1  538.70   28.14
  -5  -2   1  175.43   13.92
   5   2  -1  197.16   12.94
  -5  -2   1  191.92   12.66
  -5  -2   1  204.53   11.51
   5   2  -1  189.90   12.99
  -5  -2   1  205.90   10.74
   5   2  -1  168.92   11.57
  -4  -2   1  268.86   15.64
   4   2  -1  318.72   15.11
  -4  -2   1  270.88   17.15
  -4  -2   1  289.89   14.54
  -4  -2   1  315.88   14.46
   4   2  -1  235.41   16.43
   4   2  -1  271.69   16.03
  -3  -2   1  102.26    6.99
  -3  -2   1  111.09    6.52
   3   2  -1  105.89    7.24
  -3  -2   1  109.72    8.58
   3   2  -1  110.51    6.99
  -3  -2   1  100.45    6.60
   3   2  -1  104.60    8.41
   3   2  -1  100.16    6.37
  -2  -2   1 8953.40  347.77
   2   2  -1 7808.42  347.63
  -2  -2   1 7835.76  356.97
   2   2  -1 8548.00  328.48
  -2  -2   1 8121.31  328.41
   2   2  -1 8062.08  356.77
  -2  -2   1 8279.52  350.92
   2   2  -1 7823.44  354.84
   1   2  -1  999.13   46.33
  -1  -2   1 1003.44   47.75
   1   2  -1 1090.94   45.91
   1   2  -1 1015.84   47.43
   1   2  -1 1063.55   44.10
  -1  -2   1 1106.29   46.57
   1   2  -1 1048.96   47.74
  -1  -2   1 1056.51   46.07
   0   2  -1 1405.48   63.85
   0   2  -1 1486.49   65.09
   0   2  -1 1514.52   63.44
   0  -2   1 1479.44   63.39
   0   2  -1 1475.68   65.10
   0  -2   1 1385.35   65.07
   1  -2   1  494.40   22.87
   1  -2   1  492.39   23.79
  -1   2  -1  504.97   23.69
  -1   2  -1  505.03   23.87
  -1   2  -1  504.20   22.81
  -1   2  -1  480.82   22.92
   2  -2   1   13.45    2.63
  -2   2  -1   23.94    3.09
  -2   2  -1   25.45    3.41
   2  -2   1   12.10    2.70
   2  -2   1    9.29    2.69
  -3   2  -1 4493.36  192.78
   3  -2   1 4296.45  192.56
   4  -2   1   41.46    5.22
   4  -2   1   37.75    5.62
  -4   2  -1   49.99    6.11
  -4   2  -1   47.39    6.77
   5  -2   1   -0.46    2.38
  -5   2  -1   -0.34    2.71
  -5   2  -1    0.66    3.44
   6  -2   1   39.64    6.16
  -6   2  -1   34.57    6.33
  -6   2  -1   26.72    7.03
  -7   2  -1  308.55   18.84
  -7   2  -1  324.38   22.22
  -7   2  -1  292.49   20.74
  -8   2  -1  191.32   16.75
  -8   2  -1  202.91   17.60
  -9  -1   1   -1.13    5.20
  -9  -1   1    1.42    6.30
  -8  -1   1  317.45   22.78
  -8  -1   1  286.96   20.94
  -7  -1   1   30.06    5.20
  -7  -1   1   20.21    6.72
   7   1  -1   26.05    6.54
  -7  -1   1   22.95    6.36
   7   1  -1   24.00    4.95
  -6  -1   1 1008.17   44.36
   6   1  -1 1014.26   48.02
  -6  -1   1  979.61   49.22
  -6  -1   1 1025.67   51.41
   5   1  -1  498.22   28.78
  -5  -1   1  528.18   28.45
   5   1  -1  551.60   27.83
  -5  -1   1  582.82   25.69
  -5  -1   1  594.52   25.90
  -5  -1   1  549.39   30.25
  -4  -1   1  320.07   19.47
  -4  -1   1  313.71   15.98
   4   1  -1  328.31   18.48
  -4  -1   1  346.02   16.11
  -4  -1   1  318.88   18.03
   4   1  -1  373.65   18.41
   4   1  -1  354.59   17.20
   3   1  -1 3215.49  136.36
  -3  -1   1 3336.93  135.67
   3   1  -1 3305.70  128.98
  -3  -1   1 3055.50  138.19
   3   1  -1 3116.57  139.69
  -3  -1   1 3101.63  128.62
  -3  -1   1 3205.64  141.46
   3   1  -1 3049.12  139.95
   2   1  -1  907.78   42.30
  -2  -1   1  867.93   41.78
   2   1  -1  896.91   40.69
  -2  -1   1  966.41   43.51
  -2  -1   1  955.11   40.68
  -2  -1   1  923.84   38.88
  -2  -1   1 1017.09   43.21
   2   1  -1  904.44   38.85
   2   1  -1  978.00   43.59
  -1  -1   1  235.98   10.73
  -1  -1   1  239.53   11.10
  -1  -1   1  230.61   11.32
   1   1  -1  244.36   11.32
   1   1  -1  218.06   11.22
   1   1  -1  231.07   10.73
   1   1  -1  238.64   12.04
   1   1  -1  243.20   12.04
  -1  -1   1  250.00   12.10
  -1  -1   1  240.32   12.14
   0  -1   1  127.31    7.15
   0  -1   1  133.80    6.86
   0   1  -1  124.51    7.29
   0   1  -1  131.97    6.91
   0  -1   1  138.20    7.38
   0   1  -1  131.68    7.16
   1  -1   1  487.13   22.79
   1  -1   1  472.80   22.81
   1  -1   1  506.03   23.13
  -1   1  -1  506.96   22.78
  -1   1  -1  483.12   22.76
  -1   1  -1  519.58   23.04
  -1   1  -1  521.51   23.12
  -1   1  -1  516.38   23.11
  -2   1  -1 3451.52  146.62
   2  -1   1 3263.41  146.01
  -2   1  -1 3450.73  145.68
   2  -1   1 3305.36  145.69
   2  -1   1 3244.60  144.78
  -2   1  -1 3309.80  145.91
  -3   1  -1  801.81   34.05
  -3   1  -1  752.32   36.84
   3  -1   1  783.23   35.35
   3  -1   1  708.49   36.00
  -4   1  -1    7.83    3.68
   4  -1   1    5.33    2.65
  -4   1  -1   13.73    3.35
   4  -1   1    3.50    2.13
  -5   1  -1  194.78   11.91
   5  -1   1  187.51   11.57
   5  -1   1  159.27   12.57
  -5   1  -1  184.65   13.62
  -6   1  -1 1837.02   87.78
  -6   1  -1 1914.13   79.79
   6  -1   1 1854.57   84.51
   6  -1   1 1805.19   87.37
  -7   1  -1   -4.24    3.53
   7  -1   1   -2.99    3.46
  -7   1  -1    5.47    3.88
  -8   1  -1   41.33    9.30
  -8   1  -1   46.52    9.14
  -9   0   1    6.52    6.27
  -9   0   1    7.11    6.23
  -8   0   1  184.18   15.95
  -8   0   1  190.88   17.31
   7   0  -1  794.99   39.33
   7   0  -1  776.57   42.30
  -7   0   1  817.37   36.20
  -7   0   1  738.45   40.95
  -7   0   1  752.88   42.87
   6   0  -1   69.26    7.02
  -6   0   1   64.27    8.37
  -6   0   1   70.00    6.33
  -6   0   1   48.23    8.45
   6   0  -1   51.69    7.80
   5   0  -1  423.86   25.84
  -5   0   1  478.71   27.32
   5   0  -1  515.02   25.02
  -5   0   1  457.60   25.67
  -5   0   1  522.38   23.37
  -5   0   1  480.54   22.57
  -4   0   1  193.01   13.67
  -4   0   1  224.74   11.08
   4   0  -1  206.94   12.00
  -4   0   1  200.11   12.66
  -4   0   1  197.37   10.63
   4   0  -1  191.42   12.73
  -3   0   1 6185.66  252.14
  -3   0   1 5886.54  275.52
  -3   0   1 6485.32  273.44
   3   0  -1 6287.68  272.81
  -3   0   1 6526.01  267.13
  -3   0   1 6267.63  270.73
  -2   0   1 3502.83  147.76
  -2   0   1 3546.10  144.65
   2   0  -1 3396.63  147.83
   2   0  -1 3430.53  147.63
  -2   0   1 3348.44  136.19
   2   0  -1 3478.33  136.43
  -2   0   1 3354.69  146.31
  -2   0   1 3366.55  147.72
   2   0  -1 3176.25  149.26
  -2   0   1 3186.12  149.16
  -1   0   1   30.73    2.74
   1   0  -1   24.63    1.64
  -1   0   1   17.85    2.09
  -1   0   1   27.82    1.63
   1   0  -1   23.11    2.30
  -1   0   1   25.23    2.32
   1   0  -1   24.62    2.22
   1   0  -1   29.07    2.66
   1   0  -1   19.26    2.56
  -1   0   1   23.94    2.70
   0   0   1 3280.41  141.92
   0   0  -1 3032.25  140.18
   0   0  -1 3512.09  147.44
   0   0   1 3114.07  140.82
   0   0  -1 3349.70  140.79
   1   0   1   31.14    2.29
   1   0   1   29.76    2.73
  -1   0  -1   30.36    3.12
  -1   0  -1   35.23    3.00
   1   0   1   26.25    3.06
  -1   0  -1   31.86    2.30
  -1   0  -1   30.97    2.80
  -1   0  -1   34.37    2.99
   1   0   1   31.95    3.02
   1   0   1   27.45    2.87
   2   0   1 2637.52  102.32
  -2   0  -1 2549.94  109.12
   2   0   1 2565.22  108.35
  -2   0  -1 2364.04  108.14
   2   0   1 2434.06  110.67
   2   0   1 2465.33  109.04
  -2   0  -1 2599.74  102.12
   2   0   1 2345.47  109.84
  -2   0  -1 2585.97  110.73
   2   0   1 2502.52  109.21
   3   0   1   34.37    4.38
  -3   0  -1   33.80    4.18
   3   0   1   26.27    3.74
   3   0   1   28.17    3.85
  -3   0  -1   28.84    3.70
  -3   0  -1   31.89    3.16
   3   0   1   27.27    2.86
   3   0   1   22.62    3.62
  -3   0  -1   30.12    4.17
   4   0   1  726.74   37.71
  -4   0  -1  795.69   38.41
  -4   0  -1  795.80   34.83
   4   0   1  810.71   36.22
   5   0   1  700.03   36.89
  -5   0  -1  772.64   37.62
  -5   0  -1  719.58   33.47
   5   0   1  747.20   34.81
  -6   0  -1  558.18   31.12
   6   0   1  596.54   28.48
  -6   0  -1  540.12   27.35
  -7   0  -1  161.71   14.12
  -7   0  -1  141.78   11.22
   7   0   1  164.21   11.31
   7   0   1  155.22   13.73
  -8   0  -1    0.23    4.71
  -8   0  -1    1.34    3.97
  -8   0  -1    1.18    4.22
  -9   0  -1  305.58   23.07
  -9   0  -1  310.96   23.01
  -8   1   1   80.88   11.48
  -8   1   1   89.55   12.74
  -7   1   1   61.51   10.38
  -7   1   1   54.66    8.84
   7  -1  -1   67.48    8.23
  -6   1   1   -3.03    2.97
  -6   1   1   -3.02    2.01
   6  -1  -1    1.86    2.82
  -6   1   1    1.31    3.89
   5  -1  -1  590.57   29.20
   5  -1  -1  516.00   30.20
  -5   1   1  590.15   30.18
  -5   1   1  550.59   31.65
  -5   1   1  590.29   26.48
  -4   1   1 2694.41  116.82
   4  -1  -1 2587.98  116.92
   4  -1  -1 2563.66  118.14
  -4   1   1 2675.97  114.63
  -4   1   1 2533.28  119.79
  -4   1   1 2700.54  107.92
  -3   1   1   33.76    3.36
   3  -1  -1   30.40    4.29
  -3   1   1   32.00    4.31
  -3   1   1   21.13    3.69
   3  -1  -1   31.23    3.87
  -3   1   1   26.53    4.82
  -2   1   1  268.40   14.26
  -2   1   1  245.90   13.32
  -2   1   1  244.19   13.61
  -2   1   1  268.08   14.58
   2  -1  -1  238.61   13.27
   1  -1  -1  185.99   10.18
   1  -1  -1  200.89   10.61
  -1   1   1  198.19    9.99
  -1   1   1  194.44   10.23
  -1   1   1  216.37   10.74
  -1   1   1  204.40    9.62
   0  -1  -1 7401.28  342.77
   0  -1  -1 7548.38  340.79
   0   1   1 7746.21  340.37
   0  -1  -1 7872.74  317.47
   0   1   1 8290.65  317.04
   0  -1  -1 8226.67  335.55
   0   1   1 7513.77  342.39
   0   1   1 8161.30  336.03
   1   1   1 1784.85   73.56
   1   1   1 1794.04   79.77
  -1  -1  -1 1883.82   79.30
   1   1   1 1813.65   78.58
  -1  -1  -1 1837.11   78.50
  -1  -1  -1 1765.52   79.78
   1   1   1 1816.98   79.38
   1   1   1 1741.68   77.95
  -1  -1  -1 1856.50   77.97
   2   1   1  724.40   30.96
   2   1   1  744.10   32.82
  -2  -1  -1  745.19   33.50
  -2  -1  -1  721.89   32.51
  -2  -1  -1  690.36   32.82
   2   1   1  673.38   32.83
  -2  -1  -1  697.62   30.84
   2   1   1  793.98   34.02
  -2  -1  -1  757.85   32.44
  -3  -1  -1 2030.14   90.93
   3   1   1 2062.43   89.16
  -3  -1  -1 2110.37   89.55
   3   1   1 2053.24   89.18
   3   1   1 1913.81   89.46
  -3  -1  -1 2147.21   88.42
   3   1   1 2018.48   91.65
  -3  -1  -1 1841.32   83.36
   3   1   1 2105.16   84.05
  -4  -1  -1   26.10    3.84
  -4  -1  -1   41.21    5.29
   4   1   1   32.96    5.04
   4   1   1   35.61    3.55
  -4  -1  -1   56.56    4.81
   4   1   1   34.47    4.79
   5   1   1 1720.80   74.82
   5   1   1 1620.88   77.35
  -5  -1  -1 1634.14   70.73
  -5  -1  -1 1717.04   77.89
  -6  -1  -1    3.10    3.94
   6   1   1   -0.34    2.57
   6   1   1    6.31    2.75
  -6  -1  -1    6.80    3.35
  -7  -1  -1  148.85   12.94
  -7  -1  -1  149.08   11.00
   7   1   1  141.62   12.86
  -8  -1  -1  210.14   16.94
  -8  -1  -1  216.55   14.57
  -8  -1  -1  208.30   17.25
  -9  -1  -1  114.54   13.78
  -9  -1  -1  116.81   14.19
  -8   2   1  106.22   14.19
  -8   2   1   96.20   12.64
  -7   2   1    5.56    5.28
  -7   2   1    2.43    4.57
   7  -2  -1    3.88    3.89
   6  -2  -1 1035.68   50.64
  -6   2   1 1012.02   47.72
  -6   2   1 1041.67   51.48
  -6   2   1  990.42   53.81
  -6   2   1 1044.70   46.06
  -5   2   1  168.30   10.86
  -5   2   1  170.03   12.82
  -5   2   1  156.00   13.90
   5  -2  -1  159.60   11.95
  -5   2   1  192.57   11.25
  -4   2   1 1150.01   51.60
  -4   2   1 1251.44   49.63
  -4   2   1 1105.58   55.92
  -4   2   1 1128.84   53.52
   4  -2  -1 1050.61   53.32
  -3   2   1   18.87    3.79
  -3   2   1   14.21    4.13
  -3   2   1   16.82    3.11
   3  -2  -1   18.39    3.63
  -3   2   1   21.46    4.05
  -2   2   1 1132.16   48.92
   2  -2  -1 1020.04   50.17
   2  -2  -1 1111.04   51.20
  -2   2   1 1106.88   50.43
  -2   2   1 1111.44   49.51
   1  -2  -1 7379.46  341.34
   1  -2  -1 8156.40  333.17
  -1   2   1 8112.26  336.00
  -1   2   1 7908.97  333.15
   1  -2  -1 7590.65  339.61
  -1   2   1 7819.65  341.29
   0  -2  -1 1122.85   52.93
   0   2   1 1141.17   52.88
   0  -2  -1 1220.31   51.19
   0   2   1 1208.66   51.35
   0   2   1 1178.93   51.67
   1   2   1   40.10    2.74
  -1  -2  -1   38.55    2.83
  -1  -2  -1   41.19    3.81
   1   2   1   33.88    3.70
   1   2   1   39.99    3.70
  -1  -2  -1   37.59    3.89
  -1  -2  -1   38.17    3.34
   1   2   1   51.01    3.97
   1   2   1   39.94    3.79
  -2  -2  -1 3231.12  132.54
   2   2   1 2964.11  131.32
   2   2   1 3073.68  134.08
  -2  -2  -1 2965.76  133.90
   2   2   1 2902.06  130.52
  -2  -2  -1 2949.36  123.40
  -2  -2  -1 3129.95  131.37
   2   2   1 3001.42  132.58
   2   2   1 2986.19  123.41
  -2  -2  -1 3180.56  130.61
  -3  -2  -1  977.36   42.94
  -3  -2  -1  988.79   43.01
  -3  -2  -1  961.59   44.66
   3   2   1  940.17   43.73
  -3  -2  -1  935.93   40.91
   3   2   1  930.43   43.07
   4   2   1 3208.63  142.19
  -4  -2  -1 3154.82  132.24
  -4  -2  -1 3233.42  143.97
   4   2   1 3329.71  140.46
  -5  -2  -1   68.38    6.32
   5   2   1   77.33    5.94
  -5  -2  -1   61.07    7.45
   5   2   1   58.69    6.98
   5   2   1   74.66    7.67
  -6  -2  -1   17.02    5.39
   6   2   1   16.78    4.75
  -6  -2  -1   16.21    4.28
   6   2   1   20.00    5.17
   6   2   1   22.01    3.59
   7   2   1   -4.01    2.73
  -7  -2  -1   -2.41    3.84
   7   2   1   -1.22    2.23
  -7  -2  -1   -2.89    2.76
   7   2   1    4.09    3.51
  -8  -2  -1  818.88   42.36
  -8  -2  -1  722.60   41.84
  -8  -2  -1  792.43   37.69
  -9  -2  -1   30.15    8.65
  -9  -2  -1   32.41    8.51
  -9  -2  -1   31.37    6.89
  -7   3   1  172.08   17.12
   7  -3  -1  174.13   14.76
  -7   3   1  166.27   15.04
  -6   3   1   82.24   12.14
   6  -3  -1   92.96   10.38
  -6   3   1  108.06   11.42
  -6   3   1  129.46    9.86
  -5   3   1  697.63   34.51
  -5   3   1  733.86   36.77
  -5   3   1  697.78   39.26
  -5   3   1  715.89   33.44
   5  -3  -1  664.17   36.30
   4  -3  -1   31.89    5.61
  -4   3   1   42.91    5.67
  -4   3   1   41.69    7.45
  -4   3   1   37.69    5.87
  -4   3   1   45.83    5.84
  -3   3   1  798.74   38.44
  -3   3   1  800.44   37.63
  -3   3   1  794.05   37.12
   3  -3  -1  776.55   38.51
   3  -3  -1  742.31   39.24
   2  -3  -1 2481.45  114.98
  -2   3   1 2605.05  112.94
  -2   3   1 2651.19  112.56
   2  -3  -1 2572.11  116.09
  -2   3   1 2574.23  114.70
   1  -3  -1 2165.27   97.25
  -1   3   1 2185.08   94.56
  -1   3   1 2144.40   93.96
   1  -3  -1 2102.40   96.57
  -1   3   1 2211.10   94.19
   0   3   1  501.30   21.34
   0   3   1  478.99   22.96
   0  -3  -1  451.52   23.53
   0   3   1  453.36   23.27
   1   3   1 2362.64  104.33
  -1  -3  -1 2363.02  106.84
   1   3   1 2339.92  106.03
   1   3   1 2540.33   98.63
  -2  -3  -1 1662.16   70.14
  -2  -3  -1 1555.43   67.02
   2   3   1 1620.92   71.01
   2   3   1 1581.94   71.78
  -2  -3  -1 1619.63   72.88
  -3  -3  -1   -1.43    1.64
   3   3   1   -0.65    1.61
   3   3   1   -0.49    2.04
  -3  -3  -1   -2.91    2.10
   4   3   1  464.04   23.51
  -4  -3  -1  468.90   22.69
   4   3   1  485.18   24.31
  -4  -3  -1  464.41   24.85
  -5  -3  -1   77.71    6.97
   5   3   1   64.82    7.12
   5   3   1   84.21    7.47
  -5  -3  -1   60.50    7.61
  -6  -3  -1  442.75   26.11
   6   3   1  487.35   25.63
   6   3   1  488.34   24.18
  -6  -3  -1  449.48   23.35
   6   3   1  425.22   25.64
   7   3   1  217.73   15.85
   7   3   1  180.69   14.58
  -7  -3  -1  205.69   15.71
  -7  -3  -1  193.97   13.27
  -8  -3  -1    3.20    3.99
  -8  -3  -1   -2.95    4.36
  -8  -3  -1   -0.09    4.17
  -9  -3  -1   -0.41    4.74
  -9  -3  -1    0.21    4.41
  -9  -3  -1   -2.98    5.28
  -7   4   1  345.42   23.35
   7  -4  -1  300.99   22.34
  -7   4   1  365.08   26.84
   6  -4  -1  147.00   13.44
  -6   4   1  126.87   15.16
  -6   4   1  144.42   13.31
  -5   4   1    4.66    4.97
  -5   4   1    6.48    3.74
  -5   4   1    7.87    4.02
  -5   4   1   -1.19    3.74
   5  -4  -1    2.48    3.98
  -4   4   1  183.90   12.43
  -4   4   1  165.93   12.49
   4  -4  -1  152.71   12.72
   3  -4  -1  200.59   13.95
   3  -4  -1  200.23   14.66
  -3   4   1  201.12   13.15
  -3   4   1  206.84   12.94
   2  -4  -1 3175.14  144.69
   2  -4  -1 3077.75  143.44
  -2   4   1 3191.02  140.44
  -2   4   1 3263.76  142.74
  -2   4   1 3353.48  140.46
  -1   4   1    0.34    2.14
  -1   4   1    5.47    1.89
  -1   4   1    2.70    2.36
   1  -4  -1    3.50    2.67
   0   4   1  291.13   12.95
   0   4   1  292.99   13.27
   0  -4  -1  272.02   16.25
   0   4   1  273.56   15.89
   0   4   1  272.61   15.67
   1   4   1  778.65   36.47
   1   4   1  737.88   35.81
  -1  -4  -1  756.25   36.77
  -2  -4  -1  692.34   29.07
   2   4   1  637.88   31.37
   2   4   1  619.72   31.48
  -2  -4  -1  645.27   32.29
   3   4   1  249.27   14.31
   3   4   1  252.47   14.31
  -3  -4  -1  241.73   15.00
  -3  -4  -1  236.76   13.58
   4   4   1  103.36    8.35
  -4  -4  -1  104.19    9.23
   4   4   1  100.10    8.17
  -4  -4  -1   94.31    7.83
   5   4   1 1326.39   59.33
   5   4   1 1244.13   60.34
  -5  -4  -1 1249.37   61.43
  -5  -4  -1 1303.73   56.43
   6   4   1   26.47    5.46
  -6  -4  -1   29.48    5.49
  -6  -4  -1   21.11    5.98
   6   4   1   24.91    5.83
   7   4   1  292.81   19.72
   7   4   1  299.46   17.69
  -7  -4  -1  284.63   18.61
  -7  -4  -1  305.40   17.95
   7   4   1  286.61   18.93
  -7  -4  -1  257.57   19.41
  -8  -4  -1   52.86    9.78
  -8  -4  -1   41.13    8.12
  -8  -4  -1   58.01    8.29
  -9  -4  -1   24.44    6.67
  -9  -4  -1   20.53    6.83
  -9  -4  -1    6.45    6.67
  -6   5   1   22.33    8.03
  -6   5   1   19.89    6.84
  -6   5   1   14.43    6.19
  -5   5   1   -0.99    4.16
  -5   5   1    6.31    4.34
  -5   5   1    7.15    4.60
  -5   5   1    7.82    4.70
  -5   5   1    7.50    4.14
  -4   5   1  646.79   34.38
   4  -5  -1  643.33   37.35
  -4   5   1  685.99   34.39
  -3   5   1  140.20   10.11
  -3   5   1  124.64   11.25
  -3   5   1  117.19   10.47
   3  -5  -1  118.15   11.74
  -2   5   1   34.67    4.78
  -2   5   1   34.25    6.30
   2  -5  -1   41.48    7.09
  -2   5   1   34.12    6.06
   1  -5  -1   91.40    8.93
  -1   5   1   82.78    8.08
  -1   5   1   89.87    6.32
  -1   5   1   97.44    8.99
   0   5   1   22.11    4.91
   0   5   1   23.50    4.85
   0  -5  -1   38.05    5.85
   1   5   1 3027.79  132.41
  -1  -5  -1 3024.16  135.77
   1   5   1 2991.85  134.64
  -2  -5  -1   69.34    7.45
   2   5   1   52.02    6.33
   2   5   1   49.03    6.30
   3   5   1    4.45    3.03
  -3  -5  -1   -0.07    2.86
   3   5   1    3.53    3.09
  -3  -5  -1    1.23    1.51
  -3  -5  -1    1.27    1.62
  -4  -5  -1  371.42   21.13
  -4  -5  -1  430.57   23.88
   4   5   1  414.73   22.49
   4   5   1  402.30   22.41
  -4  -5  -1  420.06   20.53
   5   5   1   90.29    8.59
  -5  -5  -1   86.02    8.43
  -5  -5  -1   87.59    9.87
   5   5   1   72.49    8.33
  -5  -5  -1   82.01    7.28
   6   5   1  360.07   20.27
  -6  -5  -1  340.02   21.58
   6   5   1  286.35   20.03
  -6  -5  -1  311.02   18.87
  -6  -5  -1  332.00   19.00
   7   5   1   -4.99    3.56
  -7  -5  -1   -0.84    3.24
   7   5   1    3.56    4.12
  -7  -5  -1   -1.30    3.52
   7   5   1   -2.32    3.41
  -7  -5  -1   -5.12    4.08
  -8  -5  -1   27.63    8.15
  -8  -5  -1   30.45    6.67
  -8  -5  -1   32.98    7.17
  -9  -5  -1   36.28    7.91
  -9  -5  -1   40.41    9.01
  -9  -5  -1   24.89    8.83
  -5   6   1  198.07   15.75
  -5   6   1  201.58   16.83
  -5   6   1  200.56   18.46
   4  -6  -1   24.96    7.82
  -4   6   1   31.89    7.35
  -4   6   1   31.09    7.30
   3  -6  -1  282.30   20.67
  -3   6   1  256.04   18.84
  -3   6   1  302.19   19.13
   2  -6  -1    8.87    4.89
  -2   6   1   10.74    4.60
  -2   6   1    7.70    4.66
  -1   6   1  437.60   25.47
   1  -6  -1  462.27   27.05
  -1   6   1  473.99   26.37
   0   6   1  776.12   39.39
   0   6   1  785.19   40.11
   0  -6  -1  793.38   40.90
   1   6   1   88.86    8.42
   1   6   1   88.37    9.26
  -1  -6  -1   95.98    9.41
  -2  -6  -1    9.84    4.44
   2   6   1   18.18    4.89
   2   6   1   17.83    4.96
   3   6   1    7.65    3.92
  -3  -6  -1   10.21    4.65
   3   6   1   13.78    4.66
   4   6   1  805.69   40.07
  -4  -6  -1  820.16   36.47
  -4  -6  -1  766.64   41.30
   4   6   1  775.91   40.07
  -5  -6  -1   14.74    5.75
   5   6   1   23.33    5.77
  -5  -6  -1   25.69    4.28
  -5  -6  -1   25.96    5.80
   5   6   1   23.35    5.81
  -6  -6  -1   31.91    6.62
  -6  -6  -1   21.57    6.65
   6   6   1   36.88    7.41
   6   6   1   28.74    6.39
  -6  -6  -1   23.56    5.11
  -7  -6  -1   27.95    5.98
   7   6   1   26.49    7.03
  -7  -6  -1   21.02    5.75
  -7  -6  -1   25.67    7.61
  -8  -6  -1    6.35    4.80
  -8  -6  -1    3.75    6.11
  -8  -6  -1    4.24    4.54
  -9  -6  -1  196.17   18.69
  -9  -6  -1  189.14   15.80
   4  -7  -1   63.26   12.06
  -4   7   1   76.66   11.24
  -4   7   1   97.12   12.08
   3  -7  -1   -0.17    4.49
  -3   7   1    5.21    4.72
  -3   7   1   -1.43    4.28
  -2   7   1  145.81   13.63
   2  -7  -1  184.51   16.01
  -2   7   1  177.30   14.93
   1  -7  -1    1.25    4.22
  -1   7   1    3.39    4.07
  -1   7   1    4.87    4.42
   0   7   1  542.50   31.29
   0   7   1  584.76   32.20
   0  -7  -1  595.88   33.19
   1   7   1   -1.17    3.39
   1   7   1    2.09    3.49
  -1  -7  -1   -0.62    3.56
   2   7   1   69.15    8.97
  -2  -7  -1   68.76    9.45
   2   7   1   76.78    9.30
   3   7   1  562.74   31.61
   3   7   1  550.04   31.14
  -3  -7  -1  627.26   33.38
   4   7   1   53.82    8.29
   4   7   1   73.59    9.11
  -4  -7  -1   55.50    9.08
   5   7   1   27.66    6.77
  -5  -7  -1   34.02    7.99
   5   7   1   23.52    6.56
   6   7   1   79.58   10.31
   6   7   1   47.32    8.67
  -6  -7  -1   65.73   10.79
  -7  -7  -1  169.38   16.29
   7   7   1  160.77   14.89
  -7  -7  -1  179.02   14.42
  -8  -7  -1   19.36    7.07
  -8  -7  -1   29.51    8.92
  -2   8   1  114.89   13.41
  -2   8   1   75.80   11.55
   2  -8  -1   88.76   13.22
  -1   8   1  203.77   17.40
  -1   8   1  224.97   17.47
   1  -8  -1  231.05   19.20
   0   8   1   18.23    6.06
   0  -8  -1   10.80    5.89
   0   8   1   17.58    5.98
  -1  -8  -1   29.93    7.64
   1   8   1   32.89    7.06
   1   8   1   41.22    8.29
  -2  -8  -1   66.16   10.25
   2   8   1   95.84   11.23
   2   8   1   96.90   11.12
   3   8   1  347.37   22.38
  -3  -8  -1  345.40   23.35
   3   8   1  303.68   21.21
   4   8   1   37.01    8.02
  -4  -8  -1   29.67    8.01
   4   8   1   33.02    7.66
   5   8   1    7.56    5.69
  -5  -8  -1   12.41    6.40
   5   8   1    2.96    4.71
  -6  -8  -1  133.67   15.52
   6   8   1  165.40   15.31
   6   8   1  164.61   14.90
  -7  -8  -1    0.91    5.95
   7   8   1    9.38    6.81
  -1   9   1    4.03    6.01
  -1   9   1    0.71    4.80
   1  -9  -1    3.16    6.59
   0   9   1    7.97    5.85
   0  -9  -1   16.45    7.21
   0   9   1    8.36    5.39
   1   9   1   68.70   11.19
  -1  -9  -1   78.66   12.51
   1   9   1   58.49   10.65
   2   9   1  203.02   17.05
   2   9   1  180.69   15.98
   3   9   1   24.02    7.76
  -3  -9  -1   21.22    7.74
   3   9   1   20.78    6.49
   4   9   1   48.30    9.71
   4   9   1   31.31    8.50
  -4  -9  -1   30.48    8.74
  -5  -9  -1   28.88    8.86
   5   9   1   25.30    7.83
   5   9   1   21.31    7.65
   6   9   1  130.49   15.33
   6   9   1  122.78   14.52
   5   9  -2    3.60    6.56
   5   9  -2   -7.21    4.34
  -4  -9   2   10.33    7.81
   4   9  -2   20.35    8.36
   4   9  -2   16.31    6.70
   3   9  -2  196.39   17.38
   3   9  -2  173.26   15.74
  -3  -9   2  129.44   16.78
   2   9  -2   -3.51    3.62
   2   9  -2    0.05    5.61
  -2  -9   2    3.19    6.41
   1   9  -2    5.72    6.25
  -1  -9   2    4.94    6.05
   1   9  -2    1.51    4.42
   0  -9   2   12.66    7.48
   0   9  -2   15.91    7.57
   6   8  -2    9.62    6.47
  -6  -8   2   10.21    7.48
   6   8  -2   11.83    7.19
   5   8  -2   46.52    8.90
  -5  -8   2   25.50    8.57
   5   8  -2   20.45    7.71
   4   8  -2  161.54   14.44
   4   8  -2  173.76   15.76
  -4  -8   2  182.45   17.11
   3   8  -2  128.46   12.84
   3   8  -2  144.97   14.36
  -3  -8   2  161.80   15.62
   2   8  -2   34.81    8.44
  -2  -8   2   56.90   10.31
   2   8  -2   39.90    8.08
  -1  -8   2   24.30    7.94
   1   8  -2    8.08    5.67
   1   8  -2   18.71    6.25
   0   8  -2  256.64   19.65
   0  -8   2  271.94   20.77
   0   8  -2  239.73   19.06
   1  -8   2   76.92   12.19
  -1   8  -2   73.68   11.00
  -1   8  -2   79.00   11.84
   2  -8   2  116.04   15.04
  -2   8  -2  122.92   14.17
  -2   8  -2   92.35   12.59
  -7  -7   2    6.35    7.10
   7   7  -2   11.77    7.05
  -6  -7   2   96.73   13.65
   6   7  -2   74.12   10.32
   6   7  -2   75.03   11.41
   5   7  -2    8.42    6.01
  -5  -7   2   17.60    7.08
   5   7  -2    6.73    4.56
   4   7  -2  203.99   16.49
  -4  -7   2  236.72   18.16
   4   7  -2  195.12   15.18
   3   7  -2   40.41    7.32
  -3  -7   2   35.20    8.10
   3   7  -2   30.16    7.37
  -2  -7   2   -6.64    3.14
   2   7  -2   -3.19    2.49
   2   7  -2   -0.56    3.92
  -1  -7   2  264.43   18.79
   1   7  -2  235.22   17.20
   1   7  -2  249.31   18.10
   0  -7   2   44.08    8.66
   0   7  -2   44.91    8.25
   0   7  -2   27.01    6.57
  -1   7  -2  225.12   17.35
   1  -7   2  233.59   18.10
  -1   7  -2  224.12   17.25
  -2   7  -2   12.69    5.96
   2  -7   2    9.82    6.08
  -2   7  -2    9.22    5.33
  -3   7  -2  135.66   14.44
  -3   7  -2  109.60   12.71
   3  -7   2   87.26   13.03
  -4   7  -2   65.65   10.88
   4  -7   2   43.47   10.29
  -4   7  -2   60.49   11.01
  -8  -6   2   36.37   10.30
  -7  -6   2   78.03   12.66
   7   6  -2   96.17   12.96
   7   6  -2   90.32   10.50
  -7  -6   2  108.86   10.88
   6   6  -2  120.65   10.71
  -6  -6   2  111.48   10.33
   6   6  -2  116.59   10.98
  -6  -6   2  119.73   14.27
   6   6  -2  101.85   12.49
  -5  -6   2  364.93   24.48
   5   6  -2  364.61   21.63
  -5  -6   2  373.81   20.03
   5   6  -2  354.85   20.61
   5   6  -2  334.48   22.78
   4   6  -2  134.98   12.38
   4   6  -2  155.63   11.77
  -4  -6   2  129.94   13.00
  -3  -6   2   38.84    7.59
   3   6  -2   55.18    8.10
   3   6  -2   40.88    6.61
   2   6  -2  102.85    9.69
  -2  -6   2  134.04   11.45
   2   6  -2  105.87   10.42
   1   6  -2  924.37   45.91
   1   6  -2  934.57   46.98
  -1  -6   2  939.06   47.46
   0  -6   2  167.37   13.58
   0   6  -2  151.30   12.71
   0   6  -2  200.65   14.19
  -1   6  -2    5.07    4.31
   1  -6   2   19.75    5.92
  -1   6  -2   14.80    5.07
   2  -6   2  420.65   25.40
  -2   6  -2  410.04   24.60
  -2   6  -2  366.82   23.79
  -3   6  -2   30.00    7.38
   3  -6   2   40.54    8.59
  -3   6  -2   33.95    7.51
   4  -6   2  400.96   26.92
  -4   6  -2  402.45   25.46
  -4   6  -2  396.28   25.11
  -5   6  -2   -2.39    4.12
  -5   6  -2    4.33    5.37
  -8  -5   2    4.67    4.86
  -8  -5   2   -4.62    5.68
  -8  -5   2   -3.08    3.68
  -7  -5   2  317.83   20.26
   7   5  -2  310.47   22.46
   7   5  -2  320.27   21.03
  -7  -5   2  316.98   23.47
   6   5  -2  162.83   15.20
  -6  -5   2  210.55   16.93
  -6  -5   2  195.90   13.51
   6   5  -2  175.82   13.65
   5   5  -2  249.59   18.19
   5   5  -2  243.59   16.00
   5   5  -2  286.95   16.62
  -5  -5   2  275.41   19.28
  -5  -5   2  254.18   15.74
   4   5  -2  105.05   10.35
   4   5  -2  121.46    8.77
  -4  -5   2  101.30    8.34
  -4  -5   2   98.27   11.22
   4   5  -2  121.95    9.48
  -3  -5   2   99.33   10.21
   3   5  -2   79.78    7.76
  -3  -5   2   80.61    6.54
   3   5  -2   92.73    8.97
   2   5  -2 1618.52   75.66
  -2  -5   2 1657.17   76.52
  -2  -5   2 1721.93   71.06
   2   5  -2 1487.71   73.53
  -1  -5   2   85.28    8.26
   1   5  -2   76.43    8.26
   1   5  -2   67.09    7.66
   0   5  -2   45.95    6.61
   0  -5   2   45.96    6.59
   0   5  -2   35.05    6.18
  -1   5  -2   60.72    7.68
   1  -5   2   74.26    8.23
  -1   5  -2   54.37    4.92
  -1   5  -2   60.09    7.96
  -2   5  -2  901.48   41.62
   2  -5   2  907.44   45.08
  -2   5  -2  908.03   44.41
  -2   5  -2  820.10   43.82
  -3   5  -2  324.93   20.93
   3  -5   2  363.71   22.14
  -3   5  -2  325.77   20.58
  -4   5  -2   63.88    8.61
   4  -5   2   67.23   10.12
  -4   5  -2   56.63    8.79
  -5   5  -2   23.90    6.61
  -5   5  -2   48.22    9.29
  -5   5  -2   26.84    6.70
  -5   5  -2   16.95    6.05
  -5   5  -2   28.32    6.40
  -6   5  -2   34.37    8.48
  -6   5  -2   30.04    7.28
  -6   5  -2   29.65    7.57
  -9  -4   2   14.44    8.51
  -9  -4   2   21.98    7.43
  -8  -4   2  171.53   15.03
  -8  -4   2  172.15   12.89
  -8  -4   2  167.28   16.97
  -7  -4   2  115.23   13.97
  -7  -4   2  128.26   10.35
   7   4  -2  114.98   12.63
   7   4  -2  162.78   13.33
  -7  -4   2  130.69   11.76
   6   4  -2  161.07   12.33
  -6  -4   2  155.70   11.96
   6   4  -2  138.88   10.71
  -6  -4   2  150.04   10.85
  -6  -4   2  160.74   14.45
   6   4  -2  144.24   13.64
  -5  -4   2   23.03    6.73
  -5  -4   2   19.32    4.57
   5   4  -2   15.14    6.06
  -5  -4   2   20.47    4.52
   5   4  -2   17.06    4.36
   5   4  -2   14.27    3.60
   4   4  -2 1037.23   53.88
  -4  -4   2 1178.02   55.62
   4   4  -2 1128.04   51.55
  -4  -4   2 1131.98   51.73
   4   4  -2 1130.36   52.35
  -3  -4   2  378.21   21.61
  -3  -4   2  362.86   18.41
   3   4  -2  366.60   19.33
   3   4  -2  348.59   20.45
   2   4  -2 1643.28   77.26
  -2  -4   2 1705.49   74.37
   2   4  -2 1673.27   75.49
  -2  -4   2 1735.50   78.28
   1   4  -2   94.21    8.65
   1   4  -2  107.58    8.37
  -1  -4   2  122.24    6.12
  -1  -4   2  103.58    8.68
   1   4  -2  117.55    5.98
   0   4  -2  334.99   18.43
   0   4  -2  316.57   15.72
   0   4  -2  322.99   18.19
   0  -4   2  329.42   18.34
   0  -4   2  332.20   15.31
   1  -4   2 2138.09   99.02
  -1   4  -2 2142.05   95.94
   1  -4   2 2287.35   95.46
  -1   4  -2 2193.66   98.69
  -1   4  -2 2143.74   97.36
   2  -4   2   33.54    5.45
  -2   4  -2   15.43    3.15
  -2   4  -2   19.01    4.79
  -2   4  -2   15.71    4.27
  -3   4  -2  533.13   28.67
  -3   4  -2  545.10   29.05
   3  -4   2  554.67   29.63
  -4   4  -2  248.37   16.49
   4  -4   2  250.38   17.31
  -4   4  -2  260.21   16.88
  -5   4  -2  583.30   30.00
  -5   4  -2  528.08   31.31
  -5   4  -2  510.65   29.23
  -5   4  -2  514.38   28.93
  -6   4  -2  338.66   21.10
  -6   4  -2  334.20   21.49
  -6   4  -2  309.76   22.86
  -6   4  -2  326.19   21.04
  -6   4  -2  342.86   21.66
  -7   4  -2   12.08    5.75
  -9  -3   2   -2.35    6.45
  -9  -3   2    5.54    5.91
  -8  -3   2  529.97   31.06
  -8  -3   2  515.66   26.84
  -8  -3   2  542.61   33.67
  -7  -3   2  252.74   19.61
  -7  -3   2  274.75   15.53
  -7  -3   2  233.51   17.12
   7   3  -2  242.93   18.13
   7   3  -2  259.88   17.65
  -6  -3   2   25.57    5.45
   6   3  -2   16.73    4.13
   6   3  -2   19.37    5.03
   6   3  -2   23.54    6.23
  -6  -3   2   27.74    6.96
  -6  -3   2   18.61    4.39
   5   3  -2 1404.08   62.58
  -5  -3   2 1319.29   57.00
  -5  -3   2 1257.63   61.18
   5   3  -2 1450.40   59.86
  -5  -3   2 1232.09   64.12
   5   3  -2 1251.79   63.77
   4   3  -2  549.51   28.51
  -4  -3   2  583.73   30.95
   4   3  -2  583.32   27.29
  -4  -3   2  581.19   26.62
  -4  -3   2  563.90   28.24
   4   3  -2  568.76   30.54
  -3  -3   2 1038.48   47.07
   3   3  -2 1012.17   47.34
   3   3  -2 1005.88   46.51
   3   3  -2 1052.20   49.17
  -3  -3   2 1056.43   49.95
  -2  -3   2  328.74   18.34
   2   3  -2  314.30   16.75
   2   3  -2  316.49   17.81
  -2  -3   2  349.20   16.39
   1   3  -2  324.25   17.02
   1   3  -2  355.30   15.59
   1   3  -2  338.53   17.77
  -1  -3   2  347.56   17.87
  -1  -3   2  290.31   15.84
   0   3  -2 1972.78   87.10
   0   3  -2 1900.16   84.52
   0  -3   2 1956.12   87.15
   0   3  -2 1891.65   85.52
   0  -3   2 1982.76   84.27
  -1   3  -2 1031.90   48.52
   1  -3   2 1068.38   46.72
  -1   3  -2 1022.07   46.55
   1  -3   2 1056.07   48.61
  -1   3  -2 1042.50   48.21
   2  -3   2  752.69   34.20
  -2   3  -2  715.32   35.03
   2  -3   2  700.77   35.21
  -2   3  -2  730.37   33.88
  -3   3  -2  380.27   20.39
   3  -3   2  372.62   20.96
  -4   3  -2  806.21   39.32
  -4   3  -2  797.36   40.92
  -5   3  -2    7.41    3.77
  -5   3  -2    5.32    4.30
  -5   3  -2   -3.79    3.12
  -6   3  -2  424.55   23.44
  -6   3  -2  350.64   22.14
  -6   3  -2  374.27   22.22
  -6   3  -2  403.92   25.29
  -7   3  -2   22.87    6.80
  -7   3  -2   24.27    6.88
  -7   3  -2   34.62    8.22
  -9  -2   2  270.66   23.01
  -9  -2   2  287.85   21.50
  -8  -2   2    6.18    5.02
  -8  -2   2    2.31    6.00
  -7  -2   2    6.39    5.77
  -7  -2   2   21.31    4.71
  -7  -2   2   14.42    5.58
   7   2  -2   25.94    5.62
   7   2  -2    6.71    4.91
   6   2  -2  208.87   14.77
  -6  -2   2  192.64   11.88
   6   2  -2  210.99   11.84
  -6  -2   2  181.59   15.52
  -6  -2   2  177.49   13.68
   6   2  -2  207.94   14.25
   5   2  -2 1362.58   61.20
   5   2  -2 1110.25   57.33
  -5  -2   2 1261.00   62.59
  -5  -2   2 1405.88   56.65
  -5  -2   2 1267.76   59.89
  -5  -2   2 1345.55   55.11
   5   2  -2 1246.16   61.25
  -4  -2   2 1780.26   81.60
   4   2  -2 1530.36   83.28
   4   2  -2 1911.35   79.51
  -4  -2   2 1850.29   75.68
   4   2  -2 1833.90   82.62
  -4  -2   2 1859.43   84.77
  -4  -2   2 1949.32   78.99
  -3  -2   2   37.50    3.86
   3   2  -2   37.25    4.24
  -3  -2   2   46.51    5.90
   3   2  -2   36.46    3.44
   3   2  -2   45.64    4.22
  -3  -2   2   43.70    3.63
  -3  -2   2   37.55    4.36
   3   2  -2   38.32    5.78
  -2  -2   2 1186.21   49.98
   2   2  -2 1096.46   50.73
  -2  -2   2 1180.78   50.77
   2   2  -2 1098.58   52.20
   2   2  -2 1188.24   47.79
   2   2  -2  998.61   49.71
  -2  -2   2 1198.04   52.95
  -1  -2   2  442.42   20.24
   1   2  -2  404.20   21.02
   1   2  -2  397.41   20.14
   1   2  -2  432.17   21.07
  -1  -2   2  442.85   21.32
   1   2  -2  419.38   19.43
   1   2  -2  447.46   19.91
   0  -2   2 6334.99  276.19
   0   2  -2 6057.43  275.18
   0   2  -2 6308.12  278.48
   0  -2   2 6677.15  279.72
   0   2  -2 6428.74  273.54
   0   2  -2 6649.17  279.45
   1  -2   2   53.41    4.09
   1  -2   2   52.06    4.31
  -1   2  -2   52.31    4.33
  -1   2  -2   45.38    4.54
  -1   2  -2   51.08    4.13
   2  -2   2   28.97    3.74
  -2   2  -2   25.93    3.64
   2  -2   2   29.83    3.46
  -2   2  -2   24.17    3.33
   2  -2   2   25.43    3.50
  -3   2  -2  101.65    7.71
   3  -2   2  104.23    7.94
   3  -2   2  121.53    8.57
  -4   2  -2  812.90   40.50
   4  -2   2  803.40   39.88
  -4   2  -2  809.90   37.89
   5  -2   2  290.33   18.46
  -5   2  -2  296.87   18.92
  -5   2  -2  274.77   17.09
  -6   2  -2   21.35    5.43
   6  -2   2   16.08    5.43
  -6   2  -2   14.17    5.59
  -7   2  -2  230.16   16.32
  -7   2  -2  226.42   17.67
  -8   2  -2   31.71    7.91
  -9  -1   2   76.80   13.32
  -9  -1   2   68.29   11.41
  -8  -1   2   53.38   10.58
  -8  -1   2   29.13    7.78
   7   1  -2  668.67   36.74
  -7  -1   2  635.65   35.33
  -7  -1   2  640.71   30.44
  -7  -1   2  644.71   37.45
   7   1  -2  662.21   34.08
  -6  -1   2  863.98   45.95
   6   1  -2  866.33   44.59
  -6  -1   2  806.98   43.22
   6   1  -2  897.47   43.08
  -6  -1   2  909.07   38.70
  -5  -1   2    5.97    2.51
   5   1  -2    3.85    3.08
  -5  -1   2    7.68    3.42
  -5  -1   2    7.52    1.76
   5   1  -2    0.13    2.49
  -5  -1   2    1.25    3.94
  -4  -1   2  219.79   10.39
   4   1  -2  184.47   12.88
   4   1  -2  222.77   13.64
  -4  -1   2  220.58   14.73
   4   1  -2  226.29   11.13
   4   1  -2  241.48   11.90
  -4  -1   2  193.54   12.79
  -4  -1   2  199.76   10.90
  -3  -1   2   53.35    5.31
   3   1  -2   60.71    5.32
  -3  -1   2   53.07    6.25
   3   1  -2   43.08    5.68
   3   1  -2   61.60    3.99
  -3  -1   2   59.04    3.53
  -3  -1   2   54.15    4.13
   3   1  -2   55.37    4.21
   2   1  -2 1818.49   94.60
  -2  -1   2 2070.51   95.12
   2   1  -2 2332.82   95.47
  -2  -1   2 2235.68   90.96
  -2  -1   2 2119.03   92.90
   2   1  -2 2136.22   93.60
  -2  -1   2 2142.65   86.22
   2   1  -2 2104.24   90.96
  -2  -1   2 2132.16   93.55
   1   1  -2  655.60   29.29
  -1  -1   2  668.50   30.31
   1   1  -2  653.19   30.39
   1   1  -2  657.17   30.11
  -1  -1   2  608.75   29.26
   1   1  -2  598.32   28.97
  -1  -1   2  701.21   30.62
   0  -1   2  945.58   41.04
   0   1  -2  872.15   40.92
   0   1  -2  907.24   41.36
   0  -1   2  955.69   41.48
   0   1  -2  923.45   41.11
  -1   1  -2 1369.65   59.84
   1  -1   2 1302.30   59.59
   1  -1   2 1347.99   59.98
  -1   1  -2 1377.72   59.57
   1  -1   2 1269.04   59.44
   1  -1   2 1421.93   60.07
  -1   1  -2 1387.17   60.04
   2  -1   2    3.33    1.55
  -2   1  -2    0.76    1.17
  -2   1  -2    1.15    1.35
  -2   1  -2    1.21    1.26
   2  -1   2    1.88    1.57
   2  -1   2    1.95    1.38
   3  -1   2 7254.33  303.91
  -3   1  -2 6619.59  284.38
   3  -1   2 7398.02  305.45
   3  -1   2 6739.07  306.02
  -3   1  -2 6856.70  307.95
  -3   1  -2 7339.93  307.10
  -4   1  -2  565.40   26.11
   4  -1   2  522.17   27.24
   4  -1   2  491.69   27.04
  -4   1  -2  566.22   27.86
   4  -1   2  516.16   25.61
   5  -1   2   83.92    8.43
   5  -1   2   62.14    6.05
  -5   1  -2   66.91    7.29
  -5   1  -2   79.59    8.51
  -6   1  -2   66.11    8.76
   6  -1   2   65.51    6.67
  -6   1  -2   71.85    8.21
   6  -1   2   60.92    8.48
   7  -1   2  157.54   14.52
  -7   1  -2  159.84   13.87
  -7   1  -2  186.50   13.31
  -8   1  -2  452.95   28.75
  -8   1  -2  468.39   26.02
  -8   0   2  167.43   15.16
  -8   0   2  175.27   17.24
  -7   0   2   81.96   12.09
  -7   0   2  104.91   11.50
   7   0  -2  117.54   10.19
   6   0  -2  670.84   35.62
   6   0  -2  650.52   33.45
  -6   0   2  699.99   29.97
  -6   0   2  585.66   33.99
  -6   0   2  643.59   36.46
  -5   0   2  398.34   19.11
  -5   0   2  425.32   19.18
  -5   0   2  422.15   22.89
   5   0  -2  396.64   23.20
   5   0  -2  404.35   22.01
  -5   0   2  377.73   24.08
   4   0  -2   -0.55    2.02
  -4   0   2    1.11    2.02
  -4   0   2    1.13    2.19
  -4   0   2   -0.19    1.40
  -4   0   2    1.51    1.28
  -4   0   2   -0.92    2.66
   4   0  -2    4.16    2.44
   4   0  -2    0.71    1.90
  -3   0   2 5800.75  232.37
  -3   0   2 5923.54  252.53
  -3   0   2 5182.65  254.51
   3   0  -2 5773.39  232.78
   3   0  -2 5876.76  252.65
  -3   0   2 6041.03  246.49
   3   0  -2 5876.86  252.44
   2   0  -2  163.46    7.36
   2   0  -2  147.63    8.98
   2   0  -2  152.08   10.13
   2   0  -2  146.27    9.26
  -2   0   2  137.07    9.81
  -2   0   2  134.64    8.79
  -2   0   2  148.42    8.81
  -2   0   2  143.55    6.98
   1   0  -2 2965.27  133.26
  -1   0   2 2917.71  127.84
   1   0  -2 2932.32  128.59
  -1   0   2 3015.27  126.34
   1   0  -2 2914.20  127.94
   1   0  -2 2915.24  119.57
  -1   0   2 2771.92  128.47
   0   0   2   85.16    5.36
   0   0   2   86.91    4.85
   0   0  -2   82.41    5.31
   0   0  -2   79.80    4.82
   0   0   2   82.94    5.39
   0   0  -2   80.40    5.29
  -1   0  -2  841.37   36.41
   1   0   2  769.99   34.94
   1   0   2  743.86   35.13
  -1   0  -2  696.43   35.01
  -1   0  -2  775.93   33.04
  -1   0  -2  817.58   34.76
  -1   0  -2  811.47   35.00
   1   0   2  806.74   34.63
  -2   0  -2 5561.69  271.79
  -2   0  -2 6583.96  277.13
   2   0   2 5973.87  272.12
  -2   0  -2 6573.81  276.47
  -2   0  -2 6312.20  256.65
   2   0   2 6596.17  256.81
   2   0   2 6551.43  277.87
  -2   0  -2 6621.83  278.02
   2   0   2 6571.91  274.25
  -3   0  -2  470.10   22.59
   3   0   2  465.12   23.99
  -3   0  -2  483.18   24.36
  -3   0  -2  496.69   23.87
  -3   0  -2  511.47   22.48
   3   0   2  543.41   24.41
   3   0   2  453.34   23.90
   3   0   2  472.19   22.33
   4   0   2  769.68   38.85
  -4   0  -2  858.17   36.62
   4   0   2  778.55   38.98
   4   0   2  805.89   36.86
  -4   0  -2  834.38   38.99
  -5   0  -2    0.39    2.33
   5   0   2   -1.73    1.96
   5   0   2   -0.04    1.60
  -5   0  -2   -1.91    2.60
   6   0   2 1121.82   56.42
   6   0   2 1201.31   53.09
  -6   0  -2 1112.26   55.99
  -6   0  -2 1160.09   51.60
   7   0   2  285.76   20.39
  -7   0  -2  315.50   18.17
  -7   0  -2  299.22   20.07
  -8   0  -2   65.11    8.68
  -8   0  -2   52.70    9.04
  -9   0  -2   -6.46    4.61
  -8   1   2   65.83   12.00
  -8   1   2  102.69   12.67
  -7   1   2  570.64   35.18
   7  -1  -2  587.89   31.92
  -7   1   2  589.28   33.46
  -6   1   2  336.29   21.25
  -6   1   2  340.96   17.21
  -6   1   2  327.98   22.77
   6  -1  -2  326.91   20.04
  -5   1   2   72.65    9.86
   5  -1  -2   74.66    7.76
  -5   1   2   86.12    5.85
  -5   1   2   74.82    8.38
  -5   1   2   77.69    6.55
  -5   1   2   75.58    6.06
  -4   1   2 1078.81   55.65
  -4   1   2 1214.78   50.42
  -4   1   2 1205.35   51.18
  -4   1   2 1105.11   53.29
  -4   1   2 1118.15   47.90
   4  -1  -2 1096.57   53.21
  -3   1   2 1038.57   50.71
  -3   1   2 1069.40   43.83
  -3   1   2 1004.70   48.37
  -3   1   2 1069.96   49.32
   3  -1  -2  999.82   48.58
  -3   1   2 1115.24   46.19
  -2   1   2 3802.19  153.11
  -2   1   2 3929.56  162.15
  -2   1   2 3825.76  164.75
  -2   1   2 3868.94  166.61
  -2   1   2 3713.26  168.09
   2  -1  -2 3652.55  166.17
  -1   1   2   -4.66    0.81
   1  -1  -2   -4.55    1.26
   1  -1  -2   -3.11    1.60
   1  -1  -2   -4.08    1.29
   1  -1  -2   -3.22    0.91
  -1   1   2   -2.25    1.50
  -1   1   2   -4.62    1.42
   0   1   2 1970.01   78.09
   0  -1  -2 1925.57   84.98
   0  -1  -2 1860.02   84.46
   0   1   2 1960.99   84.15
   0  -1  -2 1910.98   82.78
   0   1   2 1938.70   82.89
   0  -1  -2 1878.61   78.13
   0   1   2 1925.87   84.95
   0  -1  -2 2029.13   84.03
   0   1   2 1894.49   84.40
  -1  -1  -2  346.82   15.61
  -1  -1  -2  350.16   16.07
   1   1   2  360.26   16.49
   1   1   2  358.99   16.69
   1   1   2  334.55   15.52
  -1  -1  -2  352.35   16.60
  -1  -1  -2  351.18   16.40
  -1  -1  -2  367.77   16.74
   1   1   2  344.14   16.01
   1   1   2  324.62   16.45
  -2  -1  -2 4303.75  178.37
  -2  -1  -2 4333.20  192.97
   2   1   2 4260.90  190.55
   2   1   2 4361.59  201.20
  -2  -1  -2 4646.36  189.22
   2   1   2 4555.29  193.31
   2   1   2 4365.63  189.34
   2   1   2 4519.56  178.49
  -3  -1  -2  173.88    9.93
   3   1   2  159.37   10.40
  -3  -1  -2  184.99   10.31
   3   1   2  183.40   11.16
  -3  -1  -2  190.28   10.67
   3   1   2  170.51    8.55
   3   1   2  187.08   11.10
  -3  -1  -2  191.25    8.93
   4   1   2  926.89   42.22
  -4  -1  -2  921.81   39.21
  -4  -1  -2  909.56   40.29
  -4  -1  -2  893.53   41.96
   4   1   2  764.27   41.76
   4   1   2  895.96   39.67
   5   1   2 1160.90   55.96
  -5  -1  -2 1173.91   55.59
   5   1   2 1135.32   55.30
  -5  -1  -2 1206.50   51.46
   5   1   2 1195.09   52.76
  -6  -1  -2  235.15   14.07
   6   1   2  235.77   12.63
  -6  -1  -2  230.95   15.41
   6   1   2  207.09   15.31
  -7  -1  -2  131.56   10.62
  -7  -1  -2  142.85   12.24
   7   1   2  135.96   12.43
  -8  -1  -2   -3.85    4.30
  -8  -1  -2    2.04    4.11
  -9  -1  -2  277.62   20.33
  -9  -1  -2  234.60   19.46
  -9  -1  -2  239.52   17.13
  -8   2   2  268.14   20.83
  -8   2   2  246.59   21.68
  -7   2   2   14.89    5.90
   7  -2  -2   10.42    4.73
  -7   2   2   19.47    7.41
   6  -2  -2   -2.74    2.81
  -6   2   2    0.49    2.70
  -6   2   2    0.15    4.01
  -6   2   2   12.16    6.02
  -5   2   2  137.49   13.17
  -5   2   2  144.26    9.41
   5  -2  -2  143.35   11.41
  -5   2   2  149.78   11.89
  -5   2   2  157.97    9.67
  -4   2   2 3654.30  149.33
  -4   2   2 3737.99  161.62
  -4   2   2 3788.12  157.99
   4  -2  -2 3581.65  162.70
  -4   2   2 3555.83  165.81
   3  -2  -2   61.25    5.89
  -3   2   2   42.77    6.39
  -3   2   2   63.10    6.05
  -3   2   2   60.34    4.91
  -3   2   2   69.14    6.74
  -2   2   2    0.98    1.36
   2  -2  -2   -3.00    1.55
  -2   2   2    0.78    1.66
  -2   2   2    0.69    1.64
   2  -2  -2    0.47    1.76
  -1   2   2 1475.58   66.79
   1  -2  -2 1664.69   67.04
   1  -2  -2 1597.22   66.43
  -1   2   2 1528.02   66.19
  -1   2   2 1490.92   68.62
   1  -2  -2 1423.21   67.96
   1  -2  -2 1450.50   68.56
   0  -2  -2    5.23    1.65
   0  -2  -2    7.94    1.63
   0   2   2    7.92    1.65
   0  -2  -2   11.10    2.19
   0   2   2    8.77    2.14
   0   2   2    5.04    1.72
   0  -2  -2    7.43    1.97
   0   2   2    8.50    1.87
  -1  -2  -2 9812.96  406.03
   1   2   2 9954.24  414.08
   1   2   2 9484.95  415.62
  -1  -2  -2 9390.19  385.29
  -1  -2  -2 9090.83  411.44
   1   2   2 9466.23  410.66
  -1  -2  -2 9130.60  417.77
   1   2   2 9997.35  383.13
   1   2   2 9401.08  407.46
  -1  -2  -2 9856.69  415.23
  -2  -2  -2 2282.92   95.59
   2   2   2 2250.04   97.41
   2   2   2 2196.72   95.54
   2   2   2 2124.70   95.10
   2   2   2 2246.62   89.95
   2   2   2 2185.30   95.93
  -2  -2  -2 2085.42   89.79
  -2  -2  -2 2171.41   97.15
   3   2   2 2534.86  104.94
  -3  -2  -2 2268.39  104.00
   3   2   2 2228.95  102.54
   3   2   2 2307.48  102.70
   3   2   2 2292.94  101.99
  -3  -2  -2 2468.73  102.15
  -3  -2  -2 2275.63   96.28
   4   2   2  326.99   17.94
  -4  -2  -2  317.52   16.74
  -4  -2  -2  334.72   18.15
  -4  -2  -2  324.41   15.89
   4   2   2  332.61   16.36
   4   2   2  366.73   18.58
  -5  -2  -2 1947.18   90.81
   5   2   2 2068.39   90.29
   5   2   2 2049.09   87.91
  -5  -2  -2 1902.31   83.75
   6   2   2  523.94   30.81
  -6  -2  -2  631.29   28.74
   6   2   2  575.36   31.34
  -6  -2  -2  561.13   30.67
   6   2   2  600.03   27.55
  -7  -2  -2   -0.74    3.16
   7   2   2    0.59    3.48
   7   2   2   -2.22    3.10
  -7  -2  -2    0.54    4.02
  -8  -2  -2  332.47   20.30
  -8  -2  -2  362.08   23.03
  -9  -2  -2   32.24    8.93
  -9  -2  -2   29.25    8.07
  -9  -2  -2   35.31    7.66
   7  -3  -2   16.56    5.89
  -7   3   2    9.55    5.85
  -7   3   2   19.37    7.86
  -6   3   2  311.94   20.56
  -6   3   2  333.77   23.57
   6  -3  -2  270.43   19.48
  -5   3   2 1096.74   46.65
  -5   3   2 1038.68   48.75
  -5   3   2 1083.90   51.83
   5  -3  -2 1076.18   52.16
  -5   3   2  931.91   54.00
  -4   3   2   70.68    7.91
   4  -3  -2   87.26    8.35
  -4   3   2   84.40    7.07
  -4   3   2   66.57    9.31
  -4   3   2   91.98    7.40
   3  -3  -2   17.60    4.95
   3  -3  -2   14.04    3.93
  -3   3   2   12.01    3.62
  -3   3   2   13.84    3.32
   2  -3  -2   52.16    5.84
  -2   3   2   51.09    4.89
  -2   3   2   41.73    4.81
   2  -3  -2   57.14    6.50
  -2   3   2   54.12    5.92
   1  -3  -2 3896.56  184.24
  -1   3   2 4345.33  180.45
   1  -3  -2 4130.39  183.41
  -1   3   2 4324.53  179.53
   0  -3  -2  725.04   31.28
   0   3   2  683.62   32.38
   0   3   2  696.50   31.57
   0   3   2  704.91   30.38
   0  -3  -2  680.62   33.44
   1   3   2  316.61   16.18
   1   3   2  311.56   16.16
  -1  -3  -2  285.11   14.97
   1   3   2  329.38   15.35
  -1  -3  -2  336.30   16.75
  -1  -3  -2  297.79   14.95
   1   3   2  330.87   14.61
   2   3   2  785.71   36.50
  -2  -3  -2  757.26   34.48
   2   3   2  763.11   36.54
  -2  -3  -2  792.37   37.39
  -2  -3  -2  840.94   35.73
   2   3   2  815.33   35.59
   3   3   2  650.02   31.49
  -3  -3  -2  656.07   30.00
  -3  -3  -2  693.60   32.51
   3   3   2  666.45   31.03
   3   3   2  665.84   31.04
   4   3   2 3197.63  138.97
  -4  -3  -2 3136.72  141.39
   4   3   2 3151.31  138.13
   4   3   2 3179.75  139.74
  -4  -3  -2 3194.09  130.59
  -5  -3  -2    1.94    2.93
   5   3   2    4.75    2.80
  -5  -3  -2    7.14    3.73
   5   3   2    4.18    3.31
   6   3   2    9.58    4.26
   6   3   2    7.98    2.64
  -6  -3  -2    2.89    3.12
  -6  -3  -2   10.06    4.61
  -7  -3  -2   44.58    7.67
   7   3   2   48.89    8.45
   7   3   2   53.52    8.29
  -7  -3  -2   57.14    7.36
  -8  -3  -2  429.47   26.64
  -8  -3  -2  425.89   23.79
  -9  -3  -2   63.00   10.97
  -9  -3  -2   49.01    8.40
  -9  -3  -2   60.85   10.69
   7  -4  -2  275.40   20.86
  -7   4   2  308.26   24.55
  -7   4   2  250.15   20.31
  -6   4   2    3.08    4.43
  -6   4   2    1.86    5.01
   6  -4  -2    3.91    4.24
  -5   4   2  561.49   26.65
   5  -4  -2  494.19   29.59
  -5   4   2  547.17   27.54
  -5   4   2  452.90   31.16
  -5   4   2  510.48   29.12
  -4   4   2  154.52   11.79
   4  -4  -2  135.20   11.78
  -4   4   2  140.17   13.10
  -4   4   2  140.26   10.59
   3  -4  -2  301.99   19.54
   3  -4  -2  301.67   18.78
  -3   4   2  324.62   17.81
  -3   4   2  297.12   17.36
   2  -4  -2 2486.80  114.96
   2  -4  -2 2498.11  115.99
  -2   4   2 2635.54  112.23
  -2   4   2 2511.17  111.93
  -2   4   2 2596.37  114.58
   1  -4  -2  208.25   13.25
   1  -4  -2  203.24   13.35
  -1   4   2  218.85   11.37
  -1   4   2  188.21   12.23
   0  -4  -2  239.75   14.41
   0   4   2  222.92   13.58
   0   4   2  245.16   12.03
   1   4   2  126.21    9.26
   1   4   2  139.76    6.84
  -1  -4  -2  132.45    9.69
  -1  -4  -2  158.79    7.00
   1   4   2  130.91    9.37
  -2  -4  -2 2602.45  105.56
   2   4   2 2475.06  105.19
   2   4   2 2400.00  108.02
  -2  -4  -2 2321.58  100.55
  -2  -4  -2 2363.53  109.15
   2   4   2 2409.66  106.72
   3   4   2  524.58   26.68
  -3  -4  -2  529.68   27.42
  -3  -4  -2  533.41   25.29
   3   4   2  545.45   26.36
  -4  -4  -2  675.07   34.28
   4   4   2  733.44   33.21
   4   4   2  655.59   33.11
  -4  -4  -2  648.11   31.55
   5   4   2   -1.23    2.47
   5   4   2   -0.41    3.01
  -5  -4  -2   -1.45    3.21
  -5  -4  -2   -0.02    2.62
   6   4   2   43.46    6.82
   6   4   2   50.25    6.44
  -6  -4  -2   35.53    6.75
  -6  -4  -2   47.76    6.72
   7   4   2  840.20   43.54
  -7  -4  -2  791.78   42.80
  -7  -4  -2  791.51   39.24
   7   4   2  861.29   42.80
  -8  -4  -2    0.56    3.99
   8   4   2   -1.57    4.05
  -8  -4  -2    3.73    5.34
  -9  -4  -2    9.07    6.02
  -9  -4  -2    2.03    4.61
  -9  -4  -2   -3.33    5.24
  -6   5   2  318.13   25.65
   6  -5  -2  330.99   23.39
  -6   5   2  342.42   22.87
  -5   5   2    2.64    4.85
   5  -5  -2   -1.21    3.67
  -5   5   2    0.46    3.43
  -5   5   2   -7.05    3.45
  -4   5   2  458.96   25.46
  -4   5   2  450.99   25.58
   4  -5  -2  459.53   27.45
  -3   5   2    0.53    2.78
   3  -5  -2   -1.15    3.45
   3  -5  -2   -3.08    2.63
  -3   5   2   -1.90    2.48
   2  -5  -2 1249.44   60.62
  -2   5   2 1253.08   58.64
  -2   5   2 1258.72   57.32
   2  -5  -2 1262.22   61.50
  -1   5   2  160.56   12.83
   1  -5  -2  188.90   13.71
  -1   5   2  196.58   12.94
  -1   5   2  213.02   11.10
   0   5   2    0.10    1.65
   0   5   2    1.15    1.02
   0   5   2    1.61    2.90
   0  -5  -2    1.49    2.65
   0   5   2   -2.59    1.90
   1   5   2 1108.88   51.13
  -1  -5  -2 1086.33   52.53
   1   5   2 1081.93   51.78
   2   5   2   13.80    3.77
  -2  -5  -2    9.53    3.73
   2   5   2    7.00    3.15
   3   5   2  436.52   23.25
  -3  -5  -2  425.97   24.16
  -3  -5  -2  496.40   21.34
  -3  -5  -2  410.56   22.17
   3   5   2  416.54   23.36
   4   5   2    7.81    3.79
   4   5   2   12.03    3.95
  -4  -5  -2    3.88    3.17
  -4  -5  -2    7.30    4.03
   5   5   2  549.42   29.12
  -5  -5  -2  530.80   29.99
   5   5   2  585.88   29.21
  -5  -5  -2  538.15   27.60
  -6  -5  -2  368.87   22.87
   6   5   2  358.88   21.86
   6   5   2  391.43   22.26
  -6  -5  -2  362.65   20.86
  -7  -5  -2  184.63   15.35
  -7  -5  -2  157.71   12.98
   7   5   2  199.52   14.96
  -8  -5  -2   24.15    6.30
  -8  -5  -2   18.52    7.26
   8   5   2   24.59    6.95
  -8  -5  -2   33.42    7.43
  -9  -5  -2   25.57    8.33
  -9  -5  -2   33.13    7.46
  -9  -5  -2   41.34    8.55
  -5   6   2   29.95    8.76
  -5   6   2   11.43    5.91
  -4   6   2   88.06   10.47
  -4   6   2   94.90   11.25
   4  -6  -2  105.45   13.76
  -3   6   2  642.45   34.07
   3  -6  -2  715.90   37.79
  -3   6   2  567.32   34.40
   2  -6  -2   -2.57    3.01
  -2   6   2   -0.04    3.08
  -2   6   2    1.36    3.98
  -1   6   2  255.31   17.40
  -1   6   2  264.52   17.04
   1  -6  -2  267.38   18.20
   0  -6  -2  118.41   10.83
   0   6   2  110.68   10.35
   0   6   2  124.90   10.35
  -1  -6  -2  558.51   30.05
   1   6   2  518.81   28.60
   1   6   2  557.70   29.33
  -2  -6  -2  541.54   29.61
   2   6   2  548.93   28.75
   2   6   2  529.28   28.69
   3   6   2   39.78    6.70
   3   6   2   25.85    5.49
  -3  -6  -2   37.02    6.75
  -4  -6  -2  202.53   13.67
   4   6   2  210.69   14.47
  -4  -6  -2  206.50   11.29
  -4  -6  -2  199.64   14.82
   4   6   2  181.02   13.58
  -5  -6  -2    4.48    4.37
   5   6   2    4.94    3.83
  -5  -6  -2   -1.03    3.03
   5   6   2    0.13    3.75
  -5  -6  -2    5.54    2.83
  -6  -6  -2  382.67   25.20
  -6  -6  -2  443.29   22.96
   6   6   2  445.67   24.90
  -6  -6  -2  380.60   23.08
   6   6   2  413.59   24.74
  -7  -6  -2    8.64    5.95
  -7  -6  -2    5.77    4.36
  -7  -6  -2   11.61    4.62
   7   6   2   17.17    6.26
  -8  -6  -2    4.39    4.48
   8   6   2   -2.10    4.27
  -8  -6  -2    6.05    5.99
  -8  -6  -2    3.06    4.45
  -9  -6  -2   93.67   11.80
  -9  -6  -2   97.22   13.63
  -9  -6  -2  116.64   12.41
  -4   7   2   66.85   10.11
  -4   7   2   82.36   11.83
   4  -7  -2   82.47   13.63
   3  -7  -2   56.15   11.26
  -3   7   2   58.16    9.81
  -3   7   2   46.84    8.64
  -2   7   2    1.47    3.45
   2  -7  -2    2.97    4.75
  -2   7   2    1.20    4.38
  -1   7   2  118.45   11.27
   1  -7  -2  108.91   12.79
  -1   7   2  135.24   12.30
   0   7   2  583.56   32.94
   0   7   2  569.95   32.08
   0  -7  -2  644.21   34.47
  -1  -7  -2    1.48    3.72
   1   7   2    0.21    3.23
   1   7   2    6.14    4.35
  -2  -7  -2    3.75    3.94
   2   7   2    1.36    3.22
   2   7   2   -0.17    3.68
  -3  -7  -2  248.17   17.62
   3   7   2  229.96   16.50
   3   7   2  241.64   16.56
  -4  -7  -2  238.75   17.19
   4   7   2  214.78   15.67
   4   7   2  218.86   16.12
  -5  -7  -2  143.71   13.84
   5   7   2  172.58   13.89
   5   7   2  167.27   13.49
   6   7   2    0.95    3.97
  -6  -7  -2   -4.71    4.33
  -6  -7  -2    2.67    4.33
   6   7   2   -2.97    4.28
   7   7   2   10.07    5.86
  -7  -7  -2   10.93    6.55
  -7  -7  -2    9.35    5.13
   8   7   2    6.87    5.70
  -8  -7  -2    3.79    4.82
  -8  -7  -2    1.17    5.92
  -3   8   2    6.82    5.51
   2  -8  -2   61.11   11.74
  -2   8   2   43.56    9.04
  -2   8   2   47.96    9.77
  -1   8   2  215.23   16.99
  -1   8   2  186.18   16.55
   1  -8  -2  242.57   19.10
   0   8   2   70.52   10.33
   0  -8  -2  106.51   12.83
   0   8   2   90.91   11.39
   1   8   2    1.78    4.10
   1   8   2    7.52    5.00
  -1  -8  -2    4.69    4.48
   2   8   2    0.57    3.63
   2   8   2    1.48    4.03
  -2  -8  -2    1.01    4.20
   3   8   2  245.45   18.24
   3   8   2  268.77   18.69
  -3  -8  -2  267.50   19.66
   4   8   2   23.03    6.53
  -4  -8  -2   31.65    7.63
   4   8   2   28.30    7.11
  -5  -8  -2   69.93   10.93
   5   8   2   85.17   10.79
   5   8   2   87.66   11.47
   6   8   2   16.70    6.56
   6   8   2   22.62    7.35
  -6  -8  -2   23.29    7.71
   7   8   2   23.57    8.11
  -7  -8  -2   26.43    8.63
  -1   9   2  147.86   15.78
   1  -9  -2  115.16   15.84
  -1   9   2  169.19   15.65
   0   9   2   -0.50    4.63
   0  -9  -2    1.73    5.61
   0   9   2    1.81    4.60
   1   9   2   60.00   10.32
  -1  -9  -2   75.05   12.30
   1   9   2   55.08   10.06
   2   9   2  158.79   14.04
  -2  -9  -2  106.84   13.94
   2   9   2  116.44   13.33
   3   9   2   34.66    7.92
  -3  -9  -2   40.96    9.46
   3   9   2   58.41   10.04
   4   9   2   18.93    6.80
  -4  -9  -2   11.28    6.58
   4   9   2   17.41    6.79
   5   9   2   13.59    6.42
  -5  -9  -2   13.15    7.21
   5   9   2   13.94    6.88
   6   9   2   38.93    9.55
   6   9   2   38.49    9.42
  -6  -9  -2   47.39   10.67
   4   9  -3    4.42    5.45
  -4  -9   3   -8.60    5.42
   4   9  -3    3.90    6.44
   3   9  -3   42.71    8.99
   3   9  -3   48.69   10.57
  -3  -9   3   68.38   13.18
  -2  -9   3   16.78    8.18
   2   9  -3    8.36    5.75
   2   9  -3   -0.17    5.56
  -1  -9   3  102.78   15.22
   1   9  -3  109.43   14.71
   6   8  -3   21.75    7.42
  -6  -8   3   28.14    9.59
   6   8  -3    5.11    6.54
   5   8  -3   26.31    7.58
  -5  -8   3   46.66   10.90
   5   8  -3   36.91    9.13
   4   8  -3   90.61   11.72
   4   8  -3   75.48   11.84
  -4  -8   3   90.65   13.78
  -3  -8   3  329.00   23.53
   3   8  -3  264.52   21.02
   3   8  -3  289.54   20.47
   2   8  -3  114.54   13.04
  -2  -8   3   96.53   13.02
   2   8  -3   67.88   10.19
  -1  -8   3   17.46    7.11
   1   8  -3   14.42    6.52
   1   8  -3   15.56    6.11
   0   8  -3   20.40    7.69
   0   8  -3   35.75    8.25
   0  -8   3   35.85    8.84
  -1   8  -3    3.09    5.05
   1  -8   3   -0.42    5.60
  -1   8  -3    8.91    6.41
   2  -8   3  290.39   22.78
  -2   8  -3  260.37   20.99
  -2   8  -3  268.11   21.35
   7   7  -3   19.29    8.05
  -7  -7   3    5.51    7.05
   6   7  -3   23.91    8.22
  -6  -7   3   38.68   10.10
   6   7  -3   39.46    8.26
   5   7  -3   31.00    8.41
  -5  -7   3   34.34    9.45
   5   7  -3   29.66    7.16
   4   7  -3  397.34   24.68
  -4  -7   3  431.45   28.12
   4   7  -3  428.43   26.83
  -3  -7   3   -0.12    4.70
   3   7  -3    4.60    3.94
   3   7  -3    0.95    4.35
   2   7  -3  213.78   16.71
   2   7  -3  197.39   15.52
  -2  -7   3  223.61   17.42
   1   7  -3   21.00    5.64
  -1  -7   3   12.81    6.18
   1   7  -3   25.92    7.12
   0   7  -3  187.16   15.44
   0  -7   3  194.15   16.09
   0   7  -3  209.99   16.36
   1  -7   3  206.69   16.51
  -1   7  -3  173.33   15.52
  -1   7  -3  167.96   15.12
   2  -7   3   47.15    9.72
  -2   7  -3   58.24    9.73
  -2   7  -3   58.30   10.32
  -3   7  -3    0.72    4.55
  -3   7  -3   -4.85    4.36
   3  -7   3    3.39    5.71
  -8  -6   3   99.38   15.31
   7   6  -3    6.04    6.04
  -7  -6   3   -6.83    5.14
   6   6  -3   41.99    7.26
   6   6  -3   45.45    9.63
  -6  -6   3   49.01   10.09
   5   6  -3  103.40   12.19
   5   6  -3  116.08   10.75
  -5  -6   3  134.99   14.54
   5   6  -3  119.41    9.68
   4   6  -3  647.43   30.75
   4   6  -3  577.66   34.17
   4   6  -3  618.26   32.67
  -4  -6   3  643.06   36.26
   3   6  -3   50.13    8.08
   3   6  -3   40.94    6.72
  -3  -6   3   49.25    8.67
  -2  -6   3    0.22    3.59
   2   6  -3    0.11    2.86
   2   6  -3    0.19    3.65
  -1  -6   3  810.33   40.82
   1   6  -3  751.13   40.10
   1   6  -3  747.75   39.18
   0  -6   3  143.02   12.30
   0   6  -3  144.82   12.50
   0   6  -3  122.14   11.41
   1  -6   3  893.82   45.56
  -1   6  -3  878.22   44.87
  -1   6  -3  849.31   44.81
  -2   6  -3   17.59    5.69
   2  -6   3   18.43    5.89
  -2   6  -3   13.88    5.42
   3  -6   3  167.14   14.74
  -3   6  -3  163.57   14.27
  -3   6  -3  148.10   13.43
  -4   6  -3  401.14   25.14
  -4   6  -3  380.50   25.48
   4  -6   3  418.14   27.01
  -5   6  -3    9.02    6.02
  -5   6  -3   11.37    6.09
  -8  -5   3    0.89    4.81
  -8  -5   3   -5.90    5.90
   8   5  -3   -0.68    4.86
  -7  -5   3   80.66   10.07
   7   5  -3   85.46   10.35
   7   5  -3   61.16   11.11
  -7  -5   3   76.64   12.54
  -6  -5   3   15.21    4.93
   6   5  -3   16.59    5.00
   6   5  -3   20.05    4.96
  -6  -5   3    4.76    5.62
   6   5  -3   16.86    6.75
  -5  -5   3 1298.95   64.76
  -5  -5   3 1291.38   59.85
   5   5  -3 1366.08   59.89
   5   5  -3 1267.04   60.09
   5   5  -3 1155.10   62.63
  -4  -5   3   65.18    6.62
   4   5  -3   56.08    5.88
   4   5  -3   59.00    7.13
   4   5  -3   53.52    8.13
  -4  -5   3   52.63    9.01
  -3  -5   3    1.89    3.83
  -3  -5   3    0.10    2.72
   3   5  -3   -0.42    3.66
   3   5  -3    0.72    1.93
   3   5  -3    0.46    2.67
  -2  -5   3  307.09   16.22
   2   5  -3  318.84   18.60
  -2  -5   3  339.37   20.21
   2   5  -3  327.71   19.74
   1   5  -3  442.22   26.33
  -1  -5   3  528.55   23.03
   1   5  -3  512.42   27.77
  -1  -5   3  487.63   27.45
   1   5  -3  530.58   23.03
   0   5  -3 1254.49   61.12
   0  -5   3 1319.85   61.52
   0   5  -3 1220.18   60.14
   0  -5   3 1322.50   56.48
  -1   5  -3    7.14    3.99
   1  -5   3    8.74    3.99
  -1   5  -3    5.76    4.08
  -2   5  -3  345.88   21.83
  -2   5  -3  370.92   21.81
   2  -5   3  364.70   21.87
  -3   5  -3    8.05    4.66
  -3   5  -3    5.20    4.11
   3  -5   3    5.97    4.28
   4  -5   3  344.30   22.33
  -4   5  -3  321.97   21.55
  -4   5  -3  330.85   21.11
  -5   5  -3   76.25   10.96
  -5   5  -3   86.58   11.21
  -5   5  -3   76.30   10.03
  -5   5  -3   95.66   11.78
  -6   5  -3   79.60   11.36
  -6   5  -3   56.23   10.39
  -9  -4   3   25.15    8.00
  -8  -4   3   20.17    7.03
  -8  -4   3   20.15    8.76
   8   4  -3   49.25    9.13
   7   4  -3  380.94   23.09
  -7  -4   3  346.07   24.81
   7   4  -3  286.85   22.46
  -7  -4   3  359.36   19.65
  -7  -4   3  350.31   22.05
   6   4  -3  483.34   26.07
  -6  -4   3  416.96   24.96
   6   4  -3  459.56   23.62
  -6  -4   3  455.74   28.68
   6   4  -3  413.28   27.36
  -5  -4   3   31.38    5.55
   5   4  -3   37.36    5.75
   5   4  -3   26.37    7.16
  -5  -4   3   44.78    8.23
   5   4  -3   34.54    5.17
   4   4  -3   71.28    6.69
  -4  -4   3   83.89    9.96
  -4  -4   3   76.15    7.26
   4   4  -3   70.29    8.87
   4   4  -3   74.35    6.64
   3   4  -3   13.33    2.75
  -3  -4   3   18.99    5.53
   3   4  -3   17.81    4.99
   3   4  -3    9.83    3.33
  -3  -4   3   15.11    3.47
   2   4  -3 3951.30  176.41
   2   4  -3 3876.52  172.29
  -2  -4   3 4031.73  177.73
  -2  -4   3 3852.06  172.69
   2   4  -3 4176.75  173.23
   1   4  -3  234.91   11.71
  -1  -4   3  245.60   12.08
   1   4  -3  204.50   13.47
   1   4  -3  218.75   14.38
  -1  -4   3  219.85   14.16
   0  -4   3  324.49   15.30
   0   4  -3  283.70   17.55
   0  -4   3  317.00   17.84
   0   4  -3  307.49   15.91
   0   4  -3  322.50   18.31
   1  -4   3  735.26   33.96
   1  -4   3  761.10   36.59
  -1   4  -3  721.11   36.50
  -1   4  -3  717.51   36.46
  -2   4  -3  678.61   35.54
  -2   4  -3  701.44   35.24
   2  -4   3  701.49   35.42
   2  -4   3  718.01   33.55
  -3   4  -3 1339.66   62.08
   3  -4   3 1281.95   62.63
  -3   4  -3 1318.43   62.30
   4  -4   3   11.14    4.87
  -4   4  -3   12.29    4.96
  -4   4  -3   18.36    5.38
  -5   4  -3  118.50   12.45
  -5   4  -3  112.70   10.21
  -5   4  -3   92.70   11.35
  -5   4  -3  102.63   11.23
  -6   4  -3   72.04    9.90
  -6   4  -3   91.96   11.55
  -6   4  -3   72.72    9.18
  -7   4  -3  329.87   22.47
  -7   4  -3  307.75   21.74
  -9  -3   3   19.34    7.34
  -9  -3   3   29.55   10.38
  -8  -3   3  297.70   21.38
  -8  -3   3  309.63   24.14
   8   3  -3  334.13   21.66
   7   3  -3   24.56    7.00
   7   3  -3   41.47    7.84
  -7  -3   3   31.82    7.27
  -7  -3   3   24.77    5.02
  -7  -3   3   24.18    7.96
  -6  -3   3  283.17   17.68
   6   3  -3  272.99   17.81
  -6  -3   3  279.83   15.23
   6   3  -3  195.56   17.45
  -6  -3   3  297.58   20.21
  -5  -3   3   12.47    4.12
   5   3  -3    9.90    3.61
   5   3  -3    6.52    4.89
  -5  -3   3   10.93    3.46
  -5  -3   3   16.50    6.01
   5   3  -3   14.34    3.21
   4   3  -3  861.40   38.03
   4   3  -3  798.23   42.10
  -4  -3   3  819.50   39.56
   4   3  -3  788.85   39.49
  -4  -3   3  860.98   42.72
  -3  -3   3 1298.80   61.54
   3   3  -3 1223.29   60.49
   3   3  -3 1296.51   58.34
  -3  -3   3 1320.48   58.48
  -2  -3   3  403.54   21.02
   2   3  -3  366.25   17.89
   2   3  -3  377.21   20.43
  -2  -3   3  373.63   18.87
   2   3  -3  358.60   18.78
   1   3  -3  263.96   14.91
   1   3  -3  294.77   14.11
  -1  -3   3  283.71   15.71
  -1  -3   3  253.28   14.40
   1   3  -3  277.87   15.83
   1   3  -3  284.03   12.77
   0  -3   3    6.66    2.50
   0   3  -3    4.29    2.23
   0   3  -3    6.44    2.84
   0  -3   3    5.15    1.76
   0   3  -3    3.89    2.37
  -1   3  -3 4031.65  180.60
   1  -3   3 4253.58  181.25
   1  -3   3 4040.13  177.64
   2  -3   3 1032.27   46.33
   2  -3   3 1004.43   47.26
  -2   3  -3  974.48   47.11
   3  -3   3  380.56   20.78
   3  -3   3  376.51   20.36
  -3   3  -3  366.84   20.23
  -4   3  -3   70.54    7.98
  -4   3  -3   63.99    7.06
  -5   3  -3  221.99   15.86
  -5   3  -3  206.43   15.25
  -5   3  -3  210.05   14.02
  -6   3  -3 1041.93   50.14
  -6   3  -3 1042.55   50.48
  -6   3  -3 1034.21   53.23
  -7   3  -3   26.26    7.37
  -7   3  -3   16.18    5.54
  -9  -2   3   63.92   11.04
  -9  -2   3   76.32   13.53
   8   2  -3  121.39   11.54
  -8  -2   3   95.26   11.94
  -8  -2   3  134.90   15.67
  -7  -2   3  367.41   24.04
  -7  -2   3  384.01   26.59
  -7  -2   3  431.87   20.82
   7   2  -3  422.26   24.49
   7   2  -3  387.62   25.13
   6   2  -3   10.96    4.67
  -6  -2   3   -0.51    2.81
   6   2  -3    1.26    3.21
  -6  -2   3    2.06    4.41
  -6  -2   3    1.27    2.40
   5   2  -3 1495.17   67.50
   5   2  -3 1207.71   67.55
  -5  -2   3 1424.13   69.43
  -5  -2   3 1450.39   60.49
  -5  -2   3 1431.56   66.41
   5   2  -3 1449.91   63.18
  -5  -2   3 1511.45   62.15
   4   2  -3  116.34   11.09
  -4  -2   3  128.93    8.06
  -4  -2   3  136.48   11.43
  -4  -2   3  120.58    9.44
   4   2  -3  137.66    7.71
  -4  -2   3  140.17    7.41
   4   2  -3  123.71    9.45
  -3  -2   3 2990.64  132.99
  -3  -2   3 3006.01  136.55
   3   2  -3 3120.38  130.32
  -3  -2   3 3214.14  130.26
   3   2  -3 3002.38  133.85
   3   2  -3 2588.30  135.49
   3   2  -3 3297.84  124.09
   2   2  -3  272.66   14.41
   2   2  -3  276.65   16.44
  -2  -2   3  297.98   15.27
   2   2  -3  301.82   14.31
  -2  -2   3  304.63   16.77
   1   2  -3  869.54   40.37
  -1  -2   3  935.83   42.07
   1   2  -3  947.18   40.74
   1   2  -3  888.47   41.56
   1   2  -3  883.01   41.92
  -1  -2   3  872.67   41.00
   0   2  -3 4216.20  195.58
   0  -2   3 4602.87  195.70
   0  -2   3 4661.87  198.53
   0   2  -3 4465.00  197.98
   0   2  -3 4719.54  198.30
   1  -2   3  976.87   45.04
  -1   2  -3 1020.79   44.90
   1  -2   3  972.10   44.01
   1  -2   3  957.50   44.51
  -1   2  -3 1024.11   45.62
   2  -2   3 1188.03   54.63
  -2   2  -3 1192.56   55.14
   2  -2   3 1208.35   55.17
  -2   2  -3 1257.61   54.81
   2  -2   3 1219.89   54.90
   3  -2   3    6.45    2.39
  -3   2  -3    0.80    2.22
   3  -2   3    5.66    2.53
   3  -2   3    1.45    2.15
  -4   2  -3 1214.84   53.28
   4  -2   3 1164.11   55.47
  -4   2  -3 1183.16   55.94
   4  -2   3 1171.83   55.62
  -4   2  -3 1149.19   54.13
   5  -2   3  608.06   32.13
  -5   2  -3  595.32   29.70
  -5   2  -3  607.53   30.63
  -5   2  -3  576.12   31.67
  -6   2  -3  293.05   19.38
  -6   2  -3  282.41   18.43
   6  -2   3  310.16   20.36
  -6   2  -3  284.25   16.99
  -7   2  -3    4.95    4.76
  -7   2  -3    9.16    5.02
  -8   2  -3   33.12    8.10
  -9  -1   3  390.69   28.93
  -9  -1   3  372.78   26.36
   8   1  -3   64.33    9.08
  -8  -1   3   67.33   12.09
  -8  -1   3   80.91   11.19
  -7  -1   3   15.74    6.78
   7   1  -3   17.25    4.93
  -7  -1   3   13.52    5.55
   7   1  -3   12.89    5.67
   6   1  -3  512.50   29.01
  -6  -1   3  454.74   29.77
  -6  -1   3  525.76   23.85
  -6  -1   3  487.25   27.96
   6   1  -3  541.85   28.37
  -5  -1   3  652.44   35.42
   5   1  -3  693.43   36.41
   5   1  -3  765.89   36.87
  -5  -1   3  728.69   30.94
  -5  -1   3  674.49   37.96
  -5  -1   3  731.15   31.33
   4   1  -3 1708.49   65.61
  -4  -1   3 1498.44   71.13
  -4  -1   3 1561.62   64.73
  -4  -1   3 1604.19   72.24
  -4  -1   3 1635.84   67.30
   4   1  -3 1525.19   72.87
  -4  -1   3 1467.34   73.74
   4   1  -3 1483.56   71.88
  -3  -1   3   31.68    4.24
  -3  -1   3   34.04    4.51
   3   1  -3   39.02    2.66
   3   1  -3   33.91    4.39
  -3  -1   3   32.25    5.34
  -3  -1   3   31.27    3.04
   3   1  -3   32.29    3.22
   3   1  -3   29.13    5.53
   2   1  -3  433.03   18.40
   2   1  -3  421.90   18.79
   2   1  -3  421.99   20.42
  -2  -1   3  406.44   21.81
  -2  -1   3  402.27   20.32
  -2  -1   3  424.36   20.73
   2   1  -3  403.32   22.28
   1   1  -3  580.09   26.23
   1   1  -3  521.55   26.70
  -1  -1   3  583.24   26.57
  -1  -1   3  525.10   25.75
  -1  -1   3  525.01   24.97
   0   1  -3 6861.94  282.10
   0  -1   3 6031.00  278.64
   0   1  -3 6687.80  281.29
   0  -1   3 6324.27  284.07
   1  -1   3 3348.53  148.28
   1  -1   3 3531.89  149.43
   1  -1   3 3409.44  149.87
  -1   1  -3 3491.64  149.65
  -1   1  -3 3347.43  149.40
   2  -1   3    5.72    2.09
  -2   1  -3    8.47    1.65
  -2   1  -3    6.96    1.97
   2  -1   3    6.09    1.87
   2  -1   3   10.72    2.01
  -2   1  -3    8.52    1.86
   3  -1   3 1772.45   81.89
  -3   1  -3 1898.46   82.43
   3  -1   3 1751.64   82.02
  -3   1  -3 1817.70   77.59
  -3   1  -3 1880.61   81.47
  -3   1  -3 1859.03   81.07
  -4   1  -3   68.04    5.68
   4  -1   3   75.61    7.28
  -4   1  -3   80.56    7.79
   4  -1   3   68.74    6.73
  -4   1  -3   77.76    7.03
   5  -1   3  425.42   24.31
  -5   1  -3  458.25   24.15
  -5   1  -3  424.95   21.79
  -5   1  -3  440.15   23.24
  -6   1  -3  120.51   10.94
  -6   1  -3  140.69    9.31
   6  -1   3  135.75   11.86
  -6   1  -3  127.39   10.97
  -7   1  -3  300.80   19.33
  -7   1  -3  313.85   20.40
   7  -1   3  326.08   22.10
  -8   1  -3  310.26   20.14
  -8   0   3   11.34    7.16
   8   0  -3   37.15    7.38
  -8   0   3   14.06    6.31
   7   0  -3    1.88    3.33
  -7   0   3   -1.72    4.86
  -7   0   3    1.27    3.89
  -6   0   3 1689.91   88.30
   6   0  -3 1932.03   85.94
  -6   0   3 1921.00   76.85
  -6   0   3 1801.33   85.66
  -5   0   3  289.70   18.88
   5   0  -3  350.23   19.47
  -5   0   3  325.43   15.57
  -5   0   3  295.14   20.67
  -5   0   3  339.75   14.62
  -4   0   3  102.57    8.68
   4   0  -3  125.19    7.38
  -4   0   3  102.07    6.27
  -4   0   3  124.21   10.55
   4   0  -3  112.40    9.00
  -3   0   3   75.42    7.86
  -3   0   3   93.28    7.30
  -3   0   3   87.95    4.95
   3   0  -3   92.00    7.55
  -3   0   3   94.56    7.36
   3   0  -3   97.51    5.55
   2   0  -3  409.27   16.67
  -2   0   3  392.57   19.70
   2   0  -3  393.98   20.54
  -2   0   3  399.24   19.85
  -2   0   3  358.89   20.60
  -1   0   3 3740.63  172.04
   1   0  -3 3734.97  171.52
   1   0  -3 3769.15  167.43
   1   0  -3 4215.45  172.32
  -1   0   3 4082.87  169.51
   0   0  -3  166.98   10.16
   0   0   3  185.42    9.58
   0   0   3  160.15    9.14
   0   0  -3  181.57   10.26
   0   0  -3  202.44    9.47
   0   0   3  175.49   10.43
   0   0  -3  204.34    9.75
   0   0   3  176.33   10.34
  -1   0  -3  197.85   10.56
   1   0   3  163.13   11.08
  -1   0  -3  210.54   11.15
   1   0   3  228.94   10.49
  -1   0  -3  221.39   10.64
  -1   0  -3  189.16   11.35
   1   0   3  196.32   11.02
  -2   0  -3  729.15   30.13
   2   0   3  615.06   31.48
   2   0   3  635.16   30.93
  -2   0  -3  686.57   29.76
  -2   0  -3  675.34   31.76
  -2   0  -3  635.66   29.50
  -2   0  -3  666.27   29.65
  -3   0  -3 2437.94  104.57
   3   0   3 2322.61  105.72
  -3   0  -3 2349.35   99.34
  -3   0  -3 2417.46  105.93
  -3   0  -3 2446.11  104.50
  -4   0  -3 3382.29  141.14
   4   0   3 2941.18  143.20
  -4   0  -3 3285.73  143.26
   4   0   3 3243.81  142.69
  -4   0  -3 3309.09  133.74
   5   0   3    9.47    3.93
  -5   0  -3   12.68    3.86
  -5   0  -3    6.79    3.47
   5   0   3   12.47    3.71
  -6   0  -3  272.94   16.34
   6   0   3  244.24   17.25
  -6   0  -3  272.33   16.82
  -7   0  -3   13.21    5.14
  -7   0  -3   16.85    5.30
   7   0   3   26.29    6.62
  -8   0  -3  528.24   28.49
  -8   0  -3  510.28   30.02
  -9   0  -3   29.55    7.37
  -8   1   3   48.53   11.06
   8  -1  -3   49.26    8.53
   7  -1  -3  485.43   27.83
  -7   1   3  457.09   30.65
  -7   1   3  479.17   28.81
  -6   1   3    7.15    5.07
  -6   1   3    1.47    4.16
   6  -1  -3   -0.30    3.17
  -5   1   3   14.63    2.86
  -5   1   3   12.69    4.39
  -5   1   3   11.27    2.05
  -5   1   3   15.64    5.56
   5  -1  -3   15.72    4.33
  -4   1   3   39.42    3.53
  -4   1   3   41.52    5.82
   4  -1  -3   31.80    5.17
  -4   1   3   42.40    3.81
  -4   1   3   36.57    6.80
  -4   1   3   39.32    3.12
  -3   1   3 2557.65  108.19
  -3   1   3 2533.64  111.85
  -3   1   3 2535.97  102.24
  -3   1   3 2548.38  113.27
  -3   1   3 2467.56  114.97
   3  -1  -3 2517.71  112.88
  -2   1   3 2967.41  127.54
  -2   1   3 2895.09  129.00
  -2   1   3 2952.44  124.63
   2  -1  -3 2868.40  128.74
  -2   1   3 2928.69  118.05
  -2   1   3 2879.91  130.38
  -1   1   3 1907.79   81.58
   1  -1  -3 1883.93   84.31
   1  -1  -3 1937.78   81.55
  -1   1   3 1867.99   83.46
  -1   1   3 1900.47   85.02
   0   1   3   13.75    1.53
   0   1   3   13.78    2.07
   0  -1  -3   15.51    2.21
   0  -1  -3    8.34    2.35
   0  -1  -3   11.55    2.04
   0  -1  -3   11.75    1.86
   0  -1  -3   13.31    1.53
   0   1   3   12.31    1.93
   0   1   3   12.25    2.68
   0   1   3   10.38    2.01
   1   1   3 5774.60  260.22
   1   1   3 5907.44  256.13
  -1  -1  -3 5993.94  256.02
  -1  -1  -3 5904.60  239.40
  -1  -1  -3 5982.81  253.90
  -1  -1  -3 5689.57  259.36
   1   1   3 6077.83  239.24
   1   1   3 6018.52  259.07
  -1  -1  -3 5915.33  259.97
   1   1   3 6286.23  254.12
  -2  -1  -3 4163.59  173.64
   2   1   3 4381.11  187.58
  -2  -1  -3 4039.31  187.19
   2   1   3 4249.97  184.52
   2   1   3 4374.39  173.67
  -2  -1  -3 4540.76  184.51
   3   1   3    7.51    2.42
   3   1   3    2.88    2.41
  -3  -1  -3    5.46    2.01
  -3  -1  -3    5.27    2.35
   3   1   3   19.18    3.23
  -4  -1  -3  820.51   34.76
   4   1   3  754.77   38.29
   4   1   3  775.13   37.66
  -4  -1  -3  792.20   36.87
   4   1   3  756.17   34.49
  -4  -1  -3  768.74   35.19
  -5  -1  -3  532.87   25.85
   5   1   3  513.92   28.36
   5   1   3  522.04   27.98
  -5  -1  -3  552.08   24.68
   5   1   3  520.50   24.04
  -5  -1  -3  506.30   26.73
   5   1   3  517.99   27.80
   6   1   3  343.33   16.35
   6   1   3  309.55   20.23
  -6  -1  -3  322.67   18.54
  -6  -1  -3  340.50   19.53
   7   1   3  985.35   49.57
  -7  -1  -3  944.81   44.63
  -7  -1  -3  936.98   47.69
  -8  -1  -3   -1.66    3.68
  -8  -1  -3    1.57    4.63
  -9  -1  -3   27.97    7.27
  -8   2   3    7.87    6.78
  -8   2   3    6.73    5.71
  -7   2   3  416.39   27.32
   7  -2  -3  453.59   27.04
  -7   2   3  453.34   30.37
   6  -2  -3  422.09   24.43
  -6   2   3  388.79   24.51
  -6   2   3  396.03   27.05
  -5   2   3   31.91    7.62
  -5   2   3   43.21    6.93
  -5   2   3   40.72    4.26
  -5   2   3   37.01    4.24
   5  -2  -3   28.88    5.84
  -4   2   3 1716.97   87.14
  -4   2   3 1900.49   76.23
  -4   2   3 1874.49   80.50
   4  -2  -3 1769.45   84.68
  -4   2   3 1948.55   84.51
  -3   2   3   85.30    5.67
  -3   2   3   85.55    8.50
  -3   2   3   84.90    5.49
   3  -2  -3   79.37    7.29
  -3   2   3   82.27    7.33
  -3   2   3   93.52    8.13
  -2   2   3 2285.13   95.99
   2  -2  -3 2218.72  100.48
  -2   2   3 2252.62   98.20
   2  -2  -3 2131.34   99.28
   1  -2  -3  124.32    7.02
  -1   2   3  112.94    5.85
  -1   2   3  102.46    7.23
   1  -2  -3  121.02    7.92
  -1   2   3  117.15    6.75
   1  -2  -3  100.43    7.51
   0  -2  -3   48.00    4.34
   0  -2  -3   60.42    4.71
   0   2   3   55.23    3.70
   0   2   3   53.45    4.77
   0   2   3   53.51    4.69
   0  -2  -3   57.81    3.73
   0  -2  -3   54.50    4.19
   0  -2  -3   49.20    4.47
   0   2   3   48.17    4.08
   1   2   3 6277.76  264.89
   1   2   3 6315.40  266.90
  -1  -2  -3 6205.71  267.09
  -1  -2  -3 6069.68  262.43
  -1  -2  -3 6279.61  268.64
   1   2   3 6247.42  268.54
  -1  -2  -3 5799.99  247.44
   1   2   3 6393.70  247.55
  -1  -2  -3 5848.99  264.78
   2   2   3 1156.38   54.64
   2   2   3 1215.76   54.65
   2   2   3 1262.07   51.68
   2   2   3 1280.08   55.55
  -2  -2  -3 1273.29   54.87
  -2  -2  -3 1242.29   55.29
   2   2   3 1231.95   54.23
   2   2   3 1213.70   54.14
  -2  -2  -3 1191.35   51.60
   3   2   3  860.97   38.17
   3   2   3  906.90   40.72
   3   2   3  857.07   39.97
   3   2   3  858.34   40.20
  -3  -2  -3  823.13   37.67
   3   2   3  903.37   38.61
  -3  -2  -3  834.37   39.89
  -4  -2  -3   57.23    6.04
  -4  -2  -3   70.34    6.19
   4   2   3   66.43    3.94
  -4  -2  -3   70.97    3.96
   4   2   3   74.31    7.01
   4   2   3   68.91    6.48
   5   2   3 1720.53   80.69
   5   2   3 1785.91   77.53
  -5  -2  -3 1720.78   75.31
  -5  -2  -3 1816.12   77.45
  -5  -2  -3 1693.39   80.65
   5   2   3 1878.59   81.59
   6   2   3  173.17   13.41
  -6  -2  -3  178.31   12.74
  -6  -2  -3  179.17   12.29
   6   2   3  192.53   14.44
   6   2   3  183.66    9.55
  -7  -2  -3  247.87   16.05
  -7  -2  -3  263.42   17.30
   7   2   3  253.50   18.10
   7   2   3  250.82   18.26
  -8  -2  -3   -1.40    4.06
  -8  -2  -3   -2.88    3.85
  -9  -2  -3   74.70   10.98
  -9  -2  -3  110.61   11.62
   7  -3  -3   29.85    7.69
  -7   3   3   28.42    8.71
  -7   3   3   15.16    6.55
  -6   3   3   20.72    7.51
   6  -3  -3   17.70    5.78
  -6   3   3   12.54    5.50
  -5   3   3  193.12   11.68
  -5   3   3  194.35   11.34
  -5   3   3  181.05   16.08
  -5   3   3  191.34   14.39
   5  -3  -3  163.76   13.83
  -4   3   3  776.26   34.20
  -4   3   3  690.83   40.50
   4  -3  -3  767.50   39.11
  -4   3   3  789.55   36.04
  -4   3   3  789.39   38.59
  -3   3   3  580.61   29.28
   3  -3  -3  556.90   29.96
  -3   3   3  593.78   27.75
  -2   3   3    1.26    1.78
   2  -3  -3    1.35    2.39
   2  -3  -3   -0.18    1.91
  -2   3   3    1.95    2.19
  -1   3   3 1547.62   68.79
   1  -3  -3 1418.51   70.22
   1  -3  -3 1505.80   70.96
  -1   3   3 1592.95   68.39
  -1   3   3 1668.49   64.11
   0  -3  -3   23.86    2.89
   0   3   3   20.73    2.90
   0  -3  -3   14.72    3.18
   0   3   3   18.12    3.08
   0   3   3   21.29    3.41
   0  -3  -3   21.21    3.61
   1   3   3 3723.10  156.44
  -1  -3  -3 3098.86  156.71
   1   3   3 3737.65  156.77
  -1  -3  -3 3678.26  160.05
   1   3   3 3952.94  147.44
  -1  -3  -3 3455.72  147.12
  -1  -3  -3 3763.45  159.03
   2   3   3  278.87   15.05
  -2  -3  -3  259.07   13.99
   2   3   3  289.12   14.08
  -2  -3  -3  285.07   15.12
   2   3   3  288.94   14.39
   3   3   3  157.17   10.09
   3   3   3  158.63    8.85
   3   3   3  171.95    8.87
   3   3   3  144.60    9.35
  -3  -3  -3  142.55    9.38
  -3  -3  -3  158.45    9.95
   4   3   3 1092.52   47.42
  -4  -3  -3 1033.10   48.92
   4   3   3 1020.42   48.40
  -4  -3  -3 1049.31   45.88
   4   3   3 1001.78   48.15
   5   3   3  579.55   30.33
  -5  -3  -3  619.46   27.21
  -5  -3  -3  583.74   28.39
  -5  -3  -3  534.03   29.69
   5   3   3  611.60   27.89
   5   3   3  580.35   29.99
  -6  -3  -3  252.50   16.50
   6   3   3  258.12   13.11
   6   3   3  275.79   17.75
  -6  -3  -3  248.33   15.57
   7   3   3   -1.43    3.23
  -7  -3  -3   -0.11    3.88
  -7  -3  -3   -1.91    3.11
   7   3   3    2.05    4.21
  -8  -3  -3  377.01   21.56
  -8  -3  -3  358.23   22.89
   8   3   3  334.27   23.33
  -9  -3  -3   29.07    7.24
  -9  -3  -3   20.34    7.36
   7  -4  -3    3.13    5.11
  -7   4   3   -0.83    5.14
  -7   4   3    5.52    6.34
  -6   4   3   39.67    8.19
  -6   4   3   36.96    9.60
   6  -4  -3   30.08    7.45
  -5   4   3 1088.36   52.55
   5  -4  -3 1055.36   53.40
  -5   4   3  991.17   55.66
  -4   4   3   63.87    7.96
  -4   4   3   56.18    9.30
  -4   4   3   57.28    6.56
   4  -4  -3   64.50    8.51
   3  -4  -3   -0.67    2.57
   3  -4  -3   -2.70    3.02
  -3   4   3    2.85    3.16
  -3   4   3    2.78    2.49
   2  -4  -3  551.81   29.16
  -2   4   3  546.49   26.75
   2  -4  -3  505.52   28.21
  -2   4   3  536.22   26.68
   1  -4  -3 1397.11   65.94
  -1   4   3 1472.63   63.62
  -1   4   3 1389.09   63.86
   1  -4  -3 1417.19   66.56
   0  -4  -3 2410.51   94.69
   0   4   3 2046.40   94.98
   0   4   3 2069.05   95.36
   0  -4  -3 2135.56   97.65
   0  -4  -3 2177.83   98.39
   1   4   3 1013.67   44.65
   1   4   3  950.29   46.32
  -1  -4  -3 1085.29   44.90
  -1  -4  -3  968.27   47.61
  -2  -4  -3  450.95   20.41
   2   4   3  406.07   21.40
   2   4   3  410.86   21.08
  -2  -4  -3  375.02   19.90
  -2  -4  -3  416.45   21.88
   2   4   3  418.55   19.51
  -3  -4  -3    2.59    2.67
   3   4   3   12.69    3.08
   3   4   3    4.35    2.04
   3   4   3    3.68    2.73
  -3  -4  -3    7.30    2.73
   4   4   3 1917.37   90.06
  -4  -4  -3 1994.98   85.41
   4   4   3 2099.98   89.95
  -4  -4  -3 1953.43   91.97
   4   4   3 2128.52   90.33
  -5  -4  -3  193.14   12.45
  -5  -4  -3  183.17   12.90
   5   4   3  168.50   12.44
   5   4   3  173.37   11.77
   6   4   3   63.07    6.08
  -6  -4  -3   47.81    7.03
   6   4   3   54.38    7.69
  -6  -4  -3   51.44    7.46
  -7  -4  -3  234.02   15.63
   7   4   3  261.96   17.92
  -7  -4  -3  219.49   16.57
   8   4   3    0.52    4.65
  -8  -4  -3    6.71    4.81
  -8  -4  -3   -0.36    4.87
  -9  -4  -3  174.99   14.57
  -9  -4  -3  181.16   16.28
  -6   5   3  219.19   20.19
   6  -5  -3  187.70   17.07
  -6   5   3  203.71   17.12
  -5   5   3  180.43   14.76
  -5   5   3  172.23   16.70
   5  -5  -3  160.97   14.85
  -4   5   3   66.22    8.37
   4  -5  -3   61.40    9.15
  -4   5   3   67.93    8.02
  -3   5   3   -0.70    3.09
   3  -5  -3   -2.93    2.99
   3  -5  -3    0.13    3.71
  -3   5   3    0.98    2.85
   2  -5  -3  762.21   39.20
  -2   5   3  739.64   37.10
   2  -5  -3  780.65   40.04
  -2   5   3  745.66   36.33
   1  -5  -3  160.75   12.21
  -1   5   3  164.27   10.33
   1  -5  -3  174.35   12.80
  -1   5   3  162.06   11.49
   0   5   3  469.41   22.58
   0  -5  -3  466.06   25.75
   0   5   3  474.76   24.65
  -1  -5  -3  425.03   18.23
  -1  -5  -3  385.30   22.19
   1   5   3  389.29   21.41
   1   5   3  369.04   21.43
   1   5   3  393.94   18.09
  -2  -5  -3  798.00   35.22
   2   5   3  754.00   37.73
  -2  -5  -3  776.41   38.75
   2   5   3  765.94   37.80
   2   5   3  787.58   34.62
   3   5   3  706.69   31.98
  -3  -5  -3  654.41   35.04
   3   5   3  702.49   34.19
   3   5   3  689.15   34.66
  -3  -5  -3  727.31   32.87
   4   5   3   22.90    4.55
   4   5   3   21.76    4.90
  -4  -5  -3   28.60    5.67
  -4  -5  -3   21.84    4.72
  -5  -5  -3    1.13    3.60
  -5  -5  -3   -0.39    2.97
   5   5   3    5.22    3.68
   5   5   3    1.70    2.99
   6   5   3   11.18    4.69
  -6  -5  -3   20.72    5.92
  -6  -5  -3   15.64    4.96
   6   5   3   20.98    5.71
  -7  -5  -3  501.84   27.57
   7   5   3  543.26   29.92
  -7  -5  -3  493.36   29.45
  -8  -5  -3    3.39    5.18
   8   5   3   27.94    7.47
  -8  -5  -3    5.79    4.84
  -9  -5  -3    1.08    4.82
  -9  -5  -3   -8.09    4.77
  -9  -5  -3   -4.22    4.14
  -5   6   3    8.86    6.28
  -4   6   3  115.23   11.02
   4  -6  -3  131.38   15.21
  -3   6   3  381.60   23.05
   3  -6  -3  404.64   26.19
  -2   6   3   94.38    9.81
   2  -6  -3   78.31   10.49
   1  -6  -3  137.81   12.23
  -1   6   3  134.64   11.67
  -1   6   3  128.82   10.87
   0  -6  -3   33.73    6.72
   0   6   3   38.04    6.51
   0   6   3   30.44    6.09
   1   6   3  713.08   37.42
   1   6   3  761.85   37.27
  -1  -6  -3  742.28   38.42
   2   6   3   23.00    5.14
   2   6   3   19.74    5.06
  -2  -6  -3   31.28    6.22
   3   6   3  520.12   26.69
  -3  -6  -3  472.67   27.29
   3   6   3  485.23   26.87
   4   6   3    0.80    3.28
  -4  -6  -3    1.58    3.04
  -4  -6  -3    1.06    3.87
   4   6   3    3.47    3.62
  -5  -6  -3   34.52    6.98
  -5  -6  -3   21.22    5.38
   5   6   3   14.20    5.13
   5   6   3   27.10    5.61
  -6  -6  -3  477.11   29.29
  -6  -6  -3  488.48   27.29
   6   6   3  518.54   29.23
   6   6   3  559.14   28.78
  -7  -6  -3   29.21    7.39
   7   6   3   24.36    6.74
  -7  -6  -3   42.46    7.80
   8   6   3   17.50    6.84
  -8  -6  -3   13.21    5.57
  -8  -6  -3   16.84    5.69
  -8  -6  -3    5.17    5.57
  -9  -6  -3    4.15    5.06
  -9  -6  -3   -2.81    5.92
  -9  -6  -3   -0.85    5.11
   4  -7  -3    0.05    6.11
  -4   7   3   -4.38    4.16
  -3   7   3  438.13   26.09
  -3   7   3  412.25   26.80
   3  -7  -3  429.44   29.08
  -2   7   3    4.76    4.03
   2  -7  -3   -5.34    3.89
  -2   7   3    1.71    4.61
   1  -7  -3   22.46    6.88
  -1   7   3   15.54    5.58
  -1   7   3   14.59    5.23
   0  -7  -3  376.86   24.34
   0   7   3  392.20   23.22
   0   7   3  379.59   23.52
  -1  -7  -3   92.40   10.60
   1   7   3   96.20   10.10
   1   7   3   77.41    9.37
   2   7   3  436.25   25.92
   2   7   3  488.72   26.57
  -2  -7  -3  449.69   27.14
   3   7   3   66.15    8.40
  -3  -7  -3   61.68    8.96
   3   7   3   58.42    8.32
   4   7   3   64.92    9.17
  -4  -7  -3  103.78   11.12
   4   7   3   82.12    9.44
  -5  -7  -3   38.21    8.00
   5   7   3   54.86    7.92
  -5  -7  -3   51.07    8.13
   5   7   3   45.17    8.34
   6   7   3  159.57   13.47
  -6  -7  -3  153.57   14.31
   6   7   3  174.72   14.36
  -6  -7  -3  131.19   12.30
  -7  -7  -3    5.16    5.89
  -7  -7  -3   24.14    6.58
   7   7   3   10.85    6.36
  -8  -7  -3   -2.62    5.19
   8   7   3   -5.73    4.57
  -8  -7  -3   -3.95    3.70
  -2   8   3    9.35    5.36
   2  -8  -3   -0.19    5.63
  -2   8   3   17.51    7.05
  -1   8   3   34.60    7.92
   1  -8  -3   35.13    8.70
  -1   8   3   26.85    7.15
   0   8   3  162.09   14.15
   0  -8  -3  189.53   16.02
   0   8   3  151.28   14.15
   1   8   3   31.66    7.23
   1   8   3   28.05    7.07
  -1  -8  -3   39.17    8.48
   2   8   3   26.79    6.78
   2   8   3   51.32    8.78
  -2  -8  -3   39.92    8.48
  -3  -8  -3   59.60    9.67
   3   8   3   45.58    8.13
   3   8   3   72.58    9.91
   4   8   3   -3.45    3.81
   4   8   3    1.64    4.22
  -4  -8  -3    2.41    4.72
  -5  -8  -3  235.24   18.05
   5   8   3  201.09   16.26
   5   8   3  199.89   16.67
  -6  -8  -3   -1.46    4.26
   6   8   3   -3.28    4.64
   6   8   3   -0.72    4.73
  -7  -8  -3   24.66    7.33
   7   8   3   16.50    7.35
  -7  -8  -3   13.06    7.11
  -1   9   3  156.23   15.98
  -1   9   3  122.99   14.71
   0   9   3    1.66    5.02
   0   9   3    0.86    4.77
   0  -9  -3   -1.70    4.77
   1   9   3   -2.28    4.26
  -1  -9  -3    2.56    5.07
   1   9   3    0.00    4.60
   2   9   3   20.76    7.03
  -2  -9  -3   15.89    7.24
   2   9   3   17.50    6.58
  -3  -9  -3  103.86   13.79
   3   9   3  142.13   13.70
   3   9   3  120.09   13.72
   4   9   3   24.71    7.59
   4   9   3   32.08    7.93
  -4  -9  -3   31.13    8.55
   5   9   3   91.42   11.83
  -5  -9  -3   56.62   10.87
   5   9   3   83.83   12.39
  -6  -9  -3   -5.06    5.08
   6   9   3   12.59    7.22
   2   9  -4    4.61    5.25
  -2  -9   4    3.43    7.18
   6   8  -4  111.88   15.29
  -5  -8   4   86.63   15.21
   5   8  -4   71.87   10.95
  -4  -8   4   13.31    8.10
   4   8  -4   11.80    7.32
   4   8  -4   11.46    5.71
   3   8  -4  108.37   12.75
  -3  -8   4  134.95   15.74
   3   8  -4  100.52   13.39
   2   8  -4   32.31    8.45
  -2  -8   4   40.09    9.84
   2   8  -4   38.98    8.20
  -1  -8   4  220.29   18.86
   1   8  -4  208.55   17.34
   1   8  -4  195.93   17.66
   0   8  -4   11.46    5.79
   0   8  -4   12.68    7.51
   0  -8   4    9.83    7.14
  -1   8  -4    3.93    5.33
   1  -8   4   12.72    6.95
  -1   8  -4    7.95    6.35
  -7  -7   4  348.17   26.45
   7   7  -4  267.49   23.39
  -6  -7   4   -2.92    5.51
   6   7  -4   -3.63    5.24
   5   7  -4    4.71    5.80
  -5  -7   4   -3.48    5.59
   5   7  -4    0.39    4.29
   4   7  -4   40.68    8.90
   4   7  -4   47.31    8.28
  -4  -7   4   33.09    9.14
   3   7  -4    4.45    5.35
   3   7  -4    9.52    4.82
  -3  -7   4    4.88    5.85
   2   7  -4  535.50   31.82
   2   7  -4  534.41   30.67
  -2  -7   4  540.81   32.46
   1   7  -4   38.52    8.01
   1   7  -4   36.29    8.32
  -1  -7   4   40.76    8.41
   0   7  -4   71.92   10.34
   0   7  -4   81.75   11.09
   0  -7   4   72.03   10.52
   1  -7   4   12.89    6.19
  -1   7  -4   10.60    6.05
  -1   7  -4    9.89    5.25
   2  -7   4  164.27   15.79
  -2   7  -4  174.56   15.52
  -2   7  -4  182.44   16.17
  -3   7  -4  118.28   13.90
  -3   7  -4  117.56   14.48
   8   6  -4  168.34   18.11
   7   6  -4   85.68   13.03
  -7  -6   4   88.43   13.99
  -6  -6   4   19.00    8.16
   6   6  -4   39.25    9.40
   5   6  -4   -1.66    3.41
   5   6  -4    9.03    5.95
  -5  -6   4    4.29    5.63
  -4  -6   4  650.78   36.57
   4   6  -4  584.30   32.08
   4   6  -4  606.21   34.60
  -3  -6   4  237.44   17.80
   3   6  -4  204.54   16.28
   3   6  -4  217.16   15.30
   2   6  -4  187.23   14.17
   2   6  -4  178.45   15.05
  -2  -6   4  237.71   16.67
  -1  -6   4   33.77    7.00
   1   6  -4   20.76    5.41
   1   6  -4   21.52    6.45
   0   6  -4   -0.94    3.12
   0  -6   4    0.70    3.87
   0   6  -4    1.41    4.33
   1  -6   4  935.47   45.78
  -1   6  -4  835.63   44.95
  -1   6  -4  836.62   44.81
  -2   6  -4   10.21    5.45
  -2   6  -4   14.22    5.67
   2  -6   4    4.49    4.84
  -3   6  -4    3.04    4.97
  -3   6  -4    3.50    4.65
   3  -6   4    9.29    5.34
  -4   6  -4  137.39   13.12
  -4   6  -4  120.37   13.94
  -8  -5   4  155.94   15.45
   8   5  -4  173.82   16.93
  -8  -5   4  189.80   20.08
   7   5  -4  146.29   12.73
  -7  -5   4  135.53   12.68
  -7  -5   4   95.81   14.53
   7   5  -4  145.68   15.53
  -6  -5   4    7.60    4.43
   6   5  -4   10.34    4.46
   6   5  -4    4.49    5.55
  -6  -5   4    6.82    6.20
  -5  -5   4  309.82   21.96
   5   5  -4  275.08   20.46
  -5  -5   4  284.80   17.99
   5   5  -4  300.10   17.60
   4   5  -4  106.18    9.15
  -4  -5   4  102.49   11.97
  -4  -5   4   94.09    8.91
   4   5  -4  100.68    7.80
   4   5  -4   86.19   10.51
   3   5  -4   77.88    9.40
   3   5  -4   77.49    5.78
  -3  -5   4   73.68    7.44
   3   5  -4   72.00    8.17
  -3  -5   4   89.38   10.53
   2   5  -4    1.37    3.71
  -2  -5   4   -0.01    2.60
   2   5  -4    0.77    2.77
  -2  -5   4    0.50    3.64
  -1  -5   4  780.93   39.29
   1   5  -4  730.97   39.09
   1   5  -4  706.88   37.90
  -1  -5   4  817.13   35.12
   0  -5   4  611.19   32.51
   0   5  -4  602.66   32.77
   0   5  -4  586.78   32.20
   0  -5   4  647.57   28.76
  -1   5  -4  159.46   12.98
   1  -5   4  165.60   12.79
  -1   5  -4  160.36   13.11
   1  -5   4  183.00   10.36
   2  -5   4   64.83    6.35
   2  -5   4   56.66    8.01
  -2   5  -4   66.49    9.36
  -2   5  -4   54.29    7.97
  -3   5  -4   43.26    7.41
   3  -5   4   41.99    7.61
  -3   5  -4   38.35    8.13
  -4   5  -4  796.53   42.18
   4  -5   4  819.74   42.19
  -4   5  -4  749.19   40.71
  -5   5  -4   20.75    6.56
  -5   5  -4   13.36    5.94
  -5   5  -4   11.07    5.31
  -6   5  -4   46.13    9.77
  -6   5  -4   41.90    8.73
  -8  -4   4   -2.93    6.19
  -8  -4   4   -8.72    3.87
   8   4  -4    1.47    4.69
   7   4  -4   53.98   10.25
  -7  -4   4   53.48    8.88
   7   4  -4   69.96    9.57
  -7  -4   4   59.62   11.01
   6   4  -4   64.60    8.31
  -6  -4   4   56.09    8.02
  -6  -4   4   62.29   10.76
   6   4  -4   90.12   11.50
   5   4  -4 1209.26   57.79
  -5  -4   4 1280.11   62.41
   5   4  -4  995.04   59.90
   5   4  -4 1315.42   56.10
  -5  -4   4 1284.35   58.23
   4   4  -4  420.91   26.24
   4   4  -4  449.95   23.34
  -4  -4   4  467.31   24.24
  -4  -4   4  463.45   27.39
   3   4  -4    1.94    2.52
   3   4  -4    4.94    2.00
  -3  -4   4    5.28    4.13
  -3  -4   4    1.93    2.80
   3   4  -4    4.42    4.15
  -2  -4   4 1431.07   65.16
   2   4  -4 1439.56   67.58
  -2  -4   4 1471.59   68.26
   2   4  -4 1406.62   65.13
  -1  -4   4   86.29    7.17
   1   4  -4   99.97    9.14
   1   4  -4   93.05    8.06
  -1  -4   4  104.57    8.94
   0   4  -4 2264.06  102.96
   0  -4   4 2303.33  104.46
   0   4  -4 2289.06  104.61
   0  -4   4 2366.79  101.09
  -1   4  -4  116.70   10.09
   1  -4   4  117.63    9.34
   1  -4   4  127.72    8.28
  -1   4  -4  129.26   10.31
   2  -4   4  152.82    9.93
  -2   4  -4  146.25   11.35
   2  -4   4  142.54   10.72
  -2   4  -4  123.58   11.23
   3  -4   4  929.05   44.10
  -3   4  -4  940.70   45.03
  -3   4  -4  867.93   45.56
  -4   4  -4  129.57   10.72
  -4   4  -4   97.98   11.30
  -5   4  -4  113.63   12.74
  -5   4  -4  120.74   12.52
  -5   4  -4  110.23   11.14
  -5   4  -4  113.77   10.40
  -6   4  -4    1.11    4.85
  -6   4  -4    5.43    4.34
   8   3  -4   28.43    7.58
  -8  -3   4   18.40    8.42
  -8  -3   4   24.31    7.32
  -7  -3   4  165.10   13.93
   7   3  -4  190.98   15.26
   7   3  -4  133.82   13.83
  -7  -3   4  180.43   16.71
  -6  -3   4 1176.62   57.05
   6   3  -4 1270.56   58.22
  -6  -3   4 1163.63   60.52
   6   3  -4 1086.30   59.17
  -5  -3   4   37.69    8.11
   5   3  -4   50.84    6.67
   5   3  -4   64.39    9.67
   5   3  -4   59.14    5.25
  -5  -3   4   48.85    6.85
   4   3  -4  261.09   15.08
   4   3  -4  250.40   17.90
  -4  -3   4  257.11   17.82
   4   3  -4  259.16   13.72
  -4  -3   4  237.43   15.27
  -3  -3   4  550.75   30.12
   3   3  -4  562.32   29.89
  -3  -3   4  556.53   27.66
   3   3  -4  539.05   26.71
  -2  -3   4  955.96   45.31
   2   3  -4  970.67   47.07
   2   3  -4  938.36   44.55
  -2  -3   4 1053.08   47.80
  -1  -3   4 2316.87  105.87
  -1  -3   4 2520.60  108.27
   1   3  -4 2352.90  105.28
   1   3  -4 2423.54  107.94
   0  -3   4   55.53    5.59
   0  -3   4   53.23    5.14
   0   3  -4   57.49    6.11
   0   3  -4   47.26    5.88
   1  -3   4  838.63   39.02
  -1   3  -4  853.68   40.65
   2  -3   4   29.76    4.31
   2  -3   4   38.58    4.77
  -2   3  -4   38.09    5.35
   3  -3   4 1924.50   87.51
   3  -3   4 1924.07   88.31
  -3   3  -4 1972.43   88.04
   4  -3   4  219.42   14.85
  -4   3  -4  221.94   14.68
  -4   3  -4  227.72   14.25
  -5   3  -4   79.62    9.05
  -5   3  -4   73.14    7.71
  -5   3  -4   58.30    8.98
  -6   3  -4  211.59   16.47
  -7   3  -4   90.67   11.90
  -8  -2   4  169.25   15.13
  -8  -2   4  136.51   16.92
   8   2  -4  183.73   15.08
   7   2  -4  402.27   24.13
  -7  -2   4  361.43   23.13
  -7  -2   4  326.70   24.97
  -6  -2   4  312.12   21.92
  -6  -2   4  300.88   19.51
   6   2  -4  313.55   20.21
  -6  -2   4  333.83   16.32
   6   2  -4  283.57   20.37
   5   2  -4   54.52    8.78
   5   2  -4   73.36    4.86
   5   2  -4   59.75    7.45
  -5  -2   4   69.02    5.72
  -5  -2   4   68.95    9.64
  -5  -2   4   63.64    7.79
  -4  -2   4  164.96   11.50
   4   2  -4  142.86   12.99
  -4  -2   4  167.38   13.38
   4   2  -4  145.46   10.86
   4   2  -4  184.03    8.96
  -3  -2   4 3486.30  159.57
  -3  -2   4 3597.53  155.86
   3   2  -4 3632.69  152.40
   3   2  -4 3300.26  158.99
   3   2  -4 3741.01  156.64
  -2  -2   4    4.53    2.99
   2   2  -4    0.16    1.19
   2   2  -4    2.37    1.83
   2   2  -4    2.08    3.00
  -2  -2   4    6.03    2.61
   1   2  -4  505.19   25.06
  -1  -2   4  517.97   26.11
   1   2  -4  538.23   26.76
  -1  -2   4  553.61   26.56
   1   2  -4  535.83   25.95
   0   2  -4  954.05   42.34
   0   2  -4  881.30   43.01
   0  -2   4  934.11   42.58
   1  -2   4 3538.74  151.56
  -1   2  -4 3463.30  153.16
   1  -2   4 3423.60  151.65
   1  -2   4 3358.72  152.90
  -1   2  -4 3640.54  152.79
  -2   2  -4 1522.07   66.94
   2  -2   4 1408.45   66.37
   2  -2   4 1461.98   66.42
  -2   2  -4 1507.12   66.05
   2  -2   4 1490.42   66.00
  -3   2  -4   68.89    6.16
   3  -2   4   64.44    5.85
  -3   2  -4   66.84    5.58
   3  -2   4   67.12    6.51
  -4   2  -4   14.18    3.62
   4  -2   4    8.11    3.60
  -4   2  -4   17.82    5.01
  -4   2  -4   33.22    5.11
   4  -2   4   13.97    3.77
  -5   2  -4  139.98   10.03
   5  -2   4  140.63   11.92
  -5   2  -4  158.13   12.40
  -5   2  -4  147.24   11.35
   5  -2   4  156.08   11.97
   6  -2   4 1383.56   67.73
  -6   2  -4 1384.83   66.13
  -6   2  -4 1365.17   63.37
  -7   2  -4   89.94   11.39
   7  -2   4   78.39   11.35
  -8   2  -4   -1.94    4.97
   8   1  -4    2.15    3.83
  -8  -1   4   -2.83    5.20
  -8  -1   4   -2.50    4.49
   7   1  -4  321.70   21.04
  -7  -1   4  306.15   20.96
  -7  -1   4  316.14   23.30
  -6  -1   4   72.03    8.99
  -6  -1   4   72.82    5.99
   6   1  -4   85.32    9.56
  -6  -1   4   70.07   10.48
  -5  -1   4  305.87   19.21
   5   1  -4  332.08   20.54
  -5  -1   4  323.18   21.61
  -5  -1   4  333.45   15.62
   4   1  -4 1258.73   48.94
  -4  -1   4 1137.64   56.64
  -4  -1   4 1127.88   48.06
  -4  -1   4 1241.47   54.99
  -4  -1   4 1108.11   53.94
   4   1  -4 1021.10   55.43
  -3  -1   4 3337.96  156.41
   3   1  -4 3604.13  141.18
   3   1  -4 3164.46  155.69
  -3  -1   4 3696.39  154.27
   3   1  -4 3645.34  150.42
  -3  -1   4 3463.95  152.97
   2   1  -4  328.94   15.18
  -2  -1   4  302.47   17.22
  -2  -1   4  311.03   18.27
  -2  -1   4  328.17   16.84
   2   1  -4  335.06   19.22
   2   1  -4  352.07   15.07
   1   1  -4   62.59    6.53
   1   1  -4   60.08    5.70
  -1  -1   4   70.41    6.36
  -1  -1   4   71.33    6.11
  -1  -1   4   70.29    4.85
   0  -1   4 5987.95  250.80
   0   1  -4 5771.49  250.15
   0  -1   4 5064.33  247.77
   0   1  -4 6135.76  250.42
   1  -1   4   21.63    2.18
   1  -1   4   21.18    3.36
  -1   1  -4   17.65    2.97
  -1   1  -4   21.87    2.13
   2  -1   4 1702.18   79.19
  -2   1  -4 1809.43   78.44
  -2   1  -4 1835.90   79.11
  -3   1  -4  256.12   12.57
  -3   1  -4  256.84   13.27
   3  -1   4  226.38   14.17
  -3   1  -4  238.84   14.42
   3  -1   4  236.06   13.76
  -3   1  -4  255.98   13.08
   4  -1   4  858.21   41.90
  -4   1  -4  900.59   41.16
   4  -1   4  862.82   42.17
  -4   1  -4  854.95   40.34
  -4   1  -4  855.44   39.84
  -5   1  -4 1222.12   56.38
  -5   1  -4 1151.55   54.28
   5  -1   4 1199.41   57.61
   5  -1   4 1189.35   57.56
  -5   1  -4 1219.33   54.53
  -6   1  -4    1.97    3.79
   6  -1   4    1.89    3.37
  -6   1  -4   -0.72    3.05
   7  -1   4    6.65    5.30
  -7   1  -4   -0.14    3.96
  -8   1  -4    1.70    4.70
   8   0  -4  212.77   16.41
  -8   0   4  189.71   17.00
  -8   0   4  180.12   18.49
  -7   0   4    1.12    4.03
   7   0  -4    1.16    3.63
  -7   0   4    4.19    5.64
   6   0  -4  228.69   15.50
  -6   0   4  194.60   16.78
  -6   0   4  182.01   14.76
  -5   0   4   42.47    8.02
   5   0  -4   38.17    6.37
  -5   0   4   38.53    3.61
  -5   0   4   32.06    5.98
  -4   0   4 2929.15  115.36
   4   0  -4 2927.63  128.74
  -4   0   4 2741.88  130.10
  -4   0   4 2795.31  126.73
  -3   0   4   26.59    5.30
  -3   0   4   27.38    4.47
  -3   0   4   32.56    4.75
   3   0  -4   33.44    2.92
   3   0  -4   30.15    5.13
  -2   0   4   27.82    4.08
  -2   0   4   30.46    4.78
  -2   0   4   26.02    3.74
   2   0  -4   32.44    2.16
   2   0  -4   30.31    4.83
   1   0  -4 3398.60  134.06
  -1   0   4 2972.79  131.85
   1   0  -4 2789.36  133.47
   1   0  -4 2954.44  129.33
  -1   0   4 2977.94  133.69
   0   0   4  931.96   42.11
   0   0  -4  928.69   43.55
   0   0  -4 1003.24   42.61
   0   0   4  896.65   43.34
   0   0   4  930.34   42.58
   0   0  -4  938.28   42.25
  -1   0  -4 2713.75  119.49
   1   0   4 2794.50  118.48
  -1   0  -4 2637.86  111.26
   1   0   4 2750.53  119.07
  -1   0  -4 2722.74  118.40
   2   0   4    0.15    2.00
  -2   0  -4    1.78    0.76
   2   0   4    6.31    1.60
   2   0   4    2.90    2.75
  -2   0  -4    4.79    2.60
  -2   0  -4    4.13    1.69
  -3   0  -4 2171.05   94.13
  -3   0  -4 2101.54   89.43
   3   0   4 2011.93   94.70
  -3   0  -4 2126.94   93.89
  -3   0  -4 2174.58   93.23
  -3   0  -4 2207.51   93.36
  -4   0  -4  468.75   21.45
   4   0   4  442.03   24.28
  -4   0  -4  454.47   23.35
  -4   0  -4  448.68   22.33
  -4   0  -4  463.01   22.77
  -4   0  -4  477.49   21.39
  -5   0  -4  915.58   42.67
  -5   0  -4  980.02   45.07
   5   0   4  949.41   46.64
  -5   0  -4  976.00   44.16
   5   0   4  939.06   46.58
  -6   0  -4   58.79    6.86
   6   0   4   44.07    7.52
  -6   0  -4   66.59    8.11
   6   0   4   66.85    8.37
  -7   0  -4  249.06   16.29
   7   0   4  236.32   17.90
  -7   0  -4  240.57   16.58
  -8   0  -4  278.39   18.80
  -9   0  -4    0.83    5.40
  -8   1   4   10.20    7.18
  -8   1   4    6.72    5.53
   8  -1  -4    5.72    4.55
  -7   1   4   62.39   11.31
  -7   1   4   70.72   10.53
   7  -1  -4   64.61    9.33
  -6   1   4  786.16   42.04
  -6   1   4  814.63   44.96
   6  -1  -4  819.07   42.07
   5  -1  -4  442.96   25.35
  -5   1   4  454.77   27.68
  -5   1   4  465.00   20.00
  -5   1   4  416.05   24.99
  -4   1   4   -2.43    3.26
  -4   1   4    4.57    1.46
  -4   1   4   -1.52    2.46
   4  -1  -4    0.76    2.55
  -4   1   4    3.21    1.02
  -3   1   4    9.05    3.31
  -3   1   4    8.03    3.09
  -3   1   4    9.37    1.17
  -3   1   4    6.11    3.38
  -3   1   4   11.65    1.23
   3  -1  -4   11.15    3.41
   2  -1  -4  210.99   10.07
  -2   1   4  216.45   10.04
   2  -1  -4  244.94   13.33
  -2   1   4  212.32   13.56
  -2   1   4  194.81   12.42
  -1   1   4 7276.04  330.70
  -1   1   4 7902.82  326.15
   1  -1  -4 7499.21  321.49
   1  -1  -4 7574.03  329.07
  -1   1   4 7594.44  330.70
  -1   1   4 7573.60  321.89
   0   1   4   78.32    4.48
   0  -1  -4   68.66    5.56
   0   1   4  114.05    7.39
   0  -1  -4   80.55    5.37
   0   1   4   79.82    5.34
   0   1   4   76.69    5.49
   0  -1  -4   79.02    4.59
   0  -1  -4   74.60    5.30
  -1  -1  -4    4.90    1.60
   1   1   4    4.52    1.58
   1   1   4    5.53    1.39
   1   1   4    4.92    2.11
   1   1   4    3.28    1.36
  -1  -1  -4   20.77    3.16
  -1  -1  -4    5.83    1.88
  -1  -1  -4    7.03    1.37
   1   1   4    5.13    2.34
   2   1   4 1227.84   55.46
  -2  -1  -4 1254.95   55.29
   2   1   4 1280.30   57.02
   2   1   4 1289.21   53.19
   2   1   4 1310.05   55.97
  -2  -1  -4 1265.79   55.65
  -2  -1  -4 1216.07   53.16
   2   1   4 1222.36   56.47
   3   1   4  547.09   27.29
   3   1   4  492.88   25.20
  -3  -1  -4  521.77   24.81
  -3  -1  -4  532.93   24.57
   3   1   4  550.89   26.23
   4   1   4 2541.87  106.53
   4   1   4 2331.33  105.55
  -4  -1  -4 2343.39   99.01
   4   1   4 2320.27  106.08
  -4  -1  -4 2295.58  104.90
   5   1   4   14.20    5.22
  -5  -1  -4    9.90    3.77
   5   1   4   13.13    4.02
  -5  -1  -4    7.68    3.11
  -6  -1  -4  169.76   11.66
   6   1   4  154.22   12.89
  -6  -1  -4  174.72   12.26
   6   1   4  155.69   12.69
  -7  -1  -4  137.56   11.71
  -7  -1  -4  137.32   11.45
   7   1   4  149.17   13.11
  -8  -1  -4  165.02   13.54
  -8  -1  -4  170.88   13.72
  -9  -1  -4   62.35    9.69
  -7   2   4  513.39   31.19
   7  -2  -4  514.56   30.57
  -7   2   4  504.85   33.69
   6  -2  -4   56.11    8.66
  -6   2   4   59.61    9.12
  -6   2   4   72.04   11.78
   5  -2  -4  325.40   20.11
  -5   2   4  286.84   21.64
  -5   2   4  336.41   20.36
  -4   2   4    7.44    1.93
  -4   2   4    0.10    3.57
   4  -2  -4    5.09    3.15
  -4   2   4    6.09    3.81
  -4   2   4    4.99    1.74
  -3   2   4  413.24   17.96
   3  -2  -4  403.67   22.56
  -3   2   4  436.37   19.46
  -3   2   4  405.67   23.94
  -3   2   4  404.03   22.22
   2  -2  -4 3320.44  152.96
   2  -2  -4 3748.38  148.49
  -2   2   4 3449.99  151.35
  -2   2   4 3229.95  147.94
  -2   2   4 3543.28  139.24
   1  -2  -4  647.19   31.99
   1  -2  -4  694.27   30.08
   1  -2  -4  630.59   31.62
  -1   2   4  657.10   29.85
  -1   2   4  652.30   31.30
  -1   2   4  669.99   27.42
   0  -2  -4  719.34   34.20
   0   2   4  730.06   33.13
   0   2   4  723.95   34.44
   0  -2  -4  727.01   33.06
   0  -2  -4  699.49   33.98
   0   2   4  762.22   30.72
   0   2   4  757.99   34.53
   0  -2  -4  704.85   30.64
  -1  -2  -4   30.51    3.14
   1   2   4   31.18    3.08
   1   2   4   29.08    3.26
   1   2   4   26.21    3.49
  -1  -2  -4   31.09    3.57
  -1  -2  -4   25.82    2.88
   1   2   4   27.28    3.61
  -1  -2  -4   27.21    3.12
   1   2   4   31.29    3.06
   2   2   4 3966.85  170.40
  -2  -2  -4 4076.27  171.95
   2   2   4 3777.90  169.02
   2   2   4 3984.97  172.05
  -2  -2  -4 3867.83  159.42
  -2  -2  -4 3923.54  170.56
   2   2   4 3868.52  170.08
   3   2   4 1008.79   45.46
  -3  -2  -4  974.77   44.77
   3   2   4 1012.84   43.54
   3   2   4  929.31   45.10
   3   2   4  972.49   45.65
  -3  -2  -4  984.26   42.84
  -4  -2  -4  291.33   15.54
   4   2   4  295.43   16.63
   4   2   4  293.58   17.39
  -4  -2  -4  280.21   15.73
   5   2   4  191.32   14.28
   5   2   4  193.74   13.35
  -5  -2  -4  198.18   12.59
  -5  -2  -4  184.47   11.92
   6   2   4   18.59    5.93
  -6  -2  -4   20.80    5.05
  -6  -2  -4   26.98    5.26
   6   2   4   22.29    5.57
  -7  -2  -4  907.52   40.89
  -7  -2  -4  858.51   42.32
   7   2   4  808.20   44.04
   7   2   4  773.78   44.00
  -8  -2  -4   64.92    8.79
  -8  -2  -4   72.87    9.51
  -9  -2  -4    7.13    5.47
  -7   3   4  124.04   14.02
   7  -3  -4  127.18   13.76
  -7   3   4  117.20   15.83
  -6   3   4  148.61   13.98
  -6   3   4  185.40   17.09
   6  -3  -4  156.62   13.98
  -5   3   4  117.05   13.86
   5  -3  -4  116.28   11.44
  -5   3   4  122.41   11.38
  -4   3   4  207.43   16.84
  -4   3   4  229.37   12.64
   4  -3  -4  222.92   15.60
  -4   3   4  230.34   15.36
  -4   3   4  234.04   11.88
  -3   3   4   79.67    5.83
   3  -3  -4   55.51    7.18
  -3   3   4   67.80    7.40
  -3   3   4   67.85    8.69
  -2   3   4 1820.28   71.32
   2  -3  -4 1753.10   80.53
  -2   3   4 1767.32   78.23
  -2   3   4 1690.78   76.15
   2  -3  -4 1647.17   79.43
   1  -3  -4  128.45    9.62
  -1   3   4  148.11    9.48
  -1   3   4  151.15    8.91
  -1   3   4  148.35    7.80
   1  -3  -4  136.40    9.96
   0   3   4  112.47    6.49
   0  -3  -4   99.87    7.62
   0   3   4   97.90    7.03
   0   3   4  103.52    7.70
   0  -3  -4   98.90    7.44
   1   3   4 2292.00   88.92
   1   3   4 2134.63   94.47
  -1  -3  -4 2128.14   95.79
  -1  -3  -4 2032.45   88.62
  -1  -3  -4 2195.62   96.64
   1   3   4 2177.09   94.86
  -2  -3  -4   34.26    4.20
   2   3   4   31.42    3.63
  -2  -3  -4   33.50    4.06
   2   3   4   25.77    3.97
  -3  -3  -4  376.21   19.10
   3   3   4  372.91   20.22
  -3  -3  -4  395.34   19.90
   3   3   4  396.91   18.49
   3   3   4  393.70   18.41
   3   3   4  370.83   19.49
   4   3   4  115.71    6.97
  -4  -3  -4  109.37    8.36
   4   3   4  117.68    6.35
   4   3   4  112.43    8.57
   4   3   4   99.10    8.73
  -4  -3  -4  108.44    8.51
   5   3   4 2014.56   84.27
   5   3   4 1928.06   83.92
   5   3   4 1909.49   87.45
  -5  -3  -4 1828.70   87.33
  -5  -3  -4 1873.02   81.99
   5   3   4 1970.74   87.49
  -6  -3  -4  500.08   27.88
  -6  -3  -4  527.30   27.20
   6   3   4  580.36   30.47
   6   3   4  540.83   29.11
   7   3   4  264.35   19.26
  -7  -3  -4  260.70   17.17
  -7  -3  -4  251.27   16.59
   8   3   4    1.25    4.80
  -8  -3  -4    2.79    4.51
  -8  -3  -4    4.77    4.46
  -9  -3  -4    7.03    5.75
  -9  -3  -4    2.96    5.09
  -6   4   4    4.75    5.70
   6  -4  -4    2.23    4.16
  -6   4   4    5.66    5.25
  -5   4   4  304.57   19.68
   5  -4  -4  271.67   19.54
  -5   4   4  256.79   21.22
  -4   4   4   98.22   12.43
  -4   4   4  149.69   11.87
  -4   4   4  125.82    9.23
   4  -4  -4  132.47   11.83
  -3   4   4  983.74   45.94
   3  -4  -4  911.73   49.73
  -3   4   4 1071.37   48.07
   3  -4  -4  993.80   49.33
  -2   4   4   18.91    4.16
  -2   4   4   12.37    3.32
   2  -4  -4   13.32    4.30
   2  -4  -4   10.01    4.29
  -1   4   4  672.29   32.20
  -1   4   4  718.68   32.48
   1  -4  -4  668.77   33.92
   1  -4  -4  624.33   33.99
   0   4   4  142.03    9.12
   0  -4  -4  114.29    9.08
   0  -4  -4  125.42    9.48
   0   4   4  116.96    8.66
  -1  -4  -4 2414.46   99.74
  -1  -4  -4 2407.16  108.66
   1   4   4 2515.25  105.60
   1   4   4 2368.80  106.00
  -1  -4  -4 2360.23  107.71
   2   4   4 1782.21   79.11
   2   4   4 1805.27   77.52
   2   4   4 1808.46   78.89
  -2  -4  -4 1723.42   73.95
  -2  -4  -4 1684.21   80.08
   3   4   4  401.57   21.93
   3   4   4  438.50   20.89
  -3  -4  -4  404.93   20.61
  -3  -4  -4  397.45   21.82
   3   4   4  423.51   20.72
  -4  -4  -4 1236.45   58.66
  -4  -4  -4 1256.51   55.05
   4   4   4 1213.03   58.06
   4   4   4 1313.17   56.84
   4   4   4 1235.39   57.30
   5   4   4    4.90    3.02
  -5  -4  -4    1.35    3.22
   5   4   4    0.96    2.84
   5   4   4    3.02    2.88
  -5  -4  -4    2.19    3.07
   6   4   4  339.90   19.95
  -6  -4  -4  327.95   19.72
  -6  -4  -4  324.09   18.97
   6   4   4  314.71   20.29
  -7  -4  -4   -2.17    3.88
  -7  -4  -4   -1.60    3.50
   7   4   4   -3.92    3.30
  -8  -4  -4   64.07    9.21
   8   4   4   75.97   11.63
  -8  -4  -4   77.58   10.17
  -9  -4  -4  285.08   18.99
  -9  -4  -4  235.97   18.98
  -6   5   4   -0.72    5.27
   6  -5  -4    3.67    4.82
  -6   5   4    4.77    6.12
  -5   5   4  516.17   29.95
   5  -5  -4  497.13   31.00
  -5   5   4  510.36   33.41
   4  -5  -4  199.57   16.03
  -4   5   4  199.25   13.50
  -4   5   4  203.48   17.20
  -4   5   4  189.05   14.79
   3  -5  -4  133.43   11.98
  -3   5   4  128.19   10.84
   3  -5  -4  140.02   12.78
  -3   5   4  129.43   10.18
   2  -5  -4   46.88    7.84
  -2   5   4   68.67    6.95
   2  -5  -4   51.98    7.73
  -2   5   4   67.86    7.18
  -1   5   4  265.29   15.08
   1  -5  -4  278.35   17.13
   1  -5  -4  258.40   17.12
  -1   5   4  244.52   15.41
   0   5   4 1339.42   61.21
   0   5   4 1269.97   60.00
   0  -5  -4 1393.65   63.14
   0  -5  -4 1336.03   63.50
   1   5   4   83.00    7.90
   1   5   4   96.10    6.28
  -1  -5  -4   89.76    8.36
  -2  -5  -4   33.75    5.65
   2   5   4   27.52    5.24
  -2  -5  -4   21.74    4.40
   2   5   4   34.10    5.08
   2   5   4   38.26    3.67
   3   5   4  688.26   32.97
   3   5   4  671.60   33.79
  -3  -5  -4  611.43   31.31
  -3  -5  -4  675.47   34.13
   3   5   4  695.73   31.37
   4   5   4  705.00   34.23
   4   5   4  758.45   35.04
   4   5   4  702.83   36.11
  -4  -5  -4  725.33   36.52
  -4  -5  -4  701.39   34.14
   5   5   4  408.79   21.46
   5   5   4  366.65   22.52
   5   5   4  425.96   21.43
  -5  -5  -4  399.93   21.75
  -5  -5  -4  355.64   22.30
  -6  -5  -4    1.59    3.83
  -6  -5  -4    3.60    4.12
   6   5   4    1.14    3.73
  -7  -5  -4  169.04   14.27
   7   5   4  175.29   14.84
  -7  -5  -4  210.22   14.71
   8   5   4   -1.65    4.59
  -8  -5  -4   -1.23    3.88
  -8  -5  -4   -6.33    4.02
  -9  -5  -4  154.68   14.94
  -9  -5  -4  169.63   14.71
   5  -6  -4   19.55    7.01
  -5   6   4   15.81    7.26
  -4   6   4   22.27    5.53
   4  -6  -4   19.79    6.77
  -3   6   4    5.80    3.99
   3  -6  -4   14.87    6.05
   3  -6  -4    2.86    4.59
   2  -6  -4  236.93   18.59
  -2   6   4  259.96   16.84
  -2   6   4  296.67   16.58
   2  -6  -4  251.99   18.32
   1  -6  -4  396.94   23.86
  -1   6   4  388.98   20.90
   1  -6  -4  395.77   24.28
  -1   6   4  390.16   22.36
   0   6   4  349.72   17.59
   0  -6  -4  338.12   21.28
   0   6   4  315.09   20.29
   0   6   4  359.01   20.28
   1   6   4    0.95    2.99
   1   6   4    2.80    1.50
  -1  -6  -4    1.86    3.44
   1   6   4    0.79    2.60
   2   6   4   16.92    4.89
  -2  -6  -4   31.51    6.18
   2   6   4   31.35    2.99
   2   6   4   34.10    5.81
   3   6   4 1088.32   46.48
   3   6   4 1085.19   50.05
  -3  -6  -4  991.82   50.95
   3   6   4 1025.80   50.26
  -3  -6  -4  970.63   46.99
   4   6   4    9.47    4.06
  -4  -6  -4   11.22    4.83
   4   6   4    6.62    3.98
  -4  -6  -4    7.76    3.86
  -5  -6  -4   39.83    6.76
   5   6   4   41.37    7.45
  -5  -6  -4   32.22    6.71
   5   6   4   34.71    5.79
  -6  -6  -4  114.46   11.42
   6   6   4  125.71   11.90
  -6  -6  -4  133.25   11.32
  -7  -6  -4  116.42   11.80
  -7  -6  -4   89.16   11.25
   7   6   4  138.04   12.85
   8   6   4  200.60   17.15
  -8  -6  -4  172.61   15.45
  -8  -6  -4  174.94   14.74
  -9  -6  -4    2.80    4.99
  -9  -6  -4   -0.84    5.86
  -4   7   4    4.17    4.96
   3  -7  -4  415.92   29.14
  -3   7   4  432.87   27.40
  -3   7   4  450.69   26.23
   2  -7  -4   21.80    6.94
  -2   7   4   29.13    7.18
  -2   7   4   29.98    6.59
  -1   7   4  195.16   14.52
   1  -7  -4  177.41   15.54
  -1   7   4  186.22   15.06
   0  -7  -4   -3.14    3.20
   0   7   4   -1.25    3.33
   0   7   4    1.62    3.85
   1   7   4  189.49   14.30
   1   7   4  198.75   14.31
  -1  -7  -4  159.40   14.07
   2   7   4  165.60   13.02
  -2  -7  -4  180.15   14.23
   2   7   4  151.96   12.95
  -3  -7  -4  136.74   12.28
   3   7   4  130.93   11.28
   3   7   4  133.39   11.79
  -4  -7  -4   13.40    5.52
   4   7   4   15.57    5.07
   4   7   4   12.53    5.13
   5   7   4   -4.66    3.33
  -5  -7  -4   -2.93    2.82
  -5  -7  -4   -4.49    3.43
   5   7   4   -1.88    3.54
   6   7   4  267.83   19.16
  -6  -7  -4  254.60   18.79
  -6  -7  -4  252.53   17.68
   7   7   4    6.05    5.02
  -7  -7  -4    2.15    4.95
  -7  -7  -4    4.87    4.74
  -8  -7  -4   31.00    8.01
  -8  -7  -4   32.01    8.58
   8   7   4   26.27    8.28
  -2   8   4   53.66    9.78
   2  -8  -4   59.92   11.65
  -2   8   4   63.79   10.78
  -1   8   4   31.03    7.75
   1  -8  -4   25.63    7.52
  -1   8   4   40.21    8.23
   0   8   4  146.24   13.51
   0   8   4  139.30   12.98
  -1  -8  -4   13.26    5.92
   1   8   4   31.53    7.36
   1   8   4   22.60    6.68
   2   8   4  172.46   14.71
  -2  -8  -4  191.97   15.80
   2   8   4  180.16   14.88
   3   8   4    1.61    4.08
   3   8   4   -4.97    3.25
  -3  -8  -4    2.04    4.49
  -4  -8  -4    4.86    5.05
   4   8   4    6.31    4.73
   4   8   4    5.02    4.98
   5   8   4  250.14   17.77
  -5  -8  -4  238.70   18.71
   5   8   4  235.50   18.42
   6   8   4   20.71    6.88
  -6  -8  -4   36.81    7.76
  -6  -8  -4   23.32    7.41
   7   8   4   45.47   10.18
  -7  -8  -4   34.90    8.89
  -7  -8  -4   26.35    7.82
  -1   9   4   44.56    9.43
  -1   9   4   46.06    9.69
   0   9   4   82.33   12.03
   0  -9  -4  113.31   14.36
   0   9   4   77.16   11.45
  -1  -9  -4   72.66   11.80
   1   9   4   76.85   11.27
   1   9   4   93.58   12.35
  -2  -9  -4   45.97    9.70
   2   9   4   49.30    9.55
   2   9   4   20.67    6.84
   3   9   4   13.62    6.39
  -3  -9  -4   18.22    7.03
   3   9   4   11.95    6.03
   4   9   4    4.24    5.40
  -4  -9  -4   12.31    6.66
   4   9   4   20.62    7.14
   5   9   4  100.98   13.08
   5   9   4  116.60   13.03
  -5  -9  -4  153.68   15.73
   6   9   4    6.74    6.33
  -6  -9  -4   10.93    6.82
  -5  -8   5  126.08   17.64
   5   8  -5  138.44   16.77
   5   8  -5  165.32   14.64
   4   8  -5  109.39   13.32
  -4  -8   5  150.42   18.02
   4   8  -5  118.78   14.89
  -3  -8   5    1.88    6.42
   3   8  -5    6.96    5.27
   3   8  -5    1.01    5.94
  -2  -8   5    0.64    5.33
   2   8  -5   -3.53    5.33
   2   8  -5    3.55    4.81
   1   8  -5  253.94   20.86
   1   8  -5  335.59   23.37
  -1  -8   5  295.06   22.83
   0   8  -5    1.52    6.03
   0  -8   5    7.20    6.13
   0   8  -5   10.87    5.97
  -1   8  -5   68.95   11.64
  -6  -7   5   -2.25    6.43
   6   7  -5    7.06    6.74
  -5  -7   5  166.14   18.44
   5   7  -5  113.07   14.88
   5   7  -5  165.92   13.58
   4   7  -5   -3.33    3.55
   4   7  -5   -3.71    4.56
  -4  -7   5   -2.17    5.45
  -3  -7   5   85.17   12.60
   3   7  -5   73.90   11.19
   3   7  -5   92.31   11.10
  -2  -7   5  208.76   17.36
   2   7  -5  176.15   16.21
   2   7  -5  198.67   15.66
   1   7  -5  282.18   21.04
   1   7  -5  294.06   20.54
  -1  -7   5  300.30   21.39
   0   7  -5   12.89    5.53
   0   7  -5   23.54    7.53
   0  -7   5   38.04    8.45
   1  -7   5    1.46    4.88
  -1   7  -5    2.66    4.27
  -1   7  -5    2.48    5.73
  -2   7  -5  259.95   20.30
  -2   7  -5  276.21   21.16
  -3   7  -5   13.61    7.37
  -3   7  -5   19.73    7.46
  -7  -6   5  264.89   22.99
   7   6  -5  241.60   21.35
   6   6  -5   80.71   12.59
  -6  -6   5  114.46   15.00
   5   6  -5   47.73    7.65
  -5  -6   5   24.95    8.49
   5   6  -5   31.73    8.69
  -4  -6   5  153.07   15.73
   4   6  -5  145.18   14.44
   4   6  -5  115.96   10.85
   3   6  -5   44.17    7.38
   3   6  -5   37.49    8.08
  -3  -6   5   56.41    9.92
   2   6  -5 1110.93   54.65
  -2  -6   5 1169.69   57.34
   2   6  -5 1082.76   56.42
   1   6  -5    2.94    4.69
  -1  -6   5   16.92    5.76
   1   6  -5    7.38    4.33
   0  -6   5    2.06    4.36
   0   6  -5   -6.57    3.85
   0   6  -5   -0.72    2.97
  -1   6  -5  362.57   23.18
  -1   6  -5  338.89   22.94
   1  -6   5  362.03   22.70
  -2   6  -5   84.84   11.44
  -2   6  -5   85.57   10.74
   2  -6   5   51.78    9.01
  -3   6  -5  202.50   15.95
  -3   6  -5  173.47   16.00
  -4   6  -5   -6.42    4.49
  -4   6  -5    2.82    4.79
  -8  -5   5  201.54   17.72
   8   5  -5  205.55   18.78
  -8  -5   5  192.05   20.95
  -7  -5   5   -1.41    6.13
   7   5  -5    1.64    5.64
  -7  -5   5    5.46    5.43
  -6  -5   5   22.99    6.51
   6   5  -5   29.32    6.22
  -6  -5   5   16.57    7.46
   6   5  -5   23.54    8.26
   5   5  -5   40.97    5.88
   5   5  -5   31.13    8.14
  -5  -5   5   44.56    9.45
  -5  -5   5   35.39    6.72
   5   5  -5   41.34    6.29
   4   5  -5  179.93   15.28
  -4  -5   5  204.69   16.71
  -4  -5   5  162.45   12.74
   4   5  -5  183.09   11.55
   4   5  -5  203.14   13.33
   3   5  -5  918.82   48.47
  -3  -5   5  935.84   45.69
   3   5  -5  963.14   46.03
  -3  -5   5  992.82   49.88
  -2  -5   5   32.31    7.05
   2   5  -5   35.27    6.01
  -2  -5   5   32.91    5.34
   2   5  -5   32.54    7.06
   1   5  -5   11.15    4.20
  -1  -5   5    8.10    4.25
   1   5  -5    8.46    4.86
  -1  -5   5   11.64    3.04
   0  -5   5   11.82    2.73
   0   5  -5   10.68    5.10
   0   5  -5    2.07    3.32
   0  -5   5   10.28    4.22
  -1   5  -5 1075.45   54.00
   1  -5   5 1135.08   50.64
  -1   5  -5 1082.47   54.21
   1  -5   5 1093.99   53.78
  -2   5  -5  227.73   16.34
   2  -5   5  244.28   14.43
  -2   5  -5  223.21   16.99
   2  -5   5  231.80   16.12
   3  -5   5    0.83    2.65
   3  -5   5    6.04    3.41
  -3   5  -5   19.75    6.17
  -3   5  -5    2.29    4.35
  -4   5  -5  111.00   11.22
  -4   5  -5  123.59   13.57
  -5   5  -5   37.54    7.92
  -5   5  -5   26.34    7.81
  -5   5  -5   45.11    9.67
   8   4  -5   99.63   13.78
  -8  -4   5  102.89   15.63
  -8  -4   5  155.96   15.19
  -7  -4   5  145.91   16.84
   7   4  -5  171.55   16.03
  -7  -4   5  157.10   14.18
  -6  -4   5   12.96    6.96
   6   4  -5   19.54    7.28
  -6  -4   5   12.50    5.22
   6   4  -5   15.79    5.06
  -5  -4   5  653.79   33.44
   5   4  -5  629.46   32.44
   5   4  -5  649.40   30.88
   5   4  -5  618.46   36.09
  -5  -4   5  572.55   35.97
   4   4  -5  242.12   14.38
  -4  -4   5  256.24   18.53
  -4  -4   5  250.45   15.79
   4   4  -5  231.17   17.66
   4   4  -5  229.10   14.10
  -3  -4   5  681.31   33.53
  -3  -4   5  669.09   36.35
   3   4  -5  660.49   35.68
   3   4  -5  662.19   32.71
  -2  -4   5   44.70    7.17
   2   4  -5   34.91    6.50
   2   4  -5   36.53    5.66
  -2  -4   5   36.47    5.54
  -1  -4   5  565.61   29.13
   1   4  -5  567.38   29.59
  -1  -4   5  527.46   27.26
   1   4  -5  533.93   28.23
   0   4  -5 1745.10   80.25
   0  -4   5 1791.52   77.33
   0  -4   5 1740.30   79.65
   0   4  -5 1630.79   78.81
   1  -4   5   26.64    4.85
  -1   4  -5   32.77    5.92
  -1   4  -5   31.90    6.38
   1  -4   5   29.40    4.17
  -2   4  -5  297.68   19.42
   2  -4   5  306.97   17.33
  -2   4  -5  305.10   18.67
   2  -4   5  315.82   18.13
   3  -4   5  176.14   12.37
   3  -4   5  158.22   11.78
  -3   4  -5  160.70   12.60
  -4   4  -5  688.55   36.18
   4  -4   5  718.42   36.60
  -5   4  -5  200.99   14.60
  -5   4  -5  194.28   16.07
  -6   4  -5   35.29    8.03
  -6   4  -5   31.22    7.97
  -8  -3   5   41.03    9.01
  -8  -3   5   50.29   11.80
   8   3  -5   28.86    7.66
  -7  -3   5   16.06    7.49
   7   3  -5   19.42    6.68
  -7  -3   5   21.92    6.50
  -6  -3   5   74.73    9.39
  -6  -3   5   64.95   11.09
   6   3  -5   85.29   11.41
  -5  -3   5   73.56   10.66
   5   3  -5   76.44    5.94
  -5  -3   5   69.15    8.49
   5   3  -5   83.99   11.34
   4   3  -5 1072.47   46.78
   4   3  -5  960.02   52.04
  -4  -3   5 1006.81   52.41
  -4  -3   5 1066.83   49.75
   3   3  -5   23.84    3.79
  -3  -3   5   34.33    6.83
   3   3  -5   28.77    6.47
  -3  -3   5   22.12    4.68
   2   3  -5 1198.21   57.63
   2   3  -5 1186.59   54.60
  -2  -3   5 1248.17   58.11
  -2  -3   5 1193.99   55.97
   1   3  -5  304.25   18.37
  -1  -3   5  315.33   17.72
   1   3  -5  321.18   17.44
  -1  -3   5  315.64   18.05
   0  -3   5 1600.82   73.16
   0   3  -5 1591.58   73.94
   0  -3   5 1629.93   72.38
  -1   3  -5  292.63   16.98
   1  -3   5  281.22   15.77
   1  -3   5  294.00   15.90
   2  -3   5   31.91    4.44
   2  -3   5   26.86    4.32
  -2   3  -5   39.65    5.66
  -3   3  -5 2009.18   92.31
   3  -3   5 2091.15   92.29
   3  -3   5 2008.09   91.95
   4  -3   5   23.70    5.29
  -4   3  -5   26.61    5.16
  -4   3  -5   20.38    4.63
   5  -3   5   57.60    8.30
  -5   3  -5   67.46    7.47
  -5   3  -5   68.26    9.68
  -6   3  -5   -2.38    3.93
  -7   3  -5  257.34   19.79
  -8  -2   5   -7.61    5.23
   8   2  -5    1.66    4.38
  -8  -2   5   -2.50    4.57
   7   2  -5   42.97    8.84
  -7  -2   5   21.97    7.87
  -7  -2   5   31.05    7.45
  -6  -2   5 1648.83   75.91
  -6  -2   5 1550.76   71.81
   6   2  -5 1319.42   73.01
   5   2  -5   48.62    8.61
  -5  -2   5   43.61    6.80
  -5  -2   5   32.16    7.72
  -4  -2   5   -2.47    2.50
   4   2  -5    0.91    1.25
  -4  -2   5    3.32    3.98
   4   2  -5   -4.52    2.96
  -3  -2   5  839.42   38.20
   3   2  -5  839.18   35.90
   3   2  -5  764.19   40.90
  -3  -2   5  734.72   40.20
  -3  -2   5  767.91   38.54
   2   2  -5    5.40    3.68
  -2  -2   5    5.56    2.02
  -2  -2   5    6.26    3.51
   2   2  -5    2.54    1.69
  -2  -2   5    3.20    2.75
  -1  -2   5 5191.76  225.83
  -1  -2   5 4746.93  222.67
  -1  -2   5 5428.02  222.60
   0  -2   5    3.53    2.85
   0   2  -5    4.62    3.04
   0  -2   5    4.06    2.21
   0   2  -5    2.49    2.10
   1  -2   5  844.40   39.48
  -1   2  -5  832.28   39.83
   1  -2   5  809.48   38.50
  -1   2  -5  875.47   38.47
   2  -2   5 1581.42   70.02
   2  -2   5 1467.46   70.11
   2  -2   5 1516.41   70.86
  -2   2  -5 1671.83   70.04
  -2   2  -5 1619.38   71.31
  -3   2  -5 2419.12  109.19
   3  -2   5 2485.38  109.30
  -3   2  -5 2528.59  108.48
   3  -2   5 2377.96  109.34
  -4   2  -5  969.70   44.43
  -4   2  -5  909.58   44.14
   4  -2   5  958.53   45.26
  -4   2  -5  903.24   43.75
   4  -2   5  913.17   45.50
   5  -2   5    8.52    4.09
  -5   2  -5   18.09    4.32
  -5   2  -5   17.15    5.46
   5  -2   5    8.89    4.33
  -5   2  -5   15.59    3.89
  -6   2  -5  388.19   24.20
   6  -2   5  420.06   25.51
   7  -2   5   -0.33    4.52
  -7   2  -5   -1.38    4.36
  -8   2  -5  181.78   16.26
  -8  -1   5  111.72   13.58
   8   1  -5  190.13   15.53
  -8  -1   5  140.13   16.91
  -7  -1   5  523.63   33.13
   7   1  -5  506.87   30.79
  -7  -1   5  517.94   30.53
  -6  -1   5   23.19    6.12
   6   1  -5   19.72    6.15
  -6  -1   5   20.07    7.01
  -5  -1   5   76.85    8.64
  -5  -1   5   64.68    9.46
   5   1  -5   64.77    9.30
  -4  -1   5   45.67    7.65
   4   1  -5   55.81    4.88
  -4  -1   5   49.54    6.70
   4   1  -5   39.23    7.30
   3   1  -5 5404.83  225.05
  -3  -1   5 5512.61  230.55
  -3  -1   5 4907.56  233.06
   3   1  -5 4843.61  232.45
  -3  -1   5 5255.74  228.89
   3   1  -5 5449.48  224.82
   3   1  -5 5373.89  211.54
   2   1  -5 2075.13   91.36
   2   1  -5 2240.21   86.84
  -2  -1   5 2167.63   94.68
  -2  -1   5 2105.26   94.73
   2   1  -5 2147.71   97.28
  -2  -1   5 1992.08   96.38
  -1  -1   5  341.83   18.23
   1   1  -5  352.40   17.64
   1   1  -5  311.51   18.58
  -1  -1   5  306.06   17.63
   0   1  -5   11.17    2.20
   0  -1   5   11.23    2.50
   0   1  -5   11.44    3.27
   0  -1   5    7.24    3.02
   0   1  -5   10.80    2.68
  -1   1  -5  425.14   21.15
   1  -1   5  411.73   21.58
  -1   1  -5  425.62   19.47
   1  -1   5  425.41   19.49
  -2   1  -5 4185.89  175.75
  -2   1  -5 4002.75  175.75
   2  -1   5 3868.62  175.17
   3  -1   5   19.76    4.04
  -3   1  -5   19.57    2.33
  -3   1  -5   27.25    5.02
  -3   1  -5   20.17    2.62
  -3   1  -5   19.48    3.18
  -4   1  -5   35.96    3.75
  -4   1  -5   37.06    4.23
  -4   1  -5   39.61    4.26
   4  -1   5   29.80    4.96
   4  -1   5   31.43    5.55
  -4   1  -5   34.81    6.26
  -5   1  -5  466.90   25.96
   5  -1   5  476.13   26.61
  -5   1  -5  507.41   24.74
  -5   1  -5  497.47   23.76
   5  -1   5  446.81   26.60
  -6   1  -5  257.66   17.96
   6  -1   5  291.84   19.22
   6  -1   5  285.32   19.19
  -6   1  -5  271.94   16.57
  -7   1  -5  345.45   22.88
   7  -1   5  402.95   25.62
  -8   1  -5    2.21    5.24
  -8   0   5   73.94   13.48
   8   0  -5   39.00    8.37
  -8   0   5   21.46    7.63
  -7   0   5  538.79   33.82
  -7   0   5  478.30   30.23
   7   0  -5  537.38   31.00
   6   0  -5  464.62   26.11
  -6   0   5  397.09   26.77
  -6   0   5  370.24   24.26
   5   0  -5   90.85    9.91
  -5   0   5   74.70   10.26
  -5   0   5   95.66    9.26
  -4   0   5 1445.24   68.15
   4   0  -5 1481.47   69.93
  -4   0   5 1471.78   70.75
   3   0  -5   39.40    6.40
  -3   0   5   42.19    5.60
   3   0  -5   44.29    3.00
  -3   0   5   47.58    5.87
  -3   0   5   34.46    6.10
   2   0  -5  372.62   15.40
  -2   0   5  363.97   19.40
   2   0  -5  376.10   16.33
   2   0  -5  326.01   20.30
  -2   0   5  372.81   20.38
  -2   0   5  341.33   19.39
  -1   0   5  154.08   10.04
   1   0  -5  159.51    9.99
  -1   0   5  151.11   10.35
   1   0  -5  134.94   10.52
   1   0  -5  153.02    8.74
   0   0  -5 5715.09  234.04
   0   0   5 4991.51  232.19
   0   0  -5 5479.74  229.36
   0   0   5 5250.36  234.07
   0   0  -5 5326.33  234.23
   1   0   5 4582.30  184.58
   1   0   5 4181.39  188.34
   1   0   5 4366.45  188.18
  -1   0  -5 4226.07  173.43
   1   0   5 4407.13  185.96
  -1   0  -5 3875.43  186.50
  -2   0  -5  291.32   16.38
  -2   0  -5  321.17   15.93
   2   0   5  304.90   17.07
   2   0   5  334.77   18.24
   2   0   5  343.92   15.78
  -3   0  -5   13.85    1.78
  -3   0  -5   17.24    2.09
   3   0   5    9.41    3.12
  -3   0  -5   16.71    2.35
  -3   0  -5   13.43    1.61
  -3   0  -5   11.71    3.57
  -4   0  -5  220.26   12.61
  -4   0  -5  236.85   14.69
  -4   0  -5  261.39   12.14
   4   0   5  238.22   15.11
  -4   0  -5  255.69   12.18
  -4   0  -5  248.47   12.63
  -5   0  -5 2724.47  115.58
   5   0   5 2680.17  122.71
   5   0   5 2796.08  123.69
  -5   0  -5 2745.57  119.11
  -5   0  -5 2692.80  121.12
   6   0   5   36.68    6.86
  -6   0  -5   44.52    5.64
   6   0   5   38.37    7.00
  -6   0  -5   44.14    7.45
   7   0   5   50.63    8.87
  -7   0  -5   34.97    7.44
  -8   0  -5   60.35    9.50
  -8   1   5  301.92   23.19
   8  -1  -5  324.20   22.94
  -8   1   5  311.01   25.45
  -7   1   5    1.49    5.32
   7  -1  -5    1.07    3.88
  -7   1   5    0.44    4.70
  -6   1   5  215.40   18.37
  -6   1   5  214.38   16.61
   6  -1  -5  235.09   16.91
   5  -1  -5  139.28   11.81
  -5   1   5  129.06   12.88
  -5   1   5  126.23   11.28
  -4   1   5 2037.48   96.23
  -4   1   5 1981.62   92.82
   4  -1  -5 2103.20   94.48
  -3   1   5  271.33   17.56
  -3   1   5  283.27   16.36
   3  -1  -5  252.87   16.46
  -2   1   5  633.30   34.33
  -2   1   5  702.08   30.25
   2  -1  -5  702.90   34.20
  -2   1   5  663.75   33.34
   2  -1  -5  705.09   30.15
   1  -1  -5 4320.84  189.32
  -1   1   5 4391.59  184.05
  -1   1   5 4484.07  187.80
   1  -1  -5 4308.34  183.72
  -1   1   5 4110.03  189.92
   1  -1  -5 4226.95  175.09
   0  -1  -5   80.93    5.02
   0   1   5   59.99    6.72
   0   1   5   76.59    5.77
   0   1   5   77.97    5.72
   0  -1  -5   70.95    6.18
   0  -1  -5   77.41    6.05
   1   1   5 2988.55  132.56
  -1  -1  -5 3044.70  133.99
   1   1   5 3145.46  124.45
  -1  -1  -5 3066.06  124.70
   1   1   5 2963.01  133.99
  -1  -1  -5 3053.36  133.89
   1   1   5 3089.88  133.88
  -1  -1  -5 3108.73  132.82
   2   1   5  202.52   11.74
  -2  -1  -5  233.25   11.02
   2   1   5  235.57   14.00
  -2  -1  -5  213.07   12.50
   2   1   5  254.84   11.41
  -2  -1  -5  254.40   11.57
   2   1   5  213.73   13.11
   3   1   5 1046.47   50.32
  -3  -1  -5 1046.99   46.69
  -3  -1  -5 1060.18   47.36
   3   1   5 1038.11   49.24
   3   1   5 1111.57   48.09
  -4  -1  -5 2351.11  105.10
   4   1   5 2349.66  107.21
   4   1   5 2617.36  106.44
   4   1   5 2279.52  106.25
  -4  -1  -5 2286.75   99.94
   5   1   5  346.29   20.32
  -5  -1  -5  350.32   19.43
  -5  -1  -5  340.98   17.92
   5   1   5  322.58   21.27
   6   1   5   41.73    7.23
  -6  -1  -5   38.93    6.86
   6   1   5   40.89    7.09
  -6  -1  -5   49.92    5.93
  -7  -1  -5    6.13    3.97
   7   1   5   10.88    5.06
   7   1   5   14.05    5.41
  -7  -1  -5   10.45    5.09
  -8  -1  -5  329.82   21.17
  -9  -1  -5   78.17   11.41
   7  -2  -5   25.72    7.35
  -7   2   5   28.63    8.78
  -7   2   5   14.48    6.37
   6  -2  -5   82.46   10.29
  -6   2   5   72.99   11.96
  -6   2   5   76.32   10.33
  -5   2   5 1959.88   94.44
   5  -2  -5 2063.30   95.78
  -5   2   5 2119.39   99.02
  -4   2   5    9.84    4.07
   4  -2  -5    3.84    3.18
  -4   2   5   11.22    4.98
  -4   2   5    9.59    1.40
  -4   2   5   10.93    1.94
  -3   2   5   99.23    9.75
  -3   2   5   97.54    5.91
   3  -2  -5   98.18    8.82
  -3   2   5  105.28    8.90
  -2   2   5  393.11   19.79
  -2   2   5  426.34   23.52
   2  -2  -5  476.30   20.36
  -2   2   5  417.99   22.43
   2  -2  -5  416.99   22.85
   1  -2  -5 2632.93  110.54
   1  -2  -5 2497.06  114.15
   1  -2  -5 2526.92  114.68
  -1   2   5 2577.50  113.33
  -1   2   5 2593.32  103.41
  -1   2   5 2545.17  110.47
   0  -2  -5 2794.54  124.85
   0   2   5 2959.52  114.53
   0   2   5 2892.03  122.19
   0  -2  -5 2841.21  125.34
   0   2   5 2612.63  124.46
   0  -2  -5 2814.07  114.54
   0  -2  -5 2878.03  122.13
   1   2   5   99.05    7.32
  -1  -2  -5  111.59    6.86
   1   2   5  105.24    8.11
  -1  -2  -5   97.30    6.66
  -1  -2  -5  103.88    6.80
   1   2   5  110.57    7.17
   1   2   5  115.07    6.69
   2   2   5 1079.67   49.64
   2   2   5 1131.33   48.45
   2   2   5 1126.52   49.24
  -2  -2  -5 1033.74   48.83
  -2  -2  -5 1034.60   48.23
   2   2   5 1104.95   49.71
  -2  -2  -5 1085.75   46.61
   3   2   5   32.50    5.19
   3   2   5   43.23    2.56
   3   2   5   29.87    4.40
  -3  -2  -5   39.19    3.84
   3   2   5   50.84    4.90
  -3  -2  -5   31.53    4.55
   4   2   5 1264.87   64.51
   4   2   5 1447.86   64.88
  -4  -2  -5 1419.66   63.62
  -4  -2  -5 1464.10   61.28
   4   2   5 1460.30   65.76
  -5  -2  -5  355.09   19.31
   5   2   5  377.35   21.34
  -5  -2  -5  354.77   20.03
   5   2   5  404.88   23.09
  -6  -2  -5   54.34    6.37
   6   2   5   54.24    7.90
   6   2   5   48.28    8.75
  -6  -2  -5   70.59    8.29
   7   2   5  513.18   29.71
   7   2   5  518.45   30.15
  -7  -2  -5  495.87   27.22
   7   2   5  504.74   30.75
  -7  -2  -5  502.55   27.40
  -8  -2  -5    1.95    4.36
  -9  -2  -5   77.87   10.68
   7  -3  -5  297.55   22.07
  -7   3   5  301.51   22.27
  -7   3   5  277.53   23.98
  -6   3   5  153.43   14.31
  -6   3   5  147.13   16.85
   6  -3  -5  158.28   14.29
  -5   3   5  118.25   14.21
   5  -3  -5  130.07   12.22
  -5   3   5  141.45   12.52
   4  -3  -5    2.77    3.36
  -4   3   5    7.72    4.12
  -4   3   5    5.99    2.33
  -4   3   5    5.11    4.54
  -3   3   5  298.98   18.13
  -3   3   5  303.60   13.67
  -3   3   5  285.36   19.51
  -3   3   5  303.65   15.44
   3  -3  -5  310.50   18.84
  -2   3   5 1895.12   87.08
  -2   3   5 1976.98   78.76
   2  -3  -5 1939.12   89.36
   2  -3  -5 1889.10   88.52
  -2   3   5 1965.03   84.60
  -1   3   5  279.94   14.08
   1  -3  -5  238.60   15.14
   1  -3  -5  252.81   15.49
  -1   3   5  264.49   12.24
  -1   3   5  261.16   15.15
   0   3   5   12.58    3.70
   0  -3  -5    9.79    2.99
   0   3   5   14.65    3.12
   0  -3  -5   14.44    3.36
   0  -3  -5   12.05    2.35
   0   3   5   15.78    2.43
   1   3   5 2041.91   92.03
  -1  -3  -5 2057.65   92.38
  -1  -3  -5 1960.08   85.41
  -1  -3  -5 2055.97   92.99
   1   3   5 2293.80   85.77
   1   3   5 2044.38   91.15
   2   3   5 2853.78  126.89
  -2  -3  -5 2770.11  119.37
  -2  -3  -5 3046.80  127.84
  -2  -3  -5 2954.71  128.95
   2   3   5 2918.87  127.34
  -3  -3  -5 2250.73  100.14
   3   3   5 2199.90   99.24
   3   3   5 2362.15   98.42
  -3  -3  -5 2151.20   93.61
   3   3   5 2256.75   98.41
   3   3   5 2229.40   99.43
  -4  -3  -5   15.44    3.59
   4   3   5   10.92    1.99
   4   3   5   11.17    3.55
  -4  -3  -5   12.62    3.66
   4   3   5    6.24    3.34
   4   3   5   11.53    1.57
  -5  -3  -5   95.52    8.04
  -5  -3  -5  103.95    8.90
   5   3   5  105.97    9.79
   5   3   5   88.87    8.74
   6   3   5   88.49   10.54
  -6  -3  -5   72.43    8.69
   6   3   5  100.91    9.60
  -6  -3  -5   94.39    8.49
  -7  -3  -5  613.13   33.30
  -7  -3  -5  658.58   33.09
   7   3   5  672.40   37.05
   7   3   5  637.80   35.22
  -8  -3  -5  132.15   12.96
  -8  -3  -5  143.65   12.35
   8   3   5  145.91   15.89
  -9  -3  -5    0.06    4.77
  -6   4   5  173.29   15.70
  -6   4   5  152.34   17.86
   6  -4  -5  157.24   15.02
   5  -4  -5    9.73    5.19
  -5   4   5    9.24    5.23
  -5   4   5    8.47    5.99
  -4   4   5  258.35   19.80
  -4   4   5  271.79   15.04
   4  -4  -5  260.01   18.48
  -4   4   5  270.52   17.93
   3  -4  -5 1195.49   60.48
  -3   4   5 1220.18   56.40
  -3   4   5 1324.69   59.36
   2  -4  -5  401.13   24.95
   2  -4  -5  457.85   26.02
  -2   4   5  467.08   23.09
  -2   4   5  497.73   24.67
  -1   4   5  300.16   17.08
   1  -4  -5  295.42   18.16
  -1   4   5  304.13   16.49
   1  -4  -5  301.54   18.01
   0   4   5    7.95    3.03
   0   4   5   16.07    4.08
   0  -4  -5   16.25    4.02
   0  -4  -5    8.81    3.22
  -1  -4  -5 1698.05   75.71
   1   4   5 1739.22   74.51
   1   4   5 1608.68   74.43
  -1  -4  -5 1652.08   76.27
  -1  -4  -5 1617.58   69.70
  -2  -4  -5 1441.55   67.83
   2   4   5 1495.05   65.96
   2   4   5 1478.21   66.92
  -2  -4  -5 1455.60   62.77
  -2  -4  -5 1500.83   66.97
   3   4   5  600.24   27.73
   3   4   5  574.32   27.89
   3   4   5  566.14   29.05
  -3  -4  -5  582.37   27.58
  -3  -4  -5  545.96   28.67
  -4  -4  -5    4.11    3.16
   4   4   5    9.39    3.43
   4   4   5    9.58    2.75
  -4  -4  -5    7.29    3.60
   4   4   5   11.07    3.71
  -5  -4  -5  227.76   13.81
   5   4   5  175.10   10.88
  -5  -4  -5  197.72   13.05
   5   4   5  195.82   13.96
   5   4   5  203.84   13.26
  -6  -4  -5  788.57   41.87
   6   4   5  882.31   42.90
   6   4   5  874.31   43.80
  -6  -4  -5  869.95   40.83
   7   4   5   11.11    5.68
  -7  -4  -5    9.68    5.06
  -7  -4  -5    2.42    4.43
  -8  -4  -5   -1.42    4.24
   8   4   5   -4.00    4.31
  -8  -4  -5   -3.21    3.77
   9   4   5   47.87   11.17
  -9  -4  -5   46.59    8.98
   6  -5  -5   11.13    6.37
  -6   5   5   33.85    9.51
  -5   5   5   89.93   11.17
  -5   5   5   68.07   12.24
   5  -5  -5   88.79   12.11
   4  -5  -5   22.81    6.63
  -4   5   5   19.79    6.14
  -4   5   5   13.97    6.06
   3  -5  -5  840.01   45.52
  -3   5   5  823.54   40.95
   3  -5  -5  848.88   44.77
  -3   5   5  908.99   43.06
   2  -5  -5   58.55    8.18
   2  -5  -5   54.40    8.28
  -2   5   5   59.34    6.86
  -2   5   5   47.90    6.43
   1  -5  -5  204.72   14.41
   1  -5  -5  177.46   14.09
  -1   5   5  212.65   13.22
  -1   5   5  199.17   12.94
   0  -5  -5 1022.01   50.33
   0  -5  -5 1062.53   50.04
   0   5   5 1031.54   48.32
   0   5   5  991.86   47.78
  -1  -5  -5  162.08   11.77
   1   5   5  157.74   11.32
   1   5   5  162.34   10.03
  -1  -5  -5  154.21   11.37
  -2  -5  -5  333.31   19.19
   2   5   5  330.22   16.70
   2   5   5  328.14   18.27
  -2  -5  -5  320.43   17.42
   2   5   5  316.98   18.82
   3   5   5   12.33    2.99
  -3  -5  -5   14.31    4.02
  -3  -5  -5   12.47    4.11
   3   5   5   11.71    3.58
   3   5   5    7.50    3.65
   4   5   5  722.22   34.71
   4   5   5  715.38   36.48
  -4  -5  -5  731.73   36.51
  -4  -5  -5  669.47   34.18
   4   5   5  754.86   34.87
   5   5   5  152.13   10.80
  -5  -5  -5  145.38   11.46
  -5  -5  -5  132.90   11.07
   5   5   5  144.04   11.86
   5   5   5  146.25   10.12
   6   5   5  224.91   14.93
   6   5   5  183.58   15.02
  -6  -5  -5  208.24   14.94
  -6  -5  -5  214.78   14.97
  -7  -5  -5    5.28    4.50
  -7  -5  -5    8.85    4.66
   7   5   5   10.25    5.06
  -8  -5  -5   15.07    6.01
  -8  -5  -5   11.61    5.49
   8   5   5   11.60    6.08
  -9  -5  -5  264.78   20.09
  -9  -5  -5  284.72   20.27
   9   5   5  282.28   22.65
  -5   6   5  115.62   15.88
   5  -6  -5   86.64   12.76
   4  -6  -5  253.78   19.68
  -4   6   5  240.21   20.37
  -3   6   5   11.26    5.04
   3  -6  -5   21.66    6.88
  -3   6   5   11.58    4.48
   3  -6  -5   11.38    5.42
  -2   6   5   40.60    6.48
   2  -6  -5   35.12    7.46
  -2   6   5   40.12    6.72
   2  -6  -5   29.08    7.67
  -1   6   5   35.96    5.76
  -1   6   5   17.44    4.78
   1  -6  -5   36.94    7.44
   1  -6  -5   26.06    6.52
   0   6   5  861.06   44.20
   0  -6  -5  929.25   46.78
   0   6   5  909.88   42.72
   0  -6  -5  950.81   46.29
   1   6   5   51.29    4.87
   1   6   5   40.12    6.64
   1   6   5   44.35    6.83
  -1  -6  -5   40.83    6.96
   2   6   5   15.38    2.65
   2   6   5    9.17    4.11
  -2  -6  -5    5.73    3.92
   2   6   5   10.10    4.37
   3   6   5 1498.67   67.99
  -3  -6  -5 1339.59   63.76
  -3  -6  -5 1458.50   69.45
   3   6   5 1547.68   65.06
   3   6   5 1417.18   68.15
  -4  -6  -5   61.53    8.11
   4   6   5   53.11    7.99
   4   6   5   65.34    6.12
   4   6   5   57.20    6.76
  -4  -6  -5   66.14    7.90
  -5  -6  -5  514.92   28.29
  -5  -6  -5  506.33   29.73
   5   6   5  518.42   30.13
   5   6   5  591.36   28.73
   5   6   5  581.36   28.10
  -6  -6  -5   10.20    4.97
  -6  -6  -5    0.74    3.67
   6   6   5    6.06    4.77
   7   6   5   43.90    8.57
  -7  -6  -5   38.94    7.63
  -7  -6  -5   40.62    8.10
  -8  -6  -5  103.29   12.02
   8   6   5  103.77   13.12
  -8  -6  -5   76.34   10.89
   9   6   5   40.62    9.96
  -9  -6  -5   18.60    7.63
  -9  -6  -5   19.43    7.14
   3  -7  -5   60.54   10.70
  -3   7   5   53.69    8.62
   3  -7  -5   69.67   12.06
   2  -7  -5  153.48   15.59
  -2   7   5  124.67   11.64
  -1   7   5  506.77   29.39
  -1   7   5  500.67   28.10
   1  -7  -5  487.56   30.17
   0   7   5    0.58    3.69
   0  -7  -5    1.90    3.72
   0   7   5   -0.82    3.17
   1   7   5    3.32    3.92
   1   7   5    3.01    4.11
  -1  -7  -5    5.06    4.32
  -2  -7  -5  134.25   12.19
   2   7   5  114.83   11.20
   2   7   5  141.00   11.75
  -3  -7  -5  670.08   37.08
   3   7   5  701.64   35.94
   3   7   5  687.85   36.61
   4   7   5   76.90    8.52
   4   7   5   63.41    9.18
  -4  -7  -5   61.98    8.93
  -4  -7  -5   47.58    7.85
   5   7   5    8.98    4.87
  -5  -7  -5   22.89    6.47
  -5  -7  -5   14.68    5.27
   5   7   5   23.41    6.62
  -6  -7  -5   47.88    8.83
  -6  -7  -5   37.66    7.46
   6   7   5   40.09    8.26
  -7  -7  -5    1.55    4.43
   7   7   5    4.40    5.30
  -7  -7  -5   -2.98    4.43
  -8  -7  -5  104.54   12.37
  -8  -7  -5   96.72   12.40
   8   7   5   92.09   12.93
  -2   8   5   44.97    9.40
   2  -8  -5   39.72    9.51
  -2   8   5   31.82    7.70
  -1   8   5  166.06   14.98
   1  -8  -5  154.51   15.44
  -1   8   5  158.71   14.07
   0   8   5   -2.30    3.46
   0  -8  -5    1.14    4.22
   0   8   5   -0.04    3.94
  -1  -8  -5    2.71    4.80
   1   8   5    4.23    4.53
   1   8   5    0.02    3.93
   2   8   5  302.47   20.11
   2   8   5  301.77   20.37
  -2  -8  -5  283.82   20.86
  -3  -8  -5   -2.06    4.04
   3   8   5    2.59    4.19
   3   8   5    7.24    4.98
   4   8   5    0.42    4.35
   4   8   5    1.01    4.15
  -4  -8  -5   -0.20    4.15
  -5  -8  -5    1.47    4.96
   5   8   5   14.37    5.81
   5   8   5   12.95    5.89
  -6  -8  -5   73.69   10.93
  -6  -8  -5  125.85   12.82
   6   8   5   77.98   11.70
   7   8   5   55.25   10.92
  -7  -8  -5   67.07   10.99
  -7  -8  -5   52.01    9.40
   0   9   5   92.51   12.10
   0   9   5   45.99    9.42
   0  -9  -5   49.63   10.59
   1   9   5   53.42    9.69
   1   9   5   44.47    9.50
  -1  -9  -5   70.47   11.61
   2   9   5   99.43   12.56
  -2  -9  -5   73.73   11.77
   2   9   5   64.39   10.27
   3   9   5    4.36    4.91
  -3  -9  -5   -1.96    4.51
   3   9   5    3.49    5.24
   4   9   5   -2.84    4.67
  -4  -9  -5    8.55    6.01
   4   9   5    4.08    5.08
   5   9   5  178.13   16.26
   5   9   5  160.96   14.77
  -5  -9  -5  162.80   16.04
  -6  -9  -5   -1.63    5.32
   6   9   5   -3.88    5.22
   4   8  -6  250.77   21.64
   4   8  -6  248.77   19.56
  -4  -8   6  243.77   22.50
   3   8  -6   33.80    9.79
   3   8  -6   47.66    9.88
  -3  -8   6   33.74   10.12
   2   8  -6   46.69   10.81
   2   8  -6   42.72    9.28
  -2  -8   6   36.86   10.53
   1   8  -6  112.51   14.58
   1   8  -6  116.93   14.64
   0   8  -6   -1.73    6.02
   0   8  -6    3.05    4.73
   6   7  -6   16.77    8.30
  -6  -7   6   17.64    9.81
   5   7  -6  276.47   23.30
  -5  -7   6  335.91   26.00
   4   7  -6   64.22    9.77
   4   7  -6   42.30    9.91
  -4  -7   6   70.05   12.83
  -3  -7   6   -2.53    5.34
   3   7  -6    0.15    5.19
   3   7  -6    7.45    4.91
  -2  -7   6   20.54    7.41
   2   7  -6    5.35    4.72
   2   7  -6   25.47    7.99
   1   7  -6  289.19   21.37
  -1  -7   6  266.84   20.58
   1   7  -6  287.92   20.59
   0   7  -6  254.32   19.71
   0   7  -6  243.97   19.23
   0  -7   6  237.95   18.99
  -1   7  -6  125.58   14.82
  -1   7  -6   87.91   12.24
  -2   7  -6   -3.17    4.45
  -2   7  -6   -3.02    5.40
   7   6  -6   98.91   14.79
  -7  -6   6  141.03   18.22
  -6  -6   6  151.78   18.16
   6   6  -6  169.45   18.15
  -5  -6   6  407.23   28.16
   5   6  -6  348.95   25.90
  -4  -6   6   63.56   11.29
   4   6  -6   84.93    9.91
   4   6  -6   79.20   11.82
  -3  -6   6   16.89    6.87
   3   6  -6    2.23    3.52
   3   6  -6    8.27    5.55
  -2  -6   6  472.02   28.56
   2   6  -6  488.65   28.89
   2   6  -6  435.65   26.64
  -1  -6   6   24.87    6.88
   1   6  -6   22.42    6.30
   1   6  -6   16.74    6.62
   0  -6   6   97.86   11.12
   0   6  -6  116.76   12.41
   0   6  -6   92.08   11.35
  -1   6  -6   66.44   10.45
   1  -6   6   66.44    9.29
  -1   6  -6   81.33   10.56
  -2   6  -6  140.78   15.27
  -2   6  -6  174.11   14.69
  -3   6  -6  243.31   18.59
  -3   6  -6  242.27   19.59
  -4   6  -6   60.62   10.25
  -4   6  -6   55.97   11.06
  -7  -5   6   29.76    8.34
  -7  -5   6   33.92   10.41
   7   5  -6   35.04    9.77
  -6  -5   6  350.86   22.24
   6   5  -6  314.67   24.34
  -6  -5   6  306.53   24.55
   5   5  -6    5.70    5.67
  -5  -5   6    2.32    5.65
  -5  -5   6   -3.42    3.67
  -4  -5   6  241.67   16.13
  -4  -5   6  222.88   18.54
   4   5  -6  226.21   15.14
   4   5  -6  224.92   18.04
   3   5  -6   58.22    7.65
   3   5  -6   66.61    9.69
  -3  -5   6   66.08    7.98
  -3  -5   6   64.67   10.16
  -2  -5   6  314.04   18.58
   2   5  -6  318.80   21.02
  -2  -5   6  328.83   21.20
   2   5  -6  300.92   19.03
  -1  -5   6  408.60   20.10
   1   5  -6  325.85   22.11
  -1  -5   6  351.69   21.82
   1   5  -6  330.52   21.24
   0   5  -6    4.49    4.39
   0  -5   6    5.97    4.15
   0   5  -6    2.36    3.38
   0  -5   6    8.56    3.03
   1  -5   6 1001.33   51.60
   1  -5   6 1094.25   49.48
  -1   5  -6 1072.04   52.79
  -1   5  -6 1047.37   52.98
  -2   5  -6   12.54    5.51
   2  -5   6   23.74    5.63
   2  -5   6   10.52    3.75
  -2   5  -6    8.31    5.00
  -3   5  -6  271.23   20.07
  -3   5  -6  274.46   19.13
   3  -5   6  294.57   17.88
  -4   5  -6    9.02    5.35
  -4   5  -6    7.83    5.49
  -5   5  -6   21.63    7.07
  -5   5  -6   21.88    7.25
  -8  -4   6  281.47   24.36
  -8  -4   6  278.13   21.59
   8   4  -6  269.19   22.44
  -7  -4   6  139.26   17.23
   7   4  -6  178.80   17.02
  -7  -4   6  178.11   15.83
  -6  -4   6   28.30    7.27
  -6  -4   6   28.25    8.56
   6   4  -6   33.10    8.82
  -5  -4   6  310.67   20.03
  -5  -4   6  288.36   22.27
   5   4  -6  327.32   22.93
   4   4  -6  121.35   13.07
  -4  -4   6   86.32   11.80
   4   4  -6  141.37    9.82
  -4  -4   6  121.47   11.01
  -3  -4   6 2343.93  107.29
   3   4  -6 2342.10  101.52
   3   4  -6 2209.19  106.09
  -3  -4   6 2242.86  103.23
  -2  -4   6   -1.24    3.74
  -2  -4   6   -1.67    3.11
   2   4  -6   -2.50    3.38
   2   4  -6    1.06    2.51
   1   4  -6   12.64    5.04
   1   4  -6   13.96    4.20
  -1  -4   6    5.39    3.65
  -1  -4   6   10.72    4.44
   0  -4   6  512.48   25.05
   0  -4   6  457.13   25.38
   0   4  -6  456.83   26.23
   0   4  -6  485.19   26.77
  -1   4  -6  280.91   18.94
  -1   4  -6  302.16   18.81
   1  -4   6  312.25   17.19
   1  -4   6  301.70   17.67
   2  -4   6  934.82   45.55
  -2   4  -6  923.08   46.47
   2  -4   6  961.82   45.16
   3  -4   6   25.51    5.31
   3  -4   6   29.90    5.34
  -3   4  -6   24.12    6.11
   4  -4   6   51.44    7.86
  -4   4  -6   62.39    8.04
  -5   4  -6   70.83    8.86
  -5   4  -6   54.58    9.94
  -6   4  -6  292.69   21.81
   8   3  -6    0.87    4.85
  -8  -3   6   -1.74    6.50
  -8  -3   6    3.34    4.98
   7   3  -6   60.86   10.74
  -7  -3   6   65.76   11.72
  -7  -3   6   54.60    9.57
  -6  -3   6    1.70    4.25
   6   3  -6   18.49    7.11
  -6  -3   6   12.42    6.46
  -5  -3   6  415.20   27.58
   5   3  -6  478.01   28.57
  -5  -3   6  428.10   25.48
  -4  -3   6 1329.38   60.90
  -4  -3   6 1174.48   63.07
   4   3  -6 1181.05   63.09
   4   3  -6 1375.03   57.29
  -3  -3   6  426.78   23.12
  -3  -3   6  376.25   24.26
   3   3  -6  427.68   20.86
   3   3  -6  375.19   24.29
   2   3  -6   -0.59    1.96
   2   3  -6    0.50    3.54
  -2  -3   6    4.52    3.56
  -2  -3   6    3.03    3.71
   1   3  -6   92.86    9.49
   1   3  -6   98.32    8.29
  -1  -3   6  112.04    9.29
  -1  -3   6  105.93    9.28
   0   3  -6 1845.28   86.26
   0  -3   6 1918.75   85.04
   1  -3   6  115.77    8.31
   1  -3   6  123.19    9.27
  -1   3  -6  124.40   10.00
   2  -3   6    5.37    2.78
  -2   3  -6    9.87    4.16
   2  -3   6    6.65    2.74
   3  -3   6  201.07   13.94
   3  -3   6  210.22   12.72
   3  -3   6  222.12   12.89
  -3   3  -6  205.24   14.01
  -4   3  -6  131.28   12.60
  -4   3  -6  160.36   11.88
  -4   3  -6  180.23   11.41
   4  -3   6  152.69   11.68
   4  -3   6  174.18   12.87
   5  -3   6  624.27   34.17
  -5   3  -6  662.08   32.49
   5  -3   6  636.90   34.00
  -5   3  -6  554.96   33.12
  -6   3  -6   -1.66    4.21
  -7   3  -6    3.55    5.68
  -8  -2   6  218.76   18.42
   8   2  -6  219.12   18.91
  -8  -2   6  224.64   20.94
  -7  -2   6   -3.80    4.49
  -7  -2   6    6.40    5.39
   7   2  -6    1.26    4.23
  -6  -2   6  576.43   31.94
  -6  -2   6  593.79   34.76
   6   2  -6  517.17   33.28
  -5  -2   6   69.30   10.39
   5   2  -6   61.60    9.97
  -5  -2   6   54.74    8.07
  -4  -2   6  644.60   37.11
  -4  -2   6  680.69   35.43
   4   2  -6  733.44   38.44
   4   2  -6  694.79   30.76
   3   2  -6   76.57    5.50
  -3  -2   6   74.09    7.95
   3   2  -6   62.39    9.02
  -3  -2   6   60.42    8.40
  -3  -2   6   78.33    6.96
  -2  -2   6  698.01   31.03
  -2  -2   6  664.81   32.87
   2   2  -6  650.80   30.34
  -2  -2   6  616.09   33.28
   2   2  -6  584.70   33.70
  -1  -2   6 3169.45  127.51
   1   2  -6 2804.11  130.48
  -1  -2   6 2742.00  130.14
  -1  -2   6 2907.40  129.35
   0   2  -6  431.38   22.60
   0  -2   6  407.00   21.03
   0   2  -6  435.36   20.89
   0  -2   6  391.64   22.32
  -1   2  -6  518.63   23.88
   1  -2   6  487.56   23.94
   1  -2   6  497.22   25.78
  -1   2  -6  503.63   25.76
  -2   2  -6  156.15   10.55
   2  -2   6  148.84    8.78
   2  -2   6  143.90    8.42
   2  -2   6  144.31   10.37
  -2   2  -6  153.49    8.45
   3  -2   6 1873.10   90.09
   3  -2   6 2062.29   89.74
  -3   2  -6 1971.82   89.80
  -3   2  -6 2062.75   88.37
  -4   2  -6  323.07   17.11
  -4   2  -6  313.69   19.63
  -4   2  -6  305.22   17.74
   4  -2   6  336.19   18.86
   4  -2   6  324.08   19.53
  -5   2  -6  316.30   19.98
   5  -2   6  292.00   19.10
  -5   2  -6  319.84   17.40
   5  -2   6  275.87   19.19
   6  -2   6    3.73    4.17
   6  -2   6    3.80    4.26
  -6   2  -6   -5.15    3.49
   7  -2   6   33.70    8.46
  -7   2  -6   22.01    7.82
   8   1  -6   19.00    7.12
  -8  -1   6   18.31    7.35
  -8  -1   6   13.91    7.80
  -7  -1   6  107.74   14.23
   7   1  -6  114.48   13.37
  -7  -1   6  111.87   12.77
   6   1  -6  475.25   29.66
  -6  -1   6  494.04   30.49
  -6  -1   6  467.92   28.01
  -5  -1   6 1185.58   57.15
   5   1  -6 1011.24   55.56
  -5  -1   6 1104.07   53.97
  -4  -1   6    4.70    4.13
  -4  -1   6   -4.31    2.43
   4   1  -6    4.07    4.05
   4   1  -6    0.51    1.69
  -3  -1   6 1355.59   63.96
  -3  -1   6 1306.85   65.84
   3   1  -6 1472.63   59.90
   3   1  -6 1364.54   57.12
   3   1  -6 1429.63   66.99
   3   1  -6 1394.35   59.53
  -3  -1   6 1301.95   64.02
   2   1  -6   79.45    8.81
  -2  -1   6   73.28    7.78
  -2  -1   6   66.81    7.62
   2   1  -6   74.92    5.40
  -2  -1   6   68.98    6.47
   1   1  -6 3466.58  137.51
  -1  -1   6 3157.87  140.55
   1   1  -6 3010.34  141.90
  -1  -1   6 3054.37  141.32
   0   1  -6  549.53   24.92
   0   1  -6  499.70   26.49
   0  -1   6  494.89   26.64
   0  -1   6  511.89   25.08
  -1   1  -6    1.55    1.24
   1  -1   6   -0.30    2.28
  -1   1  -6    4.82    2.65
   1  -1   6    2.20    1.30
  -2   1  -6 2394.25  104.48
   2  -1   6 2310.43  104.78
  -3   1  -6  103.73    5.72
  -3   1  -6  103.11    9.05
  -3   1  -6  115.68    7.85
   3  -1   6  105.07    8.78
  -3   1  -6  109.10    5.69
  -4   1  -6  450.47   21.74
   4  -1   6  449.48   23.75
  -4   1  -6  443.00   20.60
   4  -1   6  419.69   24.02
  -4   1  -6  431.69   20.81
  -4   1  -6  397.71   23.42
  -5   1  -6   23.33    5.88
  -5   1  -6   13.53    3.23
   5  -1   6   10.87    4.26
   5  -1   6   11.02    4.67
  -5   1  -6   13.56    3.22
   6  -1   6  270.58   18.92
  -6   1  -6  279.47   18.94
   6  -1   6  277.54   19.18
  -7   1  -6  166.20   14.97
   7  -1   6  169.48   15.68
  -8   1  -6  128.90   14.15
  -8   0   6   29.40    9.95
   8   0  -6   35.92    8.46
  -8   0   6   46.44    9.87
  -7   0   6  600.03   37.74
   7   0  -6  649.96   36.03
  -7   0   6  557.69   34.33
  -6   0   6  208.76   17.99
  -6   0   6  199.86   16.12
   6   0  -6  233.56   17.70
   5   0  -6   -0.56    3.39
  -5   0   6    5.31    4.11
  -5   0   6    5.90    4.57
  -4   0   6  333.10   20.25
  -4   0   6  350.21   21.79
   4   0  -6  327.96   21.37
  -3   0   6  864.64   43.82
  -3   0   6  872.20   42.50
  -3   0   6  913.64   42.91
   3   0  -6  815.19   43.79
  -2   0   6 4603.14  206.14
   2   0  -6 4307.64  205.73
  -2   0   6 4742.55  203.29
   2   0  -6 4588.55  198.18
   2   0  -6 4968.64  186.90
  -1   0   6  196.16   13.41
   1   0  -6  210.31   13.97
   1   0  -6  206.79   11.67
  -1   0   6  224.65   12.96
   0   0   6  143.33    9.40
   0   0  -6  175.40   11.55
   0   0   6  165.34   11.60
   0   0  -6  165.82   10.30
   1   0   6  713.87   31.39
  -1   0  -6  714.28   33.70
   1   0   6  695.67   34.29
  -1   0  -6  699.42   31.45
   1   0   6  671.29   31.54
  -2   0  -6 4041.04  184.02
   2   0   6 4440.07  184.27
  -2   0  -6 4162.50  172.38
  -3   0  -6   12.39    3.67
  -3   0  -6    9.31    2.49
   3   0   6   14.16    2.27
   3   0   6   10.89    3.48
  -4   0  -6    2.99    1.39
   4   0   6    2.74    2.66
  -4   0  -6    1.82    1.39
  -4   0  -6    0.65    1.83
  -4   0  -6    4.98    1.80
  -4   0  -6   -1.64    2.96
  -5   0  -6  702.64   30.47
  -5   0  -6  691.44   31.58
   5   0   6  606.15   34.62
  -5   0  -6  645.82   33.58
  -6   0  -6   27.12    6.34
  -6   0  -6   25.22    4.47
   6   0   6   18.83    5.70
   6   0   6   33.52    6.60
   7   0   6  765.16   41.19
  -7   0  -6  737.67   38.31
   7   0   6  709.11   40.29
  -8   0  -6   -6.82    3.63
  -7   1   6   85.43   11.85
   7  -1  -6  110.74   12.81
  -7   1   6   74.46   12.82
  -6   1   6   78.61   10.42
  -6   1   6   88.87   12.85
   6  -1  -6  106.90   12.06
   5  -1  -6  104.80   11.22
  -5   1   6   68.29   10.35
  -5   1   6   73.50    9.29
   4  -1  -6 1560.12   72.80
  -4   1   6 1478.18   71.01
  -4   1   6 1509.27   73.78
  -3   1   6  621.98   32.33
   3  -1  -6  651.28   33.55
  -3   1   6  616.64   33.74
   2  -1  -6  593.27   29.97
  -2   1   6  568.07   25.55
  -2   1   6  525.16   29.47
   2  -1  -6  570.25   25.26
  -2   1   6  568.74   29.07
   1  -1  -6  975.75   37.57
  -1   1   6  782.15   40.48
  -1   1   6  924.43   43.64
  -1   1   6  892.53   43.41
   1  -1  -6  974.20   40.82
   1  -1  -6  897.70   43.75
   0   1   6  748.85   34.86
   0   1   6  739.33   36.88
   0   1   6  725.27   35.30
   0  -1  -6  748.15   36.14
   0  -1  -6  761.31   35.11
   0  -1  -6  754.36   32.22
   0   1   6  774.40   35.41
   1   1   6 6399.83  270.91
  -1  -1  -6 6099.25  254.84
  -1  -1  -6 6276.59  274.83
   1   1   6 6611.06  275.13
   1   1   6 6175.67  273.73
   2   1   6   17.45    4.26
  -2  -1  -6   14.19    3.39
  -2  -1  -6    6.37    1.99
  -2  -1  -6   10.87    1.39
   2   1   6   10.95    1.61
   2   1   6    6.83    2.55
   2   1   6    8.00    3.08
  -3  -1  -6   -0.38    0.98
   3   1   6   -2.40    1.85
  -3  -1  -6   -1.52    2.29
  -3  -1  -6    1.66    1.10
   3   1   6    0.90    1.13
   3   1   6   -0.60    2.61
   3   1   6    1.81    1.31
  -4  -1  -6  384.82   20.81
   4   1   6  373.95   22.77
  -4  -1  -6  373.17   18.38
   4   1   6  360.98   21.28
   4   1   6  422.61   19.22
  -5  -1  -6 1442.40   67.37
   5   1   6 1579.05   72.19
   5   1   6 1596.37   68.46
  -5  -1  -6 1433.41   66.23
   5   1   6 1451.97   70.19
  -6  -1  -6  161.44   12.83
   6   1   6  167.18   13.31
  -6  -1  -6  157.59   10.68
   7   1   6   46.08    8.52
  -7  -1  -6   49.69    8.36
   7   1   6   25.59    6.87
  -8  -1  -6   31.83    7.72
  -9  -1  -6    0.64    5.75
  -7   2   6    9.15    6.04
  -7   2   6   25.73    8.66
   7  -2  -6   19.84    6.74
  -6   2   6   84.89   11.15
   6  -2  -6   73.30   10.47
  -6   2   6   83.02   12.63
  -5   2   6 1064.04   55.37
   5  -2  -6 1031.93   53.00
  -5   2   6 1022.51   52.11
  -4   2   6   37.69    7.77
   4  -2  -6   43.94    7.41
  -4   2   6   43.31    7.13
  -3   2   6 1083.39   51.51
  -3   2   6 1050.21   53.46
   3  -2  -6 1064.14   52.37
  -3   2   6 1075.91   46.85
   2  -2  -6   82.36    5.47
  -2   2   6   74.95    5.27
  -2   2   6   62.90    7.21
   2  -2  -6   62.88    7.31
  -2   2   6   71.81    8.06
   1  -2  -6 2294.74   97.59
   1  -2  -6 2222.70  101.44
  -1   2   6 2201.44  100.78
  -1   2   6 2288.02   91.02
  -1   2   6 2243.42   97.65
   0  -2  -6  700.83   34.63
   0   2   6  737.49   30.95
   0   2   6  746.49   33.87
   0  -2  -6  738.14   35.08
   0   2   6  730.51   36.02
   0  -2  -6  720.71   31.05
  -1  -2  -6 2062.60   94.76
  -1  -2  -6 2067.36   94.72
   1   2   6 2125.78   93.89
   1   2   6 2189.83   95.11
  -1  -2  -6 2241.34   88.31
   1   2   6 2224.01   87.91
   1   2   6 2037.73   95.44
  -2  -2  -6  120.09    7.28
   2   2   6  118.28    9.06
   2   2   6  118.90    9.07
   2   2   6  134.84    7.84
   2   2   6  130.39    7.81
  -2  -2  -6  122.59    7.35
  -2  -2  -6  117.56    8.23
  -3  -2  -6   11.85    3.53
   3   2   6    9.70    3.22
  -3  -2  -6    8.25    2.14
   3   2   6   10.98    2.03
   3   2   6   10.20    3.78
   3   2   6    9.14    2.61
  -3  -2  -6    8.93    1.40
   4   2   6 1163.92   54.25
  -4  -2  -6 1205.40   51.60
   4   2   6 1207.19   55.61
   4   2   6 1009.73   52.96
  -4  -2  -6 1194.42   52.33
  -5  -2  -6   22.75    5.17
   5   2   6   24.96    5.46
  -5  -2  -6   30.10    4.18
   5   2   6   18.86    5.62
   6   2   6    8.34    4.25
  -6  -2  -6    4.37    3.99
   6   2   6    6.80    4.72
  -6  -2  -6    4.26    3.27
   7   2   6  127.00   12.13
  -7  -2  -6  128.52   11.65
   7   2   6  126.84   14.29
  -7  -2  -6  106.75    9.55
  -8  -2  -6  269.38   18.93
  -9  -2  -6  115.01   13.13
   7  -3  -6    8.81    5.57
  -7   3   6   17.14    8.29
  -7   3   6   13.75    6.74
  -6   3   6    3.52    5.01
  -6   3   6    8.28    5.95
   6  -3  -6    2.84    4.49
   5  -3  -6 1224.71   60.02
  -5   3   6 1172.64   58.71
  -5   3   6 1139.42   61.89
  -4   3   6   54.54    9.64
  -4   3   6   67.01    8.70
   4  -3  -6   57.92    8.51
  -3   3   6  106.06    7.23
  -3   3   6  107.81    9.90
  -3   3   6  113.63   10.89
   3  -3  -6  116.36   10.47
  -3   3   6  112.57    5.24
  -2   3   6  771.18   38.19
   2  -3  -6  732.07   38.75
  -2   3   6  774.45   35.50
  -2   3   6  798.12   32.02
   1  -3  -6    9.32    3.47
  -1   3   6   19.34    3.48
  -1   3   6   19.28    4.62
  -1   3   6   17.26    2.23
   1  -3  -6   15.83    4.12
   0   3   6 1776.73   84.60
   0  -3  -6 1877.45   77.06
   0   3   6 1869.69   82.61
   0  -3  -6 1810.59   84.99
   0   3   6 2022.05   77.12
   0  -3  -6 1872.54   84.81
  -1  -3  -6   87.56    6.74
   1   3   6   91.50    8.07
   1   3   6   77.76    6.94
  -1  -3  -6   86.85    6.35
  -1  -3  -6   81.96    6.73
   2   3   6 1328.72   63.49
  -2  -3  -6 1447.80   63.87
  -2  -3  -6 1443.33   59.94
  -2  -3  -6 1359.05   62.98
   2   3   6 1435.53   63.93
  -3  -3  -6  875.69   39.19
   3   3   6  830.63   41.43
  -3  -3  -6  851.07   40.36
   3   3   6  900.39   39.22
   3   3   6  856.23   41.01
   4   3   6  592.77   30.93
  -4  -3  -6  571.43   28.81
   4   3   6  580.93   29.98
   4   3   6  626.36   26.67
  -4  -3  -6  577.30   28.82
  -5  -3  -6  112.76    8.25
   5   3   6   71.88    9.36
  -5  -3  -6  116.60    9.69
   5   3   6  107.87    9.42
  -6  -3  -6   -2.19    3.10
   6   3   6    1.48    3.89
  -6  -3  -6   -0.34    2.93
   6   3   6    3.42    3.62
   7   3   6  311.04   21.55
   7   3   6  343.91   23.67
  -7  -3  -6  325.63   20.66
  -7  -3  -6  362.97   20.13
   8   3   6   16.77    6.88
  -8  -3  -6    7.34    5.17
  -9  -3  -6   65.37   10.39
   6  -4  -6  259.97   21.25
  -6   4   6  307.07   24.45
  -6   4   6  276.74   21.03
  -5   4   6    7.15    5.54
   5  -4  -6    2.05    4.45
  -5   4   6   -2.03    4.03
   4  -4  -6   13.11    5.40
  -4   4   6    5.78    4.97
  -4   4   6   14.64    5.51
  -3   4   6   29.85    4.44
  -3   4   6   31.39    7.03
  -3   4   6   24.86    5.97
   3  -4  -6   20.26    5.54
  -2   4   6  895.98   42.98
   2  -4  -6  871.22   44.12
  -2   4   6  855.37   40.63
   2  -4  -6  875.91   44.56
  -1   4   6 1020.40   41.61
  -1   4   6  936.64   45.04
  -1   4   6  965.22   46.74
   1  -4  -6  964.72   48.03
   1  -4  -6  991.53   47.82
   0  -4  -6   11.18    3.60
   0   4   6   12.04    4.22
   0   4   6    8.41    3.16
   0  -4  -6   12.38    3.87
  -1  -4  -6  297.45   16.80
   1   4   6  288.94   16.71
  -1  -4  -6  288.25   15.18
   1   4   6  333.34   17.28
  -1  -4  -6  277.74   16.89
  -2  -4  -6    7.39    3.01
   2   4   6    7.44    3.19
  -2  -4  -6   10.02    2.98
  -2  -4  -6    3.34    2.51
   2   4   6    9.76    2.99
   3   4   6 1992.38   87.12
   3   4   6 1827.93   87.78
  -3  -4  -6 1993.40   83.05
   3   4   6 1991.90   87.44
  -3  -4  -6 1964.93   88.72
   4   4   6    0.07    2.32
   4   4   6    0.16    2.81
  -4  -4  -6   -0.78    2.79
  -4  -4  -6    0.33    2.68
   4   4   6    3.87    2.20
  -5  -4  -6    3.43    3.32
   5   4   6    3.11    3.22
  -5  -4  -6    2.52    3.44
   5   4   6    3.08    3.00
  -6  -4  -6  396.03   22.52
   6   4   6  408.05   23.39
  -6  -4  -6  403.53   22.18
   6   4   6  353.15   23.62
  -7  -4  -6   46.61    7.28
  -7  -4  -6   39.92    7.54
   7   4   6   60.15   10.06
   7   4   6   36.52    7.46
  -8  -4  -6  108.79   11.75
  -8  -4  -6  110.20   10.81
   8   4   6   97.47   13.30
  -9  -4  -6    1.61    5.47
   9   4   6    1.21    5.36
  -5   5   6   -2.28    4.76
   5  -5  -6   -2.92    4.23
  -5   5   6   -2.98    4.52
  -4   5   6  219.71   19.10
  -4   5   6  247.65   17.72
   4  -5  -6  240.59   18.63
  -3   5   6  637.11   33.21
  -3   5   6  627.85   30.81
   3  -5  -6  587.50   34.94
   3  -5  -6  596.26   34.47
   2  -5  -6   14.99    5.54
  -2   5   6   18.63    5.18
  -2   5   6   14.36    4.11
   2  -5  -6   19.12    5.50
  -1   5   6  108.92    9.72
   1  -5  -6   99.72    9.82
   1  -5  -6   84.81    9.91
  -1   5   6  108.11    8.69
   0   5   6   60.74    7.19
   0   5   6   65.92    7.28
   0  -5  -6   63.25    7.95
   0  -5  -6   52.91    7.22
   1   5   6  893.35   42.46
  -1  -5  -6  869.35   43.54
   1   5   6  909.27   41.63
  -1  -5  -6  837.82   42.81
   2   5   6  511.75   24.80
  -2  -5  -6  459.43   26.37
   2   5   6  486.50   26.44
  -2  -5  -6  528.51   26.18
  -2  -5  -6  496.85   24.58
   3   5   6  156.46   12.08
  -3  -5  -6  161.89   11.20
   3   5   6  150.21   10.58
   3   5   6  160.04   10.34
  -3  -5  -6  160.43   11.63
   4   5   6    1.14    2.64
   4   5   6    2.86    3.27
  -4  -5  -6    1.23    3.21
   4   5   6    3.29    2.82
  -4  -5  -6    4.77    3.48
  -5  -5  -6  126.03   10.42
  -5  -5  -6  124.61   10.89
   5   5   6  120.95   11.17
   5   5   6  148.27    9.39
   5   5   6  126.15   10.13
   6   5   6  546.25   31.32
   6   5   6  561.26   30.05
  -6  -5  -6  561.48   30.08
  -6  -5  -6  551.30   29.53
  -7  -5  -6   11.07    5.17
   7   5   6    6.21    4.53
  -7  -5  -6   11.52    5.52
   7   5   6    5.73    4.95
   8   5   6   17.61    6.96
  -8  -5  -6    5.21    5.00
  -8  -5  -6   10.11    5.62
   9   5   6   68.19   12.48
  -9  -5  -6   75.23   11.02
  -4   6   6   80.78   12.85
   4  -6  -6   73.05   11.73
  -3   6   6  269.91   17.09
  -3   6   6  279.90   18.71
   3  -6  -6  258.68   19.90
   2  -6  -6  100.22   11.49
  -2   6   6   96.15    9.25
   2  -6  -6   97.75   11.99
  -2   6   6   92.92    9.86
   1  -6  -6   20.59    6.31
   1  -6  -6   20.09    5.86
  -1   6   6   23.22    5.38
  -1   6   6   31.34    6.05
   0   6   6  830.91   39.99
   0  -6  -6  819.85   41.53
   0  -6  -6  758.12   41.59
   0   6   6  786.83   38.75
   1   6   6   90.54    7.53
  -1  -6  -6   84.93    9.26
   1   6   6   83.42    9.12
  -1  -6  -6   94.22    9.81
  -2  -6  -6  246.21   15.07
   2   6   6  249.31   13.55
   2   6   6  243.75   15.68
   2   6   6  255.86   16.50
  -2  -6  -6  216.32   16.05
  -3  -6  -6   20.25    5.49
   3   6   6   19.70    4.83
   3   6   6   14.35    5.12
  -3  -6  -6   23.41    5.21
   3   6   6   19.42    3.60
   4   6   6   17.33    4.36
  -4  -6  -6   12.82    4.88
  -4  -6  -6   10.96    4.38
   4   6   6   13.93    3.68
   4   6   6   16.37    5.33
  -5  -6  -6  477.95   26.21
   5   6   6  512.03   25.61
   5   6   6  502.52   25.33
   5   6   6  448.70   27.39
  -5  -6  -6  428.97   26.48
   6   6   6   31.91    6.10
  -6  -6  -6   35.62    7.20
   6   6   6   30.62    7.18
  -6  -6  -6   26.27    6.48
  -7  -6  -6    6.00    4.80
   7   6   6    4.69    4.65
  -7  -6  -6    0.65    4.40
  -8  -6  -6    9.37    5.87
   8   6   6    2.94    5.31
  -8  -6  -6    0.63    5.32
   9   6   6   60.77   12.32
   3  -7  -6    6.79    5.72
   3  -7  -6    8.49    6.12
  -2   7   6   40.71    7.66
   2  -7  -6   40.90    8.83
   2  -7  -6   29.64    7.57
   1  -7  -6  132.51   12.89
   1  -7  -6  126.81   13.91
  -1   7   6  122.30   11.42
   0   7   6  153.17   12.85
   0  -7  -6  167.86   14.44
   1   7   6  149.80   12.57
   1   7   6  140.60   12.44
  -1  -7  -6  154.23   13.40
   2   7   6   13.83    4.83
   2   7   6   14.37    5.29
  -2  -7  -6    8.19    4.72
  -3  -7  -6  223.40   16.38
   3   7   6  216.75   16.16
   3   7   6  214.24   15.08
  -4  -7  -6   10.29    4.94
   4   7   6    6.66    3.84
   4   7   6    6.52    4.60
  -4  -7  -6   10.94    4.59
  -5  -7  -6  244.46   17.29
   5   7   6  250.35   18.64
  -5  -7  -6  271.37   18.52
   5   7   6  256.51   16.87
   6   7   6   18.16    6.57
  -6  -7  -6   14.64    5.51
  -6  -7  -6    9.14    5.43
  -7  -7  -6    3.85    4.80
  -7  -7  -6   -3.11    4.39
   7   7   6    3.10    5.58
   8   7   6  156.04   17.18
  -8  -7  -6  162.03   14.77
  -8  -7  -6  151.33   14.69
  -2   8   6   13.48    5.81
  -2   8   6   15.53    6.49
   2  -8  -6    3.61    5.67
  -1   8   6  199.03   17.22
  -1   8   6  222.34   16.97
   1  -8  -6  243.44   19.53
   0  -8  -6   17.99    6.47
   0   8   6    8.23    5.14
   0   8   6    9.35    5.35
  -1  -8  -6    1.75    4.46
   1   8   6    0.87    4.20
   1   8   6    1.66    4.23
   2   8   6  145.43   13.40
   2   8   6  148.37   13.06
  -2  -8  -6  143.66   13.85
  -3  -8  -6  104.04   12.29
   3   8   6  125.84   11.98
   3   8   6  108.43   10.98
   4   8   6  154.81   14.07
   4   8   6  164.99   13.63
  -4  -8  -6  174.16   15.06
  -5  -8  -6   55.01    9.20
  -5  -8  -6   30.77    7.81
   5   8   6   53.54    8.38
   5   8   6   51.11    9.34
  -6  -8  -6    3.46    4.61
  -6  -8  -6    7.22    5.69
   6   8   6   -1.24    4.87
   7   8   6   77.78   13.04
  -7  -8  -6   79.17   11.44
  -7  -8  -6   77.64   11.59
   0   9   6   -4.08    4.15
   0   9   6   -3.12    4.62
   0  -9  -6   -1.97    4.76
  -1  -9  -6   17.27    7.00
   1   9   6   18.81    6.94
   1   9   6   21.72    7.28
   2   9   6  102.15   12.29
   2   9   6  119.43   13.56
   3   9   6   16.05    6.48
   3   9   6   26.34    7.22
  -3  -9  -6    9.90    6.10
   4   9   6   18.76    7.05
   4   9   6   13.42    6.12
  -4  -9  -6    8.81    6.20
  -5  -9  -6    3.33    5.71
   5   9   6    9.49    6.27
   6   9   6   -2.14    5.19
  -6  -9  -6   12.26    6.90
   3   8  -7   24.76    7.84
   3   8  -7   21.09    8.88
  -3  -8   7    2.68    7.59
  -2  -8   7   99.71   14.54
   2   8  -7  137.64   16.43
   2   8  -7  114.56   14.71
   1   8  -7   11.82    6.64
   1   8  -7    1.86    6.82
  -5  -7   7   61.66   13.53
   5   7  -7   57.89   12.13
   4   7  -7   74.61   10.59
   4   7  -7   59.14   11.69
  -4  -7   7   65.48   12.65
   3   7  -7  179.67   15.45
  -3  -7   7  187.10   17.78
   3   7  -7  186.75   17.55
   2   7  -7   49.31   10.03
  -2  -7   7   42.39    9.64
   2   7  -7   45.53    8.98
   1   7  -7   56.18   10.91
  -1  -7   7   48.67    9.54
   1   7  -7   59.06   10.24
   0   7  -7   30.14    8.35
   0   7  -7   30.11    8.57
  -1   7  -7  308.49   22.59
  -1   7  -7  284.48   22.51
  -2   7  -7   20.82    8.09
  -6  -6   7   -2.21    6.50
   6   6  -7    4.13    6.45
   5   6  -7  332.50   24.41
  -5  -6   7  284.26   24.25
  -4  -6   7   20.04    8.41
   4   6  -7   41.26    7.49
   4   6  -7   39.33    9.87
   3   6  -7  202.01   17.29
  -3  -6   7  154.44   16.16
   3   6  -7  209.85   15.12
   2   6  -7  329.67   21.14
   2   6  -7  326.90   22.84
  -2  -6   7  297.60   21.77
   1   6  -7  148.19   13.19
  -1  -6   7  125.24   12.73
   1   6  -7  117.44   13.43
   0   6  -7  418.53   26.94
   0   6  -7  420.47   26.84
   0  -6   7  435.04   26.11
  -1   6  -7   36.33    8.26
  -1   6  -7   46.31    9.00
  -2   6  -7    6.48    5.83
  -2   6  -7    2.34    4.68
  -3   6  -7   33.08    8.46
  -3   6  -7   42.34    9.14
  -7  -5   7   27.05    9.97
   7   5  -7   24.02    9.04
  -7  -5   7   22.19    8.21
  -6  -5   7  321.54   21.49
   6   5  -7  282.14   22.93
  -6  -5   7  258.40   23.10
  -5  -5   7  140.13   13.29
  -5  -5   7  142.29   16.35
   5   5  -7  161.17   15.79
  -4  -5   7   79.62   12.18
  -4  -5   7  103.16   10.48
   4   5  -7   66.02   10.97
   4   5  -7   59.63    7.78
   3   5  -7    7.17    5.55
  -3  -5   7    5.19    5.79
   3   5  -7    9.43    3.98
  -3  -5   7   12.57    5.13
   2   5  -7  482.62   26.51
  -2  -5   7  483.20   25.95
   2   5  -7  445.19   28.05
  -2  -5   7  443.35   27.77
  -1  -5   7  139.63   12.31
  -1  -5   7  155.24   11.74
   1   5  -7  161.71   14.08
   1   5  -7  149.90   12.69
   0   5  -7  459.77   27.46
   0  -5   7  500.91   25.14
   0  -5   7  423.97   26.04
   0   5  -7  477.72   27.99
   1  -5   7  165.27   12.60
  -1   5  -7  144.04   13.54
   1  -5   7  176.30   11.95
  -1   5  -7  151.01   13.71
  -2   5  -7   72.64    9.72
  -2   5  -7   92.99   12.07
  -3   5  -7  552.46   34.05
  -3   5  -7  606.76   32.84
  -4   5  -7    5.51    5.46
  -4   5  -7    3.71    5.10
  -5   5  -7   18.82    7.60
  -5   5  -7   12.53    6.44
   7   4  -7    3.84    5.56
  -7  -4   7    1.84    6.53
  -7  -4   7   10.77    6.72
  -6  -4   7  617.02   38.71
   6   4  -7  660.43   38.87
  -6  -4   7  622.78   35.58
  -5  -4   7   14.48    5.82
   5   4  -7   16.40    6.60
  -5  -4   7    8.22    6.58
  -4  -4   7   -1.86    3.94
   4   4  -7    4.34    2.75
   4   4  -7    1.38    4.42
  -4  -4   7   -3.22    4.31
  -3  -4   7  553.40   32.11
   3   4  -7  576.67   28.37
   3   4  -7  511.87   31.43
  -3  -4   7  532.79   29.77
  -2  -4   7   -5.48    3.44
   2   4  -7    2.16    4.48
   2   4  -7    1.39    2.96
  -2  -4   7    5.04    4.74
  -1  -4   7  623.04   33.72
   1   4  -7  700.92   34.58
   1   4  -7  722.02   36.30
  -1  -4   7  621.22   34.42
   0   4  -7   14.97    5.03
   0   4  -7    7.11    4.66
   0  -4   7    9.48    3.99
   1  -4   7  400.23   21.87
  -1   4  -7  379.80   23.29
   1  -4   7  393.80   21.75
   2  -4   7  226.26   14.15
  -2   4  -7  214.92   15.69
   2  -4   7  217.50   14.56
   3  -4   7  667.30   34.29
  -3   4  -7  636.12   34.45
  -4   4  -7   59.53    8.28
   4  -4   7   52.92    7.97
  -5   4  -7    2.72    4.89
   5  -4   7    9.38    4.91
  -6   4  -7  263.79   20.71
  -8  -3   7   90.90   13.25
   8   3  -7   80.84   12.90
   7   3  -7  321.57   24.26
  -7  -3   7  307.85   24.40
  -7  -3   7  307.47   22.27
   6   3  -7   -1.07    4.45
  -6  -3   7    0.88    4.77
  -6  -3   7    0.03    5.19
  -5  -3   7   73.27   11.17
   5   3  -7   79.93   11.61
  -5  -3   7   74.84   10.00
   4   3  -7   13.91    6.22
  -4  -3   7   10.63    5.91
  -4  -3   7   22.58    5.91
   4   3  -7   16.40    3.48
   3   3  -7 1388.80   59.63
  -3  -3   7 1283.31   64.62
  -3  -3   7 1357.81   62.84
   3   3  -7 1199.41   64.26
  -2  -3   7  179.38   14.05
   2   3  -7  184.25   14.49
   2   3  -7  186.47   11.77
  -2  -3   7  167.76   13.35
  -1  -3   7  140.57   10.97
   1   3  -7  141.61   10.45
   1   3  -7  125.78   11.61
  -1  -3   7  143.51   11.50
   0   3  -7  717.93   36.15
   0  -3   7  714.41   34.42
   0  -3   7  665.30   35.10
   1  -3   7   83.81    8.08
  -1   3  -7   78.99    8.58
   1  -3   7   81.08    6.82
   2  -3   7  661.20   32.81
   2  -3   7  618.49   30.76
  -2   3  -7  641.99   33.04
   3  -3   7   -1.03    2.06
   3  -3   7   -1.77    2.56
  -3   3  -7    1.58    3.29
   3  -3   7   -0.25    2.29
  -4   3  -7   73.39    8.27
   4  -3   7   80.68    9.16
  -4   3  -7   98.53   11.09
  -5   3  -7  264.10   18.90
   5  -3   7  256.18   18.40
   6  -3   7  214.75   17.65
  -6   3  -7  230.28   18.12
  -7   3  -7  133.81   15.30
   8   2  -7   42.00   10.00
  -8  -2   7   35.88    9.09
  -7  -2   7   83.16   11.44
  -7  -2   7   89.44   13.74
   7   2  -7   51.42   10.50
   6   2  -7   -0.59    4.39
  -6  -2   7    0.75    4.53
  -6  -2   7    4.10    5.35
  -5  -2   7  226.36   16.47
   5   2  -7  239.27   18.60
  -5  -2   7  187.53   16.96
  -4  -2   7  900.92   45.47
   4   2  -7  922.14   48.08
  -4  -2   7  886.60   47.24
  -3  -2   7   16.87    5.35
   3   2  -7   23.74    3.35
  -3  -2   7   17.80    4.20
   3   2  -7   20.22    6.24
  -3  -2   7   24.44    6.23
  -2  -2   7  112.25   10.45
  -2  -2   7  111.81   10.32
   2   2  -7  119.17    8.08
   2   2  -7   93.32   10.67
  -2  -2   7  133.30    8.49
  -1  -2   7 1134.33   47.10
  -1  -2   7  961.10   49.24
   1   2  -7  978.36   50.29
  -1  -2   7 1032.00   50.02
   0  -2   7 1731.86   83.36
   0  -2   7 1742.91   82.30
   0   2  -7 1889.90   84.18
   0   2  -7 1939.84   82.19
   1  -2   7 1349.49   63.86
  -1   2  -7 1384.24   61.55
   1  -2   7 1407.02   61.79
  -1   2  -7 1340.74   63.81
   2  -2   7  202.02   13.81
  -2   2  -7  214.55   11.01
  -2   2  -7  219.15   13.85
   2  -2   7  219.93   11.15
  -3   2  -7    4.89    3.49
   3  -2   7    6.79    3.47
  -3   2  -7   10.20    2.19
   3  -2   7    7.86    3.15
   4  -2   7    0.72    2.97
  -4   2  -7    0.65    2.99
  -4   2  -7    4.04    4.28
   4  -2   7    6.63    3.41
   5  -2   7 1320.99   64.49
   5  -2   7 1379.47   64.31
  -5   2  -7 1270.75   61.70
   6  -2   7   20.41    6.45
   6  -2   7   26.08    6.83
  -6   2  -7   18.79    6.55
  -7   2  -7   -9.50    4.05
  -8  -1   7  110.32   13.90
   8   1  -7  134.47   15.40
  -7  -1   7   10.16    6.26
  -7  -1   7    8.37    5.21
   7   1  -7    7.10    5.54
   6   1  -7  414.21   28.51
  -6  -1   7  442.13   27.35
  -6  -1   7  494.89   30.21
   5   1  -7  194.20   16.97
  -5  -1   7  212.31   17.23
  -5  -1   7  226.87   16.26
  -4  -1   7  341.77   22.53
   4   1  -7  348.12   23.20
  -4  -1   7  356.83   21.59
   3   1  -7  403.84   18.35
   3   1  -7  397.91   24.66
  -3  -1   7  371.34   22.73
  -3  -1   7  401.76   22.21
   3   1  -7  400.16   18.32
  -3  -1   7  370.12   23.43
   3   1  -7  422.29   18.85
  -2  -1   7   72.06    8.35
   2   1  -7   58.70    8.36
   2   1  -7   73.94    5.97
  -2  -1   7   83.23    7.20
  -2  -1   7   90.32    8.84
  -1  -1   7 1820.46   81.20
   1   1  -7 1795.61   82.41
  -1  -1   7 1688.02   81.27
   0  -1   7   12.58    4.49
   0   1  -7   16.10    4.51
   0  -1   7   17.42    3.44
   0   1  -7   17.73    3.12
  -1   1  -7  372.83   17.25
  -1   1  -7  344.82   19.72
   1  -1   7  363.89   17.15
   1  -1   7  348.05   20.40
   2  -1   7   14.92    4.13
  -2   1  -7   14.94    4.13
  -2   1  -7   23.62    4.23
  -3   1  -7  363.19   19.38
   3  -1   7  373.06   21.15
  -3   1  -7  379.80   20.84
  -4   1  -7 1098.61   52.27
   4  -1   7 1133.89   54.63
  -4   1  -7 1152.61   51.96
   5  -1   7  374.98   23.07
   5  -1   7  410.41   23.91
  -5   1  -7  392.33   23.29
   6  -1   7    7.31    4.80
   6  -1   7    1.86    4.38
  -6   1  -7    8.32    5.37
  -7   1  -7   12.46    6.23
   7  -1   7    8.76    5.39
   7  -1   7   11.81    5.98
  -8   1  -7  389.59   26.14
   7   0  -7  204.95   18.41
  -7   0   7  252.81   20.97
  -7   0   7  199.82   17.43
   6   0  -7   36.45    8.36
  -6   0   7   33.70    7.55
  -6   0   7   47.59    9.80
   5   0  -7 1456.89   70.55
  -5   0   7 1409.55   70.52
  -5   0   7 1370.17   67.90
  -4   0   7   -0.56    3.22
  -4   0   7   -3.38    3.12
   4   0  -7   -2.48    3.23
  -3   0   7  395.81   22.48
  -3   0   7  380.27   22.79
   3   0  -7  367.17   23.32
  -2   0   7  355.30   20.79
   2   0  -7  373.01   15.70
  -2   0   7  356.39   20.63
   2   0  -7  333.08   17.13
   2   0  -7  351.83   21.64
  -1   0   7 1181.49   56.50
  -1   0   7 1111.02   56.97
   1   0  -7 1276.50   58.22
   1   0  -7 1264.53   54.69
   0   0   7  867.79   44.62
   0   0  -7  862.48   39.64
   0   0   7 1011.10   42.87
   0   0  -7  923.29   44.55
   0   0   7  917.67   42.81
  -1   0  -7  374.67   18.94
   1   0   7  358.74   17.95
  -1   0  -7  389.86   20.58
   1   0   7  404.77   17.85
   1   0   7  348.44   21.06
  -2   0  -7 1687.55   79.51
  -2   0  -7 1813.72   75.65
   2   0   7 1816.15   80.85
  -3   0  -7  152.24   11.15
   3   0   7  169.58   11.70
  -3   0  -7  151.32    9.61
  -4   0  -7  961.63   43.03
  -4   0  -7  915.06   44.26
   4   0   7  955.81   46.48
   5   0   7    4.16    3.97
  -5   0  -7   13.37    4.89
   6   0   7   88.40   10.20
  -6   0  -7   82.49   10.73
   6   0   7   72.75    9.74
  -7   0  -7  631.44   33.30
   7   0   7  540.63   33.76
   7   0   7  598.18   34.85
  -8   0  -7   60.27   10.76
  -7   1   7  529.92   34.74
   7  -1  -7  543.17   33.35
  -7   1   7  494.34   31.95
  -6   1   7  228.00   19.07
  -6   1   7  284.86   21.89
   6  -1  -7  336.18   22.24
  -5   1   7   16.98    6.48
  -5   1   7    8.58    5.22
   5  -1  -7   22.11    6.78
  -4   1   7  181.21   15.04
  -4   1   7  189.05   14.34
   4  -1  -7  192.36   15.18
  -3   1   7    1.91    3.61
   3  -1  -7   -0.03    3.01
  -3   1   7    2.65    3.25
  -2   1   7 3465.12  161.67
  -2   1   7 3634.61  159.69
   2  -1  -7 3623.84  154.01
   2  -1  -7 3474.54  161.39
  -2   1   7 3801.35  154.59
  -1   1   7   10.61    2.62
  -1   1   7    4.81    3.45
   1  -1  -7    8.72    3.69
  -1   1   7    8.69    3.27
   1  -1  -7   12.39    2.82
   1  -1  -7   10.53    1.86
   0  -1  -7   34.55    5.03
   0   1   7   29.84    4.48
   0   1   7   36.95    6.06
   0  -1  -7   38.67    3.97
   0   1   7   31.95    4.20
   1   1   7 1494.41   73.14
  -1  -1  -7 1581.67   72.39
   1   1   7 1583.84   72.02
   1   1   7 1652.23   71.11
  -1  -1  -7 1575.43   67.26
   1   1   7 1665.30   71.38
  -2  -1  -7  798.44   36.70
   2   1   7  813.98   35.19
   2   1   7  777.49   38.55
  -2  -1  -7  752.78   35.69
   2   1   7  768.62   38.48
  -3  -1  -7 1375.84   63.28
   3   1   7 1561.32   64.61
  -3  -1  -7 1470.80   64.60
   3   1   7 1440.05   67.27
   3   1   7 1403.85   67.85
  -4  -1  -7   39.78    6.41
  -4  -1  -7   46.07    3.28
   4   1   7   45.91    6.47
   4   1   7   42.28    7.40
   5   1   7  386.07   23.63
  -5  -1  -7  362.97   17.66
  -5  -1  -7  340.84   20.85
   5   1   7  352.33   21.60
   6   1   7    1.37    3.37
  -6  -1  -7    3.58    4.36
   7   1   7  547.11   31.82
   7   1   7  494.99   30.73
  -7  -1  -7  530.14   29.67
   8   1   7   46.78    9.22
  -8  -1  -7   55.48    9.68
   7  -2  -7   22.84    7.92
  -7   2   7   18.13    7.51
  -7   2   7   31.35    9.41
   6  -2  -7   39.48    8.81
  -6   2   7   43.83    9.15
  -6   2   7   82.07   12.77
  -5   2   7   14.66    5.96
   5  -2  -7   14.98    6.06
  -5   2   7   14.73    6.01
  -4   2   7  643.82   34.96
  -4   2   7  615.49   36.56
   4  -2  -7  695.91   36.46
  -3   2   7 1120.28   57.76
   3  -2  -7 1155.31   57.24
  -3   2   7 1160.04   56.11
  -3   2   7 1199.14   50.86
  -2   2   7  237.64   15.94
  -2   2   7  247.44   15.85
   2  -2  -7  237.73   15.98
  -2   2   7  226.02   12.31
   2  -2  -7  247.33   12.49
  -1   2   7    4.13    2.24
   1  -2  -7    3.57    1.17
   1  -2  -7    2.84    1.86
  -1   2   7    4.46    3.45
  -1   2   7    3.41    2.82
   1  -2  -7    1.56    2.64
   0   2   7   14.51    3.24
   0  -2  -7   10.51    3.32
   0   2   7   19.83    2.55
   0  -2  -7   18.80    3.58
   0  -2  -7   17.36    2.70
   0   2   7   26.91    5.36
   1   2   7 2777.17  124.54
  -1  -2  -7 2809.72  126.09
   1   2   7 2947.87  126.30
   1   2   7 2742.63  126.75
  -1  -2  -7 2938.48  117.14
  -1  -2  -7 2872.77  126.00
   2   2   7   25.65    4.82
  -2  -2  -7   30.02    3.28
   2   2   7   44.97    4.07
   2   2   7   26.33    4.98
  -2  -2  -7   26.09    3.42
  -2  -2  -7   28.41    4.49
  -3  -2  -7   43.22    5.75
   3   2   7   23.77    5.33
  -3  -2  -7   47.35    3.86
   3   2   7   40.45    5.76
   3   2   7   43.37    4.28
  -3  -2  -7   36.23    3.41
   3   2   7   47.93    4.39
  -4  -2  -7  534.68   23.87
  -4  -2  -7  490.65   25.61
   4   2   7  472.25   27.73
   4   2   7  492.85   26.68
   4   2   7  489.47   24.70
   5   2   7  259.91   18.38
   5   2   7  272.59   17.26
  -5  -2  -7  262.61   14.08
  -5  -2  -7  247.35   16.37
  -6  -2  -7 1002.40   46.78
   6   2   7 1070.15   52.58
   6   2   7  960.19   50.03
  -6  -2  -7  982.21   47.54
  -7  -2  -7   50.49    8.55
   7   2   7   63.48   10.94
   7   2   7   47.00    8.45
   8   2   7   14.49    6.33
  -8  -2  -7   22.22    6.70
  -9  -2  -7   22.83    7.70
  -6   3   7   41.79   10.02
   6  -3  -7   39.93    9.19
  -6   3   7   58.32   10.38
  -5   3   7  924.38   50.96
   5  -3  -7  926.74   49.09
  -5   3   7  890.70   47.70
  -4   3   7    8.77    5.13
   4  -3  -7    4.64    4.18
  -4   3   7   16.38    6.03
  -3   3   7  730.06   32.90
  -3   3   7  664.73   38.48
  -3   3   7  739.03   37.34
   3  -3  -7  712.50   38.08
   2  -3  -7   76.26    8.51
  -2   3   7   74.80    6.03
  -2   3   7   72.31    8.36
  -2   3   7   63.56    8.34
  -1   3   7 1122.04   49.97
   1  -3  -7 1080.19   52.81
  -1   3   7 1124.57   52.86
  -1   3   7 1150.17   45.57
   1  -3  -7 1010.21   52.40
   0  -3  -7 1629.37   75.12
   0  -3  -7 1615.84   75.11
   0  -3  -7 1594.33   67.70
   0   3   7 1749.60   67.81
   0   3   7 1658.68   73.09
   0   3   7 1564.27   75.36
  -1  -3  -7  715.14   35.23
  -1  -3  -7  719.10   35.21
  -1  -3  -7  761.29   32.70
   1   3   7  727.32   35.20
   1   3   7  739.33   36.52
   2   3   7   31.06    5.13
  -2  -3  -7   41.05    4.63
   2   3   7   46.13    6.01
  -2  -3  -7   34.31    4.87
  -2  -3  -7   38.32    4.34
  -3  -3  -7  144.15    9.17
   3   3   7  138.55   10.49
   3   3   7  143.15   11.08
  -3  -3  -7  137.15   10.25
  -3  -3  -7  155.11    8.57
   4   3   7  697.41   37.45
   4   3   7  751.34   32.89
  -4  -3  -7  737.32   35.31
   4   3   7  742.51   36.85
  -4  -3  -7  753.45   35.13
   5   3   7  353.71   21.11
  -5  -3  -7  377.16   19.12
   5   3   7  344.39   22.11
  -5  -3  -7  341.26   20.30
  -6  -3  -7  161.92   10.81
   6   3   7  157.37   12.93
   6   3   7  131.04   13.05
  -6  -3  -7  158.05   12.65
  -7  -3  -7   16.14    5.74
   7   3   7    7.74    4.98
   7   3   7   20.80    7.18
  -8  -3  -7   71.75   10.42
   8   3   7   82.71   11.24
   8   3   7  103.33   14.07
  -9  -3  -7  250.00   19.20
  -6   4   7   61.72   12.59
   6  -4  -7   52.44   10.46
  -6   4   7   62.51   10.87
   5  -4  -7  188.46   17.10
  -5   4   7  213.96   17.43
  -5   4   7  201.40   18.61
  -4   4   7  729.27   37.14
  -4   4   7  609.69   38.42
   4  -4  -7  660.99   37.67
  -3   4   7   52.48    8.87
  -3   4   7   53.61    5.62
  -3   4   7   54.37    8.19
   3  -4  -7   46.99    8.06
  -2   4   7  519.00   27.94
   2  -4  -7  500.86   28.50
   2  -4  -7  493.62   28.52
  -2   4   7  503.58   25.14
   1  -4  -7  191.71   14.04
  -1   4   7  208.25   12.61
  -1   4   7  211.58   10.67
  -1   4   7  195.34   14.07
   1  -4  -7  193.86   14.08
   0  -4  -7  881.71   42.90
   0   4   7  877.54   41.29
   0  -4  -7  874.58   43.05
   0   4   7  854.15   42.80
  -1  -4  -7   87.62    7.70
  -1  -4  -7   93.81    8.19
   1   4   7   84.65    7.87
   1   4   7   95.29    8.85
  -1  -4  -7   91.46    6.85
   2   4   7   65.32    6.88
  -2  -4  -7   67.37    6.83
  -2  -4  -7   66.35    6.30
  -2  -4  -7   77.93    6.86
   2   4   7   63.97    7.39
   3   4   7 1133.78   53.36
  -3  -4  -7 1154.63   50.96
  -3  -4  -7 1154.89   53.63
  -3  -4  -7 1128.73   52.27
   4   4   7    3.87    3.24
   4   4   7    7.30    2.38
  -4  -4  -7    0.24    2.90
   4   4   7    2.35    2.93
  -4  -4  -7    2.17    2.77
  -5  -4  -7  182.03   12.36
  -5  -4  -7  188.91   13.65
   5   4   7  194.75   13.51
   5   4   7  191.18   14.45
  -6  -4  -7   40.11    7.29
   6   4   7   27.19    7.14
  -6  -4  -7   39.58    6.01
   6   4   7   37.09    7.00
  -7  -4  -7  124.55   10.40
   7   4   7  100.39   12.78
  -7  -4  -7   99.09   11.33
   7   4   7  121.23   12.25
   8   4   7   15.86    6.85
  -8  -4  -7   14.98    6.20
   8   4   7   12.81    6.02
   9   4   7   67.05   13.44
  -9  -4  -7   63.34   11.06
  -5   5   7   68.97   12.84
  -5   5   7  100.28   12.75
   5  -5  -7   77.76   12.22
  -4   5   7   52.26   10.19
   4  -5  -7   52.90    9.76
  -4   5   7   55.37    9.12
  -3   5   7  101.52    8.89
  -3   5   7  122.13   11.94
   3  -5  -7  121.90   12.86
  -3   5   7  134.22   13.11
   2  -5  -7  343.48   22.23
   2  -5  -7  324.69   22.02
  -2   5   7  333.79   18.99
  -2   5   7  361.14   21.33
   1  -5  -7  680.50   36.10
  -1   5   7  664.09   33.15
  -1   5   7  659.54   34.62
   1  -5  -7  666.93   35.69
   0   5   7    0.49    2.64
   0   5   7   -1.13    3.26
   0  -5  -7   -1.11    2.77
   0  -5  -7    1.48    3.39
   1   5   7   67.13    7.60
  -1  -5  -7   69.55    8.20
   1   5   7   88.03    8.17
  -1  -5  -7   82.13    7.19
  -1  -5  -7   84.26    8.10
   2   5   7   60.04    7.60
  -2  -5  -7   45.99    6.60
  -2  -5  -7   49.63    6.26
   2   5   7   44.17    5.75
  -2  -5  -7   67.39    6.96
  -3  -5  -7  941.98   43.33
   3   5   7  952.13   44.61
   3   5   7  959.00   44.56
  -3  -5  -7  929.37   45.94
   3   5   7  914.75   46.07
   4   5   7    3.49    2.96
   4   5   7    6.65    3.88
  -4  -5  -7    2.87    3.37
   4   5   7    6.50    3.24
  -4  -5  -7    7.04    3.83
  -5  -5  -7    0.16    3.56
   5   5   7    4.31    3.86
   5   5   7    3.60    3.36
  -5  -5  -7    9.21    4.08
  -6  -5  -7  372.15   21.86
  -6  -5  -7  408.51   22.91
   6   5   7  327.64   23.12
   6   5   7  390.26   22.64
  -7  -5  -7   -1.30    3.93
   7   5   7   -4.10    3.60
  -7  -5  -7   -4.62    3.35
   7   5   7    0.41    3.89
  -8  -5  -7  204.83   16.95
   8   5   7  246.55   19.78
   9   5   7    2.36    6.42
  -9  -5  -7    8.34    6.29
  -4   6   7   29.86    8.96
   4  -6  -7   22.59    7.35
   3  -6  -7  347.19   24.49
  -3   6   7  358.23   22.69
   3  -6  -7  335.19   23.90
   2  -6  -7  144.09   13.30
  -2   6   7  134.77   10.91
  -2   6   7  118.84   12.02
   1  -6  -7  137.33   12.79
  -1   6   7  128.95   11.13
  -1   6   7  158.74   12.68
   1  -6  -7  166.78   13.97
   0   6   7  133.10   11.19
   0   6   7  149.75   11.73
   0  -6  -7  159.54   12.87
   0  -6  -7  142.65   12.64
  -1  -6  -7   52.57    7.69
   1   6   7   68.21    7.02
   1   6   7   61.95    8.19
  -1  -6  -7   55.69    8.25
   2   6   7  615.29   33.04
  -2  -6  -7  607.67   33.47
  -2  -6  -7  639.02   31.00
   2   6   7  644.58   30.88
  -3  -6  -7    8.14    4.42
   3   6   7   11.07    3.41
  -3  -6  -7    6.15    3.99
   3   6   7   14.57    4.52
   3   6   7   12.15    4.80
  -4  -6  -7   -4.53    2.41
  -4  -6  -7   -1.65    3.25
   4   6   7    4.79    2.92
   4   6   7    2.25    3.14
   4   6   7    3.10    3.59
  -5  -6  -7  176.93   13.53
  -5  -6  -7  177.54   13.77
   5   6   7  160.52   14.21
   5   6   7  185.10   12.71
  -6  -6  -7  164.94   13.90
   6   6   7  150.23   14.27
   6   6   7  182.57   13.35
  -6  -6  -7  180.85   13.95
   7   6   7   98.92   12.93
  -7  -6  -7  114.87   12.57
   7   6   7  139.40   12.24
  -7  -6  -7  135.39   12.22
  -8  -6  -7   15.72    6.56
  -8  -6  -7   15.01    6.81
   8   6   7    3.94    5.67
   3  -7  -7    4.66    5.51
   3  -7  -7    2.63    5.67
  -2   7   7   86.65   10.13
   2  -7  -7   88.08   12.08
   2  -7  -7  123.24   14.41
   1  -7  -7   19.23    6.64
   1  -7  -7   19.78    6.88
  -1   7   7   16.31    5.46
   0   7   7  287.98   19.09
   0  -7  -7  294.74   20.86
   0  -7  -7  304.82   20.64
  -1  -7  -7  188.59   15.49
   1   7   7  202.26   15.02
  -2  -7  -7  182.25   14.87
   2   7   7  187.71   14.39
   2   7   7  188.38   14.20
  -3  -7  -7   -1.25    3.64
   3   7   7    0.67    3.70
  -3  -7  -7    1.80    3.57
   3   7   7    4.28    3.83
   4   7   7    1.69    3.89
  -4  -7  -7   -0.96    3.56
  -4  -7  -7   -1.99    3.60
   4   7   7   -2.07    3.14
  -5  -7  -7  313.56   20.16
  -5  -7  -7  281.92   19.15
   5   7   7  272.76   20.28
  -6  -7  -7    1.54    4.40
   6   7   7    3.26    4.90
  -6  -7  -7   -6.42    3.77
  -7  -7  -7    2.85    5.41
   7   7   7    6.78    5.39
  -7  -7  -7    2.97    4.79
  -8  -7  -7   11.89    6.80
   8   7   7   14.83    7.24
  -8  -7  -7   18.35    7.17
   2  -8  -7   11.33    6.78
  -1   8   7  105.86   12.93
  -1   8   7  131.10   12.50
   1  -8  -7  135.57   15.53
   0   8   7    0.89    4.19
   0  -8  -7   -5.20    4.25
   0   8   7   -1.30    3.93
   1   8   7  197.24   16.20
  -1  -8  -7  211.47   17.54
   1   8   7  214.70   16.38
   2   8   7    2.10    4.37
   2   8   7    5.51    4.49
  -2  -8  -7   -1.31    4.24
   3   8   7    7.23    4.65
   3   8   7    6.63    5.30
  -3  -8  -7    5.50    5.06
   4   8   7  191.55   16.02
   4   8   7  181.84   14.36
  -4  -8  -7  172.20   15.46
   5   8   7   60.59   10.13
  -5  -8  -7   57.97    9.70
  -5  -8  -7   49.53    8.72
  -6  -8  -7   -1.59    4.12
   6   8   7   -0.40    4.71
  -6  -8  -7    3.51    5.25
   7   8   7   -0.72    5.52
  -7  -8  -7   -2.61    4.04
  -7  -8  -7    1.26    5.56
   0   9   7   13.14    6.34
   0   9   7   10.84    6.16
  -1  -9  -7    0.54    5.54
   1   9   7    0.65    4.81
   1   9   7   -0.41    4.66
   2   9   7   38.98    8.86
  -2  -9  -7   60.33   11.05
   2   9   7   35.03    8.35
  -3  -9  -7    3.67    5.61
   3   9   7    3.99    5.45
   3   9   7   -0.04    4.85
  -4  -9  -7  160.47   15.73
   4   9   7  161.90   14.45
   4   9   7  172.40   16.08
  -5  -9  -7   11.88    7.09
   5   9   7   26.32    8.07
   6   9   7   11.03    7.06
  -6  -9  -7   13.23    7.02
   4   7  -8   27.89    9.51
  -4  -7   8   57.55   12.73
   3   7  -8  129.39   15.93
  -3  -7   8  112.79   15.49
   3   7  -8  115.51   13.31
  -2  -7   8   99.43   13.32
   2   7  -8  145.93   16.21
   2   7  -8  109.55   13.40
   1   7  -8   63.15   11.10
   1   7  -8   75.89   12.65
   0   7  -8   -0.67    5.97
   0   7  -8   -1.14    4.68
  -1   7  -8  269.72   21.81
   6   6  -8    6.47    6.71
  -6  -6   8   -0.79    7.76
  -5  -6   8   66.82   12.98
   5   6  -8   53.69   11.48
   4   6  -8   -3.30    4.98
  -4  -6   8   -3.20    5.75
   3   6  -8  507.47   28.15
  -3  -6   8  420.81   29.74
   3   6  -8  476.43   30.73
   2   6  -8    1.14    5.63
   2   6  -8   -0.90    3.78
  -2  -6   8    0.67    5.07
   1   6  -8    7.00    6.21
   1   6  -8    6.61    5.02
  -1  -6   8    2.89    4.69
   0   6  -8  141.09   15.01
   0   6  -8  128.02   14.20
  -1   6  -8  183.37   16.59
  -1   6  -8  188.25   16.75
  -2   6  -8  178.53   16.91
  -2   6  -8  179.32   16.15
  -3   6  -8    1.67    5.93
  -3   6  -8    3.77    5.68
  -6  -5   8   14.24    7.42
  -6  -5   8   15.32    8.15
   6   5  -8   14.47    7.60
   5   5  -8  261.54   22.22
  -5  -5   8  306.78   23.76
  -5  -5   8  301.12   21.09
  -4  -5   8  206.18   16.37
  -4  -5   8  231.28   19.47
   4   5  -8  188.49   17.84
   3   5  -8  121.25   14.28
  -3  -5   8  161.77   13.30
  -3  -5   8  153.60   14.75
   3   5  -8  155.08   12.29
  -2  -5   8  166.52   14.83
  -2  -5   8  190.53   14.18
   2   5  -8  182.99   14.16
   2   5  -8  188.77   16.18
  -1  -5   8   14.56    5.13
   1   5  -8   16.29    5.93
   1   5  -8   16.28    6.60
  -1  -5   8   19.67    6.18
   0  -5   8 1178.25   53.92
   0   5  -8 1070.00   56.33
   0   5  -8 1081.42   55.84
  -1   5  -8   23.23    6.77
  -1   5  -8   20.37    6.73
  -2   5  -8    7.81    5.49
  -2   5  -8    7.74    4.94
  -3   5  -8  214.65   17.17
  -3   5  -8  229.85   18.71
  -4   5  -8   94.45   11.41
  -4   5  -8   93.73   12.88
  -7  -4   8    4.44    7.00
   7   4  -8   10.23    6.69
  -7  -4   8   -0.03    5.79
   6   4  -8  426.35   29.37
  -6  -4   8  419.55   29.69
  -6  -4   8  404.14   26.80
  -5  -4   8   27.30    7.36
   5   4  -8   31.13    8.77
  -5  -4   8   27.63    8.86
   4   4  -8  234.93   19.82
  -4  -4   8  299.77   21.29
  -4  -4   8  258.69   18.73
  -3  -4   8   93.52   10.52
  -3  -4   8   98.51   12.01
   3   4  -8   80.41   11.25
   3   4  -8   95.76    8.58
  -2  -4   8  541.17   27.86
   2   4  -8  469.65   26.05
   2   4  -8  456.58   28.54
  -2  -4   8  444.30   27.74
  -1  -4   8  817.16   45.32
   1   4  -8  971.96   47.68
  -1  -4   8  932.15   45.65
   1   4  -8  944.55   45.72
   0  -4   8  270.89   17.51
   0   4  -8  273.07   18.42
   0  -4   8  256.52   16.65
   0   4  -8  289.76   19.12
  -1   4  -8   33.23    7.22
   1  -4   8   38.80    6.42
   1  -4   8   30.06    5.41
   2  -4   8    2.95    3.46
  -2   4  -8    4.03    4.50
  -3   4  -8 1100.66   54.46
   3  -4   8 1099.16   54.10
  -4   4  -8  127.32   11.72
   4  -4   8   95.91   10.91
  -5   4  -8   25.41    7.94
   5  -4   8   23.74    6.90
  -7  -3   8  117.85   15.92
   7   3  -8  111.13   14.91
  -7  -3   8  122.54   14.47
  -6  -3   8  333.25   23.71
  -6  -3   8  342.83   25.51
   6   3  -8  369.70   26.20
  -5  -3   8  205.49   16.64
  -5  -3   8  204.51   17.94
   5   3  -8  226.42   18.62
  -4  -3   8   -1.69    4.29
  -4  -3   8   -2.06    3.64
   4   3  -8   -1.99    4.12
   3   3  -8 1197.14   52.20
   3   3  -8 1029.67   56.89
  -3  -3   8 1073.67   55.25
  -3  -3   8 1194.17   57.65
  -2  -3   8   -2.23    3.51
  -2  -3   8    2.57    4.12
   2   3  -8   -1.99    2.34
   2   3  -8    1.90    4.51
   1   3  -8  526.26   29.11
  -1  -3   8  440.36   26.87
   1   3  -8  523.97   27.16
  -1  -3   8  547.32   28.45
   0  -3   8   64.98    6.79
   0  -3   8   59.36    7.96
   0   3  -8   60.38    8.18
  -1   3  -8  246.98   16.08
   1  -3   8  217.20   15.15
   1  -3   8  209.66   12.89
   2  -3   8 1247.08   59.09
  -2   3  -8 1228.49   59.24
   2  -3   8 1230.05   56.39
  -3   3  -8  283.69   17.87
   3  -3   8  273.66   18.15
  -4   3  -8   39.23    8.13
   4  -3   8   43.49    7.50
  -4   3  -8   34.22    6.59
   5  -3   8    3.71    4.15
  -5   3  -8   -2.18    4.49
  -6   3  -8  271.32   20.97
   6  -3   8  305.61   21.80
  -7  -2   8  459.59   31.48
   7   2  -8  436.33   30.57
  -6  -2   8   15.65    6.57
   6   2  -8   34.35    8.86
  -6  -2   8   33.43    9.10
  -5  -2   8   -1.84    4.27
  -5  -2   8   -0.06    4.47
   5   2  -8    0.72    4.42
  -4  -2   8  725.58   38.43
   4   2  -8  729.61   40.47
  -4  -2   8  696.33   39.46
  -3  -2   8  676.12   37.77
   3   2  -8  748.20   40.10
  -3  -2   8  745.21   39.05
   3   2  -8  733.33   33.79
  -2  -2   8 1371.32   67.50
  -2  -2   8 1398.33   67.90
   2   2  -8 1407.24   63.93
  -2  -2   8 1580.44   65.49
   2   2  -8 1319.55   68.52
  -1  -2   8  119.79    7.70
  -1  -2   8   95.13    9.05
  -1  -2   8  107.03   10.28
   1   2  -8   82.91    9.76
   0   2  -8  504.30   27.00
   0  -2   8  527.56   27.31
   0  -2   8  437.23   24.29
   1  -2   8  100.19    7.01
   1  -2   8  110.97    9.98
  -1   2  -8  112.37    7.20
  -1   2  -8  114.57    9.89
   2  -2   8 1124.57   55.64
   2  -2   8 1184.16   51.87
  -2   2  -8 1161.03   55.20
  -2   2  -8 1171.99   51.71
   3  -2   8  352.77   21.14
   3  -2   8  378.80   19.43
  -3   2  -8  342.22   19.87
  -3   2  -8  325.56   20.52
  -4   2  -8   85.65    9.96
   4  -2   8   90.61    8.60
   4  -2   8   88.91    9.79
  -4   2  -8   83.72    8.44
   5  -2   8  550.60   31.61
  -5   2  -8  515.27   30.54
   5  -2   8  584.16   31.01
   6  -2   8   -0.76    3.71
  -6   2  -8   -1.56    4.24
  -7   2  -8  149.47   16.04
   7  -2   8  155.21   15.34
  -7  -1   8   17.66    7.36
   7   1  -8   20.14    7.78
  -7  -1   8   12.60    7.30
   6   1  -8    5.89    5.49
  -6  -1   8    1.68    4.52
  -6  -1   8   -4.12    3.90
  -5  -1   8   66.36    9.92
   5   1  -8   56.57   10.36
  -5  -1   8   58.86    9.91
  -4  -1   8  658.58   36.92
  -4  -1   8  698.71   38.32
   4   1  -8  730.08   39.56
  -3  -1   8  429.86   26.58
   3   1  -8  482.63   21.83
   3   1  -8  496.84   28.79
  -3  -1   8  468.13   27.29
  -2  -1   8   37.52    5.50
  -2  -1   8   39.82    6.65
   2   1  -8   46.05    5.05
  -2  -1   8   47.32    7.49
   2   1  -8   40.97    7.49
  -1  -1   8 1162.09   54.23
  -1  -1   8 1114.47   55.19
   1   1  -8 1134.12   55.70
   0  -1   8 1108.31   52.02
   0   1  -8 1150.20   49.35
   0   1  -8  996.43   51.28
   0  -1   8  988.14   49.20
  -1   1  -8 2408.54  115.07
   1  -1   8 2433.40  115.32
   1  -1   8 2479.06  112.64
  -1   1  -8 2895.98  112.93
  -2   1  -8   -0.52    2.74
  -2   1  -8    2.92    3.27
   2  -1   8    3.73    3.44
   3  -1   8   66.93    8.08
  -3   1  -8   69.97    6.72
  -3   1  -8   58.78    7.93
  -4   1  -8   25.65    4.44
  -4   1  -8   29.14    6.30
   4  -1   8   28.72    6.01
  -5   1  -8  863.13   44.99
   5  -1   8  999.18   47.37
   5  -1   8  902.12   47.13
   6  -1   8  181.67   14.79
  -6   1  -8  135.53   14.07
   6  -1   8  147.15   13.77
   7  -1   8   -4.91    4.71
  -7   1  -8    3.05    5.33
   7  -1   8   -4.90    3.43
  -7   0   8   34.78    9.51
  -7   0   8   35.96    9.05
   7   0  -8   33.99    9.11
  -6   0   8  103.25   12.45
   6   0  -8  132.99   15.19
  -6   0   8  103.72   13.31
  -5   0   8  952.43   48.57
  -5   0   8  874.62   46.22
   5   0  -8  835.68   47.87
  -4   0   8   45.15    7.96
  -4   0   8   40.89    7.72
   4   0  -8   47.76    8.91
  -3   0   8  189.45   13.89
   3   0  -8  154.59   13.95
  -3   0   8  168.95   13.63
   2   0  -8   39.91    3.66
   2   0  -8   51.74    8.04
  -2   0   8   41.06    6.40
   2   0  -8   35.67    4.29
  -2   0   8   28.28    6.25
   1   0  -8 1884.85   77.99
   1   0  -8 2094.49   88.41
  -1   0   8 1891.24   86.28
  -1   0   8 1680.03   86.52
   0   0   8  526.56   30.16
   0   0  -8  571.09   29.88
   0   0  -8  547.10   26.04
   0   0   8  563.99   27.96
   0   0   8  608.44   27.92
  -1   0  -8  983.67   44.62
   1   0   8  991.15   41.52
   1   0   8  876.19   41.62
  -1   0  -8  890.45   40.88
   1   0   8  827.93   44.83
  -2   0  -8   46.66    5.63
   2   0   8   47.67    6.92
  -2   0  -8   49.14    6.32
  -3   0  -8    6.63    3.49
   3   0   8    2.61    3.12
  -3   0  -8   10.45    3.29
  -4   0  -8 2118.33   94.28
   4   0   8 2148.08   97.58
  -4   0  -8 2113.92   92.11
   5   0   8   38.88    7.06
  -5   0  -8   55.84    8.55
   6   0   8   -0.69    4.02
   6   0   8    5.57    3.97
  -6   0  -8    1.92    4.61
  -7   0  -8   70.53   10.99
   7   0   8   89.75   11.86
   7   0   8   91.44   11.78
   8   0   8  165.91   16.82
  -8   0  -8  126.44   14.67
  -7   1   8  158.52   16.91
  -7   1   8  169.97   18.83
   7  -1  -8  186.34   17.64
  -6   1   8    9.91    5.65
  -6   1   8   13.18    6.26
   6  -1  -8   20.08    7.20
  -5   1   8  680.43   37.62
   5  -1  -8  633.46   36.97
  -5   1   8  582.44   34.89
  -4   1   8   86.47   10.13
   4  -1  -8   69.81   10.19
  -4   1   8   85.94   10.84
  -3   1   8    5.17    4.12
  -3   1   8   -1.15    2.79
   3  -1  -8    0.49    3.30
  -2   1   8 2700.08  117.51
  -2   1   8 2620.17  118.34
   2  -1  -8 2366.70  118.09
   2  -1  -8 2653.26  111.52
   1  -1  -8   22.46    3.88
   1  -1  -8   31.32    5.95
  -1   1   8   14.53    4.05
   1  -1  -8   18.33    2.62
  -1   1   8   20.08    3.68
  -1   1   8   18.25    5.47
   0   1   8  700.21   33.88
   0  -1  -8  615.43   32.18
   0  -1  -8  611.18   28.25
   0   1   8  608.93   30.66
   1   1   8    7.15    2.25
  -1  -1  -8    6.30    2.80
   1   1   8    8.09    4.16
  -1  -1  -8   10.24    3.54
   1   1   8    4.38    1.90
   1   1   8    3.59    3.03
   2   1   8 1101.75   53.56
  -2  -1  -8 1117.37   52.05
   2   1   8 1127.59   54.16
   2   1   8 1125.09   50.06
  -2  -1  -8 1020.02   49.56
   2   1   8 1247.23   50.45
  -3  -1  -8 1295.68   56.16
   3   1   8 1159.03   59.17
  -3  -1  -8 1170.72   55.22
   3   1   8 1333.51   59.48
  -4  -1  -8  856.07   36.41
   4   1   8  823.28   41.27
  -4  -1  -8  760.40   38.99
   4   1   8  800.39   42.34
   5   1   8   60.46    8.45
   5   1   8   70.50   10.28
  -5  -1  -8   70.28    9.16
  -6  -1  -8   93.68   10.78
   6   1   8   65.10    9.40
  -7  -1  -8  440.82   27.24
   7   1   8  474.20   28.94
   7   1   8  463.76   29.33
   8   1   8   45.92    9.53
  -8  -1  -8   45.21    9.59
  -7   2   8   71.54   12.18
   7  -2  -8   60.78   11.88
  -6   2   8  374.56   26.40
   6  -2  -8  345.00   25.19
  -6   2   8  329.32   24.01
   5  -2  -8   12.29    6.27
  -5   2   8   20.65    7.25
  -5   2   8   15.60    6.49
   4  -2  -8  123.18   12.94
  -4   2   8   79.61   11.19
  -4   2   8  122.99   11.88
   3  -2  -8  276.45   19.12
  -3   2   8  314.97   19.19
  -3   2   8  240.39   18.40
   2  -2  -8 1273.18   52.85
  -2   2   8 1126.03   57.12
   2  -2  -8 1220.00   58.30
  -2   2   8 1198.65   52.86
  -2   2   8 1085.13   57.54
  -1   2   8  992.76   49.69
  -1   2   8 1069.11   46.95
   1  -2  -8 1024.03   50.19
   1  -2  -8 1021.39   42.33
  -1   2   8 1023.01   50.42
   0  -2  -8   85.34    5.89
   0  -2  -8   74.81    7.46
   0   2   8   73.63    6.77
   0   2   8   74.90    6.88
   0   2   8   72.21    8.70
   1   2   8 1390.19   67.76
   1   2   8 1492.21   70.08
  -1  -2  -8 1523.12   63.63
  -1  -2  -8 1537.06   68.65
  -1  -2  -8 1535.06   67.75
  -2  -2  -8    7.34    2.52
  -2  -2  -8    5.03    2.04
  -2  -2  -8    8.03    3.24
   2   2   8    1.63    2.88
   2   2   8   -0.17    3.18
   2   2   8    1.99    2.05
   3   2   8 2590.23  112.69
  -3  -2  -8 2610.41  109.99
  -3  -2  -8 2441.06  105.22
   3   2   8 2403.12  112.15
   3   2   8 2353.57  110.21
  -3  -2  -8 2583.95  109.78
  -4  -2  -8   29.19    5.91
  -4  -2  -8   31.59    3.25
   4   2   8   22.49    5.33
   4   2   8   21.56    5.80
   4   2   8   29.44    3.75
  -5  -2  -8  329.96   15.99
   5   2   8  324.29   20.06
  -5  -2  -8  290.15   19.02
   5   2   8  306.59   21.15
   6   2   8  319.09   22.15
  -6  -2  -8  285.20   19.18
   6   2   8  301.36   20.18
   7   2   8   53.64    9.30
   7   2   8   83.31   12.33
  -7  -2  -8   59.47    9.42
  -8  -2  -8   78.32   11.51
   8   2   8   94.79   12.72
   6  -3  -8   13.82    6.89
  -6   3   8    8.82    6.33
  -6   3   8   12.20    7.06
   5  -3  -8   29.26    7.88
  -5   3   8   39.48    9.23
  -5   3   8   38.76    8.67
   4  -3  -8  180.08   15.42
  -4   3   8  172.60   15.57
  -4   3   8  163.65   14.40
  -3   3   8 1050.96   53.82
  -3   3   8  997.90   51.66
   3  -3  -8 1074.76   53.34
   2  -3  -8   11.81    4.82
  -2   3   8    3.50    4.20
  -2   3   8    1.13    2.25
  -2   3   8    0.43    3.02
  -1   3   8    1.45    2.41
  -1   3   8    5.02    1.56
  -1   3   8    8.05    4.46
   1  -3  -8    5.53    3.31
   0   3   8  466.34   20.17
   0  -3  -8  405.89   23.10
   0   3   8  438.61   24.98
   0  -3  -8  452.72   24.03
   0  -3  -8  438.13   20.15
   0   3   8  415.36   22.49
   1   3   8 1019.05   48.01
   1   3   8 1028.70   49.74
  -1  -3  -8 1035.32   44.62
  -1  -3  -8 1008.64   48.03
  -1  -3  -8 1019.11   48.35
  -2  -3  -8  669.51   32.48
   2   3   8  684.46   34.54
   2   3   8  653.03   33.74
  -2  -3  -8  669.55   32.42
  -2  -3  -8  697.41   31.78
  -3  -3  -8  152.33   10.86
   3   3   8  124.86   11.08
  -3  -3  -8  137.82    8.60
   3   3   8  142.00   11.12
  -3  -3  -8  151.13    9.13
   4   3   8  378.58   17.18
  -4  -3  -8  358.44   20.63
   4   3   8  330.47   21.78
  -4  -3  -8  373.89   18.97
   4   3   8  389.57   21.76
  -5  -3  -8    1.92    3.60
  -5  -3  -8    0.75    2.44
   5   3   8   -1.62    2.74
   5   3   8   -0.05    3.07
  -6  -3  -8 1025.40   47.52
   6   3   8  969.20   52.20
   6   3   8 1029.56   51.01
  -7  -3  -8    6.88    5.14
   7   3   8    2.18    4.41
   7   3   8   12.05    6.13
   8   3   8   34.83    9.29
  -8  -3  -8   43.18    8.85
   8   3   8   32.83    7.95
  -9  -3  -8  130.60   14.59
  -6   4   8   -5.78    5.01
   6  -4  -8    1.81    5.35
   5  -4  -8  125.26   14.55
  -5   4   8  118.48   13.83
  -5   4   8  126.72   15.47
   4  -4  -8  301.30   21.11
  -4   4   8  274.85   19.93
  -4   4   8  235.93   20.32
  -3   4   8  112.23   12.91
   3  -4  -8  124.55   12.11
  -3   4   8  102.11   11.36
  -2   4   8    0.74    2.50
   2  -4  -8    2.37    3.59
  -2   4   8    8.81    4.69
   1  -4  -8    5.01    3.87
  -1   4   8    3.99    4.37
   1  -4  -8    5.39    3.93
  -1   4   8    5.59    3.09
   0  -4  -8 1598.43   67.53
   0   4   8 1625.78   75.36
   0  -4  -8 1643.28   75.37
   0   4   8 1631.04   72.99
   0  -4  -8 1560.17   75.19
   1   4   8   35.51    6.40
   1   4   8   33.75    5.54
  -1  -4  -8   31.46    5.34
  -1  -4  -8   40.25    4.89
  -1  -4  -8   40.96    5.75
   2   4   8   21.82    5.20
  -2  -4  -8   25.14    4.86
  -2  -4  -8   28.01    4.57
   2   4   8   23.67    5.20
  -2  -4  -8   23.81    4.55
  -3  -4  -8  117.88    8.25
   3   4   8  128.01   10.13
  -3  -4  -8  124.65    9.86
   3   4   8   97.46    9.81
  -3  -4  -8  106.79    8.63
  -4  -4  -8  526.45   27.34
   4   4   8  537.01   24.99
   4   4   8  488.29   27.60
  -4  -4  -8  554.49   26.93
   4   4   8  498.56   28.73
  -5  -4  -8  619.96   30.11
   5   4   8  576.00   31.54
  -5  -4  -8  595.58   30.93
   5   4   8  575.54   32.75
   6   4   8   71.11    9.09
  -6  -4  -8   75.32    9.88
   6   4   8   81.15   11.15
  -6  -4  -8   77.09    7.61
  -7  -4  -8    5.80    4.81
   7   4   8    5.18    5.07
   7   4   8    1.70    4.18
   8   4   8    5.45    5.52
  -8  -4  -8    5.99    5.53
   8   4   8    8.09    5.50
   9   4   8  148.73   18.15
  -5   5   8   -2.96    5.42
   5  -5  -8    6.01    5.76
  -5   5   8    6.52    5.94
  -4   5   8  255.76   18.85
  -4   5   8  197.07   18.67
   4  -5  -8  218.89   18.77
  -3   5   8   28.68    7.21
  -3   5   8   26.82    7.40
   3  -5  -8   35.35    7.98
  -2   5   8  399.62   24.57
   2  -5  -8  369.29   24.97
  -2   5   8  414.87   22.03
   2  -5  -8  437.90   26.02
  -1   5   8  290.95   19.42
   1  -5  -8  321.34   20.26
  -1   5   8  297.66   17.68
   1  -5  -8  295.61   19.74
   0   5   8  261.40   17.48
   0  -5  -8  251.68   17.44
   0  -5  -8  271.78   17.66
   0   5   8  271.01   16.40
  -1  -5  -8  135.83   11.15
  -1  -5  -8  138.44   11.06
   1   5   8  127.23   11.17
  -1  -5  -8  150.28    9.97
   1   5   8  144.01   11.17
  -2  -5  -8  192.06   12.18
   2   5   8  186.17   12.79
   2   5   8  163.14   12.95
  -2  -5  -8  176.76   12.75
  -2  -5  -8  174.24   12.34
   3   5   8  847.05   45.37
  -3  -5  -8  965.65   43.28
  -3  -5  -8  954.28   44.24
   3   5   8  958.08   44.71
  -3  -5  -8  884.46   45.05
   4   5   8   72.96    7.84
  -4  -5  -8   79.70    8.23
  -4  -5  -8   62.81    8.35
   4   5   8   72.48    9.38
   4   5   8   78.17    6.88
  -5  -5  -8  256.13   17.49
  -5  -5  -8  284.53   17.09
   5   5   8  283.19   17.56
   5   5   8  248.45   18.31
   6   5   8    0.45    3.48
   6   5   8   -1.03    3.74
  -6  -5  -8   -1.85    4.02
  -6  -5  -8   -0.42    3.47
  -7  -5  -8   28.80    7.54
  -7  -5  -8   38.64    6.84
   7   5   8   41.99    9.35
   7   5   8   26.68    6.53
   8   5   8  118.48   13.38
   8   5   8  167.64   17.45
  -8  -5  -8  124.98   13.89
  -4   6   8    2.38    5.96
   4  -6  -8    0.89    5.13
  -4   6   8    0.76    5.48
   3  -6  -8  120.81   14.30
  -3   6   8  134.60   13.82
  -3   6   8  154.69   15.26
   2  -6  -8   -1.23    4.04
  -2   6   8    5.27    3.64
  -2   6   8   -6.66    4.12
   2  -6  -8    2.80    4.79
  -1   6   8  332.79   19.97
  -1   6   8  338.17   21.40
   1  -6  -8  356.24   22.94
   1  -6  -8  317.22   22.13
   0  -6  -8   41.57    7.67
   0   6   8   37.08    6.94
   0  -6  -8   56.96    8.89
   0   6   8   34.81    6.50
  -1  -6  -8   11.02    4.59
   1   6   8    2.58    3.73
  -1  -6  -8   11.23    4.82
   1   6   8    3.62    3.87
  -2  -6  -8  195.27   14.08
   2   6   8  190.90   14.41
  -2  -6  -8  192.93   14.47
   2   6   8  197.40   13.02
  -2  -6  -8  197.81   13.29
   3   6   8   15.10    4.09
   3   6   8   12.92    5.00
  -3  -6  -8   10.96    4.69
   3   6   8    7.08    3.90
  -3  -6  -8   10.57    4.21
   4   6   8  178.42   12.16
  -4  -6  -8  156.59   12.89
   4   6   8  170.55   12.12
  -4  -6  -8  171.66   13.21
   4   6   8  179.65   14.39
  -5  -6  -8   12.80    5.30
   5   6   8   14.19    5.74
  -5  -6  -8   21.24    5.96
   5   6   8   13.48    4.52
  -6  -6  -8  104.21   11.70
   6   6   8   84.32   11.30
   6   6   8   67.27    8.69
  -6  -6  -8   84.67    9.67
  -7  -6  -8   17.28    6.62
  -7  -6  -8   16.10    5.76
   7   6   8   26.21    6.44
   7   6   8   19.08    7.15
   8   6   8   58.53   11.92
  -8  -6  -8   70.50   11.53
   8   6   8   50.71    9.19
   3  -7  -8   88.38   13.54
   2  -7  -8   39.64    9.32
  -2   7   8   45.64    7.68
  -1   7   8    4.36    4.41
   1  -7  -8   -0.89    4.74
   1  -7  -8    6.79    5.02
   0  -7  -8   55.14    9.67
   0   7   8   58.11    8.65
   0  -7  -8   38.60    8.39
  -1  -7  -8   24.98    6.68
   1   7   8   14.58    5.48
  -1  -7  -8   31.00    7.32
   2   7   8  327.70   21.35
  -2  -7  -8  338.96   22.04
   2   7   8  332.66   21.05
   3   7   8    2.77    3.63
  -3  -7  -8   -1.18    3.74
   3   7   8    6.01    4.64
  -3  -7  -8   -2.01    3.37
   4   7   8   12.03    5.54
   4   7   8    6.67    4.13
  -4  -7  -8    1.05    3.86
  -4  -7  -8   10.88    5.49
  -5  -7  -8   91.09   11.11
  -5  -7  -8  104.91   11.41
   5   7   8   80.11   11.22
  -6  -7  -8   34.68    8.00
  -6  -7  -8   26.43    6.85
   6   7   8   24.19    7.58
  -7  -7  -8  226.19   17.86
  -7  -7  -8  210.59   16.89
   7   7   8  205.67   18.38
   8   7   8   18.65    8.08
  -1   8   8    4.08    4.74
   1  -8  -8    5.09    5.81
   1  -8  -8    2.24    5.41
   0  -8  -8   25.10    7.67
   0   8   8   21.14    6.79
  -1  -8  -8  273.05   20.48
   1   8   8  241.98   18.83
   1   8   8  260.06   18.79
   2   8   8   28.81    7.27
  -2  -8  -8   35.26    8.32
   2   8   8   42.42    8.11
   3   8   8   10.25    5.10
  -3  -8  -8    0.92    4.60
   3   8   8    8.52    5.80
  -4  -8  -8   36.75    8.29
   4   8   8   47.89    9.20
  -4  -8  -8   44.95    8.62
   4   8   8   39.12    7.41
  -5  -8  -8   16.59    6.24
  -5  -8  -8   19.58    7.04
   5   8   8   20.21    7.11
  -6  -8  -8   51.29    9.75
   6   8   8   53.40   10.91
  -6  -8  -8   66.73   10.72
  -7  -8  -8   26.95    8.07
   7   8   8   47.49   10.55
  -7  -8  -8   32.97    8.28
   1   9   8   40.71    9.01
   1   9   8   44.44    9.36
  -1  -9  -8   50.08   10.69
  -2  -9  -8    0.58    4.94
   2   9   8    2.95    5.17
   2   9   8    7.24    5.39
  -3  -9  -8   -0.34    5.22
   3   9   8    1.42    4.69
   3   9   8   -1.31    4.89
  -4  -9  -8   94.61   12.91
   4   9   8   86.61   12.78
   4   9   8  116.35   12.54
  -5  -9  -8   -1.82    4.95
   5   9   8    4.98    5.96
   3   7  -9   -1.77    7.23
  -3  -7   9   -1.18    6.99
   3   7  -9   10.93    5.76
   2   7  -9  267.34   20.93
   2   7  -9  281.81   23.26
   1   7  -9   29.92    8.78
   1   7  -9   17.86    8.53
   0   7  -9   10.36    7.52
   0   7  -9   11.88    6.54
   5   6  -9    4.07    6.46
  -5  -6   9   -4.32    6.56
  -4  -6   9   16.11    8.61
   4   6  -9   13.16    7.56
   3   6  -9  323.34   21.56
  -3  -6   9  342.42   24.71
   3   6  -9  308.09   24.49
   2   6  -9   13.82    7.34
   2   6  -9   19.43    6.42
  -2  -6   9   17.92    7.07
   1   6  -9  106.85   14.28
   1   6  -9  159.12   14.47
   0   6  -9   21.04    7.05
   0   6  -9   12.46    6.91
  -1   6  -9  283.28   21.35
  -1   6  -9  243.61   20.59
  -2   6  -9  169.11   16.09
  -2   6  -9  165.20   17.92
  -6  -5   9    1.61    6.23
  -6  -5   9   -1.26    7.31
   6   5  -9   -6.81    4.50
  -5  -5   9   78.51   11.69
  -5  -5   9   82.54   13.36
   5   5  -9   78.40   13.16
   4   5  -9   37.29    9.84
  -4  -5   9   41.51    9.12
  -4  -5   9   51.05   10.90
   3   5  -9  565.75   32.27
   3   5  -9  549.01   35.95
  -3  -5   9  637.19   36.53
  -3  -5   9  681.87   34.66
   2   5  -9   68.62   11.26
  -2  -5   9   75.12    9.57
  -2  -5   9   49.36    9.48
   2   5  -9   55.22    8.73
   1   5  -9   15.85    7.43
  -1  -5   9   11.21    5.31
  -1  -5   9    7.68    4.85
   1   5  -9   14.41    5.69
   0   5  -9  554.88   31.93
   0   5  -9  491.14   30.77
  -1   5  -9    4.74    5.92
  -1   5  -9    5.76    4.95
  -2   5  -9  159.97   16.93
  -2   5  -9  190.53   16.12
  -3   5  -9    3.82    5.71
  -3   5  -9    5.92    5.22
  -4   5  -9   86.18   13.41
  -6  -4   9   42.79    9.95
  -6  -4   9   42.37   11.06
   6   4  -9   63.74   12.35
  -5  -4   9   23.80    8.41
  -5  -4   9   22.11    8.97
   5   4  -9   21.86    8.12
  -4  -4   9  601.66   35.36
   4   4  -9  604.66   37.26
  -4  -4   9  675.06   37.94
   3   4  -9   -2.24    4.80
   3   4  -9    0.19    1.72
  -3  -4   9    2.22    4.59
  -3  -4   9   -3.09    4.43
  -2  -4   9    2.86    4.65
  -2  -4   9    4.05    4.61
   2   4  -9    3.08    5.19
   2   4  -9    4.27    3.55
  -1  -4   9  408.36   24.49
  -1  -4   9  447.98   25.45
   1   4  -9  428.63   26.64
   1   4  -9  397.00   24.51
   0  -4   9 1008.96   51.19
   0   4  -9 1143.57   53.87
   0   4  -9 1168.02   54.83
   0  -4   9  962.24   52.00
   1  -4   9  293.98   19.07
  -1   4  -9  279.72   19.69
  -2   4  -9   -0.51    4.44
   2  -4   9    6.00    3.91
  -3   4  -9  294.49   20.25
   3  -4   9  313.25   20.47
   4  -4   9    4.29    4.19
  -4   4  -9    4.80    5.03
  -4   4  -9    1.39    4.76
  -5   4  -9  212.29   18.37
   5  -4   9  230.03   18.26
   7   3  -9   11.31    6.75
  -7  -3   9   19.06    8.46
  -7  -3   9    8.40    7.69
  -6  -3   9  341.59   26.41
   6   3  -9  391.84   27.43
   5   3  -9  314.46   22.73
  -5  -3   9  286.04   21.85
  -5  -3   9  231.35   19.81
  -4  -3   9  166.01   14.94
  -4  -3   9  182.91   16.17
   4   3  -9  164.87   15.68
  -3  -3   9   32.67    7.94
  -3  -3   9   30.37    7.45
   3   3  -9   40.02    8.92
   3   3  -9   31.02    5.15
  -2  -3   9  253.39   17.87
   2   3  -9  211.95   17.84
   2   3  -9  244.41   15.28
  -2  -3   9  250.77   17.34
   1   3  -9 1221.65   62.43
  -1  -3   9 1312.61   61.75
   0  -3   9   12.87    5.28
   0   3  -9    2.63    4.34
   0  -3   9    0.81    2.96
   1  -3   9   78.10    6.94
   1  -3   9   89.90    9.79
  -1   3  -9   79.77    9.58
  -2   3  -9  697.17   37.04
   2  -3   9  718.65   37.41
  -3   3  -9  731.26   36.89
   3  -3   9  669.11   37.11
  -4   3  -9  321.22   21.29
   4  -3   9  303.14   20.88
  -4   3  -9  321.08   20.08
  -5   3  -9   46.29    9.36
   5  -3   9   40.28    8.61
  -6   3  -9   73.69   12.02
   6  -3   9   89.56   12.35
  -7  -2   9  329.14   25.78
   7   2  -9  330.69   25.77
  -7  -2   9  306.05   23.71
  -6  -2   9   22.82    8.22
   6   2  -9   12.59    6.98
  -6  -2   9    1.93    5.31
  -5  -2   9  557.94   35.33
   5   2  -9  642.73   37.11
  -4  -2   9   22.49    7.14
   4   2  -9   24.51    7.52
  -4  -2   9   15.18    6.31
  -3  -2   9  478.17   29.23
  -3  -2   9  558.37   30.29
   3   2  -9  483.67   24.69
   3   2  -9  525.41   30.94
  -2  -2   9  396.34   25.48
  -2  -2   9  484.31   23.34
  -2  -2   9  448.96   25.56
   2   2  -9  428.30   26.52
   2   2  -9  390.64   22.18
   1   2  -9  374.33   25.06
  -1  -2   9  464.16   22.12
  -1  -2   9  427.42   25.44
   0  -2   9  116.61   11.11
   0   2  -9  113.89   11.28
   0  -2   9  109.95    8.64
   1  -2   9    0.64    1.95
  -1   2  -9    0.38    3.83
   1  -2   9    2.26    3.97
  -2   2  -9 1469.94   69.43
   2  -2   9 1485.53   70.25
  -3   2  -9  193.22   13.22
  -3   2  -9  158.60   13.24
   3  -2   9  181.78   14.05
  -4   2  -9   73.27    8.27
  -4   2  -9   82.22   10.36
   4  -2   9   86.21   10.27
   5  -2   9   72.59   10.08
  -5   2  -9   66.02    9.95
   6  -2   9   79.82   11.33
  -6   2  -9   74.96   11.33
   7  -2   9  229.00   19.75
   7   1  -9  225.95   21.58
  -7  -1   9  276.61   21.69
  -7  -1   9  311.40   23.90
   6   1  -9   59.59   11.71
  -6  -1   9  114.90   14.09
  -6  -1   9   71.88   11.46
  -5  -1   9   33.12    8.29
  -5  -1   9   24.25    7.25
   5   1  -9   20.60    7.53
   4   1  -9  770.31   41.08
  -4  -1   9  724.44   39.34
  -4  -1   9  638.96   38.06
  -3  -1   9   51.56    8.68
  -3  -1   9   50.31    8.22
   3   1  -9   56.77    9.48
   3   1  -9   42.70    4.20
   2   1  -9 1431.75   65.77
  -2  -1   9 1316.89   63.69
  -2  -1   9 1327.75   62.41
  -2  -1   9 1220.72   63.81
   1   1  -9   23.39    6.19
  -1  -1   9   24.80    4.98
  -1  -1   9   26.64    6.59
   0   1  -9  243.79   17.01
   0  -1   9  260.14   15.02
   0  -1   9  274.13   18.06
   1  -1   9 1008.60   50.91
  -1   1  -9 1064.18   50.36
   1  -1   9 1018.07   46.50
   2  -1   9  775.18   39.19
  -2   1  -9  759.24   36.22
  -2   1  -9  724.79   37.37
  -3   1  -9  146.56   11.79
   3  -1   9  147.77   12.25
  -3   1  -9  137.54   10.62
  -4   1  -9    2.54    3.80
   4  -1   9    4.70    4.00
  -4   1  -9    3.91    3.27
   5  -1   9  480.59   28.47
   5  -1   9  481.59   27.68
  -5   1  -9  446.45   27.07
  -6   1  -9   82.89   11.17
   6  -1   9   59.36   10.13
   6  -1   9  102.08   11.67
  -7   1  -9   70.34   11.73
   7  -1   9  119.88   14.00
  -7   0   9   17.65    7.74
   7   0  -9   10.27    6.68
  -7   0   9    3.50    5.88
   6   0  -9   -0.59    4.90
  -6   0   9   -0.06    4.80
  -6   0   9    3.76    5.31
   5   0  -9   37.74    9.09
  -5   0   9   60.23   10.46
  -5   0   9   49.68    9.12
  -4   0   9 1087.05   53.57
  -4   0   9 1077.42   54.18
   4   0  -9  968.69   54.49
  -3   0   9  482.94   29.23
   3   0  -9  530.13   30.88
  -3   0   9  519.11   29.28
   2   0  -9   39.97    5.03
   2   0  -9   46.56    4.09
  -2   0   9   43.39    7.01
  -2   0   9   46.62    7.99
   2   0  -9   30.37    7.19
  -1   0   9   54.70    6.75
   1   0  -9   50.17    7.77
   1   0  -9   55.49    5.09
  -1   0   9   41.90    7.82
   0   0  -9  118.84    8.28
   0   0   9  117.03    8.81
   0   0   9   87.48   10.47
   0   0  -9  126.76   10.89
   1   0   9 2830.71  128.63
   1   0   9 2748.94  131.44
  -1   0  -9 2991.84  121.51
  -1   0  -9 2961.45  131.22
   1   0   9 3058.83  128.47
  -2   0  -9  179.27   12.50
   2   0   9  187.80   14.35
  -2   0  -9  198.74   12.96
  -3   0  -9    0.20    2.97
   3   0   9    0.91    3.27
  -3   0  -9    0.73    2.72
  -4   0  -9  568.95   30.36
   4   0   9  580.22   31.92
  -4   0  -9  584.61   28.21
  -5   0  -9    5.37    4.22
   5   0   9    4.78    3.71
   6   0   9  386.12   24.92
  -6   0  -9  373.74   24.20
  -7   0  -9   10.27    6.23
   7   0   9   12.28    6.34
   7   0   9   15.14    6.36
  -8   0  -9   62.46   11.56
   8   0   9   73.03   11.90
  -7   1   9   29.88    9.09
   7  -1  -9   16.35    7.70
  -6   1   9   22.30    7.72
  -6   1   9    8.53    6.15
   6  -1  -9   19.53    7.79
   5  -1  -9  780.19   44.64
  -5   1   9  760.59   43.68
  -5   1   9  794.43   42.81
  -4   1   9   70.67   10.08
   4  -1  -9   67.64   10.66
  -4   1   9   63.82    9.74
  -3   1   9   97.90   11.32
  -3   1   9  137.54   11.94
   3  -1  -9  113.50   12.42
   2  -1  -9   -1.24    3.46
  -2   1   9   -0.35    3.97
  -2   1   9    0.43    2.83
  -1   1   9  747.47   33.27
   1  -1  -9  660.58   36.18
  -1   1   9  672.22   36.75
   1  -1  -9  663.16   29.94
  -1   1   9  697.31   35.20
   0   1   9  845.39   43.25
   0   1   9  864.45   40.68
   0  -1  -9  855.44   37.32
   0   1   9  821.97   40.20
   0  -1  -9  820.68   42.01
   1   1   9  113.67    7.45
   1   1   9  116.84   11.07
  -1  -1  -9  117.23    8.71
  -1  -1  -9  105.27    9.14
   1   1   9  122.01    7.82
   1   1   9   89.42    8.92
   2   1   9   20.42    2.42
   2   1   9   29.74    2.82
  -2  -1  -9   25.92    4.41
   2   1   9   35.15    6.36
  -2  -1  -9   30.26    5.44
   2   1   9   15.56    5.27
   3   1   9    2.53    3.88
  -3  -1  -9    8.07    2.79
   3   1   9    9.55    4.22
  -3  -1  -9    2.01    3.33
  -4  -1  -9  886.43   39.49
   4   1   9  917.09   45.72
  -4  -1  -9  804.77   41.62
   4   1   9  880.17   44.41
  -5  -1  -9  362.03   22.01
   5   1   9  362.91   22.77
   6   1   9   31.63    7.23
  -6  -1  -9   38.41    8.18
  -7  -1  -9  298.86   21.06
   7   1   9  301.33   21.86
   8   1   9   39.17    9.47
  -8  -1  -9   32.43    8.74
  -6   2   9  158.95   17.34
  -6   2   9  119.60   14.88
   6  -2  -9  133.40   16.39
   5  -2  -9  103.49   13.68
  -5   2   9  121.69   14.44
  -5   2   9  129.47   13.82
  -4   2   9  234.00   18.23
   4  -2  -9  207.85   17.85
  -4   2   9  238.70   17.81
  -3   2   9    5.90    4.61
  -3   2   9    2.97    3.80
   3  -2  -9    4.49    4.34
  -2   2   9 1276.81   58.39
  -2   2   9 1079.80   57.31
   2  -2  -9 1099.77   57.86
  -2   2   9 1220.25   52.73
  -1   2   9   71.77    9.76
  -1   2   9   88.93    8.50
   1  -2  -9   91.08    5.23
   1  -2  -9   87.93    9.50
  -1   2   9   77.54    7.02
   0  -2  -9  614.89   27.10
   0   2   9  565.24   30.16
   0  -2  -9  596.78   31.29
   0   2   9  583.95   29.72
   0   2   9  620.63   32.82
  -1  -2  -9   15.09    4.10
   1   2   9   19.97    3.68
   1   2   9   20.71    4.74
   1   2   9   11.19    4.80
  -1  -2  -9   17.64    3.86
   2   2   9  361.00   17.78
  -2  -2  -9  346.16   18.57
   2   2   9  365.46   21.48
   2   2   9  334.15   20.30
  -2  -2  -9  310.02   18.41
   3   2   9 2080.43   96.95
   3   2   9 1861.37   93.61
   3   2   9 2234.53   97.68
  -3  -2  -9 2198.65   93.56
  -3  -2  -9 2147.44   90.91
  -3  -2  -9 2232.92   94.24
   4   2   9  134.52   11.27
  -4  -2  -9  118.84   10.50
   4   2   9  105.05   11.81
  -4  -2  -9  119.40    6.53
   5   2   9   91.85   11.40
  -5  -2  -9   97.79   10.61
   5   2   9  119.91   11.02
   6   2   9   68.00   10.90
   6   2   9   74.25    9.87
  -6  -2  -9   52.92    8.85
   7   2   9  107.14   12.65
  -7  -2  -9  108.42   12.89
  -8  -2  -9  162.18   15.93
   8   2   9  126.68   14.79
  -6   3   9  390.86   26.53
   6  -3  -9  363.29   26.81
  -6   3   9  289.95   25.35
   5  -3  -9    8.98    6.08
  -5   3   9   19.96    6.86
  -5   3   9   13.14    6.75
   4  -3  -9  111.00   13.11
  -4   3   9   89.00   12.47
  -4   3   9   76.89   11.02
  -3   3   9  506.42   30.27
   3  -3  -9  555.16   31.75
  -3   3   9  510.79   31.13
  -2   3   9  570.44   26.86
  -2   3   9  475.34   30.33
  -2   3   9  557.31   31.30
   2  -3  -9  589.80   31.85
  -1   3   9 1352.58   60.35
  -1   3   9 1313.91   64.17
  -1   3   9 1287.41   63.72
   1  -3  -9 1350.35   64.27
   0  -3  -9  207.59   14.42
   0   3   9  209.65   13.26
   0  -3  -9  207.57   13.65
   0   3   9  215.82   15.69
   0  -3  -9  208.27   11.38
   0   3   9  209.64   11.19
   1   3   9  168.64   12.61
  -1  -3  -9  188.04   12.26
  -1  -3  -9  198.48   13.13
  -1  -3  -9  223.38   12.18
   1   3   9  202.13   14.78
  -2  -3  -9  284.16   15.71
  -2  -3  -9  294.05   16.50
   2   3   9  260.50   18.01
   2   3   9  283.64   17.66
  -2  -3  -9  295.94   16.28
  -3  -3  -9  947.65   42.68
   3   3   9  891.14   45.46
   3   3   9  891.22   45.43
  -3  -3  -9  924.81   42.48
  -3  -3  -9  908.50   42.59
  -4  -3  -9   50.77    4.92
   4   3   9   39.41    6.86
   4   3   9   43.09    7.84
  -4  -3  -9   50.20    7.43
  -5  -3  -9   -0.92    3.33
   5   3   9   -1.42    3.18
   5   3   9   -3.83    3.18
  -5  -3  -9   -1.27    2.07
   6   3   9  708.80   36.59
  -6  -3  -9  609.66   34.19
   6   3   9  644.40   37.46
   7   3   9   13.72    5.64
  -7  -3  -9   10.62    5.79
   7   3   9    8.58    5.74
   8   3   9   19.73    7.57
  -8  -3  -9   36.59    8.83
   8   3   9   36.55    9.59
  -5   4   9   -0.21    4.87
  -5   4   9   -8.62    4.64
   5  -4  -9    6.92    6.03
   4  -4  -9    0.83    4.72
  -4   4   9   -3.23    4.72
  -4   4   9    3.21    4.52
  -3   4   9  534.22   30.99
  -3   4   9  482.45   31.40
   3  -4  -9  551.79   32.22
  -2   4   9  167.49   13.90
   2  -4  -9  155.98   13.88
  -2   4   9  152.19   10.61
  -2   4   9  154.79   13.72
  -1   4   9   46.05    5.97
   1  -4  -9   34.27    7.01
   1  -4  -9   39.38    7.15
  -1   4   9   44.44    7.97
   0  -4  -9  367.78   17.76
   0  -4  -9  401.84   22.22
   0   4   9  383.68   22.74
   0  -4  -9  322.21   20.67
   0   4   9  334.68   19.91
  -1  -4  -9  146.71   11.05
   1   4   9  150.81   11.39
  -1  -4  -9  149.34   11.40
  -1  -4  -9  154.10   10.10
   1   4   9  151.51   12.66
  -2  -4  -9 1002.56   47.69
  -2  -4  -9 1024.14   47.92
  -2  -4  -9 1026.09   45.32
   2   4   9  977.46   48.97
   2   4   9  960.93   48.31
  -3  -4  -9   -0.61    2.22
   3   4   9   -2.13    2.80
  -3  -4  -9    0.18    2.52
  -3  -4  -9   -3.09    2.90
   3   4   9    0.31    3.51
  -4  -4  -9  118.24    8.72
   4   4   9  116.68   10.37
  -4  -4  -9  111.49   10.31
   4   4   9   96.11   10.93
  -5  -4  -9   56.09    8.39
   5   4   9   51.96    7.93
  -5  -4  -9   62.93    6.52
   5   4   9   55.72    8.94
   6   4   9  207.14   17.52
  -6  -4  -9  247.54   17.03
   6   4   9  217.65   16.51
  -7  -4  -9   77.76   10.58
   7   4   9   82.06   12.49
   7   4   9   59.93    9.70
   8   4   9   28.60    8.01
  -8  -4  -9   18.31    7.35
   8   4   9   16.91    7.64
  -4   5   9  397.78   26.45
   4  -5  -9  372.43   26.85
  -4   5   9  379.49   27.63
  -3   5   9   19.51    6.93
   3  -5  -9   21.48    6.95
  -3   5   9   18.46    6.55
   2  -5  -9   24.83    6.83
  -2   5   9   17.16    4.67
  -2   5   9   20.51    6.92
   1  -5  -9   35.88    7.33
   1  -5  -9   24.83    6.53
  -1   5   9   21.57    5.04
  -1   5   9   18.58    6.63
   0  -5  -9  848.90   45.46
   0   5   9  888.67   43.71
   0  -5  -9  912.38   45.94
   0   5   9  945.34   45.86
  -1  -5  -9  115.41    8.77
  -1  -5  -9  118.29   10.44
  -1  -5  -9  123.03   10.34
   1   5   9   87.66   10.03
   1   5   9  100.46    9.71
   2   5   9  296.81   18.89
  -2  -5  -9  308.83   17.59
  -2  -5  -9  288.81   18.26
  -2  -5  -9  305.09   18.20
   2   5   9  290.32   18.49
  -3  -5  -9  122.78   10.33
   3   5   9  146.24   11.35
   3   5   9  123.50   11.55
  -3  -5  -9  133.75   10.15
  -3  -5  -9  151.20   11.51
   4   5   9   78.93   10.41
  -4  -5  -9  119.85   10.85
   4   5   9  127.79    8.87
  -4  -5  -9  130.06   10.05
   4   5   9  116.51   10.24
  -5  -5  -9  486.21   27.15
   5   5   9  459.63   28.48
  -5  -5  -9  489.20   26.17
   5   5   9  491.95   27.31
   6   5   9   -1.37    3.37
  -6  -5  -9    0.29    3.41
  -6  -5  -9   -4.45    3.68
   6   5   9   -0.44    3.57
  -7  -5  -9    4.02    5.25
   7   5   9    1.49    4.32
   7   5   9    1.54    3.99
  -8  -5  -9   98.50   12.87
   8   5   9  104.21   12.63
   8   5   9  110.16   15.22
   4  -6  -9  131.41   16.10
  -4   6   9  106.79   13.90
  -3   6   9   65.98   10.90
   3  -6  -9   62.10   11.42
  -3   6   9   61.56   11.44
  -2   6   9    2.96    5.40
   2  -6  -9    4.73    5.34
   2  -6  -9    1.96    4.93
   1  -6  -9  416.45   26.43
   1  -6  -9  428.84   26.63
  -1   6   9  391.03   25.08
  -1   6   9  415.87   23.55
   0   6   9   38.75    6.78
   0  -6  -9   39.01    7.58
   0   6   9   46.09    8.11
   0  -6  -9   48.75    8.20
   1   6   9  155.13   13.01
  -1  -6  -9  175.17   13.84
  -1  -6  -9  175.29   13.73
   1   6   9  157.01   12.91
  -2  -6  -9   23.93    5.58
  -2  -6  -9   29.97    6.68
   2   6   9   33.09    5.94
  -2  -6  -9   28.40    6.25
   2   6   9   35.54    7.12
   3   6   9  120.69   10.04
   3   6   9  128.59   11.69
  -3  -6  -9   93.98   10.09
  -3  -6  -9  111.97   10.47
   4   6   9  195.84   12.67
   4   6   9  182.27   13.11
  -4  -6  -9  175.73   13.91
   4   6   9  168.33   14.65
  -4  -6  -9  175.34   13.65
   5   6   9  109.56   12.57
   5   6   9  116.76   10.48
  -5  -6  -9  103.56   10.15
  -5  -6  -9  104.95   11.80
  -6  -6  -9   -3.13    3.68
   6   6   9    2.56    3.83
   6   6   9    0.15    4.15
  -6  -6  -9   -0.52    3.88
   7   6   9    0.97    4.98
   7   6   9   -3.51    3.52
  -7  -6  -9    0.24    4.91
  -8  -6  -9  134.87   14.94
   8   6   9   92.15   14.04
   8   6   9   97.50   12.39
   2  -7  -9   36.13    9.39
   2  -7  -9   12.23    6.50
   1  -7  -9  200.23   17.03
   1  -7  -9  147.63   15.41
  -1   7   9  203.37   14.69
   0   7   9   17.32    5.65
   0  -7  -9   18.42    6.74
   0  -7  -9   24.52    7.42
  -1  -7  -9    2.01    4.65
  -1  -7  -9    0.47    4.05
   1   7   9    4.26    4.36
   2   7   9  270.39   19.34
  -2  -7  -9  302.87   20.32
  -3  -7  -9    2.39    4.15
   3   7   9   -3.91    3.57
  -3  -7  -9    1.42    3.62
   3   7   9    1.24    3.60
   4   7   9  308.75   19.02
  -4  -7  -9  350.54   20.87
  -4  -7  -9  274.22   19.94
   4   7   9  283.51   20.96
  -5  -7  -9    1.22    4.74
   5   7   9   -5.20    3.56
  -5  -7  -9   -1.79    4.28
  -6  -7  -9   18.33    6.64
  -6  -7  -9   19.95    6.23
   6   7   9   23.49    7.48
   7   7   9   41.99    9.74
  -7  -7  -9   80.15   11.92
   1  -8  -9    9.80    6.89
   1  -8  -9   11.78    6.76
  -1   8   9    5.78    5.28
   0  -8  -9   10.44    6.42
   0  -8  -9   15.29    6.75
   0   8   9    9.48    5.68
   1   8   9   48.67    9.05
   1   8   9   52.54    9.28
  -1  -8  -9   62.88   10.83
   2   8   9   70.75   11.02
   2   8   9  118.24   12.13
  -2  -8  -9  100.01   12.73
   3   8   9   26.42    7.81
   3   8   9   42.54    8.01
  -3  -8  -9   58.98   10.08
  -4  -8  -9    8.00    5.80
   4   8   9   11.48    5.35
  -4  -8  -9   10.07    5.57
   4   8   9   10.82    6.36
   5   8   9   16.58    6.82
  -5  -8  -9   16.97    6.77
  -5  -8  -9    6.60    5.46
  -6  -8  -9    0.19    4.91
  -6  -8  -9   -0.32    4.61
   6   8   9   -2.08    4.98
   7   8   9   75.09   13.29
  -7  -8  -9   77.61   11.58
  -1  -9  -9  100.12   14.38
   1   9   9  143.69   15.32
   1   9   9  117.59   13.90
   2   9   9    4.09    5.13
  -2  -9  -9    0.74    5.47
   2   9   9   -6.25    4.33
   3   9   9   14.57    6.38
   3   9   9   10.90    6.89
  -3  -9  -9   11.12    6.85
   4   9   9   26.62    8.40
  -4  -9  -9   30.55    8.79
  -5  -9  -9    6.58    6.17
  -4  -6  10   19.59    9.28
   4   6 -10   19.39    8.54
   3   6 -10   50.49   11.64
  -3  -6  10   80.01   12.90
   2   6 -10  121.26   15.80
   2   6 -10  136.02   14.55
   1   6 -10  214.69   19.73
   1   6 -10  211.43   17.93
   0   6 -10   32.89    9.60
   0   6 -10   36.05    9.54
  -1   6 -10   10.61    7.00
  -1   6 -10    5.45    6.13
   5   5 -10    6.56    6.45
  -5  -5  10   13.90    8.62
  -4  -5  10   -2.88    5.46
  -4  -5  10   -3.34    6.15
   4   5 -10    5.09    6.43
   3   5 -10  360.93   27.25
  -3  -5  10  438.57   27.92
   2   5 -10   34.08    7.71
   2   5 -10   31.49    9.04
  -2  -5  10   26.63    7.79
   1   5 -10   55.78    9.69
   1   5 -10   50.71   10.54
   0   5 -10   26.26    8.35
   0   5 -10   30.62    8.14
  -1   5 -10   43.85    9.72
  -1   5 -10   46.77    9.81
  -2   5 -10  256.30   21.29
  -2   5 -10  338.22   22.63
  -3   5 -10   63.85   11.82
  -3   5 -10   52.51   10.19
  -6  -4  10   -5.47    6.31
  -6  -4  10   -1.65    6.35
   6   4 -10   -0.26    5.35
   5   4 -10   42.17   10.32
  -5  -4  10   35.13    9.86
  -5  -4  10   35.55    9.83
  -4  -4  10  162.48   16.55
   4   4 -10  173.50   17.07
  -4  -4  10  197.68   17.04
   3   4 -10   86.26   12.92
  -3  -4  10  127.32   13.85
  -3  -4  10   98.27   12.05
   2   4 -10  310.78   19.95
  -2  -4  10  359.42   21.95
  -2  -4  10  306.12   21.16
   2   4 -10  281.16   22.41
  -1  -4  10   42.82    7.32
   1   4 -10   56.74    8.78
  -1  -4  10   38.08    8.05
   1   4 -10   53.19   10.09
   0  -4  10  417.86   27.18
   0   4 -10  510.27   29.61
   0   4 -10  506.14   29.00
  -1   4 -10  105.62   12.33
   1  -4  10  144.22   12.60
   2  -4  10  188.53   15.28
  -2   4 -10  185.68   15.65
  -3   4 -10    0.70    5.10
   3  -4  10    0.35    3.82
  -4   4 -10   21.66    7.37
   4  -4  10   19.00    6.43
  -6  -3  10   29.23    9.56
   6   3 -10   14.59    7.24
  -6  -3  10   43.47   10.35
  -5  -3  10    1.99    6.22
  -5  -3  10   -6.91    5.30
   5   3 -10   -0.41    4.90
   4   3 -10  793.06   43.87
  -4  -3  10  723.27   42.01
  -4  -3  10  762.94   42.89
  -3  -3  10   44.01    9.28
  -3  -3  10   56.12    9.63
   3   3 -10   45.03    9.79
   2   3 -10    0.45    3.17
  -2  -3  10    0.85    4.31
  -2  -3  10   -2.57    4.37
   2   3 -10    2.78    5.38
   1   3 -10  885.94   48.90
  -1  -3  10  988.90   48.61
  -1  -3  10  944.70   46.98
   0  -3  10  221.82   14.63
   0   3 -10  264.57   18.29
   0  -3  10  227.76   17.16
  -1   3 -10  951.01   48.72
   1  -3  10  952.30   48.69
  -2   3 -10   64.09    8.98
   2  -3  10   73.93    9.74
   3  -3  10   74.11    9.72
  -3   3 -10   50.76    8.31
  -4   3 -10  108.54   12.63
   4  -3  10  106.50   12.23
   5  -3  10  235.45   18.96
  -5   3 -10  246.67   19.15
  -6  -2  10  222.27   19.55
  -6  -2  10  240.42   20.65
  -5  -2  10  585.36   37.78
   5   2 -10  749.48   40.88
  -5  -2  10  638.10   37.94
  -4  -2  10   64.29   10.69
  -4  -2  10   73.31   10.87
   4   2 -10   60.10   10.70
  -3  -2  10   87.36   11.49
   3   2 -10   96.19   12.32
  -3  -2  10   91.94   10.96
  -2  -2  10   70.19    9.33
  -2  -2  10   62.69    9.89
   2   2 -10   68.83   10.46
  -1  -2  10 1421.64   64.97
  -1  -2  10 1463.35   66.92
   1   2 -10 1196.79   65.99
   0  -2  10  211.25   12.92
   0   2 -10  174.86   14.96
   0  -2  10  205.51   15.80
  -1   2 -10   23.29    6.34
   1  -2  10   13.24    5.52
  -2   2 -10  398.87   23.73
   2  -2  10  417.77   25.21
   3  -2  10    4.32    3.96
  -3   2 -10    0.25    3.87
  -3   2 -10   10.52    4.68
   4  -2  10  742.90   39.54
  -4   2 -10  686.93   37.23
   5  -2  10   -2.27    3.57
  -5   2 -10    3.00    4.44
  -6   2 -10    6.98    6.12
   6  -2  10   15.27    6.19
   6   1 -10   52.37   11.79
  -6  -1  10   53.22   10.93
  -6  -1  10   38.30    9.44
   5   1 -10  419.96   28.84
  -5  -1  10  405.27   27.35
  -4  -1  10   -2.65    4.48
  -4  -1  10    0.73    4.23
   4   1 -10   -1.06    4.41
  -3  -1  10  100.91   11.41
   3   1 -10  145.44   13.61
  -3  -1  10  101.31   12.44
   2   1 -10 1810.69   82.27
  -2  -1  10 1709.99   80.19
  -2  -1  10 1449.95   79.96
  -2  -1  10 1797.80   79.23
  -1  -1  10   73.91    9.96
   1   1 -10   73.74    9.77
   0  -1  10   -1.79    2.62
   0  -1  10    2.68    3.91
   0   1 -10   -0.88    3.40
  -1   1 -10    3.43    2.94
   1  -1  10   16.50    5.79
  -1   1 -10    0.22    3.60
   1  -1  10    6.60    2.30
  -2   1 -10 1214.83   58.86
  -2   1 -10 1351.33   56.57
   2  -1  10 1138.08   60.05
   3  -1  10  369.24   22.37
  -3   1 -10  320.82   19.51
  -3   1 -10  330.18   20.31
   4  -1  10  295.02   20.30
  -4   1 -10  297.29   19.44
  -5   1 -10   69.56   10.20
   5  -1  10   61.78    9.83
  -6   1 -10    9.31    6.00
   6  -1  10   14.77    6.19
  -7   1 -10  305.90   22.65
   7  -1  10  274.04   22.26
  -6   0  10  325.74   23.40
  -6   0  10  319.07   24.24
   6   0 -10  266.36   23.62
  -5   0  10   12.73    6.37
   5   0 -10    9.17    6.40
  -5   0  10    9.84    6.23
  -4   0  10  275.39   20.64
  -4   0  10  304.84   21.55
   4   0 -10  316.85   22.79
  -3   0  10  177.47   15.86
  -3   0  10  202.35   15.60
   3   0 -10  214.78   17.22
   2   0 -10 1393.70   65.51
  -2   0  10 1139.61   63.60
   2   0 -10 1366.85   54.83
  -2   0  10 1313.67   63.27
   1   0 -10  270.81   18.63
   1   0 -10  278.35   14.45
  -1   0  10  263.71   16.93
  -1   0  10  275.02   19.48
   0   0  10   16.07    3.94
   0   0  10    6.22    4.91
   0   0 -10   11.78    4.85
   0   0 -10   14.78    3.66
   1   0  10 2139.21  103.40
  -1   0 -10 2353.43  102.79
   1   0  10 2308.42   99.58
   1   0  10 2269.80   99.21
  -1   0 -10 2118.87   94.45
  -2   0 -10   -1.88    2.74
   2   0  10    8.50    4.83
  -2   0 -10   -1.86    2.76
  -3   0 -10  326.91   18.22
  -3   0 -10  292.80   18.80
   3   0  10  333.35   21.22
  -4   0 -10   21.80    6.05
   4   0  10   19.13    5.84
   5   0  10  167.87   14.44
  -5   0 -10  152.87   13.72
  -6   0 -10  205.17   17.18
   6   0  10  233.84   18.25
  -7   0 -10   19.35    7.31
   7   0  10   27.46    7.90
  -6   1  10    4.14    6.10
   6  -1 -10    1.34    6.24
  -6   1  10    2.19    5.18
  -5   1  10   81.07   11.84
   5  -1 -10   96.38   13.94
  -5   1  10  107.40   13.19
   4  -1 -10  441.55   29.78
  -4   1  10  444.65   28.61
  -4   1  10  513.89   29.78
  -3   1  10  631.78   35.01
   3  -1 -10  580.13   35.23
  -3   1  10  612.12   34.22
   2  -1 -10   -4.47    3.50
  -2   1  10    2.73    4.40
  -2   1  10    2.35    3.56
   1  -1 -10   54.10    8.00
  -1   1  10   47.74    6.63
   1  -1 -10   43.48    4.63
  -1   1  10   55.46    8.98
   0   1  10  874.16   47.05
   0   1  10  922.30   44.13
   0  -1 -10  900.52   40.75
   0   1  10  945.40   44.48
   0  -1 -10  961.80   46.50
   1   1  10 1358.91   60.89
   1   1  10 1338.66   64.90
   1   1  10 1325.10   60.54
   1   1  10 1326.26   62.40
  -1  -1 -10 1294.72   58.03
  -1  -1 -10 1351.08   63.15
   2   1  10  305.59   20.37
  -2  -1 -10  298.34   17.75
  -2  -1 -10  323.02   18.09
   2   1  10  298.57   14.73
   2   1  10  347.75   20.15
   3   1  10    8.79    4.77
   3   1  10    3.12    3.81
  -3  -1 -10    1.68    3.45
  -3  -1 -10    6.28    3.01
   4   1  10  754.11   38.98
  -4  -1 -10  668.08   35.41
   4   1  10  694.58   37.78
  -5  -1 -10   39.50    7.90
   5   1  10   43.00    8.07
  -6  -1 -10  382.23   24.31
   6   1  10  389.26   25.33
   7   1  10    1.78    4.64
  -7  -1 -10    1.33    4.84
   8   1  10   29.19    8.42
  -6   2  10    1.31    6.01
   6  -2 -10   20.55    8.17
  -6   2  10   14.25    6.52
  -5   2  10  329.66   24.48
   5  -2 -10  349.99   26.10
  -5   2  10  381.48   26.05
  -4   2  10  446.21   28.40
   4  -2 -10  466.50   29.52
  -4   2  10  392.01   27.12
  -3   2  10  109.85   12.26
   3  -2 -10   97.60   12.30
  -3   2  10   87.46   11.55
  -2   2  10   58.98    5.59
  -2   2  10   47.22    8.79
   2  -2 -10   53.37    9.14
  -2   2  10   52.99    8.21
   1  -2 -10   76.20    9.38
   1  -2 -10   68.71    4.83
  -1   2  10   67.27    8.21
  -1   2  10   63.36    9.70
  -1   2  10   76.49    7.03
   0  -2 -10 2087.06   96.43
   0   2  10 2091.02   93.52
   0   2  10 2156.28   97.52
   0   2  10 2076.25   95.45
   0  -2 -10 2033.05   86.84
   1   2  10  194.00   11.94
  -1  -2 -10  199.19   13.52
   1   2  10  198.69   15.41
   1   2  10  202.81   13.62
  -1  -2 -10  156.65   11.43
   2   2  10    3.79    2.70
  -2  -2 -10    1.25    2.73
   2   2  10    0.17    1.79
   2   2  10    4.13    4.65
  -2  -2 -10   -0.23    3.01
   2   2  10    1.15    3.25
   3   2  10  311.70   14.52
   3   2  10  281.62   19.39
  -3  -2 -10  281.36   15.93
  -3  -2 -10  285.40   17.73
   3   2  10  293.12   19.32
  -4  -2 -10  246.04   16.49
   4   2  10  255.11   17.70
   4   2  10  236.30   17.76
  -5  -2 -10  469.63   27.42
   5   2  10  484.39   29.86
   5   2  10  530.74   29.57
   6   2  10   17.26    6.26
   6   2  10   14.10    6.39
  -6  -2 -10   10.55    5.44
   7   2  10   38.90    8.80
  -7  -2 -10   52.29    9.81
   8   2  10   12.14    6.61
  -8  -2 -10   12.19    6.93
   5  -3 -10   -2.38    4.91
  -5   3  10   -1.79    5.31
  -5   3  10    5.92    5.52
  -4   3  10  245.91   20.32
  -4   3  10  266.39   20.66
   4  -3 -10  278.95   21.58
  -3   3  10   41.96    8.88
  -3   3  10   46.38    8.78
   3  -3 -10   35.63    8.55
  -2   3  10  147.60   14.26
  -2   3  10  180.31   10.93
  -2   3  10  150.52   13.57
   2  -3 -10  163.60   14.51
   1  -3 -10  853.62   42.70
  -1   3  10  742.87   41.19
  -1   3  10  803.77   42.66
  -1   3  10  820.08   38.75
   0   3  10  224.61   14.86
   0  -3 -10  238.44   12.97
   0   3  10  227.64   15.46
   0  -3 -10  259.37   16.72
   0   3  10  255.97   18.12
  -1  -3 -10    0.61    2.68
   1   3  10    0.14    2.90
  -1  -3 -10    2.32    3.03
   1   3  10    6.49    4.69
  -1  -3 -10   -1.23    2.50
   2   3  10   37.93    7.58
   2   3  10   32.45    6.49
  -2  -3 -10   34.23    4.68
  -2  -3 -10   27.95    4.94
  -2  -3 -10   32.80    5.98
  -3  -3 -10 1190.01   53.33
   3   3  10 1214.92   57.31
   3   3  10 1074.81   56.24
  -3  -3 -10 1195.37   53.70
  -3  -3 -10 1115.35   52.70
  -4  -3 -10  164.80   12.87
   4   3  10  155.38   13.20
  -4  -3 -10  165.89    9.78
   4   3  10  166.84   14.05
   5   3  10   47.33    8.81
   5   3  10   73.14    9.57
  -5  -3 -10   62.57    9.00
   6   3  10  245.51   19.33
  -6  -3 -10  220.27   17.20
   6   3  10  245.47   18.19
  -7  -3 -10  134.60   14.59
   7   3  10  149.96   14.46
   7   3  10  159.42   17.28
  -8  -3 -10   81.68   12.30
   8   3  10  142.91   17.08
   8   3  10  105.77   13.49
  -5   4  10   98.75   13.91
   5  -4 -10  117.63   15.91
  -5   4  10  116.13   15.91
   4  -4 -10   60.49   11.35
  -4   4  10   70.87   11.73
  -4   4  10   65.74   11.53
   3  -4 -10  352.05   23.85
  -3   4  10  311.60   22.25
  -3   4  10  289.78   22.35
  -2   4  10    9.46    5.99
   2  -4 -10    4.45    4.79
  -2   4  10   12.85    5.47
  -1   4  10  532.16   27.18
  -1   4  10  530.63   30.07
  -1   4  10  480.89   29.95
   1  -4 -10  537.01   30.48
   0   4  10    3.85    4.73
   0  -4 -10    3.11    4.03
   0  -4 -10    6.68    3.91
   0  -4 -10    3.33    2.47
   0   4  10    4.27    3.38
  -1  -4 -10  132.85    9.55
   1   4  10  126.02   10.70
   1   4  10  118.72   12.20
  -1  -4 -10  112.72    9.99
  -1  -4 -10  134.72   11.03
   2   4  10 1025.30   51.44
  -2  -4 -10 1066.93   48.13
   2   4  10 1036.38   52.46
  -2  -4 -10 1102.58   50.98
  -2  -4 -10 1057.80   50.55
  -3  -4 -10   98.85    8.26
  -3  -4 -10  105.86    9.72
   3   4  10  101.14   10.69
   3   4  10   90.68   10.16
  -3  -4 -10   98.30    8.17
  -4  -4 -10  161.20   12.66
   4   4  10  121.25   12.33
   4   4  10  168.41   13.18
  -4  -4 -10  141.61   10.12
  -5  -4 -10  102.70   11.38
   5   4  10  102.82   12.32
   5   4  10  147.88   12.23
   6   4  10  531.02   29.76
   6   4  10  476.35   30.55
  -6  -4 -10  470.15   28.25
  -7  -4 -10   66.19   10.62
   7   4  10   64.99   11.46
   7   4  10   87.04   11.30
  -8  -4 -10   36.64    9.26
   8   4  10   40.59    8.94
   8   4  10   45.58   10.49
  -4   5  10   79.16   12.25
   4  -5 -10   85.29   13.57
  -4   5  10   67.35   11.95
  -3   5  10  342.55   24.39
   3  -5 -10  366.64   25.38
  -3   5  10  330.75   24.68
  -2   5  10  177.64   16.04
   2  -5 -10  183.87   16.18
  -2   5  10  179.33   15.95
  -1   5  10   32.68    7.83
   1  -5 -10   30.89    7.33
  -1   5  10   32.86    6.13
   1  -5 -10   53.97    9.15
   0   5  10  282.79   17.70
   0   5  10  279.73   19.40
   0  -5 -10  293.84   19.44
   0  -5 -10  265.78   18.58
   1   5  10  108.75   10.59
  -1  -5 -10  125.61   10.92
  -1  -5 -10  128.25   11.30
   1   5  10  130.37   12.33
  -1  -5 -10  125.42    9.61
   2   5  10  958.85   47.95
  -2  -5 -10  962.79   47.11
  -2  -5 -10  939.20   47.10
  -2  -5 -10  956.67   44.28
   2   5  10  952.90   47.62
   3   5  10  122.86   11.36
  -3  -5 -10  123.59   10.31
  -3  -5 -10  144.09   11.70
  -3  -5 -10  125.21    9.86
   3   5  10   89.88   10.91
   4   5  10   25.28    6.66
  -4  -5 -10   14.80    5.38
   4   5  10    8.79    4.74
  -4  -5 -10   13.53    4.44
   5   5  10  362.47   24.19
  -5  -5 -10  346.13   22.54
   5   5  10  378.95   23.01
  -5  -5 -10  383.99   21.21
  -6  -5 -10   13.31    6.03
   6   5  10   -0.52    4.13
   6   5  10    2.48    4.11
  -7  -5 -10   76.61   11.59
   7   5  10  104.96   13.98
   7   5  10   81.05   11.01
  -8  -5 -10   14.41    7.33
   8   5  10   15.85    7.52
   8   5  10   14.91    6.90
   3  -6 -10  121.74   15.41
  -3   6  10   90.32   13.59
  -3   6  10  113.73   14.26
   2  -6 -10   36.72    9.03
  -2   6  10   27.39    7.96
   1  -6 -10   10.10    5.67
   1  -6 -10    9.71    5.65
  -1   6  10    6.28    4.16
  -1   6  10   10.49    6.24
   0   6  10  134.28   12.81
   0  -6 -10  120.92   12.84
   0   6  10  114.04   11.02
   0  -6 -10  126.28   12.30
   1   6  10  249.04   17.98
   1   6  10  299.84   19.22
  -1  -6 -10  289.60   19.40
  -1  -6 -10  267.58   18.95
  -2  -6 -10   13.74    4.87
  -2  -6 -10   12.85    5.30
   2   6  10   18.60    5.94
  -2  -6 -10   13.70    5.30
   2   6  10   15.79    5.49
   3   6  10   43.84    8.16
   3   6  10   47.38    7.37
  -3  -6 -10   45.68    7.68
  -3  -6 -10   50.50    7.97
  -3  -6 -10   41.45    6.78
  -4  -6 -10   33.12    6.58
  -4  -6 -10   43.21    8.12
   4   6  10   32.50    7.85
   4   6  10   40.08    6.84
   5   6  10  202.35   14.53
   5   6  10  185.89   15.82
  -5  -6 -10  180.09   13.79
  -5  -6 -10  162.97   14.87
   6   6  10   20.62    6.81
  -6  -6 -10   19.12    7.08
   6   6  10   24.54    6.48
   7   6  10    2.51    4.62
  -7  -6 -10   -0.55    5.17
   7   6  10    1.78    4.94
   8   6  10   97.47   14.53
   8   6  10  118.72   13.69
   2  -7 -10   11.07    6.95
   2  -7 -10   11.57    6.72
   1  -7 -10  297.16   22.59
   1  -7 -10  317.40   22.95
  -1   7  10  291.33   19.69
   0   7  10   -1.73    3.74
   0  -7 -10    3.33    5.22
   0  -7 -10    8.24    5.48
  -1  -7 -10   22.15    6.62
   1   7  10   21.83    6.85
  -1  -7 -10   45.82    9.04
  -2  -7 -10   22.11    6.88
   2   7  10   12.44    5.71
  -2  -7 -10   16.48    5.96
   3   7  10   28.69    6.36
  -3  -7 -10   21.14    6.14
   3   7  10   37.03    8.44
  -3  -7 -10   33.21    7.78
   4   7  10  480.46   26.61
  -4  -7 -10  477.09   27.79
  -4  -7 -10  506.12   28.73
   4   7  10  445.75   29.16
  -5  -7 -10   -1.47    4.18
  -5  -7 -10   -0.84    4.61
   5   7  10   -2.40    4.29
   5   7  10    5.58    4.05
   6   7  10    5.42    5.58
  -6  -7 -10    0.97    4.96
   6   7  10    3.66    4.05
  -6  -7 -10   -0.17    4.79
  -7  -7 -10   55.46   10.70
   7   7  10   46.71   10.83
   0   8  10   18.25    6.60
   0  -8 -10   39.58    9.76
   0  -8 -10   45.66    9.96
   1   8  10   -0.42    4.52
  -1  -8 -10    2.73    5.24
   2   8  10   75.14   11.42
   2   8  10   68.66   10.02
  -2  -8 -10   67.32   11.24
  -3  -8 -10   34.21    8.29
   3   8  10   32.25    7.45
   3   8  10   50.84    9.91
  -4  -8 -10   42.18    9.03
  -4  -8 -10   29.13    7.67
   4   8  10   32.48    8.85
  -5  -8 -10   10.41    6.06
  -5  -8 -10    9.35    6.13
   5   8  10    7.44    6.02
  -6  -8 -10   -4.32    4.52
   6   8  10    1.96    5.28
  -6  -8 -10   -4.54    4.67
   2   9  10   16.10    7.38
   2   9  10    4.06    5.34
  -2  -9 -10    7.34    6.80
   3   9  10   50.06    9.34
  -3  -9 -10   46.15    9.92
   3   9  10   40.30    9.58
  -4  -9 -10   13.14    7.28
   2   6 -11  102.13   13.21
   2   6 -11   87.06   14.44
   1   6 -11   93.43   13.36
   1   6 -11  109.75   15.24
   0   6 -11  251.40   21.63
   0   6 -11  247.91   20.97
  -4  -5  11   12.52    8.49
   4   5 -11    4.43    6.67
  -3  -5  11  108.51   13.70
   3   5 -11   65.25   12.77
   2   5 -11    4.21    4.79
   2   5 -11    2.70    6.57
   1   5 -11  434.60   30.13
   1   5 -11  460.63   28.42
   0   5 -11   27.39    8.63
   0   5 -11   12.92    6.28
  -1   5 -11    1.56    4.76
  -1   5 -11   -5.91    5.14
  -2   5 -11  127.06   14.85
  -2   5 -11  135.18   16.45
  -5  -4  11   37.88   10.24
   5   4 -11   39.04    9.79
  -5  -4  11   20.44    8.87
  -4  -4  11   16.29    8.04
  -4  -4  11    8.38    7.10
   4   4 -11   18.55    8.21
   3   4 -11  245.72   21.16
  -3  -4  11  265.30   20.21
  -3  -4  11  294.37   21.14
  -2  -4  11  339.95   22.07
  -2  -4  11  312.87   21.03
   2   4 -11  278.56   19.19
   2   4 -11  257.98   21.81
  -1  -4  11   65.64   10.23
   1   4 -11   40.43    8.16
   1   4 -11   46.41    9.94
   0   4 -11   16.96    6.16
   0  -4  11   11.88    5.82
   0   4 -11   18.31    7.19
   1  -4  11    0.41    4.23
  -1   4 -11   -0.07    5.12
  -2   4 -11  616.61   36.13
   2  -4  11  645.95   36.14
  -3   4 -11   14.58    6.72
   3  -4  11   18.06    6.29
   4  -4  11   53.23   10.20
  -6  -3  11   65.26   12.83
  -6  -3  11   45.81   11.53
   6   3 -11   64.57   12.17
  -5  -3  11   10.31    7.23
   5   3 -11    8.40    6.74
  -5  -3  11    8.24    6.81
  -4  -3  11  594.72   37.59
  -4  -3  11  700.88   38.92
   3   3 -11   26.90    8.41
  -3  -3  11   35.94    8.87
  -3  -3  11   28.88    8.40
  -2  -3  11  398.97   23.90
   2   3 -11  345.04   24.85
  -2  -3  11  393.11   24.70
   2   3 -11  333.34   21.03
  -1  -3  11   19.56    5.89
  -1  -3  11   11.21    5.71
   1   3 -11    7.02    5.80
   0   3 -11  129.70   14.24
   0  -3  11  182.59   15.07
  -1   3 -11  441.90   26.48
   1  -3  11  390.30   25.65
  -2   3 -11  172.36   14.61
   2  -3  11  166.73   14.92
  -3   3 -11   20.84    6.63
  -3   3 -11   20.27    6.30
   3  -3  11   18.52    6.26
  -4   3 -11   10.35    5.20
   4  -3  11   10.71    6.09
  -5   3 -11  354.82   25.42
   5  -3  11  437.74   28.00
  -6  -2  11   27.04    9.35
   6   2 -11   23.11    8.29
  -6  -2  11   24.06    9.00
  -5  -2  11   76.35   12.16
  -5  -2  11   73.13   12.65
   5   2 -11   97.35   13.86
  -4  -2  11  203.92   16.95
  -4  -2  11  137.35   15.91
   4   2 -11  180.15   16.92
  -3  -2  11  399.95   24.87
  -3  -2  11  334.45   24.84
   3   2 -11  396.20   26.11
  -2  -2  11   -1.22    4.81
  -2  -2  11    6.13    5.01
   2   2 -11   -3.62    4.21
   1   2 -11  458.31   29.76
  -1  -2  11  532.36   28.17
  -1  -2  11  524.50   30.60
   0   2 -11  186.50   15.91
   0  -2  11  202.26   16.22
   1  -2  11 1023.28   50.08
  -1   2 -11  888.46   48.23
   2  -2  11   17.31    5.98
  -2   2 -11   10.40    4.40
  -2   2 -11    9.42    5.20
  -3   2 -11   16.21    5.66
  -3   2 -11   18.44    5.93
   3  -2  11   15.86    5.99
  -4   2 -11  373.12   24.05
   4  -2  11  405.28   25.89
  -5   2 -11   48.05    9.49
   5  -2  11   53.76   10.21
  -6   2 -11   53.11   10.69
   6  -2  11   69.73   12.12
   6   1 -11   80.92   13.66
  -6  -1  11   55.36   11.65
  -6  -1  11   89.99   13.40
  -5  -1  11  569.60   35.72
   5   1 -11  652.52   38.31
  -5  -1  11  563.21   35.86
   4   1 -11   39.10    9.64
  -4  -1  11   37.29    9.09
  -4  -1  11   45.32    9.22
  -3  -1  11    6.59    5.06
   3   1 -11    9.10    5.68
  -3  -1  11    3.58    5.50
  -2  -1  11  602.31   32.89
  -2  -1  11  562.93   34.52
   2   1 -11  628.43   35.09
  -1  -1  11  881.27   42.04
   1   1 -11  791.45   43.66
  -1  -1  11  804.19   44.29
   0   1 -11  527.37   30.21
   0   1 -11  515.52   26.45
   0  -1  11  550.51   27.47
   0  -1  11  523.76   31.06
  -1   1 -11   71.55    9.13
  -1   1 -11   71.03    7.84
   1  -1  11   46.94    8.80
   2  -1  11  139.31   13.50
  -2   1 -11  157.33   12.19
  -2   1 -11  150.83   12.44
   3  -1  11  348.63   23.38
  -3   1 -11  379.65   21.39
  -3   1 -11  337.75   21.32
  -4   1 -11  950.20   48.77
   4  -1  11 1074.85   53.13
   5  -1  11   36.49    8.31
  -5   1 -11   30.81    7.40
  -6   1 -11    1.10    4.87
   6  -1  11   -6.36    3.60
  -6   0  11  208.95   19.72
   6   0 -11  238.28   21.46
  -6   0  11  219.25   19.86
  -5   0  11   67.00   11.46
  -5   0  11   76.08   12.36
   5   0 -11   66.13   12.51
  -4   0  11   30.46    7.89
   4   0 -11   31.25    8.79
  -4   0  11   31.24    8.60
  -3   0  11   72.37   10.18
  -3   0  11   71.76   11.32
   3   0 -11   83.49   11.50
  -2   0  11 1861.17   91.57
   2   0 -11 2064.88   94.14
   1   0 -11  442.75   20.72
  -1   0  11  450.81   27.05
   1   0 -11  472.02   26.47
  -1   0  11  335.68   22.72
   0   0  11   40.14    5.57
   0   0  11   37.50    8.00
   0   0 -11   32.75    6.84
   0   0 -11   34.88    5.29
   1   0  11   51.72    5.20
  -1   0 -11   50.11    6.50
   1   0  11   53.67    9.17
  -1   0 -11   45.55    7.22
   2   0  11  151.24   14.12
  -2   0 -11  175.52   12.69
  -2   0 -11  162.64   12.16
  -3   0 -11  580.29   30.52
   3   0  11  538.33   32.92
  -3   0 -11  618.25   30.32
   4   0  11   49.85    8.78
  -4   0 -11   70.25    9.47
  -5   0 -11    7.50    5.23
   5   0  11    3.55    4.44
   6   0  11   39.89    8.88
  -6   0 -11   44.18    9.06
  -7   0 -11  117.93   14.93
   7   0  11  171.03   16.41
  -6   1  11  253.54   21.89
  -6   1  11  257.51   22.11
  -5   1  11   11.70    6.22
   5  -1 -11    1.69    5.50
  -5   1  11    8.34    6.31
   4  -1 -11  264.21   21.16
  -4   1  11  245.10   19.19
  -4   1  11  240.11   19.87
   3  -1 -11  559.44   33.91
  -3   1  11  529.15   33.17
  -3   1  11  576.46   32.48
  -2   1  11  117.16   10.94
  -2   1  11   96.27   12.41
   2  -1 -11  105.80   12.48
   1  -1 -11  115.59    7.87
   1  -1 -11  109.69   11.98
  -1   1  11  109.67    9.99
  -1   1  11  100.30   12.30
   0  -1 -11    0.18    2.59
   0   1  11    2.03    4.58
   0   1  11    1.36    2.89
   0  -1 -11    2.34    3.68
  -1  -1 -11  699.65   37.16
   1   1  11  727.19   37.08
  -1  -1 -11  747.03   34.44
   1   1  11  713.29   39.45
   1   1  11  733.76   34.79
  -2  -1 -11  282.06   16.73
  -2  -1 -11  259.04   16.31
   2   1  11  233.07   18.42
   2   1  11  271.20   18.03
  -3  -1 -11  201.10   15.16
  -3  -1 -11  264.02   14.64
   3   1  11  219.51   17.24
   4   1  11  188.46   15.60
  -4  -1 -11  186.57   14.46
  -5  -1 -11   77.58   10.40
   5   1  11   44.04    8.56
   6   1  11  556.34   32.70
  -6  -1 -11  492.43   30.16
  -7  -1 -11    1.09    4.91
   7   1  11    0.65    4.36
  -5   2  11  118.59   14.62
   5  -2 -11   83.92   14.04
  -5   2  11   90.16   13.37
  -4   2  11   31.76    7.97
  -4   2  11    6.17    6.46
   4  -2 -11   14.80    7.05
   3  -2 -11  581.54   37.19
  -3   2  11  662.40   37.52
  -3   2  11  678.47   37.07
   2  -2 -11    0.70    4.43
  -2   2  11    0.83    3.55
  -2   2  11    1.76    5.12
  -1   2  11  273.96   21.10
  -1   2  11  311.81   19.73
  -1   2  11  332.78   17.98
   1  -2 -11  308.91   20.90
   0   2  11 1038.17   49.42
   0   2  11  984.91   49.94
   0  -2 -11 1048.50   51.78
   0  -2 -11  971.73   45.14
   0   2  11 1158.10   53.89
   1   2  11   10.82    3.28
   1   2  11   13.28    6.26
   1   2  11    1.63    3.03
  -1  -2 -11   15.19    4.16
  -1  -2 -11    7.23    4.21
  -2  -2 -11  758.17   37.24
  -2  -2 -11  728.07   35.65
   2   2  11  711.28   39.96
   2   2  11  729.54   38.57
   2   2  11  773.03   35.38
  -3  -2 -11   59.18    6.33
  -3  -2 -11   65.25    8.33
   3   2  11   67.98    9.75
   3   2  11   76.79    9.85
  -4  -2 -11  100.43   10.52
   4   2  11   78.47   10.36
   4   2  11   90.63   11.25
   5   2  11  180.21   15.41
   5   2  11  167.55   15.56
  -5  -2 -11  181.12   14.49
  -6  -2 -11   85.53   11.68
   6   2  11  100.76   12.42
   6   2  11   87.12   12.41
   7   2  11   68.54   11.17
  -7  -2 -11   38.49    8.81
   8   2  11    3.75    5.59
  -5   3  11   99.56   14.50
   5  -3 -11   95.12   14.78
  -5   3  11   90.68   13.66
   4  -3 -11  430.42   29.71
  -4   3  11  427.05   28.86
  -4   3  11  417.08   28.47
  -3   3  11   -5.50    4.84
   3  -3 -11    0.03    4.90
  -3   3  11   -2.18    3.62
  -2   3  11   57.24    9.49
  -2   3  11   47.37    9.42
   2  -3 -11   50.24    9.54
  -1   3  11  116.73    9.43
  -1   3  11  131.98   13.59
   1  -3 -11  115.61   12.36
  -1   3  11   92.38   10.66
   0  -3 -11  972.76   44.28
   0   3  11 1089.16   52.95
   0   3  11 1039.12   50.52
   0   3  11  978.00   48.89
   0  -3 -11 1054.91   51.67
   1   3  11  179.43   15.48
  -1  -3 -11  194.80   13.88
   1   3  11  180.49   13.65
  -1  -3 -11  199.12   12.51
   2   3  11    7.57    5.38
  -2  -3 -11    7.50    4.10
   2   3  11    6.64    4.21
  -2  -3 -11    7.08    3.65
   3   3  11  299.99   20.37
   3   3  11  293.10   20.60
  -3  -3 -11  336.89   16.62
  -3  -3 -11  269.44   18.25
  -3  -3 -11  322.60   17.58
   4   3  11    0.08    3.93
  -4  -3 -11   -0.19    3.80
   4   3  11   -1.22    3.19
   5   3  11  198.00   16.59
   5   3  11  196.57   15.93
  -5  -3 -11  180.04   14.89
   6   3  11   -3.67    4.18
  -6  -3 -11    1.30    4.79
   6   3  11    0.81    4.07
   7   3  11    0.65    4.73
   7   3  11    4.76    5.49
  -7  -3 -11    9.45    6.28
   8   3  11  123.47   15.33
  -8  -3 -11  129.51   15.44
  -4   4  11   76.42   12.51
  -4   4  11   83.23   13.10
   4  -4 -11   84.23   13.69
   3  -4 -11    4.68    5.61
  -3   4  11   -0.63    4.58
  -3   4  11   -0.14    5.35
  -2   4  11   12.13    5.49
   2  -4 -11   11.62    6.07
  -2   4  11   11.59    7.12
  -1   4  11  654.23   37.80
   1  -4 -11  677.51   38.59
  -1   4  11  740.80   39.37
  -1   4  11  717.74   35.15
   0   4  11    6.89    3.88
   0  -4 -11    5.27    4.59
   0   4  11   10.49    5.81
   1   4  11    1.77    4.31
  -1  -4 -11   -0.21    2.87
  -1  -4 -11    5.45    3.90
   1   4  11    3.41    3.68
  -1  -4 -11    0.85    3.29
  -2  -4 -11  110.00    9.22
   2   4  11  108.44   11.33
  -2  -4 -11   84.43    9.24
   2   4  11  125.93   12.27
  -2  -4 -11  127.21   10.25
   3   4  11  148.42   13.54
   3   4  11  184.54   14.57
  -3  -4 -11  156.50   12.93
  -3  -4 -11  175.64   11.60
  -3  -4 -11  169.57   11.72
  -4  -4 -11  223.27   16.23
   4   4  11  217.18   17.20
   4   4  11  240.57   17.39
   5   4  11   51.20    9.60
   5   4  11   64.70    9.62
  -5  -4 -11   63.60    9.88
  -6  -4 -11   53.30    9.56
   6   4  11   41.59    8.54
   6   4  11   48.30   10.04
   7   4  11    4.87    5.16
   7   4  11   -1.37    4.00
  -7  -4 -11    0.79    4.98
   8   4  11  113.15   15.52
   8   4  11  125.66   15.06
  -8  -4 -11  128.78   15.26
  -4   5  11    7.94    7.48
   4  -5 -11    5.96    6.63
  -3   5  11  161.40   16.79
   3  -5 -11  128.76   15.94
  -3   5  11  166.86   16.21
  -2   5  11  188.12   16.82
  -2   5  11  179.52   17.08
   2  -5 -11  217.21   18.00
  -1   5  11  160.12   12.49
   1  -5 -11  179.82   15.67
  -1   5  11  165.24   15.21
   0   5  11    7.03    5.54
   0   5  11   11.16    4.31
   0  -5 -11   12.64    5.52
   0  -5 -11    8.36    4.94
   1   5  11    6.63    5.44
   1   5  11    9.71    4.63
  -1  -5 -11    6.91    3.63
  -1  -5 -11    9.45    5.06
  -1  -5 -11    3.84    4.11
   2   5  11  689.21   38.01
   2   5  11  687.76   37.44
  -2  -5 -11  767.36   37.44
  -2  -5 -11  679.43   36.55
  -2  -5 -11  713.02   34.84
  -3  -5 -11   10.96    4.52
  -3  -5 -11   14.92    5.40
   3   5  11    7.57    5.03
   3   5  11   14.12    5.49
  -3  -5 -11   12.94    4.47
  -4  -5 -11   94.64    8.95
   4   5  11  116.88   11.14
   4   5  11   89.67   11.50
  -4  -5 -11  100.42   11.09
   5   5  11   81.48   10.20
  -5  -5 -11   75.29   10.74
   5   5  11   84.06   11.81
  -6  -5 -11   27.27    7.88
   6   5  11   23.68    6.99
   6   5  11   13.33    6.11
   7   5  11   65.60   11.65
   7   5  11   96.69   12.08
  -7  -5 -11   84.58   12.51
   8   5  11   32.33    9.57
   8   5  11   25.54    7.92
  -3   6  11   16.75    8.59
   3  -6 -11   23.46    9.18
  -3   6  11   13.79    7.02
  -2   6  11  168.02   16.40
   2  -6 -11  201.59   17.62
  -2   6  11  111.44   14.72
  -1   6  11   -4.55    5.07
   1  -6 -11   -6.61    4.04
  -1   6  11   -2.72    3.40
   1  -6 -11   -1.38    4.73
   0   6  11   45.04    9.16
   0  -6 -11   54.80    9.74
   0  -6 -11   47.15    8.87
   0   6  11   49.31    8.14
   1   6  11  258.66   18.09
   1   6  11  272.09   19.06
  -1  -6 -11  248.10   18.39
  -1  -6 -11  269.54   19.05
   2   6  11  157.12   14.24
  -2  -6 -11  176.88   13.38
  -2  -6 -11  181.11   14.31
   2   6  11  180.96   14.71
  -2  -6 -11  193.67   14.52
  -3  -6 -11   21.28    6.14
  -3  -6 -11   23.15    6.16
  -3  -6 -11   22.88    5.78
   3   6  11   20.43    6.36
   3   6  11   14.80    5.36
   4   6  11   33.78    7.85
  -4  -6 -11   43.24    8.74
  -4  -6 -11   28.65    6.29
   4   6  11   33.53    7.09
  -5  -6 -11  186.03   15.89
   5   6  11  174.51   16.30
   5   6  11  206.33   15.58
   6   6  11   -1.52    4.36
   6   6  11   -0.38    3.76
  -6  -6 -11   -2.67    4.58
  -7  -6 -11   33.62    9.08
   7   6  11   57.48    9.72
   7   6  11   34.40    9.25
   1  -7 -11   53.83   10.95
   1  -7 -11   49.03   10.73
   0  -7 -11    3.96    5.51
   0  -7 -11    3.46    5.16
   0   7  11   -4.07    3.80
   1   7  11  318.36   21.65
  -1  -7 -11  339.05   22.99
  -1  -7 -11  324.02   22.84
  -2  -7 -11    0.11    4.54
  -2  -7 -11   -5.00    3.89
   2   7  11   -2.45    3.99
  -3  -7 -11   -1.67    4.06
   3   7  11   -3.13    3.95
   3   7  11    0.97    3.92
  -3  -7 -11    0.15    4.73
  -4  -7 -11  206.90   17.09
  -4  -7 -11  232.09   17.23
   4   7  11  218.12   18.25
   4   7  11  227.56   16.17
  -5  -7 -11   33.53    8.40
  -5  -7 -11   21.62    6.73
   5   7  11   36.37    7.20
   5   7  11   34.70    8.87
  -6  -7 -11    9.25    6.37
   6   7  11    6.62    5.89
   6   7  11   15.43    5.68
   7   7  11    9.12    6.48
   0  -8 -11   90.37   13.71
   0   8  11   81.30   11.23
   0  -8 -11  107.57   14.38
  -1  -8 -11    7.72    5.98
  -1  -8 -11   13.36    6.80
   1   8  11    9.25    5.71
  -2  -8 -11    5.19    5.61
   2   8  11   12.44    6.27
   3   8  11    3.27    5.66
  -3  -8 -11   -0.39    5.17
   3   8  11    6.15    5.20
   4   8  11   81.62   12.34
  -4  -8 -11   95.31   12.27
  -4  -8 -11   95.73   11.98
   5   8  11    5.62    6.18
  -5  -8 -11   12.10    6.53
  -5  -8 -11   -2.28    4.84
  -6  -8 -11   13.77    6.98
   3   5 -12    3.58    6.81
   2   5 -12    7.63    7.29
   1   5 -12  144.72   15.63
   1   5 -12  160.91   17.79
   0   5 -12   52.90   10.55
   0   5 -12   77.88   13.02
  -1   5 -12   86.76   13.11
  -1   5 -12   91.46   13.52
   4   4 -12   42.23   10.48
  -4  -4  12   23.95    9.36
  -4  -4  12   25.31    8.81
  -3  -4  12   33.11    8.82
   3   4 -12   45.63   10.85
  -3  -4  12   46.61   10.01
   2   4 -12   20.06    8.13
  -2  -4  12   10.75    6.87
  -1  -4  12  345.56   23.03
   1   4 -12  278.37   22.98
   1   4 -12  306.20   21.32
   0   4 -12   11.34    5.77
   0   4 -12    6.17    6.44
   0  -4  12    9.45    6.09
   1  -4  12    0.29    4.97
  -1   4 -12   14.59    7.18
  -2   4 -12  276.64   21.60
   2  -4  12  288.78   21.45
  -3   4 -12    2.20    4.95
   3  -4  12    5.55    5.49
   5   3 -12   42.39   10.69
  -5  -3  12   31.11    9.98
  -5  -3  12   41.15   10.54
  -4  -3  12   78.75   13.21
  -4  -3  12  101.86   13.75
   4   3 -12  120.87   15.45
  -3  -3  12   98.03   12.52
  -3  -3  12   85.22   12.59
   3   3 -12  120.56   14.97
  -2  -3  12  484.96   30.89
  -2  -3  12  530.91   30.07
   2   3 -12  494.21   31.95
   1   3 -12   74.77   11.33
  -1  -3  12   74.36   11.18
   0   3 -12   -7.41    4.00
   0  -3  12   -2.33    4.35
   1  -3  12   24.43    7.50
  -1   3 -12   35.04    8.43
  -2   3 -12  332.04   22.54
   2  -3  12  323.83   23.09
   3  -3  12  159.32   15.24
  -3   3 -12  160.69   14.36
   4  -3  12   50.70   10.30
  -4   3 -12   36.06    8.36
   5   2 -12    4.36    5.91
  -5  -2  12    1.76    6.83
  -5  -2  12    4.73    6.15
  -4  -2  12  406.12   26.88
   4   2 -12  412.81   28.11
  -4  -2  12  371.09   27.72
  -3  -2  12  152.78   14.66
  -3  -2  12   81.03   12.98
   3   2 -12  149.85   15.53
  -2  -2  12  242.23   17.53
   2   2 -12  215.28   18.34
  -2  -2  12  240.00   19.11
   1   2 -12   18.53    6.64
  -1  -2  12   29.04    7.92
   0  -2  12   17.87    6.94
   0   2 -12   23.05    7.17
  -1   2 -12  609.56   35.04
   1  -2  12  671.62   36.67
  -1   2 -12  596.46   32.04
   2  -2  12   19.15    6.81
  -2   2 -12   20.76    5.93
  -2   2 -12   15.79    6.05
  -3   2 -12   16.35    5.81
   3  -2  12   17.88    6.48
  -3   2 -12   15.08    5.92
   4  -2  12   43.42    9.32
  -4   2 -12   25.02    7.05
  -5   2 -12  125.00   14.68
   5  -2  12  204.14   17.66
  -5  -1  12  291.67   22.66
   5   1 -12  296.18   23.75
   4   1 -12   33.17    9.37
  -4  -1  12   40.37   10.20
  -4  -1  12   42.46    9.17
  -3  -1  12  336.76   25.71
  -3  -1  12  388.97   24.80
   3   1 -12  404.88   26.49
   2   1 -12   63.74   10.18
  -2  -1  12   76.27    9.69
  -2  -1  12   45.94    9.61
   1   1 -12  138.07   10.02
   1   1 -12  138.71   13.21
  -1  -1  12  138.13   11.42
  -1  -1  12  103.25   13.14
   0   1 -12  361.47   21.13
   0  -1  12  446.92   26.84
   0   1 -12  408.05   25.21
   1  -1  12  513.99   30.62
  -1   1 -12  495.40   26.31
  -1   1 -12  483.32   28.61
  -2   1 -12   82.19    9.56
   2  -1  12   60.72   10.29
  -2   1 -12   85.24    9.55
  -3   1 -12   17.54    5.66
  -3   1 -12   23.74    5.96
   3  -1  12   25.57    7.31
   4  -1  12  617.96   36.49
  -4   1 -12  621.74   33.81
  -5   1 -12    2.82    4.84
   5  -1  12    2.79    4.72
  -6   1 -12  108.90   13.88
   6  -1  12  114.91   14.73
  -5   0  12  309.37   24.80
   5   0 -12  355.76   26.46
  -4   0  12  327.87   22.49
  -4   0  12  255.95   22.05
  -3   0  12    0.52    4.18
   3   0 -12   -2.84    4.07
  -3   0  12   -0.52    5.26
  -2   0  12  204.35   18.38
   2   0 -12  231.30   18.39
  -2   0  12  250.52   17.20
  -1   0  12   12.01    4.07
   1   0 -12   16.60    4.08
   1   0 -12   19.44    6.45
  -1   0  12    7.73    6.25
   0   0 -12 1149.48   50.81
   0   0  12 1137.29   58.47
   0   0  12 1132.48   54.13
   0   0 -12 1151.03   57.07
  -1   0 -12  133.85   11.41
  -1   0 -12  118.84    9.97
   1   0  12  100.76   12.54
  -2   0 -12   22.17    5.44
  -2   0 -12   23.04    5.61
   2   0  12   15.73    6.78
  -3   0 -12  259.20   16.25
  -3   0 -12  241.23   16.87
   3   0  12  242.71   19.19
  -4   0 -12  194.85   15.49
   4   0  12  211.03   17.36
   5   0  12  198.69   17.21
  -5   0 -12  175.29   15.57
   6   0  12   12.15    6.25
  -6   0 -12   13.04    6.17
   7   0  12   70.56   12.19
  -5   1  12    2.18    5.48
   5  -1 -12    0.72    5.56
  -5   1  12   -4.52    5.54
  -4   1  12   21.92    8.08
  -4   1  12   24.24    7.36
   4  -1 -12   28.05    8.40
   3  -1 -12   72.06   11.73
  -3   1  12   67.46    9.79
  -3   1  12   42.33   10.12
   2  -1 -12  583.43   33.09
  -2   1  12  552.40   30.63
  -2   1  12  467.36   32.02
   1  -1 -12  429.16   27.52
  -1   1  12  483.24   26.18
  -1   1  12  447.64   28.82
   0  -1 -12  480.62   27.60
   0   1  12  444.24   28.71
   0  -1 -12  475.33   23.39
   0   1  12  456.53   25.04
  -1  -1 -12  212.99   15.10
   1   1  12  213.01   17.30
  -1  -1 -12  200.72   13.56
  -2  -1 -12    2.40    3.27
  -2  -1 -12    0.92    3.54
   2   1  12   -3.11    3.95
  -3  -1 -12 1075.43   47.90
   3   1  12  853.75   50.67
  -3  -1 -12 1013.96   47.29
   4   1  12    1.08    4.04
  -4  -1 -12   -1.36    3.56
  -5  -1 -12    8.56    5.42
   5   1  12    4.16    5.15
   6   1  12  182.13   16.85
  -6  -1 -12  185.00   16.14
  -7  -1 -12   60.68   11.30
   7   1  12   59.60   11.40
  -5   2  12   46.95    9.75
   5  -2 -12   25.36    9.59
  -5   2  12   37.03    9.82
  -4   2  12   14.08    6.34
  -4   2  12    1.54    6.17
   4  -2 -12    7.84    6.56
  -3   2  12  759.10   41.54
  -3   2  12  699.71   42.13
   3  -2 -12  761.19   43.38
   2  -2 -12   41.90    9.03
  -2   2  12    7.25    6.65
  -2   2  12   28.85    7.02
  -1   2  12  323.52   20.57
  -1   2  12  314.35   22.75
  -1   2  12  316.51   18.44
   1  -2 -12  327.87   22.11
   0  -2 -12   24.76    6.73
   0   2  12   19.33    6.69
   0   2  12   28.00    5.91
   0   2  12    6.20    2.88
   0  -2 -12   11.69    3.98
   1   2  12    6.28    5.68
   1   2  12    9.75    3.61
  -1  -2 -12    3.09    3.76
  -1  -2 -12    6.06    3.79
   1   2  12    7.42    4.10
  -2  -2 -12  519.08   27.69
   2   2  12  527.41   31.09
   2   2  12  459.63   28.49
  -2  -2 -12  533.39   26.93
  -3  -2 -12   97.97   10.17
  -3  -2 -12   91.53    8.46
   3   2  12   91.01   11.89
   3   2  12  105.32   11.86
   4   2  12   -0.05    3.65
   4   2  12   -0.75    4.16
  -4  -2 -12   -2.27    3.46
   5   2  12   -0.07    4.52
   5   2  12    1.73    4.74
  -5  -2 -12    0.73    4.44
  -6  -2 -12  321.07   22.85
   6   2  12  379.64   25.31
   7   2  12   26.40    8.18
  -7  -2 -12   21.30    7.47
  -4   3  12  125.09   15.91
  -4   3  12  162.16   16.97
   4  -3 -12  129.39   16.59
  -3   3  12  221.75   19.30
  -3   3  12  205.46   17.94
   3  -3 -12  226.14   19.68
  -2   3  12   62.77    9.79
  -2   3  12   37.52    9.54
   2  -3 -12   58.80   10.26
  -1   3  12   37.42    8.77
  -1   3  12   42.31    6.51
  -1   3  12   37.47    7.45
   1  -3 -12   44.05    8.81
   0   3  12  439.46   26.66
   0   3  12  378.27   22.76
   0  -3 -12  363.19   24.24
   0   3  12  413.57   23.80
  -1  -3 -12   18.45    4.94
   1   3  12   25.81    5.99
   1   3  12   23.10    7.46
   1   3  12   27.67    5.49
  -1  -3 -12   27.72    6.38
   2   3  12  661.53   32.71
  -2  -3 -12  658.77   34.10
   2   3  12  639.13   35.40
   2   3  12  694.67   37.47
  -2  -3 -12  617.03   32.25
  -3  -3 -12   44.10    6.04
  -3  -3 -12   43.68    7.37
   3   3  12   42.85    8.76
   3   3  12   34.24    7.52
   4   3  12   59.16   10.10
  -4  -3 -12   53.38    8.67
   4   3  12   60.37    9.93
  -5  -3 -12  179.70   15.07
   5   3  12  174.28   16.10
   5   3  12  191.38   16.24
   6   3  12   62.31   10.42
   6   3  12   46.90   10.20
  -6  -3 -12   35.84    8.92
  -7  -3 -12   23.52    7.71
   7   3  12   42.40    9.85
   7   3  12   29.75    8.57
  -4   4  12  297.26   23.80
   4  -4 -12  295.61   24.66
  -4   4  12  276.52   23.32
  -3   4  12   76.12   12.23
   3  -4 -12   67.83   12.60
  -3   4  12   62.74   11.83
  -2   4  12   19.54    8.14
   2  -4 -12    9.56    6.45
  -2   4  12   13.72    6.12
   1  -4 -12  109.87   13.15
  -1   4  12  130.03   14.57
  -1   4  12  140.82   11.17
  -1   4  12  133.09   12.65
   0   4  12  217.06   17.33
   0   4  12  171.88   14.39
   0   4  12  210.32   14.58
   0  -4 -12  192.13   15.97
  -1  -4 -12  189.35   13.33
  -1  -4 -12  214.78   16.03
   1   4  12  250.75   18.20
   1   4  12  212.43   15.54
   2   4  12  202.22   16.69
  -2  -4 -12  195.34   13.20
  -2  -4 -12  217.47   14.67
   2   4  12  177.36   14.94
  -2  -4 -12  171.14   13.47
   3   4  12   76.73   10.70
   3   4  12   67.64   10.08
  -3  -4 -12   77.74    9.49
  -3  -4 -12   72.42    7.83
   4   4  12  130.32   12.77
   4   4  12  122.00   13.50
  -4  -4 -12  103.13   11.63
   5   4  12  302.13   20.23
  -5  -4 -12  227.00   17.79
   5   4  12  229.64   19.33
  -6  -4 -12   51.77    9.49
   6   4  12   31.92    8.23
   6   4  12   59.06   10.22
  -7  -4 -12    0.85    4.91
   7   4  12   -0.74    4.75
   7   4  12    3.43    4.78
  -3   5  12    2.51    5.56
   3  -5 -12   -0.04    5.86
  -3   5  12   -4.36    6.24
  -2   5  12   -6.33    5.31
  -2   5  12   -0.46    4.54
   2  -5 -12    3.05    5.76
  -1   5  12  293.61   21.45
   1  -5 -12  306.20   22.27
  -1   5  12  297.32   22.24
   0   5  12  187.20   14.44
   0   5  12  203.69   17.05
   0  -5 -12  201.11   16.48
  -1  -5 -12   52.15    8.87
  -1  -5 -12   41.31    7.52
   1   5  12   50.08    9.50
   1   5  12   56.87    8.87
   2   5  12   95.38   11.36
  -2  -5 -12   68.18    8.82
  -2  -5 -12   85.76    9.73
   2   5  12   75.31   10.34
  -2  -5 -12   95.53    9.78
  -3  -5 -12   30.13    7.33
  -3  -5 -12   22.29    5.30
  -3  -5 -12   37.23    6.29
   3   5  12   24.41    7.07
   3   5  12   23.98    7.11
   4   5  12  218.14   17.76
  -4  -5 -12  193.14   16.11
   4   5  12  242.37   17.59
   5   5  12    3.00    4.56
  -5  -5 -12    6.76    5.80
   5   5  12    7.17    5.31
   6   5  12    9.23    5.54
  -6  -5 -12    0.53    5.20
   6   5  12    7.25    5.42
   7   5  12   51.61   11.18
   7   5  12   50.82    9.77
  -7  -5 -12   35.16    9.21
   2  -6 -12  239.33   20.49
  -2   6  12  168.80   17.59
  -2   6  12  198.39   18.58
  -1   6  12    6.89    6.77
   1  -6 -12    6.28    6.29
  -1   6  12   15.98    6.74
   0  -6 -12   19.07    7.10
   0  -6 -12   26.53    7.35
   0   6  12   21.15    7.71
   0   6  12   14.48    5.56
  -1  -6 -12   -3.49    4.00
   1   6  12   -0.01    4.22
  -1  -6 -12    6.78    4.75
   1   6  12   -0.41    4.72
   2   6  12   88.74   11.44
  -2  -6 -12  140.53   12.55
  -2  -6 -12  124.36   11.61
   2   6  12  119.37   12.69
  -2  -6 -12   98.77   10.49
   3   6  12   46.95    8.66
  -3  -6 -12   47.83    8.01
  -3  -6 -12   49.05    7.90
   3   6  12   43.01    9.12
  -3  -6 -12   44.07    8.29
  -4  -6 -12   86.14   11.55
   4   6  12  103.00   12.89
   4   6  12   95.53   11.37
  -5  -6 -12    5.71    5.91
   5   6  12    5.50    4.74
   5   6  12    4.05    5.27
   6   6  12    6.42    5.45
   6   6  12   -0.91    4.02
  -6  -6 -12   -3.63    4.86
   7   6  12  176.97   15.72
  -7  -6 -12  153.41   16.68
   7   6  12  132.83   16.76
   1  -7 -12    4.54    6.00
   1  -7 -12    2.20    5.75
   0   7  12   -2.33    4.14
   0  -7 -12    0.98    5.14
   0  -7 -12    2.03    5.67
  -1  -7 -12  210.05   17.58
  -1  -7 -12  202.61   17.39
   1   7  12  197.77   16.44
  -2  -7 -12   -3.18    4.12
   2   7  12   -1.94    4.24
  -2  -7 -12    1.70    4.85
   3   7  12   82.27   10.25
  -3  -7 -12   72.70   10.45
   3   7  12   84.97   12.17
  -3  -7 -12  103.74   11.96
  -4  -7 -12   51.97    8.83
   4   7  12   43.69    9.81
  -4  -7 -12   45.37    9.18
   4   7  12   70.84    9.47
   5   7  12   23.73    6.41
   5   7  12   19.21    7.35
  -5  -7 -12   23.06    7.76
   6   7  12   56.53    9.40
   6   7  12   54.32   11.38
  -6  -7 -12   86.69   13.13
  -1  -8 -12   70.59   11.66
   1   8  12   53.46    9.88
   2   8  12   12.84    6.69
  -2  -8 -12   21.17    7.90
  -3  -8 -12   -1.23    5.08
   3   8  12    1.94    5.60
  -4  -8 -12   48.05   10.19
   4   8  12   43.51   10.27
  -4  -8 -12   34.06    8.46
  -5  -8 -12    3.10    6.17
   3   4 -13   75.43   13.28
  -3  -4  13   89.34   13.47
   2   4 -13    2.96    5.95
  -2  -4  13    2.40    6.37
   1   4 -13  411.68   25.71
   1   4 -13  340.29   27.11
  -1  -4  13  427.71   27.39
   0   4 -13    5.66    7.03
   0  -4  13   28.30    8.32
   0   4 -13   28.94    7.96
   1  -4  13  197.49   18.10
  -1   4 -13  223.62   19.65
  -2   4 -13   21.39    8.34
  -2   4 -13   11.68    5.79
   2  -4  13    7.45    6.07
  -4  -3  13    0.56    6.02
   4   3 -13   -1.17    5.35
  -4  -3  13   -1.43    6.54
   3   3 -13    6.77    6.48
  -3  -3  13    2.17    6.34
  -2  -3  13  174.33   17.30
   2   3 -13  153.92   17.16
   1   3 -13  166.24   14.33
  -1  -3  13  210.29   17.89
   1   3 -13  186.61   17.32
   0   3 -13  207.91   18.44
   0  -3  13  232.84   18.82
  -1   3 -13   -3.27    5.02
   1  -3  13    4.28    5.74
   2  -3  13  245.31   20.26
  -2   3 -13  251.90   19.82
  -2   3 -13  291.47   19.62
   3  -3  13   21.04    7.38
  -3   3 -13   22.11    6.93
  -4  -2  13   27.08    8.16
   4   2 -13   16.20    7.71
  -4  -2  13    5.36    7.55
   3   2 -13   19.25    7.47
  -3  -2  13    2.93    5.76
  -3  -2  13    0.82    6.52
  -2  -2  13  571.40   34.52
   2   2 -13  524.14   33.45
  -1  -2  13   61.35   10.81
   1   2 -13   58.58   10.42
   0   2 -13    6.82    5.23
   0   2 -13    3.41    3.82
   0  -2  13    2.43    5.63
  -1   2 -13  186.95   15.85
  -1   2 -13  184.74   14.33
   1  -2  13  182.25   16.69
   2  -2  13  219.02   18.61
  -2   2 -13  230.17   17.58
  -2   2 -13  213.25   16.16
   3  -2  13  293.56   22.88
  -3   2 -13  326.51   21.28
   4  -2  13   15.79    6.93
  -4   2 -13   33.21    8.27
   5  -2  13   20.19    7.76
   5   1 -13    4.27    5.88
  -5  -1  13   10.53    7.03
  -5  -1  13   -2.24    6.10
  -4  -1  13   93.77   14.68
  -4  -1  13  112.45   13.77
   4   1 -13  104.83   14.56
   3   1 -13  375.74   25.81
  -3  -1  13  355.76   23.86
  -3  -1  13  318.11   25.30
  -2  -1  13  162.06   13.82
  -2  -1  13  136.72   15.98
   2   1 -13  178.20   15.82
   1   1 -13   51.75    9.32
  -1  -1  13   30.35    8.79
   0  -1  13   71.39   11.51
   0   1 -13   68.42   10.19
   0   1 -13   75.23    8.36
  -1   1 -13  660.04   33.86
  -1   1 -13  689.33   37.26
   1  -1  13  680.48   39.13
  -2   1 -13  360.97   21.78
  -2   1 -13  320.63   20.32
   2  -1  13  300.92   23.14
  -3   1 -13   70.01    9.89
   3  -1  13   62.11   11.13
  -4   1 -13   67.06   10.29
   4  -1  13   49.95   10.12
  -5   1 -13   31.61    8.29
   5  -1  13   47.94   10.46
  -5   0  13  224.80   20.08
  -5   0  13  218.99   21.17
   5   0 -13  268.27   22.57
   4   0 -13   34.71    9.74
  -4   0  13   45.60    9.46
  -4   0  13   31.82   10.11
   3   0 -13  223.38   18.82
  -3   0  13  196.23   18.72
  -3   0  13  194.83   16.55
  -2   0  13   41.21    7.65
  -2   0  13   27.96    8.60
   2   0 -13   34.34    8.38
  -1   0  13   21.03    8.14
  -1   0  13   24.55    5.91
   1   0 -13   32.21    7.67
   0   0 -13  628.84   31.69
   0   0  13  718.29   39.21
   0   0 -13  655.45   36.62
   1   0  13   -1.03    4.82
  -1   0 -13   -1.65    3.61
  -1   0 -13    1.68    3.24
  -2   0 -13  402.43   23.96
   2   0  13  408.68   27.21
  -2   0 -13  407.64   23.27
   3   0  13    0.79    4.90
  -3   0 -13   -0.87    3.75
  -4   0 -13  266.78   18.97
   4   0  13  271.88   21.27
   5   0  13  135.96   15.31
  -5   0 -13  106.78   13.34
   6   0  13   78.92   12.94
  -6   0 -13   59.35   11.05
  -5   1  13  106.60   14.65
  -5   1  13  139.06   17.71
   5  -1 -13  164.37   19.31
   4  -1 -13  267.97   22.08
  -4   1  13  217.61   20.63
  -4   1  13  232.57   19.26
  -3   1  13    6.50    6.01
   3  -1 -13   -1.91    5.37
  -3   1  13    2.73    4.49
  -2   1  13  100.25   13.83
   2  -1 -13  111.87   13.50
  -2   1  13  121.80   11.93
  -1   1  13   61.68   11.05
  -1   1  13   73.80    8.70
   1  -1 -13   76.45   10.66
   0  -1 -13 1019.46   46.19
   0   1  13 1019.81   54.37
   0  -1 -13 1049.98   52.82
  -1  -1 -13    4.32    4.04
  -1  -1 -13    5.47    3.82
   1   1  13    3.48    5.44
  -2  -1 -13   13.10    4.77
   2   1  13   -2.65    4.82
  -2  -1 -13    8.75    4.13
   3   1  13  530.81   33.62
  -3  -1 -13  588.17   30.55
   4   1  13   -7.44    3.79
  -4  -1 -13   -2.29    3.62
  -5  -1 -13  355.92   23.61
   5   1  13  386.01   26.58
   6   1  13   34.73    9.00
  -6  -1 -13   22.17    7.40
   4  -2 -13    5.61    6.97
  -4   2  13    7.45    7.07
  -4   2  13    3.97    4.94
  -3   2  13   23.65    7.07
   3  -2 -13   24.83    8.35
  -3   2  13   36.44    9.84
  -2   2  13    8.74    4.81
   2  -2 -13    4.37    5.42
  -2   2  13   -3.13    5.76
  -1   2  13  628.96   34.96
   1  -2 -13  685.60   37.57
  -1   2  13  620.99   37.78
   0   2  13   56.72    7.35
   0   2  13   54.69    7.69
   0  -2 -13   47.11    8.55
   0   2  13   55.14   10.33
  -1  -2 -13   67.59    9.04
   1   2  13   59.25    8.72
   1   2  13   69.92   11.15
  -1  -2 -13   66.84    7.86
  -2  -2 -13  129.87   10.93
   2   2  13   82.38   11.01
  -2  -2 -13  138.58   11.29
   2   2  13  134.29   14.56
   3   2  13  471.71   30.34
  -3  -2 -13  471.70   26.68
   3   2  13  501.55   29.36
   4   2  13  255.12   20.76
   4   2  13  294.47   20.97
  -4  -2 -13  279.22   18.82
   5   2  13   -4.44    3.87
  -5  -2 -13    2.62    5.07
   6   2  13  168.99   17.40
  -6  -2 -13  124.71   14.21
   7   2  13    2.43    5.48
   4  -3 -13   14.22    8.06
  -4   3  13    7.82    7.83
  -4   3  13   30.12    8.46
  -3   3  13  409.10   28.21
  -3   3  13  458.38   30.47
   3  -3 -13  428.92   30.29
  -2   3  13  132.45   13.08
   2  -3 -13  124.81   15.03
  -2   3  13  112.24   14.73
  -1   3  13  126.84   14.63
   1  -3 -13  122.52   13.82
  -1   3  13  137.74   12.68
   0   3  13   33.93    6.69
   0   3  13   22.18    5.84
   0  -3 -13   23.39    6.68
   0   3  13   23.66    7.84
   1   3  13   29.18    8.74
   1   3  13   33.79    7.07
   1   3  13   29.14    5.82
  -1  -3 -13   23.74    5.61
  -1  -3 -13   35.24    7.40
   2   3  13  609.52   35.60
  -2  -3 -13  585.01   32.23
   2   3  13  573.92   33.39
  -2  -3 -13  625.21   31.03
   3   3  13    3.01    4.34
  -3  -3 -13    1.15    4.14
   3   3  13   -3.34    4.56
  -4  -3 -13   12.94    5.78
   4   3  13   18.25    6.95
   4   3  13   18.91    6.74
   5   3  13  116.01   13.60
  -5  -3 -13   90.06   11.42
   5   3  13   70.49   11.71
   6   3  13  121.74   14.50
  -6  -3 -13  142.44   14.72
   6   3  13  101.85   14.11
  -7  -3 -13   67.88   11.71
   7   3  13   70.75   12.52
   7   3  13  107.22   14.21
  -3   4  13   13.27    6.64
   3  -4 -13    6.32    6.33
  -3   4  13   -6.49    5.89
   2  -4 -13  205.62   18.24
  -2   4  13  157.19   17.16
  -2   4  13  170.33   16.05
   1  -4 -13   96.84   12.93
  -1   4  13  128.42   13.38
  -1   4  13  100.61   13.52
   0   4  13  175.84   14.30
   0   4  13  197.12   15.37
   0  -4 -13  220.59   16.95
   0   4  13  171.14   16.82
   1   4  13  142.78   11.91
  -1  -4 -13  129.56   12.59
   1   4  13  153.97   15.50
   1   4  13  129.37   12.42
  -2  -4 -13   74.40    9.04
   2   4  13   62.49   10.47
   2   4  13   54.41    9.33
  -2  -4 -13   58.90    8.38
   3   4  13   43.45    9.27
  -3  -4 -13   23.99    6.52
   3   4  13   36.47    8.17
   4   4  13    0.22    4.77
  -4  -4 -13   -0.81    4.31
   4   4  13   -0.28    4.19
  -5  -4 -13  263.58   19.68
   5   4  13  320.48   22.21
   5   4  13  255.13   20.91
   6   4  13   19.55    7.23
   6   4  13    9.12    5.88
  -6  -4 -13   13.25    6.82
   7   4  13   16.88    6.76
   7   4  13   -1.16    5.36
  -7  -4 -13    4.40    6.00
  -2   5  13    8.95    5.47
   2  -5 -13   -3.87    4.95
  -2   5  13   -1.22    5.90
  -1   5  13  116.16   13.83
   1  -5 -13   92.01   12.96
  -1   5  13   82.59   11.74
   0   5  13    3.06    4.51
   0  -5 -13   -0.35    4.65
   0   5  13    1.73    4.41
   0   5  13   -4.73    5.04
   1   5  13  224.80   18.52
  -1  -5 -13  243.81   18.19
   1   5  13  221.10   17.03
   2   5  13   46.14    9.15
  -2  -5 -13   43.61    7.45
  -2  -5 -13   39.07    7.53
   2   5  13   50.26    9.80
  -2  -5 -13   36.22    7.57
  -3  -5 -13   57.19    8.86
   3   5  13   44.55    8.97
   3   5  13   56.54    9.98
   4   5  13  189.71   16.58
   4   5  13  188.80   16.38
  -4  -5 -13  157.57   14.79
  -5  -5 -13   51.92   10.01
   5   5  13   52.35   10.69
   5   5  13   48.82    9.48
   6   5  13   38.42    9.57
   6   5  13   44.76    9.29
  -6  -5 -13   28.68    8.29
   7   5  13    8.38    6.00
  -1   6  13   51.40    9.97
  -1   6  13   43.72   10.59
   1  -6 -13   26.27    8.82
   0   6  13   97.84   13.30
   0  -6 -13  105.28   13.79
   1   6  13   36.07    9.05
   1   6  13   20.07    6.69
  -1  -6 -13   32.28    7.95
  -1  -6 -13   18.91    7.05
   2   6  13   63.22   10.45
  -2  -6 -13   62.23    9.42
  -2  -6 -13   65.48    9.77
   2   6  13   50.28    9.30
   3   6  13   -2.24    4.17
   3   6  13   -1.82    4.30
  -3  -6 -13   -0.53    4.39
   4   6  13  241.83   18.31
  -4  -6 -13  199.90   17.30
   5   6  13   15.58    6.23
   5   6  13   13.16    6.55
  -5  -6 -13   12.69    6.85
  -6  -6 -13    6.72    6.79
   6   6  13    4.07    5.71
   6   6  13    9.40    5.49
   0  -7 -13   50.61   10.78
   0  -7 -13   61.39   11.83
   1   7  13   43.02    9.03
  -1  -7 -13   69.20   11.30
  -1  -7 -13   58.23   10.42
  -2  -7 -13    7.00    5.88
  -2  -7 -13    0.73    5.40
   2   7  13    2.75    4.98
   3   7  13   82.87   12.23
  -3  -7 -13   76.81   10.87
  -4  -7 -13    6.03    6.01
   4   7  13   21.45    6.58
   4   7  13    6.46    5.96
   5   7  13    4.84    5.75
  -5  -7 -13   -5.40    5.15
   5   7  13    1.77    4.42
   0   4 -14   19.54    7.62
   0   4 -14   10.41    7.99
   3   3 -14   77.45   13.09
  -3  -3  14   67.68   12.72
   2   3 -14   11.79    6.78
  -2  -3  14    6.50    6.61
   1   3 -14  252.86   21.34
  -1  -3  14  283.58   22.01
   0   3 -14  227.40   19.44
   0  -3  14  224.29   19.26
   0   3 -14  192.41   15.55
  -1   3 -14   91.85   11.62
   1  -3  14   89.64   13.05
  -1   3 -14   88.79   12.65
   2  -3  14    1.68    5.42
  -2   3 -14    8.13    6.24
  -2   3 -14    0.39    4.77
   3   2 -14    7.64    6.43
  -3  -2  14    5.08    6.77
   2   2 -14  435.01   28.60
  -2  -2  14  389.28   28.24
  -1  -2  14    4.12    7.01
   1   2 -14   16.74    7.22
   0   2 -14  268.00   20.05
   0  -2  14  259.45   21.08
   0   2 -14  231.34   16.54
  -1   2 -14   20.78    7.16
   1  -2  14    8.09    6.54
  -1   2 -14    6.03    4.50
   2  -2  14   45.12   10.05
  -2   2 -14   72.75   10.45
  -2   2 -14   54.25    8.93
   3  -2  14  171.08   17.99
  -3   2 -14  177.05   15.34
  -4   2 -14   16.84    6.55
   4  -2  14   29.30    9.15
   4   1 -14   -1.10    5.42
  -4  -1  14   -1.23    6.68
  -4  -1  14    2.65    5.68
  -3  -1  14   70.50   10.86
   3   1 -14  100.86   13.71
  -3  -1  14   71.26   12.88
  -2  -1  14  394.99   28.01
   2   1 -14  390.83   26.82
   1   1 -14  244.55   18.83
  -1  -1  14  209.57   19.21
   0  -1  14   21.26    8.06
   0   1 -14   17.61    6.21
   0   1 -14   10.98    4.45
  -1   1 -14  346.35   22.45
   1  -1  14  310.79   23.75
  -1   1 -14  314.65   19.79
  -2   1 -14    0.22    3.80
   2  -1  14   -5.36    4.12
  -2   1 -14    2.14    4.30
  -3   1 -14  222.86   16.79
   3  -1  14  217.18   19.56
  -4   1 -14    0.97    4.56
   4  -1  14    1.97    5.34
  -5   1 -14    1.14    4.56
   5  -1  14   -0.86    5.42
  -4   0  14    0.01    6.54
  -4   0  14    4.73    6.01
   4   0 -14   -2.98    4.78
  -3   0  14  488.37   33.37
  -3   0  14  487.00   30.02
  -2   0  14    4.84    4.96
   2   0 -14    1.00    5.10
  -2   0  14   -0.91    5.39
  -1   0  14   -2.99    5.20
   1   0 -14   13.22    6.06
   0   0  14   72.40   11.90
   0   0 -14   42.34    8.40
  -1   0 -14  143.73   11.58
   1   0  14  142.29   15.76
  -1   0 -14  131.40   12.39
   2   0  14  414.01   29.31
  -2   0 -14  430.52   25.26
  -2   0 -14  502.12   27.08
  -3   0 -14   55.39    9.11
   3   0  14   62.43   11.55
  -4   0 -14   67.31   10.35
   4   0  14   77.89   12.60
  -5   0 -14   15.02    7.23
   5   0  14   14.39    6.84
  -4   1  14  167.16   20.06
  -4   1  14  212.89   18.93
   4  -1 -14  276.33   22.39
   3  -1 -14  195.35   18.42
  -3   1  14  171.06   19.00
  -3   1  14  197.98   16.83
   2  -1 -14   35.42    8.82
  -2   1  14   41.03   10.23
  -2   1  14   32.99    7.27
  -1   1  14    5.65    6.13
   1  -1 -14    5.29    5.10
   0  -1 -14  929.58   48.85
   1   1  14   60.73   10.97
  -1  -1 -14   70.50    8.22
  -1  -1 -14   71.31    9.43
   2   1  14  312.55   23.19
  -2  -1 -14  258.05   18.02
  -2  -1 -14  321.92   19.72
   3   1  14   35.84    9.11
  -3  -1 -14   26.00    6.80
  -4  -1 -14   -0.27    4.11
   4   1  14   -2.08    4.41
  -5  -1 -14  243.53   19.08
   5   1  14  270.30   21.89
  -6  -1 -14   10.12    6.50
   6   1  14   14.05    7.25
  -4   2  14  252.68   20.70
   4  -2 -14  266.19   23.26
  -4   2  14  210.70   21.47
  -3   2  14   17.97    6.81
  -3   2  14   18.85    8.43
   3  -2 -14   24.55    9.18
  -2   2  14    8.91    5.00
   2  -2 -14   16.70    7.35
  -2   2  14    1.93    6.07
   1  -2 -14  247.55   19.58
  -1   2  14  245.29   20.76
  -1   2  14  248.23   17.60
   0  -2 -14   76.00   10.40
   0   2  14   58.88   10.96
   1   2  14  233.71   19.68
  -1  -2 -14  220.05   16.81
   2   2  14   57.33    9.32
  -2  -2 -14   55.43    8.27
  -2  -2 -14   51.35    7.81
   2   2  14   48.50   10.23
  -3  -2 -14  379.39   23.07
   3   2  14  383.94   26.92
   3   2  14  400.85   25.64
   4   2  14   58.90   11.18
  -4  -2 -14   52.93    9.01
   5   2  14   58.88   11.39
  -5  -2 -14   62.60   10.41
  -6  -2 -14    5.11    5.79
   6   2  14   -1.52    4.92
   3  -3 -14   25.06    8.98
  -3   3  14   35.74   10.62
  -3   3  14   37.86    8.61
  -2   3  14   -4.78    6.18
   2  -3 -14    0.01    5.58
  -2   3  14    5.97    5.27
   1  -3 -14  443.41   28.52
  -1   3  14  414.94   28.77
  -1   3  14  411.43   26.26
   0   3  14   54.25   10.95
   0   3  14   58.48    8.43
   0  -3 -14   48.73    9.14
   0   3  14   43.51    7.54
   1   3  14   -0.14    3.78
   1   3  14    2.33    5.96
  -1  -3 -14    0.11    4.02
   2   3  14  392.89   27.21
   2   3  14  405.38   25.19
  -2  -3 -14  393.41   22.75
  -2  -3 -14  376.31   23.70
  -3  -3 -14  135.18   13.09
   3   3  14  137.30   14.58
   3   3  14  137.67   15.46
   4   3  14  263.64   20.11
   4   3  14  221.30   19.68
  -4  -3 -14  248.62   18.13
   5   3  14  108.31   14.01
  -5  -3 -14   84.60   11.70
   5   3  14  107.14   14.09
  -6  -3 -14   41.46    9.49
   6   3  14   38.32    9.62
   6   3  14   42.29   10.03
  -3   4  14   65.51   12.20
  -2   4  14  298.76   22.62
  -2   4  14  285.12   23.48
   2  -4 -14  290.63   23.78
  -1   4  14  102.95   14.24
   1  -4 -14   96.28   13.59
  -1   4  14   71.70   10.81
   0   4  14    7.49    4.46
   0   4  14    8.10    6.41
   0  -4 -14    2.29    4.92
   1   4  14   -0.71    5.50
   1   4  14   -0.21    4.13
  -1  -4 -14   15.84    6.53
  -2  -4 -14  244.66   17.20
   2   4  14  215.44   17.59
   2   4  14  213.89   18.81
   3   4  14  107.34   13.38
  -3  -4 -14   89.48   11.04
   3   4  14  114.28   14.23
   4   4  14   44.02    9.58
  -4  -4 -14   43.21    8.61
   4   4  14   53.94   10.40
   5   4  14   82.47   12.78
  -5  -4 -14   81.65   11.68
   5   4  14  103.52   14.17
   6   4  14    3.86    5.57
  -6  -4 -14    2.16    5.36
   6   4  14    8.76    6.53
   2  -5 -14  100.56   14.93
  -2   5  14  111.87   14.71
  -2   5  14  114.49   15.58
  -1   5  14   17.99    8.37
   1  -5 -14    8.23    6.63
  -1   5  14   17.42    7.07
   0  -5 -14   14.26    6.86
   0   5  14   32.58    7.79
   0   5  14   29.24    9.36
  -1  -5 -14  223.10   17.79
   1   5  14  252.41   17.58
   1   5  14  201.17   18.24
   1   5  14  190.22   16.41
  -2  -5 -14   -0.62    4.11
   2   5  14    2.00    5.08
   2   5  14   -6.37    4.61
  -3  -5 -14   40.73    8.22
   3   5  14   47.16    9.74
   3   5  14   53.80   10.15
  -4  -5 -14   46.16    9.55
   4   5  14   46.26    9.60
   4   5  14   39.58    9.40
   5   5  14  161.05   17.45
  -5  -5 -14  117.04   14.25
   5   5  14  145.83   15.53
   6   5  14   21.41    8.04
   6   5  14   17.65    7.43
  -6  -5 -14   20.30    8.12
  -1   6  14   60.90   11.63
   0   6  14   12.87    6.65
   0   6  14   11.87    7.52
   0  -6 -14    8.17    6.48
   1   6  14  179.68   16.72
   1   6  14  161.31   15.01
  -1  -6 -14  168.32   16.35
  -2  -6 -14   38.11    8.61
   2   6  14   35.86    8.95
   2   6  14   23.78    7.50
   3   6  14   -1.08    4.95
   3   6  14   -0.19    5.20
   4   6  14  110.25   14.53
   4   6  14  114.94   13.48
  -4  -6 -14  116.50   13.95
   5   6  14    2.45    5.43
  -5  -6 -14   -1.11    5.54
   5   6  14    3.61    4.96
  -1  -7 -14   -3.48    5.29
   1   7  14   -0.09    4.86
  -1  -7 -14    2.16    6.45
  -2  -7 -14    3.58    5.58
   2   7  14   -0.42    5.12
  -2  -7 -14    0.75    5.54
   3   7  14    7.78    6.32
   3   7  14   30.27    8.03
   4   7  14   61.56   10.32
   4   7  14   50.89   11.33
   0  -3  15   40.93   10.33
   0   3 -15   39.36    9.90
   2   2 -15   16.64    7.33
  -2  -2  15   14.63    8.23
   1   2 -15   83.05   12.75
  -1  -2  15   63.45   12.18
   0   2 -15  346.39   24.62
   0  -2  15  347.33   26.00
  -1   2 -15   36.13    7.65
   1  -2  15   40.07   10.26
  -1   2 -15   37.59    9.02
  -2   2 -15   18.03    6.88
   2  -2  15   45.09   10.63
  -3  -1  15   -6.13    5.76
   3   1 -15    0.78    5.50
  -2  -1  15  194.06   20.20
   2   1 -15  204.02   18.24
   1   1 -15  102.01   13.09
  -1  -1  15   99.42   14.82
   0  -1  15  205.17   19.47
   0   1 -15  246.05   18.70
  -1   1 -15    5.54    4.95
  -1   1 -15   -0.28    3.95
   1  -1  15    7.14    6.21
  -2   1 -15    1.83    4.30
   2  -1  15    0.18    5.52
  -3   1 -15  306.79   21.07
   3  -1  15  323.15   24.92
  -4   1 -15    4.24    5.45
   4  -1  15   -1.65    5.38
  -3   0  15  126.97   17.52
  -2   0  15   53.37   12.08
   2   0 -15   52.93   10.46
  -1   0  15  195.99   19.18
   1   0 -15  204.34   17.56
   0   0 -15   -2.99    3.89
   0   0  15   -2.16    5.27
  -1   0 -15   55.70    9.40
   1   0  15   83.55   13.23
   2   0  15  186.35   18.10
  -2   0 -15  174.32   14.28
  -3   0 -15  288.14   19.61
   3   0  15  271.75   22.90
  -4   0 -15   13.72    6.60
   4   0  15   15.36    7.43
  -3   1  15  331.83   27.94
   3  -1 -15  437.72   29.17
   2  -1 -15  171.20   16.51
  -2   1  15  135.71   17.46
  -1   1  15   13.27    7.46
   1  -1 -15   24.63    7.76
   0   1  15   97.48   13.70
   0  -1 -15   73.19   10.90
  -1  -1 -15    4.83    4.58
   1   1  15    6.84    6.51
  -2  -1 -15  312.63   19.92
   2   1  15  322.90   24.58
  -2  -1 -15  318.39   20.72
   3   1  15    0.60    5.35
  -3  -1 -15   -1.93    4.06
   4   1  15   -0.85    4.95
  -4  -1 -15   -0.47    4.62
  -5  -1 -15  110.35   13.14
   5   1  15  101.02   14.79
  -3   2  15   19.28    6.47
   3  -2 -15   13.39    7.53
  -3   2  15   -0.49    7.63
  -2   2  15   25.26    9.59
   2  -2 -15   32.83    9.59
   1  -2 -15    7.79    5.94
  -1   2  15   -2.56    5.94
   0  -2 -15  191.61   16.66
   0   2  15  221.42   19.39
   1   2  15  212.30   19.63
  -1  -2 -15  236.10   17.74
   2   2  15   50.56   10.93
  -2  -2 -15   42.55    7.70
  -2  -2 -15   48.36    8.19
   3   2  15    7.34    5.69
  -3  -2 -15    3.93    4.62
   4   2  15    4.46    6.23
  -4  -2 -15   -4.38    4.12
  -5  -2 -15  235.92   18.59
   5   2  15  229.64   20.92
  -2   3  15    9.69    5.31
   2  -3 -15   14.12    7.47
  -2   3  15   29.81   10.12
  -1   3  15  354.14   27.22
   1  -3 -15  402.32   27.34
   0   3  15   -1.95    5.94
   0  -3 -15    7.00    5.44
   1   3  15  273.74   19.63
  -1  -3 -15  283.34   20.40
   1   3  15  285.94   22.73
  -2  -3 -15   75.15    9.93
   2   3  15   81.42   13.04
   2   3  15   73.19   10.88
   3   3  15   51.32   11.05
  -3  -3 -15   75.86   10.14
   3   3  15   74.18   11.64
   4   3  15  258.88   20.96
  -4  -3 -15  280.07   19.46
   4   3  15  253.95   21.92
   5   3  15   30.92    9.62
   5   3  15   52.09   10.93
  -5  -3 -15   33.16    8.89
  -2   4  15   35.63   10.42
  -2   4  15   47.64    9.95
   2  -4 -15   33.16   10.23
  -1   4  15  124.94   16.03
  -1   4  15  144.77   14.30
   1  -4 -15  143.39   16.73
   0  -4 -15  209.72   18.51
   0   4  15  219.06   19.62
   1   4  15    6.98    6.87
   1   4  15    8.52    5.39
  -1  -4 -15    6.04    5.78
   2   4  15  175.84   16.02
   2   4  15  183.62   17.70
  -3  -4 -15   -0.74    4.92
   3   4  15    0.07    4.62
   3   4  15   -2.12    5.62
  -4  -4 -15  141.22   14.06
   4   4  15   78.29   12.64
   4   4  15  116.19   14.95
   5   4  15   -5.46    4.32
  -5  -4 -15   -0.43    5.54
   5   4  15   -1.73    5.45
   1  -5 -15   -1.10    5.82
  -1   5  15    6.21    4.90
  -1   5  15   -8.44    5.75
   0  -5 -15   -0.01    5.91
   0   5  15    5.28    7.03
   1   5  15  136.13   15.41
   1   5  15   96.03   12.48
  -1  -5 -15  107.89   13.31
   2   5  15   68.92   11.54
   2   5  15   98.92   13.64
   3   5  15   45.55    9.62
   3   5  15   53.89   10.84
  -4  -5 -15    1.11    5.92
   4   5  15    7.65    6.55
   4   5  15    2.75    5.68
   5   5  15   43.11    9.96
   5   5  15   57.20   11.88
  -5  -5 -15   57.06   10.67
  -1  -6 -15  265.93   21.67
   1   6  15  290.20   22.89
   2   6  15   12.42    7.50
   2   6  15   13.34    6.93
   3   6  15   18.97    7.55
   3   6  15    7.66    6.17
   4   6  15    7.01    6.82
   4   6  15   23.93    7.91
   1   1 -16    2.55    5.47
  -1  -1  16    4.92    7.18
   0  -1  16  320.39   25.80
   0   1 -16  354.40   24.45
  -1   1 -16    5.76    5.40
   1  -1  16   12.50    7.72
   2  -1  16   22.02    8.53
  -2   1 -16    9.98    5.90
   2   0 -16   76.45   12.69
  -2   0  16   72.72   14.09
  -1   0  16  245.25   22.55
   1   0 -16  292.60   21.66
   0   0 -16   77.61   11.23
  -1   0 -16    9.83    5.33
   1   0  16    1.93    6.80
   2   0  16   17.80    8.18
  -2   0 -16   29.26    7.52
   3   0  16  330.03   25.82
  -3   0 -16  309.20   21.37
   2  -1 -16   77.68   13.12
  -2   1  16   77.62   13.83
   1  -1 -16  287.61   22.00
  -1   1  16  272.25   23.46
   0   1  16   -4.47    5.65
   0  -1 -16    2.68    4.99
  -1  -1 -16    5.21    5.00
   1   1  16    0.09    5.97
   2   1  16  384.62   28.40
   3   1  16   33.56    9.86
  -3  -1 -16   48.27    8.87
   4   1  16   27.21    8.88
  -4  -1 -16   42.03    8.83
   2  -2 -16  128.15   15.90
  -1   2  16    5.35    7.21
   1  -2 -16    9.99    6.33
   0   2  16   77.30   13.77
   0  -2 -16   72.13   11.40
   1   2  16   27.83    9.48
  -1  -2 -16   27.24    7.64
   2   2  16  138.75   16.96
  -3  -2 -16   12.09    5.83
   3   2  16    4.85    7.01
  -4  -2 -16    0.23    4.91
   4   2  16    5.61    7.09
  -1   3  16  126.78   16.75
   1  -3 -16  101.94   14.21
   0   3  16   -1.00    6.46
   0  -3 -16    4.11    5.38
   1   3  16  379.43   28.16
   1   3  16  399.74   25.08
  -1  -3 -16  383.11   25.64
   2   3  16    4.78    6.83
   2   3  16    1.10    4.85
   3   3  16    2.80    5.02
   3   3  16    4.23    6.71
   4   3  16   60.21   11.05
  -4  -3 -16   61.23   10.66
   4   3  16   49.41   11.02
   0   4  16   96.77   14.42
   0  -4 -16   86.91   13.09
   1   4  16   48.95   11.00
  -1  -4 -16   50.00   10.32
   2   4  16    1.28    6.45
   2   4  16    1.05    4.71
   3   4  16   11.07    6.24
   3   4  16   12.81    7.70
  -4  -4 -16  197.68   16.57
   4   4  16  197.48   18.42
   4   4  16  188.51   18.83
  -1  -5 -16   31.89    9.06
   1   5  16   25.00    9.31
   2   5  16   34.71    9.84
   2   5  16   28.19    8.23
   3   5  16  139.62   16.76
   3   5  16  137.99   16.48
  -1  -1 -17   73.17   10.84
   1   1  17   56.85   12.64
   2   1  17   62.34   12.89
   0   2  17    4.07    7.84
   0  -2 -17   10.35    6.53
   1   2  17    2.61    7.02
  -1  -2 -17    6.45    5.38
   1   3  17   96.28   15.30
  -1  -3 -17  142.17   14.89
   2   3  17   73.40   13.97
   0   0   0    0.00    0.00
;
_shelx_hkl_checksum              67029
loop_
_space_group_symop_operation_xyz
'x, y, z'
'-x, -y, -z'
loop_
_atom_site_label
_atom_site_type_symbol
_atom_site_fract_x
_atom_site_fract_y
_atom_site_fract_z
_atom_site_U_iso_or_equiv
_atom_site_adp_type
_atom_site_occupancy
_atom_site_site_symmetry_order
_atom_site_calc_flag
_atom_site_refinement_flags_posn
_atom_site_refinement_flags_adp
_atom_site_refinement_flags_occupancy
_atom_site_disorder_assembly
_atom_site_disorder_group
Ag1 Ag 0.09930(3) 0.23174(3) 0.20130(2) 0.03709(7) Uani 1 1 d . . . . .
Ag2 Ag 0.32916(3) 0.44213(3) -0.03688(2) 0.03027(7) Uani 1 1 d . . . . .
O1 O 1.1723(2) -0.4234(3) 0.12048(15) 0.0347(4) Uani 1 1 d . . . . .
O2 O 0.9497(3) -0.2654(3) 0.00794(14) 0.0334(4) Uani 1 1 d . . . . .
O3 O -0.7268(4) 0.1399(4) 0.39957(19) 0.0694(9) Uani 1 1 d . . . . .
O4 O -0.8139(4) 0.1899(4) 0.56633(18) 0.0605(7) Uani 1 1 d . . . . .
N1 N 0.4035(3) 0.0998(3) 0.15747(17) 0.0316(5) Uani 1 1 d . . . . .
N2 N 0.4956(3) 0.1741(3) 0.06562(16) 0.0256(4) Uani 1 1 d . . . . .
N3 N 0.7136(3) -0.0566(3) 0.15346(16) 0.0244(4) Uani 1 1 d . . . . .
N4 N -0.2024(3) 0.3106(3) 0.26272(17) 0.0301(5) Uani 1 1 d . . . . .
N5 N -0.3541(3) 0.4323(3) 0.20679(16) 0.0269(4) Uani 1 1 d . . . . .
N6 N -0.4673(3) 0.3530(3) 0.36978(16) 0.0249(4) Uani 1 1 d . . . . .
C1 C 0.5370(4) -0.0375(4) 0.2084(2) 0.0353(6) Uani 1 1 d . . . . .
H1 H 0.5136 -0.1115 0.2732 0.042 Uiso 1 1 calc R U . . .
C2 C 0.6796(3) 0.0770(3) 0.0658(2) 0.0267(5) Uani 1 1 d . . . . .
H2 H 0.7751 0.0975 0.0122 0.032 Uiso 1 1 calc R U . . .
C3 C 0.9008(3) -0.1928(4) 0.1837(2) 0.0289(6) Uani 1 1 d . . . . .
H3A H 0.8770 -0.2834 0.2457 0.035 Uiso 1 1 calc R U . . .
H3B H 0.9799 -0.1234 0.2030 0.035 Uiso 1 1 calc R U . . .
C4 C 1.0144(3) -0.3035(3) 0.09508(19) 0.0229(5) Uani 1 1 d . . . . .
C5 C -0.2745(4) 0.2657(4) 0.3595(2) 0.0339(6) Uani 1 1 d . . . . .
H5 H -0.2026 0.1846 0.4138 0.041 Uiso 1 1 calc R U . . .
C6 C -0.5111(3) 0.4543(4) 0.2734(2) 0.0299(6) Uani 1 1 d . . . . .
H6 H -0.6355 0.5294 0.2564 0.036 Uiso 1 1 calc R U . . .
C7 C -0.5998(4) 0.3445(4) 0.4675(2) 0.0305(6) Uani 1 1 d . . . . .
H7A H -0.6857 0.4729 0.4718 0.037 Uiso 1 1 calc R U . . .
H7B H -0.5224 0.3046 0.5278 0.037 Uiso 1 1 calc R U . . .
C8 C -0.7243(4) 0.2115(4) 0.4771(2) 0.0351(6) Uani 1 1 d . . . . .
O1W O 0.1898(3) 0.8219(3) 0.37772(19) 0.0541(6) Uani 1 1 d . . . . .
H1W H 0.0842 0.7964 0.4031 0.081 Uiso 1 1 d R U . . .
H2W H 0.1849 0.9289 0.3932 0.081 Uiso 1 1 d R U . . .
loop_
_atom_site_aniso_label
_atom_site_aniso_U_11
_atom_site_aniso_U_22
_atom_site_aniso_U_33
_atom_site_aniso_U_23
_atom_site_aniso_U_13
_atom_site_aniso_U_12
Ag1 0.01939(11) 0.04445(14) 0.03575(13) -0.00206(10) 0.00544(9) 0.00047(8)
Ag2 0.03318(12) 0.03109(12) 0.02154(11) 0.00228(8) -0.00364(8) -0.00613(8)
O1 0.0228(9) 0.0373(11) 0.0347(11) -0.0091(8) -0.0052(8) 0.0071(8)
O2 0.0313(10) 0.0414(11) 0.0253(10) -0.0109(8) -0.0048(8) -0.0034(8)
O3 0.092(2) 0.101(2) 0.0493(15) -0.0332(15) 0.0187(14) -0.0742(18)
O4 0.0664(16) 0.0880(19) 0.0410(14) -0.0134(13) 0.0224(12) -0.0528(14)
N1 0.0232(10) 0.0361(12) 0.0231(11) 0.0034(9) 0.0038(9) 0.0008(9)
N2 0.0257(10) 0.0231(10) 0.0221(11) -0.0001(8) 0.0019(8) -0.0030(8)
N3 0.0188(10) 0.0270(11) 0.0219(11) -0.0060(8) -0.0031(8) 0.0025(8)
N4 0.0214(10) 0.0357(12) 0.0238(11) 0.0016(9) -0.0006(9) -0.0002(9)
N5 0.0213(10) 0.0337(12) 0.0203(11) 0.0012(9) -0.0017(8) -0.0041(9)
N6 0.0240(10) 0.0303(11) 0.0204(11) -0.0044(8) 0.0036(8) -0.0106(8)
C1 0.0276(13) 0.0396(15) 0.0216(13) 0.0049(11) 0.0056(11) 0.0045(11)
C2 0.0221(12) 0.0243(12) 0.0287(13) -0.0001(10) 0.0038(10) -0.0053(10)
C3 0.0205(12) 0.0353(14) 0.0236(13) -0.0073(11) -0.0077(10) 0.0057(10)
C4 0.0204(11) 0.0220(12) 0.0248(13) -0.0032(10) -0.0011(10) -0.0050(9)
C5 0.0278(13) 0.0407(16) 0.0226(14) 0.0037(11) -0.0015(11) -0.0013(11)
C6 0.0179(12) 0.0425(16) 0.0255(14) -0.0028(11) -0.0009(10) -0.0061(10)
C7 0.0333(14) 0.0399(15) 0.0223(13) -0.0089(11) 0.0075(11) -0.0186(12)
C8 0.0335(14) 0.0426(16) 0.0326(16) -0.0072(12) 0.0042(12) -0.0189(12)
O1W 0.0430(12) 0.0523(14) 0.0701(17) -0.0175(12) 0.0022(11) -0.0172(11)
loop_
_atom_type_symbol
_atom_type_description
_atom_type_scat_dispersion_real
_atom_type_scat_dispersion_imag
_atom_type_scat_source
C C 0.0033 0.0016 'International Tables Vol C Tables 4.2.6.8 and 6.1.1.4'
H H 0.0000 0.0000 'International Tables Vol C Tables 4.2.6.8 and 6.1.1.4'
N N 0.0061 0.0033 'International Tables Vol C Tables 4.2.6.8 and 6.1.1.4'
O O 0.0106 0.0060 'International Tables Vol C Tables 4.2.6.8 and 6.1.1.4'
Ag Ag -0.8971 1.1015 'International Tables Vol C Tables 4.2.6.8 and 6.1.1.4'
loop_
_geom_angle_atom_site_label_1
_geom_angle_atom_site_label_2
_geom_angle_atom_site_label_3
_geom_angle
_geom_angle_site_symmetry_1
_geom_angle_site_symmetry_3
_geom_angle_publ_flag
N4 Ag1 N1 169.04(9) . . ?
N4 Ag1 O1 104.33(7) . 1_465 ?
N1 Ag1 O1 86.27(7) . 1_465 ?
N4 Ag1 O3 98.41(7) . 1_655 ?
N1 Ag1 O3 76.66(8) . 1_655 ?
O1 Ag1 O3 99.93(6) 1_465 1_655 ?
N5 Ag2 N2 135.16(7) 2_565 . ?
N5 Ag2 O1 132.99(7) 2_565 1_465 ?
N2 Ag2 O1 89.98(7) . 1_465 ?
N5 Ag2 O2 107.33(7) 2_565 2_655 ?
N2 Ag2 O2 84.09(7) . 2_655 ?
O1 Ag2 O2 86.16(6) 1_465 2_655 ?
N5 Ag2 Ag2 98.45(5) 2_565 2_665 ?
N2 Ag2 Ag2 75.54(5) . 2_665 ?
O1 Ag2 Ag2 78.10(4) 1_465 2_665 ?
O2 Ag2 Ag2 154.08(4) 2_655 2_665 ?
C4 O1 Ag2 106.53(16) . 1_645 ?
C1 N1 N2 107.2(2) . . ?
C1 N1 Ag1 131.81(18) . . ?
N2 N1 Ag1 120.62(15) . . ?
C2 N2 N1 106.5(2) . . ?
C2 N2 Ag2 133.22(17) . . ?
N1 N2 Ag2 119.62(14) . . ?
C2 N3 C1 104.7(2) . . ?
C2 N3 C3 127.9(2) . . ?
C1 N3 C3 127.4(2) . . ?
C5 N4 N5 107.33(19) . . ?
C5 N4 Ag1 127.44(17) . . ?
N5 N4 Ag1 125.05(15) . . ?
C6 N5 N4 106.5(2) . . ?
C6 N5 Ag2 128.10(17) . 2_565 ?
N4 N5 Ag2 125.35(15) . 2_565 ?
C5 N6 C6 105.4(2) . . ?
C5 N6 C7 126.9(2) . . ?
C6 N6 C7 127.7(2) . . ?
N1 C1 N3 110.4(2) . . ?
N1 C1 H1 124.8 . . ?
N3 C1 H1 124.8 . . ?
N2 C2 N3 111.2(2) . . ?
N2 C2 H2 124.4 . . ?
N3 C2 H2 124.4 . . ?
N3 C3 C4 113.1(2) . . ?
N3 C3 H3A 109.0 . . ?
C4 C3 H3A 109.0 . . ?
N3 C3 H3B 109.0 . . ?
C4 C3 H3B 109.0 . . ?
H3A C3 H3B 107.8 . . ?
O2 C4 O1 126.6(2) . . ?
O2 C4 C3 119.6(2) . . ?
O1 C4 C3 113.8(2) . . ?
N4 C5 N6 110.3(2) . . ?
N4 C5 H5 124.8 . . ?
N6 C5 H5 124.8 . . ?
N5 C6 N6 110.4(2) . . ?
N5 C6 H6 124.8 . . ?
N6 C6 H6 124.8 . . ?
N6 C7 C8 115.6(2) . . ?
N6 C7 H7A 108.4 . . ?
C8 C7 H7A 108.4 . . ?
N6 C7 H7B 108.4 . . ?
C8 C7 H7B 108.4 . . ?
H7A C7 H7B 107.4 . . ?
O3 C8 O4 128.1(3) . . ?
O3 C8 C7 118.8(2) . . ?
O4 C8 C7 113.1(2) . . ?
H1W O1W H2W 108.4 . . ?
loop_
_geom_bond_atom_site_label_1
_geom_bond_atom_site_label_2
_geom_bond_distance
_geom_bond_site_symmetry_2
_geom_bond_publ_flag
Ag1 N4 2.150(2) . ?
Ag1 N1 2.154(2) . ?
Ag1 O1 2.754(2) 1_465 ?
Ag1 O3 2.884(3) 1_655 ?
Ag2 N5 2.209(2) 2_565 ?
Ag2 N2 2.253(2) . ?
Ag2 O1 2.4191(18) 1_465 ?
Ag2 O2 2.6877(19) 2_655 ?
Ag2 Ag2 3.1897(4) 2_665 ?
O1 C4 1.250(3) . ?
O2 C4 1.229(3) . ?
O3 C8 1.231(3) . ?
O4 C8 1.243(3) . ?
N1 C1 1.306(3) . ?
N1 N2 1.376(3) . ?
N2 C2 1.301(3) . ?
N3 C2 1.343(3) . ?
N3 C1 1.349(3) . ?
N3 C3 1.466(3) . ?
N4 C5 1.302(3) . ?
N4 N5 1.376(3) . ?
N5 C6 1.309(3) . ?
N6 C5 1.342(3) . ?
N6 C6 1.343(3) . ?
N6 C7 1.472(3) . ?
C1 H1 0.9300 . ?
C2 H2 0.9300 . ?
C3 C4 1.531(3) . ?
C3 H3A 0.9700 . ?
C3 H3B 0.9700 . ?
C5 H5 0.9300 . ?
C6 H6 0.9300 . ?
C7 C8 1.515(4) . ?
C7 H7A 0.9700 . ?
C7 H7B 0.9700 . ?
O1W H1W 0.8500 . ?
O1W H2W 0.8500 . ?
loop_
_geom_hbond_atom_site_label_D
_geom_hbond_atom_site_label_H
_geom_hbond_atom_site_label_A
_geom_hbond_distance_DH
_geom_hbond_distance_HA
_geom_hbond_distance_DA
_geom_hbond_angle_DHA
_geom_hbond_site_symmetry_A
_geom_hbond_publ_flag
O1W H1W O4 0.85 1.92 2.739(3) 163 2_466 yes
O1W H2W O3 0.85 1.90 2.700(3) 157 1_665 yes
C1 H1 O3 0.93 2.75 3.136(3) 106 1_655 yes
C1 H1 O1W 0.93 2.67 3.366(3) 133 1_545 yes
C2 H2 O1 0.93 2.77 3.475(3) 133 2_755 yes
C2 H2 O2 0.93 2.63 3.345(3) 134 2_755 yes
C3 H3A O4 0.97 2.60 3.200(3) 120 2_556 yes
C3 H3B O1W 0.97 2.80 3.535(3) 133 1_645 yes
C5 H5 O1W 0.93 2.70 3.434(4) 136 2_566 yes
C5 H5 O4 0.93 2.72 3.216(4) 115 2_456 yes
C6 H6 O1W 0.93 2.80 3.302(3) 115 1_455 yes
C6 H6 O1 0.93 2.30 3.048(3) 137 1_365 yes
C7 H7A O1W 0.97 2.57 3.427(4) 147 1_455 yes
C7 H7B O1W 0.97 2.68 3.577(4) 155 2_566 yes
loop_
_geom_torsion_atom_site_label_1
_geom_torsion_atom_site_label_2
_geom_torsion_atom_site_label_3
_geom_torsion_atom_site_label_4
_geom_torsion
_geom_torsion_site_symmetry_1
_geom_torsion_site_symmetry_2
_geom_torsion_site_symmetry_3
_geom_torsion_site_symmetry_4
_geom_torsion_publ_flag
C1 N1 N2 C2 0.3(3) . . . . ?
Ag1 N1 N2 C2 173.99(17) . . . . ?
C1 N1 N2 Ag2 -171.60(18) . . . . ?
Ag1 N1 N2 Ag2 2.1(3) . . . . ?
C5 N4 N5 C6 -0.1(3) . . . . ?
Ag1 N4 N5 C6 -175.63(18) . . . . ?
C5 N4 N5 Ag2 -179.20(18) . . . 2_565 ?
Ag1 N4 N5 Ag2 5.3(3) . . . 2_565 ?
N2 N1 C1 N3 -0.1(3) . . . . ?
Ag1 N1 C1 N3 -172.79(18) . . . . ?
C2 N3 C1 N1 -0.2(3) . . . . ?
C3 N3 C1 N1 179.5(2) . . . . ?
N1 N2 C2 N3 -0.4(3) . . . . ?
Ag2 N2 C2 N3 169.92(16) . . . . ?
C1 N3 C2 N2 0.4(3) . . . . ?
C3 N3 C2 N2 -179.3(2) . . . . ?
C2 N3 C3 C4 -50.4(3) . . . . ?
C1 N3 C3 C4 130.0(3) . . . . ?
Ag2 O1 C4 O2 1.7(3) 1_645 . . . ?
Ag2 O1 C4 C3 -175.94(17) 1_645 . . . ?
N3 C3 C4 O2 3.7(4) . . . . ?
N3 C3 C4 O1 -178.4(2) . . . . ?
N5 N4 C5 N6 -0.2(3) . . . . ?
Ag1 N4 C5 N6 175.25(17) . . . . ?
C6 N6 C5 N4 0.3(3) . . . . ?
C7 N6 C5 N4 -177.6(2) . . . . ?
N4 N5 C6 N6 0.3(3) . . . . ?
Ag2 N5 C6 N6 179.37(16) 2_565 . . . ?
C5 N6 C6 N5 -0.4(3) . . . . ?
C7 N6 C6 N5 177.5(2) . . . . ?
C5 N6 C7 C8 -101.9(3) . . . . ?
C6 N6 C7 C8 80.6(3) . . . . ?
N6 C7 C8 O3 -9.2(4) . . . . ?
N6 C7 C8 O4 171.0(3) . . . . ?
