#------------------------------------------------------------------------------
#$Date: 2022-05-05 23:29:49 +0300 (Thu, 05 May 2022) $
#$Revision: 274971 $
#$URL: file:///home/coder/svn-repositories/cod/cif/7/24/44/7244421.cif $
#------------------------------------------------------------------------------
#
# This file is available in the Crystallography Open Database (COD),
# http://www.crystallography.net/
#
# All data on this site have been placed in the public domain by the
# contributors.
#
data_7244421
loop_
_publ_author_name
'Arakawa, Yuki'
'Ishida, Yuko'
'Shiba, Takuma'
'Igawa, Kazunobu'
'Sasaki, Shunsuke'
'Tsuji, Hideto'
_publ_section_title
;
 Effects of alkylthio groups on phase transitions of organic molecules and
 liquid crystals: a comparative study with alkyl and alkoxy groups
;
_journal_issue                   10
_journal_name_full               CrystEngComm
_journal_page_first              1877
_journal_page_last               1890
_journal_paper_doi               10.1039/D1CE01470F
_journal_volume                  24
_journal_year                    2022
_chemical_formula_moiety         'C15 H11 N O2 S'
_chemical_formula_sum            'C15 H11 N O2 S'
_chemical_formula_weight         269.32
_chemical_name_systematic        '4-cyanophenyl 4-(methylthio)benzoate'
_space_group_crystal_system      triclinic
_space_group_IT_number           2
_space_group_name_Hall           '-P 1'
_space_group_name_H-M_alt        'P -1'
_atom_sites_solution_hydrogens   geom
_atom_sites_solution_primary     direct
_atom_sites_solution_secondary   difmap
_audit_update_record
;
2021-04-24 deposited with the CCDC.	2022-01-28 downloaded from the CCDC.
;
_cell_angle_alpha                106.416(14)
_cell_angle_beta                 91.946(13)
_cell_angle_gamma                91.011(10)
_cell_formula_units_Z            2
_cell_length_a                   6.728(3)
_cell_length_b                   9.172(5)
_cell_length_c                   10.765(6)
_cell_measurement_reflns_used    2808
_cell_measurement_temperature    123
_cell_measurement_theta_max      30.36
_cell_measurement_theta_min      1.97
_cell_volume                     636.6(6)
_computing_cell_refinement       CrystalClear
_computing_data_collection       'CrystalClear (Rigaku Inc., 2008)'
_computing_data_reduction        CrystalClear
_computing_molecular_graphics    'CrystalStructure 4.3'
_computing_publication_material  'CrystalStructure 4.3 (Rigaku, 2018)'
_computing_structure_refinement  'SHELXL Version 2018/3 (Sheldrick, 2008)'
_computing_structure_solution    'SIR92 (Altomare, et al., 1994)'
_diffrn_ambient_temperature      123
_diffrn_detector_area_resol_mean 14.222
_diffrn_measured_fraction_theta_full 0.996
_diffrn_measured_fraction_theta_max 0.990
_diffrn_measurement_device_type  'Rigaku Saturn724'
_diffrn_measurement_method       \w
_diffrn_radiation_type           'Mo K\a'
_diffrn_radiation_wavelength     0.71075
_diffrn_reflns_av_R_equivalents  0.0466
_diffrn_reflns_av_unetI/netI     0.0363
_diffrn_reflns_Laue_measured_fraction_full 0.996
_diffrn_reflns_Laue_measured_fraction_max 0.990
_diffrn_reflns_limit_h_max       8
_diffrn_reflns_limit_h_min       -8
_diffrn_reflns_limit_k_max       11
_diffrn_reflns_limit_k_min       -11
_diffrn_reflns_limit_l_max       13
_diffrn_reflns_limit_l_min       -13
_diffrn_reflns_number            10603
_diffrn_reflns_point_group_measured_fraction_full 0.996
_diffrn_reflns_point_group_measured_fraction_max 0.990
_diffrn_reflns_theta_full        25.242
_diffrn_reflns_theta_max         27.444
_diffrn_reflns_theta_min         3.031
_diffrn_standards_number         0
_exptl_absorpt_coefficient_mu    0.250
_exptl_absorpt_correction_T_max  0.988
_exptl_absorpt_correction_T_min  0.881
_exptl_absorpt_correction_type   multi-scan
_exptl_absorpt_process_details   'REQAB (Rigaku, 1998)'
_exptl_crystal_colour            colorless
_exptl_crystal_density_diffrn    1.405
_exptl_crystal_density_method    'not measured'
_exptl_crystal_description       block
_exptl_crystal_F_000             280.00
_exptl_crystal_size_max          0.150
_exptl_crystal_size_mid          0.150
_exptl_crystal_size_min          0.050
_refine_diff_density_max         0.39
_refine_diff_density_min         -0.72
_refine_ls_extinction_method     none
_refine_ls_goodness_of_fit_ref   1.202
_refine_ls_hydrogen_treatment    constr
_refine_ls_number_parameters     173
_refine_ls_number_reflns         2874
_refine_ls_number_restraints     0
_refine_ls_R_factor_all          0.0551
_refine_ls_R_factor_gt           0.0515
_refine_ls_shift/su_max          0.000
_refine_ls_structure_factor_coef Fsqd
_refine_ls_weighting_details
'w = 1/[\s^2^(Fo^2^)+(0.0631P)^2^+0.2220P] where P=(Fo^2^+2Fc^2^)/3'
_refine_ls_weighting_scheme      calc
_refine_ls_wR_factor_gt          0.1247
_refine_ls_wR_factor_ref         0.1275
_reflns_Friedel_coverage         0.000
_reflns_number_gt                2705
_reflns_number_total             2874
_reflns_threshold_expression     F^2^>2.0\s(F^2^)
_cod_data_source_file            d1ce01470f2.cif
_cod_data_source_block           arakawa-YI3-1(2nd)-FRE
_cod_depositor_comments
'Adding full bibliography for 7244421--7244423.cif.'
_cod_database_code               7244421
_shelx_res_file
;
TITL arakawa-YI3-1(2nd)-FRE
    shelxl.res
    created by SHELXL-2018/3 at 21:49:12 on 11-Oct-2018
CELL  0.71075 6.72760 9.17250 10.76470 106.41590 91.94600 91.01080
ZERR  2 0.00300 0.00520 0.00590 0.01440 0.01320 0.01030
LATT 1
SFAC C H N O S
UNIT 30 22 2 4 2
L.S. 10
FMAP 2
PLAN 25
WPDB -2
HTAB
BOND $H
CONF
LIST 4
TEMP -149.8
ACTA
SIZE 0.050 0.150 0.150
WGHT    0.063100    0.222000
FVAR       3.19850
S1    5   -0.250715    0.177102    0.307376    11.00000    0.01824    0.02651 =
         0.02612    0.00801    0.00716   -0.00238
O1    4    0.596286    0.454696    0.116597    11.00000    0.02091    0.02324 =
         0.02718    0.00390    0.00688   -0.00329
O2    4    0.540851    0.223612   -0.031070    11.00000    0.01792    0.02409 =
         0.02084    0.00383    0.00734   -0.00244
N1    3    1.256581    0.216910   -0.456331    11.00000    0.02889    0.04341 =
         0.02982    0.00945    0.01008   -0.00350
C1    1   -0.337086    0.352301    0.412058    11.00000    0.02014    0.03235 =
         0.02268    0.00342    0.00816    0.00093
AFIX 137
H1A   2   -0.352733    0.426732    0.362885    11.00000   -1.20000
H1B   2   -0.240058    0.391978    0.484295    11.00000   -1.20000
H1C   2   -0.465461    0.333524    0.445956    11.00000   -1.20000
AFIX   0
C2    1   -0.027221    0.230763    0.250031    11.00000    0.01397    0.02509 =
         0.01825    0.00957    0.00173    0.00096
C3    1    0.054600    0.378273    0.285242    11.00000    0.01819    0.02170 =
         0.01749    0.00387    0.00262    0.00143
AFIX  43
H3    2   -0.008745    0.457227    0.346651    11.00000   -1.20000
AFIX   0
C4    1    0.228955    0.409931    0.230508    11.00000    0.01651    0.02011 =
         0.01957    0.00518    0.00112   -0.00145
AFIX  43
H4    2    0.285282    0.510182    0.255894    11.00000   -1.20000
AFIX   0
C5    1    0.321621    0.295255    0.138507    11.00000    0.01416    0.02159 =
         0.01755    0.00723    0.00143    0.00049
C6    1    0.240773    0.146743    0.104263    11.00000    0.01739    0.01968 =
         0.02208    0.00621    0.00312    0.00156
AFIX  43
H6    2    0.303787    0.067843    0.042600    11.00000   -1.20000
AFIX   0
C7    1    0.069253    0.114975    0.160206    11.00000    0.01904    0.01898 =
         0.02291    0.00820    0.00191   -0.00052
AFIX  43
H7    2    0.016224    0.013801    0.137614    11.00000   -1.20000
AFIX   0
C8    1    0.501154    0.337019    0.078649    11.00000    0.01602    0.02153 =
         0.01817    0.00627    0.00243    0.00223
C9    1    0.694201    0.235878   -0.112236    11.00000    0.01662    0.01922 =
         0.02013    0.00759    0.00626    0.00220
C10   1    0.880408    0.301624   -0.068028    11.00000    0.01858    0.02013 =
         0.01860    0.00501    0.00128    0.00082
AFIX  43
H10   2    0.907973    0.349237    0.021581    11.00000   -1.20000
AFIX   0
C11   1    1.025591    0.296036   -0.158218    11.00000    0.01523    0.02116 =
         0.02352    0.00851    0.00185    0.00013
AFIX  43
H11   2    1.153753    0.340831   -0.130354    11.00000   -1.20000
AFIX   0
C12   1    0.983286    0.224546   -0.289972    11.00000    0.01960    0.02101 =
         0.02214    0.00835    0.00532    0.00249
C13   1    0.794964    0.158458   -0.332664    11.00000    0.02211    0.02355 =
         0.01834    0.00484    0.00218    0.00058
AFIX  43
H13   2    0.767023    0.109754   -0.422048    11.00000   -1.20000
AFIX   0
C14   1    0.649672    0.164832   -0.243131    11.00000    0.01670    0.02241 =
         0.02246    0.00546    0.00108   -0.00074
AFIX  43
H14   2    0.520864    0.121176   -0.270702    11.00000   -1.20000
AFIX   0
C15   1    1.135422    0.219726   -0.382628    11.00000    0.02357    0.02687 =
         0.02392    0.00723    0.00445    0.00066
HKLF 4




REM  arakawa-YI3-1(2nd)-FRE
REM wR2 = 0.1275, GooF = S = 1.202, Restrained GooF = 1.202 for all data
REM R1 = 0.0515 for 2705 Fo > 4sig(Fo) and 0.0551 for all 2874 data
REM 173 parameters refined using 0 restraints

END

WGHT      0.0627      0.2243

REM Instructions for potential hydrogen bonds
EQIV $1 x-2, y, z+1
HTAB C1 N1_$1

REM Highest difference peak  0.395,  deepest hole -0.722,  1-sigma level  0.184
Q1    1  -0.6232  0.3293  0.3375  11.00000  0.05    0.39
Q2    1  -0.4383  0.3585  0.2619  11.00000  0.05    0.37
Q3    1   0.8682  0.4043  0.1782  11.00000  0.05    0.36
Q4    1   0.5507  0.0465 -0.4578  11.00000  0.05    0.36
Q5    1   0.1185  0.1317  0.3576  11.00000  0.05    0.36
Q6    1   0.8435  0.3344  0.1249  11.00000  0.05    0.36
Q7    1   0.3563  0.1932  0.2907  11.00000  0.05    0.36
Q8    1   1.1488  0.3892  0.0367  11.00000  0.05    0.35
Q9    1   0.8113  0.2220  0.0892  11.00000  0.05    0.34
Q10   1   0.9743  0.3125  0.0640  11.00000  0.05    0.34
Q11   1   0.8745  0.4709  0.1655  11.00000  0.05    0.34
Q12   1   0.4569  0.0876  0.2224  11.00000  0.05    0.34
Q13   1  -0.2629  0.1359  0.1165  11.00000  0.05    0.34
Q14   1  -0.0033  0.1474  0.4144  11.00000  0.05    0.34
Q15   1  -0.3701  0.1396  0.1239  11.00000  0.05    0.34
Q16   1  -0.5340  0.1707  0.2455  11.00000  0.05    0.33
Q17   1   1.0189  0.4232  0.1000  11.00000  0.05    0.33
Q18   1  -0.3605  0.3204  0.2227  11.00000  0.05    0.33
Q19   1  -0.0937 -0.0932  0.0183  11.00000  0.05    0.33
Q20   1  -0.2028  0.5647  0.5374  11.00000  0.05    0.33
Q21   1   0.8956  0.0691 -0.5566  11.00000  0.05    0.33
Q22   1  -0.3414  0.5451  0.5957  11.00000  0.05    0.33
Q23   1  -0.3748  0.1734  0.1994  11.00000  0.05    0.32
Q24   1   0.2726  0.4402  0.0392  11.00000  0.05    0.32
Q25   1   0.9036  0.1593  0.0069  11.00000  0.05    0.32
;
_shelx_res_checksum              94629
_shelx_hkl_file
;
   0   0   2 9557.68  151.73
   0   0   210752.61  170.14
   0   0   2 9680.96  154.19
   0   0   3 1153.52   24.56
   0   0   3 1131.49   23.27
   0   0   3 1281.60   28.24
   0   0   3 1237.86   30.91
   0   0  -3 1134.29   23.39
   0   0  -3 1148.92   25.21
   0   0  -3 1241.60   30.05
   0   0  -3 1143.04   26.26
   0   0   4 2027.87   43.30
   0   0   4 2089.48   39.65
   0   0   4 2011.95   40.79
   0   0   4 2098.65   42.12
   0   0  -4 1918.42   36.46
   0   0  -4 2084.73   40.21
   0   0  -4 2119.11   43.13
   0   0  -4 2077.29   40.22
   0   0   515929.66  152.71
   0   0   516005.51  151.31
   0   0   516091.02  158.00
   0   0  -515810.38  150.29
   0   0  -516011.81  152.12
   0   0  -516173.00  156.47
   0   0   6  806.71   43.42
   0   0   6  839.24   26.72
   0   0   6  913.63   31.63
   0   0   6  905.21   33.53
   0   0  -6  854.28   26.94
   0   0  -6  861.34   28.64
   0   0  -6  825.40   30.99
   0   0  -6  809.15   42.38
   0   0   7 3843.68   97.48
   0   0   7 3669.76   90.79
   0   0  -7 3894.99   98.09
   0   0  -7 3875.65   95.77
   0   0   8   20.70    6.35
   0   0   8   14.98   12.25
   0   0  -8   42.16   10.43
   0   0  -8   44.75   18.33
   0   0   9   83.07   13.14
   0   0   9   56.83    9.72
   0   0   9  101.04   16.75
   0   0  -9   77.90   20.93
   0   0  10  140.10   28.18
   0   0  10   73.41   16.36
   0   0  10  128.80   29.25
   0   0 -10  117.84   28.60
   0   0  11  897.41   62.87
   0   0  11  719.28   60.28
   0   0 -11  765.13   63.96
   0   0 -11  689.39   63.92
   0   0  12    7.34   13.57
   0   0 -12   50.18   18.19
   0   0 -12  -11.29   14.63
   0   0  13  857.76   70.75
   0   0 -13  820.05   64.83
   0   0 -13  724.38   62.60
   0   1 -13   61.08   20.68
   0   1 -13   62.42   28.79
   0  -1  13   51.12   21.43
   0   1 -12  300.67   36.61
   0  -1  12  333.17   39.86
   0  -1  12  269.03   30.69
   0   1 -11   33.48   17.49
   0   1 -11    9.80   13.88
   0  -1  11   16.09    9.71
   0  -1  11   -2.48   13.88
   0   1 -10  176.72   39.76
   0   1 -10  319.66   41.81
   0  -1  10  231.35   45.45
   0  -1  10  189.72   24.80
   0   1  -9 1705.20   65.81
   0   1  -9 2108.71   75.31
   0  -1   9 2139.82   89.57
   0  -1   9 2154.99   80.11
   0  -1   9 1775.45   62.76
   0   1  -8  315.24   45.45
   0   1  -8  317.28   25.50
   0   1  -8  337.73   30.83
   0  -1   8  285.49   26.49
   0  -1   8  375.44   47.10
   0   1  -7  132.03   11.61
   0   1  -7  155.43   10.05
   0   1  -7  163.23   18.46
   0   1  -7  182.80   20.03
   0  -1   7  144.48   11.17
   0  -1   7  170.98   11.40
   0  -1   7  167.82   14.31
   0  -1   7  112.47    9.85
   0   1  -6  163.27   12.30
   0   1  -6  208.83   12.18
   0   1  -6  261.72   35.55
   0   1  -6  175.60   13.86
   0  -1   6  184.09   12.53
   0  -1   6  198.28   11.17
   0  -1   6  185.85   14.81
   0  -1   6  195.49   13.16
   0   1  -5 1461.68   26.46
   0   1  -5 1477.95   23.41
   0   1  -5 1528.81   30.27
   0   1  -5 1525.02   30.65
   0  -1   5 1548.29   28.64
   0  -1   5 1443.70   23.79
   0  -1   5 1393.99   28.63
   0  -1   5 1523.40   29.56
   0   1  -4 1860.49   36.87
   0   1  -4 1766.59   33.81
   0   1  -4 1969.12   39.75
   0   1  -4 2029.54   40.50
   0  -1   4 1915.26   38.42
   0  -1   4 1824.74   34.35
   0  -1   4 1748.03   35.35
   0  -1   4 2059.85   41.19
   0   1  -3  513.47   15.24
   0   1  -3  550.70   14.37
   0   1  -3  591.84   18.73
   0   1  -3  586.57   16.62
   0  -1   3  570.69   17.05
   0  -1   3  544.16   15.67
   0  -1   3  543.82   18.01
   0  -1   3  611.83   17.59
   0   1  -2  275.77   11.27
   0   1  -2  292.87    8.33
   0   1  -2  283.93   10.49
   0   1  -2  334.10   12.32
   0  -1   2  246.76    7.68
   0  -1   2  319.23   11.80
   0  -1   2  333.39   12.13
   0  -1   2  261.10   10.19
   0   1   1 8808.43  140.68
   0   1   1 8689.62  137.96
   0  -1  -1 8923.87  141.74
   0  -1  -1 9065.74  144.57
   0  -1  -1 7472.89  117.50
   0  -1  -1 7651.10  121.79
   0   1   2 1196.76   21.21
   0   1   2 1302.37   26.29
   0   1   2 1485.83   29.69
   0   1   2 1298.91   28.01
   0  -1  -2 1278.06   28.54
   0  -1  -2 1464.15   30.11
   0  -1  -2 1336.69   28.19
   0   1   312065.73  190.89
   0   1   312656.92  203.48
   0   1   312564.84  202.54
   0   1   311488.63  181.34
   0   1   312778.95  204.32
   0  -1  -312852.48  205.37
   0  -1  -313708.90  219.96
   0  -1  -312551.89  201.86
   0   1   4   16.52    7.52
   0   1   4   10.73    7.01
   0   1   4   18.97    7.06
   0   1   4   23.38    8.56
   0   1   4   40.48   12.93
   0  -1  -4   23.62   12.64
   0  -1  -4    9.46    9.87
   0  -1  -4    6.25    8.12
   0   1   5  527.16   31.82
   0   1   5  529.85   15.96
   0   1   5  547.71   15.83
   0   1   5  467.69   16.21
   0   1   5  535.60   24.12
   0  -1  -5  502.64   16.83
   0  -1  -5  540.08   23.09
   0  -1  -5  493.00   18.50
   0   1   610528.60  259.97
   0   1   6 9821.54  239.28
   0   1   6 9033.76  220.81
   0   1   610294.96  255.85
   0  -1  -6 9800.69  241.35
   0  -1  -6 9940.59  245.29
   0   1   7  924.41   27.65
   0   1   7  765.75   54.30
   0   1   7  864.15   20.64
   0   1   7  830.01   28.21
   0  -1  -7  750.47   54.33
   0  -1  -7  834.64   29.11
   0   1   8  786.24   32.67
   0   1   8  770.48   31.36
   0   1   8  692.03   35.67
   0  -1  -8  890.33   46.26
   0   1   9 1712.66   72.30
   0   1   9 1365.30   58.06
   0   1   9 1902.18   86.86
   0  -1  -9 1711.72   75.33
   0  -1  -9 1698.96   78.31
   0   1  10  182.85   37.19
   0   1  10  118.89   22.67
   0  -1 -10  177.24   34.23
   0  -1 -10  196.39   37.32
   0   1  11   20.84   21.42
   0  -1 -11   45.63   17.42
   0  -1 -11    4.73   14.10
   0   1  12  641.96   50.59
   0  -1 -12  517.13   38.19
   0  -1 -12  488.52  140.11
   0   2 -13  321.91   73.61
   0   2 -13  341.57   57.76
   0  -2  13  183.69   64.96
   0  -2  13  427.44   70.53
   0   2 -12   40.82   12.91
   0   2 -12   45.01   19.27
   0  -2  12   22.82    9.96
   0  -2  12   33.94   20.00
   0   2 -11  183.56   33.07
   0   2 -11  135.72   27.13
   0  -2  11  134.55   35.30
   0  -2  11  220.64   26.85
   0   2 -10   71.86   16.68
   0   2 -10  106.69   19.08
   0  -2  10  113.35   26.05
   0  -2  10   73.97   15.19
   0   2  -9  289.48   39.32
   0   2  -9  182.83   17.76
   0   2  -9  242.21   27.71
   0  -2   9  225.76   24.80
   0  -2   9  247.80   24.28
   0   2  -8 1277.69   34.02
   0   2  -8 1394.79   28.78
   0   2  -8 1436.71   39.61
   0  -2   8 1476.97   35.76
   0  -2   8 1351.51   34.52
   0  -2   8 1423.93   30.47
   0   2  -7  224.04   13.69
   0   2  -7  234.66   10.90
   0   2  -7  262.55   18.61
   0   2  -7  267.25   19.08
   0  -2   7  285.22   17.56
   0  -2   7  278.20   14.01
   0  -2   7  213.39   15.62
   0  -2   7  204.65   13.86
   0   2  -6  657.33   21.20
   0   2  -6  640.35   18.33
   0   2  -6  662.48   26.32
   0   2  -6  659.78   24.01
   0  -2   6  639.95   22.84
   0  -2   6  627.19   19.58
   0  -2   6  618.88   22.84
   0  -2   6  646.38   23.87
   0   2  -5  571.38   17.57
   0   2  -5  536.18   12.43
   0   2  -5  625.16   23.76
   0   2  -5  562.53   18.37
   0  -2   5  595.95   18.04
   0  -2   5  546.68   14.68
   0  -2   5  564.48   21.15
   0  -2   5  611.19   19.72
   0   2  -4  109.66    9.65
   0   2  -4  109.66    7.33
   0   2  -4  106.77   14.75
   0   2  -4  109.85    8.88
   0  -2   4   96.91    9.15
   0  -2   4   94.94    6.85
   0  -2   4  100.00   10.48
   0  -2   4  122.46    8.66
   0   2  -3 7008.59  112.57
   0   2  -3 8056.22  130.13
   0   2  -3 7933.32  132.03
   0  -2   3 6797.78  109.34
   0  -2   3 7147.32  116.96
   0  -2   3 7593.80  125.45
   0  -2   3 7533.81  121.15
   0   2  -2 4878.01   83.52
   0   2  -2 4539.92   73.80
   0   2  -2 4978.50   80.29
   0  -2   2 4212.88   73.36
   0  -2   2 4556.16   74.37
   0  -2   2 4731.48   76.09
   0   2  -1 5531.92   90.90
   0   2  -1 5921.54   95.26
   0   2  -1 6356.02  104.83
   0  -2   1 6059.96   97.78
   0  -2   1 6595.84  108.31
   0  -2   1 6172.21  100.62
   0   2   044697.35  394.52
   0  -2   043001.02  381.54
   0   2   1 2325.72   41.94
   0   2   1 2393.32   41.72
   0   2   1 2172.19   38.25
   0   2   1 2090.83   40.72
   0  -2  -1 2394.74   44.41
   0  -2  -1 2194.78   37.65
   0  -2  -1 2468.76   43.58
   0  -2  -1 2314.32   43.13
   0   2   2 1799.11   31.58
   0   2   2 1856.99   35.85
   0   2   2 1885.09   39.08
   0  -2  -2 1925.63   37.58
   0  -2  -2 1786.48   55.99
   0  -2  -2 1749.63   29.88
   0  -2  -2 2045.67   39.41
   0  -2  -2 1913.94   38.22
   0   2   3 1147.87   16.01
   0   2   3 1297.65   23.95
   0   2   3 1261.13   26.96
   0  -2  -3 1236.05   39.33
   0  -2  -3 1295.50   29.40
   0  -2  -3 1334.25   29.18
   0  -2  -3 1419.51   25.14
   0   2   4 1279.85   31.56
   0   2   4 1163.35   23.98
   0   2   4 1301.92   38.48
   0   2   4 1236.92   30.63
   0  -2  -4 1177.31   54.40
   0  -2  -4 1331.32   34.25
   0  -2  -4 1255.14   32.81
   0  -2  -4 1272.80   32.61
   0   2   5 8749.63  212.89
   0   2   5 8048.22  195.62
   0   2   5 8573.73  214.42
   0  -2  -5 7957.97  197.14
   0  -2  -5 8513.15  210.54
   0  -2  -5 8799.59  218.44
   0   2   6  452.91   15.25
   0   2   6  368.40   17.34
   0   2   6  379.78   20.32
   0   2   6  445.37   14.83
   0  -2  -6  415.45   17.69
   0  -2  -6  464.85   24.11
   0  -2  -6  387.96   18.52
   0   2   7 3564.39   73.11
   0  -2  -7 4379.62   94.30
   0   2   8   67.65    7.80
   0   2   8   47.32    6.15
   0   2   8   71.04   15.23
   0  -2  -8   84.58   16.70
   0  -2  -8   73.56   17.00
   0   2   9 1645.74   90.50
   0   2   9 1397.27   69.37
   0  -2  -9 1576.92   82.26
   0  -2  -9 1399.78   77.34
   0   2  10  151.59   31.26
   0  -2 -10  159.14   31.03
   0  -2 -10  159.62   34.10
   0   2  11   69.01   24.11
   0  -2 -11   39.87   15.31
   0  -2 -11   66.67   24.92
   0   2  12  237.03   45.35
   0  -2 -12  173.77   33.72
   0  -2 -12  161.67   33.58
   0   3 -13   51.56   26.75
   0   3 -13   77.19   24.67
   0  -3  13   97.81   35.12
   0  -3  13  152.26   33.79
   0   3 -12  519.91   79.92
   0   3 -12  503.49   54.09
   0  -3  12  521.01   68.28
   0  -3  12  739.20   73.24
   0   3 -11 1549.21   78.52
   0   3 -11 1748.33   86.72
   0  -3  11 1629.49   77.41
   0  -3  11 1751.29   84.79
   0   3 -10  790.01   81.53
   0   3 -10  921.33   58.04
   0  -3  10  784.34   43.51
   0  -3  10  779.27   46.10
   0   3  -9 1340.39   52.44
   0   3  -9 1327.77   47.97
   0   3  -9 1184.85   49.05
   0  -3   9 1327.36   53.29
   0  -3   9 1299.61   47.91
   0   3  -8  187.01   22.01
   0   3  -8  198.47   16.62
   0   3  -8  213.51   23.36
   0  -3   8  208.08   23.13
   0  -3   8  153.55   15.17
   0   3  -7  259.55   16.55
   0   3  -7  270.83   11.71
   0   3  -7  271.56   20.66
   0  -3   7  299.91   20.20
   0  -3   7  325.12   19.46
   0  -3   7  280.34   13.57
   0  -3   7  271.74   14.92
   0   3  -6 1902.27   53.10
   0   3  -6 1911.85   50.36
   0   3  -6 1914.20   57.29
   0  -3   6 2079.71   60.55
   0  -3   6 1972.15   55.45
   0  -3   6 1920.41   51.39
   0  -3   6 1999.64   54.41
   0   3  -5 7225.29  133.67
   0   3  -5 7071.99  128.73
   0   3  -5 6969.70  132.80
   0  -3   5 6246.59  118.74
   0  -3   5 6987.88  131.40
   0  -3   5 7178.22  131.13
   0   3  -4  251.28   10.21
   0   3  -4  201.11    8.68
   0   3  -4  253.35   19.01
   0  -3   4  225.83   14.96
   0  -3   4  260.05   15.56
   0  -3   4  248.27   10.14
   0  -3   4  221.79   10.01
   0   3  -3  283.34   15.85
   0   3  -3  284.41   10.91
   0   3  -3  283.32   11.12
   0  -3   3  241.42   15.97
   0  -3   3  253.91   10.02
   0  -3   3  286.98    9.49
   0   3  -222681.50  206.42
   0   3  -124883.15  226.14
   0  -3   124757.53  225.67
   0  -3   124973.88  229.34
   0   3   017682.16  165.98
   0   3   016924.01  268.32
   0   3   016608.60  264.89
   0  -3   017734.86  165.44
   0  -3   017184.39  160.24
   0  -3   016809.43  268.00
   0   3   1 4661.90   78.70
   0   3   1 4914.95   83.39
   0   3   1 4713.72   82.00
   0  -3  -1 4868.59   80.94
   0  -3  -1 4508.21   77.50
   0  -3  -1 4905.95   84.41
   0  -3  -1 4750.61   78.75
   0   3   2  744.49   16.79
   0   3   2  662.47   13.66
   0   3   2  688.50   20.40
   0  -3  -2  631.52   18.49
   0  -3  -2  672.29   13.25
   0  -3  -2  755.11   18.10
   0  -3  -2  774.47   20.80
   0   3   321835.35  530.88
   0  -3  -321129.07  512.36
   0  -3  -319711.33  348.39
   0  -3  -320431.60  495.61
   0  -3  -321532.61  522.77
   0   3   4  763.31   26.66
   0   3   4  739.63   21.00
   0   3   4  749.50   28.56
   0   3   4  738.21   25.63
   0  -3  -4  741.71   49.62
   0  -3  -4  760.66   27.65
   0  -3  -4  722.15   26.99
   0  -3  -4  739.88   26.25
   0   3   5 1545.50   38.62
   0   3   5 1420.94   41.53
   0   3   5 1497.17   47.04
   0   3   5 1467.16   36.96
   0  -3  -5 1163.55   52.93
   0  -3  -5 1509.60   45.29
   0  -3  -5 1404.19   42.78
   0   3   6  573.08   40.21
   0   3   6  611.02   42.84
   0   3   6  649.42   50.10
   0  -3  -6  546.43   41.93
   0  -3  -6  595.15   46.67
   0   3   7  234.64   20.60
   0   3   7  217.92   19.17
   0   3   7  191.86   24.46
   0  -3  -7  227.71   25.18
   0  -3  -7  209.00   24.30
   0   3   8   24.64    4.97
   0   3   8   30.89    5.32
   0   3   8   47.92   18.70
   0  -3  -8   43.86   15.40
   0  -3  -8   63.38   12.60
   0   3   9 1445.44   73.08
   0  -3  -9 1524.22   74.49
   0  -3  -9 1393.41   71.23
   0   3  10  150.14   20.64
   0  -3 -10  141.11   20.97
   0  -3 -10  170.41   30.53
   0   3  11  133.22   29.51
   0  -3 -11  118.71   24.33
   0  -3 -11   72.82   24.67
   0   4 -13   29.02   20.29
   0   4 -13   50.62   23.76
   0  -4  13   64.40   22.28
   0  -4  13   66.37   22.63
   0   4 -12   53.31   19.83
   0   4 -12   30.73   16.55
   0  -4  12   51.52   14.53
   0  -4  12   28.96   13.88
   0   4 -11   23.65   21.53
   0   4 -11   35.79   13.08
   0  -4  11   38.05   12.99
   0  -4  11   15.56   13.33
   0   4 -10  631.40   40.93
   0   4 -10  528.37   29.96
   0   4 -10  719.89   45.24
   0  -4  10  745.67   47.31
   0  -4  10  646.84   36.62
   0   4  -9 1536.86   66.28
   0   4  -9 1351.02   52.98
   0  -4   9 1459.24   52.50
   0  -4   9 1646.71   64.12
   0   4  -8 1477.92   42.65
   0   4  -8 1637.26   38.37
   0   4  -8 1733.09   46.14
   0  -4   8 1912.24   53.47
   0  -4   8 1828.05   43.78
   0   4  -7   26.43   12.44
   0   4  -7    9.98    5.53
   0   4  -7   46.87   13.73
   0  -4   7   17.77    9.04
   0  -4   7    3.09    4.30
   0  -4   7   28.20    9.33
   0   4  -6 1800.53   50.54
   0   4  -6 1712.24   46.39
   0   4  -6 1781.54   57.88
   0  -4   6 1843.34   56.64
   0  -4   6 1864.43   54.06
   0  -4   6 1754.17   48.08
   0  -4   6 1756.30   48.85
   0   4  -5 1448.27   38.96
   0   4  -5 1485.29   32.14
   0   4  -5 1469.09   33.25
   0  -4   5 1530.19   37.99
   0  -4   5 1304.22   30.43
   0  -4   5 1445.90   32.31
   0   4  -4 2519.63   58.55
   0   4  -4 2492.15   49.90
   0   4  -4 2489.00   48.78
   0  -4   4 2561.69   51.99
   0  -4   4 2463.68   47.90
   0   4  -3 1338.44   17.32
   0   4  -3 1387.35   22.66
   0   4  -3 1333.07   30.37
   0  -4   3 1424.76   29.24
   0  -4   3 1461.90   42.11
   0  -4   3 1455.14   26.16
   0   4  -2  526.58   20.02
   0   4  -2  558.96   14.82
   0  -4   2  539.18   16.41
   0  -4   2  556.31   21.96
   0  -4   2  609.69   23.02
   0   4  -1   78.80   10.18
   0   4  -1   35.08    5.58
   0   4  -1  101.45   17.37
   0  -4   1   94.38   11.55
   0  -4   1   90.03   10.11
   0  -4   1   73.45    9.69
   0   4   0   11.81   10.51
   0   4   0   24.30   10.62
   0   4   0   14.80    9.60
   0  -4   0   -1.47    6.14
   0  -4   0   19.81   12.89
   0  -4   0   22.92    8.73
   0  -4   0   16.65    5.32
   0   4   1 4447.23   52.03
   0   4   1 4393.28   52.16
   0   4   1 4496.28   58.96
   0  -4  -1 4637.52   52.63
   0  -4  -1 4592.15   56.28
   0  -4  -1 4431.19   56.17
   0   4   2 4496.38   85.52
   0   4   2 4207.42   82.26
   0   4   2 4269.77   86.68
   0  -4  -2 4220.68   79.01
   0  -4  -2 4108.36   82.34
   0  -4  -2 4399.42   87.38
   0  -4  -2 4016.28   77.17
   0   4   3 1803.13   49.27
   0   4   3 1893.96   56.09
   0  -4  -3 1637.37   67.05
   0  -4  -3 1774.21   45.93
   0  -4  -3 1907.25   54.73
   0  -4  -3 1937.57   54.33
   0  -4  -3 1909.99   54.35
   0   4   4 1249.53   36.59
   0   4   4 1321.58   34.21
   0   4   4 1393.07   44.66
   0  -4  -4 1203.27   30.48
   0  -4  -4 1270.27   38.66
   0  -4  -4 1167.97   38.09
   0   4   5  124.69   12.49
   0   4   5  180.92   21.15
   0   4   5  151.02   12.08
   0   4   5  148.59   19.70
   0  -4  -5   94.54   13.88
   0  -4  -5  168.27   21.77
   0   4   6 1059.77   48.93
   0   4   6  957.78   34.80
   0  -4  -6 1005.86   46.37
   0  -4  -6  839.35   38.74
   0   4   7   95.91   17.75
   0  -4  -7   99.65   18.12
   0  -4  -7   66.13   13.48
   0   4   8  236.07   29.41
   0  -4  -8  246.46   25.89
   0  -4  -8  256.06   25.81
   0   4   9  912.14   50.65
   0  -4  -9  849.34   46.91
   0  -4  -9  886.73   51.27
   0   4  10   62.18   25.10
   0  -4 -10   44.96   18.72
   0  -4 -10   12.46   13.33
   0   4  11  155.26   24.60
   0  -4 -11  161.70   21.18
   0  -4 -11  173.79   25.51
   0   5 -13   64.53   38.42
   0   5 -13  120.11   28.90
   0  -5  13  168.98   32.62
   0   5 -12  664.03   79.83
   0   5 -12  837.77   57.35
   0  -5  12  648.38   42.28
   0  -5  12  808.99   55.65
   0   5 -11 1786.89  108.31
   0   5 -11 2443.13  144.22
   0  -5  11 2659.00  153.79
   0  -5  11 2780.54  164.22
   0   5 -10 2405.53   71.01
   0   5 -10 2102.64   59.84
   0  -5  10 2419.06   61.89
   0  -5  10 2580.37   73.65
   0   5  -9 4982.52  206.34
   0   5  -9 5333.05  215.05
   0   5  -9 5962.68  242.49
   0  -5   9 4155.65  171.94
   0  -5   9 5914.31  238.92
   0   5  -8 1677.89   69.45
   0   5  -8 1745.60   64.85
   0   5  -8 1965.74   76.07
   0  -5   8 1752.22   69.28
   0  -5   8 1740.08   65.73
   0   5  -7  416.23   39.19
   0   5  -7  392.05   29.52
   0   5  -7  407.35   32.25
   0  -5   7  477.06   39.32
   0  -5   7  450.95   34.32
   0   5  -6  380.19   25.99
   0   5  -6  399.70   15.33
   0   5  -6  472.89   19.55
   0  -5   6  441.09   23.02
   0  -5   6  453.01   18.14
   0   5  -5 1419.87   48.26
   0   5  -5 1352.72   38.31
   0   5  -5 1426.28   39.21
   0  -5   5 1245.46   40.31
   0  -5   5 1381.32   40.25
   0   5  -4 1565.16   40.48
   0   5  -4 1539.16   42.92
   0   5  -4 1614.82   50.71
   0  -5   4 1533.78   47.48
   0  -5   4 1605.88   62.83
   0  -5   4 1649.68   47.25
   0   5  -3 1535.85   44.18
   0   5  -3 1588.66   35.74
   0  -5   3 1570.71   36.19
   0  -5   3 1415.61   41.24
   0  -5   3 1541.34   48.29
   0   5  -2  988.28   31.59
   0   5  -2  922.01   24.32
   0   5  -2  820.53   25.45
   0  -5   2  898.08   29.14
   0  -5   2  911.40   27.17
   0  -5   2 1024.48   28.57
   0   5  -112035.30  218.09
   0   5  -112589.02  232.64
   0  -5   112368.17  225.18
   0  -5   111922.84  217.74
   0  -5   111635.07  213.41
   0   5   0 5592.35  109.07
   0   5   0 5404.04  103.36
   0   5   0 5389.60  105.31
   0  -5   0 5616.70  108.04
   0  -5   0 5467.90  106.21
   0  -5   0 5457.33  106.11
   0  -5   0 4984.83   89.87
   0   5   1  722.10   26.65
   0   5   1  601.20   23.13
   0   5   1  691.76   29.62
   0  -5  -1  689.45   23.64
   0  -5  -1  659.22   26.35
   0  -5  -1  647.04   24.57
   0  -5  -1  659.96   20.82
   0   5   2 3467.74   85.58
   0   5   2 3535.08   93.66
   0  -5  -2 3295.02   85.87
   0  -5  -2 3306.97   80.80
   0  -5  -2 3254.63   84.29
   0   5   310848.27  152.05
   0  -5  -3 9721.05  139.30
   0   5   5   89.49    7.32
   0   5   5   80.70    9.40
   0   5   5   93.45   14.63
   0  -5  -5  111.18   14.50
   0  -5  -5   91.29   13.22
   0   5   6  888.87   46.77
   0  -5  -6  763.25   41.08
   0  -5  -6  705.21   38.63
   0   5   7  824.84   35.15
   0  -5  -7  904.29   34.85
   0  -5  -7  781.12  120.70
   0   5   8  399.12   43.31
   0  -5  -8  380.98   40.04
   0  -5  -8  358.01   35.70
   0   5   9  569.30   54.16
   0  -5  -9  474.99   64.72
   0  -5  -9  412.59   56.58
   0   5  10  154.47   35.54
   0  -5 -10  116.80   26.49
   0  -5 -10  113.13   26.21
   0   6 -13  427.94  121.04
   0   6 -13  521.23   49.07
   0  -6  13  656.65   56.74
   0   6 -12   13.12   19.27
   0   6 -12    0.97   12.14
   0  -6  12   24.11   14.12
   0   6 -11 2810.44  130.87
   0   6 -11 2315.82  102.15
   0  -6  11 2490.91  106.38
   0  -6  11 2590.71  115.74
   0   6 -10  194.47   32.04
   0   6 -10  162.80   20.57
   0  -6  10  115.14   20.32
   0  -6  10  106.83   23.19
   0   6  -9  828.61   54.97
   0   6  -9  786.18   41.61
   0   6  -9  917.60   51.09
   0  -6   9 1024.22   60.39
   0  -6   9  959.33   51.23
   0   6  -8 2037.05   79.62
   0   6  -8 2007.49   69.04
   0   6  -8 2287.35   79.76
   0  -6   8 2214.48   80.44
   0  -6   8 2096.56   72.89
   0   6  -7  284.81   33.35
   0   6  -7  229.95   21.75
   0   6  -7  240.57   23.72
   0  -6   7  267.20   29.43
   0  -6   7  241.04   23.92
   0   6  -6  787.40   70.30
   0   6  -6  808.24   67.11
   0   6  -6  738.24   52.43
   0  -6   6  713.72   52.35
   0   6  -5  545.78   44.23
   0   6  -5  471.20   31.71
   0   6  -5  472.42   30.53
   0  -6   5  507.94   35.63
   0   6  -4   54.37   24.67
   0   6  -4    7.82    4.62
   0  -6   4    4.19    6.18
   0   6  -3  659.74   29.98
   0   6  -3  535.35   19.44
   0  -6   3  595.33   22.36
   0  -6   3  607.56   28.31
   0   6  -2 4400.25  113.83
   0   6  -2 3956.97   96.92
   0   6  -2 4535.22  114.89
   0  -6   2 4236.87  107.10
   0  -6   2 4193.83  104.60
   0   6  -1  301.89   22.40
   0   6  -1  220.82   13.30
   0   6  -1  302.93   46.77
   0  -6   1  178.21   13.48
   0  -6   1  224.39   15.98
   0   6   0 1424.96   42.73
   0   6   0 1458.27   57.37
   0  -6   0 1545.53   46.98
   0  -6   0 1498.54   46.45
   0  -6   0 1308.56   32.22
   0   6   1  193.45   18.64
   0   6   1  160.32   19.25
   0  -6  -1  171.01   19.36
   0  -6  -1  158.92   14.45
   0  -6  -1  146.85   11.51
   0   6   2  252.35   22.40
   0   6   2  214.29   22.70
   0  -6  -2  202.43   19.30
   0  -6  -2  241.04   20.30
   0  -6  -2  215.55   18.27
   0   6   3 7062.04  252.82
   0   6   3 7126.34  249.72
   0  -6  -3 6507.20  231.36
   0  -6  -3 6095.50  214.63
   0   6   4  907.01   32.67
   0   6   4  974.10   46.04
   0  -6  -4  820.48   36.82
   0  -6  -4  825.28   29.73
   0  -6  -4  801.76   32.70
   0   6   5 3213.01  162.42
   0   6   5 2837.67  136.26
   0  -6  -5 2848.90  142.99
   0  -6  -5 2777.88  137.85
   0   6   6    2.24   13.35
   0  -6  -6   12.93    9.14
   0  -6  -6   -1.45    7.97
   0  -6  -7   40.38   12.61
   0  -6  -7   48.53   15.49
   0   6   8 1272.04  104.94
   0  -6  -8 1238.39  102.56
   0  -6  -8 1044.56   85.16
   0   6   9  857.39   71.09
   0  -6  -9  845.96   73.62
   0  -6  -9  641.78   54.35
   0   7 -13   25.30   14.15
   0   7 -13   30.85   15.73
   0  -7  13   20.11   14.59
   0   7 -12  235.96   44.06
   0   7 -12  225.08   40.28
   0  -7  12  365.07   62.90
   0   7 -11 1193.77   83.95
   0   7 -11  963.38   60.94
   0  -7  11 1076.02   66.18
   0  -7  11 1260.21   81.75
   0   7 -10   79.50   25.49
   0   7 -10   11.92    7.57
   0  -7  10   31.93   17.24
   0   7  -9  392.92   41.17
   0   7  -9  304.36   26.46
   0  -7   9  339.30   28.58
   0  -7   9  325.84   32.36
   0   7  -8   72.65   25.87
   0   7  -8   23.10    7.42
   0   7  -8   34.72    9.57
   0  -7   8   24.00   11.39
   0  -7   8   43.72   10.29
   0   7  -7   49.41   16.79
   0   7  -7   23.17    7.49
   0   7  -7   15.79    8.42
   0  -7   7   57.25   18.98
   0  -7   7   20.98    7.52
   0   7  -6  569.68   42.89
   0   7  -6  468.23   29.73
   0   7  -6  531.73   30.84
   0  -7   6  546.15   34.85
   0   7  -5 1245.34   59.66
   0   7  -5 1332.37   51.80
   0  -7   5 1270.30   50.70
   0   7  -4  312.95   30.38
   0   7  -4  202.14   17.70
   0  -7   4  234.60   20.54
   0   7  -3   21.24   13.33
   0  -7   3    9.36    6.99
   0   7  -2 1377.19   41.08
   0   7  -2 1342.24   44.53
   0  -7   2 1398.64   40.78
   0   7  -1 2453.85   62.18
   0   7  -1 2435.86   82.82
   0  -7   1 2260.83   94.37
   0  -7   1 2202.41   55.36
   0   7   0   65.95   16.48
   0   7   0   79.74   11.37
   0  -7   0   61.63   13.74
   0  -7   0   51.22   10.20
   0  -7   0   18.52    3.16
   0   7   1   96.74   14.48
   0   7   1   96.97   13.79
   0  -7  -1  102.50   15.77
   0  -7  -1   95.15   13.01
   0  -7  -1   71.27    7.92
   0   7   2  265.05   20.48
   0   7   2  260.44   23.05
   0  -7  -2  225.65   22.89
   0  -7  -2  222.24   17.85
   0  -7  -2  207.46   15.40
   0   7   3 3324.99  135.63
   0   7   3 3769.39  158.95
   0  -7  -3 3589.80  152.44
   0  -7  -3 3179.89  129.08
   0  -7  -3 3029.00  124.67
   0   7   4 4380.37  112.79
   0   7   4 3601.80   83.21
   0  -7  -4 3814.49   97.94
   0  -7  -4 3563.69   86.91
   0   7   5   70.38   23.67
   0  -7  -5   30.06   14.78
   0  -7  -5   28.65   14.66
   0   7   6 2499.22  115.51
   0  -7  -6 1966.00   90.21
   0  -7  -6 1929.77   86.35
   0   7   7  341.80   49.96
   0  -7  -7  246.89   38.50
   0  -7  -7  240.40   36.93
   0   7   8   77.72   33.08
   0  -7  -8   53.06   22.29
   0  -7  -8   33.84   13.13
   0   8 -12   30.82   18.80
   0  -8  12   26.51   19.94
   0   8 -11 6467.79  496.44
   0  -8  11 6894.45 1836.77
   0   8 -10   59.92   23.80
   0   8 -10   83.10   18.30
   0  -8  10   38.66    9.19
   0  -8  10   61.56   19.53
   0   8  -9   72.90   20.22
   0   8  -9   47.90   11.65
   0  -8   9   91.35   23.91
   0   8  -8 1406.14   77.68
   0   8  -8 1236.93   57.33
   0  -8   8 1489.19   71.69
   0  -8   8 1560.39   78.39
   0   8  -7  253.18   19.68
   0   8  -7  324.46   36.97
   0  -8   7  335.27   28.53
   0   8  -6 1149.78   66.87
   0  -8   6 1216.09   64.83
   0   8  -5  978.08   54.55
   0  -8   5  909.23   45.24
   0   8  -4  564.86   44.08
   0  -8   4  640.34   64.59
   0   8  -3  327.65   27.98
   0  -8   3  289.64   24.64
   0   8  -2   62.49   12.86
   0   8  -2   83.05   15.18
   0  -8   2   56.50   13.12
   0   8  -1  119.57   20.24
   0   8  -1  108.55   13.21
   0  -8   1   95.67   16.19
   0   8   0  507.22   52.46
   0   8   0  622.71   73.58
   0  -8   0  513.85   54.18
   0  -8   0  447.36   45.68
   0   8   1  129.31   17.52
   0   8   1  146.56   20.03
   0  -8  -1   52.78   15.11
   0  -8  -1  109.73   16.15
   0  -8  -1   99.79   11.45
   0   8   2  520.79   44.23
   0   8   2  516.76   40.10
   0  -8  -2  452.41   39.51
   0  -8  -2  453.35   33.74
   0   8   3   91.18   22.00
   0   8   3   84.99   16.27
   0  -8  -3  128.07   27.41
   0  -8  -3   73.75   14.39
   0   8   4   52.54   16.66
   0  -8  -4   55.99   15.56
   0  -8  -4   53.01   12.81
   0   8   5  225.92   27.96
   0  -8  -5  215.36   31.62
   0  -8  -5  218.55   27.72
   0   8   6   12.20   14.91
   0  -8  -6   34.82   23.99
   0  -8  -6   63.99   22.33
   0   8   7   40.54   15.34
   0  -8  -7   25.72   14.14
   0  -8  -7   25.62   11.86
   0   9 -11   87.31   24.49
   0  -9  11   63.06   23.45
   0   9 -10  855.28   76.34
   0  -9  10 1179.82   97.70
   0   9  -9   77.89   24.42
   0  -9   9  108.13   16.28
   0  -9   9  113.83   21.17
   0   9  -8  765.99  102.52
   0  -9   8  772.03   98.68
   0  -9   8  926.79   53.00
   0   9  -7  331.75   38.19
   0  -9   7  336.35   32.25
   0   9  -6  255.31   30.08
   0  -9   6  223.19   22.34
   0   9  -5 1059.44   48.96
   0  -9   5 1011.69   36.63
   0   9  -4  871.99   43.79
   0  -9   4  688.62   52.92
   0   9  -3   68.54   23.69
   0  -9   3   53.25   15.57
   0   9  -2 3822.04  100.70
   0  -9   2 3768.09   95.08
   0   9  -1  186.41   42.88
   0   9  -1  178.76   35.09
   0  -9   1  187.84   32.77
   0   9   0   70.09   22.04
   0   9   0  108.96   23.57
   0  -9   0   59.17   14.57
   0   9   1  597.75   91.99
   0   9   1  571.62   50.37
   0  -9  -1  586.30   53.57
   0   9   2  384.59   45.93
   0   9   2  363.64   38.08
   0  -9  -2  362.12   39.63
   0   9   3 1715.46  105.21
   0  -9  -3 1648.59  100.53
   0   9   4   67.59   23.41
   0  -9  -4    7.48   11.09
   0   9   5   61.76   30.47
   0  -9  -5   61.05   23.15
   0  10 -10  712.26   85.39
   0 -10  10  672.58   78.46
   0  10  -9    8.57   16.85
   0 -10   9   -1.56    8.00
   0 -10   9   51.62   23.99
   0  10  -8 1326.67  111.44
   0 -10   8 1324.20  108.23
   0  10  -7  350.08   42.61
   0 -10   7  266.31   32.25
   0  10  -6 3042.16  136.06
   0 -10   6 2893.19  125.28
   0  10  -5  305.56   35.76
   0 -10   5  361.07   40.04
   0  10  -4  725.25   72.61
   0 -10   4  658.22   64.71
   0  10  -3  246.48   32.74
   0 -10   3  157.43   19.11
   0  10  -2  370.90   40.13
   0 -10   2  351.75   38.13
   0  10  -1  311.80   96.96
   0  10  -1  458.66   48.04
   0 -10   1  486.00   51.71
   0  10   0   25.97   10.97
   0  10   0    4.86    9.55
   0 -10   0   14.67   11.66
   0  10   1  224.21   52.98
   0  10   1  357.74   47.92
   0 -10  -1  357.89   53.51
   0  10   2  791.71  104.66
   0 -10  -2  954.11   62.43
   0  10   3   18.74   22.68
   0 -10  -3   21.19   13.33
   0 -11   8  296.45   36.63
   0  11  -7  234.61   47.04
   0 -11   7  225.80   41.09
   0  11  -6  159.26   34.11
   0 -11   6   99.58   29.67
   0  11  -5  907.20   62.35
   0 -11   5  962.13   61.06
   0  11  -4  214.56   42.44
   0 -11   4  245.60   44.32
   0  11  -3   47.52   19.49
   0 -11   3   27.17   11.71
   0  11  -2  121.61   26.39
   0 -11   2   96.63   30.61
   0  11  -1  183.50   39.67
   0  11  -1  150.96   33.27
   0 -11   1  226.39   40.90
   0  11   0   86.32   31.13
   0 -11   0  140.08   31.76
   0  11   1  208.95   70.68
   0 -11  -1  289.86   38.50
   1 -11  -1  698.50   79.25
  -1  11   1  640.68   88.22
   1 -11   0  179.61   36.01
  -1  11   0  126.17   28.58
  -1  11   0  143.00   33.37
   1 -11   1  566.68   48.62
  -1  11  -1  622.82   56.05
  -1  11  -1  453.79  106.44
   1 -11   2   14.22   11.12
   1 -11   3   50.55   20.47
  -1  11  -3   58.13   25.84
   1 -11   4  978.67   62.35
  -1  11  -4  667.00   50.71
   1 -11   5    5.29    9.01
  -1  11  -5   29.44   23.01
   1 -11   6    9.57    8.74
  -1  11  -6   18.16   21.01
   1 -11   7  438.63   42.07
  -1  11  -7  425.36   48.01
   1 -10  -3   47.81   21.85
  -1  10   3   15.01   14.42
   1 -10  -2  546.84   40.22
  -1  10   2  557.23   99.91
   1 -10  -1   11.09   11.86
  -1  10   1   17.96   15.32
   1 -10   0 3507.65  203.41
  -1  10   0 3581.67  206.23
  -1  10   0 3512.94  214.27
   1 -10   1   41.37   17.03
  -1  10  -1   64.11   19.37
  -1  10  -1   34.10   16.12
   1 -10   2  167.88   28.86
  -1  10  -2  134.15   22.25
   1 -10   3  137.25   19.50
  -1  10  -3  116.14   21.32
   1 -10   4   92.28   18.14
  -1  10  -4   73.62   16.79
   1 -10   5  710.33   69.40
  -1  10  -5  875.13   53.30
   1 -10   6   26.35   10.73
  -1  10  -6   94.17   29.28
  -1  10  -7  257.51   35.64
   1 -10   8 1069.51   87.98
  -1  10  -8 1124.86   94.98
   1 -10   9  172.87   32.35
   1 -10   9  129.33   27.55
  -1  10  -9  109.77   38.91
   1 -10  10  644.98   69.72
   1 -10  10  689.79   77.29
  -1  10 -10  585.64   70.84
   1  -9  -5  218.40   42.52
  -1   9   5  252.36   48.25
   1  -9  -4  584.36   54.81
  -1   9   4  649.33   59.38
   1  -9  -3   13.10   10.82
  -1   9   3   39.22   21.90
   1  -9  -2 1356.55   64.95
  -1   9   2 1529.19   71.67
  -1   9   2 1534.45   73.49
   1  -9  -1 1058.36   68.31
  -1   9   1 1112.25   70.58
  -1   9   1 1146.89  110.54
   1  -9   0  154.04   21.80
  -1   9   0  163.79   22.26
  -1   9   0  120.79   32.19
   1  -9   1   53.28   17.96
  -1   9  -1   56.22   21.96
  -1   9  -1   61.40   15.43
   1  -9   2  150.89   30.22
  -1   9  -2  146.92   33.26
  -1   9  -2  175.73   35.95
   1  -9   3  663.61   51.95
  -1   9  -3  838.85   40.88
   1  -9   4   69.67   17.57
  -1   9  -4   32.38   23.27
   1  -9   5    5.21    8.67
  -1   9  -5   41.84   22.26
   1  -9   6  486.66   40.05
  -1   9  -6  377.03   37.73
   1  -9   7  256.72   25.61
  -1   9  -7  240.19   34.27
   1  -9   8  313.15   35.24
   1  -9   8  322.40   38.22
  -1   9  -8  370.34   46.88
   1  -9   9  184.04   26.25
   1  -9   9  259.86   34.12
  -1   9  -9  223.24   38.59
   1  -9  10   23.04   13.78
   1  -9  10   11.37   12.09
  -1   9 -10   23.01   19.79
   1  -9  11  203.58   35.40
   1  -9  11  274.84   52.02
  -1   9 -11  161.04   39.21
   1  -8  -7 1821.75  188.87
   1  -8  -7 1430.62  148.91
  -1   8   7 1754.51  182.48
   1  -8  -6 1424.36   85.32
   1  -8  -6 1199.99   71.75
  -1   8   6 1592.40   95.56
   1  -8  -5  359.50   39.96
   1  -8  -5  317.54   35.11
  -1   8   5  462.75   53.32
   1  -8  -4  112.84   20.17
  -1   8   4  111.82   15.56
  -1   8   4  116.33   21.77
   1  -8  -3 1397.16   69.91
   1  -8  -3 1210.34   57.53
  -1   8   3 1535.57   77.56
  -1   8   3 1370.21   67.33
   1  -8  -2    2.40    9.91
   1  -8  -2    4.82    5.66
  -1   8   2   17.81   11.86
  -1   8   2   29.81   14.42
   1  -8  -1 2870.33  144.76
   1  -8  -1 2517.81  121.69
  -1   8   1 2847.13  145.20
  -1   8   1 3086.07  154.65
   1  -8   0  145.98   22.53
  -1   8   0  210.90   30.70
  -1   8   0  294.29   42.93
   1  -8   1   31.63   12.31
  -1   8  -1   77.90   24.37
  -1   8  -1   82.88   15.87
   1  -8   2  226.60   23.08
  -1   8  -2  243.68   24.63
  -1   8  -2  236.59   47.59
   1  -8   3  621.93   62.23
  -1   8  -3  700.72   39.99
   1  -8   4 1126.60   54.55
  -1   8  -4 1169.32   61.89
   1  -8   5  143.06   19.65
  -1   8  -5  276.41   37.58
   1  -8   6   19.82   11.93
  -1   8  -6   67.16   24.87
  -1   8  -6    5.22    2.61
  -1   8  -6   18.32    4.12
   1  -8   7  387.14   33.58
  -1   8  -7  373.55   38.26
  -1   8  -7  327.13   24.57
   1  -8   8  541.23   42.81
   1  -8   8  597.44   48.35
  -1   8  -8  540.98   49.14
  -1   8  -8  466.28   33.77
   1  -8   9   32.73   12.95
   1  -8   9   46.68   17.77
  -1   8  -9   53.45   23.07
   1  -8  10  137.17   21.17
   1  -8  10  157.43   23.93
  -1   8 -10  140.12   28.93
  -1   8 -10   75.12   13.72
   1  -8  11   47.57   17.04
  -1   8 -11  135.96   29.72
  -1   8 -11   73.76   24.96
   1  -8  12   11.66    7.16
   1  -8  12   33.84   16.36
  -1   8 -12   45.84   23.82
   1  -7  -8    8.36   10.68
  -1   7   8   -7.77   17.46
   1  -7  -7  560.95  152.20
   1  -7  -7  509.08   67.70
  -1   7   7  624.56   59.53
   1  -7  -6   58.20   16.81
   1  -7  -6   67.79   15.57
  -1   7   6   71.59   18.85
   1  -7  -5 1181.89   62.43
   1  -7  -5 1172.47   58.87
  -1   7   5 1383.81   70.09
  -1   7   5 1278.33   60.45
   1  -7  -4  486.56   41.51
   1  -7  -4  388.57   32.06
  -1   7   4  451.79   40.16
   1  -7  -3   -0.39   10.70
   1  -7  -3   42.47   11.99
  -1   7   3    8.02   12.82
  -1   7   3   10.97   10.00
   1  -7  -2 9238.55  301.42
   1  -7  -2 9120.75  294.38
   1  -7  -2 9187.50  295.76
  -1   7   211244.51 1043.23
  -1   7   2 8534.36  279.83
  -1   7   2 7934.26  255.00
   1  -7  -111178.94  607.90
   1  -7  -110968.18  594.89
   1  -7  -110529.89  365.68
  -1   7   1 8776.66  309.28
  -1   7   110898.79  592.74
   1  -7   0 2736.31  102.84
   1  -7   0 2685.30   99.39
   1  -7   0 2492.19   87.68
  -1   7   0 2898.35  109.48
  -1   7   0 2817.42  121.84
   1  -7   1  404.91   34.35
  -1   7  -1  441.33   40.54
  -1   7  -1  396.55   35.99
   1  -7   2 2758.56   66.72
  -1   7  -2 3027.06   78.76
  -1   7  -2 2699.18   91.61
   1  -7   3 8096.32  165.60
  -1   7  -3 7717.06  162.85
   1  -7   4  551.00   42.67
  -1   7  -4  634.97   52.39
   1  -7   5 1440.56   57.69
  -1   7  -5 1342.70   59.77
  -1   7  -5 1158.58   41.77
  -1   7  -5 1220.71   43.90
   1  -7   6  112.79   12.84
  -1   7  -6  208.76   27.07
  -1   7  -6  101.33   13.96
  -1   7  -6  119.03   10.50
   1  -7   7   51.97   12.09
   1  -7   7   90.77   18.85
  -1   7  -7  101.60   26.84
  -1   7  -7   56.84    9.76
   1  -7   8  182.37   23.09
   1  -7   8  230.89   30.85
  -1   7  -8  205.78   30.74
  -1   7  -8  188.86   21.85
   1  -7   9  155.53   17.11
   1  -7   9  191.89   22.70
  -1   7  -9  217.29   29.01
  -1   7  -9  208.84   19.98
   1  -7  10  427.74   40.21
   1  -7  10  502.46   47.68
  -1   7 -10  355.73   39.42
  -1   7 -10  394.22   38.09
   1  -7  11 1251.79   76.31
   1  -7  11 1617.08  100.46
  -1   7 -11 1324.33   89.86
  -1   7 -11 1355.00   82.29
   1  -7  12  606.17   39.59
   1  -7  12  823.24   60.69
  -1   7 -12  850.80   62.26
  -1   7 -12  703.44   51.42
   1  -6  -9  111.65   22.90
   1  -6  -9  157.93   32.19
  -1   6   9  267.21   52.05
   1  -6  -8  338.23   47.66
   1  -6  -8  247.61   36.58
  -1   6   8  295.85   43.37
   1  -6  -7 1104.23   56.44
   1  -6  -7 1026.04   52.84
  -1   6   7 1205.86   62.65
   1  -6  -6  985.08   52.39
   1  -6  -6  974.31   50.08
  -1   6   6 1118.84   58.41
  -1   6   6  988.70   46.92
   1  -6  -5   22.56   14.17
   1  -6  -5   23.47    8.36
   1  -6  -5   18.19    8.71
  -1   6   5   24.13   10.21
  -1   6   5   13.60   12.12
   1  -6  -4  868.76   37.54
   1  -6  -4  892.35   34.22
   1  -6  -4  955.49   39.12
  -1   6   4  943.05   36.92
  -1   6   4  973.91   44.43
  -1   6   4  803.51   31.55
   1  -6  -3   71.78   14.52
   1  -6  -3   83.09   11.68
   1  -6  -3   76.33   10.77
  -1   6   3   85.76   14.13
  -1   6   3  105.39   19.84
  -1   6   3   52.64    7.78
   1  -6  -2  121.26   15.46
   1  -6  -2  123.76   13.24
   1  -6  -2  130.93   13.09
  -1   6   2  185.40   18.59
  -1   6   2  163.15   19.78
  -1   6   2  146.26   12.81
   1  -6  -1 2690.48   52.12
   1  -6  -1 2683.35   43.63
  -1   6   1 2761.29   56.60
  -1   6   1 2684.86   54.53
  -1   6   1 2345.37   38.13
   1  -6   0  822.18   26.47
   1  -6   0  846.35   23.72
   1  -6   0  850.49   17.05
  -1   6   0  950.86   33.58
  -1   6   0  879.05   29.08
  -1   6   0  877.27   16.66
   1  -6   1 2414.25   66.01
   1  -6   1 2299.95   62.76
  -1   6  -1 2458.10   70.50
  -1   6  -1 2219.61   82.03
   1  -6   2 5888.32  143.39
   1  -6   2 5401.32  133.10
  -1   6  -2 6165.82  153.83
  -1   6  -2 5930.58  143.13
  -1   6  -2 6000.38  149.54
   1  -6   3    3.50    7.07
   1  -6   3    6.17    9.94
  -1   6  -3   19.60   15.10
  -1   6  -3   52.27   10.04
   1  -6   4 1829.73   39.45
  -1   6  -4 1523.83   41.94
  -1   6  -4 1901.59   53.04
  -1   6  -4 1470.52   23.66
   1  -6   5  981.49   28.34
  -1   6  -5  888.72   24.01
  -1   6  -5  950.53   35.51
  -1   6  -5  934.91   19.65
   1  -6   6  556.41   42.86
  -1   6  -6  460.61   35.32
  -1   6  -6  533.84   46.83
  -1   6  -6  497.80   36.90
   1  -6   7   45.70   10.54
   1  -6   7   25.45    9.90
  -1   6  -7   24.87   20.24
  -1   6  -7   26.06    7.76
   1  -6   8  517.90   52.26
   1  -6   8  623.34   36.21
  -1   6  -8  583.97   42.76
  -1   6  -8  534.86   29.11
   1  -6   9   41.96   14.08
   1  -6   9   33.68   13.90
  -1   6  -9   18.74   14.65
  -1   6  -9   15.55   11.23
   1  -6  10  362.37   29.68
   1  -6  10  421.64   38.69
  -1   6 -10  375.82   39.04
  -1   6 -10  338.42   31.05
   1  -6  11  998.21   49.32
   1  -6  11 1103.66   56.51
  -1   6 -11 1232.89   67.92
  -1   6 -11  862.42   47.01
   1  -6  12  923.85   76.15
   1  -6  12  983.39   83.54
  -1   6 -12 1059.10   93.85
  -1   6 -12  841.83   70.74
   1  -6  13  244.78   42.78
   1  -6  13  250.22   45.30
  -1   6 -13  288.57   54.16
  -1   6 -13  191.38   39.40
   1  -5 -10  159.26   34.21
   1  -5 -10   53.80   23.96
  -1   5  10  166.33   38.10
   1  -5  -9  257.19   38.54
   1  -5  -9  275.99   41.47
  -1   5   9  198.93   32.56
   1  -5  -8  399.14   42.70
   1  -5  -8  445.46   45.85
  -1   5   8  482.66   52.87
   1  -5  -7  437.35   38.25
   1  -5  -7  495.89   42.50
  -1   5   7  476.38   41.74
   1  -5  -6   -7.32    9.19
   1  -5  -6   17.56   10.38
  -1   5   6   35.78   19.36
  -1   5   6    8.35    3.76
   1  -5  -5  341.27   25.78
   1  -5  -5  352.55   23.08
   1  -5  -5  306.34   24.16
  -1   5   5  337.31   27.35
   1  -5  -4   38.61   17.41
   1  -5  -4   45.96    8.11
   1  -5  -4   29.83    8.67
  -1   5   4   18.09   11.17
  -1   5   4   42.37    7.63
   1  -5  -3  365.31   28.13
   1  -5  -3  384.37   26.78
   1  -5  -3  405.11   29.52
  -1   5   3  382.71   27.73
  -1   5   3  392.61   33.79
  -1   5   3  378.58   26.43
   1  -5  -2 1283.44   41.63
   1  -5  -2 1134.52   32.55
   1  -5  -2 1272.01   38.25
  -1   5   2 1167.68   36.61
  -1   5   2 1442.83   47.35
  -1   5   2  988.06   27.57
   1  -5  -114663.21  358.86
   1  -5  -114856.46  344.07
   1  -5  -116215.95  377.69
   1  -5  -113445.42  329.83
  -1   5   116398.23  384.02
  -1   5   116145.97  378.74
  -1   5   112801.48  312.99
   1  -5   0 1199.93   39.59
   1  -5   0 1075.25   29.44
   1  -5   0 1081.13   34.47
   1  -5   0 1125.95   35.42
  -1   5   0 1112.23   37.61
  -1   5   0 1143.88   38.24
  -1   5   0 1125.67   36.04
  -1   5   0 1145.87   30.71
   1  -5   110027.57  184.79
   1  -5   1 9448.60  175.22
   1  -5   110194.89  188.07
  -1   5  -1 9720.05  178.43
  -1   5  -1 9995.80  185.46
  -1   5  -1 9674.40  171.54
   1  -5   210226.89  187.94
   1  -5   2 9209.93  172.23
   1  -5   210123.83  186.68
  -1   5  -210455.84  191.16
  -1   5  -210476.71  195.22
  -1   5  -2 9424.67  166.93
   1  -5   316424.78  298.53
   1  -5   317461.00  315.01
  -1   5  -315599.13  276.30
   1  -5   4 5594.83  141.20
   1  -5   4 5562.05  140.67
  -1   5  -4 5860.14  146.94
   1  -5   5   19.07    7.16
   1  -5   5   12.02    9.64
   1  -5   5   20.67    6.27
  -1   5  -5    6.49    7.41
  -1   5  -5   47.27   26.20
  -1   5  -5    4.83    5.49
   1  -5   6  142.10   14.77
   1  -5   6  183.72   19.98
  -1   5  -6  231.48   26.81
  -1   5  -6  163.75   14.61
  -1   5  -6  173.13   15.89
   1  -5   7 2873.39   66.04
   1  -5   7 2814.94   66.55
  -1   5  -7 2767.36   70.24
  -1   5  -7 2686.93   60.36
  -1   5  -7 2655.71   60.82
   1  -5   8  391.12   36.05
   1  -5   8  341.48   33.07
  -1   5  -8  313.79   37.02
  -1   5  -8  279.96   27.03
   1  -5   9  378.76   39.19
   1  -5   9  332.36   37.25
  -1   5  -9  308.12   37.69
  -1   5  -9  397.41   42.93
   1  -5  10  237.47   23.32
   1  -5  10  188.75   34.41
  -1   5 -10  143.62   29.50
  -1   5 -10  176.12   33.77
   1  -5  11  667.42   57.32
   1  -5  11  799.46   69.51
  -1   5 -11  803.85   71.49
  -1   5 -11  629.15   55.38
   1  -5  12  693.40   47.37
   1  -5  12  657.09   48.48
  -1   5 -12  636.08   46.10
  -1   5 -12  548.91   40.82
   1  -5  13  617.88   49.13
   1  -5  13  756.93   64.07
  -1   5 -13  527.51   87.37
  -1   5 -13  596.21   51.92
   1  -4 -11  787.25   87.71
  -1   4  11  980.73  107.23
   1  -4 -10  218.32   33.66
   1  -4 -10  105.79   27.17
  -1   4  10  148.85   26.47
   1  -4  -9   16.26   11.21
   1  -4  -9   26.58   15.13
  -1   4   9   62.43   24.78
   1  -4  -8   72.06   17.50
   1  -4  -8  139.94   29.60
  -1   4   8  155.00   35.21
  -1   4   8  149.51   28.29
   1  -4  -7  783.92   42.73
   1  -4  -7  901.95   45.43
  -1   4   7  817.71   40.18
  -1   4   7  896.53   50.57
  -1   4   7  858.71   38.87
   1  -4  -6  691.99   34.22
   1  -4  -6  669.88   34.62
  -1   4   6  651.27   49.95
  -1   4   6  719.11   36.22
  -1   4   6  699.63   29.52
   1  -4  -5  670.18   51.78
   1  -4  -5  691.21   52.47
  -1   4   5  638.95   50.29
  -1   4   5  535.22   39.15
  -1   4   5  614.89   45.97
   1  -4  -4  217.79   15.86
   1  -4  -4  187.97   10.82
   1  -4  -4  214.85   17.54
  -1   4   4  200.56   11.92
  -1   4   4  209.94   18.32
  -1   4   4  194.37   13.23
   1  -4  -3 4262.12  109.87
   1  -4  -3 4306.38  109.85
   1  -4  -3 4413.77  110.95
   1  -4  -3 4454.14  115.38
  -1   4   3 4469.48  113.24
  -1   4   3 4489.98  118.13
  -1   4   3 4017.07  102.89
   1  -4  -2 2630.31   56.86
   1  -4  -2 2462.41   52.04
   1  -4  -2 2355.25   48.61
   1  -4  -2 2474.95   54.33
  -1   4   2 2596.27   56.60
  -1   4   2 2503.82   57.56
  -1   4   2 2679.97   57.46
   1  -4  -1  667.22   23.57
   1  -4  -1  668.87   17.87
   1  -4  -1  677.41   21.39
   1  -4  -1  666.58   22.31
  -1   4   1  512.14   20.45
  -1   4   1  670.46   23.36
  -1   4   1  656.05   21.11
  -1   4   1  671.20   17.76
   1  -4   0 4177.79   52.77
   1  -4   0 4011.28   42.94
   1  -4   0 4205.81   53.02
   1  -4   0 3996.11   50.37
  -1   4   0 4108.60   54.84
  -1   4   0 3909.85   51.15
  -1   4   0 4007.75   48.47
  -1   4   0 4045.69   41.54
   1  -4   1  523.95   19.36
   1  -4   1  494.94   12.89
   1  -4   1  497.75   20.47
   1  -4   1  501.89   15.51
  -1   4  -1  483.44   25.02
  -1   4  -1  517.42   31.28
  -1   4  -1  504.87   16.60
  -1   4  -1  491.87    9.22
   1  -4   224084.37  224.25
   1  -4   223963.38  223.63
  -1   4  -222908.22  215.14
  -1   4  -224046.65  222.99
  -1   4  -222252.49  199.95
   1  -4   3  447.78   17.07
   1  -4   3  388.50   17.08
   1  -4   3  468.68   20.52
  -1   4  -3  420.77   13.44
  -1   4  -3  513.86   26.79
  -1   4  -3  419.15   10.30
  -1   4  -3  400.33   10.16
   1  -4   4  975.08   27.55
   1  -4   4  878.59   26.08
  -1   4  -4  911.47   32.88
  -1   4  -4  969.05   25.85
  -1   4  -4  849.26   20.70
   1  -4   5 9779.39  240.29
   1  -4   510066.53  248.34
  -1   4  -5 7826.52  197.11
  -1   4  -5 9761.94  239.43
   1  -4   6    9.44    6.93
   1  -4   6   13.42   12.82
   1  -4   6    8.76    7.20
  -1   4  -6   24.27    7.57
  -1   4  -6   18.34   12.57
  -1   4  -6    4.96    7.91
   1  -4   7    2.52    7.03
   1  -4   7   35.90   12.22
  -1   4  -7   80.28   24.91
  -1   4  -7   27.13    7.94
  -1   4  -7   21.77    9.93
   1  -4   8 1822.03   68.99
   1  -4   8 2045.82   80.33
  -1   4  -8 1907.76   75.68
  -1   4  -8 1867.81   69.71
  -1   4  -8 1744.91   68.12
   1  -4   9  124.21   13.90
   1  -4   9  115.52   14.88
  -1   4  -9  156.58   19.69
  -1   4  -9  151.34   18.27
   1  -4  10   48.84    9.73
   1  -4  10   49.32   18.88
  -1   4 -10   78.18   23.12
  -1   4 -10   70.19   16.30
   1  -4  11   56.49   13.92
   1  -4  11  122.66   27.25
  -1   4 -11  174.65   30.25
  -1   4 -11   95.41   21.55
   1  -4  12  579.77   42.31
   1  -4  12  572.73   42.72
  -1   4 -12  466.95   76.19
  -1   4 -12  448.66   46.71
   1  -4  13  214.62   37.21
   1  -4  13  316.21   54.23
  -1   4 -13  198.93   63.89
  -1   4 -13  203.67   37.57
   1  -3 -11  188.61   34.25
   1  -3 -11  261.30   46.22
  -1   3  11  408.73   69.96
   1  -3 -10  589.19   57.39
   1  -3 -10  562.63   58.91
  -1   3  10  605.28   62.51
   1  -3  -9   10.95   10.39
   1  -3  -9   13.90   11.89
  -1   3   9   15.29   12.14
  -1   3   9   27.74   10.91
   1  -3  -8   41.00   14.30
   1  -3  -8    9.36   11.67
  -1   3   8   47.41   20.44
  -1   3   8   -0.60    4.77
   1  -3  -7  439.48   30.80
   1  -3  -7  465.60   37.16
  -1   3   7  412.09   45.68
  -1   3   7  461.09   34.33
  -1   3   7  415.63   26.10
   1  -3  -6  533.49   41.40
   1  -3  -6  532.33   42.64
  -1   3   6  510.17   39.40
  -1   3   6  529.09   42.67
  -1   3   6  630.41   45.91
   1  -3  -5    9.04    3.25
   1  -3  -5    4.31    6.85
   1  -3  -5   -3.77    9.45
  -1   3   5   44.43    7.14
  -1   3   5   25.85   18.42
  -1   3   5    1.09    4.94
  -1   3   5   28.05    7.18
   1  -3  -4 9116.46  224.70
   1  -3  -4 9749.48  240.83
   1  -3  -4 9990.91  247.37
   1  -3  -4 9743.14  237.70
   1  -3  -4 9302.87  230.99
  -1   3   410210.27  249.62
   1  -3  -3  447.13   17.93
   1  -3  -3  499.16   18.18
   1  -3  -3  471.65   16.02
   1  -3  -3  516.79   20.06
  -1   3   3  499.16   16.74
  -1   3   3  466.21   21.84
  -1   3   3  503.84   17.21
  -1   3   3  499.06   17.14
   1  -3  -2 2045.32   33.62
   1  -3  -2 2196.24   33.70
   1  -3  -2 2041.95   28.74
   1  -3  -2 2136.06   34.07
  -1   3   2 2008.67   31.01
  -1   3   2 2075.32   35.74
  -1   3   2 2136.70   31.84
  -1   3   2 2170.39   31.82
   1  -3  -111847.93  191.37
   1  -3  -111591.19  185.08
   1  -3  -112492.68  201.00
   1  -3  -111848.20  192.10
  -1   3   111908.15  192.99
  -1   3   112063.36  196.37
  -1   3   111288.10  181.84
  -1   3   112379.02  197.07
   1  -3   0 1027.02   21.99
   1  -3   0 1128.61   26.45
   1  -3   0  999.93   24.77
  -1   3   0  976.29   29.33
  -1   3   0 1092.07   28.30
  -1   3   0 1073.80   25.03
  -1   3   0 1003.27   20.35
   1  -3   117164.31  160.63
   1  -3   116267.58  256.10
   1  -3   117715.08  168.95
   1  -3   116592.64  264.05
  -1   3  -117932.26  171.88
  -1   3  -117445.93  163.95
  -1   3  -117034.87  159.47
  -1   3  -116541.95  260.16
   1  -3   2 2014.12   40.85
   1  -3   2 2025.06   48.87
   1  -3   2 1986.22   40.81
  -1   3  -2 2047.00   39.04
  -1   3  -2 1940.99   37.01
   1  -3   3   12.73    8.06
  -1   3  -3   30.01   11.40
  -1   3  -3   -2.38   13.27
   1  -3   4   13.57    7.27
   1  -3   4   35.22   13.11
   1  -3   4    3.17    7.58
  -1   3  -4   -8.86    6.34
  -1   3  -4   10.89   12.55
  -1   3  -4   12.59    6.15
   1  -3   5 3218.57   64.89
   1  -3   5 3234.76   65.78
  -1   3  -5 2895.75   61.45
  -1   3  -5 3102.12   61.52
   1  -3   6  276.97   16.48
   1  -3   6  268.75   19.52
   1  -3   6  252.72   16.49
  -1   3  -6  264.25   12.16
  -1   3  -6  292.90   22.85
  -1   3  -6  297.35   18.22
   1  -3   7  755.30   27.76
   1  -3   7  673.37   28.74
   1  -3   7  729.01   27.08
  -1   3  -7  664.64   22.45
  -1   3  -7  774.54   32.66
  -1   3  -7  749.53   30.65
   1  -3   8  151.72   15.58
   1  -3   8  156.19   19.05
  -1   3  -8  136.36   17.68
  -1   3  -8  137.68   13.73
  -1   3  -8  151.47   15.11
   1  -3   9  167.94   17.08
   1  -3   9  127.44   17.71
  -1   3  -9  157.95   21.40
  -1   3  -9  132.46   17.90
   1  -3  10  562.76   34.57
   1  -3  10  592.70   39.69
  -1   3 -10  524.11   38.27
  -1   3 -10  511.38   38.13
   1  -3  11 1648.39   78.27
   1  -3  11 1541.96   76.03
  -1   3 -11 1450.88  122.55
   1  -3  12   30.69   13.38
   1  -3  12   68.25   20.68
  -1   3 -12   26.88   14.84
  -1   3 -12   46.42   19.46
   1  -3  13   21.25   11.12
   1  -3  13   59.01   26.49
  -1   3 -13   11.39   11.96
  -1   3 -13   38.37   22.52
   1  -2 -12   39.98   17.70
   1  -2 -12   48.03   20.14
   1  -2 -11 2120.04  124.94
   1  -2 -11 2243.73  137.60
  -1   2  11 2264.95  136.45
   1  -2 -10  216.02   25.52
   1  -2 -10  130.65   27.49
  -1   2  10  221.63   32.27
  -1   2  10  186.15   19.88
   1  -2  -9  759.65   58.70
   1  -2  -9  797.15  124.28
  -1   2   9  539.51   41.18
  -1   2   9  680.06   55.11
  -1   2   9  743.49   54.80
   1  -2  -8  307.17   26.31
   1  -2  -8  317.64   30.42
  -1   2   8  296.05   21.73
  -1   2   8  352.07   28.85
  -1   2   8  367.69   24.83
   1  -2  -7  423.54   34.15
   1  -2  -7  510.91   43.71
  -1   2   7  510.63   37.82
  -1   2   7  601.58   49.53
  -1   2   7  497.33   37.31
   1  -2  -6  637.44   49.90
   1  -2  -6  696.34   26.08
   1  -2  -6  710.46   29.46
  -1   2   6  684.24   24.61
  -1   2   6  470.15   23.42
  -1   2   6  639.87   21.67
   1  -2  -5 6851.16  170.69
   1  -2  -5 6782.47  169.51
   1  -2  -5 6840.93  172.05
  -1   2   5 6664.57  173.51
  -1   2   5 7171.13  182.00
  -1   2   5 6677.92  164.89
   1  -2  -4 1005.60   38.28
   1  -2  -4 1069.52   28.57
   1  -2  -4 1101.45   30.41
   1  -2  -4 1131.56   31.13
  -1   2   4 1058.99   26.16
  -1   2   4 1062.89   30.61
  -1   2   4 1051.32   29.30
   1  -2  -327754.14  251.97
   1  -2  -327822.15  494.37
   1  -2  -327799.54  494.80
  -1   2   329456.01  524.90
  -1   2   329192.47  517.54
  -1   2   325162.04  232.30
   1  -2  -2  305.28   13.23
   1  -2  -2  309.48   12.16
   1  -2  -2  311.31   13.74
   1  -2  -2  289.34   12.07
  -1   2   2  320.22   15.95
  -1   2   2  313.59   13.18
  -1   2   2  301.84   12.66
  -1   2   2  325.27   13.42
   1  -2  -1   53.75    7.06
   1  -2  -1   49.30    6.73
   1  -2  -1   48.81    6.53
   1  -2  -1   51.17    6.13
  -1   2   1   43.30    6.98
  -1   2   1   39.31    8.84
  -1   2   1   37.28    5.71
  -1   2   1   34.40    4.70
   1  -2   011238.45  179.73
   1  -2   011326.82  179.61
   1  -2   012216.29  195.63
   1  -2   011699.10  186.60
  -1   2   011455.40  183.88
  -1   2   011817.37  188.86
  -1   2   011473.33  183.17
  -1   2   011112.09  175.94
   1  -2   110194.98  162.72
   1  -2   110188.74  163.61
   1  -2   110318.91  164.20
   1  -2   110446.33  168.64
  -1   2  -1 9937.76  159.04
  -1   2  -110563.28  168.70
  -1   2  -110632.01  172.26
  -1   2  -1 9508.15  151.01
   1  -2   292648.33  821.61
   1  -2   289618.90  796.98
  -1   2  -292971.24  823.91
  -1   2  -287358.51  777.81
   1  -2   3 4258.47   72.80
   1  -2   3 4150.23   71.86
   1  -2   3 4017.67   68.39
  -1   2  -3 4423.52   74.86
  -1   2  -3 4591.98   81.23
   1  -2   4 1377.85   30.22
   1  -2   4 1280.63   23.64
  -1   2  -4 1302.28   21.25
  -1   2  -4 1440.45   28.90
  -1   2  -4 1411.91   28.44
   1  -2   5 1404.13   24.43
   1  -2   5 1441.08   32.96
   1  -2   5 1516.05   29.02
  -1   2  -5 1467.08   24.80
  -1   2  -5 1548.63   29.80
  -1   2  -5 1452.88   25.02
   1  -2   6  220.75   14.57
   1  -2   6  245.43   20.38
   1  -2   6  265.37   17.39
  -1   2  -6  248.84   13.69
  -1   2  -6  288.29   18.31
  -1   2  -6  240.27   13.78
  -1   2  -6  190.44   14.46
   1  -2   7 4714.55  115.76
   1  -2   7 4766.52  118.08
  -1   2  -7 4939.97  122.52
  -1   2  -7 4782.95  116.35
  -1   2  -7 4695.95  114.82
   1  -2   8   11.73    7.19
   1  -2   8   19.24    9.07
   1  -2   8   33.85   17.70
  -1   2  -8    1.88    5.88
  -1   2  -8   10.55   10.25
  -1   2  -8   28.65   11.94
   1  -2   9  724.97   32.14
   1  -2   9  667.22   32.85
   1  -2   9  626.22   61.73
  -1   2  -9  758.89   36.29
  -1   2  -9  515.15   36.76
   1  -2  10   75.99   14.30
   1  -2  10  119.04   20.77
  -1   2 -10   73.95   18.27
  -1   2 -10   69.70   21.13
   1  -2  11   65.36   16.86
   1  -2  11  149.79   22.35
  -1   2 -11   50.88   19.75
  -1   2 -11  101.93   24.34
   1  -2  12   85.38   21.77
   1  -2  12   87.21   18.40
  -1   2 -12   35.84   11.76
  -1   2 -12   49.48   19.32
   1  -2  13  110.34   54.36
   1  -2  13  201.22   37.55
  -1   2 -13   69.57   33.77
  -1   2 -13  161.19   31.44
   1  -1 -12   58.59   21.26
   1  -1 -12  160.25   37.83
  -1   1  12   83.91   36.06
   1  -1 -11  145.00   18.79
   1  -1 -11  171.36   32.66
  -1   1  11  234.28   37.95
  -1   1  11  141.76   17.09
   1  -1 -10 1553.21   74.14
  -1   1  10 1365.17   64.21
  -1   1  10 1590.63   81.03
   1  -1  -9  476.28   48.44
   1  -1  -9  546.11   40.15
  -1   1   9  527.91   36.57
  -1   1   9  516.70   51.22
   1  -1  -8 1080.82   44.00
   1  -1  -8 1281.00   58.89
  -1   1   8 1173.35   46.91
  -1   1   8 1175.22   51.98
  -1   1   8 1141.61   45.35
   1  -1  -7 1004.36   25.03
   1  -1  -7 1132.91   29.49
   1  -1  -7 1139.45   40.54
  -1   1   7  948.72   23.74
  -1   1   7 1042.14   31.01
  -1   1   7  992.96   26.05
   1  -1  -6  767.71   25.18
   1  -1  -6  839.73   27.68
   1  -1  -6  833.95   31.19
   1  -1  -6  763.41   26.39
  -1   1   6  783.24   25.45
  -1   1   6  868.97   29.20
  -1   1   6  799.46   30.10
   1  -1  -5  733.10   28.83
   1  -1  -5  808.43   22.49
   1  -1  -5  930.94   35.18
   1  -1  -5  790.34   25.05
  -1   1   5  798.70   28.27
  -1   1   5  798.45   22.84
  -1   1   5  798.32   26.62
  -1   1   5  734.13   22.08
   1  -1  -410224.68  100.71
   1  -1  -410527.45  103.00
   1  -1  -4 9741.75  102.02
   1  -1  -4 9683.09   98.59
  -1   1   410603.09  105.87
  -1   1   410399.77  101.80
  -1   1   410255.33  106.98
  -1   1   410939.93  110.94
   1  -1  -3   99.02    8.03
   1  -1  -3  114.77   12.55
   1  -1  -3  119.18   10.57
  -1   1   3  100.07    7.32
  -1   1   3  131.82   10.22
  -1   1   3  127.92   13.67
  -1   1   3  131.32    8.87
   1  -1  -214699.38  232.82
   1  -1  -215784.66  251.04
   1  -1  -214463.49  230.10
  -1   1   214865.89  236.82
  -1   1   215046.09  237.65
  -1   1   215470.61  245.63
  -1   1   216289.13  257.85
   1  -1  -1 1610.35   30.38
   1  -1  -1 1609.87   35.32
   1  -1  -1 1548.24   29.35
   1  -1  -1 1623.41   31.19
  -1   1   1 1546.14   30.47
  -1   1   1 1584.00   28.82
  -1   1   1 1568.16   30.42
  -1   1   1 1680.02   31.85
   1  -1   0 1494.40   26.69
   1  -1   0 1513.20   28.19
   1  -1   0 1556.87   29.02
   1  -1   0 1502.80   29.39
  -1   1   0 1521.51   29.65
  -1   1   0 1553.32   28.31
  -1   1   0 1538.65   27.65
  -1   1   0 1568.61   28.76
   1  -1   1  115.39    6.53
   1  -1   1  161.43    8.61
   1  -1   1  178.22    9.90
  -1   1  -1  161.07    8.53
  -1   1  -1  157.36   11.15
  -1   1  -1  186.93   17.58
   1  -1   2 1797.48   34.14
   1  -1   2 1866.31   36.73
   1  -1   2 1721.35   31.43
  -1   1  -2 1682.46   31.35
  -1   1  -2 1958.23   38.79
   1  -1   353076.15  474.64
  -1   1  -348229.24  433.54
  -1   1  -351480.55  458.80
   1  -1   4 5586.59   94.16
   1  -1   4 5902.53   99.30
  -1   1  -4 5795.43   97.11
  -1   1  -4 6342.47  106.33
  -1   1  -4 5782.15   96.10
  -1   1  -4 5738.15   96.40
   1  -1   514938.32  144.57
   1  -1   514770.12  143.65
  -1   1  -515217.64  146.72
  -1   1  -514917.66  143.43
  -1   1  -514722.46  141.37
   1  -1   6   99.42   12.12
   1  -1   6   57.54    8.27
   1  -1   6   71.33   11.05
  -1   1  -6   58.99    8.94
  -1   1  -6   67.46    8.62
  -1   1  -6   68.42    7.96
  -1   1  -6   99.28   11.94
   1  -1   7  638.51   24.85
   1  -1   7  609.40   23.88
   1  -1   7  550.50   22.32
  -1   1  -7  633.81   24.25
  -1   1  -7  658.14   24.30
  -1   1  -7  580.38   21.06
  -1   1  -7  654.66   33.21
   1  -1   8 3745.62   82.85
   1  -1   8 4023.06   90.78
  -1   1  -8 3759.84   82.32
   1  -1   9  568.83   37.63
   1  -1   9  648.50   65.99
   1  -1   9  569.76   37.68
  -1   1  -9  670.22   72.83
  -1   1  -9  684.98   35.11
   1  -1  10   88.66   19.11
   1  -1  10  100.41   25.47
   1  -1  10   44.03   11.90
  -1   1 -10   40.13    7.48
  -1   1 -10   81.49   21.77
   1  -1  11 1237.81   94.06
   1  -1  11 1317.12   83.91
  -1   1 -11 1267.05   78.66
  -1   1 -11 1200.87   80.54
   1  -1  12   40.85    9.86
   1  -1  12   13.82   14.24
  -1   1 -12   48.54   16.80
  -1   1 -12   39.35   14.95
   1  -1  13   26.34   12.74
   1  -1  13    5.48   13.15
  -1   1 -13   45.49   26.60
   1   0 -13  555.75   52.97
  -1   0  13  489.90   47.01
   1   0 -12  458.88   58.73
   1   0 -12  371.87   51.56
  -1   0  12  365.28   51.12
   1   0 -11  141.80   26.70
   1   0 -11  239.07   29.81
  -1   0  11  243.26   30.25
  -1   0  11  161.75   29.58
   1   0 -10   25.82   11.80
   1   0 -10   35.25   16.51
  -1   0  10   18.81   13.68
  -1   0  10   21.66   12.30
   1   0  -9   18.14    8.05
   1   0  -9   37.91   22.17
  -1   0   9   15.21    9.52
  -1   0   9   44.28   18.22
  -1   0   9   -3.71    6.28
   1   0  -8 1379.67   34.73
   1   0  -8 1442.22   37.46
  -1   0   8 1433.13   38.58
  -1   0   8 1347.47   36.12
  -1   0   8 1454.98   45.00
   1   0  -7  871.14   26.38
   1   0  -7  801.36   25.33
   1   0  -7  844.73   33.82
  -1   0   7  612.97   27.02
  -1   0   7  865.70   28.35
   1   0  -6 4887.84  122.01
   1   0  -6 4658.71  116.37
   1   0  -6 4959.24  126.43
  -1   0   6 5123.92  132.82
  -1   0   6 5102.99  129.30
   1   0  -5    7.37    5.09
   1   0  -5   17.12    7.64
   1   0  -5   16.03    9.25
   1   0  -5   21.04   11.67
  -1   0   5    6.93    8.07
  -1   0   5   -5.60   10.66
  -1   0   5   47.51   15.52
   1   0  -4  770.50   17.81
   1   0  -4  824.31   18.99
   1   0  -4  802.19   21.80
   1   0  -4  785.90   27.17
  -1   0   4  791.54   41.06
  -1   0   4  791.84   24.60
  -1   0   4  851.71   25.25
   1   0  -3  152.84    9.12
   1   0  -3  164.33    8.34
   1   0  -3  145.35   10.84
   1   0  -3  147.86    9.62
  -1   0   3  177.20   13.07
  -1   0   3  107.70    9.53
  -1   0   3  201.34   17.03
  -1   0   3  231.77   30.76
   1   0  -2 1878.70   31.72
   1   0  -2 1840.78   34.99
   1   0  -2 1815.67   33.40
  -1   0   2 1733.84   32.73
  -1   0   2 1779.07   34.16
  -1   0   2 1855.70   34.47
  -1   0   2 1970.69   33.30
  -1   0   2 1877.45   35.14
   1   0  -1 1431.81   24.45
   1   0  -1 1413.01   26.60
   1   0  -1 1458.32   27.38
   1   0  -1 1422.22   25.36
  -1   0   1 1510.43   25.60
  -1   0   1 1494.34   28.15
  -1   0   1 1469.00   27.89
  -1   0   1 1409.72   25.43
   1   0   0 2206.43   37.32
   1   0   0 2264.41   38.83
   1   0   0 2362.80   40.26
  -1   0   0 2224.84   36.83
  -1   0   0 2238.12   38.58
  -1   0   0 2327.25   39.65
  -1   0  -1 8150.83  130.02
   1   0   240762.28  363.48
   1   0   243425.70  385.96
  -1   0  -240939.41  364.69
   1   0   3  441.51   15.24
   1   0   3  502.08   14.31
   1   0   3  508.81   16.64
  -1   0  -3  512.53   17.11
  -1   0  -3  498.44   13.31
  -1   0  -3  527.09   14.86
  -1   0  -3  507.83   18.29
   1   0   4   10.22   13.45
   1   0   4   23.52    8.27
   1   0   4   27.96   12.87
  -1   0  -4    7.73   10.93
  -1   0  -4   20.51    8.15
  -1   0  -4    9.90    7.96
  -1   0  -4   12.10   11.01
   1   0   5  269.53   16.82
   1   0   5  250.91   15.05
   1   0   5  240.91   11.51
  -1   0  -5  218.98   13.18
  -1   0  -5  246.39   11.31
  -1   0  -5  277.49   13.63
  -1   0  -5  277.79   17.79
   1   0   6   83.02   14.44
   1   0   6   91.81    8.10
   1   0   6   81.96   12.43
  -1   0  -6   72.74    8.88
  -1   0  -6   96.86    9.98
  -1   0  -6   78.57    9.86
  -1   0  -6  109.94   12.32
  -1   0  -7 3828.11   63.45
   1   0   8  182.56   31.63
   1   0   8  186.94   22.47
   1   0   8  118.88   12.70
  -1   0  -8  171.25   23.40
  -1   0  -8  164.35   21.66
   1   0   9 6571.80  268.49
   1   0   9 6551.85  267.68
  -1   0  -9 6583.66  266.26
   1   0  10  286.79   50.48
   1   0  10  330.09   33.06
  -1   0 -10  230.17   33.04
  -1   0 -10  280.95   34.58
   1   0  11 1510.17  104.18
   1   0  11 1641.01  102.51
  -1   0 -11 1450.28   92.13
   1   0  12   79.67   23.81
   1   0  12  107.36   30.81
  -1   0 -12   80.36   22.88
   1   0  13  211.35   32.25
  -1   0 -13  163.32   24.59
   1   1 -13  818.80   69.11
  -1  -1  13  801.88   65.61
  -1  -1  13  740.35   57.78
   1   1 -12 3351.97  190.59
  -1  -1  12 3064.79  175.25
  -1  -1  12 3714.74  215.83
   1   1 -11 1172.14   56.60
   1   1 -11  854.34   48.68
  -1  -1  11 1047.88   57.70
  -1  -1  11 1056.79   53.19
   1   1 -10 3680.67  179.14
  -1  -1  10 4023.78  200.38
   1   1  -9 4294.79  140.89
   1   1  -9 4675.18  156.93
  -1  -1   9 4531.46  154.19
   1   1  -8  837.42   72.15
   1   1  -8  960.79   25.38
   1   1  -8 1038.50   51.85
  -1  -1   8  877.04   27.38
  -1  -1   8  972.38   35.26
  -1  -1   8  858.99   24.81
   1   1  -7   33.96   11.01
   1   1  -7   40.07    5.71
   1   1  -7   27.11   12.17
  -1  -1   7   43.52    8.87
  -1  -1   7   63.47   17.28
  -1  -1   7   47.97   10.25
   1   1  -6  802.59   24.86
   1   1  -6  747.81   18.85
   1   1  -6  730.91   29.98
   1   1  -6  805.68   26.98
  -1  -1   6  768.67   23.89
  -1  -1   6  737.54   19.64
  -1  -1   6  764.53   26.06
  -1  -1   6  758.68   25.43
   1   1  -5 1705.55   28.16
   1   1  -5 1674.42   21.77
   1   1  -5 1801.26   32.33
   1   1  -5 1685.41   30.13
  -1  -1   5 1777.15   31.52
  -1  -1   5 1759.93   24.79
  -1  -1   5 1648.67   30.52
  -1  -1   5 1664.12   28.94
   1   1  -4 4008.34   69.45
   1   1  -4 3930.21   64.29
   1   1  -4 4342.11   77.81
   1   1  -4 4378.15   77.03
  -1  -1   4 4170.54   73.42
  -1  -1   4 4197.89   68.90
  -1  -1   4 4182.21   73.97
  -1  -1   4 4321.40   74.57
   1   1  -3 5577.77   92.15
   1   1  -3 5367.74   85.17
   1   1  -3 6178.47  102.80
   1   1  -3 6149.16  103.88
  -1  -1   3 5985.27   99.53
  -1  -1   3 5750.06   91.22
  -1  -1   3 6146.47  101.22
  -1  -1   3 5775.62   97.22
   1   1  -2   16.89    8.70
   1   1  -2    3.87    5.13
   1   1  -2    4.68    6.08
  -1  -1   2   -7.43    8.69
  -1  -1   2    6.02    7.44
  -1  -1   2   15.59    8.81
   1   1  -1   12.57    3.03
   1   1  -1   25.79    5.90
   1   1  -1    3.10    5.66
  -1  -1   1   13.86    2.67
  -1  -1   1   25.14    6.59
  -1  -1   1   20.93    5.18
   1   1   011955.32  188.81
  -1  -1   011617.51  183.25
  -1  -1   012227.44  193.19
   1   1   1 1822.06   33.92
   1   1   1 1757.14   29.57
   1   1   1 1859.24   33.16
  -1  -1  -1 1803.66   33.57
  -1  -1  -1 1735.37   29.32
  -1  -1  -1 1691.33   29.86
   1   1   2 6922.02  114.06
   1   1   2 6282.85   98.99
   1   1   2 6526.55  106.53
  -1  -1  -2 6085.10  100.28
  -1  -1  -2 7151.55  113.01
  -1  -1  -2 6628.78  107.66
   1   1   3 7560.60  125.21
   1   1   3 7038.30  111.28
   1   1   3 7359.01  121.34
  -1  -1  -3 7389.35  121.95
  -1  -1  -3 7509.19  118.88
  -1  -1  -3 7516.65  123.08
  -1  -1  -3 7878.32  130.65
   1   1   4  621.97   42.29
   1   1   4  594.65   11.42
   1   1   4  493.04   17.40
  -1  -1  -4  541.07   16.44
  -1  -1  -4  572.47   11.53
  -1  -1  -4  572.70   16.44
  -1  -1  -4  611.33   24.28
   1   1   5 8504.42  158.95
   1   1   5 7357.75  132.26
   1   1   5 8661.69  161.70
  -1  -1  -5 8536.79  158.44
  -1  -1  -5 8334.20  150.35
  -1  -1  -5 8098.21  149.97
   1   1   6  155.81   34.14
   1   1   6  112.68    6.90
   1   1   6  158.96   14.14
  -1  -1  -6  119.51   10.50
  -1  -1  -6  167.58   18.37
  -1  -1  -6  138.93   12.77
  -1  -1  -6  126.15   14.25
   1   1   7  631.67   55.68
   1   1   7  624.70   43.64
   1   1   7  621.96   40.71
  -1  -1  -7  580.37   44.26
  -1  -1  -7  668.30   49.17
   1   1   8 1374.56   78.55
   1   1   8 1358.77   50.82
   1   1   8 1392.36   60.09
  -1  -1  -8 1411.00   61.00
   1   1   9  647.43   67.93
   1   1   9  550.70   29.62
   1   1   9  597.03   31.59
   1   1   9  630.24   38.94
  -1  -1  -9  713.52   51.65
   1   1  10   58.57   13.93
   1   1  10   21.56    6.26
   1   1  10   33.32   14.01
  -1  -1 -10   90.85   31.01
   1   1  11  645.39   64.22
  -1  -1 -11  495.63   53.56
   1   1  12  248.10   46.14
  -1  -1 -12  291.46   49.19
  -1  -1 -12  315.19   56.67
   1   2 -13  540.55   46.39
  -1  -2  13  633.31   49.33
   1   2 -12 1126.19   73.63
  -1  -2  12 1242.45   80.80
   1   2 -11 3318.67  146.81
   1   2 -11 3401.98  155.05
   1   2 -11 2159.30  103.51
  -1  -2  11 3599.38  165.55
   1   2 -10   39.18   14.83
   1   2 -10   49.47    8.40
   1   2 -10   74.41   21.83
  -1  -2  10   29.57   14.22
  -1  -2  10   49.12   11.36
   1   2  -9  254.71   33.00
   1   2  -9  241.90   17.68
   1   2  -9  260.86   23.72
  -1  -2   9  218.22   20.77
  -1  -2   9  252.81   23.14
   1   2  -8  434.40   48.27
   1   2  -8  381.05   28.22
   1   2  -8  353.25   32.92
  -1  -2   8  329.43   29.49
  -1  -2   8  331.04   30.68
   1   2  -7 1405.54   44.97
   1   2  -7 1285.82   33.39
   1   2  -7 1358.27   69.79
  -1  -2   7 1253.74   38.59
  -1  -2   7 1419.27   43.51
  -1  -2   7 1433.37   39.87
   1   2  -6 3597.10   72.93
   1   2  -6 3461.07   64.58
   1   2  -6 3744.31   84.69
   1   2  -6 3595.36   71.70
  -1  -2   6 3621.94   73.68
  -1  -2   6 3570.59   67.02
   1   2  -5  401.34   13.95
   1   2  -5  399.12    8.54
   1   2  -5  424.11   28.47
   1   2  -5  457.92   16.71
  -1  -2   5  402.06   16.51
  -1  -2   5  445.75   10.64
  -1  -2   5  422.15   17.28
  -1  -2   5  447.38   17.04
   1   2  -4  873.76   18.55
   1   2  -4  774.32   10.96
   1   2  -4  887.77   44.49
  -1  -2   4  877.58   21.40
  -1  -2   4  804.28   22.54
  -1  -2   4  809.70   11.59
  -1  -2   4  959.50   21.32
   1   2  -313380.46  209.45
   1   2  -314611.28  243.60
   1   2  -315114.77  240.53
  -1  -2   314601.57  232.80
  -1  -2   314955.96  240.77
  -1  -2   315385.31  244.23
   1   2  -211182.63  187.55
   1   2  -210108.57  158.83
   1   2  -210468.81  166.80
  -1  -2   211326.44  183.37
  -1  -2   210357.53  162.71
  -1  -2   211000.01  174.93
   1   2  -1 6046.61  103.94
   1   2  -1 5620.83   91.06
  -1  -2   1 6056.83   97.19
  -1  -2   1 6154.46  102.18
  -1  -2   1 6179.45  101.39
  -1  -2   1 5987.79   96.55
  -1  -2   1 6030.00   96.63
   1   2   0   86.93   12.82
   1   2   0   41.08    6.32
  -1  -2   0   36.03    4.92
  -1  -2   0   48.71    6.92
  -1  -2   0   67.04   11.58
  -1  -2   0   72.87    7.24
  -1  -2   0   54.66    5.74
   1   2   1 4755.78   81.01
   1   2   1 4519.19   73.04
   1   2   1 4700.28   79.43
  -1  -2  -1 4875.30   82.27
  -1  -2  -1 4543.49   73.39
  -1  -2  -1 4691.87   78.64
   1   2   2 1422.53   31.04
   1   2   2 1503.61   32.03
  -1  -2  -2 1686.72   34.78
  -1  -2  -2 1650.10   33.08
  -1  -2  -2 1725.00   35.14
   1   2   3 3329.98   46.23
   1   2   3 3359.35   44.76
  -1  -2  -3 3294.57   43.30
  -1  -2  -3 3248.50   41.70
  -1  -2  -3 3408.16   45.73
   1   2   412023.07  221.16
   1   2   411423.95  209.63
  -1  -2  -411393.99  208.03
  -1  -2  -411436.28  208.39
   1   2   5  910.59   61.85
   1   2   5  911.24   33.79
  -1  -2  -5  976.18   32.61
  -1  -2  -5  900.62   31.51
  -1  -2  -5  947.87   35.45
   1   2   6 1514.32   72.42
   1   2   6 1548.02   23.10
   1   2   6 1633.67   39.27
  -1  -2  -6 1676.20   44.37
   1   2   7  306.36   52.79
   1   2   7  254.26   18.21
   1   2   7  286.29   26.42
  -1  -2  -7  291.68   29.17
   1   2   8 1131.87   47.18
   1   2   8 1125.30   37.47
   1   2   8 1165.88   48.69
  -1  -2  -8 1092.69   53.72
   1   2   9  863.03   21.27
   1   2   9  983.69   38.27
  -1  -2  -9  985.97   39.49
   1   2  10   63.91   19.78
  -1  -2 -10   50.57   17.13
  -1  -2 -10   33.17   14.98
   1   2  11  304.62   46.55
  -1  -2 -11  277.45   40.84
  -1  -2 -11  270.05   43.15
   1   2  12  377.72   40.78
  -1  -2 -12  409.87   39.41
  -1  -2 -12  358.37   38.39
   1   3 -13 3077.89  172.46
   1   3 -13 2088.61  120.92
  -1  -3  13 3266.90  183.27
   1   3 -12 4270.31  181.89
   1   3 -12 3777.21  161.11
  -1  -3  12 4691.78  201.14
   1   3 -11  571.75   78.91
   1   3 -11  518.19   42.86
  -1  -3  11  480.87   44.05
  -1  -3  11  522.13   43.89
   1   3 -10 3641.83  181.91
   1   3 -10 3336.25  166.36
  -1  -3  10 3740.74  183.08
  -1  -3  10 3707.41  184.57
   1   3  -9 2243.77   81.69
   1   3  -9 2277.90   75.94
   1   3  -9 2151.55   77.52
  -1  -3   9 2300.38   82.71
  -1  -3   9 2465.93   83.19
   1   3  -8 2756.93   64.05
   1   3  -7 7919.01  484.08
   1   3  -7 7294.51  170.28
   1   3  -7 7499.61  459.37
  -1  -3   7 6599.15  160.11
  -1  -3   7 7994.67  489.11
  -1  -3   7 7365.12  172.26
  -1  -3   7 6738.50  161.29
   1   3  -6 2497.37   67.39
   1   3  -6 2596.68   64.98
   1   3  -6 2473.14   73.67
  -1  -3   6 2451.86   67.50
  -1  -3   6 2574.27   71.25
  -1  -3   6 2505.23   63.38
  -1  -3   6 2551.90   67.26
   1   3  -5 1113.55   30.86
   1   3  -5 1054.09   21.78
   1   3  -5 1119.32   34.41
  -1  -3   5 1104.52   31.48
  -1  -3   5 1032.06   28.15
  -1  -3   5 1050.90   22.59
  -1  -3   5 1177.57   29.66
   1   3  -4  593.21   15.72
   1   3  -4  587.91    9.99
   1   3  -4  430.30   23.34
  -1  -3   4  563.77   18.77
  -1  -3   4  548.36   17.84
  -1  -3   4  571.44   11.40
  -1  -3   4  616.83   14.82
   1   3  -3 6174.34   98.80
   1   3  -3 6160.65  101.02
  -1  -3   3 6244.65  100.35
  -1  -3   3 6628.15  112.91
  -1  -3   3 6497.93  105.86
   1   3  -2   27.01    8.32
   1   3  -2   22.81    5.38
   1   3  -2   31.21   16.42
  -1  -3   2   30.97    8.30
  -1  -3   2   15.01    4.47
  -1  -3   2    4.93    4.77
  -1  -3   2   -4.24    2.77
   1   3  -1 2891.68   61.81
   1   3  -1 2804.10   49.19
   1   3  -1 2695.17   46.54
   1   3  -1 2982.89   57.28
  -1  -3   1 2869.11   49.88
  -1  -3   1 2773.08   50.22
  -1  -3   1 2888.78   52.97
  -1  -3   1 2777.84   47.19
   1   3   0   46.47   13.33
   1   3   0   19.65   11.95
  -1  -3   0    4.33    7.00
  -1  -3   0   -3.72    4.76
  -1  -3   0   19.24    5.49
  -1  -3   0    8.23    3.55
   1   3   1 6261.37   68.98
  -1  -3  -1 6613.10   70.31
  -1  -3  -1 6829.83   66.74
  -1  -3  -1 6683.42   72.43
  -1  -3  -1 6457.77   69.52
   1   3   2 6686.70   62.25
  -1  -3  -2 6912.75   74.40
  -1  -3  -2 7309.48   78.53
  -1  -3  -2 7225.96   77.58
   1   3   3  161.85   13.61
  -1  -3  -3  145.65   11.39
  -1  -3  -3   93.89    9.72
  -1  -3  -3  117.10   10.99
  -1  -3  -3  174.90   12.12
   1   3   4 1283.92   42.05
  -1  -3  -4 1245.38   40.27
  -1  -3  -4 1239.18   38.11
  -1  -3  -4 1195.46   37.44
  -1  -3  -4 1252.46   39.91
   1   3   5 2213.17   62.09
  -1  -3  -5 2072.62   58.38
  -1  -3  -5 2063.27   56.69
  -1  -3  -5 1778.53   52.21
   1   3   6 4642.58  103.09
  -1  -3  -6 4538.81   99.45
   1   3   7  745.73   39.21
  -1  -3  -7  760.40   34.22
  -1  -3  -7  696.27   35.57
   1   3   8  243.93   32.81
  -1  -3  -8  165.48   20.86
  -1  -3  -8  241.36   31.09
   1   3   9  876.56   49.44
  -1  -3  -9  812.69   45.08
   1   3  10  241.27   31.33
  -1  -3 -10  226.83   30.07
  -1  -3 -10  222.30   27.34
   1   3  11  190.99   37.31
  -1  -3 -11  147.43   29.92
  -1  -3 -11  183.05   35.25
   1   4 -13   40.40   22.42
   1   4 -13   36.44   17.57
  -1  -4  13   20.92   15.90
   1   4 -12  667.68   74.98
   1   4 -12  713.00   51.44
  -1  -4  12  542.53   44.61
  -1  -4  12  819.81   57.19
   1   4 -11 5505.05  245.76
   1   4 -11 4980.93  222.45
  -1  -4  11 5680.13  923.50
  -1  -4  11 5850.90  951.86
   1   4 -10   -5.77   13.00
   1   4 -10   18.63    6.88
   1   4 -10   66.44   19.62
  -1  -4  10   57.27   15.19
  -1  -4  10   50.48   10.91
   1   4  -9 2132.27   89.87
   1   4  -9 2088.28   69.93
   1   4  -9 2237.95   81.01
  -1  -4   9 2163.78   80.54
  -1  -4   9 2161.63   72.80
   1   4  -8 1127.30   80.28
   1   4  -8 1205.44   28.66
   1   4  -8 1285.83   39.49
  -1  -4   8 1232.29   40.89
  -1  -4   8 1128.08   28.12
   1   4  -7 4702.56   83.88
   1   4  -7 4510.75   66.23
   1   4  -7 4498.36   74.33
  -1  -4   7 4621.53   77.39
  -1  -4   7 4568.71   67.38
  -1  -4   7 4679.12   74.69
   1   4  -617515.33 1064.44
   1   4  -619036.85 1158.10
  -1  -4   618038.77 1096.33
  -1  -4   619207.42 1169.08
  -1  -4   618588.07 1130.56
   1   4  -5  614.92   20.25
   1   4  -5  570.75   14.37
   1   4  -5  581.20   26.14
  -1  -4   5  631.67   24.67
  -1  -4   5  578.74   21.94
  -1  -4   5  559.18   17.91
  -1  -4   5  569.80   19.96
   1   4  -4 1429.71   41.36
   1   4  -4 1488.10   30.10
   1   4  -4 1466.65   32.46
  -1  -4   4 1461.13   36.31
  -1  -4   4 1477.61   30.85
  -1  -4   4 1573.12   33.92
   1   4  -3 1760.26   23.29
   1   4  -3 1880.55   24.11
   1   4  -3 1981.49   38.44
  -1  -4   3 1917.70   35.25
  -1  -4   3 2015.09   47.64
  -1  -4   3 1865.16   24.82
  -1  -4   3 1950.68   25.19
   1   4  -2  222.44   10.36
   1   4  -2  198.12    8.65
   1   4  -2  253.65   18.05
  -1  -4   2  215.89   12.12
  -1  -4   2  273.88   23.32
  -1  -4   2  193.23    8.87
  -1  -4   2  210.04    6.42
   1   4  -115074.41  142.24
   1   4  -114646.95  144.88
   1   4  -114465.43  141.75
  -1  -4   114532.66  141.16
  -1  -4   114364.60  140.54
  -1  -4   113601.43  124.59
   1   4   0 5284.03   60.74
   1   4   0 5103.41   78.84
  -1  -4   0 5275.78   59.70
  -1  -4   0 5185.40   57.02
  -1  -4   0 4818.81   54.36
  -1  -4   0 5068.82   59.02
  -1  -4   0 5190.27   54.41
   1   4   1   34.45    5.60
   1   4   1   42.06   12.94
  -1  -4  -1   33.20   11.75
  -1  -4  -1   29.76    4.52
  -1  -4  -1   27.87    9.95
  -1  -4  -1   31.19   10.82
  -1  -4  -1   30.45    4.78
   1   4   2 5134.12   93.42
   1   4   2 5513.17  107.95
  -1  -4  -2 5516.22  106.60
  -1  -4  -2 5221.09   94.75
  -1  -4  -2 4885.66   94.82
  -1  -4  -2 5427.19  104.95
  -1  -4  -2 5019.51   95.21
   1   4   3 1024.03   35.95
  -1  -4  -3 1051.92   36.67
  -1  -4  -3  850.68   58.22
  -1  -4  -3  939.18   31.09
  -1  -4  -3 1038.91   35.57
   1   4   4    9.29   10.93
  -1  -4  -4   -7.75    8.54
  -1  -4  -4   19.33    7.00
  -1  -4  -4    3.68    7.93
  -1  -4  -5 8102.27  166.05
   1   4   6 2440.97   90.29
  -1  -4  -6 2322.25   83.88
  -1  -4  -6 2193.94   81.09
   1   4   7 2265.94  116.79
  -1  -4  -7 2113.70  109.00
  -1  -4  -7 2082.32  106.45
   1   4   8   34.37   15.85
  -1  -4  -8   -4.16   10.07
  -1  -4  -8   36.89   14.24
   1   4   9   66.04   22.08
  -1  -4  -9   35.33   13.07
  -1  -4  -9   29.03   14.82
   1   4  10  456.25   64.22
  -1  -4 -10  326.57   47.46
   1   4  11   64.84   27.23
  -1  -4 -11   58.49   21.32
  -1  -4 -11   66.36   20.77
   1   5 -13   43.05   17.32
   1   5 -13   26.60   16.16
  -1  -5  13   26.43   22.57
   1   5 -12   43.01   15.16
   1   5 -12   18.22   13.87
  -1  -5  12   29.52   14.59
   1   5 -11   61.14   20.10
   1   5 -11   72.06   21.11
  -1  -5  11  102.99   19.98
  -1  -5  11  135.24   29.32
   1   5 -10 1576.67   55.57
   1   5 -10 1689.42   51.17
  -1  -5  10 1634.70   42.92
  -1  -5  10 1818.11   56.50
   1   5  -9  905.72   72.40
   1   5  -9  943.13   46.06
  -1  -5   9  877.63   39.36
  -1  -5   9  804.64   45.89
   1   5  -8  716.76   39.23
   1   5  -8  775.99   30.27
   1   5  -8  721.71   33.00
  -1  -5   8  788.62   39.81
  -1  -5   8  764.26   30.94
  -1  -5   8  650.12   29.98
   1   5  -7  683.45   54.50
   1   5  -7  602.36   42.64
   1   5  -7  611.77   46.25
  -1  -5   7  621.47   48.79
  -1  -5   7  601.48   42.96
  -1  -5   7  626.46   46.38
   1   5  -6  368.04   29.05
   1   5  -6  480.04   31.20
   1   5  -6  483.70   33.74
  -1  -5   6  482.06   36.05
  -1  -5   6  479.70   32.01
  -1  -5   6  506.23   34.00
   1   5  -5   39.36   20.31
   1   5  -5   14.07    5.51
   1   5  -5   11.15    5.81
  -1  -5   5   22.32    9.57
  -1  -5   5    4.33    3.82
  -1  -5   5   15.24    5.88
   1   5  -4 1218.81   33.22
   1   5  -4 1334.10   36.55
   1   5  -4 1210.32   42.07
  -1  -5   4 1290.47   42.61
  -1  -5   4 1317.05   48.40
  -1  -5   4 1363.36   39.01
  -1  -5   4 1379.82   37.22
   1   5  -3 1690.13   43.00
   1   5  -3 2028.84   53.65
   1   5  -3 1867.26   58.19
  -1  -5   3 1844.20   56.21
  -1  -5   3 1795.46   74.66
  -1  -5   3 1847.14   50.89
  -1  -5   3 1861.58   47.13
   1   5  -2  366.90   20.21
   1   5  -2  476.88   15.71
  -1  -5   2  451.52   16.66
  -1  -5   2  411.99   19.70
  -1  -5   2  463.08   18.64
  -1  -5   2  393.41    9.58
   1   5  -1  384.38   18.85
   1   5  -1  349.36   13.04
   1   5  -1  370.66   19.79
  -1  -5   1  400.60   17.87
  -1  -5   1  373.57   16.27
  -1  -5   1  365.86   17.63
  -1  -5   1  384.38   10.73
   1   5   0 1391.83   41.26
   1   5   0 1362.36   54.43
  -1  -5   0 1439.25   46.30
  -1  -5   0 1491.49   43.34
  -1  -5   0 1434.03   43.17
  -1  -5   0 1393.18   47.22
  -1  -5   0 1236.36   32.96
   1   5   1 5632.38  139.71
   1   5   1 6584.38  166.59
  -1  -5  -1 5766.11  145.92
  -1  -5  -1 6224.86  153.92
  -1  -5  -1 5571.87  140.11
  -1  -5  -1 6433.89  162.24
   1   5   2  408.07   13.61
   1   5   2  398.73   21.62
  -1  -5  -2  441.97   20.96
  -1  -5  -2  363.11   13.01
  -1  -5  -2  425.97   19.01
  -1  -5  -2  424.89   17.58
   1   5   3  450.23   29.20
   1   5   3  505.46   38.18
  -1  -5  -3  484.03   37.32
  -1  -5  -3  452.91   28.51
  -1  -5  -3  461.55   32.30
   1   5   4   67.50   17.69
  -1  -5  -4   40.84   14.58
  -1  -5  -4   47.45    9.79
   1   5   5 3799.72  132.37
  -1  -5  -5 3547.37  122.98
  -1  -5  -5 2872.92   98.99
   1   5   6 7275.78 1244.95
  -1  -5  -6 6336.06 1084.11
   1   5   7  265.30   26.62
  -1  -5  -7  332.47   29.96
  -1  -5  -7  298.09   27.99
   1   5   8 2691.51  119.48
  -1  -5  -8 2747.03  121.52
  -1  -5  -8 2550.05  112.24
   1   5   9   69.19   27.17
  -1  -5  -9   40.68   19.44
  -1  -5  -9   58.31   23.18
   1   5  10   77.74   20.89
   1   6 -13   61.54   32.76
   1   6 -13   52.33   24.78
  -1  -6  13  133.87   32.71
   1   6 -12  161.16   64.92
   1   6 -12  361.29   52.28
  -1  -6  12  275.98   42.86
   1   6 -11 2196.25  133.33
   1   6 -11 2582.76  114.15
  -1  -6  11 2797.67  124.35
   1   6 -10   86.98   26.65
   1   6 -10   90.95   19.31
  -1  -6  10  108.47   18.73
  -1  -6  10   72.91   18.27
   1   6  -9 4698.41  233.27
   1   6  -9 4640.58  225.97
  -1  -6   9 4612.69  222.39
  -1  -6   9 5127.51  252.01
   1   6  -8  487.77   39.62
   1   6  -8  461.03   27.95
   1   6  -8  505.48   34.02
  -1  -6   8  512.36   40.01
  -1  -6   8  524.06   31.51
  -1  -6   8  424.41   28.51
   1   6  -7   30.87   16.34
   1   6  -7   42.71    6.25
   1   6  -7   40.30   11.99
  -1  -6   7   50.05   11.61
  -1  -6   7   38.14    7.55
  -1  -6   7   64.63   12.47
   1   6  -6 4543.22   92.00
   1   6  -6 4324.63   88.72
  -1  -6   6 4473.89   92.10
  -1  -6   6 4726.47  102.85
  -1  -6   6 4057.08   82.66
   1   6  -5   32.50   19.67
   1   6  -5   43.65    5.83
   1   6  -5   26.39    5.21
  -1  -6   5   33.78    9.47
  -1  -6   5   36.37    5.53
   1   6  -4  824.14   33.46
   1   6  -4  776.45   55.13
   1   6  -4  711.17   44.42
  -1  -6   4  765.78   54.95
  -1  -6   4  748.00   51.89
   1   6  -3 1348.89   45.50
   1   6  -3 1400.10   38.91
  -1  -6   3 1500.71   42.45
  -1  -6   3 1376.89   44.16
   1   6  -2 5689.93  141.74
   1   6  -2 5730.28  137.38
  -1  -6   2 5541.45  133.93
  -1  -6   2 5388.02  132.58
   1   6  -1  776.05   27.93
   1   6  -1  599.98   20.62
   1   6  -1  896.08   57.39
  -1  -6   1  753.19   28.41
  -1  -6   1  751.30   26.91
  -1  -6   1  732.13   19.06
  -1  -6   1  744.48   18.93
   1   6   0  134.78   15.35
   1   6   0  175.76   19.83
  -1  -6   0  124.91   13.90
  -1  -6   0   91.08   10.69
  -1  -6   0  128.15   13.57
  -1  -6   0  127.96   14.51
  -1  -6   0  109.77    8.46
   1   6   1 1186.36   27.75
   1   6   1 1324.88   37.06
  -1  -6  -1 1160.04   33.13
  -1  -6  -1 1220.83   27.97
  -1  -6  -1 1136.24   23.56
   1   6   2 1782.53   40.02
   1   6   2 1820.56   49.15
  -1  -6  -2 2022.13   53.67
  -1  -6  -2 1792.27   40.35
  -1  -6  -2 1710.39   41.49
   1   6   3  509.68   41.93
   1   6   3  540.09   50.19
  -1  -6  -3  500.09   44.80
  -1  -6  -3  424.06   35.22
  -1  -6  -3  435.54   38.05
   1   6   4  229.12   27.74
  -1  -6  -4  236.45   30.59
  -1  -6  -4  242.19   28.68
   1   6   5  309.72   37.54
  -1  -6  -5  309.55   35.98
  -1  -6  -5  340.48   37.34
   1   6   6  447.45   39.24
  -1  -6  -6  353.74   32.50
  -1  -6  -6  436.42   35.40
   1   6   7 1056.07   55.00
  -1  -6  -7 1069.53   55.56
  -1  -6  -7 1013.69   50.97
   1   6   8   37.38   17.83
  -1  -6  -8   36.57   16.63
  -1  -6  -8   52.52   18.91
   1   6   9  570.79   64.04
  -1  -6  -9  582.56   65.09
  -1  -6  -9  544.04   64.78
   1   7 -13  668.16  136.31
   1   7 -13  743.09   80.17
  -1  -7  13 1021.84  109.71
   1   7 -12   38.93   20.42
   1   7 -12   26.36   17.21
  -1  -7  12   41.92   24.17
   1   7 -11  873.03  103.94
   1   7 -11 1022.28   64.61
  -1  -7  11 1065.95   71.36
   1   7 -10  179.25   33.12
   1   7 -10  126.75   24.37
  -1  -7  10  149.99   27.57
  -1  -7  10  171.77   23.34
   1   7  -9   54.19   22.26
   1   7  -9   32.83    9.05
  -1  -7   9   39.07    9.90
  -1  -7   9   72.41   21.87
   1   7  -8 6509.68 1114.70
   1   7  -8 5823.27  279.75
   1   7  -8 6196.36 1059.35
  -1  -7   8 7263.91 1242.74
  -1  -7   8 6835.62 1168.39
  -1  -7   8 5037.14  242.40
   1   7  -7  151.94   26.47
   1   7  -7  117.11   13.07
   1   7  -7  151.57   17.66
  -1  -7   7  179.74   24.13
  -1  -7   7  142.07   16.58
  -1  -7   7  145.88   16.73
   1   7  -6 1726.47   76.11
   1   7  -6 1565.09   55.00
   1   7  -6 1662.11   56.91
  -1  -7   6 1803.91   63.61
   1   7  -5   63.38   16.42
   1   7  -5   36.48    6.84
   1   7  -5   50.96    6.20
  -1  -7   5   28.65    7.77
   1   7  -4  546.29   50.33
   1   7  -4  497.64   42.58
  -1  -7   4  532.97   46.16
   1   7  -3  711.17   54.45
   1   7  -3  722.17   51.94
  -1  -7   3  711.61   52.63
   1   7  -2 3213.42   76.21
  -1  -7   2 3309.92   74.74
  -1  -7   2 2854.02   67.81
   1   7  -1   62.63   12.75
   1   7  -1   60.10   11.20
  -1  -7   1   32.78    8.65
  -1  -7   1   49.71   10.44
   1   7   0 4949.81  177.08
   1   7   0 4735.04  192.95
  -1  -7   0 4733.17  170.64
  -1  -7   0 4749.63  169.67
  -1  -7   0 4330.02  151.14
  -1  -7   0 4008.98  139.85
   1   7   1  130.06   13.39
   1   7   1  159.52   18.14
  -1  -7  -1  143.17   17.21
  -1  -7  -1  133.96   13.84
  -1  -7  -1  119.93   18.24
  -1  -7  -1  144.70   10.98
   1   7   2  765.36   35.25
   1   7   2  874.35   45.44
  -1  -7  -2  844.07   43.32
  -1  -7  -2  777.07   35.04
  -1  -7  -2  754.28   34.46
   1   7   3  828.50   42.05
   1   7   3  951.94   54.31
  -1  -7  -3  926.67   55.77
  -1  -7  -3  786.43   39.52
  -1  -7  -3  861.77   45.97
   1   7   4  455.85   39.36
  -1  -7  -4  425.38   39.68
  -1  -7  -4  439.34   34.44
   1   7   5  325.76   36.51
  -1  -7  -5  267.87   30.70
  -1  -7  -5  206.64   23.04
   1   7   6   53.47   21.48
  -1  -7  -6   31.92   16.12
  -1  -7  -6    6.23    9.92
   1   7   7   19.56   16.46
  -1  -7  -7   11.59   11.51
  -1  -7  -7   16.17   14.07
   1   7   8  358.94   49.80
  -1  -7  -8  425.18   53.71
  -1  -7  -8  204.68   29.50
   1   8 -12   46.45   25.28
  -1  -8  12   42.22   24.30
   1   8 -11 2480.71  200.10
   1   8 -11 2147.80  166.79
  -1  -8  11 2715.12  212.69
   1   8 -10   21.59   15.74
   1   8 -10   35.99   13.60
  -1  -8  10   73.19   23.38
   1   8  -9 3654.79  215.09
   1   8  -9 3670.52  209.65
  -1  -8   9 4035.47  230.23
  -1  -8   9 4302.69  249.25
   1   8  -8  824.72   53.31
   1   8  -8  773.85   38.00
  -1  -8   8  918.71   46.08
  -1  -8   8  979.41   54.29
   1   8  -7   14.88   14.87
   1   8  -7   13.74    4.85
  -1  -8   7   30.31    9.97
  -1  -8   7   22.12   12.30
   1   8  -6  992.85   63.13
   1   8  -6  782.33   41.19
   1   8  -6  848.78   41.63
  -1  -8   6  962.76   52.32
   1   8  -5 1283.93   67.69
   1   8  -5  944.16   42.73
  -1  -8   5 1171.68   54.40
  -1  -8   4 3314.34  138.06
   1   8  -3  573.52   36.63
  -1  -8   3  475.38   48.77
   1   8  -2 3242.63  137.98
  -1  -8   2 3347.60  140.85
   1   8  -1   31.67   11.97
   1   8  -1   18.41   14.55
  -1  -8   1   15.77   14.23
   1   8   0  393.29   54.71
   1   8   0  427.70   44.04
  -1  -8   0  442.24   46.41
  -1  -8   0  299.39   28.28
   1   8   1 4040.09  196.48
   1   8   1 4040.00  219.81
  -1  -8  -1 4387.40  215.72
  -1  -8  -1 3742.72  181.89
  -1  -8  -1 3147.57  151.57
  -1  -8  -1 3511.11  168.92
   1   8   2   33.88   19.12
   1   8   2   29.40    8.49
  -1  -8  -2   24.79   11.41
  -1  -8  -2   30.14    7.44
   1   8   3  764.38   43.41
  -1  -8  -3  799.11   44.74
  -1  -8  -3  683.73   48.60
   1   8   4  153.44   24.40
  -1  -8  -4  185.52   23.25
  -1  -8  -4  145.78   16.52
   1   8   5   46.50   18.04
  -1  -8  -5    8.35   10.67
  -1  -8  -5   55.79   19.95
   1   8   6 2394.83  139.03
  -1  -8  -6 2284.21  131.44
  -1  -8  -6 1896.30  107.43
   1   9 -11   33.97   21.19
  -1  -9  11   21.97   17.49
   1   9 -10  995.69   68.26
  -1  -9  10 1161.29   72.41
   1   9  -9  174.03   31.60
  -1  -9   9  294.16   35.58
   1   9  -8 4261.95  184.93
  -1  -9   8 4485.45  185.83
  -1  -9   8 4503.97  190.56
   1   9  -7 1590.79  103.64
  -1  -9   7 1616.07   96.56
   1   9  -6  562.48   48.25
  -1  -9   6  572.02   43.61
   1   9  -5  411.13   37.71
  -1  -9   5  433.43   34.16
   1   9  -4  920.26   44.80
  -1  -9   4  846.83   31.09
   1   9  -3 2092.10   64.64
  -1  -9   3 1881.24   55.46
   1   9  -2  265.37   29.28
  -1  -9   2  202.13   20.97
   1   9  -1   87.05   22.49
   1   9  -1   63.94   16.23
  -1  -9   1   58.11   13.44
   1   9   0   39.46   15.03
   1   9   0   28.98   11.88
  -1  -9   0   35.47   15.55
   1   9   1  849.55   98.65
   1   9   1  794.46   66.01
  -1  -9  -1  778.61   67.74
   1   9   2  700.45   76.41
  -1  -9  -2  662.75   65.19
   1   9   3  101.33   22.90
  -1  -9  -3  150.86   24.25
   1   9   4  237.02   43.54
  -1  -9  -4  213.54   39.79
   1   9   5 1016.98   80.11
  -1  -9  -5  905.17   71.67
   1  10 -10   45.00   18.74
  -1 -10  10   87.70   18.02
   1  10  -9  119.79   29.34
  -1 -10   9   94.21   29.64
   1  10  -8  958.39   83.09
  -1 -10   8  835.98   68.37
  -1 -10   8 1127.05   92.97
   1  10  -7   78.12   19.98
   1  10  -6   13.51   15.73
  -1 -10   6    1.06    8.45
   1  10  -5   54.14   15.99
   1  10  -4 1934.40   90.93
  -1 -10   4 1707.19   78.56
   1  10  -3  521.68   56.42
  -1 -10   3  411.09   43.44
   1  10  -2 2783.28  123.08
  -1 -10   2 3011.24  131.93
   1  10  -1  946.34   63.06
   1  10  -1  926.83   60.84
  -1 -10   1  994.62   64.22
   1  10   0   43.65   19.91
  -1 -10   0   85.12   21.22
   1  10   1  844.85   92.05
  -1 -10  -1  940.88   79.17
   1  10   2   27.26   19.32
  -1 -10  -2    4.25   10.44
   1  10   3  722.66  104.86
  -1 -10  -3  874.19   94.08
   1  11  -8   31.32   21.07
  -1 -11   8   34.12   17.89
   1  11  -7  210.74   42.19
  -1 -11   7  204.08   37.49
   1  11  -6  335.82   58.43
  -1 -11   6  394.27   63.74
   1  11  -5  381.11   67.04
  -1 -11   5  213.80   38.74
   1  11  -4  160.68   34.26
  -1 -11   4  126.76   24.90
   1  11  -3    7.19   12.67
  -1 -11   3   55.45   21.60
  -1 -11   2  313.33   53.32
  -1 -11   1  173.79   32.56
   1  11   0 1209.87   96.75
  -1 -11   0 1192.19   91.60
   2 -11   0  329.56   44.17
  -2  11   0  379.70   48.43
  -2  11   0  179.41   73.59
   2 -11   1  112.71   26.26
  -2  11  -1   78.10   32.46
  -2  11  -1   26.65   11.48
   2 -11   2    2.56   10.20
  -2  11  -2   83.32   23.57
   2 -11   3 1814.13  134.49
  -2  11  -3 2031.03  153.51
   2 -11   4  276.85   48.87
  -2  11  -4  242.56   47.88
   2 -11   5  461.31   43.98
  -2  11  -5  503.83   49.25
   2 -11   6    8.11   10.07
  -2  11  -6   45.76   21.91
   2 -11   7   16.90   14.72
  -2  11  -7    5.94   14.92
   2 -10  -3  249.66   36.04
  -2  10   3  220.40   33.13
   2 -10  -2  297.73   53.36
  -2  10   2  296.06   52.82
  -2  10   2  269.12   58.45
   2 -10  -1   67.31   21.56
  -2  10   1   78.80   25.76
  -2  10   1  116.29   30.42
   2 -10   0   70.98   23.35
  -2  10   0  123.86   31.76
  -2  10   0   36.89   23.22
   2 -10   1  691.26   51.37
  -2  10  -1  747.80   55.66
  -2  10  -1  658.59   65.42
   2 -10   2   43.68   17.00
  -2  10  -2   39.21   21.35
  -2  10  -2   55.81   23.22
   2 -10   3   97.20   17.84
  -2  10  -3   76.02   20.46
   2 -10   4  935.05   62.12
  -2  10  -4  911.85   64.72
   2 -10   5  361.68   39.57
  -2  10  -5  458.13   52.75
   2 -10   6   93.96   19.35
  -2  10  -6   73.02   23.81
   2 -10   7   88.82   21.33
  -2  10  -7   93.32   25.91
   2 -10   8   -1.99    8.62
   2 -10   8   31.25   14.08
  -2  10  -8   15.54   17.87
   2 -10   9  171.47   34.44
   2 -10   9  183.20   35.52
  -2  10  -9  172.64   36.90
   2  -9  -5  671.35   75.07
  -2   9   5  810.73   92.93
   2  -9  -4  790.11   58.36
  -2   9   4  772.75   56.20
   2  -9  -3 1032.87   86.16
  -2   9   3 1048.20   87.95
   2  -9  -2   23.26   15.54
  -2   9   2   53.99   18.73
  -2   9   2   21.35   21.42
  -2   9   1   46.75   18.31
  -2   9   1   36.20   11.49
   2  -9   0 5467.56  346.31
  -2   9   0 5918.99  375.70
  -2   9   0 3694.90  215.53
   2  -9   1 2815.70  130.23
  -2   9  -1 3245.82  152.34
  -2   9  -1 3204.62  166.57
   2  -9   2 1009.12   54.96
  -2   9  -2 1036.86   62.50
  -2   9  -2  978.23   53.61
   2  -9   3   63.37   16.58
  -2   9  -3   78.73   20.26
   2  -9   4  570.42   44.74
  -2   9  -4  615.08   51.09
   2  -9   5 1859.85   89.46
  -2   9  -5 1837.64   92.34
   2  -9   6   58.86   18.72
  -2   9  -6   80.33   31.35
   2  -9   7  507.97   51.33
  -2   9  -7  509.37   64.12
   2  -9   8   85.50   17.36
   2  -9   8   52.21   14.86
  -2   9  -8   68.78   21.76
   2  -9   9    6.37    9.40
   2  -9   9   42.13   17.93
  -2   9  -9   88.99   31.36
   2  -9  10  245.66   45.04
   2  -9  10  272.27   49.91
  -2   9 -10  184.49   40.70
   2  -9  11  154.55   20.37
  -2   9 -11  114.15   25.19
   2  -8  -6  201.96   38.65
   2  -8  -6  143.94   27.15
  -2   8   6  236.62   46.89
   2  -8  -5  499.85   67.57
  -2   8   5  443.81   60.74
   2  -8  -4 1086.00   56.13
   2  -8  -4 1072.51   52.85
  -2   8   4 1277.04   69.39
  -2   8   4 1134.13   55.98
   2  -8  -3  427.66   42.50
   2  -8  -3  335.73   31.27
  -2   8   3  415.83   40.08
  -2   8   3  352.08   34.52
   2  -8  -2 1305.06   69.17
   2  -8  -2 1064.02   50.76
  -2   8   2 1117.17   57.63
  -2   8   2 1123.04   60.11
   2  -8  -1  138.25   29.15
   2  -8  -1  121.16   22.62
  -2   8   1  129.55   29.06
  -2   8   1  184.38   36.58
   2  -8   0    9.51   10.55
   2  -8   0   22.16    6.58
  -2   8   0   24.56    9.23
  -2   8   0   63.82   25.36
   2  -8   1 4274.42  210.48
  -2   8  -1 4712.40  232.76
  -2   8  -1 4368.90  249.12
   2  -8   2 6092.09  249.90
  -2   8  -2 6373.71  262.39
  -2   8  -2 6783.86  284.97
   2  -8   3 1230.84   60.37
  -2   8  -3 1399.66   69.53
   2  -8   4 7111.12 1216.28
  -2   8  -4 5223.33  256.14
   2  -8   5   57.56   12.36
  -2   8  -5   91.59   17.58
  -2   8  -5   18.67    4.36
   2  -8   6 1966.06   58.65
  -2   8  -6 1804.17   62.13
  -2   8  -6 1698.90   41.65
   2  -8   7  673.12   50.30
  -2   8  -7  621.98   53.23
  -2   8  -7  657.06   45.74
   2  -8   8  366.78   36.53
   2  -8   8  403.11   40.02
  -2   8  -8  352.59   38.55
  -2   8  -8  329.46   29.25
   2  -8   9   28.73   10.48
   2  -8   9   73.61   16.41
  -2   8  -9   57.77   23.50
  -2   8  -9   31.76   10.82
   2  -8  10   35.84   15.65
   2  -8  10   17.97   11.50
  -2   8 -10   88.40   31.86
  -2   8 -10   26.88   13.82
   2  -8  11   25.06   14.15
   2  -8  11   31.77   16.84
  -2   8 -11   21.07   16.96
   2  -7  -8  111.58   17.05
   2  -7  -8   99.23   16.66
  -2   7   8  129.70   20.42
   2  -7  -7  362.02   60.95
   2  -7  -7  352.85   57.49
  -2   7   7  327.54   56.67
   2  -7  -6  317.06   35.39
   2  -7  -6  326.02   36.51
  -2   7   6  323.28   40.87
   2  -7  -5   26.75   13.72
  -2   7   5   17.15   14.04
   2  -7  -4  291.55   28.65
   2  -7  -4  401.26   32.55
  -2   7   4  360.99   32.20
  -2   7   4  349.13   29.97
   2  -7  -3  875.32   50.59
   2  -7  -3  893.23   48.06
  -2   7   3  880.35   53.23
  -2   7   3 1034.86   59.66
  -2   7   3  760.87   41.27
   2  -7  -2   24.76    8.70
   2  -7  -2   23.35    8.93
  -2   7   2   17.66   14.80
  -2   7   2   48.41   19.21
  -2   7   2   19.85    4.81
   2  -7  -1  206.68   26.41
   2  -7  -1  163.88   14.48
  -2   7   1  181.12   21.43
  -2   7   1  163.97   21.31
  -2   7   1  129.34   11.06
   2  -7   0 2059.03   76.17
   2  -7   0 1971.29   66.37
  -2   7   0 2141.67   93.01
  -2   7   0 2079.04   80.24
  -2   7   0 2011.40   66.91
   2  -7   1 4359.79  158.56
  -2   7  -1 4403.66  164.63
  -2   7  -1 4744.01  188.40
  -2   7  -1 3795.84  132.64
   2  -7   2  535.82   49.87
  -2   7  -2  466.54   45.27
  -2   7  -2  526.04   51.43
  -2   7  -2  499.10   40.93
   2  -7   3 1982.54   78.43
  -2   7  -3 2075.33   88.51
  -2   7  -3 1868.94   66.33
   2  -7   4 2796.68  106.48
  -2   7  -4 2625.40  104.87
  -2   7  -4 2476.56   87.75
   2  -7   5 1983.96   73.51
  -2   7  -5 1978.88   78.49
  -2   7  -5 1663.32   56.07
  -2   7  -5 2025.14   68.14
   2  -7   6  583.75   34.35
  -2   7  -6  590.83   40.88
  -2   7  -6  452.06   50.78
  -2   7  -6  608.22   28.98
   2  -7   7  184.08   25.60
   2  -7   7  180.14   24.27
  -2   7  -7  139.06   29.34
  -2   7  -7   53.42   11.21
  -2   7  -7  133.08   17.49
   2  -7   8   20.45   12.29
   2  -7   8   38.66   15.49
  -2   7  -8   90.27   27.29
  -2   7  -8   17.48    7.41
   2  -7   9  434.36   39.74
   2  -7   9  422.15   42.69
  -2   7  -9  465.36   51.13
  -2   7  -9  387.47   35.32
   2  -7  10    3.37    9.41
   2  -7  10   45.15   14.54
  -2   7 -10   11.39   17.27
  -2   7 -10   20.13   10.79
   2  -7  11  175.36   27.87
   2  -7  11  185.02   29.83
  -2   7 -11  183.70   34.51
  -2   7 -11  200.00   32.44
   2  -7  12  188.06   35.70
   2  -7  12  119.45   28.71
  -2   7 -12   62.56   26.00
  -2   7 -12  117.49   26.58
   2  -6  -9  729.10   81.50
  -2   6   9  779.75   87.20
   2  -6  -8  483.57   64.57
   2  -6  -8  482.05   64.70
  -2   6   8  451.24   59.88
   2  -6  -7   91.70   16.94
   2  -6  -7  120.30   17.39
  -2   6   7   67.72   16.53
   2  -6  -6  210.29   23.85
   2  -6  -6  255.90   26.86
  -2   6   6  306.08   30.31
  -2   6   6  357.57   31.17
   2  -6  -5  915.27   36.92
   2  -6  -5  787.00  119.93
   2  -6  -5  883.92   33.96
  -2   6   5 1008.67   35.88
  -2   6   5 1106.11   42.39
   2  -6  -4  535.33   33.80
   2  -6  -4  467.61   47.09
   2  -6  -4  477.53   49.22
  -2   6   4  609.87   35.38
  -2   6   4  506.78   55.41
   2  -6  -3   27.55   10.22
   2  -6  -3   32.81    5.94
   2  -6  -3   46.36    8.30
  -2   6   3   74.32   17.60
  -2   6   3  103.99   20.69
  -2   6   3   51.40    7.66
   2  -6  -2  446.02   42.22
   2  -6  -2  415.61   38.03
   2  -6  -2  412.84   37.14
  -2   6   2  423.12   40.84
  -2   6   2  485.48   46.71
   2  -6  -1  115.46   17.16
   2  -6  -1  149.97   17.07
   2  -6  -1  159.83   16.39
  -2   6   1  217.36   23.47
  -2   6   1  188.82   21.30
  -2   6   1  118.80   10.69
   2  -6   0  833.02   27.67
   2  -6   0  791.11   58.53
   2  -6   0  836.01   19.40
  -2   6   0  815.80   30.00
  -2   6   0  773.65   57.16
  -2   6   0  832.04   18.87
   2  -6   1  182.06   19.62
   2  -6   1  138.67   16.29
  -2   6  -1  153.14   26.62
  -2   6  -1  122.85   15.98
   2  -6   2 9028.48  136.84
  -2   6  -2 8312.33  132.01
  -2   6  -2 8290.66  116.14
   2  -6   3 2099.85   46.40
  -2   6  -3 2053.70   55.82
  -2   6  -3 1958.82   33.37
  -2   6  -4 2822.40   45.05
   2  -6   5 2257.03   56.71
  -2   6  -5 1633.15   48.63
  -2   6  -5 1921.78   44.16
  -2   6  -5 2152.67   47.59
   2  -6   6 4337.28  157.21
  -2   6  -6 4713.92  175.93
  -2   6  -6 3480.44  125.06
   2  -6   7 5269.86  175.79
  -2   6  -7 4789.38  164.91
   2  -6   8   46.37   16.61
   2  -6   8   30.63   16.33
  -2   6  -8   54.72   23.18
  -2   6  -8   22.77   12.29
   2  -6   9  234.21   24.78
   2  -6   9  282.39   28.33
  -2   6  -9  209.86   23.81
  -2   6  -9  222.82   23.79
   2  -6  10  801.64   67.77
   2  -6  10  972.50   64.27
  -2   6 -10  910.10   66.73
  -2   6 -10  760.18   65.48
   2  -6  11   14.04   14.39
   2  -6  11   33.67   18.66
  -2   6 -11   62.05   25.34
  -2   6 -11   45.24   13.25
   2  -6  12   16.00    9.98
   2  -6  12   15.23   14.19
  -2   6 -12   22.07   16.28
  -2   6 -12   32.71   15.59
   2  -5 -10   35.47   20.66
   2  -5 -10   -2.51   13.16
  -2   5  10   43.60   16.36
   2  -5  -9   91.87   24.42
   2  -5  -9  125.35   38.14
  -2   5   9  108.20   27.30
   2  -5  -8 1447.08   68.20
   2  -5  -8 1377.27   66.00
  -2   5   8 1483.97   74.30
   2  -5  -7  128.08   25.23
   2  -5  -7   85.60   19.30
  -2   5   7  160.64   25.84
  -2   5   7   82.26   17.08
   2  -5  -6   75.47   15.38
   2  -5  -6   91.22   15.18
  -2   5   6   99.50   22.91
  -2   5   6   85.27   12.89
   2  -5  -5   20.46    9.82
   2  -5  -5   45.39   11.60
   2  -5  -5   34.39   14.19
  -2   5   5   27.47   13.54
  -2   5   5   56.63   18.90
   2  -5  -4  419.45   39.61
   2  -5  -4  406.50   36.58
   2  -5  -4  436.79   40.03
  -2   5   4  424.64   39.00
  -2   5   4  383.00   37.01
  -2   5   4  358.81   32.98
   2  -5  -3  120.74   15.97
   2  -5  -3  127.78   13.45
   2  -5  -3  158.47   16.50
  -2   5   3  152.69   16.22
  -2   5   3  153.77   18.70
   2  -5  -2 1757.21   40.60
   2  -5  -2 1646.60   34.86
   2  -5  -2 1726.47   36.00
  -2   5   2 1746.83   43.63
  -2   5   2 1773.07   41.11
  -2   5   2 1743.38   33.53
   2  -5  -1  407.81   22.43
   2  -5  -1  375.85   16.16
   2  -5  -1  344.94   19.53
   2  -5  -1  371.18   18.71
  -2   5   1  385.10   23.58
  -2   5   1  404.68   21.85
  -2   5   1  371.11   14.54
   2  -5   0 1652.31   50.66
   2  -5   0 1570.40   43.48
   2  -5   0 1562.44   47.90
   2  -5   0 1664.49   48.42
  -2   5   0 1567.46   49.90
  -2   5   0 1584.35   50.19
  -2   5   0 1587.50   46.55
  -2   5   0 1725.04   46.17
   2  -5   1 5274.43  134.91
   2  -5   1 5329.11  138.43
   2  -5   1 5492.18  140.38
   2  -5   1 5643.12  142.71
  -2   5  -1 5617.67  146.11
  -2   5  -1 5638.28  153.30
  -2   5  -1 5542.80  140.16
  -2   5  -1 5266.64  129.88
   2  -5   2 2569.58   72.46
   2  -5   2 2349.28   65.68
   2  -5   2 2596.09   70.52
  -2   5  -2 2539.27   77.53
  -2   5  -2 2618.51   93.29
  -2   5  -2 2560.08   69.25
  -2   5  -2 2391.89   61.42
   2  -5   3 3341.72   90.01
   2  -5   3 3100.15   83.98
   2  -5   3 3359.09   87.96
  -2   5  -3 3383.71   88.78
  -2   5  -3 3250.26   94.41
  -2   5  -3 3193.04   80.84
   2  -5   4  155.70   14.20
   2  -5   4  163.66   22.62
  -2   5  -4  153.20   21.21
  -2   5  -4  160.26   11.76
  -2   5  -4  163.45   14.95
   2  -5   5   37.26    8.47
   2  -5   5   54.53   11.28
  -2   5  -5   42.45   15.47
  -2   5  -5   71.80   10.19
  -2   5  -5   48.55    8.04
  -2   5  -5   65.16    9.38
   2  -5   6  386.39   33.73
   2  -5   6  335.95   28.22
  -2   5  -6  415.80   38.10
  -2   5  -6  322.09   26.81
   2  -5   7 1178.51   50.43
   2  -5   7 1005.91   43.66
  -2   5  -7 1111.81   53.86
  -2   5  -7 1098.10   48.35
   2  -5   8  498.40   38.03
   2  -5   8  439.07   33.96
  -2   5  -8  442.04   36.85
  -2   5  -8  466.63   33.82
   2  -5   9  105.67   15.60
   2  -5   9  113.34   20.57
  -2   5  -9   74.75   18.56
  -2   5  -9   83.83   15.59
   2  -5  10   83.88   19.46
   2  -5  10  108.87   25.97
  -2   5 -10   68.08   21.60
  -2   5 -10   77.88   16.31
   2  -5  11  664.88   64.74
   2  -5  11  724.76   71.75
  -2   5 -11  690.44   71.42
  -2   5 -11  653.71   65.89
   2  -5  12  609.95   53.97
   2  -5  12  619.97   55.61
  -2   5 -12  664.85   66.37
  -2   5 -12  542.88  146.68
   2  -5  13  469.16   56.29
   2  -5  13  502.36   59.72
  -2   5 -13  300.00   40.93
   2  -4 -11 1357.89  141.14
   2  -4 -11 1161.51  124.71
  -2   4  11 1369.56  144.17
   2  -4 -10   16.51   11.26
   2  -4 -10    7.05   13.00
  -2   4  10   37.68   19.16
   2  -4  -9 1469.44   69.99
   2  -4  -9 1376.64   66.99
  -2   4   9 1898.77   90.02
  -2   4   9 1500.12   67.15
   2  -4  -8 1523.36   74.53
   2  -4  -8 1476.74   74.09
  -2   4   8 1704.91   84.97
  -2   4   8 1484.06   69.77
   2  -4  -7  142.26   20.29
   2  -4  -7  145.01   21.62
  -2   4   7  100.96   22.99
  -2   4   7  113.07   19.98
  -2   4   7  106.60   15.31
   2  -4  -6  785.22   36.29
   2  -4  -6  624.69   64.51
  -2   4   6  709.90   36.07
  -2   4   6  686.75   31.09
   2  -4  -5   67.18   16.87
   2  -4  -5   43.05    9.46
   2  -4  -5   39.14   12.00
  -2   4   5   50.43   14.37
  -2   4   5   35.67   14.61
   2  -4  -4  774.84   57.36
   2  -4  -4  772.84   55.56
   2  -4  -4  753.13   55.72
  -2   4   4  890.56   26.64
  -2   4   4  858.13   27.30
  -2   4   4  839.27   22.06
   2  -4  -3 2481.80   68.57
   2  -4  -3 2408.79   65.19
   2  -4  -3 2336.99   61.05
   2  -4  -3 2232.98   61.61
  -2   4   3 2356.06   63.22
  -2   4   3 2402.94   67.27
  -2   4   3 2292.06   61.57
  -2   4   3 2348.87   61.56
   2  -4  -2   22.84    7.98
   2  -4  -2   17.49    7.55
   2  -4  -2   37.15   11.11
   2  -4  -2   24.38   12.26
  -2   4   2   11.90   14.48
  -2   4   2   43.02   12.02
  -2   4   2    9.27    6.44
  -2   4   2   28.77    9.22
   2  -4  -112814.35  233.74
   2  -4  -111863.01  216.43
   2  -4  -112024.91  218.16
   2  -4  -113002.92  236.46
  -2   4   113484.18  247.68
  -2   4   112568.52  228.20
  -2   4   113589.03  248.43
  -2   4   112505.44  225.06
   2  -4   0  128.44   11.74
   2  -4   0  214.62   11.93
   2  -4   0  177.42   12.62
   2  -4   0  169.38   11.25
  -2   4   0  206.44   16.28
  -2   4   0  226.52   14.13
  -2   4   0  181.90   12.04
  -2   4   0  180.50    8.92
   2  -4   1  846.35   26.14
   2  -4   1  852.93   27.85
   2  -4   1  805.24   26.31
   2  -4   1  765.87   23.14
  -2   4  -1  851.37   32.49
  -2   4  -1  816.92   40.12
  -2   4  -1  813.06   24.09
  -2   4  -1  784.38   20.69
   2  -4   2 5782.60  111.12
   2  -4   2 5613.62  108.98
   2  -4   2 5900.46  111.37
  -2   4  -2 4885.20   97.44
  -2   4  -2 5652.26  106.99
  -2   4  -2 5738.87  108.93
  -2   4  -2 5417.10  100.27
   2  -4   3 1234.03   33.91
   2  -4   3 1204.79   36.13
   2  -4   3 1216.97   48.45
  -2   4  -3 1290.49   32.32
  -2   4  -3 1186.04   39.98
  -2   4  -3 1087.75   42.68
   2  -4   412640.66  310.09
   2  -4   413123.16  320.88
  -2   4  -412394.20  303.19
  -2   4  -412522.04  305.65
   2  -4   5  670.81   25.71
   2  -4   5  552.51   28.08
   2  -4   5  568.41   21.70
  -2   4  -5  611.20   23.00
  -2   4  -5  664.27   34.52
  -2   4  -5  611.30   23.38
   2  -4   6  341.55   27.19
   2  -4   6  335.01   27.36
  -2   4  -6  348.78   30.79
  -2   4  -6  307.27   23.27
  -2   4  -6  348.73   27.17
   2  -4   7 1154.02   35.76
   2  -4   7 1280.16   37.81
  -2   4  -7 1238.89   41.43
   2  -4   8   67.51   14.83
   2  -4   8   59.85   11.37
  -2   4  -8   76.75   19.80
  -2   4  -8   74.83   12.93
   2  -4   9 1331.10   63.06
   2  -4   9 1350.53   62.37
  -2   4  -9 1362.84   69.61
  -2   4  -9 1147.74   55.80
   2  -4  10  191.97   32.70
   2  -4  10  193.28   33.49
  -2   4 -10  245.53   29.43
  -2   4 -10  155.57   32.22
   2  -4  11  309.44   33.56
   2  -4  11  313.79   33.96
  -2   4 -11  326.57   38.77
  -2   4 -11  289.25   32.68
   2  -4  12   14.06   10.38
  -2   4 -12   62.18   28.11
  -2   4 -12   55.28   20.90
   2  -4  13   13.20   10.60
   2  -4  13   44.49   21.42
  -2   4 -13   21.84   19.33
  -2   4 -13    4.56   14.86
   2  -3 -11  153.68   29.91
   2  -3 -11  102.63   31.56
  -2   3  11  218.95   40.80
   2  -3 -10  181.39   24.12
   2  -3 -10  126.46   23.76
  -2   3  10  157.52   26.79
  -2   3  10  105.93   14.97
   2  -3  -9  190.63   24.85
   2  -3  -9  167.83   34.41
  -2   3   9  165.17   33.24
   2  -3  -8 6272.24 1072.84
   2  -3  -8 5639.34  275.23
  -2   3   8 4169.81  211.00
  -2   3   8 6916.24 1183.89
  -2   3   8 6443.51 1101.79
   2  -3  -7 1155.21   46.25
   2  -3  -7 1042.70   46.52
  -2   3   7  972.01   57.54
  -2   3   7 1187.74   51.07
  -2   3   7 1102.08   42.62
   2  -3  -6 1711.31   67.42
   2  -3  -6 1321.71   54.85
  -2   3   6 1596.55   65.76
  -2   3   6 1700.94   70.64
  -2   3   6 1513.16   59.00
   2  -3  -5  165.87   16.57
   2  -3  -5  224.10   19.19
   2  -3  -5  150.03   18.30
  -2   3   5  152.33   15.58
  -2   3   5  186.87   20.19
  -2   3   5  152.89   14.25
  -2   3   5  135.06   13.67
   2  -3  -4 2713.85   72.33
   2  -3  -4 2523.86   67.98
   2  -3  -4 2419.83   62.07
   2  -3  -4 2454.26   65.14
  -2   3   4 2323.31   61.69
  -2   3   4 2532.91   70.94
  -2   3   4 2593.87   66.76
  -2   3   4 2531.15   66.34
   2  -3  -3   12.34    7.35
   2  -3  -3   31.26   12.12
   2  -3  -3    8.89    7.45
   2  -3  -3   10.06    9.05
  -2   3   3    0.71   10.85
  -2   3   3   13.75   16.64
  -2   3   3   23.87    8.65
  -2   3   3   10.29    8.73
   2  -3  -213038.43  235.96
   2  -3  -214159.79  255.48
   2  -3  -214505.01  262.07
   2  -3  -214252.73  258.12
  -2   3   214784.37  268.82
  -2   3   214299.48  259.70
  -2   3   212608.10  227.59
  -2   3   214527.17  261.47
   2  -3  -1  152.32   12.25
   2  -3  -1  174.69   12.89
   2  -3  -1  188.51   13.77
   2  -3  -1  190.85   11.41
  -2   3   1  158.12   15.67
  -2   3   1  184.52   14.28
  -2   3   1  168.38   10.09
  -2   3   1  150.79    9.89
   2  -3   022999.28  214.58
   2  -3   023129.66  213.70
   2  -3   023633.79  219.95
  -2   3   024134.64  223.49
  -2   3   021521.82  204.06
  -2   3   023897.52  221.87
  -2   3   022408.68  206.50
   2  -3   1   55.87   11.47
   2  -3   1  113.26   11.25
   2  -3   1   87.69   11.11
   2  -3   1   43.34    6.72
  -2   3  -1   48.38    8.35
  -2   3  -1   82.20   14.00
  -2   3  -1   33.77    7.67
  -2   3  -1   62.68    7.19
   2  -3   2  271.30   13.64
   2  -3   2  378.66   18.54
   2  -3   2  270.33   11.12
  -2   3  -2  288.72   13.49
  -2   3  -2  285.57   20.38
  -2   3  -2  280.91   11.62
   2  -3   3  233.76   13.29
   2  -3   3  312.69   18.20
   2  -3   3  301.81   12.52
  -2   3  -3  257.58   12.54
  -2   3  -3  306.49   19.17
  -2   3  -3  287.74   24.52
   2  -3   4  393.12   18.50
   2  -3   4  381.52   21.50
   2  -3   4  381.86   17.23
  -2   3  -4  364.97   15.09
  -2   3  -4  330.73   24.57
   2  -3   536687.97  847.07
   2  -3   539842.64  917.50
   2  -3   6 2174.24   59.67
   2  -3   6 2130.22   62.13
   2  -3   6 2175.58   58.32
  -2   3  -6 2101.54   56.49
  -2   3  -6 2049.13   57.97
   2  -3   7 7106.52  109.25
   2  -3   7 7620.31  115.85
  -2   3  -7 7511.22  118.34
   2  -3   8   34.81   10.40
   2  -3   8    4.27    9.58
  -2   3  -8   -1.32    9.61
  -2   3  -8   -1.56   10.69
   2  -3   9  104.28   18.24
   2  -3   9  109.39   18.59
  -2   3  -9  115.83   20.59
  -2   3  -9  127.11   22.10
   2  -3  10  496.77   40.28
   2  -3  10  496.91   41.10
  -2   3 -10  493.64   42.80
  -2   3 -10  486.88   42.99
   2  -3  11   46.46   15.63
   2  -3  11   36.39   14.37
  -2   3 -11   39.51   17.62
  -2   3 -11   50.39   16.01
   2  -3  12   87.24   22.52
   2  -3  12   93.75   25.28
  -2   3 -12   99.88   26.40
  -2   3 -12   65.83   19.55
   2  -3  13   98.93   23.62
   2  -3  13  202.60   38.94
  -2   3 -13   75.14   39.94
  -2   3 -13  107.52   28.51
   2  -2 -12   14.83    8.60
   2  -2 -12   12.72   14.91
  -2   2  12   71.12   22.69
   2  -2 -11 1877.72  146.27
   2  -2 -11 2074.01  165.56
  -2   2  11 2177.01  172.68
   2  -2 -10  151.67   29.36
   2  -2 -10  172.06   28.26
  -2   2  10  110.03   24.25
  -2   2  10  153.95   29.81
   2  -2  -9   61.01   18.46
   2  -2  -9   29.17   13.62
  -2   2   9   39.22   14.85
  -2   2   9   17.67   11.55
   2  -2  -8   33.80    8.22
   2  -2  -8   48.82   22.29
  -2   2   8   25.23   15.21
  -2   2   8   47.61   11.62
   2  -2  -7  150.86   17.30
   2  -2  -7  120.22   19.18
  -2   2   7  132.27   27.01
  -2   2   7  204.71   25.02
  -2   2   7  162.47   20.05
   2  -2  -6  543.74   43.05
   2  -2  -6  641.62   43.67
   2  -2  -6  586.08   42.59
  -2   2   6  651.54   44.54
  -2   2   6  681.36   48.59
  -2   2   6  677.33   45.58
   2  -2  -5 2580.51   66.73
   2  -2  -5 2588.18   69.36
  -2   2   5 2741.17   74.81
  -2   2   5 2670.44   70.29
   2  -2  -4 2235.88   48.94
   2  -2  -4 2131.45   51.27
   2  -2  -4 2170.99   47.65
   2  -2  -4 2134.85   47.91
  -2   2   4 2101.45   47.14
  -2   2   4 2077.62   49.21
  -2   2   4 2171.01   45.78
   2  -2  -3   43.45    8.54
   2  -2  -3   64.09   12.54
   2  -2  -3   50.34    8.20
   2  -2  -3   28.77    6.40
  -2   2   3   24.94   13.47
  -2   2   3   26.27    8.36
  -2   2   3   42.75    6.82
  -2   2   3   26.96    6.05
   2  -2  -2 2226.79   32.33
   2  -2  -2 2347.22   33.59
   2  -2  -2 2290.36   37.29
   2  -2  -2 2390.78   34.38
  -2   2   2 2211.84   35.03
  -2   2   2 2450.66   33.06
  -2   2   2 2374.19   36.36
  -2   2   2 2366.27   33.94
   2  -2  -1 6452.36  107.91
   2  -2  -1 6535.24  110.09
   2  -2  -1 6635.07  110.97
   2  -2  -1 6179.79  103.01
  -2   2   1 6170.05  106.49
  -2   2   1 6137.43  102.47
  -2   2   1 6477.13  106.69
  -2   2   1 6538.72  108.90
   2  -2   0  316.04   14.30
   2  -2   0  365.79   16.43
   2  -2   0  336.51   15.13
   2  -2   0  348.93   12.68
  -2   2   0  336.19   11.13
  -2   2   0  395.58   13.84
  -2   2   0  339.74   13.53
  -2   2   0  379.34   17.68
   2  -2   110021.39  162.71
   2  -2   110268.85  166.65
   2  -2   110896.36  177.90
   2  -2   110298.24  164.49
  -2   2  -110469.10  169.56
  -2   2  -110347.22  165.84
  -2   2  -110331.78  166.83
   2  -2   2  809.88   21.48
   2  -2   2  860.47   29.89
  -2   2  -2  894.06   23.02
  -2   2  -2  892.93   32.59
  -2   2  -2  794.63   36.18
   2  -2   3 4266.45   52.42
   2  -2   3 4034.09   49.27
   2  -2   3 4127.02   44.84
  -2   2  -3 4146.27   49.65
  -2   2  -3 4610.63   63.00
   2  -2   427487.28  255.60
   2  -2   427185.64  248.21
   2  -2   425757.94  239.58
  -2   2  -426805.32  248.12
   2  -2   5  821.80   25.52
   2  -2   5  859.28   27.88
   2  -2   5  886.90   26.78
  -2   2  -5  889.51   24.53
  -2   2  -5  947.68   32.64
   2  -2   6 6367.65  154.42
   2  -2   6 5912.51  142.41
   2  -2   6 6313.09  151.68
  -2   2  -6 5935.64  142.88
  -2   2  -6 5057.63  124.10
  -2   2  -6 6236.77  148.64
   2  -2   7  391.03   29.98
   2  -2   7  499.03   35.58
   2  -2   7  444.30   32.28
  -2   2  -7  461.47   35.02
  -2   2  -7  400.98   28.12
   2  -2   8  514.82   46.05
   2  -2   8  541.94   47.72
   2  -2   8  491.42   44.02
  -2   2  -8  588.10   52.74
   2  -2   9 1328.13   62.44
   2  -2   9 1270.85   60.26
  -2   2  -9 1135.69   53.65
   2  -2  10    8.56    8.61
   2  -2  10   -5.00   11.77
  -2   2 -10    2.09    8.39
  -2   2 -10   52.43   22.16
   2  -2  11 3765.99  217.59
   2  -2  11 3426.29  200.95
  -2   2 -11 3351.30  193.87
   2  -2  12  275.92   37.59
   2  -2  12  392.36   53.71
  -2   2 -12  223.84   59.66
  -2   2 -12  342.86   51.05
   2  -2  13  354.96   34.25
  -2   2 -13  284.62   52.16
   2  -1 -12  389.40   61.81
   2  -1 -12  455.46   77.20
  -2   1  12  599.71   46.04
   2  -1 -11  187.04   24.12
   2  -1 -11  249.36   32.51
  -2   1  11  252.16   32.18
  -2   1  11  194.71   25.77
   2  -1 -10  118.18   21.79
   2  -1 -10  127.74   25.64
  -2   1  10  146.13   21.73
  -2   1  10  142.60   18.47
   2  -1  -9 1318.30   69.76
   2  -1  -9 1202.29   68.89
  -2   1   9 1323.85   74.88
  -2   1   9 1167.13   61.98
   2  -1  -8 8004.87  258.98
   2  -1  -8 9276.56  299.77
  -2   1   8 9098.41  295.51
  -2   1   8 9928.16  321.79
  -2   1   810318.15  337.33
   2  -1  -7 6103.26  123.68
   2  -1  -7 6222.98  126.89
  -2   1   7 6287.63  138.17
  -2   1   7 6421.36  132.68
  -2   1   7 6478.54  137.93
   2  -1  -6  687.10   31.43
   2  -1  -6  755.13   25.05
   2  -1  -6  755.35   32.43
  -2   1   6  696.81   39.15
  -2   1   6  752.28   31.37
  -2   1   6  719.28   27.58
   2  -1  -5 1458.93   61.78
   2  -1  -5 1657.44   46.50
   2  -1  -5 1857.92   57.79
   2  -1  -5 1586.09   45.71
  -2   1   5 1700.30   55.35
  -2   1   5 1519.13   44.87
  -2   1   5 1729.31   54.40
  -2   1   5 1625.27   47.65
   2  -1  -4 3787.37   73.25
   2  -1  -4 3966.77   81.74
   2  -1  -4 3432.18   68.45
  -2   1   4 3665.03   69.87
  -2   1   4 3476.11   70.01
  -2   1   4 3651.40   74.55
  -2   1   4 3619.35   74.37
   2  -1  -310454.46  101.38
   2  -1  -310809.82  111.16
   2  -1  -310149.72  102.01
   2  -1  -310413.16  103.75
  -2   1   310250.48  104.42
  -2   1   310293.60  104.75
  -2   1   310505.13  100.23
  -2   1   310384.75  104.64
   2  -1  -2  186.49   10.13
   2  -1  -2  191.55   15.01
   2  -1  -2  230.33   12.21
   2  -1  -2  246.45   13.15
  -2   1   2  248.42   15.62
  -2   1   2  173.95   11.64
  -2   1   2  211.93    9.46
  -2   1   2  211.99   11.96
   2  -1  -1   23.52   11.27
   2  -1  -1    5.46    8.40
   2  -1  -1   -0.36    8.74
   2  -1  -1   -5.15    5.07
  -2   1   1   11.16    9.72
  -2   1   1   18.09    8.39
  -2   1   1    1.83    4.75
  -2   1   1   -2.45    7.03
   2  -1   0  271.69   11.97
   2  -1   0  320.00   15.43
   2  -1   0  276.16   12.36
   2  -1   0  283.30    8.73
  -2   1   0  288.29    9.17
  -2   1   0  311.18   16.81
  -2   1   0  269.84   10.86
  -2   1   0  299.48   12.67
   2  -1   1  407.99   10.37
   2  -1   1  382.19   15.25
   2  -1   1  419.43   24.84
   2  -1   1  411.09   14.30
  -2   1  -1  370.37   12.74
  -2   1  -1  444.40   14.06
  -2   1  -1  409.02   16.56
   2  -1   2   78.01    9.45
   2  -1   2   69.38    8.32
   2  -1   2   74.09    5.98
  -2   1  -2   55.72    6.49
  -2   1  -2   79.10   10.25
  -2   1  -2  112.90   21.48
   2  -1   3    3.29    9.28
   2  -1   3   14.24    8.46
   2  -1   3   17.11    7.54
  -2   1  -3   31.93    9.64
  -2   1  -3   11.72    9.58
   2  -1   4  742.22   21.11
   2  -1   4  762.77   18.80
   2  -1   4  770.23   16.95
  -2   1  -4  771.59   19.83
  -2   1  -4  815.99   28.28
  -2   1  -4  734.82   15.54
   2  -1   523767.68  576.62
   2  -1   524022.88  581.33
   2  -1   522834.12  552.57
  -2   1  -524165.92  585.47
  -2   1  -523685.09  572.44
   2  -1   6   72.17   11.70
   2  -1   6   83.10    8.57
   2  -1   6  105.20   10.74
  -2   1  -6   71.90    8.77
  -2   1  -6   75.89    8.25
  -2   1  -6  103.89    8.91
  -2   1  -6   94.41   15.67
   2  -1   7 4432.80   75.68
   2  -1   7 4716.91   78.56
   2  -1   7 4011.62   64.68
  -2   1  -7 4304.10   70.57
  -2   1  -7 4288.45   69.47
   2  -1   8   34.39   10.39
   2  -1   8   40.69   18.94
   2  -1   8   28.82   11.16
  -2   1  -8   15.41    7.52
  -2   1  -8   15.15   13.11
   2  -1   9  127.63   18.96
   2  -1   9  133.69   19.72
  -2   1  -9   89.04   14.98
  -2   1  -9  139.39   24.46
   2  -1  10  674.04   52.77
   2  -1  10  784.26  121.27
  -2   1 -10  649.03   49.55
  -2   1 -10  708.67   61.32
   2  -1  11  545.05   78.37
   2  -1  11  724.95   70.83
  -2   1 -11  596.46   63.27
  -2   1 -11  740.38   75.20
   2  -1  12  316.09   78.50
   2  -1  12  475.76   63.16
  -2   1 -12  415.44   58.00
   2  -1  13   16.64    6.92
   2  -1  13  -19.81   12.85
   2   0 -13  338.55   43.90
  -2   0  13  402.59   50.18
   2   0 -12  128.61   40.60
  -2   0  12  142.72   26.40
  -2   0  12   75.33   19.44
   2   0 -11  462.12   45.02
   2   0 -11  469.35   50.48
  -2   0  11  547.84   56.03
  -2   0  11  524.76   51.69
   2   0 -10 1359.11   39.29
   2   0 -10 1312.66   48.32
  -2   0  10 1327.33   47.20
  -2   0  10 1324.89   42.64
   2   0  -9 9207.96  876.15
   2   0  -9 9794.05  931.79
  -2   0   910930.60 1040.74
  -2   0   911355.02 1082.40
   2   0  -8  246.87   22.90
   2   0  -8  287.22   25.97
   2   0  -8  250.32   27.01
  -2   0   8  280.33   28.95
  -2   0   8  252.68   27.02
   2   0  -7  116.85   10.74
   2   0  -7  100.81    9.27
   2   0  -7  142.85   20.00
  -2   0   7  112.42   12.68
  -2   0   7  121.07   15.55
  -2   0   7  141.63   16.09
   2   0  -6 1639.88   42.09
   2   0  -6 1508.74   39.71
   2   0  -6 1729.30   48.50
  -2   0   6 1553.57   56.05
  -2   0   6 1736.97   52.40
  -2   0   6 1745.82   49.42
   2   0  -5 1819.34   37.21
   2   0  -5 1876.93   46.52
   2   0  -5 1776.00   40.55
  -2   0   5 1761.71   47.83
  -2   0   5 1806.51   42.57
  -2   0   5 1911.74   45.91
  -2   0   5 1884.39   45.24
   2   0  -4 2632.08   30.90
   2   0  -4 2691.11   44.09
   2   0  -4 2569.26   35.32
  -2   0   4 2701.36   40.27
  -2   0   4 2678.41   41.07
  -2   0   4 2606.02   38.03
  -2   0   4 2540.99   29.11
  -2   0   4 2612.91   39.44
   2   0  -3  542.41   13.95
   2   0  -3  599.70   21.23
   2   0  -3  575.18   17.04
  -2   0   3  561.08   13.09
  -2   0   3  578.22   19.88
  -2   0   3  556.96   19.54
  -2   0   3  602.87   18.45
   2   0  -2  255.74    9.00
   2   0  -2  290.37   15.07
   2   0  -2  262.78   13.43
   2   0  -2  301.57   11.57
  -2   0   2  265.59   11.63
  -2   0   2  286.83   14.30
  -2   0   2  287.23    9.96
  -2   0   2  333.70   16.08
   2   0  -116205.75  257.72
   2   0  -116254.41  255.62
  -2   0   115802.83  249.10
  -2   0   116518.11  263.32
   2   0   0 3402.89   57.73
   2   0   0 3505.67   62.64
   2   0   0 3308.26   57.69
   2   0   0 3363.44   53.10
  -2   0   0 3349.00   58.99
  -2   0   0 3162.13   50.18
  -2   0   0 3277.08   54.97
  -2   0   0 3459.38   60.19
   2   0   1 9827.30  158.50
   2   0   1 9998.41  160.66
   2   0   1 9385.01  152.79
  -2   0  -1 9654.05  155.61
  -2   0  -110189.61  167.58
  -2   0  -1 9920.51  159.13
   2   0   2  436.25   16.58
   2   0   2  402.80   13.39
   2   0   2  408.91   10.77
  -2   0  -2  441.54   15.99
  -2   0  -2  405.40   13.35
  -2   0  -2  405.50    9.85
   2   0   3 1601.45   29.73
   2   0   3 1574.77   23.54
   2   0   3 1582.61   23.63
  -2   0  -3 1511.59   26.36
  -2   0  -3 1633.72   28.05
  -2   0  -3 1631.90   22.12
   2   0   4  123.66   11.54
   2   0   4  139.86    8.57
   2   0   4  133.33   10.05
  -2   0  -4  123.81    9.97
  -2   0  -4  170.93   11.06
  -2   0  -4  135.95    8.25
   2   0   5 2402.31   53.63
   2   0   5 2449.72   49.26
   2   0   5 2388.97   51.39
  -2   0  -5 2415.28   52.15
  -2   0  -5 2554.22   52.19
  -2   0  -5 2598.26   52.85
  -2   0  -5 2350.97   52.31
   2   0   6  294.41   18.07
   2   0   6  256.14   11.76
   2   0   6  290.82   17.58
  -2   0  -6  267.96   15.58
  -2   0  -6  298.87   13.68
  -2   0  -6  335.31   16.64
  -2   0  -6  304.57   20.71
   2   0   7   82.06   15.44
   2   0   7   54.84   11.10
   2   0   7   65.34    8.46
  -2   0  -7   69.93   10.73
  -2   0  -7   77.36   10.49
  -2   0  -7   61.79   11.92
   2   0   8  646.23   64.79
   2   0   8  613.33   40.69
   2   0   8  541.22   33.35
  -2   0  -8  653.18   63.37
  -2   0  -8  634.61   65.42
   2   0   9  412.30   82.26
   2   0   9  461.12   32.10
   2   0   9  362.22   37.34
  -2   0  -9  410.99   82.59
  -2   0  -9  413.86   76.77
   2   0  10  417.32   46.51
   2   0  10  514.66   42.87
  -2   0 -10  339.67   44.16
  -2   0 -10  378.21   35.94
   2   0  11 1083.62   69.48
   2   0  11 1267.34   62.83
  -2   0 -11 1209.06   65.88
   2   0  12   73.93   27.46
   2   0  12  125.12   28.67
  -2   0 -12  113.64   40.59
   2   1 -13  112.17   30.15
  -2  -1  13  111.38   24.48
  -2  -1  13   81.91   14.84
   2   1 -12  904.37   81.23
  -2  -1  12  996.94   82.94
  -2  -1  12  897.23   74.27
   2   1 -11 2712.60  155.88
  -2  -1  11 2677.44  157.21
  -2  -1  11 2768.35  163.70
   2   1 -10 4566.24  105.84
  -2  -1  10 4884.63  118.49
  -2  -1  10 5398.00  134.23
   2   1  -9  582.92   34.62
   2   1  -9  598.58   35.83
   2   1  -9  615.71   46.09
  -2  -1   9  649.76   67.98
  -2  -1   9  629.99   63.61
   2   1  -8 2515.26   89.92
   2   1  -8 2230.20   79.82
   2   1  -8 2344.57   91.28
  -2  -1   8 2803.07  106.62
  -2  -1   8 2510.88   94.47
   2   1  -7 1458.99   25.76
   2   1  -7 1486.38   25.74
   2   1  -7 1676.55   45.23
  -2  -1   7 1459.92   34.11
  -2  -1   7 1728.41   41.57
  -2  -1   7 1421.25   34.21
   2   1  -6  571.98   17.22
   2   1  -6  542.64   21.29
   2   1  -6  607.74   27.73
  -2  -1   6  504.60   21.83
  -2  -1   6  481.34   20.50
  -2  -1   6  519.20   24.03
   2   1  -5 1252.97   24.94
   2   1  -5 1311.01   25.76
   2   1  -5 1330.41   31.96
   2   1  -5 1428.08   39.89
  -2  -1   5 1251.68   32.22
  -2  -1   5 1183.46   30.70
  -2  -1   5 1395.98   35.03
   2   1  -4 1153.48   13.88
   2   1  -4 1162.49   13.93
   2   1  -4 1264.99   26.83
   2   1  -4 1237.89   23.00
  -2  -1   4 1289.41   34.77
  -2  -1   4 1093.72   24.85
  -2  -1   4 1155.42   24.56
  -2  -1   4 1224.71   23.67
   2   1  -3  817.39   24.07
   2   1  -3  742.01   18.74
  -2  -1   3  783.55   35.24
  -2  -1   3  801.29   21.28
  -2  -1   3  770.21   23.95
  -2  -1   3  776.44   13.96
  -2  -1   3  823.55   22.20
   2   1  -2   37.86    3.53
   2   1  -2   42.53    8.47
   2   1  -2   51.69    7.69
  -2  -1   2   90.96   12.10
  -2  -1   2   42.29    6.27
  -2  -1   2   37.89    7.80
  -2  -1   2   48.68    3.98
  -2  -1   2   30.68    6.95
   2   1  -1 7014.79  112.55
   2   1  -1 7194.37  119.50
  -2  -1   1 7050.20  116.68
  -2  -1   1 6731.35  107.46
  -2  -1   1 7546.77  124.76
  -2  -1   1 6627.72  105.65
   2   1   018986.08  175.31
  -2  -1   017530.40  160.62
  -2  -1   018875.91  175.13
  -2  -1   019190.92  177.79
   2   1   110916.75  176.15
   2   1   110416.14  166.37
   2   1   110466.12  165.30
  -2  -1  -110664.26  171.23
  -2  -1  -110739.06  171.71
  -2  -1  -1 9662.70  152.65
  -2  -1  -111529.91  186.65
   2   1   2  157.37    7.74
   2   1   2  182.40   12.15
   2   1   2  159.72    7.83
  -2  -1  -2  162.57    9.54
  -2  -1  -2  226.84   12.14
  -2  -1  -2  156.38    7.14
   2   1   3 1657.89   31.05
   2   1   3 1635.41   24.87
   2   1   3 1731.14   22.05
  -2  -1  -3 1739.48   29.05
  -2  -1  -3 1745.95   25.21
   2   1   410696.37  190.78
   2   1   411122.92  204.35
   2   1   410448.23  190.40
  -2  -1  -411283.74  206.47
  -2  -1  -410799.64  195.41
   2   1   5  685.66   28.29
   2   1   5  630.83   18.97
   2   1   5  590.57   23.24
  -2  -1  -5  603.60   22.47
  -2  -1  -5  636.07   20.10
  -2  -1  -5  595.16   21.36
  -2  -1  -5  653.23   28.32
   2   1   6   85.55   13.80
   2   1   6  103.06   13.41
   2   1   6   92.35    8.42
  -2  -1  -6   85.59    8.48
  -2  -1  -6   70.89    9.02
  -2  -1  -6   86.96   14.86
   2   1   7  205.14   36.44
   2   1   7  148.48   17.72
   2   1   7  132.31   11.66
  -2  -1  -7  134.30   21.22
  -2  -1  -7  189.10   24.54
   2   1   8 1305.12   96.33
   2   1   8 1301.72   51.28
   2   1   8 1114.07   38.33
  -2  -1  -8 1194.72   44.55
  -2  -1  -8 1540.00   69.69
   2   1   9  691.97   82.42
   2   1   9  675.90   53.88
  -2  -1  -9  583.98   44.00
  -2  -1  -9  751.85   61.73
   2   1  10   22.39   14.45
   2   1  10    4.85   13.01
  -2  -1 -10  -14.06   15.84
   2   1  11  918.59   71.50
   2   1  11  955.17   61.83
  -2  -1 -11  984.42   69.76
   2   1  12   48.32   25.68
   2   1  12  137.28   31.57
  -2  -1 -12  121.25   33.07
   2   2 -13   35.18   17.56
  -2  -2  13   46.43   23.65
  -2  -2  13   49.11   23.68
   2   2 -12  307.79   38.55
  -2  -2  12  325.56   38.76
  -2  -2  12  329.31   35.74
   2   2 -11 1100.00   65.19
   2   2 -11 1114.01   73.36
  -2  -2  11 1105.35   71.04
  -2  -2  11  992.26   64.55
   2   2 -10 4169.83   96.04
   2   2 -10 3539.66   93.46
  -2  -2  10 4911.71  124.31
   2   2  -912849.20 1190.00
   2   2  -916906.93 1565.48
   2   2  -919226.40 1782.10
  -2  -2   918329.81 1699.08
   2   2  -8  480.99   35.04
   2   2  -8  630.17   44.68
   2   2  -8  593.73   46.51
   2   2  -8  556.37   44.03
  -2  -2   8  510.06   39.86
   2   2  -7  177.24   12.31
   2   2  -7  209.12   14.84
   2   2  -7  272.96   37.01
   2   2  -7  219.88   24.96
  -2  -2   7  197.94   18.73
   2   2  -6 2565.50   63.00
   2   2  -6 2897.67   80.89
   2   2  -6 2695.12   71.72
   2   2  -6 2664.12   73.83
  -2  -2   6 2720.39   74.40
  -2  -2   6 2650.33   72.75
  -2  -2   6 2188.63   59.25
   2   2  -515613.85  286.53
   2   2  -514523.34  262.19
   2   2  -514230.37  258.67
  -2  -2   514143.69  258.17
  -2  -2   515232.03  275.68
  -2  -2   514086.70  254.67
   2   2  -441779.97  739.13
  -2  -2   446003.29  813.76
   2   2  -3  671.54   26.47
   2   2  -3  539.42   18.73
  -2  -2   3  667.20   29.42
  -2  -2   3  628.49   17.33
  -2  -2   3  660.95   19.88
   2   2  -2 3698.38   60.61
   2   2  -2 3527.81   67.18
   2   2  -2 3746.31   67.88
  -2  -2   2 3737.44   72.81
  -2  -2   2 3671.86   62.60
  -2  -2   2 3542.83   57.41
  -2  -2   2 3774.77   66.35
   2   2  -1 3922.18   67.42
   2   2  -1 3979.06   70.07
  -2  -2   1 4104.66   68.31
  -2  -2   1 3879.42   65.07
  -2  -2   1 3914.48   86.59
  -2  -2   1 4103.54   71.66
   2   2   0  469.50   20.88
   2   2   0  476.39   16.16
   2   2   0  501.46   17.02
  -2  -2   0  481.15   13.63
  -2  -2   0  467.60   13.69
  -2  -2   0  473.92   14.03
  -2  -2   0  524.67   16.39
  -2  -2   0  492.51   18.35
   2   2   119926.76  186.57
   2   2   118795.38  172.76
  -2  -2  -119898.39  185.35
  -2  -2  -118849.79  172.19
  -2  -2  -119682.66  180.73
  -2  -2  -118434.76  169.21
   2   2   2 2836.12   51.07
   2   2   2 2705.34   34.50
  -2  -2  -2 2795.85   38.71
  -2  -2  -2 2697.10   29.53
  -2  -2  -2 2782.73   40.66
  -2  -2  -2 2683.96   33.09
   2   2   3  229.98   44.48
   2   2   3  226.25   12.37
  -2  -2  -3  226.81   11.60
  -2  -2  -3  302.84   14.32
   2   2   4 2352.95   71.15
   2   2   4 2259.67   62.29
  -2  -2  -4 2080.27   50.80
  -2  -2  -4 2291.91   61.36
  -2  -2  -4 2357.88   67.44
   2   2   5  757.21   58.37
   2   2   5  650.96   23.95
  -2  -2  -5  761.37   26.73
  -2  -2  -5  730.49   27.65
   2   2   6  237.99   32.39
   2   2   6  188.52   19.22
  -2  -2  -6  190.25   17.97
  -2  -2  -6  147.35   19.13
   2   2   7 2846.69  106.04
   2   2   7 3831.56  140.63
   2   2   8  299.91   44.38
   2   2   8  362.71   40.61
  -2  -2  -8  273.73   32.84
   2   2   9  928.74   69.98
   2   2   9 1042.44   56.25
  -2  -2  -9 1034.58   56.30
   2   2  10  161.52   32.74
   2   2  10  208.77   28.50
  -2  -2 -10  193.79   26.68
   2   2  11  176.07   38.74
  -2  -2 -11  142.73   30.99
   2   3 -13  344.91   34.21
  -2  -3  13  380.27   41.29
  -2  -3  13  359.50   35.66
   2   3 -12  143.53   24.32
  -2  -3  12  218.38   31.83
   2   3 -11   83.26   20.00
   2   3 -11   86.21   24.05
  -2  -3  11   73.74   19.17
   2   3 -10  349.36   25.58
   2   3 -10  321.30   49.07
   2   3 -10  323.07   31.53
  -2  -3  10  336.90   32.57
   2   3  -9   10.41    4.11
   2   3  -9   20.01    4.76
   2   3  -9   -0.74   14.31
   2   3  -9   50.56   13.40
  -2  -3   9   -4.07   12.25
   2   3  -8  203.92   17.32
   2   3  -8  235.91   20.09
   2   3  -8  278.68   51.41
   2   3  -8  197.08   22.46
  -2  -3   8  224.74   24.63
   2   3  -7  296.89   18.73
   2   3  -7  321.17   20.15
   2   3  -7  380.53   32.70
   2   3  -7  289.96   24.95
  -2  -3   7  326.38   27.00
  -2  -3   7  301.63   23.61
   2   3  -6 3142.66  119.98
   2   3  -6 3369.10   87.07
  -2  -3   6 3567.86   91.48
  -2  -3   6 3248.46   82.17
   2   3  -5 1233.02   63.96
   2   3  -5 1143.54   36.19
  -2  -3   5 1092.54   35.15
  -2  -3   5 1098.25   39.07
  -2  -3   5 1118.70   34.19
   2   3  -4 2344.49   64.21
   2   3  -4 2292.67   49.58
  -2  -3   4 2429.66   51.10
  -2  -3   4 2419.91   54.38
  -2  -3   4 2421.23   50.79
   2   3  -2 1703.62   27.23
   2   3  -2 1776.82   59.08
  -2  -3   2 1737.58   23.67
  -2  -3   2 1693.94   30.78
  -2  -3   2 1688.21   43.61
  -2  -3   2 1744.06   22.57
  -2  -3   2 1750.69   25.85
   2   3  -1  110.72   16.44
   2   3  -1  153.79   23.11
  -2  -3   1   84.26    6.69
  -2  -3   1   95.31    8.22
  -2  -3   1   89.14    6.31
  -2  -3   1   88.51    6.38
  -2  -3   1   95.01    7.29
   2   3   0 3920.94   53.49
   2   3   0 3999.89   51.72
  -2  -3   0 4049.51   46.49
  -2  -3   0 3992.66   45.96
  -2  -3   0 3857.95   43.76
  -2  -3   0 4149.81   47.43
   2   3   1 4509.32   56.68
   2   3   1 4029.10   48.16
  -2  -3  -1 4388.76   52.43
  -2  -3  -1 4152.84   44.75
  -2  -3  -1 4170.16   47.47
  -2  -3  -1 4054.86   46.86
  -2  -3  -1 4579.65   55.47
   2   3   2  505.34   31.88
   2   3   2  464.83   18.09
  -2  -3  -2  463.49   16.54
  -2  -3  -2  461.23   12.12
  -2  -3  -2  417.90   11.53
  -2  -3  -2  475.07   16.11
   2   3   3 5323.68  136.26
   2   3   3 5085.11  128.66
  -2  -3  -3 5116.89  129.94
  -2  -3  -3 5096.93  128.54
   2   3   4 2362.09   66.57
   2   3   4 2292.29   62.86
  -2  -3  -4 2142.13   57.22
  -2  -3  -4 2270.68   62.85
   2   3   5 3800.70   66.88
  -2  -3  -5 3787.80   64.08
  -2  -3  -5 3589.20   64.29
   2   3   6   11.03    9.93
   2   3   6   26.38   11.29
  -2  -3  -6   75.43   19.32
   2   3   7  767.97   65.29
   2   3   7  812.29   41.66
  -2  -3  -7  812.39   46.19
   2   3   8 7116.76  170.58
   2   3   8 7262.16  175.21
   2   3   9  759.64   67.44
  -2  -3  -9  694.96   60.46
  -2  -3  -9  782.44   69.17
   2   3  10 1514.13  121.38
  -2  -3 -10 1505.28  120.89
  -2  -3 -10 1474.12  120.83
   2   3  11   31.32   20.94
  -2  -3 -11   22.52   14.54
  -2  -3 -11   -0.83   13.86
   2   4 -13   63.84   23.65
  -2  -4  13   79.56   29.48
   2   4 -12  587.44   63.30
   2   4 -12  602.39   46.98
  -2  -4  12  599.15   45.11
   2   4 -11   12.78   12.47
   2   4 -11   12.89   14.15
  -2  -4  11   28.65   16.19
   2   4 -10   92.71   16.57
   2   4 -10  129.96   36.04
   2   4 -10  165.44   35.55
  -2  -4  10  113.53   26.42
   2   4  -9 1556.47   62.92
   2   4  -9 1696.90  101.24
   2   4  -9 1698.52   76.53
  -2  -4   9 1880.06   85.29
   2   4  -8  195.41   16.25
   2   4  -8  255.07   34.59
   2   4  -8  188.43   21.96
  -2  -4   8  219.54   26.46
   2   4  -7  425.18   51.94
   2   4  -7  319.55   28.50
  -2  -4   7  339.49   31.15
  -2  -4   7  309.58   26.37
   2   4  -6 1270.70   61.02
   2   4  -6 1367.45   42.19
  -2  -4   6 1353.33   41.72
  -2  -4   6 1228.78   36.71
   2   4  -5  494.78   21.37
   2   4  -5  551.29   33.98
  -2  -4   5  503.23   13.55
  -2  -4   5  519.32   26.42
  -2  -4   5  580.43   25.63
  -2  -4   5  529.25   15.63
  -2  -4   5  565.21   21.66
   2   4  -410957.35  268.25
  -2  -4   410914.10  263.73
  -2  -4   411175.30  274.85
  -2  -4   410407.96  251.36
  -2  -4   410655.61  260.21
   2   4  -3  172.21   10.98
   2   4  -3  280.51   36.18
  -2  -4   3  205.90    7.85
  -2  -4   3  200.20   14.89
  -2  -4   3  245.97   24.77
  -2  -4   3  198.12   10.95
  -2  -4   3  196.81    9.31
   2   4  -2 1103.15   34.64
   2   4  -2  990.43   35.07
  -2  -4   2 1019.33   24.08
  -2  -4   2 1027.20   29.72
  -2  -4   2  994.38   39.03
  -2  -4   2 1057.54   35.29
  -2  -4   2 1098.08   25.30
   2   4  -1 2266.48   66.12
  -2  -4   1 2265.60   46.30
  -2  -4   1 2194.78   55.99
  -2  -4   1 2253.82   48.25
  -2  -4   1 2362.41   49.79
  -2  -4   1 2235.84   45.35
   2   4   014585.55  262.98
   2   4   014715.63  268.63
  -2  -4   014695.27  264.82
  -2  -4   014126.83  254.40
  -2  -4   014046.90  253.54
  -2  -4   013016.51  233.92
   2   4   1 4139.22  106.21
  -2  -4  -1 4194.82  107.77
  -2  -4  -1 4304.48  107.82
  -2  -4  -1 3907.47  100.77
  -2  -4  -1 4155.29  105.95
  -2  -4  -1 4361.65  111.15
   2   4   2    3.65    7.68
  -2  -4  -2   21.31   14.73
  -2  -4  -2   34.33   10.86
  -2  -4  -2   18.50    6.81
  -2  -4  -2   33.67    7.00
  -2  -4  -2    6.92    6.91
   2   4   3 4534.67  113.08
  -2  -4  -3 4569.38  114.12
  -2  -4  -3 4462.71  110.18
  -2  -4  -3 4533.79  112.29
   2   4   4 3952.85   87.67
  -2  -4  -4 3912.40   87.10
  -2  -4  -4 3663.82   80.30
  -2  -4  -4 3793.81   82.66
   2   4   5 1231.76   51.52
  -2  -4  -5 1389.74   58.06
  -2  -4  -5 1370.25   58.03
   2   4   6  140.42   20.85
  -2  -4  -6  113.36   20.34
  -2  -4  -6   92.10   19.54
   2   4   7  754.21   58.93
  -2  -4  -7  665.78   53.17
  -2  -4  -7  750.54   60.37
   2   4   8  974.97   63.40
  -2  -4  -8  871.71   59.58
  -2  -4  -8  988.35   63.96
   2   4   9 2348.16  140.27
  -2  -4  -9 2574.66  152.69
  -2  -4  -9 2326.03  140.60
   2   4  10   28.08   16.02
  -2  -4 -10   20.68   14.93
  -2  -4 -10   14.11   14.19
   2   5 -13  515.43  118.58
   2   5 -13  715.13   60.85
  -2  -5  13  818.63   67.73
   2   5 -12   27.60   15.36
   2   5 -12   40.49   18.18
  -2  -5  12   70.55   23.68
   2   5 -11 1079.48   88.11
   2   5 -11 1207.72   59.87
  -2  -5  11 1309.93   64.60
   2   5 -10   86.34   18.36
   2   5 -10  130.95   26.28
  -2  -5  10  159.09   21.54
   2   5  -9 2733.27  144.41
   2   5  -9 3110.91  155.06
  -2  -5   9 2455.20  118.40
  -2  -5   9 2924.35  147.68
   2   5  -8  131.64   42.46
   2   5  -8  128.17   18.30
  -2  -5   8  100.59    6.89
  -2  -5   8  149.09   20.54
   2   5  -7   46.51   20.25
   2   5  -7    2.90    1.99
   2   5  -7   14.11   13.52
  -2  -5   7   12.74    9.16
  -2  -5   7   12.89    3.22
   2   5  -613761.05  196.14
  -2  -5   611701.72  170.63
  -2  -5   612953.87  176.49
  -2  -5   612632.11  178.81
   2   5  -5  103.50   14.62
   2   5  -5  110.47   12.28
  -2  -5   5  126.36   10.27
  -2  -5   5  114.48   14.06
  -2  -5   5  121.43   12.68
   2   5  -4 1601.06   42.71
   2   5  -4 1653.09   60.19
  -2  -5   4 1595.72   40.43
  -2  -5   4 1479.87   44.93
  -2  -5   4 1554.26   65.53
  -2  -5   4 1601.10   40.79
  -2  -5   4 1652.27   43.49
   2   5  -3   93.70    8.14
   2   5  -3  131.35   13.05
  -2  -5   3   95.60    7.26
  -2  -5   3   88.66   10.85
  -2  -5   3  130.68   14.28
  -2  -5   3  109.80   17.05
  -2  -5   3   96.98    7.52
   2   5  -2  362.22   13.93
   2   5  -2  422.46   32.69
  -2  -5   2  351.91   14.79
  -2  -5   2  337.42   17.47
  -2  -5   2  342.93   15.97
  -2  -5   2  312.47   22.09
  -2  -5   2  334.67   13.28
   2   5  -1  183.16   23.83
   2   5  -1  136.03   13.29
  -2  -5   1  118.48    9.66
  -2  -5   1  129.92   10.79
  -2  -5   1  144.52   19.64
  -2  -5   1  130.05   12.40
  -2  -5   1  163.03   11.43
   2   5   0 3738.00  107.69
   2   5   0 3582.67  119.07
  -2  -5   0 3506.63   88.54
  -2  -5   0 3667.73   90.75
  -2  -5   0 3372.58  100.07
  -2  -5   0 3708.73   93.44
  -2  -5   0 3590.09   87.66
   2   5   1  232.58   27.85
   2   5   1  168.59   15.63
  -2  -5  -1  140.45   11.95
  -2  -5  -1  197.48   11.35
  -2  -5  -1  180.14   12.89
  -2  -5  -1  137.06   12.04
  -2  -5  -1  185.79   23.41
   2   5   2  223.79   20.73
  -2  -5  -2  222.22   15.47
  -2  -5  -2  239.35   21.32
  -2  -5  -2  231.47   20.81
  -2  -5  -2  251.58   19.89
   2   5   3  333.06   29.36
  -2  -5  -3  286.50   25.62
  -2  -5  -3  307.65   26.05
   2   5   4 1751.68   69.23
  -2  -5  -4 1882.43   74.77
  -2  -5  -4 1939.09   75.88
   2   5   5 2465.55  107.94
  -2  -5  -5 2030.82   90.10
  -2  -5  -5 2032.21   88.96
   2   5   6  560.49   47.96
  -2  -5  -6  511.63   41.86
  -2  -5  -6  516.34   41.58
   2   5   7  353.14   35.57
  -2  -5  -7  408.49   41.64
  -2  -5  -7  412.32   41.90
   2   5   8  367.59   43.20
  -2  -5  -8  427.03   47.01
  -2  -5  -8  407.13   45.41
   2   5   9  148.48   31.43
  -2  -5  -9  116.09   37.64
  -2  -5  -9   93.81   31.37
   2   6 -13   14.54   18.49
   2   6 -13   21.24   12.71
  -2  -6  13   80.79   25.75
   2   6 -12  553.56   57.35
   2   6 -12  460.07   74.50
  -2  -6  12  635.95   48.33
   2   6 -11  405.77   69.07
   2   6 -11  443.18   48.98
  -2  -6  11  510.46   56.30
   2   6 -10 1541.55  131.87
   2   6 -10 1671.74  101.52
  -2  -6  10 1732.75  106.60
   2   6  -9  541.57   99.01
   2   6  -9  649.93   50.58
  -2  -6   9  570.10   40.10
  -2  -6   9  635.05   51.12
   2   6  -8  247.01   43.77
   2   6  -8  251.84   23.99
   2   6  -8  286.19   32.79
  -2  -6   8  229.69   28.25
  -2  -6   8  252.58   24.61
   2   6  -7 3036.52  111.37
   2   6  -7 2825.84   96.46
  -2  -6   7 2936.53   95.49
  -2  -6   7 3031.50  106.39
  -2  -6   7 2637.57   89.65
   2   6  -6  942.12   54.62
   2   6  -6  991.65   36.92
   2   6  -6  956.22   39.80
  -2  -6   6 1053.80   48.38
  -2  -6   6  936.77   35.89
  -2  -6   6  877.25   35.64
   2   6  -5  681.34   83.24
   2   6  -5  695.26   48.88
   2   6  -5  661.34   47.66
  -2  -6   5  749.20   53.60
  -2  -6   5  660.20   47.18
   2   6  -4 1249.92   25.25
   2   6  -4 1250.89   58.84
  -2  -6   4 1192.59   24.61
  -2  -6   4 1146.40   23.22
   2   6  -3 1996.02   76.30
   2   6  -3 2053.65   46.33
  -2  -6   3 2134.42   38.05
  -2  -6   3 1844.93   39.92
  -2  -6   3 1989.75   48.35
  -2  -6   3 2104.16   34.52
   2   6  -2 1935.45   66.78
  -2  -6   2 2091.09   40.18
  -2  -6   2 1915.72   41.85
  -2  -6   2 1808.13   30.92
   2   6  -1  537.26   57.96
   2   6  -1  463.80   33.39
  -2  -6   1  402.25   28.63
  -2  -6   1  465.20   33.35
  -2  -6   1  350.13   51.32
  -2  -6   1  433.23   28.97
   2   6   0 4908.33  102.76
   2   6   0 5168.14  136.81
  -2  -6   0 5126.15  108.76
  -2  -6   0 4963.47  102.79
   2   6   1  686.83   55.10
   2   6   1  769.52   68.40
  -2  -6  -1  780.98   66.85
  -2  -6  -1  838.13   69.90
  -2  -6  -1  669.52   54.15
  -2  -6  -1  805.90   67.05
   2   6   2  154.89   18.63
  -2  -6  -2  153.35   21.14
  -2  -6  -2  144.37   15.67
  -2  -6  -2  117.02   14.03
   2   6   311923.83 1106.59
  -2  -6  -310582.85  343.82
   2   6   4   21.47   12.00
  -2  -6  -4  112.74   24.11
  -2  -6  -4   14.53   11.35
   2   6   5  551.10   46.05
  -2  -6  -5  572.02   47.89
  -2  -6  -5  533.66   42.46
   2   6   6   39.85   23.18
  -2  -6  -6    1.37    9.59
  -2  -6  -6   33.86   15.38
   2   6   7   66.26   21.56
  -2  -6  -7   31.54   16.94
  -2  -6  -7   41.97   16.05
   2   6   8  714.76   53.19
  -2  -6  -8  792.89   56.48
  -2  -6  -8  760.78   52.91
   2   7 -12  182.96   77.36
   2   7 -12  281.28   49.63
  -2  -7  12  445.76   44.13
   2   7 -11   51.17   25.25
   2   7 -11   34.75   18.52
  -2  -7  11   16.81   13.93
   2   7 -10  241.50   72.93
   2   7 -10  208.53   25.21
  -2  -7  10  317.68   38.61
   2   7  -9   92.04   23.20
   2   7  -9   80.17   16.55
  -2  -7   9  103.71   23.51
   2   7  -8 3315.54  100.48
   2   7  -8 3321.84   81.44
  -2  -7   8 3274.99   75.09
  -2  -7   8 3842.86   98.61
   2   7  -7  324.80   44.90
   2   7  -7  283.90   28.48
   2   7  -7  218.76   24.20
  -2  -7   7  302.88   37.73
  -2  -7   7  261.27   27.11
  -2  -7   7  218.68   23.84
   2   7  -6 6400.76  255.93
   2   7  -6 8672.40  347.14
  -2  -7   6 6098.21  244.39
  -2  -7   6 8183.76  330.86
  -2  -7   6 8252.90  329.98
   2   7  -5 1819.35   78.43
   2   7  -5 1467.73   50.24
   2   7  -5 1813.17   61.69
  -2  -7   5 1867.29   64.62
  -2  -7   5 1681.01   57.11
   2   7  -4  804.28   80.51
   2   7  -4  634.07   46.64
  -2  -7   4  622.59   37.04
  -2  -7   4  686.48   29.29
  -2  -7   4  613.82   35.03
   2   7  -3  156.42   22.63
  -2  -7   3  118.37   14.63
  -2  -7   3   75.43   23.42
  -2  -7   3   99.48    9.50
   2   7  -2 2641.19  116.59
  -2  -7   2 2744.06  100.69
  -2  -7   2 2506.43   99.63
  -2  -7   2 2601.08   92.02
   2   7  -1 1589.95  105.72
   2   7  -1 1773.37   70.67
  -2  -7   1 1995.56   76.76
  -2  -7   1 1680.17   65.77
  -2  -7   1 1718.67   62.54
  -2  -7   1 1644.77   59.48
   2   7   0  456.40   51.09
   2   7   0  582.49   63.75
  -2  -7   0  433.04   31.47
  -2  -7   0  383.28   27.41
  -2  -7   0  353.87   22.64
  -2  -7   0  385.68   23.54
   2   7   1  177.67   30.89
   2   7   1  175.10   31.63
  -2  -7  -1  149.14   21.92
  -2  -7  -1  110.55   13.55
  -2  -7  -1   80.80   14.62
  -2  -7  -1  118.72   13.73
   2   7   2    6.97    3.96
   2   7   2   14.14   11.69
  -2  -7  -2   14.22   10.70
  -2  -7  -2   13.25    4.95
  -2  -7  -2    4.77    2.58
  -2  -7  -2    6.08    5.65
   2   7   3 2468.20   69.01
  -2  -7  -3 1938.34   43.37
  -2  -7  -3 2541.95   70.29
  -2  -7  -3 2152.18   55.76
   2   7   4  485.07   39.44
  -2  -7  -4  434.10   36.72
  -2  -7  -4  404.33   32.78
   2   7   5   -8.95   11.81
  -2  -7  -5   10.95   11.12
  -2  -7  -5   40.98   13.92
   2   7   6  543.09  147.91
  -2  -7  -6  602.64   55.15
  -2  -7  -6  492.15   63.87
   2   7   7  237.67   44.12
  -2  -7  -7  220.51   40.09
  -2  -7  -7  252.87   44.74
   2   8 -12   48.13   24.08
  -2  -8  12   23.93   14.75
   2   8 -11  448.83  127.80
  -2  -8  11  648.31   49.69
   2   8 -10  164.64   39.63
   2   8 -10  155.91   24.02
  -2  -8  10  194.24   32.51
   2   8  -9   21.92   11.25
   2   8  -9   14.97    9.78
  -2  -8   9   44.14   16.96
   2   8  -8  440.92   64.32
   2   8  -8  429.53   37.11
  -2  -8   8  367.63   31.52
  -2  -8   8  452.20   43.68
   2   8  -7 2605.61  136.86
   2   8  -7 2705.75  120.13
  -2  -8   7 2838.77  126.05
  -2  -8   7 3151.96  144.33
   2   8  -6 2266.96   54.22
   2   8  -6 2360.13   85.98
  -2  -8   6 2521.61   62.46
   2   8  -5  898.23  107.87
  -2  -8   5  786.13   42.70
  -2  -8   5  708.27   35.44
   2   8  -4  476.67   50.52
  -2  -8   4  464.46   29.68
  -2  -8   4  368.60   63.34
   2   8  -3  158.18   28.31
  -2  -8   3  164.94   31.02
  -2  -8   3  107.49   10.62
  -2  -8   3  116.36   11.43
   2   8  -2 2337.65  128.66
  -2  -8   2 2544.03  127.07
  -2  -8   2 1840.52   88.37
  -2  -8   2 2047.32   98.20
   2   8  -1 1325.12   71.33
   2   8  -1 1231.69   81.55
  -2  -8   1 1283.48   68.93
  -2  -8   1 1037.54   51.09
  -2  -8   1 1141.59   55.94
   2   8   0 3344.07  166.20
   2   8   0 3331.01  184.59
  -2  -8   0 3239.61  160.19
  -2  -8   0 2995.97  147.07
  -2  -8   0 2715.16  131.36
  -2  -8   0 2662.05  128.47
   2   8   1  364.89   40.06
   2   8   1  226.10   38.77
  -2  -8  -1  250.29   24.80
  -2  -8  -1  272.57   22.36
   2   8   2  265.17   48.47
   2   8   2  169.44   23.86
  -2  -8  -2  271.21   27.04
  -2  -8  -2  212.48   18.72
   2   8   3 2440.07  145.02
  -2  -8  -3 2433.99  145.92
   2   8   4   15.33   12.32
  -2  -8  -4   21.68   13.94
  -2  -8  -4    3.35    7.62
   2   8   5  189.41   29.25
  -2  -8  -5  156.93   26.47
  -2  -8  -5   76.11   18.48
   2   8   6   45.27   23.72
  -2  -8  -6   14.03    8.87
   2   9 -11  826.73  113.65
  -2  -9  11 1049.28  112.48
   2   9 -10  296.51   87.37
  -2  -9  10  439.93   71.67
   2   9  -9   45.83   20.36
  -2  -9   9   33.23   18.35
   2   9  -8   85.69   25.93
  -2  -9   8   42.94   18.44
   2   9  -7   39.26   18.69
  -2  -9   7   41.25   11.71
  -2  -9   7   41.96   17.24
   2   9  -6   87.49   27.17
  -2  -9   6   57.32   14.18
   2   9  -5 1082.16   68.89
  -2  -9   5 1096.61   53.82
   2   9  -4  430.08   64.78
  -2  -9   4  387.81   31.42
   2   9  -3  346.95   76.35
  -2  -9   3  299.61   27.71
   2   9  -2  237.88   36.85
  -2  -9   2  236.41   24.68
   2   9  -1 1377.98   84.41
  -2  -9   1 1346.21   82.65
   2   9   0  866.50   60.09
   2   9   0  786.79   72.36
  -2  -9   0  868.96   56.04
   2   9   1 1306.30   85.53
  -2  -9  -1 1351.68   65.41
   2   9   2 2249.80  138.82
  -2  -9  -2 1911.19  114.05
   2   9   3 2135.18  176.09
  -2  -9  -3 2432.51  189.86
   2   9   4  455.27   43.93
  -2  -9  -4  488.60   43.81
   2  10  -9  284.61   77.15
  -2 -10   9  464.81   42.38
   2  10  -8  183.21   44.37
  -2 -10   8  190.64   35.63
   2  10  -6  258.36   58.41
  -2 -10   6  257.64   36.30
  -2 -10   5    5.97    8.03
   2  10  -4  184.82   33.86
  -2 -10   4  188.91   23.59
   2  10  -3  144.57   32.95
  -2 -10   3   27.06   13.94
   2  10  -2   75.24   24.19
  -2 -10   2   49.33   15.47
   2  10  -1  124.64   47.10
  -2 -10   1  218.98   34.23
   2  10   0   21.23   16.13
  -2 -10   0    9.04    9.41
   2  10   1  157.44   47.08
  -2 -10  -1  145.91   29.29
   2  10   2   73.49   24.34
  -2 -10  -2   46.11   20.73
   2  11  -7  586.31   97.93
   2  11  -6 1798.78  138.58
   2  11  -5   53.96   20.35
  -2 -11   5   60.69   21.05
   2  11  -4  158.86   48.58
  -2 -11   4  169.11   31.79
   2  11  -3  771.27   69.52
  -2 -11   3  814.52   63.56
   2  11  -2   30.86   20.53
  -2 -11   2   62.15   24.22
  -2 -11   1  343.53   44.28
   3 -11   2  877.00   94.05
  -3  11  -2  969.05  111.65
   3 -11   3  224.50   30.17
  -3  11  -3  178.37   29.51
   3 -11   4  104.34   18.78
  -3  11  -4  119.34   27.09
   3 -11   5  858.00   93.44
  -3  11  -5  735.24   83.85
   3 -10  -2  691.36   76.25
  -3  10   2  570.95   68.08
  -3  10   2  741.32  100.37
   3 -10  -1  871.38   70.27
  -3  10   1  930.74   76.78
  -3  10   1  820.14   81.36
   3 -10   0  874.13   59.34
  -3  10   0  966.86   67.01
  -3  10   0  908.94   64.64
   3 -10   1   23.66   13.84
  -3  10  -1   41.87   22.12
  -3  10  -1   36.08   18.43
   3 -10   2   42.56   19.42
  -3  10  -2  -22.73   14.85
   3 -10   3 3548.50  274.69
   3 -10   4 3907.08  300.60
  -3  10  -4 3971.58  309.55
   3 -10   5  676.32   60.01
  -3  10  -5  601.81   61.15
   3 -10   6 2385.32  136.83
  -3  10  -6 2575.23  148.59
   3 -10   7   27.99   13.39
  -3  10  -7  111.67   44.28
   3 -10   8  726.53   60.37
   3 -10   8  739.23   61.34
  -3  10  -8  622.68   61.13
   3  -9  -4   -1.16   11.44
  -3   9   4   53.50   25.37
   3  -9  -3  213.23   40.52
  -3   9   3  194.54   35.81
  -3   9   3  204.64   37.56
   3  -9  -2  573.78   53.23
  -3   9   2  466.38   62.28
  -3   9   2  562.44  152.47
   3  -9  -1  758.43   54.56
  -3   9   1  948.20   67.63
  -3   9   1  815.21   73.63
   3  -9   0  152.19   21.85
  -3   9   0  117.07   22.61
  -3   9   0   59.48   15.07
   3  -9   1  151.12   32.42
  -3   9  -1  228.73   34.70
  -3   9  -1  130.65   33.82
   3  -9   2 1157.61   73.10
  -3   9  -2 1360.88   84.83
   3  -9   3  929.57   62.24
  -3   9  -3  939.55   64.45
   3  -9   4  536.15   52.00
  -3   9  -4  491.66   54.36
   3  -9   5   51.86   16.58
  -3   9  -5   34.09   17.59
   3  -9   6  412.34   45.73
  -3   9  -6  442.16   55.33
   3  -9   7  117.94   20.30
  -3   9  -7  154.55   28.04
   3  -9   8   46.64   17.16
   3  -9   8   52.11   16.86
  -3   9  -8   57.34   28.02
   3  -9   9   93.62   29.65
   3  -9   9  145.93   30.34
  -3   9  -9   63.89   26.51
   3  -9  10   63.71   19.94
   3  -9  10   25.79   15.73
  -3   9 -10   11.60   17.92
   3  -8  -6  703.79   78.50
  -3   8   6  719.30   79.03
   3  -8  -5  256.74   45.87
  -3   8   5  239.38   41.88
  -3   8   5  272.26   51.54
   3  -8  -4 1070.67   72.14
   3  -8  -4  890.13   56.38
  -3   8   4 1136.68   77.42
  -3   8   4  991.52   65.04
   3  -8  -3  581.38   60.30
   3  -8  -3  499.23   50.34
  -3   8   3  559.52   58.92
  -3   8   3  578.60   59.69
   3  -8  -2   37.03   13.98
   3  -8  -2   70.92   16.90
  -3   8   2   55.35   22.88
  -3   8   2  105.31   25.34
   3  -8  -1  355.85   33.70
   3  -8  -1  211.28   18.57
  -3   8   1  318.90   29.51
  -3   8   1  273.65   29.75
   3  -8   0  763.46   59.75
   3  -8   0  569.43   44.48
  -3   8   0  623.32   62.35
  -3   8   0  691.97   58.31
   3  -8   1   63.00   18.07
  -3   8  -1   73.83   24.02
  -3   8  -1   33.10   15.92
   3  -8   2  236.38   25.42
  -3   8  -2  166.30   33.56
  -3   8  -2  192.98   43.61
   3  -8   3 1157.43   40.97
  -3   8  -3 1464.03   57.16
   3  -8   4 5274.29  130.04
  -3   8  -4 5403.81  140.53
   3  -8   5 1058.42   39.62
  -3   8  -5 1251.58   57.76
  -3   8  -5  929.06   26.72
   3  -8   6  764.92   43.36
  -3   8  -6  752.38   50.66
  -3   8  -6  563.87   40.03
   3  -8   7 1131.19   72.50
  -3   8  -7 1036.44   73.68
  -3   8  -7 1096.32   65.88
   3  -8   8 2605.47  115.13
   3  -8   8 2250.73   99.34
  -3   8  -8 2421.78  111.94
  -3   8  -8 2007.46   86.28
   3  -8   9 1872.98  148.30
   3  -8   9 1877.56  148.24
  -3   8  -9 1794.73  146.82
  -3   8  -9 1409.39  110.26
   3  -8  10  126.73   28.71
  -3   8 -10  123.47   26.79
   3  -8  11  133.85   24.53
  -3   8 -11  241.76   42.08
   3  -7  -7   32.95   19.71
   3  -7  -7   37.68   17.68
  -3   7   7   53.86   26.16
   3  -7  -6 2445.08  192.18
   3  -7  -6 2105.80  164.79
  -3   7   6 2597.34  203.95
   3  -7  -5  161.32   21.28
   3  -7  -5  162.28   26.32
  -3   7   5  180.79   28.83
  -3   7   5  149.56   20.93
   3  -7  -4   26.82   12.30
   3  -7  -4   19.95   10.02
  -3   7   4   30.39   20.90
  -3   7   4   22.74   15.01
   3  -7  -3   81.42   21.14
   3  -7  -3   46.05   11.40
  -3   7   3   60.41   18.77
  -3   7   3   94.38   21.60
   3  -7  -2  389.90   70.63
   3  -7  -2  483.87   30.81
  -3   7   2  519.56   36.68
  -3   7   2  450.81   35.71
  -3   7   2  328.77   33.90
   3  -7  -1  283.30   35.33
   3  -7  -1  251.93   27.79
  -3   7   1  256.50   31.69
  -3   7   1  224.36   29.28
   3  -7   0  121.41   20.82
   3  -7   0  131.98   21.78
  -3   7   0  199.81   33.20
  -3   7   0  138.32   20.86
  -3   7   0  133.85   15.18
   3  -7   1   20.05   15.78
   3  -7   1   18.93    4.90
  -3   7  -1   29.35   14.13
  -3   7  -1   52.27   21.76
  -3   7  -1   23.93    6.83
   3  -7   2   51.41   12.50
  -3   7  -2   65.67   20.79
  -3   7  -2   62.73   14.14
  -3   7  -2   28.49    5.98
   3  -7   3 2253.40   83.21
  -3   7  -3 1964.41   82.55
  -3   7  -3 1876.07   63.90
   3  -7   4  325.93   39.54
  -3   7  -4  332.22   43.23
  -3   7  -4  251.50   25.79
   3  -7   5  128.60   21.44
  -3   7  -5   84.83   26.68
  -3   7  -5   78.76   11.31
   3  -7   6   52.75   12.69
  -3   7  -6   84.19   26.77
  -3   7  -6   40.09    8.24
  -3   7  -6   63.95    9.92
   3  -7   7  164.52   32.83
   3  -7   7  208.57   24.03
  -3   7  -7  167.60   36.81
  -3   7  -7   98.31   18.80
   3  -7   8  687.36   51.48
   3  -7   8  638.28   47.90
  -3   7  -8  718.05   58.31
  -3   7  -8  684.87   49.70
   3  -7   9   25.56   14.14
   3  -7   9   10.78    9.71
  -3   7  -9    7.55   16.44
  -3   7  -9   18.02    7.49
   3  -7  10  448.75   58.96
   3  -7  10  521.50   68.21
  -3   7 -10  460.21   64.58
  -3   7 -10  391.10   51.18
   3  -7  11   17.54   14.64
   3  -7  11    7.06   10.90
  -3   7 -11   -0.73   15.89
  -3   7 -11   23.92   11.74
   3  -6  -8    5.86   11.48
   3  -6  -8   32.48   18.18
  -3   6   8   43.51   19.27
   3  -6  -7   46.26   20.08
   3  -6  -7   38.43   18.47
  -3   6   7   27.76   17.84
  -3   6   7   26.44   12.62
   3  -6  -6 1873.97   86.79
   3  -6  -6 1672.60   77.08
  -3   6   6 1918.68   88.65
  -3   6   6 1780.95   80.01
   3  -6  -5   44.76   18.10
   3  -6  -5   55.41   15.17
  -3   6   5   71.11   20.25
  -3   6   5   63.58   15.95
   3  -6  -4  539.86   38.30
   3  -6  -4  492.44   32.59
  -3   6   4  551.01   39.56
  -3   6   4  490.89   33.43
   3  -6  -3  174.90   23.43
   3  -6  -3  147.17   20.31
  -3   6   3  192.72   27.51
  -3   6   3  164.63   23.04
   3  -6  -2  109.12   15.40
   3  -6  -2  147.09   15.32
  -3   6   2  139.17   19.28
  -3   6   2  135.46   18.59
  -3   6   2   93.12   10.31
   3  -6  -1  845.25   41.19
   3  -6  -1  859.57   37.35
  -3   6   1  816.22   40.41
  -3   6   1  728.34   40.36
  -3   6   1  700.42   29.70
   3  -6   0   34.43    9.15
   3  -6   0   25.63    9.96
  -3   6   0   37.28   11.89
  -3   6   0   71.88   19.75
  -3   6   0   41.86    7.83
   3  -6   1 1529.06   44.73
   3  -6   1 1638.70   47.57
  -3   6  -1 1740.29   66.77
  -3   6  -1 1761.06   53.00
  -3   6  -1 1642.53   38.79
   3  -6   2  130.99   17.71
  -3   6  -2  135.30   20.15
  -3   6  -2  140.12   20.38
  -3   6  -2  122.30   11.71
   3  -6   3 1479.34   42.55
  -3   6  -3 1516.61   53.50
  -3   6  -3 1459.59   35.36
   3  -6   4 2528.75   96.91
  -3   6  -4 1462.60   64.61
  -3   6  -4 2144.34   78.71
   3  -6   5   10.56   10.29
  -3   6  -5   26.60   20.92
  -3   6  -5   21.39    7.84
   3  -6   6  314.53   27.21
   3  -6   6  301.46   23.84
  -3   6  -6  324.00   29.08
  -3   6  -6  215.05   36.98
  -3   6  -6  350.22   25.14
   3  -6   7   17.94    9.15
   3  -6   7   32.35    9.38
  -3   6  -7   10.04   14.75
  -3   6  -7   40.28   14.57
   3  -6   8  899.08   35.28
   3  -6   8  837.19   33.25
  -3   6  -8  881.69   41.06
  -3   6  -8  699.83   53.58
   3  -6   9  644.79   56.90
   3  -6   9  639.21   56.40
  -3   6  -9  667.15   61.95
  -3   6  -9  555.82   48.29
   3  -6  10   44.31   11.29
   3  -6  10  108.78   19.23
  -3   6 -10  109.06   25.38
  -3   6 -10   68.19   12.97
   3  -6  11  542.50  147.10
   3  -6  11  703.91   62.02
  -3   6 -11  589.16   57.85
  -3   6 -11  522.06   68.45
   3  -6  12  105.01   24.86
   3  -6  12   94.32   23.28
  -3   6 -12  122.23   33.61
  -3   6 -12   81.99   19.36
   3  -5  -9  817.77   53.19
   3  -5  -9  812.27   53.45
  -3   5   9  827.13   55.80
   3  -5  -8  870.24   57.45
   3  -5  -8  885.50   59.75
  -3   5   8 1009.43   68.22
  -3   5   8  895.10   59.03
   3  -5  -7  134.94   27.75
   3  -5  -7   63.21   16.14
  -3   5   7   53.86   19.24
  -3   5   7   94.35   20.78
   3  -5  -611350.31 1704.90
   3  -5  -610936.22  251.97
  -3   5   611901.64 1788.04
  -3   5   610952.60  250.94
   3  -5  -5  185.08   24.29
   3  -5  -5  161.98   24.04
  -3   5   5  157.98   24.51
  -3   5   5  181.72   23.41
   3  -5  -4  759.72   33.93
   3  -5  -4  703.26   33.97
  -3   5   4  663.36   32.65
  -3   5   4  736.42   34.74
   3  -5  -3  412.84   39.37
   3  -5  -3  529.98   48.05
  -3   5   3  506.75   45.68
  -3   5   3  533.84   50.95
  -3   5   3  453.36   39.60
   3  -5  -2  858.20   30.26
   3  -5  -2  870.84   28.95
  -3   5   2  802.14   68.46
  -3   5   2  846.01   32.58
  -3   5   2  826.08   68.98
   3  -5  -1  493.27   35.67
   3  -5  -1  462.07   32.78
   3  -5  -1  461.24   33.69
  -3   5   1  537.28   43.48
  -3   5   1  574.66   43.82
  -3   5   1  478.30   32.40
   3  -5   0 4452.66   77.67
   3  -5   0 4223.65   70.51
   3  -5   0 4477.37   72.15
  -3   5   0 4363.35   81.48
  -3   5   0 4503.10   75.95
  -3   5   0 4243.03   67.16
   3  -5   1  445.27   33.89
   3  -5   1  413.81   28.98
   3  -5   1  426.58   47.89
  -3   5  -1  456.79   35.92
  -3   5  -1  412.89   44.66
  -3   5  -1  462.10   31.61
   3  -5   2 5996.27   96.31
   3  -5   2 5550.87   86.77
  -3   5  -2 6061.21   95.90
  -3   5  -2 5939.47  101.57
  -3   5  -2 5901.51   89.32
   3  -5   3   -0.09    9.55
   3  -5   3   15.13    7.37
  -3   5  -3  -11.83   13.38
  -3   5  -3   14.45    7.10
   3  -5   4  156.99   16.62
   3  -5   4  177.87   15.22
  -3   5  -4  214.30   24.46
  -3   5  -4  191.62   15.51
   3  -5   5  367.03   31.20
   3  -5   5  364.39   51.02
  -3   5  -5  482.28   44.09
  -3   5  -5  293.13   32.14
   3  -5   6  114.58   19.58
   3  -5   6   75.62   12.55
  -3   5  -6   67.67   17.96
  -3   5  -6   64.86   11.48
   3  -5   7 7581.45  249.83
   3  -5   7 7260.80  237.16
   3  -5   8  255.82   30.72
   3  -5   8  237.30   28.17
  -3   5  -8  202.04   27.32
  -3   5  -8  174.13   21.66
   3  -5   9 1332.24   67.26
   3  -5   9 1268.68   63.90
  -3   5  -9 1065.52   55.88
   3  -5  10   25.61    9.11
   3  -5  10   49.27   18.27
  -3   5 -10   50.00   26.26
  -3   5 -10   72.33   21.95
   3  -5  11   23.25    9.96
   3  -5  11   68.49   18.58
  -3   5 -11   70.63   24.26
  -3   5 -11   56.48   23.25
   3  -5  12   24.99   12.65
   3  -5  12   38.33   19.46
  -3   5 -12   47.05   19.94
  -3   5 -12   45.70   22.79
   3  -4 -10  292.13   49.85
   3  -4 -10  361.40   40.92
  -3   4  10  394.32   41.83
   3  -4  -9  902.37   74.86
   3  -4  -9  846.18   72.90
  -3   4   9  928.90   80.41
   3  -4  -8  467.17   43.85
   3  -4  -8  520.68   51.71
  -3   4   8  531.34   53.40
  -3   4   8  442.16   41.73
   3  -4  -7  210.91   24.67
   3  -4  -7  228.31   26.26
  -3   4   7  215.92   24.80
  -3   4   7  247.36   27.24
   3  -4  -6  109.20   16.84
   3  -4  -6  121.61   19.83
  -3   4   6  119.48   21.53
  -3   4   6  117.20   19.28
   3  -4  -5   64.70   17.24
   3  -4  -5   31.44   12.09
  -3   4   5   73.60   22.46
  -3   4   5   50.50   14.85
   3  -4  -4   32.59   13.22
   3  -4  -4   20.24    9.55
  -3   4   4   25.63   10.33
  -3   4   4   27.72   17.09
   3  -4  -3 2369.33   48.80
   3  -4  -3 2146.83   42.10
   3  -4  -3 2148.00   45.48
  -3   4   3 2315.76   49.11
  -3   4   3 2303.99   48.38
  -3   4   3 2160.67   41.79
   3  -4  -2   47.48    8.94
   3  -4  -2   51.74   10.33
   3  -4  -2   34.14    7.87
   3  -4  -2   50.44    8.06
  -3   4   2   61.11   10.46
  -3   4   2   35.03    6.60
  -3   4   2   43.08    8.25
  -3   4   2   41.84    7.64
   3  -4  -1  233.63   15.42
   3  -4  -1  319.91   17.94
   3  -4  -1  276.71   16.35
   3  -4  -1  244.01   13.70
  -3   4   1  215.16   17.67
  -3   4   1  323.30   19.65
  -3   4   1  246.86   14.62
  -3   4   1  264.39   14.11
   3  -4   0  460.07   23.71
   3  -4   0  455.45   20.93
   3  -4   0  353.89   17.75
   3  -4   0  383.29   15.92
  -3   4   0  460.97   25.71
  -3   4   0  453.96   21.29
  -3   4   0  405.94   19.45
  -3   4   0  451.06   18.78
   3  -4   1 8196.42  204.49
   3  -4   1 7841.65  193.68
   3  -4   1 7953.36  198.41
  -3   4  -1 8426.42  209.16
  -3   4  -1 8416.44  209.33
  -3   4  -1 8437.97  208.29
   3  -4   2  133.41   13.30
   3  -4   2  129.68   13.30
   3  -4   2  135.13    9.10
  -3   4  -2  126.50   11.09
  -3   4  -2  156.63   18.83
  -3   4  -2  146.48   10.93
   3  -4   318287.71 1113.35
   3  -4   316432.25  999.57
  -3   4  -317227.59 1048.17
   3  -4   4  328.79   18.86
   3  -4   4  386.46   22.35
  -3   4  -4  399.62   28.29
  -3   4  -4  282.64   30.02
   3  -4   5  479.09   35.38
   3  -4   5  442.15   30.29
   3  -4   5  431.70   34.00
  -3   4  -5  541.20   42.72
  -3   4  -5  439.32   42.26
   3  -4   6 4885.95  105.87
   3  -4   6 4639.99   98.23
   3  -4   7  763.61   39.62
   3  -4   7  715.85   32.27
  -3   4  -7  728.81   39.36
  -3   4  -7  815.88   43.13
   3  -4   8 6331.64  258.10
   3  -4   8 6535.08  265.19
  -3   4  -8 4906.81  202.80
   3  -4   9  714.00   56.49
   3  -4   9  734.50   55.59
  -3   4  -9  642.84   53.15
  -3   4  -9  728.72   60.90
   3  -4  10  848.88   57.10
   3  -4  10  822.02   58.55
  -3   4 -10  764.40   68.94
  -3   4 -10  794.20   69.09
   3  -4  11  427.12   45.75
   3  -4  11  391.69   42.30
  -3   4 -11  320.06   38.73
  -3   4 -11  399.25   44.83
   3  -4  12   44.70   18.24
   3  -4  12   45.02   17.98
  -3   4 -12   64.84   25.18
  -3   4 -12   44.95   22.85
   3  -3 -11  205.20   28.28
   3  -3 -11  196.68   32.18
  -3   3  11  219.59   34.43
   3  -3 -10  499.86   63.97
   3  -3 -10  570.76   56.44
  -3   3  10  532.56   70.76
  -3   3  10  397.59   52.98
   3  -3  -9   85.85   17.02
   3  -3  -9   59.49   22.23
  -3   3   9   99.19   24.03
  -3   3   9   49.14   13.05
   3  -3  -8 1818.24   85.75
   3  -3  -8 1900.87   93.37
  -3   3   8 1880.43   91.02
  -3   3   8 1878.46   89.76
   3  -3  -7  300.21   33.85
   3  -3  -7  371.88   67.89
  -3   3   7  335.71   38.40
  -3   3   7  324.12   37.30
   3  -3  -6 9162.44  297.08
   3  -3  -6 8498.00  278.78
  -3   3   6 9775.57  320.63
  -3   3   6 9524.76  309.64
   3  -3  -5 2689.68   63.27
   3  -3  -5 2723.16   67.61
  -3   3   5 2946.72   72.34
  -3   3   5 2711.44   66.50
   3  -3  -4   26.79   10.97
   3  -3  -4   11.31   12.62
   3  -3  -4   22.40   10.90
   3  -3  -4    8.02    7.46
  -3   3   4   32.40   15.51
  -3   3   4   16.40    9.92
  -3   3   4    0.16    6.31
   3  -3  -3 2793.28   74.40
   3  -3  -3 2873.62   76.86
   3  -3  -3 2752.03   72.15
   3  -3  -3 2734.90   71.05
  -3   3   3 2666.18   71.90
  -3   3   3 2941.82   78.05
  -3   3   3 2807.23   71.98
  -3   3   3 2811.61   73.64
   3  -3  -2 5755.21  146.25
   3  -3  -2 5840.87  149.41
   3  -3  -2 5572.10  141.52
   3  -3  -2 5480.15  138.15
  -3   3   2 5911.78  152.28
  -3   3   2 5819.12  147.95
  -3   3   2 5623.27  140.83
  -3   3   2 5702.06  143.71
   3  -3  -1 4893.92   96.39
   3  -3  -1 5008.10   98.31
   3  -3  -1 4906.40   97.16
   3  -3  -1 4831.68   92.70
  -3   3   1 5030.64  102.97
  -3   3   1 4763.33   92.29
  -3   3   1 5119.48   98.45
  -3   3   1 4998.16   96.73
   3  -3   0  199.16   15.98
   3  -3   0  132.17   11.63
   3  -3   0  179.74   13.84
   3  -3   0  165.23    9.96
  -3   3   0  171.70   17.80
  -3   3   0  164.77   12.59
  -3   3   0  149.32   11.89
  -3   3   0  190.24   12.85
   3  -3   1    0.98    8.45
   3  -3   1    8.42    5.37
   3  -3   1    0.90    8.95
   3  -3   1   26.93    7.86
  -3   3  -1   50.14   19.96
  -3   3  -1    9.59    8.91
  -3   3  -1   10.06    7.63
  -3   3  -1   22.90    8.51
   3  -3   2  128.54   12.49
   3  -3   2  134.52   13.13
   3  -3   2  115.36    7.76
  -3   3  -2  110.91   10.81
  -3   3  -2  125.30   16.06
  -3   3  -2  117.11   10.01
   3  -3   3  582.06   24.05
   3  -3   3  773.08   28.14
   3  -3   3  759.50   33.02
  -3   3  -3  781.47   26.90
  -3   3  -3  721.59   28.94
  -3   3  -3  743.28   41.92
   3  -3   4   31.97    9.94
   3  -3   4   50.56    8.24
   3  -3   4   60.90    7.76
   3  -3   4   49.50    7.17
  -3   3  -4   74.51   23.53
  -3   3  -4   50.64    7.44
  -3   3  -4   42.21    9.23
   3  -3   5   93.90   15.68
   3  -3   5   97.47    9.34
   3  -3   5   94.12   11.79
  -3   3  -5  103.71   14.41
  -3   3  -5  116.32   15.08
   3  -3   6   54.60   13.22
   3  -3   6   62.39    9.57
   3  -3   6   36.76    6.36
  -3   3  -6   66.04   14.86
   3  -3   711126.63  604.33
   3  -3   711642.83  631.28
  -3   3  -710158.55  357.72
   3  -3   8  157.03   18.49
   3  -3   8  214.27   18.67
  -3   3  -8  221.90   25.62
  -3   3  -8  186.80   19.99
   3  -3   9 3872.99  190.93
   3  -3   9 3941.07  194.25
  -3   3  -9 3803.03  187.65
   3  -3  10  157.08   18.79
   3  -3  10  207.26   23.61
  -3   3 -10  133.22   26.15
  -3   3 -10  155.60   21.48
   3  -3  11  110.84   19.32
   3  -3  11  150.77   21.50
  -3   3 -11  101.24   18.41
  -3   3 -11   72.67   15.15
   3  -3  12  274.16   46.37
   3  -3  12  268.34   48.00
  -3   3 -12  199.46   39.21
  -3   3 -12  297.16   52.95
   3  -2 -11  783.49   56.74
  -3   2  11  938.95   62.67
  -3   2  11  838.01   54.28
   3  -2 -10   33.11   12.57
   3  -2 -10   78.44   25.02
  -3   2  10   71.44   26.35
  -3   2  10   39.51   12.44
   3  -2  -9  170.83   19.46
   3  -2  -9  111.69   22.87
  -3   2   9   96.10   23.56
  -3   2   9  127.88   25.09
   3  -2  -8  638.92   36.59
   3  -2  -8  679.48   45.56
  -3   2   8  898.71   52.93
  -3   2   8  783.98   46.56
  -3   2   7 6917.67  227.97
  -3   2   7 6817.21  227.55
   3  -2  -6 1303.03   64.27
   3  -2  -6 1411.71   60.62
  -3   2   6 1363.48   59.08
  -3   2   6 1357.55   56.03
   3  -2  -5  403.51   28.91
   3  -2  -5  422.22   30.28
   3  -2  -5  542.12   40.80
  -3   2   5  514.31   37.14
  -3   2   5  483.89   36.16
  -3   2   5  465.22   31.93
   3  -2  -4 6763.44  162.07
   3  -2  -4 6098.54  149.24
   3  -2  -4 6568.24  158.16
   3  -2  -4 6877.17  164.93
  -3   2   4 6689.88  162.74
  -3   2   4 6986.16  169.34
  -3   2   4 6697.01  158.86
   3  -2  -3 3995.73  102.80
   3  -2  -3 4300.37  113.84
   3  -2  -3 4086.18  105.47
   3  -2  -3 4136.57  105.65
  -3   2   3 3958.96  104.22
  -3   2   3 4007.49  104.72
  -3   2   3 4211.02  106.58
  -3   2   3 3593.88   92.80
   3  -2  -2  431.76   16.07
   3  -2  -2  435.00   20.01
   3  -2  -2  474.85   20.58
   3  -2  -2  421.66   15.39
  -3   2   2  410.90   21.71
  -3   2   2  414.00   18.44
  -3   2   2  410.56   15.60
  -3   2   2  453.83   18.12
   3  -2  -1  567.50   19.24
   3  -2  -1  676.46   24.36
   3  -2  -1  654.71   23.12
   3  -2  -1  623.04   17.11
  -3   2   1  596.33   18.69
  -3   2   1  583.82   27.07
  -3   2   1  677.67   20.31
  -3   2   1  594.42   21.35
   3  -2   0 1748.16   31.84
   3  -2   0 1821.31   34.63
   3  -2   0 1673.85   31.69
   3  -2   0 1705.64   23.92
  -3   2   0 1805.60   29.15
  -3   2   0 1827.60   25.99
  -3   2   0 1853.62   31.86
   3  -2   1 1224.63   25.97
   3  -2   1 1251.64   53.57
   3  -2   1 1232.67   25.99
   3  -2   1 1214.35   17.73
  -3   2  -1 1200.26   30.46
  -3   2  -1 1238.24   22.09
  -3   2  -1 1215.58   25.19
  -3   2  -1 1250.26   25.46
   3  -2   2  606.94   15.76
   3  -2   2  558.31   21.62
   3  -2   2  558.34   20.61
  -3   2  -2  591.99   19.67
  -3   2  -2  566.61   21.48
  -3   2  -2  585.37   19.83
   3  -2   3 7410.19  138.95
   3  -2   3 7513.44  140.72
   3  -2   3 7424.54  134.35
   3  -2   3 7057.64  127.46
  -3   2  -3 7719.24  149.49
  -3   2  -3 7280.49  135.85
  -3   2  -3 7187.23  134.43
   3  -2   4  312.57   20.84
   3  -2   4  348.31   18.36
   3  -2   4  305.87   13.54
  -3   2  -4  335.46   15.45
  -3   2  -4  356.86   23.63
  -3   2  -4  257.00   24.50
   3  -2   5  810.41   32.03
   3  -2   5  786.78   25.31
   3  -2   5  744.88   26.48
  -3   2  -5  813.22   37.07
   3  -2   6 1221.61   32.40
   3  -2   6 1039.76   27.24
   3  -2   6 1221.59   28.24
   3  -2   7  504.83   45.42
   3  -2   7  502.97   44.64
   3  -2   7  496.00   43.99
  -3   2  -7  610.54   41.63
  -3   2  -7  588.70   53.46
   3  -2   8 3386.05  117.93
   3  -2   8 3256.58  111.22
  -3   2  -8 2966.92  102.70
   3  -2   9  146.98   24.12
   3  -2   9  123.56   20.05
  -3   2  -9  112.59   17.84
  -3   2  -9  114.81   20.46
   3  -2  10  279.90   26.70
   3  -2  10  382.66   32.49
  -3   2 -10  351.31   32.20
  -3   2 -10  348.65   36.73
   3  -2  11  235.99   32.00
   3  -2  11  245.25   29.38
  -3   2 -11  245.29   31.92
  -3   2 -11  229.95   30.03
   3  -2  12   52.66   21.43
   3  -2  12   87.98   30.81
  -3   2 -12  107.94   35.55
   3  -1 -12   32.36   17.69
  -3   1  12    2.99   14.51
  -3   1  12   22.81   12.23
   3  -1 -11   13.45   14.35
  -3   1  11   92.97   32.56
  -3   1  11   29.07   10.67
   3  -1 -10  849.92   52.96
   3  -1 -10  857.86   59.91
  -3   1  10  849.43   57.82
  -3   1  10  859.98   56.49
   3  -1  -9  720.78   53.18
   3  -1  -9  683.82   58.02
  -3   1   9  717.03   57.71
  -3   1   9  746.72   58.54
   3  -1  -8 2490.94  102.83
   3  -1  -8 1690.06   71.54
  -3   1   8 2763.08  116.77
   3  -1  -7  100.30   17.57
   3  -1  -7  120.67   13.03
   3  -1  -7  165.09   23.09
  -3   1   7  123.57   17.07
  -3   1   7  161.38   20.21
   3  -1  -6   41.15    6.95
   3  -1  -6   38.29    7.63
   3  -1  -6   49.80   12.34
  -3   1   6  110.04   20.40
  -3   1   6   64.47   13.11
   3  -1  -5 2174.43   56.38
   3  -1  -5 2644.93   74.57
   3  -1  -5 2459.64   64.79
  -3   1   5 2515.89   67.93
  -3   1   5 2619.34   71.06
  -3   1   5 2525.99   68.54
  -3   1   5 2412.80   60.45
   3  -1  -4  503.63   18.16
   3  -1  -4  549.38   25.52
   3  -1  -4  520.17   22.23
   3  -1  -4  517.19   20.07
  -3   1   4  547.36   27.40
  -3   1   4  504.70   22.42
  -3   1   4  475.31   18.42
  -3   1   4  468.27   20.31
   3  -1  -3   40.78    7.41
   3  -1  -3   52.41   11.22
   3  -1  -3   73.43   17.67
   3  -1  -3   43.26    6.71
  -3   1   3    9.39   11.81
  -3   1   3   29.83    8.07
  -3   1   3   27.62    5.20
  -3   1   3   16.02    8.88
   3  -1  -2  604.23   17.27
   3  -1  -2  647.90   25.95
   3  -1  -2  706.64   19.84
   3  -1  -2  622.03   14.42
  -3   1   2  713.70   25.95
  -3   1   2  674.42   15.52
  -3   1   2  700.84   17.79
  -3   1   2  727.90   23.07
   3  -1  -1  203.93   12.44
   3  -1  -1  174.03   13.43
   3  -1  -1  232.69   13.41
   3  -1  -1  176.60    7.45
  -3   1   1  189.53   15.66
  -3   1   1  194.47    9.03
  -3   1   1  202.85   10.31
  -3   1   1  198.59   12.03
   3  -1   0  153.84   10.08
   3  -1   0  217.31   18.35
   3  -1   0  185.01   11.90
   3  -1   0  176.78    5.79
  -3   1   0  204.37    7.59
  -3   1   0  212.88   18.69
  -3   1   0  184.79   10.16
  -3   1   0  195.63   14.90
   3  -1   1 5206.60   59.23
   3  -1   1 5114.95   59.43
   3  -1   1 4882.64   45.62
   3  -1   1 5432.09   66.91
  -3   1  -1 5489.67   65.12
  -3   1  -1 5068.62   56.82
  -3   1  -1 4852.35   57.35
   3  -1   219347.88  173.14
   3  -1   3 4584.77   89.59
   3  -1   3 4648.28   89.16
   3  -1   3 4519.25   82.47
  -3   1  -3 4784.56   92.29
  -3   1  -3 4794.10   93.43
  -3   1  -3 4790.83   93.31
   3  -1   4   27.46   11.75
   3  -1   4   12.27    9.43
   3  -1   4   17.40    8.17
  -3   1  -4   18.92    7.32
  -3   1  -4   12.26    9.01
   3  -1   5  656.72   27.18
   3  -1   5  692.58   22.98
   3  -1   5  723.08   25.36
  -3   1  -5  688.31   27.33
  -3   1  -5  652.17   20.25
   3  -1   6 6914.88  108.49
   3  -1   6 6874.44  103.64
   3  -1   6 6609.80   99.66
  -3   1  -6 6393.32   98.66
  -3   1  -6 6678.09   97.99
   3  -1   7  100.01   15.31
   3  -1   7   94.40   14.48
   3  -1   7  103.97   11.68
  -3   1  -7  105.45   14.31
  -3   1  -7   86.54   11.36
  -3   1  -7   93.31   17.04
   3  -1   8  141.96   20.93
   3  -1   8  164.58   21.19
   3  -1   8  128.38   16.08
  -3   1  -8  146.71   18.97
  -3   1  -8  103.84   18.66
   3  -1   9   11.12   10.67
   3  -1   9   13.13   10.31
  -3   1  -9    5.83    7.13
  -3   1  -9   29.89   15.35
   3  -1  10  358.22   39.57
   3  -1  10  223.91   25.34
  -3   1 -10  254.21   26.33
  -3   1 -10  269.43   34.90
   3  -1  11  171.16   24.91
   3  -1  11  161.85   21.88
  -3   1 -11  144.86   21.11
  -3   1 -11  181.45   31.21
   3  -1  12  105.49   39.02
   3  -1  12  126.65   26.89
  -3   1 -12  137.44   32.76
   3   0 -12  523.03   43.43
  -3   0  12  476.78   77.79
  -3   0  12  423.98   69.18
   3   0 -11    3.55    5.53
   3   0 -11   38.63   16.42
  -3   0  11   24.51   16.24
  -3   0  11   34.11   15.26
   3   0 -10  357.61   32.30
   3   0 -10  504.97   52.36
  -3   0  10  456.85   44.11
  -3   0  10  422.93   41.48
  -3   0   9 1470.07   77.91
  -3   0   9 1472.03   78.86
   3   0  -8 5132.79  166.60
  -3   0   8 5705.06  189.72
  -3   0   8 5820.30  195.25
   3   0  -724761.22 1983.22
   3   0  -725287.91 2025.25
  -3   0   727524.98 2205.84
  -3   0   720199.35 1619.59
   3   0  -6 1460.91   33.96
   3   0  -6 1502.88   27.33
   3   0  -6 1525.76   40.46
  -3   0   6 1636.13   39.01
  -3   0   6 1471.75   36.99
   3   0  -5  479.15   15.89
   3   0  -5  462.00   25.69
   3   0  -5  476.94   19.32
  -3   0   5  497.63   50.03
  -3   0   5  419.02   18.89
  -3   0   5  467.53   22.67
  -3   0   5  409.04   13.81
  -3   0   5  395.13   17.90
   3   0  -4 2693.62   52.13
   3   0  -4 2539.67   59.07
   3   0  -4 2680.84   54.90
  -3   0   4 2575.21   56.63
  -3   0   4 2581.97   55.56
  -3   0   4 2527.99   56.29
  -3   0   4 2667.71   51.12
  -3   0   4 2644.01   58.90
   3   0  -313780.22  245.72
   3   0  -312937.33  236.34
   3   0  -313154.14  238.57
   3   0  -313595.67  244.22
  -3   0   313081.25  238.92
  -3   0   311790.34  213.48
  -3   0   313426.23  239.21
  -3   0   313904.73  252.43
   3   0  -224247.83  220.88
   3   0  -228990.32  516.86
   3   0  -227157.69  246.26
  -3   0   225088.89  228.03
   3   0  -1   19.54    4.85
   3   0  -1   21.47   11.92
   3   0  -1    4.57    9.45
   3   0  -1   20.50    3.46
  -3   0   1   28.87   14.34
  -3   0   1   11.10    4.59
  -3   0   1   16.51    3.92
  -3   0   1   27.16    5.77
   3   0   0 4606.07   52.46
   3   0   0 4667.97   53.90
  -3   0   0 4476.52   56.57
  -3   0   0 4547.97   50.41
  -3   0   0 4537.46   41.19
  -3   0   0 4754.42   56.45
   3   0   1 1026.85   21.95
   3   0   1  844.02   47.90
   3   0   1 1018.57   21.20
  -3   0  -1 1014.81   19.77
  -3   0  -1 1069.29   23.41
  -3   0  -1  973.65   23.55
   3   0   2  150.92   11.01
   3   0   2  128.01   10.33
   3   0   2  165.25    4.21
  -3   0  -2  143.68    9.75
  -3   0  -2  199.50   15.01
  -3   0  -2  162.21   20.58
   3   0   3  446.11   20.38
   3   0   3  400.14   15.37
   3   0   3  409.55   12.06
  -3   0  -3  504.51   18.70
  -3   0  -3  360.38   14.83
  -3   0  -3  424.01   11.71
  -3   0  -3  412.34   15.55
   3   0   4 2725.12   74.81
   3   0   4 2720.53   70.18
   3   0   4 2651.30   67.80
  -3   0  -4 2976.23   79.43
  -3   0  -4 2911.62   77.58
  -3   0  -4 2753.05   69.76
   3   0   5 2185.30   60.99
   3   0   5 2187.12   56.10
   3   0   5 2067.80   52.90
  -3   0  -5 2184.88   59.67
  -3   0  -5 2199.07   55.67
   3   0   6  402.80   32.22
   3   0   6  431.02   31.29
   3   0   6  406.06   28.02
  -3   0  -6  440.05   33.68
  -3   0  -6  364.97   28.96
   3   0   7  525.28   46.72
   3   0   7  649.86   35.96
   3   0   7  597.86   50.44
  -3   0  -7  563.49   48.78
  -3   0  -7  542.68   46.84
  -3   0  -7  553.54   50.81
   3   0   8  139.74   22.15
   3   0   8  144.60   20.37
   3   0   8  110.69   13.90
  -3   0  -8  110.90   14.32
  -3   0  -8  141.30   24.60
   3   0   9  670.70   51.86
   3   0   9  729.18   55.79
  -3   0  -9  684.80   51.25
  -3   0  -9  691.94   55.99
   3   0  10  121.21   27.22
   3   0  10  119.56   24.93
  -3   0 -10   86.59   18.48
  -3   0 -10   57.56   18.49
   3   0  11  202.27   49.77
   3   0  11  261.70   39.45
  -3   0 -11  179.30   33.44
   3   0  12  199.39   59.79
  -3   0 -12  238.19   47.72
   3   1 -13   19.89   15.48
  -3  -1  13   16.53   20.22
  -3  -1  13   14.55   10.38
   3   1 -12  222.45   41.31
  -3  -1  12  337.32   57.70
  -3  -1  12  238.26   42.13
   3   1 -11  676.19   72.43
  -3  -1  11  538.97   55.22
  -3  -1  11  530.56   53.67
   3   1 -10   56.85   11.12
   3   1 -10   49.92   14.46
  -3  -1  10   76.69   18.40
  -3  -1  10   77.88   18.48
   3   1  -9 1212.73   60.03
   3   1  -9 1302.67   64.17
   3   1  -9  884.45   54.75
  -3  -1   9 1512.57   81.29
  -3  -1   9 1409.04   75.27
   3   1  -8 3595.16  116.62
   3   1  -8 3434.16  111.46
  -3  -1   8 4032.93  137.04
  -3  -1   8 4171.77  143.66
   3   1  -7 1010.04   23.15
   3   1  -7 1044.41   23.43
   3   1  -7 1242.69   45.25
  -3  -1   7 1183.94   39.69
  -3  -1   7 1104.04   37.66
   3   1  -6 3828.71   55.22
   3   1  -6 3954.12   56.68
   3   1  -6 3922.74   64.33
   3   1  -6 4138.97   72.14
  -3  -1   6 4244.09   74.35
  -3  -1   6 4291.13   72.67
   3   1  -5  407.20   14.34
   3   1  -5  443.62   13.41
   3   1  -5  428.63   22.87
   3   1  -5  405.78   17.69
  -3  -1   5  487.91   58.61
  -3  -1   5  448.21   21.13
  -3  -1   5  402.37   21.13
  -3  -1   5  413.94   21.51
   3   1  -4 4139.01   75.00
   3   1  -4 4291.50   87.48
   3   1  -4 4240.46   81.29
  -3  -1   4 4191.47   84.85
  -3  -1   4 4163.55   81.71
  -3  -1   4 4267.22   85.63
  -3  -1   4 4307.81   77.83
  -3  -1   4 4412.16   86.76
   3   1  -3 1459.61   28.83
   3   1  -3 1528.39   40.05
   3   1  -3 1566.56   33.43
  -3  -1   3 1172.82   57.08
  -3  -1   3 1520.29   34.19
  -3  -1   3 1558.20   38.32
  -3  -1   3 1580.46   31.08
  -3  -1   3 1581.98   38.44
   3   1  -2 5456.44   54.98
   3   1  -2 5573.19   66.62
  -3  -1   2 5529.23   55.41
  -3  -1   2 5477.14   56.74
  -3  -1   2 5539.78   65.05
  -3  -1   2 5911.88   68.87
   3   1  -123354.42  213.18
   3   1  -124195.50  225.49
  -3  -1   123556.16  214.35
  -3  -1   124211.76  227.21
   3   1   0  123.78    9.56
   3   1   0  219.26   31.87
   3   1   0  149.66   10.42
  -3  -1   0  188.07   14.09
  -3  -1   0  159.45    5.24
  -3  -1   0  153.53    4.43
  -3  -1   0  186.47   10.75
  -3  -1   0  149.73   11.49
   3   1   1   63.11    8.61
   3   1   1   86.70   10.72
  -3  -1  -1   82.79   10.36
  -3  -1  -1   64.10    7.78
  -3  -1  -1   56.27    2.87
  -3  -1  -1   86.03   11.67
   3   1   2 8279.94  153.87
   3   1   2 7945.95  145.00
   3   1   2 7971.52  142.59
  -3  -1  -2 8142.16  150.56
  -3  -1  -2 8360.10  153.79
  -3  -1  -2 7393.99  132.17
  -3  -1  -2 8119.68  153.93
   3   1   3 5415.76  105.89
   3   1   3 5254.56   97.59
   3   1   3 5087.81   93.77
  -3  -1  -3 5302.34  101.77
  -3  -1  -3 5298.00   99.87
  -3  -1  -3 5227.31   95.67
  -3  -1  -3 5052.39   98.43
   3   1   4 3506.66   94.10
   3   1   4 3325.09   83.76
   3   1   4 3384.69   85.77
  -3  -1  -4 3294.73   86.86
  -3  -1  -4 3513.15   89.98
  -3  -1  -4 3252.11   82.47
   3   1   5 1785.54   40.17
   3   1   5 1771.46   31.14
   3   1   5 1802.30   35.91
  -3  -1  -5 1676.57   31.80
   3   1   6 5398.30  116.76
   3   1   6 5394.07  112.24
   3   1   6 4858.33   97.18
  -3  -1  -6 4883.78   99.20
  -3  -1  -6 5384.13  110.72
   3   1   7 3352.19  116.37
   3   1   7 3215.59  110.81
   3   1   7 2801.61   91.69
  -3  -1  -7 2797.88   92.22
   3   1   8   64.84   21.87
   3   1   8   44.84   17.45
   3   1   8   17.71    5.39
  -3  -1  -8    6.50    4.53
  -3  -1  -8   33.24   23.79
   3   1   9   29.26   12.36
   3   1   9   62.42   20.28
  -3  -1  -9    7.54    4.73
  -3  -1  -9   60.19   23.66
   3   1  10 2756.27  152.43
   3   1  10 3231.22  139.77
   3   1  11   87.44   33.97
   3   1  11  154.74   30.86
  -3  -1 -11  230.59   44.00
   3   2 -13   91.82   24.38
  -3  -2  13   62.76   21.01
  -3  -2  13  103.08   22.18
   3   2 -12   44.98   21.64
  -3  -2  12   28.72   15.80
  -3  -2  12    2.69   11.35
   3   2 -11   90.58   24.43
  -3  -2  11   47.30   21.45
  -3  -2  11  123.61   19.50
   3   2 -10  708.76   55.27
  -3  -2  10  792.38   44.05
  -3  -2  10  667.48   50.08
   3   2  -9   12.90    2.97
   3   2  -9   15.12    2.95
   3   2  -9   24.67   14.64
  -3  -2   9   17.13   11.84
  -3  -2   9   25.56   10.66
   3   2  -8   19.84    3.41
   3   2  -8   10.30    2.76
   3   2  -8   37.88    9.83
  -3  -2   8   23.86   15.19
  -3  -2   8   17.03   18.84
   3   2  -7 3218.81   74.50
  -3  -2   7 3264.25   74.80
  -3  -2   7 3229.50   75.86
   3   2  -6  642.46   43.46
   3   2  -6  685.16   48.86
  -3  -2   6  634.71   45.85
  -3  -2   6  576.16   39.33
   3   2  -5   73.35   10.60
   3   2  -5   64.00    7.53
  -3  -2   5   64.25   14.15
  -3  -2   5   70.36   11.57
  -3  -2   5   72.49   11.80
  -3  -2   5   45.67    7.15
   3   2  -4  214.99   17.52
  -3  -2   4  285.78   29.41
  -3  -2   4  251.31   16.18
  -3  -2   4  235.48   17.22
  -3  -2   4  217.76   13.54
   3   2  -3  439.94   10.52
   3   2  -3  430.58   22.50
  -3  -2   3  499.74   44.81
  -3  -2   3  436.77   10.37
  -3  -2   3  429.38   16.55
  -3  -2   3  461.63   21.08
  -3  -2   3  433.24   17.51
   3   2  -220046.56  483.48
   3   2  -219846.70  356.82
  -3  -2   219659.10  359.94
  -3  -2   219217.65  340.19
  -3  -2   219241.10  341.81
  -3  -2   220282.02  492.72
  -3  -2   220890.03  507.14
   3   2  -1 1570.06   23.95
   3   2  -1 1573.27   46.28
  -3  -2   1 1658.29   45.15
  -3  -2   1 1575.98   29.75
  -3  -2   1 1578.58   32.39
  -3  -2   1 1572.83   20.58
  -3  -2   1 1627.84   22.71
  -3  -2   1 1688.71   30.14
   3   2   0 7104.19  132.41
   3   2   0 7996.28  159.68
  -3  -2   0 7881.79  152.53
  -3  -2   0 7581.82  138.74
  -3  -2   0 7307.24  131.77
  -3  -2   0 8033.54  148.72
  -3  -2   0 8106.75  151.09
   3   2   1 3799.59   76.20
   3   2   1 3599.02   72.59
  -3  -2  -1 3865.52   74.93
  -3  -2  -1 3658.72   71.86
  -3  -2  -1 3513.07   65.56
  -3  -2  -1 3687.84   86.08
   3   2   2 7849.87  147.24
   3   2   2 7539.35  137.00
  -3  -2  -2 7593.46  138.55
  -3  -2  -2 7412.72  137.93
  -3  -2  -2 7370.79  133.58
  -3  -2  -2 7376.88  140.27
   3   2   3  637.79   41.01
   3   2   3  628.54   19.06
   3   2   3  567.62   19.31
  -3  -2  -3  622.17   24.76
  -3  -2  -3  533.15   18.62
  -3  -2  -3  636.51   20.93
  -3  -2  -3  649.55   26.29
   3   2   4 1482.90   45.93
   3   2   4 1433.90   36.12
   3   2   4 1354.15   38.04
  -3  -2  -4 1540.52   42.26
   3   2   5 4353.76   96.16
   3   2   5 4191.46   90.10
   3   2   5 3973.93   78.47
  -3  -2  -5 3581.35   71.96
  -3  -2  -5 3891.66   81.75
  -3  -2  -5 3648.37   82.40
   3   2   6 2693.90  102.80
   3   2   6 3355.76  123.10
  -3  -2  -6 2782.89   97.25
  -3  -2  -6 3039.42  109.96
  -3  -2  -6 3342.92  126.14
   3   2   7  443.98   79.30
   3   2   7  437.18   45.72
  -3  -2  -7  405.03   44.47
   3   2   8  317.71   63.24
   3   2   8  281.76   28.01
  -3  -2  -8  273.75   30.45
   3   2   9  448.32   88.08
   3   2   9  585.93   51.89
  -3  -2  -9  630.63   60.60
   3   2  10  222.87   60.30
   3   2  10  229.25   34.49
  -3  -2 -10  153.52   27.30
   3   2  11 1841.94  160.56
   3   2  11 2334.05   50.77
  -3  -2 -11 2367.42   54.35
   3   3 -13  182.10   19.17
  -3  -3  13  193.00   32.85
  -3  -3  13  203.90   33.20
   3   3 -12 1060.79   91.84
  -3  -3  12 1119.86   92.19
  -3  -3  12 1030.64   85.30
   3   3 -11  815.21   47.62
  -3  -3  11  730.33   72.52
  -3  -3  11  720.66   71.42
   3   3 -10   84.67   22.17
  -3  -3  10   85.47   21.33
  -3  -3  10   87.07   18.95
   3   3  -9  220.20   30.34
  -3  -3   9  220.68   27.22
   3   3  -8   37.68   17.46
  -3  -3   8   12.47   10.50
   3   3  -7 2179.07   55.36
  -3  -3   7 2375.16   58.91
   3   3  -6   22.14   16.09
  -3  -3   6   59.46   17.55
   3   3  -5  164.03   16.80
  -3  -3   5  184.93   14.87
  -3  -3   5  138.26   11.61
   3   3  -3 1645.66   48.26
  -3  -3   3 1415.82   36.00
  -3  -3   3 1688.31   42.74
  -3  -3   3 1611.78   44.67
  -3  -3   3 1665.86   49.56
  -3  -3   3 1758.24   51.20
   3   3  -2  761.66   28.28
   3   3  -2  662.95   21.68
  -3  -3   2  892.15   67.93
  -3  -3   2  797.83   19.30
  -3  -3   2  822.17   35.70
  -3  -3   2  763.67   25.92
  -3  -3   2  834.50   25.55
   3   3  -1  820.27   28.04
   3   3  -1  796.27   33.29
  -3  -3   1  829.08   27.53
  -3  -3   1  890.58   21.85
  -3  -3   1  838.76   21.39
  -3  -3   1  814.46   23.46
  -3  -3   1  910.78   26.99
   3   3   0   12.09    8.26
  -3  -3   0    2.99    4.76
  -3  -3   0    3.35    3.93
  -3  -3   0   13.01    5.65
  -3  -3   0   26.72    8.51
  -3  -3   0   10.17    8.04
   3   3   1   70.99   12.75
   3   3   1   54.43    7.58
  -3  -3  -1   33.81    7.10
  -3  -3  -1   37.28    6.36
  -3  -3  -1   69.98    6.93
  -3  -3  -1   38.19    5.52
  -3  -3  -1    3.29    7.79
   3   3   2 2436.26   86.71
   3   3   2 2426.90   64.53
  -3  -3  -2 2438.05   66.25
  -3  -3  -2 2427.64   62.51
  -3  -3  -2 2423.42   69.39
  -3  -3  -2 2402.65   62.77
  -3  -3  -2 2351.55   87.00
   3   3   3 1719.12   71.00
   3   3   3 1535.32   42.99
  -3  -3  -3 1594.54   39.95
  -3  -3  -3 1471.13   44.84
  -3  -3  -3 1568.12   43.26
  -3  -3  -3 1577.85   46.81
   3   3   4 2803.45   99.43
   3   3   4 2894.43   65.06
  -3  -3  -4 2779.37   55.35
  -3  -3  -4 2690.25   53.58
  -3  -3  -4 2822.45   62.15
   3   3   5  925.02   64.45
   3   3   5  853.46   37.59
  -3  -3  -5  917.83   39.05
  -3  -3  -5  981.02   49.24
   3   3   6 1141.44   88.47
   3   3   6 1169.01   54.84
  -3  -3  -6 1045.15   53.17
   3   3   7 2488.73  115.54
   3   3   7 2770.27   74.95
  -3  -3  -7 2510.20   71.94
   3   3   8 1158.55  104.35
   3   3   8 1258.88   78.72
  -3  -3  -8 1239.72   80.58
   3   3   9  592.59   96.61
   3   3   9  668.41   47.77
  -3  -3  -9  653.39   50.98
   3   3  10  798.45   53.78
   3   3  10  805.14   55.51
  -3  -3 -10  882.68   63.48
  -3  -4  13  111.13   17.59
  -3  -4  13  109.58   22.89
   3   4 -12    4.84   12.93
  -3  -4  12   17.10   13.55
   3   4 -11  150.74   25.91
  -3  -4  11  215.40   31.35
   3   4 -10 2277.73  107.20
  -3  -4  10 2536.86  117.85
   3   4  -9   44.06   18.62
   3   4  -9   42.09    9.48
  -3  -4   9   52.26   12.90
   3   4  -8 4847.96  210.81
   3   4  -8 4835.51  199.47
  -3  -4   8 4851.62  200.49
   3   4  -7   52.04   13.40
   3   4  -7   37.55   14.76
  -3  -4   7   29.36   10.58
   3   4  -6 1427.30   44.00
   3   4  -6 1322.53   39.19
  -3  -4   6 1427.22   40.31
  -3  -4   6 1217.98   33.47
   3   4  -5 1364.60   40.03
   3   4  -5 1288.14   32.75
  -3  -4   5 1301.79   32.04
  -3  -4   5 1273.12   29.85
   3   4  -4  712.35   27.89
   3   4  -4  925.57   41.33
  -3  -4   4  833.29   21.03
  -3  -4   4  761.41   31.00
  -3  -4   4  855.41   28.38
  -3  -4   4  794.69   19.98
  -3  -4   4  896.25   30.09
   3   4  -3 4026.52  100.53
   3   4  -3 4201.58  116.29
  -3  -4   3 3872.55   91.80
  -3  -4   3 4190.43  106.22
  -3  -4   3 4184.35  103.28
  -3  -4   3 4097.52   97.22
  -3  -4   3 4261.26  105.15
   3   4  -2 3537.83  105.97
  -3  -4   2 3362.51   84.90
  -3  -4   2 3338.13   87.72
  -3  -4   2 3288.42   88.13
  -3  -4   2 3400.35   88.37
   3   4  -1 1571.38   46.88
  -3  -4   1 1542.92   42.45
  -3  -4   1 1552.00   45.45
  -3  -4   1 1453.60   41.19
  -3  -4   1 1563.41   43.99
  -3  -4   1 1559.53   43.22
  -3  -4   1 1706.78   47.89
   3   4   0  719.14   29.57
  -3  -4   0  640.82   21.18
  -3  -4   0  678.64   22.20
  -3  -4   0  601.40   20.33
  -3  -4   0  609.75   20.17
  -3  -4   0  607.65   21.59
   3   4   1   48.59   11.45
   3   4   1   40.14    5.95
  -3  -4  -1   67.48    8.91
  -3  -4  -1   56.74    8.01
  -3  -4  -1   41.95    7.72
  -3  -4  -1   33.00    5.04
  -3  -4  -1   48.57    6.11
   3   4   2 2926.38   68.51
   3   4   2 2827.38   50.57
  -3  -4  -2 2891.58   45.62
  -3  -4  -2 2857.73   46.46
  -3  -4  -2 2987.97   51.14
  -3  -4  -2 2526.38   84.70
   3   4   3 1121.69   59.70
   3   4   3 1127.94   33.35
  -3  -4  -3 1217.35   26.60
  -3  -4  -3 1093.64   24.70
  -3  -4  -3 1180.03   31.76
  -3  -4  -3 1092.07   31.34
   3   4   4   26.80    9.91
   3   4   4   30.03   13.23
  -3  -4  -4   13.09   10.16
   3   4   5 8835.34  357.93
   3   4   5 9087.71  865.84
   3   4   6  237.90   45.05
   3   4   6  113.78   17.33
  -3  -4  -6  181.86   24.31
   3   4   7   57.57   16.91
   3   4   7   86.46   19.78
  -3  -4  -7  102.88   23.35
   3   4   8  242.41   30.23
  -3  -4  -8  171.31   32.51
   3   4   9    9.98   11.76
  -3  -4  -9   10.50   19.49
  -3  -4  -9   18.69   14.16
   3   4  10   17.86   17.88
  -3  -4 -10    7.77   12.79
  -3  -4 -10   14.67   14.75
   3   5 -13   40.15   13.65
  -3  -5  13   92.17   19.77
   3   5 -12  217.48   43.26
  -3  -5  12  247.74   45.70
   3   5 -11  317.58   40.25
   3   5 -11  273.07   33.68
  -3  -5  11  211.24   28.17
   3   5 -10  422.23  100.49
   3   5 -10  408.27   40.34
  -3  -5  10  470.76   45.82
   3   5  -9   91.95   21.90
   3   5  -9   99.70   21.68
  -3  -5   9   85.39   20.45
   3   5  -8  823.71   68.88
   3   5  -8  776.55   41.79
  -3  -5   8  834.04   45.99
   3   5  -7 2496.50   91.82
   3   5  -7 2585.40   91.33
  -3  -5   7 2772.58   97.95
   3   5  -6 1183.70  123.11
   3   5  -6 1028.02   44.16
  -3  -5   6 1107.58   48.16
  -3  -5   6 1033.61   42.13
   3   5  -5 1204.46   42.95
   3   5  -5 1409.16   39.26
  -3  -5   5 1181.36   24.00
  -3  -5   5 1414.30   38.72
  -3  -5   5 1375.24   28.03
  -3  -5   5 1323.88   34.99
   3   5  -4 6705.48  102.76
  -3  -5   4 6894.84   97.45
  -3  -5   4 6531.80  109.57
  -3  -5   4 6755.32   95.10
   3   5  -3 1372.94   43.71
   3   5  -3 1231.85   50.88
  -3  -5   3 1350.73   25.12
  -3  -5   3 1318.99   33.55
  -3  -5   3 1227.30   41.49
  -3  -5   3 1316.32   25.46
  -3  -5   3 1357.26   29.14
   3   5  -2 2415.36   77.11
   3   5  -2 2584.14   69.23
  -3  -5   2 2287.07   38.87
  -3  -5   2 2246.81   45.33
  -3  -5   2 2045.09   38.17
  -3  -5   2 2457.54   41.89
  -3  -5   2 2358.12   41.98
  -3  -5   1   46.87    6.32
  -3  -5   1   55.58    7.46
  -3  -5   1   53.26    9.93
  -3  -5   1   83.01    9.99
  -3  -5   1   64.00    8.14
   3   5   0 3551.62   82.58
  -3  -5   0 3105.92   53.98
  -3  -5   0 3581.18   60.12
  -3  -5   0 3560.58   57.73
  -3  -5   0 3482.40   58.73
  -3  -5   0 3615.59   60.29
  -3  -5   0 3539.71   58.42
   3   5   1 1447.68   47.04
  -3  -5  -1 1478.45   42.10
  -3  -5  -1 1484.55   35.53
  -3  -5  -1 1436.00   35.24
  -3  -5  -1 1446.50   37.44
   3   5   2  549.36   48.05
  -3  -5  -2  584.87   51.33
  -3  -5  -2  645.27   26.26
  -3  -5  -2  684.52   28.79
  -3  -5  -2  528.62   45.92
   3   5   3 2053.59   74.00
  -3  -5  -3 1996.67   73.38
  -3  -5  -3 1846.76   59.83
  -3  -5  -3 1836.08   59.85
  -3  -5  -3 2104.29   74.90
   3   5   4   18.02   10.55
  -3  -5  -4    9.23   10.88
  -3  -5  -4   -2.59    8.83
   3   5   5 4311.60  107.96
  -3  -5  -5 3846.22   96.97
   3   5   6  122.76   25.54
  -3  -5  -6  120.40   24.42
  -3  -5  -6  138.03   27.76
   3   5   7   26.23   11.73
  -3  -5  -7   27.01   12.43
  -3  -5  -7   34.32   17.18
   3   5   8 1042.17   86.09
  -3  -5  -8  962.00   81.80
  -3  -5  -8 1050.60   87.12
   3   5   9   30.44   13.81
  -3  -5  -9   23.47   13.56
  -3  -5  -9   12.02   14.14
   3   6 -12  117.02   36.03
   3   6 -12  186.69   38.39
  -3  -6  12  176.37   32.83
   3   6 -11   34.34   25.84
   3   6 -11   28.65   13.78
  -3  -6  11   28.22   15.11
   3   6 -10  815.52   97.74
   3   6 -10  774.28  100.62
  -3  -6  10 1074.07   56.94
   3   6  -9  673.01   88.25
   3   6  -9  764.71   43.41
  -3  -6   9  926.70   51.54
   3   6  -8  526.43   80.24
   3   6  -8  586.03   46.66
  -3  -6   8  621.81   50.05
   3   6  -7  115.30   32.90
   3   6  -7   81.61   14.02
  -3  -6   7  116.02   20.09
   3   6  -6  795.44   79.67
   3   6  -6  736.95   32.94
  -3  -6   6  576.09   31.76
  -3  -6   6  782.79   37.43
  -3  -6   6  617.52   38.63
   3   6  -511072.12  356.72
  -3  -6   511123.55  355.12
  -3  -6   512027.32 1115.57
  -3  -6   510481.92  334.47
  -3  -6   511186.74 1036.91
   3   6  -4 3645.79  151.21
   3   6  -4 3677.59  136.16
  -3  -6   4 3741.71  132.40
  -3  -6   4 3448.25  121.91
  -3  -6   4 3651.97  130.58
   3   6  -3 3725.10  154.24
   3   6  -3 3617.14  141.21
  -3  -6   3 3494.12  124.59
  -3  -6   3 3497.73  124.31
  -3  -6   3 3677.08  131.15
   3   6  -2  730.07   40.28
  -3  -6   2  666.12   28.96
  -3  -6   2  541.94   45.96
  -3  -6   2  540.91   47.68
  -3  -6   2  556.91   47.00
   3   6  -1  273.69   36.96
  -3  -6   1  214.82   20.60
  -3  -6   1  221.89   21.45
  -3  -6   1  190.30   20.46
  -3  -6   1  225.42   21.66
   3   6   0  691.51   50.90
  -3  -6   0  605.53   37.21
  -3  -6   0  716.96   33.17
  -3  -6   0  638.99   29.11
   3   6   1 2941.63  114.99
  -3  -6  -1 3201.88  111.43
  -3  -6  -1 3000.43   99.68
  -3  -6  -1 2639.76   88.71
  -3  -6  -1 2605.22   89.02
   3   6   2 1737.39   82.54
  -3  -6  -2 1937.78   79.86
  -3  -6  -2 1831.54   81.71
  -3  -6  -2 1390.03   63.05
  -3  -6  -2 1732.43   75.28
   3   6   3   60.05   14.03
  -3  -6  -3   97.28   16.13
  -3  -6  -3  121.15   17.67
   3   6   4  469.44   40.53
  -3  -6  -4  477.65   40.35
  -3  -6  -4  377.51   32.59
   3   6   5 2452.67  145.84
  -3  -6  -5 2626.67  155.24
  -3  -6  -5 2420.06  142.32
   3   6   6   33.86   16.70
  -3  -6  -6   41.47   17.61
  -3  -6  -6   77.63   18.76
   3   6   7   23.96   12.17
  -3  -6  -7   36.58   13.89
  -3  -6  -7   39.75   17.57
   3   6   8   33.94   17.87
  -3  -6  -8   43.50   16.76
  -3  -6  -8   20.74   17.34
   3   7 -12   97.50   39.88
   3   7 -12   97.43   14.32
  -3  -7  12  149.00   21.36
   3   7 -11  339.58  112.59
   3   7 -11  358.22   59.45
  -3  -7  11  540.58   42.39
   3   7 -10  574.60  159.28
   3   7 -10  796.25   53.27
  -3  -7  10  970.51   66.64
   3   7  -9 1226.04   79.77
   3   7  -9 1113.32   53.94
  -3  -7   9 1273.20   63.12
   3   7  -8 2023.34  107.69
   3   7  -8 1885.87   87.55
  -3  -7   8 2199.49  104.12
   3   7  -7  252.75   37.10
   3   7  -7  234.56   21.20
  -3  -7   7  347.18   32.78
   3   7  -6   25.71   16.89
   3   7  -6   12.56    6.13
  -3  -7   6    2.73    2.39
  -3  -7   6   17.08    9.38
  -3  -7   6   22.91    9.82
   3   7  -5   49.63   12.85
   3   7  -5   57.99   11.51
  -3  -7   5   42.59    6.86
  -3  -7   5   31.14    5.74
  -3  -7   5   37.43    9.92
   3   7  -4 1651.88   81.64
   3   7  -4 1739.03   82.75
  -3  -7   4 1592.57   67.12
  -3  -7   4 1874.71   78.41
   3   7  -3 3228.02  153.60
  -3  -7   3 3001.27  123.12
  -3  -7   3 2930.15  120.58
  -3  -7   3 2956.32  120.78
   3   7  -2 1157.94   62.47
  -3  -7   2 1192.91   53.11
  -3  -7   2 1094.38   48.49
  -3  -7   2 1117.02   48.71
   3   7  -1  983.72   70.22
  -3  -7   1  963.14   47.59
  -3  -7   1  810.89   40.06
   3   7   0  215.51   32.30
  -3  -7   0  165.67   19.82
  -3  -7   0  202.09   26.13
  -3  -7   0  150.32   18.55
   3   7   1 3527.69  188.63
  -3  -7  -1 3645.09  179.42
  -3  -7  -1 3763.20  182.16
  -3  -7  -1 3260.41  158.93
  -3  -7  -1 3192.04  156.02
  -3  -7  -1 3020.46  147.06
   3   7   2 1789.06   64.10
  -3  -7  -2 1793.09   44.05
  -3  -7  -2 1930.30   57.38
  -3  -7  -2 1650.50   45.97
   3   7   3 2939.37  138.33
  -3  -7  -3 2924.20  134.90
   3   7   4  953.94   50.57
  -3  -7  -4  896.14   50.97
  -3  -7  -4  848.07   45.68
   3   7   5 1143.24   71.59
  -3  -7  -5 1393.72   89.98
  -3  -7  -5 1091.30   70.11
   3   7   6   25.94   13.51
  -3  -7  -6   19.83   14.01
  -3  -7  -6   23.11   11.32
   3   7   7    9.04   11.94
  -3  -7  -7   35.94   14.07
  -3  -7  -7    3.68   11.43
   3   8 -11   27.34   11.29
  -3  -8  11  104.30   29.64
   3   8 -10   90.62   37.30
   3   8 -10  124.10   26.25
  -3  -8  10  136.82   27.07
   3   8  -9   20.65   10.19
  -3  -8   9    8.93   11.08
   3   8  -8  168.25   41.75
   3   8  -8  147.48   17.74
  -3  -8   8  177.78   28.27
   3   8  -7  635.84  103.70
   3   8  -7  610.70   51.05
  -3  -8   7  706.11   61.00
   3   8  -6 3363.55  164.43
   3   8  -6 2710.98  132.97
  -3  -8   6 2898.27  127.84
  -3  -8   6 3499.41  159.12
   3   8  -5   69.57   18.12
   3   8  -5  155.60   31.90
  -3  -8   5  109.67   21.01
   3   8  -4  261.37   43.65
  -3  -8   4  215.50   19.38
   3   8  -3   16.10   17.02
  -3  -8   3    8.05    7.97
   3   8  -2  738.71   73.46
  -3  -8   2  829.89   30.15
   3   8  -1   88.57   25.44
  -3  -8   1   88.08   18.84
   3   8   0  132.80   26.20
  -3  -8   0   90.98   17.44
  -3  -8   0  120.66   19.96
   3   8   1  611.95   81.76
  -3  -8  -1  553.50   46.18
  -3  -8  -1  530.87   47.72
  -3  -8  -1  523.65   43.92
   3   8   2  365.36   66.65
  -3  -8  -2  473.12   49.77
  -3  -8  -2  425.16   42.86
   3   8   3  383.68   87.88
  -3  -8  -3  408.67   43.82
  -3  -8  -3  388.25   39.85
   3   8   4   19.88   12.43
  -3  -8  -4   14.16   10.87
   3   8   5  509.83   45.37
  -3  -8  -5  549.92   48.40
  -3  -8  -5  372.67   33.70
   3   9 -10  287.43   95.32
  -3  -9  10  479.47   57.46
   3   9  -9 1419.74  103.85
  -3  -9   9 1836.09  106.62
   3   9  -8    8.11   14.21
  -3  -9   8   28.14   12.57
   3   9  -7 1462.15   92.91
  -3  -9   7 1472.33   91.03
   3   9  -6 1425.51  116.16
   3   9  -5  489.69   89.52
  -3  -9   5  539.96   52.80
   3   9  -4 2905.07  147.85
  -3  -9   4 2844.39  121.34
   3   9  -3   82.48   21.59
  -3  -9   3  100.53   22.43
   3   9  -2  138.79   27.04
  -3  -9   2  181.85   24.11
   3   9  -1  585.20   77.07
  -3  -9   1  696.37   67.27
  -3  -9   0   17.58   14.17
   3   9   1   13.23    5.99
  -3  -9  -1   46.53   15.22
   3   9   2  211.96   41.58
  -3  -9  -2  180.31   29.27
   3   9   3    6.64    7.53
  -3  -9  -3   20.74   16.51
   3   9   4  239.45   63.75
  -3  -9  -4  314.08   42.04
   3  10  -8  981.22   81.86
  -3 -10   8 1185.29   92.34
   3  10  -7  248.42   76.98
  -3 -10   7  384.25   36.67
   3  10  -6  971.06   65.49
   3  10  -5 1055.04  107.90
   3  10  -4  215.63   55.91
   3  10  -3 1553.04  127.13
  -3 -10   3 1522.84  120.05
  -3 -10   2  160.26   26.70
  -3 -10   1   33.03   12.84
  -3 -10   0 1043.79   80.31
   3  10   1   99.97   28.00
  -3 -10  -1  156.11   33.04
   3  11  -5    0.39   13.24
   3  11  -4  291.32   90.16
   4 -10   0  120.65   16.65
  -4  10   0   97.51   22.72
  -4  10   0   28.00   19.18
   4 -10   1  368.16   36.37
  -4  10  -1  517.14   48.98
  -4  10  -1  471.05   53.94
   4 -10   2  585.51   51.30
  -4  10  -2  728.70   63.39
   4 -10   3   15.67   12.30
  -4  10  -3   75.82   34.65
   4 -10   4   40.41   15.57
  -4  10  -4  112.60   36.68
   4 -10   5 1014.72   79.37
  -4  10  -5 1013.59   83.38
   4 -10   6 1489.52  155.18
  -4  10  -6 1583.53  168.10
   4 -10   7  522.38   61.11
  -4  10  -7  409.32   53.75
   4  -9  -3   35.99   15.99
  -4   9   3    7.08   15.00
  -4   9   3   58.41   25.02
   4  -9  -2   -1.32   11.20
  -4   9   2   25.97   21.45
  -4   9   2   41.52   22.34
   4  -9  -1  486.79   66.19
  -4   9   1  399.62   55.62
  -4   9   1  349.36   93.49
   4  -9   0  159.56   29.09
  -4   9   0  163.48   41.87
   4  -9   1   56.30   18.10
  -4   9  -1  145.90   30.47
  -4   9  -1   96.66   18.60
   4  -9   2  183.41   24.81
  -4   9  -2  128.13   21.13
   4  -9   3   63.44   21.25
  -4   9  -3   87.99   24.80
   4  -9   4  316.21   37.21
  -4   9  -4  424.17   52.32
   4  -9   5  680.09   60.28
  -4   9  -5  674.46   63.07
   4  -9   6  138.81   41.01
  -4   9  -6  198.45   37.85
   4  -9   7  753.83   49.65
  -4   9  -7  913.48   66.70
   4  -9   8   97.05   23.18
   4  -9   8   94.46   22.19
  -4   9  -8   74.76   28.64
   4  -9   9  218.49   34.46
   4  -9   9  256.35   36.24
  -4   9  -9  223.75   39.28
   4  -8  -5  437.34   52.16
   4  -8  -5  464.75   53.25
  -4   8   5  525.29   62.33
  -4   8   5  438.74   53.73
   4  -8  -4  605.13   47.81
   4  -8  -4  473.81   75.74
  -4   8   4  571.17   42.59
  -4   8   4  442.30   72.58
   4  -8  -3  106.61   27.95
   4  -8  -3   54.37   16.45
  -4   8   3  124.09   29.86
  -4   8   3   74.26   23.08
   4  -8  -2   35.50   15.90
   4  -8  -2   42.72   14.97
  -4   8   2   74.52   20.00
  -4   8   2   42.06   19.53
   4  -8  -1  101.89   20.66
   4  -8  -1   50.01   13.79
  -4   8   1   89.80   18.05
  -4   8   1  123.39   20.21
   4  -8   0   20.13   12.45
   4  -8   0    9.30    4.37
  -4   8   0   15.16    6.23
  -4   8   0   41.59   22.25
   4  -8   1  362.40   37.01
  -4   8  -1  402.95   40.80
  -4   8  -1  359.03   39.91
   4  -8   2    5.74   10.11
  -4   8  -2   19.10   15.66
   4  -8   3  189.96   23.08
  -4   8  -3  189.28   28.43
   4  -8   4   30.02   13.63
  -4   8  -4   57.18   20.82
   4  -8   5  454.82   42.33
  -4   8  -5  468.78   50.54
   4  -8   6  932.56   48.76
  -4   8  -6  926.10   54.74
  -4   8  -6  821.46   39.54
   4  -8   7   49.98   17.15
   4  -8   7   14.61   11.49
  -4   8  -7   30.02   17.27
  -4   8  -7   11.08    5.98
   4  -8   8  190.33   29.61
   4  -8   8  190.31   30.28
  -4   8  -8  180.34   35.31
  -4   8  -8  146.21   22.37
   4  -8   9    3.63   11.22
   4  -8   9   16.79   13.51
  -4   8  -9  135.73   33.08
   4  -8  10  195.85   30.17
   4  -8  10  206.20   29.28
  -4   8 -10  213.49   35.19
   4  -7  -6  573.31   51.96
   4  -7  -6  512.33   45.51
  -4   7   6  516.97   47.10
  -4   7   6  605.73   53.36
   4  -7  -5   64.48   22.42
   4  -7  -5   60.34   19.25
  -4   7   5   54.56   22.40
  -4   7   5   93.01   26.21
   4  -7  -4 6522.51 1213.34
   4  -7  -4 5990.88  340.38
  -4   7   4 6896.99 1283.31
  -4   7   4 6602.77 1228.63
   4  -7  -3   34.29   13.01
   4  -7  -3   28.02   13.97
  -4   7   3   42.35   16.83
  -4   7   3   39.57   19.07
   4  -7  -2  237.99   28.29
   4  -7  -2  175.98   18.38
  -4   7   2  203.18   22.12
  -4   7   2  273.65   35.63
   4  -7  -1  983.03   39.17
   4  -7  -1 1021.66   35.27
  -4   7   1 1095.11   38.40
  -4   7   1 1172.15   45.98
   4  -7   0    9.74   10.21
   4  -7   0   19.18    9.32
  -4   7   0   11.24    7.82
  -4   7   0   38.38   16.57
   4  -7   1  415.88   75.22
   4  -7   1  334.48   43.14
  -4   7  -1  396.09   75.07
  -4   7  -1  374.77   69.65
  -4   7  -1  318.43   33.49
   4  -7   2  691.35   44.34
  -4   7  -2  791.24   52.01
  -4   7  -2  900.57   50.50
  -4   7  -2  656.15   36.11
   4  -7   3  661.77   43.19
  -4   7  -3  662.98   48.48
  -4   7  -3  441.68   27.07
   4  -7   4  130.81   29.05
  -4   7  -4  197.67   27.92
   4  -7   5   27.79   10.48
  -4   7  -5   40.65   17.73
   4  -7   6  291.40   28.26
  -4   7  -6  293.62   39.01
   4  -7   7  389.51   38.94
   4  -7   7  333.57   32.47
  -4   7  -7  390.06   43.55
  -4   7  -7  258.32   24.20
   4  -7   8  150.21   19.74
   4  -7   8  173.32   22.15
  -4   7  -8  140.29   26.76
  -4   7  -8  109.85   13.15
   4  -7   9  364.87   50.65
  -4   7  -9  341.18   55.55
  -4   7  -9  323.42   42.65
   4  -7  10   12.15   11.80
   4  -7  10    0.15   11.33
  -4   7 -10   10.81   15.99
  -4   7 -10    3.45    9.57
   4  -7  11   40.86   16.29
   4  -7  11   31.35   14.63
  -4   7 -11   23.09   14.49
   4  -6  -8 1446.40  150.97
   4  -6  -8 1376.23  144.66
  -4   6   8 1713.41  178.52
   4  -6  -7   20.22   12.52
   4  -6  -7   13.74   12.19
  -4   6   7   11.54   13.29
  -4   6   7    3.75   10.33
   4  -6  -6 1265.75   78.47
   4  -6  -6 1315.27   83.27
  -4   6   6 1384.27   88.33
  -4   6   6 1379.45   85.99
   4  -6  -5  183.86   26.63
   4  -6  -5  162.11   21.88
  -4   6   5  209.43   32.18
  -4   6   5  216.04   28.15
   4  -6  -4    7.66   10.55
   4  -6  -4   42.41   15.11
  -4   6   4   15.39   10.06
  -4   6   4    3.48   11.45
   4  -6  -3 2232.04   64.79
   4  -6  -3 2202.01   63.54
  -4   6   3 2351.64   66.28
  -4   6   3 2216.16   67.41
   4  -6  -2  127.68   19.95
   4  -6  -2  105.18   16.92
  -4   6   2  154.87   24.35
  -4   6   2  139.87   21.38
   4  -6  -1 1263.95   61.44
   4  -6  -1 1195.21   56.21
  -4   6   1 1257.14   59.93
  -4   6   1 1333.97   67.52
   4  -6   0   84.76   16.10
   4  -6   0   81.72   12.18
  -4   6   0  103.94   19.07
  -4   6   0   90.69   19.11
  -4   6   0   77.07   11.27
   4  -6   1  238.87   20.14
   4  -6   1  313.69   41.61
  -4   6  -1  305.57   30.12
  -4   6  -1  306.11   27.86
  -4   6  -1  227.46   17.40
   4  -6   2   21.55    9.94
  -4   6  -2   -5.55   15.03
  -4   6  -2   18.72    9.23
   4  -6   3 4197.31  144.98
  -4   6  -3 3913.14  138.04
  -4   6  -3 3618.94  120.72
   4  -6   4   23.06   11.78
  -4   6  -4   -7.24   16.56
   4  -6   5 9443.48 1614.83
   4  -6   6   32.00   11.14
   4  -6   6   29.29   11.76
  -4   6  -6   95.24   30.87
   4  -6   7   70.23   16.16
   4  -6   7   99.82   19.61
  -4   6  -7   89.31   21.24
  -4   6  -7   81.45   17.51
   4  -6   8 1155.22   74.22
   4  -6   8 1196.49   73.70
  -4   6  -8 1116.17   78.96
  -4   6  -8 1065.13   67.10
   4  -6   9  123.78   22.51
   4  -6   9   90.00   14.70
  -4   6  -9  143.62   27.61
  -4   6  -9   70.51   15.38
   4  -6  10 1782.09  141.86
   4  -6  10 1570.10  124.47
  -4   6 -10 1469.97  121.39
  -4   6 -10 1462.18  117.40
   4  -6  11  217.67   42.41
   4  -6  11  229.63   41.63
  -4   6 -11  184.19   39.94
  -4   6 -11  160.32   34.35
   4  -5  -9  458.61   56.22
   4  -5  -9  389.35   48.94
  -4   5   9  485.98   60.52
   4  -5  -8  605.52   40.77
   4  -5  -8  689.36   47.48
  -4   5   8  687.18   48.29
  -4   5   8  655.05   47.40
   4  -5  -7  176.36   26.97
   4  -5  -7  154.10   23.42
  -4   5   7  189.43   28.01
  -4   5   7  146.85   21.59
   4  -5  -6 2197.48  131.64
   4  -5  -6 2347.39  139.91
  -4   5   6 2323.55  139.82
  -4   5   6 2247.60  134.33
   4  -5  -5  165.23   19.47
   4  -5  -5  178.38   23.17
  -4   5   5  112.13   21.58
  -4   5   5  145.61   21.05
   4  -5  -4 5058.87  247.63
   4  -5  -4 4880.35  238.90
  -4   5   4 4975.54  243.72
  -4   5   4 4780.61  235.49
   4  -5  -3  238.63   27.56
   4  -5  -3  268.61   33.30
  -4   5   3  271.24   32.83
  -4   5   3  302.97   37.96
   4  -5  -2  136.46   16.94
   4  -5  -2  218.16   20.59
  -4   5   2  166.95   18.24
  -4   5   2  151.01   21.42
   4  -5  -1 1833.34   74.40
   4  -5  -1 1598.79   63.66
  -4   5   1 1628.53   64.02
  -4   5   1 1608.97   69.39
   4  -5   0 2492.84   96.62
   4  -5   0 2214.48   82.41
   4  -5   0 2254.94  100.37
  -4   5   0 2563.34  103.65
  -4   5   0 2552.05   95.06
  -4   5   0 2416.84   89.91
   4  -5   1  456.37   42.81
   4  -5   1  421.31   37.04
   4  -5   1  501.58   54.16
  -4   5  -1  524.90   55.79
  -4   5  -1  507.43   61.01
  -4   5  -1  416.33   36.95
   4  -5   2   21.16   10.20
   4  -5   2   16.17    5.46
  -4   5  -2    4.89   13.98
  -4   5  -2    6.81    7.81
   4  -5   3  279.47   27.82
   4  -5   3  395.42   35.98
  -4   5  -3  359.48   37.58
  -4   5  -3  266.64   25.84
   4  -5   4  469.30   43.05
  -4   5  -4  562.47   54.54
  -4   5  -4  366.39   33.19
   4  -5   5  682.29   34.57
   4  -5   5  762.55   31.93
   4  -5   5  630.57   60.94
  -4   5  -5  617.96   67.11
   4  -5   6 2126.09   94.85
   4  -5   6 1923.08   82.23
   4  -5   6 1523.65   70.85
  -4   5  -6 1964.98   92.45
   4  -5   7  126.85   27.56
   4  -5   7  143.99   28.54
  -4   5  -7   98.96   25.03
   4  -5   8  294.83   28.48
   4  -5   8  264.70   26.40
  -4   5  -8  214.37   25.70
  -4   5  -8  169.65   18.78
   4  -5   9 2069.00   94.68
   4  -5   9 2237.82   97.95
  -4   5  -9 1952.28   94.72
   4  -5  10  420.73   47.38
   4  -5  10  273.45   30.20
  -4   5 -10  339.53   39.34
  -4   5 -10  357.57   42.64
   4  -5  11 2340.77  133.39
   4  -5  11 2395.66  135.04
  -4   5 -11 2221.96  127.91
   4  -4  -9  995.61   65.72
  -4   4   9 1259.66   80.01
  -4   4   9  991.22   64.34
   4  -4  -8   74.38   15.87
   4  -4  -8   61.38   17.01
  -4   4   8   92.05   20.98
  -4   4   8  113.88   23.41
   4  -4  -7   80.08   22.35
   4  -4  -7   62.15   17.29
  -4   4   7   34.94   18.49
  -4   4   7   76.73   21.71
   4  -4  -6  429.38   36.57
   4  -4  -6  448.67   41.83
  -4   4   6  500.54   44.02
  -4   4   6  415.99   38.70
   4  -4  -5  235.91   28.85
   4  -4  -5  238.85   30.93
  -4   4   5  226.80   28.17
  -4   4   5  180.98   23.86
   4  -4  -4  834.92   37.91
   4  -4  -4  833.66   42.44
  -4   4   4  753.01   36.24
  -4   4   4  801.20   39.35
   4  -4  -3 2853.27  105.77
   4  -4  -3 3028.62  113.29
  -4   4   3 3083.78  114.09
  -4   4   3 3166.89  119.33
   4  -4  -2 4044.73   90.30
   4  -4  -2 3659.04   79.85
   4  -4  -2 4530.03  101.08
  -4   4   2 4354.02  100.24
  -4   4   2 4359.23   94.96
   4  -4  -1 1570.49   43.18
   4  -4  -1 1574.79   38.95
   4  -4  -1 1640.77   46.43
  -4   4   1 1584.59   49.30
  -4   4   1 1689.10   44.08
  -4   4   1 1590.51   40.78
   4  -4   0    8.45    8.92
   4  -4   0    5.33    4.23
   4  -4   0   35.61   13.47
  -4   4   0   63.65   24.38
  -4   4   0   13.35    8.82
  -4   4   0   28.01    8.84
   4  -4   1 2620.38   53.52
   4  -4   1 2437.80   42.78
   4  -4   1 2501.52   85.54
  -4   4  -1 2335.28   53.52
  -4   4  -1 2664.21   72.76
  -4   4  -1 2368.42   45.91
   4  -4   2  167.04   19.07
   4  -4   2  171.30   13.96
  -4   4  -2  126.89   19.22
  -4   4  -2   94.32   11.26
   4  -4   3   98.02   13.77
   4  -4   3  114.44   11.14
  -4   4  -3   91.17   15.87
  -4   4  -3   77.20   11.69
   4  -4   4  852.10   33.69
   4  -4   4  837.75   69.38
  -4   4  -4  841.80   37.10
   4  -4   5 3875.68  149.63
   4  -4   5 3454.59  125.50
   4  -4   5 3737.11  133.04
   4  -4   6  612.11   43.29
   4  -4   6  447.23   29.04
  -4   4  -6  428.89   33.57
   4  -4   7 2163.62  112.16
   4  -4   7 2044.36  102.15
   4  -4   8  719.10   55.54
   4  -4   8  649.01   49.59
  -4   4  -8  656.83   56.59
  -4   4  -8  686.31   56.10
   4  -4   9   24.67   16.22
   4  -4   9   26.87   12.01
  -4   4  -9   45.80   22.95
  -4   4  -9   13.04   11.20
   4  -4  10 4134.51  237.68
   4  -4  10 3843.03  218.88
  -4   4 -10 2105.77  125.31
   4  -4  11  345.75   57.55
   4  -4  11  392.66   64.30
  -4   4 -11  247.67   42.65
  -4   4 -11  310.76   53.90
   4  -4  12  432.52   53.63
   4  -4  12  568.16   64.78
  -4   4 -12  503.62   60.00
  -4   4 -12  500.44   63.86
   4  -3 -10  145.95   28.51
   4  -3 -10  169.42   36.04
  -4   3  10  173.22   34.17
  -4   3  10  166.20   34.05
   4  -3  -9  148.53   21.47
   4  -3  -9  153.70   25.02
  -4   3   9  200.39   33.67
  -4   3   9  222.50   29.15
   4  -3  -8 1421.90   86.16
   4  -3  -8 1553.41   96.96
  -4   3   8 1626.94  101.34
  -4   3   8 1686.03  103.23
   4  -3  -7  187.18   33.60
   4  -3  -7  195.79   35.81
  -4   3   7  218.80   25.42
  -4   3   7  236.27   25.07
   4  -3  -6  410.36   72.36
   4  -3  -6  452.05   33.14
  -4   3   6  414.99   74.30
  -4   3   6  446.34   32.72
   4  -3  -5   26.82   11.75
   4  -3  -5   38.35   13.06
  -4   3   5   12.42   10.16
  -4   3   5   40.01   17.44
   4  -3  -4  154.91   17.88
   4  -3  -4  201.31   25.10
  -4   3   4  165.33   17.93
  -4   3   4  190.88   23.03
   4  -3  -3 2940.60   69.36
   4  -3  -3 2873.72   72.28
   4  -3  -3 2720.40   61.45
  -4   3   3 2692.50   61.42
  -4   3   3 2957.83   73.14
  -4   3   3 2970.53   69.66
   4  -3  -2  951.04   29.71
   4  -3  -2  910.87   29.54
   4  -3  -2  956.89   24.25
  -4   3   2  997.26   26.12
  -4   3   2 1053.90   34.66
  -4   3   2  930.73   25.69
   4  -3  -1  377.94   28.39
   4  -3  -1  430.08   32.17
   4  -3  -1  436.61   29.73
  -4   3   1  421.36   30.20
  -4   3   1  465.76   38.13
  -4   3   1  416.25   28.88
  -4   3   1  403.39   30.62
   4  -3   0 1272.32   41.26
   4  -3   0 1248.81   50.90
   4  -3   0 1092.17   30.24
  -4   3   0 1133.78   35.66
  -4   3   0 1186.11   44.44
  -4   3   0 1117.03   32.10
  -4   3   0 1144.41   37.03
   4  -3   1  550.52   24.95
   4  -3   1  575.16   34.00
   4  -3   1  560.78   18.24
  -4   3  -1  469.91   18.76
  -4   3  -1  548.02   28.17
  -4   3  -1  549.16   29.06
  -4   3  -1  570.19   23.65
   4  -3   2   91.65   11.80
   4  -3   2   88.09    6.44
  -4   3  -2   99.00   15.54
  -4   3  -2   92.46   10.07
   4  -3   3 4168.58   73.56
   4  -3   3 3613.72   54.65
  -4   3  -3 3797.27   71.49
  -4   3  -3 3687.38   62.63
   4  -3   4 4229.78   73.62
   4  -3   4 4131.29   62.42
   4  -3   4 4075.92   61.92
   4  -3   5  670.25   52.32
   4  -3   5  653.47   47.14
   4  -3   5  580.77   46.86
  -4   3  -5  493.82   41.64
   4  -3   6 1195.34   49.40
   4  -3   6 1152.36   42.69
  -4   3  -6 1075.84   50.45
   4  -3   7  191.41   25.13
   4  -3   7  190.99   22.17
  -4   3  -7  236.75   30.20
   4  -3   8 2254.00   65.43
   4  -3   8 2273.59   60.20
   4  -3   9   74.52   19.14
   4  -3   9  108.91   20.40
  -4   3  -9   95.46   18.86
  -4   3  -9   78.66   19.11
   4  -3  10  124.13   20.59
   4  -3  10  113.50   15.82
  -4   3 -10  112.83   18.54
  -4   3 -10  141.16   20.24
   4  -3  11  954.05   61.98
   4  -3  11  842.37   52.61
  -4   3 -11  812.02   54.74
  -4   3 -11  925.82   63.95
   4  -3  12  129.00   17.32
  -4   3 -12  148.00   22.80
   4  -2 -11 1241.73  132.85
  -4   2  11 1178.24  125.65
  -4   2  11 1069.74  112.46
   4  -2 -10  907.31   73.37
   4  -2 -10  957.54   81.14
  -4   2  10 1144.00   95.24
  -4   2  10 1039.28   85.67
   4  -2  -9  149.13   20.86
   4  -2  -9  177.81   30.80
  -4   2   9  166.17   30.83
  -4   2   9  126.81   19.80
   4  -2  -8   19.10   11.56
   4  -2  -8    7.88   13.92
  -4   2   8   41.43   17.57
  -4   2   8   11.42   11.07
   4  -2  -7  566.24   34.43
   4  -2  -7  606.20   41.56
  -4   2   7  603.20   40.44
  -4   2   7  478.24   33.18
   4  -2  -6 1492.34   54.61
   4  -2  -6 1656.61   68.36
  -4   2   6 1373.79   49.39
  -4   2   6 1669.87   65.00
  -4   2   6 1529.73   60.03
   4  -2  -510616.95  373.55
  -4   2   514095.36  762.57
  -4   2   515751.50  853.45
  -4   2   515313.22  830.54
   4  -2  -4  589.88   46.06
   4  -2  -4  516.31   43.51
   4  -2  -4  524.62   39.72
  -4   2   4  565.22   42.41
  -4   2   4  555.74   44.61
  -4   2   4  513.47   40.48
   4  -2  -3  239.73   21.59
   4  -2  -3  209.54   23.01
   4  -2  -3  185.97   15.44
  -4   2   3  177.18   15.22
  -4   2   3  175.53   20.90
  -4   2   3  195.74   17.80
   4  -2  -2 3026.26   78.36
   4  -2  -2 2935.95   79.78
   4  -2  -2 2896.53   72.42
  -4   2   2 2834.69   80.08
  -4   2   2 2804.93   76.92
  -4   2   2 2874.16   72.94
  -4   2   2 2939.33   76.54
   4  -2  -1 2594.14   68.41
   4  -2  -1 2523.30   69.29
   4  -2  -1 2610.32   64.32
  -4   2   1 2549.47   66.18
  -4   2   1 2581.60   74.65
  -4   2   1 2606.73   66.00
  -4   2   1 2662.70   71.13
   4  -2   0 5168.99  131.79
   4  -2   0 5302.02  149.88
   4  -2   0 4972.60  127.14
   4  -2   0 5018.38  123.62
  -4   2   0 5455.33  142.79
  -4   2   0 5011.93  123.67
  -4   2   0 5346.34  134.98
  -4   2   0 5467.06  139.76
   4  -2   1  309.56   16.81
   4  -2   1  352.18   18.00
   4  -2   1  328.59   11.05
   4  -2   1  291.35   29.53
  -4   2  -1  370.05   25.27
  -4   2  -1  300.29   15.79
  -4   2  -1  322.83   16.54
   4  -2   2  406.38   20.38
   4  -2   2  413.29   19.45
   4  -2   2  447.89   13.26
  -4   2  -2  437.29   18.18
  -4   2  -2  483.42   28.63
  -4   2  -2  426.91   20.04
   4  -2   3  239.65   16.84
   4  -2   3  241.03   10.03
   4  -2   3  193.02   16.35
   4  -2   3  187.62    8.12
  -4   2  -3  211.38   19.11
  -4   2  -3  158.70   24.70
   4  -2   4   84.25   13.29
   4  -2   4  102.82   14.57
   4  -2   4   69.75    9.97
   4  -2   4   80.75    7.59
  -4   2  -4  114.94   16.70
   4  -2   5 1308.10   40.30
   4  -2   5 1224.66   29.16
   4  -2   5 1231.98   35.29
  -4   2  -5 1341.48   44.68
   4  -2   6 2450.93   93.85
   4  -2   6 2455.16   89.05
   4  -2   7 4812.86  199.57
   4  -2   7 4703.41  190.90
   4  -2   8   94.97   22.98
   4  -2   8   84.86   18.26
  -4   2  -8  106.51   26.24
  -4   2  -8   57.79   15.59
   4  -2   9  442.71   38.94
   4  -2   9  375.22   29.75
  -4   2  -9  372.65   32.87
  -4   2  -9  470.43   42.64
   4  -2  10    8.57   11.92
   4  -2  10  -11.34    8.21
  -4   2 -10   22.13    9.76
  -4   2 -10   30.53   17.65
   4  -2  11  239.24   41.79
   4  -2  11  233.07   39.67
  -4   2 -11  270.06   49.37
   4  -2  12   60.94   15.20
   4  -2  12   95.76   16.70
  -4   2 -12  119.68   23.37
   4  -1 -11  555.39   47.44
  -4   1  11  595.26   45.46
  -4   1  11  516.10   42.02
   4  -1 -10   32.01   11.21
   4  -1 -10   57.15   22.22
  -4   1  10   36.63   14.30
  -4   1  10    0.33   11.17
   4  -1  -9  733.75   59.55
   4  -1  -9  919.75   63.88
  -4   1   9  922.70   61.32
  -4   1   9  823.77   60.57
   4  -1  -8   26.85   10.53
   4  -1  -8   31.23   15.58
  -4   1   8   11.20   15.46
  -4   1   8   42.96   17.19
   4  -1  -7 3245.48  132.17
  -4   1   7 3890.71  163.00
  -4   1   7 3875.43  162.78
   4  -1  -6 4982.73  179.69
  -4   1   6 5911.00  207.37
  -4   1   6 6051.89  217.02
  -4   1   6 6183.07  222.23
   4  -1  -5 1810.78   42.92
   4  -1  -5 2033.88   57.79
   4  -1  -5 1979.38   47.89
  -4   1   5 1805.36   41.28
  -4   1   5 1757.72   48.27
  -4   1   5 2075.64   53.32
   4  -1  -415991.98  222.68
   4  -1  -416662.88 1133.15
   4  -1  -415825.45  222.44
  -4   1   414742.43  204.82
  -4   1   416182.04 1100.71
  -4   1   416039.97 1090.02
   4  -1  -3 1612.22   43.67
   4  -1  -3 1662.66   54.51
   4  -1  -3 1607.57   43.04
  -4   1   3 1592.03   42.60
  -4   1   3 1564.77   48.45
  -4   1   3 1589.17   44.02
   4  -1  -2  985.34   32.69
   4  -1  -2  969.17   36.96
   4  -1  -2  877.70   30.96
   4  -1  -2  919.43   26.57
  -4   1   2  883.48   36.70
  -4   1   2  847.43   25.95
  -4   1   2  951.53   29.83
  -4   1   2  923.66   32.67
   4  -1  -1 1104.29   33.41
   4  -1  -1 1075.25   36.08
   4  -1  -1 1070.19   34.47
   4  -1  -1 1088.87   29.42
  -4   1   1 1156.60   40.93
  -4   1   1 1091.80   30.50
  -4   1   1 1133.01   34.38
  -4   1   1 1077.55   34.13
   4  -1   0 3619.50   94.12
   4  -1   0 3734.16  100.71
   4  -1   0 3428.67   89.57
   4  -1   0 3579.28   87.37
  -4   1   0 3591.46   97.28
  -4   1   0 3465.66   84.73
  -4   1   0 3695.04   95.26
  -4   1   0 3813.78   99.91
   4  -1   1 8257.54  204.81
   4  -1   1 7638.99  190.22
   4  -1   1 8536.64  213.71
  -4   1  -1 7832.41  193.82
  -4   1  -1 8143.62  204.89
  -4   1  -1 7786.61  193.81
   4  -1   2  189.98   15.63
   4  -1   2  151.58   11.79
  -4   1  -2  146.88   15.29
  -4   1  -2  175.63   12.01
  -4   1  -2  202.29   15.72
   4  -1   3   -2.45    7.76
   4  -1   3   -4.48    6.26
   4  -1   3    7.74    2.13
   4  -1   3    5.86    1.54
  -4   1  -3   34.28   13.97
  -4   1  -3   31.40   12.72
   4  -1   4 2879.00   55.13
   4  -1   4 2791.16   42.47
   4  -1   4 2899.96   51.37
  -4   1  -4 2635.39   53.41
   4  -1   5  500.53   41.18
   4  -1   5  550.22   39.66
   4  -1   5  466.36   35.84
  -4   1  -5  547.34   46.75
   4  -1   6 1788.99   67.77
   4  -1   6 1875.90   69.16
   4  -1   7  219.87   27.82
   4  -1   7  236.42   25.19
   4  -1   7  176.48   20.47
  -4   1  -7  236.49   29.20
   4  -1   8 2582.29   71.79
   4  -1   8 2417.69   62.15
  -4   1  -8 2041.79   54.83
   4  -1   9  850.65   56.09
   4  -1   9  775.84   67.90
  -4   1  -9  833.79   61.92
   4  -1  10   27.56   13.41
   4  -1  10   22.26    9.55
  -4   1 -10   33.04   25.52
   4  -1  11   47.14   18.05
   4  -1  11    4.05   10.95
  -4   1 -11   28.13   16.96
   4   0 -12   -1.06   13.22
  -4   0  12   27.71   26.24
  -4   0  12   55.29   18.26
   4   0 -11  175.10   36.04
  -4   0  11  156.41   25.28
  -4   0  11  161.90   28.49
   4   0 -10   28.10   15.31
  -4   0  10   68.77   19.38
  -4   0  10   39.20   18.01
   4   0  -9  219.38   17.66
   4   0  -9  269.60   31.35
  -4   0   9  271.97   27.19
  -4   0   9  211.99   22.22
   4   0  -8 1384.89   68.51
   4   0  -8 1545.29   76.62
  -4   0   8 1689.45   89.51
  -4   0   8 1627.06   85.12
   4   0  -7    2.22    2.49
   4   0  -7    9.38    5.79
   4   0  -7    5.77   14.16
  -4   0   7    7.47   11.56
  -4   0   7   25.13   11.13
   4   0  -6  523.75   43.55
   4   0  -6  571.88   50.70
  -4   0   6  558.09   46.25
  -4   0   6  684.76   34.32
  -4   0   6  629.29   41.87
   4   0  -510584.66  205.88
   4   0  -510534.01  208.25
  -4   0   510373.93  201.75
  -4   0   510746.48  214.53
  -4   0   510507.64  212.62
   4   0  -4 2297.26   37.91
   4   0  -4 2230.54   39.28
   4   0  -4 2294.56   52.19
  -4   0   4 2422.48   51.33
  -4   0   4 2341.76   43.29
   4   0  -3 1914.96   48.46
   4   0  -3 1912.61   60.86
   4   0  -3 1959.83   49.60
  -4   0   3 2038.99   51.32
  -4   0   3 1909.72   57.16
  -4   0   3 1906.06   49.94
   4   0  -2    4.41    5.79
   4   0  -2   47.82   16.70
   4   0  -2    6.18    7.32
   4   0  -2    2.46    4.05
  -4   0   2    5.24   12.67
  -4   0   2    6.30    4.69
  -4   0   2   38.51   10.28
  -4   0   2    8.63    8.76
   4   0  -1  219.07   12.18
   4   0  -1  216.73   15.64
   4   0  -1  223.57   14.35
   4   0  -1  222.60    7.78
  -4   0   1  256.91   17.74
  -4   0   1  242.03    9.30
  -4   0   1  265.36   14.00
  -4   0   1  329.71   18.89
   4   0   012858.65  313.89
   4   0   012406.07  303.88
  -4   0   012810.14  315.29
  -4   0   012817.34  312.35
  -4   0   013179.30  323.80
   4   0   1 1674.33   48.89
   4   0   1 1640.18   47.10
   4   0   1 1344.64   46.13
  -4   0  -1 1689.40   46.62
  -4   0  -1 1613.26   49.01
  -4   0  -1 1504.83   43.62
   4   0   2 9814.60  242.24
   4   0   2 9800.04  241.16
  -4   0  -210472.50  258.83
  -4   0  -210006.01  246.19
  -4   0  -2 8791.33  218.32
   4   0   3 1069.88   36.18
   4   0   3 1083.11   32.47
  -4   0  -3 1002.28   31.50
  -4   0  -3  914.77   29.87
   4   0   4 1847.83   42.24
   4   0   4 1701.56   27.84
   4   0   4 1700.90   33.05
  -4   0  -4 1850.22   39.66
   4   0   5  996.07   33.19
   4   0   5 1018.68   25.73
   4   0   5  924.38   26.29
  -4   0  -5 1040.24   34.29
  -4   0  -5 1008.38   24.74
   4   0   6 4527.52  153.04
   4   0   6 4321.99  141.67
   4   0   6 4222.22  138.95
  -4   0  -6 3399.77  113.92
  -4   0  -6 4231.93  137.88
   4   0   7 2060.03   91.92
   4   0   7 2023.13   85.47
  -4   0  -7 1796.11   75.55
   4   0   8 1844.09   56.22
   4   0   8 1973.03   54.12
  -4   0  -8 1800.66   48.80
   4   0   9  144.32   30.08
   4   0   9  142.93   26.66
  -4   0  -9  103.71   20.24
  -4   0  -9  122.27   24.24
   4   0  10  672.86   48.61
   4   0  10  779.51   50.91
  -4   0 -10  813.14   63.01
   4   0  11  154.04   46.36
   4   0  11  309.42   54.74
  -4   0 -11  217.00   44.58
   4   1 -12 1964.16  149.23
  -4  -1  12 2284.51   52.40
  -4  -1  12 1997.24  147.07
   4   1 -11  221.80   36.95
  -4  -1  11  249.98   37.99
  -4  -1  11  191.63   29.32
   4   1 -10 1190.43   67.26
  -4  -1  10 1250.10   62.78
  -4  -1  10  982.88   50.18
   4   1  -9  149.16   20.83
  -4  -1   9  141.31   18.83
  -4  -1   9  129.97   25.58
   4   1  -8  117.13   12.34
   4   1  -8  128.90   24.67
  -4  -1   8  194.86   25.20
  -4  -1   8  204.05   27.89
   4   1  -7  128.63    8.81
   4   1  -7  109.74    7.96
   4   1  -7   90.14   14.22
  -4  -1   7  138.78   18.98
  -4  -1   7  133.22   17.65
   4   1  -6  305.68   26.47
   4   1  -6  347.05   28.81
   4   1  -6  363.40   38.21
  -4  -1   6  423.39   39.67
  -4  -1   6  321.32   33.04
   4   1  -5  695.25   43.45
   4   1  -5  724.60   57.45
   4   1  -5  643.88   42.35
  -4  -1   5  725.65   50.39
  -4  -1   5  706.56   49.70
  -4  -1   5  658.59   45.15
   4   1  -4  215.22    8.24
   4   1  -4  279.62   19.32
   4   1  -4  215.38   10.96
  -4  -1   4  245.67    9.60
  -4  -1   4  190.04   16.96
  -4  -1   4  301.76   15.34
   4   1  -3  341.08   12.53
   4   1  -3  336.54   19.32
   4   1  -3  339.47   12.59
  -4  -1   3  303.67   17.39
  -4  -1   3  394.33   17.80
  -4  -1   3  373.08   19.47
  -4  -1   3  375.34   13.34
  -4  -1   3  410.02   21.62
   4   1  -2  607.07   19.84
   4   1  -2  589.38   24.40
  -4  -1   2  668.31   21.83
  -4  -1   2  625.58   20.11
  -4  -1   2  669.16   29.18
  -4  -1   2  606.61   23.88
   4   1  -1  681.90   22.79
   4   1  -1  665.92   24.93
   4   1  -1  631.80   37.51
  -4  -1   1  724.10   31.46
  -4  -1   1  710.65   20.11
  -4  -1   1  647.14   21.13
  -4  -1   1  657.89   28.05
   4   1   0  351.89   17.13
   4   1   0  338.08   15.70
   4   1   0  487.04   60.01
  -4  -1   0  363.51   15.94
  -4  -1   0  366.66   21.83
  -4  -1   0  348.26   19.20
   4   1   1 4884.97  124.62
   4   1   1 4764.63  120.87
  -4  -1  -1 4798.70  123.31
  -4  -1  -1 5042.84  127.43
   4   1   2    7.93    7.18
   4   1   2   10.03    7.10
  -4  -1  -2   25.29   11.11
  -4  -1  -2   24.35    5.68
  -4  -1  -2    5.43    9.96
   4   1   3 1970.33   44.01
   4   1   3 1623.98   26.07
   4   1   3 1880.69   35.49
  -4  -1  -3 1811.55   35.52
  -4  -1  -3 1801.58   28.36
   4   1   4 2005.55   51.37
   4   1   4 1939.96   41.81
   4   1   4 2065.73   46.45
  -4  -1  -4 1995.44   49.28
  -4  -1  -4 2003.25   42.86
   4   1   5 2396.34   92.14
   4   1   5 2462.70   88.76
   4   1   5 2419.51   87.49
  -4  -1  -5 2318.48   85.44
  -4  -1  -5 2317.55   83.37
   4   1   6 3376.90  117.79
   4   1   6 3352.24  111.71
   4   1   6 3096.75  102.45
  -4  -1  -6 2952.47   99.17
  -4  -1  -6 3026.77  100.80
   4   1   7  297.17   35.04
   4   1   7  351.12   36.75
   4   1   7  305.94   31.17
  -4  -1  -7  310.52   32.56
  -4  -1  -7  305.67   31.96
  -4  -1  -7  346.07   40.24
   4   1   8  258.60   26.45
   4   1   8  253.01   22.83
  -4  -1  -8  212.74   18.60
  -4  -1  -8  236.82   26.55
   4   1   9 1600.09   95.33
   4   1   9 1681.74   75.35
  -4  -1  -9 1895.21   89.52
   4   1  10 1160.43  100.38
   4   1  10 1323.03  105.70
  -4  -1 -10 1441.85  119.80
   4   1  11   85.27   17.51
   4   1  11  107.36   19.58
  -4  -1 -11  103.84   21.42
   4   2 -12   50.93   20.76
  -4  -2  12   64.66   25.15
  -4  -2  12  108.90   27.49
   4   2 -11  732.92   65.17
  -4  -2  11  754.67   65.59
  -4  -2  11  756.17   67.25
   4   2 -10  433.78   48.16
  -4  -2  10  535.99   51.03
  -4  -2  10  601.70   55.10
   4   2  -9  625.19   54.85
  -4  -2   9  720.07   57.21
  -4  -2   9  701.98   55.19
   4   2  -8 4799.63  236.99
  -4  -2   8 4908.52  239.95
  -4  -2   8 4782.38  234.89
   4   2  -7  111.25   15.14
  -4  -2   7  138.08   16.38
  -4  -2   7  146.49   18.15
   4   2  -6 3250.57  120.51
  -4  -2   6 3330.01  121.63
  -4  -2   6 3264.72  121.19
   4   2  -5   24.60    7.65
  -4  -2   5   12.40   13.41
  -4  -2   5   38.09   16.23
   4   2  -4  279.19   18.11
   4   2  -4  302.50   28.21
  -4  -2   4  279.25   18.07
  -4  -2   4  260.62   19.78
  -4  -2   4  260.46   26.08
   4   2  -3  959.34   25.65
   4   2  -3  999.34   36.11
  -4  -2   3  938.69   25.40
  -4  -2   3  949.96   28.76
  -4  -2   3  957.76   36.49
  -4  -2   3  942.35   31.94
   4   2  -2  466.26   16.32
   4   2  -2  458.52   26.18
  -4  -2   2  488.57   50.78
  -4  -2   2  436.15   14.36
  -4  -2   2  469.45   15.83
  -4  -2   2  483.99   22.39
  -4  -2   2  382.68   18.20
   4   2  -1 2419.91   64.50
   4   2  -1 2280.98   78.35
  -4  -2   1 2342.57   78.88
  -4  -2   1 2414.70   68.77
  -4  -2   1 2102.91   53.48
  -4  -2   1 2321.80   58.59
  -4  -2   1 2336.50   60.82
  -4  -2   1 2417.18   67.30
   4   2   0 5939.29  143.00
   4   2   0 6207.49  155.76
  -4  -2   0 5957.79  142.26
  -4  -2   0 5308.60  123.85
  -4  -2   0 5965.46  145.42
  -4  -2   0 4466.57  109.98
   4   2   1 1192.73   36.45
  -4  -2  -1 1176.94   34.89
  -4  -2  -1 1240.43   37.68
  -4  -2  -1 1122.15   28.65
  -4  -2  -1 1112.57   36.49
   4   2   2  323.69   25.38
   4   2   2  331.37   23.55
   4   2   2  311.48   24.44
  -4  -2  -2  276.56   21.72
  -4  -2  -2  310.63   23.32
  -4  -2  -2  304.54   20.05
   4   2   3  126.99   16.06
   4   2   3  146.56   11.63
   4   2   3  138.35   11.88
  -4  -2  -3  170.01   16.56
  -4  -2  -3  138.35   11.03
   4   2   4  583.17   45.80
   4   2   4  541.58   39.56
   4   2   4  583.08   41.88
  -4  -2  -4  568.62   42.56
  -4  -2  -4  486.39   35.09
   4   2   5  950.81   42.10
   4   2   5 1000.23   38.01
   4   2   5 1020.02   36.17
  -4  -2  -5  972.69   35.83
  -4  -2  -5  972.32   36.28
   4   2   6  205.69   27.30
   4   2   6   94.92   12.47
  -4  -2  -6  105.97   12.68
  -4  -2  -6  112.73   14.30
  -4  -2  -6  151.09   22.62
   4   2   7  827.93   49.24
   4   2   7  874.52   30.73
  -4  -2  -7  765.06   53.82
  -4  -2  -7  816.03  125.76
   4   2   8   77.00   25.87
   4   2   8   45.81   12.15
  -4  -2  -8   54.56   19.84
   4   2   9   49.28   18.87
   4   2   9   48.78   12.50
  -4  -2  -9   44.74   18.02
   4   2  10  233.09   73.10
   4   2  10  402.62   38.03
  -4  -2 -10  476.29   48.19
   4   3 -12  669.29   59.47
  -4  -3  12  684.03   56.93
  -4  -3  12  739.95   61.64
   4   3 -11  175.37   31.06
  -4  -3  11  244.01   39.14
  -4  -3  11  191.50   34.23
   4   3 -10 1214.12   65.61
  -4  -3  10 1057.23   53.97
  -4  -3  10 1000.80   55.17
   4   3  -9   39.69   20.45
  -4  -3   9   28.46   14.77
  -4  -3   9   64.09   20.66
   4   3  -8 1241.51   69.62
  -4  -3   8 1214.44   64.99
  -4  -3   8 1237.96   70.36
   4   3  -7   25.32   17.53
  -4  -3   7   27.38   15.20
  -4  -3   7   55.62   21.59
   4   3  -6  420.69   40.08
  -4  -3   6  492.56   43.62
  -4  -3   6  451.64   45.15
   4   3  -511802.25  237.41
  -4  -3   512186.77  241.41
  -4  -3   511511.02  231.39
   4   3  -4  404.72   30.72
  -4  -3   4  404.06   25.38
  -4  -3   4  404.87   25.34
  -4  -3   4  404.78   29.36
  -4  -3   4  440.75   35.31
   4   3  -3 4074.62   72.40
  -4  -3   3 4256.38   61.73
  -4  -3   3 4115.44   64.28
  -4  -3   3 4426.86   77.89
   4   3  -2 1975.83   56.52
   4   3  -2 2032.57   69.51
  -4  -3   2 1837.43   60.79
  -4  -3   2 2066.96   58.58
  -4  -3   2 1945.50   61.31
  -4  -3   2 1990.41   50.14
  -4  -3   2 2047.39   51.12
  -4  -3   2 2020.96   55.86
   4   3  -1  642.90   37.77
   4   3  -1  753.00   64.75
  -4  -3   1  610.22   46.23
  -4  -3   1  629.54   21.63
  -4  -3   1  582.06   18.57
  -4  -3   1  672.40   28.32
  -4  -3   1  681.55   27.24
   4   3   0 5368.77  130.25
  -4  -3   0 5191.12  124.83
  -4  -3   0 5384.80  139.69
  -4  -3   0 5551.94   88.29
  -4  -3   0 5193.74  123.18
  -4  -3   0 5027.74   81.74
   4   3   1  829.38   37.55
  -4  -3  -1  769.73   55.50
  -4  -3  -1  859.46   24.67
  -4  -3  -1  904.07   23.01
  -4  -3  -1  819.52   18.21
  -4  -3  -1  781.44   57.76
   4   3   2 1207.28   71.57
   4   3   2 1324.28   37.00
  -4  -3  -2 1311.23   33.10
  -4  -3  -2 1273.12   39.19
  -4  -3  -2 1270.53   29.96
   4   3   3  988.29   79.08
   4   3   3  830.07   33.17
  -4  -3  -3  835.22   34.10
  -4  -3  -3  816.03   38.31
  -4  -3  -3  836.04   33.24
   4   3   4  143.00   27.60
   4   3   4  141.15   14.25
  -4  -3  -4  107.78    9.46
  -4  -3  -4  111.75   15.81
  -4  -3  -4  105.38   10.25
   4   3   5 2469.19  123.87
   4   3   5 1927.20   81.06
  -4  -3  -5 2206.23   90.60
  -4  -3  -5 2314.42   96.35
   4   3   6   21.44   15.48
   4   3   6    8.69   10.24
  -4  -3  -6   40.96   20.63
   4   3   7 2443.88  166.73
   4   3   7 2594.42  150.80
   4   3   8  859.96   61.90
   4   3   8  922.58   58.90
  -4  -3  -8  906.03   61.57
   4   3   9  115.56   50.70
   4   3   9  159.57   30.91
  -4  -3  -9  134.72   29.14
   4   3  10  860.02  108.27
   4   3  10  979.44  104.72
  -4  -3 -10 1214.32  131.64
   4   4 -12  707.25   66.56
  -4  -4  12  804.12   66.54
  -4  -4  12  702.87   59.60
   4   4 -11   36.82   16.21
  -4  -4  11   16.13   11.38
  -4  -4  11   46.92   20.07
   4   4 -10  270.46   34.00
  -4  -4  10  247.61   31.53
  -4  -4  10  270.77   35.59
   4   4  -9   50.62   22.70
  -4  -4   9   24.28   10.85
  -4  -4   9  -13.20   12.33
   4   4  -8 2501.40   70.21
  -4  -4   8 2728.17   74.06
  -4  -4   8 2578.81   74.48
   4   4  -7  321.28   37.05
  -4  -4   7  330.86   37.54
  -4  -4   7  342.91   41.21
   4   4  -6   56.43   14.53
  -4  -4   6   69.84   12.15
  -4  -4   6   47.64   13.01
   4   4  -5  745.90   36.05
  -4  -4   5  782.34   35.50
  -4  -4   5  795.39   39.63
   4   4  -4  515.39   41.71
  -4  -4   4  542.72   41.80
  -4  -4   4  564.43   46.08
  -4  -4   3 9245.55  181.92
  -4  -4   3 9608.61  194.80
  -4  -4   3 9913.43  197.71
  -4  -4   3 9509.05  187.70
  -4  -4   310166.02  203.44
   4   4  -2 4559.91  115.31
  -4  -4   2 4645.92   72.07
  -4  -4   2 4390.15   75.18
   4   4  -1 3618.79   73.68
   4   4  -1 3650.86   66.57
  -4  -4   1 3465.00   75.34
  -4  -4   1 3701.93   59.08
  -4  -4   1 3711.45   60.18
  -4  -4   1 3705.24   65.12
  -4  -4   1 3582.87   63.61
   4   4   0  220.66   35.85
  -4  -4   0  208.84   22.84
  -4  -4   0  193.35   17.98
  -4  -4   0  201.78   17.34
  -4  -4   0  200.25   19.76
   4   4   1 1220.07   61.61
   4   4   1 1154.94   30.28
  -4  -4  -1 1182.25   31.62
  -4  -4  -1 1147.41   31.83
  -4  -4  -1 1037.67   26.87
   4   4   2   32.41   11.71
   4   4   2   19.38    8.96
  -4  -4  -2   32.56   10.11
  -4  -4  -2   13.43    5.88
   4   4   3 3102.90  125.53
   4   4   3 2922.55   98.78
  -4  -4  -3 2952.44   97.46
  -4  -4  -3 2870.14   95.40
  -4  -4  -3 2790.35   94.10
   4   4   4  589.38   70.91
   4   4   4  568.72   29.54
  -4  -4  -4  506.38   47.97
  -4  -4  -4  461.14   45.86
   4   4   5  143.68   35.91
   4   4   5  175.98   33.29
  -4  -4  -5  215.77   23.29
   4   4   6   16.73   17.04
   4   4   6   25.30    9.17
  -4  -4  -6   42.69   19.01
   4   4   7  576.31  114.65
   4   4   7  618.38   61.41
  -4  -4  -7  580.89   60.02
   4   4   8  389.60   64.39
   4   4   8  521.15   67.87
  -4  -4  -8  482.80   65.14
   4   4   9   36.47   22.50
   4   4   9  -11.28   10.25
  -4  -4  -9   53.58   21.18
   4   5 -12   16.64   12.15
  -4  -5  12   14.08   14.06
  -4  -5  12   19.04   15.31
   4   5 -11  424.52   59.88
  -4  -5  11  491.88   64.97
  -4  -5  11  375.61   52.11
   4   5 -10  169.44   25.41
  -4  -5  10  221.51   31.25
  -4  -5  10  211.79   32.32
   4   5  -9  235.09   26.71
  -4  -5   9  247.88   28.34
   4   5  -8 1080.56   39.49
  -4  -5   8 1208.63   41.52
   4   5  -7  223.40   28.60
  -4  -5   7  168.66   22.35
   4   5  -6 2844.46  120.89
  -4  -5   6 2863.40  121.21
   4   5  -5 4645.46  155.56
  -4  -5   5 4993.51  165.53
   4   5  -4   57.11   11.13
  -4  -5   4   83.87    9.41
  -4  -5   4   75.39   15.75
  -4  -5   4   75.15   11.40
  -4  -5   4   91.66   13.95
  -4  -5   4   80.64    8.43
  -4  -5   4   77.43   12.09
   4   5  -3  194.87   32.58
  -4  -5   3  205.78   19.32
  -4  -5   3  180.82   21.11
  -4  -5   3  148.38   18.70
  -4  -5   3  191.44   20.14
  -4  -5   3  192.78   18.34
  -4  -5   3  155.56   18.15
   4   5  -2 7962.94  284.90
  -4  -5   2 7202.35  251.99
  -4  -5   2 6435.99  225.33
  -4  -5   2 7328.47  257.47
  -4  -5   2 7340.55  259.14
  -4  -5   1 4366.11  155.08
  -4  -5   1 4273.16  151.70
  -4  -5   1 4241.37  152.71
  -4  -5   1 4508.69  161.36
  -4  -5   1 4478.06  159.21
  -4  -5   1 3977.04  143.01
  -4  -5   0 2159.10   79.34
  -4  -5   0 2840.58  104.19
  -4  -5   0 2961.22  107.25
  -4  -5   0 2887.06  104.77
   4   5   1  854.18   42.86
  -4  -5  -1 1002.03   37.62
  -4  -5  -1  849.67   33.78
  -4  -5  -1  854.52   33.50
   4   5   2   37.05    9.45
  -4  -5  -2   73.27   13.56
  -4  -5  -2   40.79    7.92
   4   5   3 1849.72   95.38
   4   5   3 1804.51   94.05
  -4  -5  -3 1956.31   95.27
   4   5   4 2736.72   74.91
   4   5   4 2749.43   71.18
   4   5   5 1548.18   92.97
  -4  -5  -5 1267.35   78.05
   4   5   6  135.61   17.62
  -4  -5  -6   97.49   17.62
   4   5   7  351.43   46.88
  -4  -5  -7  370.43   54.45
  -4  -5  -7  303.55   43.77
   4   5   8  545.59   48.04
  -4  -5  -8  523.00   46.63
  -4  -5  -8  502.17   46.17
   4   6 -11  408.40   68.16
  -4  -6  11  376.26   62.26
   4   6 -10 1160.40   95.29
  -4  -6  10 1262.97  103.71
   4   6  -9  584.60   58.72
  -4  -6   9  652.62   66.26
   4   6  -8  130.87   27.78
  -4  -6   8  150.35   29.55
   4   6  -7  211.38   25.87
  -4  -6   7  201.92   21.07
   4   6  -6 2002.36  101.66
  -4  -6   6 2236.22  113.42
   4   6  -5 3562.25  175.40
  -4  -6   5 3198.85  153.29
  -4  -6   5 2775.84  137.46
  -4  -6   5 2867.51  137.36
   4   6  -4 6073.56  256.31
  -4  -6   4 6124.07  245.21
  -4  -6   4 6678.23  270.56
  -4  -6   4 5653.07  226.59
  -4  -6   4 5617.94  227.70
   4   6  -3 1913.15   89.18
  -4  -6   3 1801.49   76.23
  -4  -6   3 1649.48   69.76
  -4  -6   3 1527.02   66.35
  -4  -6   2  362.22   36.16
  -4  -6   2  357.38   35.70
  -4  -6   2  459.23   47.40
  -4  -6   2  256.06   27.51
  -4  -6   1  413.31   42.04
  -4  -6   1  433.75   44.00
  -4  -6   1  352.11   36.18
  -4  -6   0 2320.20   98.01
  -4  -6   0 1896.71   80.84
  -4  -6   0 2121.17   89.27
   4   6   1  206.46   33.27
  -4  -6  -1  258.19   31.24
  -4  -6  -1  234.39   26.06
  -4  -6  -1  260.83   29.10
   4   6   2  389.95   48.68
  -4  -6  -2  404.62   30.83
  -4  -6  -2  353.40   30.09
   4   6   3  721.88   56.50
  -4  -6  -3  719.94   54.05
  -4  -6  -3  636.37   48.31
   4   6   4 2117.73  124.96
  -4  -6  -4 2212.07  132.40
  -4  -6  -4 1982.54  118.08
   4   6   5  849.00   54.76
  -4  -6  -5  843.60   57.09
  -4  -6  -5  775.52   53.60
   4   6   6  344.46   46.93
  -4  -6  -6  360.05   49.63
  -4  -6  -6  324.72   45.72
   4   6   7  451.66   41.25
  -4  -6  -7  411.77   40.04
   4   7 -11   14.91   13.77
  -4  -7  11   64.60   25.30
   4   7 -10  487.71  140.90
   4   7 -10  484.72  138.52
  -4  -7  10  440.98   71.84
   4   7  -9 1921.41  122.92
   4   7  -9 1874.87  111.74
  -4  -7   9 1889.19  115.40
   4   7  -8  244.79   43.08
   4   7  -8  234.13   27.97
  -4  -7   8  250.74   28.88
   4   7  -7 1302.38   90.84
   4   7  -7 1423.93   85.37
  -4  -7   7 1364.89   84.41
   4   7  -6   30.26    9.28
   4   7  -6    9.48    7.46
  -4  -7   6   32.37   17.00
   4   7  -5 2556.46   74.12
   4   7  -5 2294.51   74.51
  -4  -7   5 2174.25   51.61
  -4  -7   5 2747.91   73.75
   4   7  -4  647.31   79.96
  -4  -7   4  731.11   52.57
  -4  -7   3   37.99    9.06
  -4  -7   3   65.85   13.52
  -4  -7   3   54.14   13.58
  -4  -7   2  279.44   23.76
  -4  -7   2  278.19   24.72
  -4  -7   1   47.41   11.65
  -4  -7   1   62.14   13.15
  -4  -7   0  223.26   21.98
  -4  -7   0  212.96   20.69
   4   7   1 1132.37   60.30
  -4  -7  -1 1294.28   60.46
  -4  -7  -1 1423.20   71.04
   4   7   2   36.47   12.72
  -4  -7  -2    5.68   12.71
   4   7   3    4.22   10.21
  -4  -7  -3   63.42   19.21
  -4  -7  -3    8.49    8.91
   4   7   4  821.22   71.69
  -4  -7  -4  867.34   72.44
  -4  -7  -4  807.14   67.11
  -4  -7  -5   68.23   24.29
  -4  -7  -5   59.79   22.52
   4   7   6  198.91   29.30
  -4  -7  -6  176.84   19.12
  -4  -7  -6  179.95   21.27
   4   8 -10   29.30   23.85
  -4  -8  10   43.68   23.14
   4   8  -9  112.26   47.51
  -4  -8   9  208.59   39.34
   4   8  -8 1197.58  106.03
   4   8  -8 1070.14   86.11
  -4  -8   8 1247.64  101.78
   4   8  -7   73.14   14.43
   4   8  -7   36.84   13.55
  -4  -8   7   68.18   18.09
   4   8  -6 4589.43  199.96
   4   8  -6 3844.69  174.98
  -4  -8   6 5024.49  623.86
   4   8  -5  850.10   92.71
   4   8  -5  712.93   69.81
  -4  -8   5  774.21   62.43
  -4  -8   5  912.25   58.43
   4   8  -4 1071.44   93.53
  -4  -8   4  997.26   59.82
  -4  -8   3 1030.11   62.25
  -4  -8   2  549.90   46.77
  -4  -8   1 4305.90  247.43
  -4  -8   1 4420.38  279.42
  -4  -8   0  209.42   27.38
  -4  -8   0  181.75   22.45
   4   8   1   -0.01    8.95
  -4  -8  -1    2.76    9.52
   4   8   2  312.34   86.55
  -4  -8  -2  539.77   69.62
   4   8   3   33.65   11.96
  -4  -8  -3   14.83   12.33
   4   8   4   12.16    7.19
  -4  -8  -4   14.64   12.40
  -4  -8  -4    8.68    8.19
   4   9  -9   -6.45   13.30
  -4  -9   9   31.22   15.56
   4   9  -8   22.66   10.40
  -4  -9   8   43.52   22.48
   4   9  -7  108.71   34.40
  -4  -9   7  141.31   27.32
   4   9  -6 1393.39  127.35
  -4  -9   6 1429.26  114.84
   4   9  -5  232.97   79.59
   4   9  -4  131.10   26.00
  -4  -9   4   84.74   15.27
  -4  -9   3   54.95   13.91
  -4  -9   2 1749.87  136.60
  -4  -9   1   27.34   14.24
  -4  -9   0   26.90   10.39
  -4  -9  -1  550.55   39.84
   4   9   2   15.61    9.63
  -4  -9  -2   34.96   18.95
   4  10  -7   47.42   11.85
  -4 -10   7   78.43   22.69
   4  10  -6  548.88   67.90
  -4 -10   6  745.40   83.20
   4  10  -5  138.58   44.78
   4  10  -4  199.19   70.22
  -4 -10   3  226.93   39.84
  -4 -10   2  163.15   30.61
  -4 -10   1  590.03   66.41
   5  -9  -1   31.44    9.91
  -5   9   1   53.37   18.59
  -5   9   1   58.81   18.76
   5  -9   0   45.78   24.18
  -5   9   0   -0.70   18.02
  -5   9   0   12.34    9.27
   5  -9   1  643.30   48.06
  -5   9  -1  676.70   56.18
  -5   9  -1  448.75   95.75
   5  -9   2   85.75   30.90
   5  -9   3  203.91   38.60
  -5   9  -3  188.15   40.18
   5  -9   4  150.48   30.71
  -5   9  -4  215.97   42.46
   5  -9   5  561.96   51.26
  -5   9  -5  559.97   56.04
   5  -9   6  168.46   33.32
  -5   9  -6  108.62   26.37
   5  -9   7   27.51   15.53
   5  -9   7   -2.88    8.64
  -5   9  -7   22.09   19.74
   5  -8  -4 1184.69  127.49
  -5   8   4  981.03  108.54
  -5   8   4  987.46  105.69
   5  -8  -3  122.69   26.60
   5  -8  -3  101.67   22.82
  -5   8   3  119.99   28.93
  -5   8   3  139.54   33.70
   5  -8  -2   58.64   27.96
   5  -8  -2   22.71   13.94
  -5   8   2    1.24    9.92
  -5   8   2   43.74   25.62
   5  -8  -1 3211.81  249.06
   5  -8  -1 2626.56  207.87
  -5   8   1 3191.16  251.47
  -5   8   1 3191.31  248.79
   5  -8   0   77.64   17.80
   5  -8   0   56.65   17.69
  -5   8   0   95.14   22.37
  -5   8   0   95.00   23.83
   5  -8   1  469.77   52.23
  -5   8  -1  589.74   48.54
  -5   8  -1  437.00   57.84
   5  -8   2   -5.18   10.68
  -5   8  -2   42.05   16.71
   5  -8   3   40.26   16.67
  -5   8  -3   25.74   16.52
   5  -8   4   52.97   16.86
  -5   8  -4  118.26   30.38
   5  -8   5 1114.39   92.29
  -5   8  -5 1005.41   91.46
   5  -8   6   16.84   12.76
  -5   8  -6   73.09   29.51
   5  -8   7 1394.39   83.39
  -5   8  -7 1361.87   91.90
   5  -8   8   44.93   19.37
   5  -8   8   11.73   10.15
  -5   8  -8   50.62   22.61
   5  -7  -5  745.30   62.40
   5  -7  -5  745.06   61.21
  -5   7   5  969.86   77.18
  -5   7   5  835.50   74.98
   5  -7  -4  157.96   30.13
   5  -7  -4  215.69   39.46
  -5   7   4  156.77   30.47
  -5   7   4  116.26   36.89
   5  -7  -3  348.27   51.49
   5  -7  -3  351.85   48.92
  -5   7   3  432.71   58.58
  -5   7   3  313.03   45.93
   5  -7  -2 1080.85   70.02
   5  -7  -2 1075.55   68.94
  -5   7   2 1020.94   66.12
  -5   7   2 1342.49   87.63
   5  -7  -1   66.78   14.87
   5  -7  -1   22.83   10.85
  -5   7   1   37.98   12.04
  -5   7   1   55.66   22.37
   5  -7   0   42.70   17.83
   5  -7   0   32.94   13.46
  -5   7   0   13.82    9.61
  -5   7   0   69.94   31.12
   5  -7   1  311.00   31.72
   5  -7   1  258.63   44.80
  -5   7  -1  252.86   54.88
  -5   7  -1  299.17   38.86
   5  -7   2  665.52   60.89
  -5   7  -2  550.98   54.88
   5  -7   3   73.96   18.18
  -5   7  -3  106.96   28.34
   5  -7   4   54.89   17.38
  -5   7  -4  108.33   31.56
   5  -7   5  461.50   48.17
  -5   7  -5  581.39   68.19
   5  -7   6  294.36   35.61
   5  -7   6  393.71   40.22
  -5   7  -6  369.42   49.41
   5  -7   7  185.55   30.35
   5  -7   7  223.64   32.53
  -5   7  -7  198.96   38.76
   5  -7   8 4029.75 1125.04
  -5   7  -8 2712.09  149.66
   5  -7   9   39.61   15.12
  -5   7  -9   16.27   17.18
  -5   7  -9   57.38   21.86
   5  -6  -7  213.53   28.91
   5  -6  -7  209.94   31.02
  -5   6   7  331.33   44.29
  -5   6   7  199.15   30.25
   5  -6  -6   42.10   18.40
   5  -6  -6   29.57   18.17
  -5   6   6  105.53   32.65
  -5   6   6  105.95   37.41
   5  -6  -5  144.65   23.67
   5  -6  -5  103.95   24.10
  -5   6   5  117.23   28.57
  -5   6   5  193.42   35.19
   5  -6  -4  244.02   28.90
   5  -6  -4  279.67   32.02
  -5   6   4  286.74   34.01
  -5   6   4  310.45   39.37
   5  -6  -3  210.03   26.60
   5  -6  -3  184.11   22.96
  -5   6   3  232.15   27.44
  -5   6   3  288.14   34.74
   5  -6  -2  319.22   31.32
   5  -6  -2  354.00   33.15
  -5   6   2  342.98   29.85
  -5   6   2  301.70   31.03
   5  -6  -1 3536.35  161.49
   5  -6  -1 3524.80  166.04
  -5   6   1 3714.23  166.09
  -5   6   1 3563.31  165.22
   5  -6   0  913.26   36.02
   5  -6   0  914.36   80.66
  -5   6   0  931.77   39.73
  -5   6   0  960.09   45.81
   5  -6   1  314.69   29.94
   5  -6   1  313.92   43.70
  -5   6  -1  276.08   51.62
  -5   6  -1  358.60   38.14
   5  -6   2   -1.74    9.41
  -5   6  -2   25.45   16.41
   5  -6   3 1765.12   53.19
  -5   6  -3 2061.60   71.03
   5  -6   4   64.23   18.83
  -5   6  -4   28.59   15.79
   5  -6   5  109.53   23.48
   5  -6   5  109.15   20.49
  -5   6  -5  109.15   24.41
   5  -6   6  123.26   26.93
   5  -6   6   74.91   15.98
  -5   6  -6   55.86   23.95
   5  -6   7 1374.43   68.19
   5  -6   7 1165.59   54.00
  -5   6  -7 1162.87   64.26
   5  -6   8  660.81   48.86
   5  -6   8  624.44   42.97
  -5   6  -8  638.64   52.53
  -5   6  -8  513.07   38.61
   5  -6   9 1007.39   64.12
   5  -6   9  843.00   52.44
  -5   6  -9  989.30   67.78
  -5   6  -9  883.31   57.22
   5  -6  10  143.89   19.37
  -5   6 -10  109.31   22.24
  -5   6 -10   97.31   19.00
   5  -5  -8    3.25   10.35
   5  -5  -8   62.36   19.81
  -5   5   8   13.95   11.11
   5  -5  -7   44.90   18.35
   5  -5  -7   51.75   21.58
  -5   5   7   36.41   15.68
  -5   5   7   61.82   23.95
   5  -5  -6 1752.05  104.11
   5  -5  -6 1942.52  116.95
  -5   5   6 1992.94  118.92
  -5   5   6 2049.87  124.89
   5  -5  -5  303.61   33.97
   5  -5  -5  326.52   38.27
  -5   5   5  412.05   45.09
  -5   5   5  402.70   45.87
   5  -5  -4   60.17   15.06
   5  -5  -4   34.13   13.99
  -5   5   4   79.77   21.92
  -5   5   4   75.74   27.72
   5  -5  -3   51.98   16.59
   5  -5  -3   97.05   26.81
  -5   5   3   32.91   15.01
  -5   5   3   38.22   20.67
   5  -5  -2   83.65   20.47
   5  -5  -2   69.10   18.08
  -5   5   2  116.68   24.65
  -5   5   2   97.08   26.73
   5  -5  -1 1507.16   80.08
   5  -5  -1 1502.55   80.19
  -5   5   1 1500.63   78.30
  -5   5   1 1486.51   83.04
   5  -5   0    1.44    9.18
   5  -5   0    3.97   12.67
  -5   5   0   15.18    7.49
  -5   5   0   58.94   25.81
   5  -5   1  632.88   35.36
   5  -5   1  506.40   50.08
   5  -5   1  668.85   60.96
  -5   5  -1  721.97   49.20
  -5   5  -1  479.94   60.82
   5  -5   2  486.93   49.64
  -5   5  -2  640.02   45.71
   5  -5   3  178.61   24.53
   5  -5   3  149.35   16.62
  -5   5  -3  242.18   34.71
   5  -5   4  439.29   32.92
   5  -5   4  346.81   36.39
  -5   5  -4  477.32   39.27
   5  -5   5 1147.91   42.22
   5  -5   5  953.20   29.07
  -5   5  -5  929.72   43.60
   5  -5   6   67.20   18.66
   5  -5   6   75.51   14.87
  -5   5  -6  101.38   22.49
   5  -5   7   89.62   24.27
   5  -5   7   16.13    9.34
  -5   5  -7   74.60   25.77
   5  -5   8 3014.37  133.30
   5  -5   8 2912.06  123.36
  -5   5  -8 2160.41   98.50
   5  -5   9   45.49   15.29
  -5   5  -9    6.06   14.57
  -5   5  -9   24.24   17.57
   5  -5  10  164.50   31.24
  -5   5 -10  180.62   40.20
  -5   5 -10  149.87   30.27
   5  -4  -9  387.69   46.20
   5  -4  -9  608.14   71.95
  -5   4   9  522.99   63.67
  -5   4   9  468.23   56.41
   5  -4  -8  954.26   64.47
  -5   4   8 1048.48   65.98
  -5   4   8 1141.74   75.97
   5  -4  -7  513.62   37.63
   5  -4  -7  589.71   47.70
  -5   4   7  505.35   97.31
  -5   4   7  548.84   43.70
   5  -4  -6  828.31   44.49
   5  -4  -6  671.22   67.67
  -5   4   6  866.64   46.28
  -5   4   6  888.33   51.54
   5  -4  -5  675.35   51.99
   5  -4  -5  644.69   51.45
  -5   4   5  669.21   49.82
  -5   4   5  530.95   42.67
   5  -4  -4   85.53   19.68
   5  -4  -4  134.95   29.20
  -5   4   4   80.19   18.47
  -5   4   4   97.53   23.28
   5  -4  -3 2924.93  145.53
   5  -4  -3 2835.48  143.35
  -5   4   3 2884.19  143.21
  -5   4   3 2990.74  152.58
   5  -4  -2   72.93   13.97
   5  -4  -2   64.32   10.62
   5  -4  -2   72.11   16.72
  -5   4   2   52.92   16.43
  -5   4   2   58.56   11.95
   5  -4  -1   23.87   10.63
   5  -4  -1    5.62    5.82
   5  -4  -1    2.25   11.77
  -5   4   1   18.96   14.30
  -5   4   1   45.26    9.81
   5  -4   0 1809.13   69.84
   5  -4   0 1592.62   55.64
   5  -4   0 1664.79   83.12
  -5   4   0 1862.17   73.22
  -5   4   0 1830.53   69.08
   5  -4   1   59.46   11.28
   5  -4   1   63.34    7.97
   5  -4   1  100.98   24.87
  -5   4  -1   81.39   25.93
  -5   4  -1   75.73   13.91
   5  -4   2 1793.06   68.09
   5  -4   2 1388.02   48.23
  -5   4  -2 1652.84   74.05
   5  -4   3  782.79   35.34
   5  -4   3  656.56   62.64
  -5   4  -3  823.30   50.59
   5  -4   4   29.25   10.77
   5  -4   4    7.76    3.97
  -5   4  -4   41.37   23.62
   5  -4   5  162.00   24.14
  -5   4  -5  199.57   30.38
   5  -4   6  115.32   26.59
   5  -4   6   63.99   13.61
  -5   4  -6  121.59   27.50
   5  -4   7 1122.43   60.49
   5  -4   7 1157.81   55.82
  -5   4  -7 1235.53   66.98
   5  -4   8 1663.31   80.08
   5  -4   8 1599.77   70.28
   5  -4   9 2406.59  143.65
   5  -4   9 2202.58  127.28
   5  -4  10   46.97   20.15
  -5   4 -10   50.47   23.03
  -5   4 -10   46.90   22.61
   5  -4  11  289.73   38.33
  -5   4 -11  202.84   35.03
  -5   4 -11  222.07   35.63
   5  -3  -9 1701.08  128.62
  -5   3   9 1810.69  135.15
  -5   3   9 1634.23  121.61
   5  -3  -8  172.67   26.13
   5  -3  -8  256.05   39.67
  -5   3   8  255.80   37.94
  -5   3   8  182.85   31.84
   5  -3  -7  890.83   44.40
   5  -3  -7 1024.61   59.44
  -5   3   7  956.08   49.93
  -5   3   7  924.51   52.72
   5  -3  -6   53.93   14.94
   5  -3  -6   64.55   25.79
  -5   3   6   30.52   16.14
  -5   3   6   45.75   18.97
  -5   3   5 2874.40   81.18
  -5   3   5 2786.68   74.62
   5  -3  -4 2473.02  106.03
   5  -3  -4 2355.23  102.86
  -5   3   4 2528.69  108.30
  -5   3   4 2295.79  101.62
   5  -3  -3  271.64   23.75
   5  -3  -3  235.35   18.68
   5  -3  -3  216.72   22.99
  -5   3   3  218.37   25.20
  -5   3   3  214.13   18.97
   5  -3  -2 8788.51  286.38
   5  -3  -2 7965.27  257.55
   5  -3  -2 8533.04  280.58
  -5   3   2 8898.14  293.66
  -5   3   2 8391.87  271.92
   5  -3  -1  692.11   34.90
   5  -3  -1  586.51   49.19
   5  -3  -1  670.45   35.46
  -5   3   1  621.04   44.83
  -5   3   1  614.95   37.20
   5  -3   0  221.16   23.71
   5  -3   0  216.05   37.35
  -5   3   0  203.55   28.13
  -5   3   0  164.28   23.92
   5  -3   1 1131.28   48.38
   5  -3   1 1170.03   73.28
   5  -3   1 1100.00   41.12
  -5   3  -1 1098.61   54.07
   5  -3   2  674.88   35.49
   5  -3   2  626.95   35.66
  -5   3  -2  675.44   39.87
   5  -3   3 1684.59   68.35
   5  -3   3 1454.65   52.22
   5  -3   3 1416.59   51.05
  -5   3  -3 1737.77   77.46
   5  -3   4   14.91   10.07
   5  -3   4   17.41    5.07
  -5   3  -4    4.18   13.57
   5  -3   5    8.96   10.96
   5  -3   5   11.18    4.78
   5  -3   5   18.99    5.03
  -5   3  -5   40.94   20.23
   5  -3   6  529.85   36.64
   5  -3   6  546.04   29.91
   5  -3   6  476.68   31.64
  -5   3  -6  476.02   32.35
   5  -3   7  176.99   22.66
   5  -3   7  113.49   19.71
  -5   3  -7  111.65   23.67
   5  -3   8  352.87   36.25
   5  -3   8  279.68   26.83
  -5   3  -8  328.11   36.56
   5  -3   9   67.59   25.34
   5  -3   9   28.01   10.38
  -5   3  -9    8.44   12.17
  -5   3  -9   52.75   18.63
   5  -3  10   13.30   12.31
  -5   3 -10   49.96   21.43
  -5   3 -10   47.60   23.61
   5  -3  11  127.35   21.08
  -5   3 -11   89.68   20.27
  -5   3 -11  135.44   22.69
   5  -2 -10   47.25   24.13
  -5   2  10   83.38   21.70
  -5   2  10  134.87   32.08
   5  -2  -9  556.57  151.28
  -5   2   9  598.67   53.87
  -5   2   9  544.38  148.70
   5  -2  -8  435.68   44.31
   5  -2  -8  628.67   70.42
  -5   2   8  491.88   50.12
  -5   2   8  469.95   51.56
   5  -2  -7   44.49   22.64
  -5   2   7   35.13   16.38
  -5   2   7   11.91   13.19
   5  -2  -6 3038.14   76.34
   5  -2  -6 3385.60   93.23
  -5   2   6 3196.98   83.35
  -5   2   6 3048.33   84.79
   5  -2  -5   16.07    6.56
   5  -2  -5   64.23   25.51
  -5   2   5    7.79    8.40
  -5   2   5   15.16   13.67
   5  -2  -4 1777.35   64.24
   5  -2  -4 1849.69   71.51
   5  -2  -4 1696.88   59.70
  -5   2   4 1536.99   54.82
  -5   2   4 1992.54   78.73
  -5   2   4 1721.23   63.18
   5  -2  -313713.10  742.91
   5  -2  -313271.49  721.09
   5  -2  -312905.85  698.44
  -5   2   310888.25  589.94
  -5   2   310964.93  596.28
  -5   2   313231.46  716.43
   5  -2  -2 3271.30  119.72
   5  -2  -2 3089.62  117.83
   5  -2  -2 2908.98  103.96
  -5   2   2 2987.61  108.91
  -5   2   2 2909.79  111.98
  -5   2   2 3024.71  108.89
   5  -2  -111732.91  233.03
   5  -2  -111421.58  221.98
   5  -2  -111924.68  241.32
  -5   2   112258.62  250.08
  -5   2   111078.69  215.97
   5  -2   0  131.77   16.40
   5  -2   0  138.95   11.25
   5  -2   0  182.13   30.68
  -5   2   0  124.58   16.97
  -5   2   0  125.47   18.99
   5  -2   1   58.13   10.64
   5  -2   1   91.73   15.04
  -5   2  -1   50.53   12.92
   5  -2   2 4661.18  102.25
  -5   2  -2 4383.82   99.39
   5  -2   3  836.18   38.77
  -5   2  -3  809.65   42.58
   5  -2   4 2856.21  100.56
  -5   2  -4 2863.82  106.07
   5  -2   5   38.54   13.64
   5  -2   5   45.21    5.75
   5  -2   5   42.18    7.04
  -5   2  -5   60.05   17.81
   5  -2   6   97.44   15.53
   5  -2   6   81.21   10.58
   5  -2   6   48.06   11.34
  -5   2  -6   67.98   13.30
   5  -2   7 1736.61   56.34
   5  -2   7 1580.66   41.84
   5  -2   8 2813.92  165.74
   5  -2   8 2586.31  149.03
   5  -2   9  417.60   46.26
   5  -2   9  488.90   47.84
  -5   2  -9  412.35   46.80
  -5   2  -9  436.89   48.03
   5  -2  10  550.92   40.17
  -5   2 -10  416.63   66.60
  -5   2 -10  472.19   76.91
   5  -2  11  728.33   81.39
  -5   2 -11  661.13   74.02
   5  -1 -10 1195.45   76.48
  -5   1  10 1285.96   78.16
  -5   1  10 1142.05   71.80
   5  -1  -9   -1.12   14.64
  -5   1   9   26.30   12.52
  -5   1   9   21.53   21.69
   5  -1  -8  120.51   22.05
   5  -1  -8  143.85   29.57
  -5   1   8  215.53   27.01
  -5   1   8  193.09   25.77
   5  -1  -7    4.77    5.16
   5  -1  -7   17.31   14.61
  -5   1   7   34.57   16.72
  -5   1   7    6.43   13.11
   5  -1  -6 1492.89   75.10
   5  -1  -6 1496.55   87.38
  -5   1   6 1457.42   73.12
  -5   1   6 1562.99   81.74
  -5   1   6 1441.95   79.12
   5  -1  -5  469.56   46.32
   5  -1  -5  527.43   38.54
  -5   1   5  462.20   46.27
  -5   1   5  474.15   48.04
  -5   1   5  527.03   35.59
   5  -1  -4  338.15   23.15
   5  -1  -4  379.38   31.23
   5  -1  -4  327.74   22.58
  -5   1   4  295.19   19.70
  -5   1   4  343.51   28.37
  -5   1   4  310.99   22.25
   5  -1  -3  574.91   49.06
   5  -1  -3  478.61   43.54
   5  -1  -3  575.32   48.34
  -5   1   3  566.89   48.09
  -5   1   3  552.33   51.73
  -5   1   3  536.66   46.30
   5  -1  -2 2956.86   65.95
   5  -1  -2 2904.73   72.31
   5  -1  -2 2931.86   61.28
  -5   1   2 2669.08   59.54
  -5   1   2 2755.45   71.76
  -5   1   2 2820.31   59.86
   5  -1  -1  418.07   33.75
   5  -1  -1  494.15   58.80
   5  -1  -1  420.38   29.76
  -5   1   1  431.00   33.40
  -5   1   1  430.73   38.87
  -5   1   1  434.22   31.48
   5  -1   0  702.73   47.33
   5  -1   0  749.18   82.88
  -5   1   0  752.66   57.21
  -5   1   0  648.19   43.57
   5  -1   1  100.25   13.69
   5  -1   1  125.14   28.19
  -5   1  -1  131.96   21.90
   5  -1   2   25.06    9.34
  -5   1  -2   57.87   17.34
   5  -1   3 5036.16  181.26
  -5   1  -3 4851.55  175.19
   5  -1   4   26.39   14.80
  -5   1  -4   61.73   14.42
   5  -1   5 3348.02  140.81
   5  -1   5 2736.76  109.95
   5  -1   5 3278.56  131.28
  -5   1  -5 3298.76  137.88
   5  -1   6  733.53   46.60
   5  -1   6  718.22   36.95
  -5   1  -6  660.08   43.17
   5  -1   7 1778.00   85.93
   5  -1   7 1758.41   79.67
  -5   1  -7 1572.28   77.31
   5  -1   8  240.32   29.24
   5  -1   8  221.27   22.04
  -5   1  -8  292.71   33.14
  -5   1  -8  237.10   30.44
   5  -1   9   16.86   12.33
  -5   1  -9   12.00    8.74
  -5   1  -9   23.56   13.50
   5  -1  10   71.98   26.98
  -5   1 -10   15.14   15.13
   5   0 -11   99.61   20.37
  -5   0  11   79.20   19.19
  -5   0  11   91.06   19.17
   5   0 -10   12.11   15.24
  -5   0  10   58.70   19.83
  -5   0  10   44.29   19.63
   5   0  -9  781.00  104.73
  -5   0   9  778.05  100.07
  -5   0   9  685.27   69.22
   5   0  -8 1199.58   81.95
  -5   0   8 1010.15   64.59
  -5   0   8  923.57   62.04
   5   0  -7  604.77   43.65
   5   0  -7  552.71   50.42
  -5   0   7  618.49   47.78
  -5   0   7  779.28   65.25
   5   0  -6 3578.94  144.68
  -5   0   6 3286.40  133.05
  -5   0   6 3637.92  153.92
  -5   0   6 3649.64  151.67
   5   0  -5   22.04    7.92
   5   0  -5   35.83   10.85
   5   0  -5   -8.81   13.26
  -5   0   5    6.62   13.00
  -5   0   5   37.00   11.94
   5   0  -4   41.69    8.54
   5   0  -4   14.77   13.06
   5   0  -4   24.28    5.58
  -5   0   4   18.56    4.36
  -5   0   4   56.31   15.74
  -5   0   4   40.26    9.30
   5   0  -3 1195.69   30.13
   5   0  -3 1119.49   42.38
   5   0  -3 1189.60   28.66
  -5   0   3 1242.25   31.98
  -5   0   3 1237.42   40.21
  -5   0   3 1154.51   29.68
   5   0  -2 1052.23   29.12
   5   0  -2  957.01   36.52
   5   0  -2 1073.58   24.53
  -5   0   2 1057.79   27.52
  -5   0   2 1151.99   39.61
  -5   0   2 1063.36   25.38
   5   0  -1 2055.54   40.77
  -5   0   1 1979.77   37.83
  -5   0   1 2021.43   51.23
  -5   0   1 1926.85   28.75
   5   0   0   36.07    9.13
   5   0   0   19.09   13.53
  -5   0   0   52.69   17.76
  -5   0   0   11.48    8.24
   5   0   1   16.70    8.01
   5   0   1   31.96   14.56
  -5   0  -1   26.83   11.79
   5   0   2 3009.99   70.78
  -5   0  -2 2746.53   65.70
   5   0   3  657.21   32.46
   5   0   3  671.25   29.63
  -5   0  -3  724.30   34.29
   5   0   4  966.62   42.09
   5   0   4  840.23   33.52
  -5   0  -4  880.66   37.65
   5   0   5   22.09   10.38
   5   0   5   43.56    5.84
   5   0   5   38.86    8.64
  -5   0  -5   42.17   16.48
   5   0   6  711.52   43.74
   5   0   6  601.54   31.39
   5   0   6  597.95   34.26
  -5   0  -6  602.47   35.42
   5   0   7  620.17   48.56
   5   0   7  616.79   42.92
  -5   0  -7  634.27   48.92
   5   0   8   34.27   12.42
   5   0   8    8.32    8.16
  -5   0  -8   31.03   12.99
  -5   0  -8   25.43   13.37
   5   0   9  104.72   30.80
  -5   0  -9  121.00   31.92
   5   0  10   41.30   21.43
  -5   0 -10    0.73   13.22
   5   1 -11   96.23   28.47
  -5  -1  11  144.23   30.23
  -5  -1  11  160.53   35.72
   5   1 -10  349.51   50.57
  -5  -1  10  335.89   46.13
  -5  -1  10  374.74   57.04
   5   1  -9  232.97   36.78
  -5  -1   9  217.62   29.48
  -5  -1   9  197.35   26.41
   5   1  -8 2476.74  122.21
  -5  -1   8 2301.11  107.48
  -5  -1   8 2454.86  115.92
   5   1  -7  298.08   21.42
   5   1  -7  272.36   28.42
  -5  -1   7  326.10   29.15
  -5  -1   7  301.31   29.35
   5   1  -6 2647.34  106.54
   5   1  -6 3275.39  140.84
  -5  -1   6 2968.17  119.28
  -5  -1   6 3139.97  131.39
  -5  -1   6 3091.98  131.93
   5   1  -5  402.53   24.05
   5   1  -5  388.86   25.20
   5   1  -5  475.02   36.38
  -5  -1   5  436.20   34.07
  -5  -1   5  383.56   26.62
   5   1  -4   43.27    7.35
   5   1  -4   46.10   12.76
  -5  -1   4   25.05    4.14
  -5  -1   4   54.41   13.71
  -5  -1   4   60.09   22.73
   5   1  -318052.46  348.83
   5   1  -319077.66 1530.20
  -5  -1   318580.89 1488.46
  -5  -1   317040.14  329.69
  -5  -1   319675.75 1578.08
   5   1  -2  996.58   26.09
   5   1  -2 1168.46   39.03
  -5  -1   2 1175.08   30.67
  -5  -1   2 1071.24   25.36
  -5  -1   2 1150.19   36.16
   5   1  -1 2781.03   62.26
   5   1  -1 2669.16   70.90
  -5  -1   1 2767.10   68.67
  -5  -1   1 2742.92   59.74
  -5  -1   1 2505.01   49.61
  -5  -1   1 2465.96   48.67
   5   1   0  142.71   16.38
   5   1   0  135.31   24.25
  -5  -1   0  133.48   18.87
  -5  -1   0  111.14   11.42
   5   1   1  305.50   26.01
   5   1   1  305.06   25.93
  -5  -1  -1  344.67   30.28
  -5  -1  -1  273.69   22.59
   5   1   2 3001.99   69.88
   5   1   2 2742.05   61.41
  -5  -1  -2 2977.08   69.69
   5   1   3 1912.12   76.41
   5   1   3 1801.74   68.23
  -5  -1  -3 1700.46   67.18
   5   1   4  467.41   33.20
   5   1   4  484.99   27.13
   5   1   4  496.12   31.45
  -5  -1  -4  500.02   32.11
   5   1   5  597.18   36.92
   5   1   5  642.58   32.82
   5   1   5  568.73   31.33
  -5  -1  -5  647.75   39.74
  -5  -1  -5  592.10   30.49
   5   1   6   39.84   14.76
   5   1   6   41.74    9.53
  -5  -1  -6   25.09   10.09
   5   1   7  736.36   65.00
   5   1   7  640.72   52.72
  -5  -1  -7  746.00   62.27
   5   1   8   37.29   13.58
   5   1   8   35.91   10.69
  -5  -1  -8   69.87   19.29
   5   1   9  459.87   75.19
  -5  -1  -9  562.26   43.28
   5   1  10  182.25   48.78
  -5  -1 -10  203.91   31.33
   5   2 -11 1404.48  107.03
  -5  -2  11 1889.44  138.89
  -5  -2  11 1994.26  147.19
   5   2 -10  834.36   76.96
  -5  -2  10  851.69   70.94
  -5  -2  10  761.31   67.59
   5   2  -9   63.90   21.48
  -5  -2   9  126.88   20.15
  -5  -2   9  106.63   19.14
   5   2  -8  848.31   53.23
  -5  -2   8  774.68   44.94
  -5  -2   8  717.86   55.05
   5   2  -7  462.41   44.75
  -5  -2   7  370.58   32.98
  -5  -2   7  391.26   37.74
   5   2  -6 2394.92  107.35
  -5  -2   6 2303.56   98.86
  -5  -2   6 2117.46   94.11
   5   2  -5  378.22   21.53
   5   2  -5  446.10   34.22
  -5  -2   5  356.47   20.51
  -5  -2   5  359.77   25.95
  -5  -2   5  346.01   31.15
   5   2  -4  632.79   35.87
   5   2  -4  626.43   41.55
  -5  -2   4  636.35   36.22
  -5  -2   4  640.18   27.82
  -5  -2   4  674.51   36.07
   5   2  -3 1164.83   43.89
   5   2  -3 1328.88   58.63
  -5  -2   3 1189.20   44.79
  -5  -2   3 1086.37   42.45
  -5  -2   3 1161.56   51.57
   5   2  -2   22.63    8.66
   5   2  -2   42.35   11.51
  -5  -2   2   20.96   11.06
  -5  -2   2   17.07    6.49
  -5  -2   2   22.32    5.05
  -5  -2   2   29.35    4.29
   5   2  -1 1461.23   38.05
   5   2  -1 1602.77  105.66
  -5  -2   1 1389.01   42.31
  -5  -2   1 1320.10   32.94
  -5  -2   1 1269.02   27.51
  -5  -2   1 1225.49   27.18
   5   2   0 5927.71  123.45
  -5  -2   0 4581.87   94.66
  -5  -2   0 5756.20  122.60
  -5  -2   0 5120.06   98.60
   5   2   1  833.48   38.83
  -5  -2  -1  827.07   37.43
   5   2   2   20.89    6.64
   5   2   2   53.10    9.56
  -5  -2  -2   80.73   17.85
   5   2   3 2814.34   99.53
   5   2   3 2665.30   90.07
  -5  -2  -3 2713.07   94.27
  -5  -2  -3 2617.32   84.70
   5   2   4   89.82   16.16
   5   2   4   75.66    8.92
  -5  -2  -4   58.59   12.24
  -5  -2  -4   47.23    6.36
   5   2   5  956.44   38.91
   5   2   5  871.64   25.98
   5   2   6  506.62   41.30
   5   2   6  455.10   33.07
  -5  -2  -6  456.16   33.85
   5   2   7   51.80   19.35
   5   2   7   59.65   10.29
  -5  -2  -7  108.88   21.86
   5   2   8  206.63   58.03
  -5  -2  -8  291.32   44.78
   5   2   9   29.82   14.23
  -5  -2  -9   35.16   17.49
   5   3 -11 1260.44   98.80
  -5  -3  11 1308.52  100.56
   5   3 -10  170.97   32.40
  -5  -3  10  165.65   28.55
  -5  -3  10  194.36   33.43
   5   3  -9  898.22   52.47
  -5  -3   9  896.61   50.16
  -5  -3   9  844.92   55.53
   5   3  -8   96.32   30.05
  -5  -3   8    8.80    9.85
   5   3  -7   25.61   15.62
  -5  -3   7   80.49   17.25
  -5  -3   7  162.64   34.74
   5   3  -6 1091.78   63.67
  -5  -3   6 1030.23   55.53
  -5  -3   6 1049.35   63.80
   5   3  -5  694.00   38.94
  -5  -3   5  642.95   32.00
  -5  -3   5  646.89   37.46
   5   3  -4  490.22   33.38
   5   3  -4  546.73   40.93
  -5  -3   4  528.86   30.29
  -5  -3   4  540.62   34.18
  -5  -3   4  548.02   40.23
   5   3  -3 9878.98  343.31
   5   3  -310039.57  354.07
  -5  -3   3 9968.95  351.94
  -5  -3   3 8140.81  283.03
  -5  -3   310387.85  361.85
  -5  -3   3 9197.70  321.56
   5   3  -2  735.84   30.60
   5   3  -2  771.78   55.93
  -5  -3   2  800.21   39.07
  -5  -3   2  713.87   28.78
  -5  -3   2  783.62   31.46
  -5  -3   2  624.01   50.45
   5   3  -1  339.72   35.56
   5   3  -1  339.94   47.09
  -5  -3   1  370.07   36.73
  -5  -3   1  339.72   28.79
  -5  -3   1  296.25   25.57
   5   3   0 7624.50  268.75
  -5  -3   0 6072.69  213.67
  -5  -3   0 7829.26  277.01
  -5  -3   0 6431.46  223.80
  -5  -3   0 6943.25  241.06
   5   3   1 4297.07  144.63
  -5  -3  -1 3578.99  140.86
  -5  -3  -1 4144.76  138.67
  -5  -3  -1 3698.89  119.68
   5   3   2 4285.60  145.25
  -5  -3  -2 3608.27  143.01
  -5  -3  -2 4268.14  142.37
  -5  -3  -2 3936.49  127.41
   5   3   3  314.01   34.96
   5   3   3  292.46   28.56
  -5  -3  -3  313.38   34.45
  -5  -3  -3  216.34   38.67
  -5  -3  -3  233.78   23.42
   5   3   4  127.73   33.32
   5   3   4  189.35   25.40
  -5  -3  -4  188.04   22.21
  -5  -3  -4  136.64   22.81
  -5  -3  -4  142.27   16.15
   5   3   5  168.45   27.41
   5   3   5  154.82   15.00
  -5  -3  -5  119.53   21.36
   5   3   6 2322.01  158.29
   5   3   6 2361.63  136.73
   5   3   7   71.88   21.03
  -5  -3  -7   52.94   19.89
   5   3   8   63.79   26.97
  -5  -3  -8   30.34   19.20
   5   3   9  159.75   50.61
  -5  -3  -9  267.75   37.91
   5   4 -11 1131.05   88.51
  -5  -4  11 1294.50   98.16
  -5  -4  11 1211.18   94.54
   5   4 -10  829.80   73.30
  -5  -4  10  887.33   74.26
  -5  -4  10  942.72   81.35
   5   4  -9  156.60   23.13
  -5  -4   9  172.29   29.48
  -5  -4   9  144.69   27.27
   5   4  -8 1274.18   83.14
  -5  -4   8 1382.21   84.21
  -5  -4   8 1110.53   74.07
   5   4  -7  756.10   46.56
  -5  -4   7  709.39   52.15
  -5  -4   7  775.18   44.62
   5   4  -6   46.75   17.77
  -5  -4   6    6.62    8.25
  -5  -4   6   59.33   19.71
   5   4  -5  848.15   44.17
  -5  -4   5  921.76   44.06
  -5  -4   5  987.81   53.54
   5   4  -4 3473.09  146.13
  -5  -4   4 3341.36  143.08
  -5  -4   4 2743.06  110.28
  -5  -4   4 3676.42  151.15
  -5  -4   4 2934.34  124.11
   5   4  -3 8173.03  289.82
  -5  -4   3 6324.49  208.53
  -5  -4   3 8223.51  263.81
  -5  -4   3 8364.76  269.69
  -5  -4   3 7562.58  245.61
   5   4  -2 2106.00   81.75
   5   4  -2 2140.61   85.63
  -5  -4   2 2344.95   85.28
  -5  -4   2 2192.47   73.99
  -5  -4   2 2177.28   73.50
  -5  -4   2 1971.71   67.36
   5   4  -1 1228.84   64.86
   5   4  -1 1336.09   54.02
  -5  -4   1 1379.24   53.14
  -5  -4   1 1223.09   44.56
  -5  -4   1 1344.33   46.54
  -5  -4   1 1313.44   47.06
   5   4   0 1260.69   69.15
  -5  -4   0 1284.76   51.25
  -5  -4   0 1269.80   45.01
   5   4   1 2248.53  109.61
  -5  -4  -1 1862.46   88.82
  -5  -4  -1 2322.93   98.45
  -5  -4  -1 2193.03   90.44
   5   4   2 2558.29  150.91
  -5  -4  -2 2321.01  120.12
  -5  -4  -2 2655.07  130.81
  -5  -4  -2 2474.16  120.58
   5   4   3  584.94   84.02
   5   4   3  424.56   41.88
  -5  -4  -3  504.98   38.55
  -5  -4  -3  325.58   40.36
  -5  -4  -3  444.89   33.42
   5   4   4  331.98   33.64
   5   4   4  278.99   44.80
  -5  -4  -4  332.96   25.67
   5   4   5   41.14   12.54
   5   4   5   51.71   11.99
   5   4   6 1966.01  150.81
   5   4   6 2036.48  117.60
  -5  -4  -6 2072.14  124.14
   5   4   7  777.42   84.11
  -5  -4  -7 1021.37   65.20
   5   4   8  312.70   90.56
  -5  -4  -8  371.75   47.08
   5   5 -11    5.17   12.29
  -5  -5  11    6.71   12.44
  -5  -5  11   33.30   15.82
  -5  -5  10  219.82   47.44
  -5  -5  10  212.83   37.99
   5   5  -9   26.52   16.73
  -5  -5   9   68.99   17.68
  -5  -5   9  120.49   28.14
   5   5  -8  838.15   49.55
  -5  -5   8  825.98   44.07
  -5  -5   8  816.24   46.06
   5   5  -7 1699.34  103.78
  -5  -5   7 1781.20  106.43
  -5  -5   7 1675.88   82.87
   5   5  -6  105.83   26.55
  -5  -5   6  127.88   26.05
  -5  -5   6  159.04   34.12
   5   5  -5  284.58   29.63
  -5  -5   5  266.27   24.83
  -5  -5   5  286.93   27.40
   5   5  -4   98.47   16.88
  -5  -5   4   64.12    7.95
  -5  -5   4   71.47   11.73
  -5  -5   4   94.74   17.59
   5   5  -3 1018.23  104.73
  -5  -5   3 1071.88   54.66
  -5  -5   3 1087.95   61.16
  -5  -5   3  883.78   46.12
  -5  -5   3 1123.29   58.18
  -5  -5   3  997.76   50.47
   5   5  -2 1198.73   56.98
  -5  -5   2 1108.03   48.92
  -5  -5   2 1284.75   61.78
  -5  -5   2 1121.92   50.65
  -5  -5   2 1214.87   52.96
  -5  -5   2 1121.86   49.90
  -5  -5   1 2281.70  115.03
  -5  -5   1 1856.91   92.35
   5   5   0 1010.63   55.18
  -5  -5   0 1040.40   54.53
   5   5   1   17.99    8.06
  -5  -5  -1   29.18   11.67
  -5  -5  -1   50.40   13.38
   5   5   2 1170.28   57.34
  -5  -5  -2 1078.21   31.43
   5   5   3 1667.44   97.16
   5   5   3 1546.69   85.84
   5   5   4   30.56   13.57
   5   5   4   23.66    7.90
   5   5   5   79.06   25.15
   5   5   5   73.96   14.07
  -5  -5  -5   44.50   15.30
  -5  -5  -6 2042.18  117.89
  -5  -5  -7  133.90   18.89
   5   6 -10   33.70   18.49
  -5  -6  10   31.47   19.39
  -5  -6  10    1.27   13.12
   5   6  -9  785.34   66.23
  -5  -6   9 1011.19   83.46
  -5  -6   9 1054.87   91.25
   5   6  -8   66.85   19.31
  -5  -6   8   80.26   25.51
  -5  -6   8  116.39   32.56
   5   6  -7  349.42   40.24
  -5  -6   7  380.09   40.50
  -5  -6   7  323.02   38.33
   5   6  -6 2584.22  152.57
  -5  -6   6 2671.67  156.17
  -5  -6   6 2751.45  163.59
   5   6  -5  298.56   54.91
  -5  -6   5  292.62   26.14
  -5  -6   5  327.29   31.86
   5   6  -4 5728.17  935.22
  -5  -6   4 5194.27  225.75
  -5  -6   4 4951.82  217.87
  -5  -6   4 6125.99  996.37
   5   6  -3 1600.36  119.65
  -5  -6   3 1598.90   41.69
  -5  -6   3 1809.01   50.05
  -5  -6   3 1850.37   56.32
  -5  -6   2  249.60   21.58
  -5  -6   2  262.04   25.92
  -5  -6   1  286.96   24.62
  -5  -6   1  256.34   23.15
  -5  -6   0  378.81   30.25
  -5  -6   0  380.97   30.94
  -5  -6  -1 2017.62  119.09
  -5  -6  -1 2091.79  121.81
  -5  -6  -2  232.39   26.10
   5   6   3   38.05   11.49
  -5  -6  -3   18.16    9.51
  -5  -6  -4  479.36   62.24
  -5  -6  -4  891.13   75.37
  -5  -6  -5  146.05   29.06
  -5  -6  -5  157.22   30.14
  -5  -6  -6  221.05   31.71
   5   7 -10  564.65   64.37
  -5  -7  10  642.28   72.24
  -5  -7  10  708.21   82.48
   5   7  -9  191.33   36.66
  -5  -7   9  226.53   40.42
  -5  -7   9  236.40   45.03
   5   7  -8 3038.49  234.89
  -5  -7   8 3357.48  259.56
  -5  -7   8 3159.55  246.21
   5   7  -7  154.96   22.38
  -5  -7   7  210.09   29.12
  -5  -7   7  236.38   33.26
   5   7  -6   81.51   15.09
  -5  -7   6   90.14   17.45
  -5  -7   6  120.88   21.82
   5   7  -5 1045.93   57.19
  -5  -7   5 1091.83   53.95
  -5  -7   5 1169.46   59.58
   5   7  -4  904.08   57.30
  -5  -7   4  792.29   63.84
  -5  -7   4 1020.21   65.39
  -5  -7   4  912.73   59.84
  -5  -7   3  151.78   27.64
  -5  -7   3  243.88   29.38
  -5  -7   2  123.53   25.09
  -5  -7   1  644.44   61.59
  -5  -7   1  661.47   63.91
  -5  -7   0 1737.81   77.85
  -5  -7   0 1835.99   80.65
  -5  -7  -1    7.10    8.88
  -5  -7  -1   58.59   12.33
  -5  -7  -2  540.18  145.81
   5   7   3  130.78   46.03
  -5  -7  -3  327.72   54.96
  -5  -7  -3  221.91   39.00
  -5  -7  -4   82.02   18.08
  -5  -7  -4   77.47   26.02
  -5  -8   9 2046.08  211.56
  -5  -8   9 2416.59  248.01
  -5  -8   8  244.76   45.53
  -5  -8   8  270.35   49.91
  -5  -8   7 1098.37   71.52
  -5  -8   7 1123.90   68.94
  -5  -8   6   -3.92   12.45
  -5  -8   6    8.13    9.75
   5   8  -5   24.32   13.06
  -5  -8   5   41.11   18.57
  -5  -8   5   42.64   17.30
  -5  -8   4  746.12   65.65
  -5  -8   4  723.51   61.50
  -5  -8   3   20.86   10.59
  -5  -8   3   25.43   14.01
  -5  -8   2    5.16    6.73
  -5  -8   0  260.70   37.85
  -5  -8  -1 2323.65  129.80
  -5  -8  -2  126.00   26.35
  -5  -8  -2   78.97   26.31
  -5  -8  -3  222.58   33.02
  -5  -9   7   64.67   19.94
  -5  -9   7   34.59   16.15
  -5  -9   6  667.38   76.05
  -5  -9   5  151.85   29.68
  -5  -9   5  187.42   33.35
  -5  -9   4 1053.71   81.81
  -5  -9   3   77.96   25.88
  -5  -9   2   21.83   10.49
  -5  -9   1  778.67   59.97
  -5  -9   0  360.39   43.26
   6  -8  -1   36.92   13.46
   6  -8  -1   26.26    9.80
  -6   8   1   14.57    4.12
  -6   8   1    9.62   15.40
   6  -8   0  246.78   44.47
   6  -8   0   87.83   35.60
  -6   8   0  126.80   53.64
  -6   8   0  270.83   55.10
   6  -8   1 1286.73   98.18
  -6   8  -1 1313.48  103.01
   6  -8   2  217.47   40.72
  -6   8  -2  225.54   46.22
   6  -8   3  138.61   29.03
  -6   8  -3  200.35   45.40
   6  -8   4    9.24   11.34
  -6   8  -4   31.79   27.71
   6  -8   5  595.83   51.59
  -6   8  -5  460.33   50.61
   6  -8   6   97.00   20.55
  -6   8  -6   42.98   19.60
   6  -7  -3  606.11   56.14
   6  -7  -3  524.34   46.44
  -6   7   3  504.41   44.23
  -6   7   3  605.41   57.91
   6  -7  -2   57.21   21.88
   6  -7  -2   49.93   21.40
  -6   7   2   59.58   21.37
  -6   7   2   63.21   28.02
   6  -7  -1   22.46   12.39
  -6   7   1    0.83   18.59
  -6   7   1   29.77    9.60
   6  -7   0  865.66   75.94
   6  -7   0  692.03   81.39
  -6   7   0  917.28   82.46
   6  -7   1  478.19   62.86
   6  -7   1  447.21   61.44
  -6   7  -1  568.11   54.46
   6  -7   2  414.94   54.71
  -6   7  -2  415.14   60.15
   6  -7   3  249.76   38.20
  -6   7  -3  201.89   34.03
   6  -7   4  126.58   39.37
  -6   7  -4  115.04   34.23
   6  -7   5   13.58   11.94
  -6   7  -5   88.92   34.16
   6  -7   6  444.04   72.85
  -6   7  -6  319.38   55.98
   6  -7   7   11.31   12.20
  -6   7  -7   29.50   18.79
   6  -6  -5  358.03   41.96
   6  -6  -5  346.57   47.29
  -6   6   5  371.60   46.56
  -6   6   5  348.81   45.15
   6  -6  -4 1219.59   74.32
   6  -6  -4 1356.54   81.81
  -6   6   4 1393.69   83.73
  -6   6   4 1113.05   71.95
   6  -6  -3  925.68   77.07
   6  -6  -3  953.05   81.76
  -6   6   3  931.85   77.94
  -6   6   3  910.54   81.31
   6  -6  -2   42.29   16.87
   6  -6  -2   46.09   18.15
  -6   6   2   55.83   17.89
  -6   6   2   54.23   23.09
   6  -6  -1  501.88   96.89
   6  -6  -1  361.03   80.34
  -6   6   1  364.24   53.02
  -6   6   1  481.27   53.06
   6  -6   0  198.96   27.48
   6  -6   0  194.51   45.90
  -6   6   0  124.55   37.13
  -6   6   0  209.78   34.41
   6  -6   1   30.70   11.40
   6  -6   1   10.77   11.87
  -6   6  -1  -10.88   18.05
   6  -6   2  861.43   46.65
  -6   6  -2 1023.20   63.63
   6  -6   3   14.40   14.96
  -6   6  -3    5.45   15.53
   6  -6   4  600.10   61.71
  -6   6  -4  675.98   70.69
   6  -6   5  431.13   45.89
  -6   6  -5  589.78   53.72
   6  -6   6   35.75   21.41
  -6   6  -6   78.22   26.47
   6  -6   7  180.10   35.70
  -6   6  -7  112.27   37.05
   6  -6   8  166.04   34.03
  -6   6  -8  216.74   44.34
   6  -5  -6   14.07   12.16
   6  -5  -6   -6.55   18.71
  -6   5   6   37.45   17.83
  -6   5   6   88.91   29.38
   6  -5  -5  563.95   41.73
   6  -5  -5  529.91   39.27
  -6   5   5  532.76   40.95
  -6   5   5  565.43   45.37
   6  -5  -4  129.59   22.85
   6  -5  -4  127.01   25.09
  -6   5   4   85.34   18.79
  -6   5   4  120.37   23.96
   6  -5  -3  340.85   37.99
   6  -5  -3  336.70   38.20
  -6   5   3  336.88   37.13
  -6   5   3  375.36   45.70
   6  -5  -2  690.04   61.01
   6  -5  -2  728.06   65.09
  -6   5   2  649.11   55.67
  -6   5   2  764.08   70.11
   6  -5  -1  256.39   29.36
   6  -5  -1  287.56   45.55
  -6   5   1  262.93   45.74
  -6   5   1  351.63   37.80
   6  -5   0  581.10   45.65
   6  -5   0  556.12   52.35
  -6   5   0  541.67   43.04
  -6   5   0  531.27   46.29
   6  -5   1   55.48   17.90
   6  -5   1   76.99   19.25
  -6   5  -1   26.16   15.02
   6  -5   2   54.29   17.34
  -6   5  -2   47.68   17.69
   6  -5   3  734.56   64.65
  -6   5  -3  833.30   70.98
   6  -5   4   16.33   12.21
   6  -5   4    5.81    5.24
  -6   5  -4    6.44   15.46
   6  -5   5  430.47   47.56
  -6   5  -5  387.58   44.52
   6  -5   6  131.10   23.61
  -6   5  -6   87.16   18.94
   6  -5   7  -12.29   12.11
  -6   5  -7  -15.05   16.39
   6  -5   8  105.66   34.36
  -6   5  -8   67.10   25.28
   6  -5   9  157.06   22.83
  -6   5  -9  164.83   27.22
  -6   5  -9  171.38   21.08
   6  -4  -7  220.20   39.16
   6  -4  -7  198.57   40.30
  -6   4   7  241.05   44.83
  -6   4   7  230.92   44.30
   6  -4  -6 1487.66  117.66
   6  -4  -6 1556.33  126.87
  -6   4   6 1620.55  128.48
  -6   4   6 1623.34  131.28
   6  -4  -5  587.92   42.66
   6  -4  -5  714.83   54.24
  -6   4   5  509.82   97.52
  -6   4   5  578.31   46.16
   6  -4  -4 3916.03  165.62
   6  -4  -4 3889.89  167.60
  -6   4   4 3846.69  164.52
  -6   4   4 4001.78  172.82
   6  -4  -3    5.14   13.29
   6  -4  -3    8.27   12.55
  -6   4   3   24.67    9.20
  -6   4   3   33.76   24.32
   6  -4  -2 3062.02  139.65
   6  -4  -2 3222.65  148.85
  -6   4   2 3065.48  138.10
  -6   4   2 2940.06  137.49
  -6   4   1 6340.14  158.69
  -6   4   1 5788.39  133.38
   6  -4   0 1970.43   59.65
   6  -4   0 1883.22   95.53
  -6   4   0 1865.94   60.04
  -6   4   0 1811.24   65.53
   6  -4   1 8944.48  209.22
   6  -4   1 8235.99  196.43
  -6   4  -1 8293.09  198.92
   6  -4   2  182.51   35.68
  -6   4  -2  167.41   37.39
   6  -4   3   26.32   11.67
   6  -4   3   16.38    5.56
  -6   4  -3   34.51   16.03
   6  -4   4 1469.12   73.45
  -6   4  -4 1492.76   81.40
   6  -4   5  219.99   27.95
  -6   4  -5  269.83   31.62
   6  -4   6  379.33   41.20
  -6   4  -6  324.98   39.65
   6  -4   7   30.69   18.67
  -6   4  -7    5.66   13.72
   6  -4   8   15.16   17.68
  -6   4  -8   -0.20   14.01
   6  -4   9  445.33   43.70
  -6   4  -9  418.70   41.14
  -6   4  -9  355.07   37.06
   6  -3  -8  484.24   45.03
  -6   3   8  452.59   42.16
  -6   3   8  519.44   50.64
   6  -3  -7  198.08   29.16
   6  -3  -7  197.02   33.11
  -6   3   7  226.76   35.72
  -6   3   7  204.17   33.33
   6  -3  -6   36.26   14.82
  -6   3   6   37.31   12.35
  -6   3   6   13.65   14.08
   6  -3  -5  149.07   15.80
   6  -3  -5  195.15   32.78
  -6   3   5  148.97   16.10
  -6   3   5  173.18   27.75
   6  -3  -4  853.16   47.82
   6  -3  -4  905.21   53.02
  -6   3   4  745.41  123.19
  -6   3   4  946.30   59.58
   6  -3  -3   19.61   13.41
  -6   3   3   24.67    9.86
  -6   3   3    3.40   14.52
   6  -3  -2   77.90   16.51
   6  -3  -2   93.01   20.71
  -6   3   2  119.42   23.48
  -6   3   2   90.05   23.76
   6  -3  -1  725.78   41.67
   6  -3  -1  770.78   69.05
  -6   3   1  713.69   37.86
  -6   3   1  903.39   58.97
   6  -3   0 4399.82  215.76
   6  -3   0 4068.84  213.95
  -6   3   0 4049.95  195.66
  -6   3   0 4188.25  210.44
   6  -3   1  192.41   26.35
   6  -3   1  155.07   29.48
   6  -3   1  136.05   14.23
  -6   3  -1  214.84   34.38
   6  -3   2 3339.82  166.41
  -6   3  -2 2952.93  148.69
   6  -3   3   51.43   16.40
  -6   3  -3  108.74   26.56
   6  -3   4   36.72   19.26
  -6   3  -4   51.95   21.42
   6  -3   5 2475.42  116.64
   6  -3   6   26.20   13.52
  -6   3  -6   88.91   25.23
   6  -3   7 1143.47   74.35
  -6   3  -7 1213.55   82.06
   6  -3   8  104.42   28.16
  -6   3  -8   54.98   17.94
   6  -3   9  424.10   39.04
  -6   3  -9  388.41   45.93
  -6   3  -9  278.32   51.44
   6  -2  -9   62.05   25.82
  -6   2   9   62.28   22.08
  -6   2   9   83.98   20.79
   6  -2  -8   81.96   30.18
  -6   2   8   89.33   29.94
  -6   2   8  136.21   29.18
   6  -2  -7  281.32   29.85
   6  -2  -7  394.11   49.09
  -6   2   7  280.51   34.29
  -6   2   7  377.33   46.32
   6  -2  -6  230.62   26.15
   6  -2  -6  302.33   37.43
  -6   2   6  187.87   29.19
   6  -2  -5    4.47    5.80
   6  -2  -5   46.34   21.31
  -6   2   5   37.89   16.29
  -6   2   5   41.93   21.85
   6  -2  -4 1209.23   38.22
   6  -2  -4 1049.13   42.02
  -6   2   4 1081.16   35.06
  -6   2   4 1169.84   47.74
   6  -2  -3  673.65   50.37
   6  -2  -3  657.11   53.71
  -6   2   3  658.01   48.82
  -6   2   3  785.63  125.01
   6  -2  -2 3044.63  151.22
   6  -2  -2 2092.51  102.10
   6  -2  -2 2696.92  137.62
  -6   2   2 3114.78  160.86
  -6   2   2 2805.30  136.65
   6  -2  -1 1261.67   58.88
   6  -2  -1 1190.48   49.29
   6  -2  -1 1296.20  110.63
  -6   2   1 1157.90   62.15
  -6   2   1 1141.40   47.98
   6  -2   0 1828.00   80.70
   6  -2   0 1663.94   98.35
  -6   2   0 1855.77   90.72
   6  -2   1 4498.85  185.77
   6  -2   1 4304.23  181.45
  -6   2  -1 4214.25  177.50
   6  -2   2   12.47    9.05
  -6   2  -2   -0.34   13.86
   6  -2   3   21.46   10.35
  -6   2  -3   42.49   12.90
   6  -2   4  963.25   37.37
  -6   2  -4  956.36   44.21
   6  -2   5   66.96   17.72
  -6   2  -5   70.87   24.81
   6  -2   6 1244.44   81.58
  -6   2  -6 1188.95   77.42
   6  -2   7   28.87   13.11
  -6   2  -7   35.50   17.12
   6  -2   8 1231.69  101.82
  -6   2  -8 1104.50   92.69
   6  -2   9  187.08   36.04
  -6   2  -9  212.85   40.90
  -6   2  -9  176.66   34.24
   6  -1  -9  340.15   62.56
  -6   1   9  233.73   42.57
  -6   1   9  257.35   48.45
   6  -1  -8  366.02   55.03
  -6   1   8  362.17   49.88
  -6   1   8  305.21   46.66
   6  -1  -7   80.66   22.31
  -6   1   7   72.16   16.39
  -6   1   7   70.85   15.54
   6  -1  -6 1494.41   87.51
   6  -1  -6 1659.22  104.98
  -6   1   6 1623.21   98.14
  -6   1   6 1604.85  102.93
   6  -1  -5 1102.79   52.30
   6  -1  -5 1182.07   62.78
  -6   1   5 1098.54   53.44
  -6   1   5 1015.99   58.63
   6  -1  -4 3044.86   74.81
   6  -1  -4 2486.97   60.88
   6  -1  -4 2877.98   79.42
  -6   1   4 2981.09   85.21
  -6   1   4 2988.89   73.92
   6  -1  -3 1339.09   69.29
   6  -1  -3  982.55   49.56
   6  -1  -3 1201.06   68.65
  -6   1   3 1295.96   77.49
  -6   1   3 1242.24   63.08
   6  -1  -2  328.99   34.55
   6  -1  -2  306.91   41.56
  -6   1   2  276.45   27.42
  -6   1   2  451.99   56.71
   6  -1  -112320.55 1172.62
   6  -1  -1 6996.30  285.99
  -6   1   110362.00  984.61
  -6   1   111745.61 1119.62
   6  -1   0   20.59   13.95
   6  -1   0   18.79   11.87
  -6   1   0   62.28   23.11
   6  -1   1  101.87   16.30
   6  -1   1   90.07   18.82
  -6   1  -1  120.37   22.37
   6  -1   2  371.16   39.23
  -6   1  -2  479.02   53.48
   6  -1   3   13.94   12.86
  -6   1  -3   59.49   23.80
   6  -1   4  437.99   38.98
  -6   1  -4  477.97   41.46
   6  -1   5 1333.46   69.45
  -6   1  -5 1197.30   62.00
   6  -1   6  309.41   32.15
  -6   1  -6  361.52   37.14
   6  -1   7  398.97   46.68
  -6   1  -7  350.47   40.97
   6  -1   8   25.68   13.66
  -6   1  -8   16.62   14.45
   6  -1   9  170.01   34.19
  -6   1  -9  143.51   30.74
   6   0 -10 1020.96  113.19
  -6   0  10 1008.80  109.05
  -6   0  10  906.05   99.47
   6   0  -9 1135.27   72.54
  -6   0   9 1175.00   71.49
  -6   0   9 1322.11   84.37
   6   0  -8  431.41   49.19
  -6   0   8  467.85   49.40
  -6   0   8  512.63   42.66
   6   0  -7  189.04   25.57
  -6   0   7  200.47   27.39
  -6   0   7  237.78   33.45
   6   0  -6 1204.46   55.53
   6   0  -6 1223.78   69.00
  -6   0   6 1208.91   58.82
  -6   0   6 1186.93   62.04
   6   0  -5 1273.64   34.85
   6   0  -5 1238.97   50.43
  -6   0   5 1319.57   39.26
  -6   0   5 1118.96   43.37
   6   0  -4  123.14   15.36
   6   0  -4  145.27   23.90
  -6   0   4  122.70   15.14
  -6   0   4  118.49   14.63
  -6   0   4  231.81   35.25
   6   0  -3 2494.59  103.54
   6   0  -3 2086.73   96.52
  -6   0   3 2357.31   98.12
  -6   0   3 2330.91   96.04
  -6   0   3 2485.28  110.04
   6   0  -2 1071.48   48.61
   6   0  -2  813.86   92.21
  -6   0   2  947.32   42.84
  -6   0   2 1038.27   43.25
  -6   0   2 1093.96   58.00
   6   0  -1  416.11   42.24
   6   0  -1  380.88   78.87
  -6   0   1  548.38   35.15
   6   0   0  605.63   32.82
   6   0   0  437.00   63.01
  -6   0   0  484.62   51.88
   6   0   1   12.16    9.37
  -6   0  -1   11.97   13.48
   6   0   2 3793.16  158.25
  -6   0  -2 3434.50  147.03
   6   0   3  119.30   19.62
  -6   0  -3  209.25   28.72
   6   0   4   22.73   11.30
  -6   0  -4    4.41    8.73
   6   0   5 1445.08   72.71
  -6   0  -5 1410.39   72.26
   6   0   6  375.58   39.38
  -6   0  -6  423.95   42.42
   6   0   7   62.26   17.30
  -6   0  -7   26.45   12.93
   6   0   8  784.60   53.66
   6   0   9   13.38   10.95
  -6   0  -9   13.34   12.49
   6   1 -10  555.34   69.63
  -6  -1  10  511.51   59.56
  -6  -1  10  635.00   72.88
   6   1  -9 1673.03  101.40
  -6  -1   9 1618.40   94.12
  -6  -1   9 1541.08   94.24
   6   1  -8  704.88   50.53
  -6  -1   8  602.29   44.98
  -6  -1   8  787.27   56.21
   6   1  -7  867.89   68.66
  -6  -1   7  861.44   55.48
  -6  -1   7  851.46   60.07
   6   1  -6   45.57   17.15
  -6  -1   6   14.78   12.96
  -6  -1   6   52.62   21.87
   6   1  -5  426.36   31.49
   6   1  -5  502.35   45.87
  -6  -1   5  390.69   40.17
  -6  -1   5  429.56   41.97
   6   1  -4  992.21   50.70
   6   1  -4 1001.22   60.59
  -6  -1   4  971.60   50.00
  -6  -1   4 1042.73   53.61
  -6  -1   4 1023.17   61.21
   6   1  -3 2575.60  106.29
   6   1  -3 2454.89  107.79
  -6  -1   3 2456.65  101.38
  -6  -1   3 2359.92   96.77
  -6  -1   3 2709.95  120.32
   6   1  -2   60.16   10.72
   6   1  -2   75.24   18.86
  -6  -1   2   80.40   19.26
  -6  -1   2   70.94    8.60
  -6  -1   2   49.48   10.30
   6   1  -1 6052.22  245.17
   6   1  -1 4786.01  214.13
  -6  -1   1 5893.51  242.42
   6   1   0  710.75   36.56
   6   1   0  802.41   99.15
  -6  -1   0  794.79   42.03
   6   1   1   50.84   12.34
  -6  -1  -1  106.74   22.28
   6   1   2 1741.44   90.58
  -6  -1  -2 1667.87   87.88
   6   1   3 2370.28   68.16
  -6  -1  -3 2275.45   64.20
   6   1   4 2185.43  103.97
  -6  -1  -4 2072.02   96.32
   6   1   5   25.49   13.16
  -6  -1  -5   39.53   17.19
   6   1   6  987.84   51.90
  -6  -1  -6 1093.40   54.16
   6   1   7   57.06   19.67
   6   1   8 1260.76   96.11
  -6  -1  -8 1360.81  104.62
   6   2 -10   66.38   24.23
  -6  -2  10   53.83   23.88
  -6  -2  10   51.20   25.44
   6   2  -9 2555.92  148.10
  -6  -2   9 2348.60  131.78
  -6  -2   9 2284.08  130.34
   6   2  -8 2073.12  127.11
  -6  -2   8 1860.81  110.52
  -6  -2   8 1635.21  101.01
   6   2  -7  271.62   39.11
  -6  -2   7  191.38   22.66
  -6  -2   7  207.33   28.03
   6   2  -6 1750.21   87.97
  -6  -2   6 1685.75   79.44
  -6  -2   6 1662.99   83.28
   6   2  -5   61.38   11.60
   6   2  -5   58.47   16.88
  -6  -2   5   68.08   15.29
  -6  -2   5  155.01   35.73
   6   2  -4   12.84    4.25
   6   2  -4    6.84   21.35
  -6  -2   4   23.15    9.01
  -6  -2   4   15.24    8.56
  -6  -2   4   20.21   13.23
   6   2  -3 1788.50   88.81
   6   2  -3 1792.02   95.94
  -6  -2   3 1635.84   81.09
  -6  -2   3 1769.81   87.22
  -6  -2   3 1814.71   96.83
   6   2  -2  875.69   40.26
   6   2  -2  814.81   54.57
  -6  -2   2  829.31   45.24
  -6  -2   2  776.25   36.49
  -6  -2   2  838.47   35.67
  -6  -2   2  704.15   30.20
   6   2  -1 5897.73  238.85
   6   2  -1 5725.04  246.54
  -6  -2   1 6257.05  257.61
   6   2   0   18.96   12.33
   6   2   0   33.91   18.41
  -6  -2   0   23.73   18.64
   6   2   1   29.91   12.81
  -6  -2  -1   50.73   19.05
   6   2   2 2909.52   78.10
  -6  -2  -2 2732.62   73.81
   6   2   3 1597.48   51.07
  -6  -2  -3 1491.79   46.78
   6   2   4 2630.36  122.87
  -6  -2  -4 2528.22  116.22
   6   2   5  741.95   73.67
   6   2   6  143.03   24.08
   6   2   7   20.88   12.96
   6   2   8  547.68   68.44
  -6  -2  -8  607.48   68.75
   6   3 -10  771.04   86.88
  -6  -3  10  691.27   75.43
   6   3  -9   16.77   16.23
  -6  -3   9   82.93   30.99
  -6  -3   9  120.84   34.14
   6   3  -8  537.93   43.36
  -6  -3   8  471.93   49.98
  -6  -3   8  464.03   51.30
   6   3  -7  677.89   70.47
  -6  -3   7  653.73   65.42
  -6  -3   7  673.67   69.11
   6   3  -6  818.96   62.22
  -6  -3   6  814.61   57.13
  -6  -3   6  892.72   62.18
   6   3  -5 1636.99   82.61
  -6  -3   5 1518.23   70.58
  -6  -3   5 1521.34   77.96
   6   3  -4  635.73   46.65
   6   3  -4  754.76   61.16
  -6  -3   4  667.34   49.05
  -6  -3   4  661.95   54.19
   6   3  -3   16.97    6.94
   6   3  -3   24.47   17.80
  -6  -3   3   54.91   14.16
  -6  -3   3    6.49    4.86
  -6  -3   3   14.46    7.07
  -6  -3   3    6.50    4.03
   6   3  -2   47.70    7.64
   6   3  -2   54.71   14.21
  -6  -3   2   69.56   13.60
  -6  -3   2   39.35    6.56
  -6  -3   2   48.21    7.15
  -6  -3   2   43.49    7.20
   6   3  -1   32.97   10.18
   6   3  -1   28.93   13.18
  -6  -3   1   39.84   13.35
  -6  -3   1   15.23    4.41
  -6  -3   1   13.43    4.41
   6   3   0 3182.61  163.98
  -6  -3   0 3471.45  172.21
   6   3   1 2985.69   79.50
  -6  -3  -1 2772.56   74.47
   6   3   2 2044.27   60.31
  -6  -3  -2 2340.35   64.87
   6   3   3  210.35   22.47
  -6  -3  -3  157.18   20.03
   6   3   4 2804.01  138.18
  -6  -3  -4 2647.41  113.14
   6   3   5 1395.18  100.55
   6   3   6  279.74   71.59
   6   3   7  109.26   28.36
  -6  -3  -7  146.54   28.66
   6   4 -10  743.07   85.26
  -6  -4  10  530.26   60.76
  -6  -4  10  708.90   83.00
   6   4  -9 1924.26  111.90
  -6  -4   9 1918.37  110.37
  -6  -4   9 1759.10  106.60
   6   4  -8   58.77   18.75
  -6  -4   8   32.99   12.56
  -6  -4   8   87.74   23.62
   6   4  -7  321.52   37.57
  -6  -4   7  297.63   33.36
  -6  -4   7  307.89   38.76
   6   4  -6  105.83   27.26
  -6  -4   6   52.57   13.97
  -6  -4   6   56.19   20.91
   6   4  -5  490.44   40.27
  -6  -4   5  525.56   39.49
  -6  -4   5  494.46   44.39
   6   4  -4 1845.56   96.39
  -6  -4   4 1658.07   73.74
  -6  -4   4 2095.62   95.17
  -6  -4   4 2076.59   99.59
   6   4  -3    5.27    4.01
   6   4  -3   50.24   13.77
  -6  -4   3   20.63    9.50
  -6  -4   3   21.51   13.66
   6   4  -2 1992.29  111.57
   6   4  -1 1454.96   64.05
  -6  -4   1 1562.30   47.81
  -6  -4   1 1392.91   34.64
   6   4   0   31.60   13.15
  -6  -4   0   45.92   13.98
  -6  -4   0   35.01    7.16
   6   4   1   62.70   17.67
  -6  -4  -1   27.11   11.98
  -6  -4  -1   36.50    7.00
   6   4   2   41.26   14.14
  -6  -4  -2   24.80    8.94
   6   4   3   22.43    8.72
   6   4   4  273.02   53.57
   6   4   5    3.51   10.86
   6   4   6  532.90   61.08
  -6  -4  -6  637.28   54.62
   6   5  -9  982.12   78.47
  -6  -5   9 1032.57   78.77
  -6  -5   9  977.59   79.64
   6   5  -8  678.45   62.27
  -6  -5   8  673.85   62.68
   6   5  -7  234.55   30.16
  -6  -5   7  216.22   25.46
  -6  -5   7  225.92   32.41
   6   5  -6 2304.59  103.59
  -6  -5   6 2412.74  104.57
  -6  -5   6 2402.40  109.64
   6   5  -5  130.76   26.09
  -6  -5   5  154.28   17.59
  -6  -5   5  204.29   31.78
   6   5  -4  105.55   26.59
  -6  -5   4   92.61   19.07
  -6  -5   4   87.97   22.09
   6   5  -3 2234.71  137.07
  -6  -5   3 2452.71  140.97
  -6  -5   3 2322.38  133.95
  -6  -5   3 2324.08  137.96
  -6  -5   2  151.63   26.89
  -6  -5   2  202.28   24.98
   6   5  -1 1672.98   98.56
  -6  -5   1 1874.52  113.20
  -6  -5   1 1708.07   98.71
   6   5   0  458.12   62.99
  -6  -5   0  630.49   56.09
   6   5   1  897.68   72.56
  -6  -5  -1 1068.82   52.30
   6   5   2  337.16   77.84
  -6  -5  -2  392.66   41.94
   6   5   3  141.80   40.24
   6   5   4  128.76   48.00
   6   5   5   51.65   30.74
   6   6  -9   12.45   11.08
  -6  -6   9   31.89   16.80
  -6  -6   9   60.39   20.47
   6   6  -8   52.51   24.26
  -6  -6   8   14.11   10.74
  -6  -6   8   44.28   17.80
   6   6  -7 1511.47   89.61
  -6  -6   7 1677.27   99.33
   6   6  -6  664.88   78.23
  -6  -6   6  770.33   69.36
   6   6  -5 2315.91  143.71
  -6  -6   5 2487.79  144.27
  -6  -6   5 2438.15  144.52
   6   6  -4  336.26   56.43
  -6  -6   4  383.82   38.93
  -6  -6   4  382.95   42.01
   6   6  -3  289.33   34.24
  -6  -6   3  171.81   24.54
  -6  -6   3  187.60   21.99
  -6  -6   3  313.95   40.13
  -6  -6   2 1219.23   55.78
  -6  -6   2 1143.48   55.66
  -6  -6   2 1241.34   55.80
  -6  -6   1   13.10    8.90
  -6  -6   1   26.92   11.38
  -6  -6   1    7.64    5.25
  -6  -6   0   41.75   12.67
  -6  -6   0   98.70   16.09
  -6  -6  -1    0.74    7.87
  -6  -6  -1    2.60    6.69
  -6  -6  -2   38.91   12.44
  -6  -6  -3 2258.27  127.91
  -6  -6  -4   27.80   11.34
   6   7  -8    8.17    9.20
  -6  -7   8   45.47   23.11
  -6  -7   8   -0.42   14.11
   6   7  -7   12.86    9.05
  -6  -7   7   28.16   15.39
  -6  -7   7    3.26   12.62
   6   7  -6 3243.00  188.00
  -6  -7   6 3436.26  958.97
  -6  -7   6 3576.16  998.73
   6   7  -5  238.70   74.37
  -6  -7   5  361.82   59.08
  -6  -7   5  416.31   69.55
   6   7  -4  159.86   26.39
  -6  -7   4  170.02   30.53
  -6  -7   3    3.11   10.38
  -6  -7   0   12.97    7.94
  -6  -7  -1  156.46   29.30
  -6  -8   6  159.53   25.61
  -6  -8   5 2457.52  251.97
  -6  -8   5 2364.53  240.92
  -6  -8   4   46.56   20.43
  -6  -8   4   18.27   13.67
  -6  -8   3 1779.26  131.11
  -6  -8   0    8.72    7.91
   7  -7   0  451.42   52.18
  -7   7   0  468.45   60.85
   7  -7   1 1194.54  126.33
  -7   7  -1 1139.41  130.25
   7  -7   2   19.28   12.32
  -7   7  -2   89.23   26.01
   7  -7   3   50.11   16.38
  -7   7  -3   74.37   29.46
   7  -6  -2 2028.79  208.92
   7  -6  -2 1750.01  141.92
  -7   6   2 2172.42  162.92
  -7   6   1   28.18   17.63
   7  -6   0 2143.50  122.44
   7  -6   0 1938.05  118.24
  -7   6   0 1877.83  112.64
   7  -6   1 1627.73   96.76
  -7   6  -1 1525.75  101.10
   7  -6   2  456.07   78.15
  -7   6  -2  443.01   74.92
   7  -6   3 1364.12   83.43
  -7   6  -3 1528.02   97.69
   7  -6   4   11.72   12.07
  -7   6  -4   38.61   20.11
   7  -6   5   21.68   14.27
  -7   6  -5   34.64   18.39
   7  -6   6  508.53   60.09
  -7   6  -6  489.99   63.25
   7  -5  -4   81.82   20.14
  -7   5   4   52.86   14.12
   7  -5  -3  792.83   64.96
   7  -5  -3  705.70   58.77
  -7   5   3  851.68   73.35
   7  -5  -2   20.79   12.04
   7  -5  -2   28.33   13.42
  -7   5   2   46.88   20.43
   7  -5  -1  953.46   78.60
   7  -5  -1  923.55   78.38
  -7   5   1  983.13   84.75
   7  -5   0  166.29   27.55
   7  -5   0  210.22   62.62
   7  -5   1  402.18   55.51
   7  -5   1  479.01   64.13
  -7   5  -1  428.07   60.71
   7  -5   2 2385.90  187.36
  -7   5  -2 2168.01  176.47
   7  -5   3  143.78   27.11
  -7   5  -3  178.35   35.31
   7  -5   4 3553.03  275.86
  -7   5  -4 2264.50  179.83
   7  -5   5  105.25   32.10
  -7   5  -5  148.48   34.43
   7  -5   6   50.36   24.00
  -7   5  -6   29.04   24.67
   7  -5   7  798.58   88.42
  -7   5  -7  772.06   92.90
   7  -4  -5   73.23   23.35
   7  -4  -5  118.32   26.70
  -7   4   5  133.50   27.24
  -7   4   5  139.10   31.74
   7  -4  -4    7.68   10.14
   7  -4  -4   84.41   32.18
  -7   4   4   29.52   15.52
  -7   4   4   37.28   18.92
   7  -4  -3  144.44   24.76
   7  -4  -3  132.35   40.26
  -7   4   3  122.83   30.02
   7  -4  -2  621.03   43.65
   7  -4  -2  570.84   58.40
  -7   4   2  655.58   53.14
   7  -4  -1 1243.69   78.78
   7  -4  -1 1048.46  136.93
  -7   4   1 1231.71   83.33
   7  -4   0 3993.32  170.40
   7  -4   0 3625.48  177.87
  -7   4   0 3769.01  164.03
   7  -4   1  293.86   32.67
   7  -4   1  299.70   37.04
  -7   4  -1  315.54   36.93
   7  -4   2  489.65   49.26
  -7   4  -2  540.22   46.43
   7  -4   3 3694.86  213.50
  -7   4  -3 3553.99  213.52
   7  -4   4   44.55   14.63
  -7   4  -4  101.99   31.54
   7  -4   5   76.06   21.97
  -7   4  -5  143.62   35.66
   7  -4   6  267.33   47.35
  -7   4  -6  181.41   35.43
   7  -4   7   -0.55   13.65
  -7   4  -7   21.59   21.42
   7  -3  -6  374.89   40.71
  -7   3   6  285.34   48.08
  -7   3   6  369.16   43.45
   7  -3  -5   32.10   15.84
   7  -3  -5   25.36   14.09
  -7   3   5   51.26   25.69
   7  -3  -4  317.93   42.16
   7  -3  -4  350.35   49.25
  -7   3   4  349.44   51.03
   7  -3  -3  248.38   29.29
   7  -3  -3  283.45   33.58
  -7   3   3  309.78   43.48
   7  -3  -2  445.13   45.76
   7  -3  -2  324.14   63.65
  -7   3   2  389.78   47.07
   7  -3  -1  819.29   45.58
   7  -3  -1  639.23  117.17
  -7   3   1  774.88  102.30
   7  -3   0   63.37   15.53
   7  -3   0  114.80   26.74
  -7   3   0   47.95   17.81
   7  -3   1 1243.20   79.94
   7  -3   1 1351.22   86.98
  -7   3  -1 1321.27   87.66
   7  -3   2  672.77   66.86
  -7   3  -2  716.51   75.14
   7  -3   3  238.68   30.10
  -7   3  -3  264.48   34.59
   7  -3   4 1938.98  116.93
  -7   3  -4 2073.34  132.46
   7  -3   5   25.25   12.06
  -7   3  -5   97.41   29.02
   7  -3   6   54.55   20.54
  -7   3  -6   55.38   21.25
   7  -3   7  562.47   51.21
  -7   3  -7  517.68   49.11
   7  -2  -7  337.43   44.10
  -7   2   7  288.72   35.15
   7  -2  -6  237.39   44.40
  -7   2   6  275.90   47.55
  -7   2   6  281.80   51.60
   7  -2  -5  346.38   50.69
  -7   2   5  233.74   32.09
  -7   2   5  291.76   42.98
   7  -2  -4  421.82   43.02
   7  -2  -4  469.03   52.77
  -7   2   4  415.12   41.00
  -7   2   4  449.01   52.41
   7  -2  -3  969.70   47.32
   7  -2  -3 1204.23   64.87
  -7   2   3  990.11   57.56
   7  -2  -2  215.49   24.59
   7  -2  -2  312.25   51.57
  -7   2   2  304.46   35.65
   7  -2  -1 3753.53  216.90
   7  -2  -1 3516.03  212.74
  -7   2   1 3964.38  232.22
   7  -2   0  659.15   58.00
   7  -2   0  525.30   63.19
  -7   2   0  678.01   63.53
   7  -2   1  105.01   24.87
   7  -2   1   86.34   21.69
  -7   2  -1  111.20   25.56
   7  -2   2 1516.14   92.70
  -7   2  -2 1548.03  101.28
   7  -2   3   71.89   14.98
  -7   2  -3   51.51   21.64
   7  -2   4 1365.90   66.49
  -7   2  -4 1527.53   79.21
   7  -2   5  270.34   34.97
  -7   2  -5  285.15   37.85
   7  -2   6    8.64   12.16
  -7   2  -6   34.27   15.19
   7  -2   7   62.00   24.33
  -7   2  -7   54.05   22.13
   7  -1  -8  197.65   35.31
  -7   1   8  222.32   38.82
   7  -1  -7  913.63   75.39
  -7   1   7  655.47   52.34
  -7   1   7  870.65   71.22
   7  -1  -6  502.60   68.46
  -7   1   6  462.40   59.68
  -7   1   6  655.29   62.45
   7  -1  -5  278.54   28.80
   7  -1  -5  217.10   33.84
  -7   1   5  253.26   28.48
  -7   1   5  329.51   39.44
   7  -1  -4   76.70   20.83
  -7   1   4   14.66    7.27
  -7   1   4   30.68   14.51
   7  -1  -3 1033.99   63.28
   7  -1  -3 1060.30   74.34
  -7   1   3 1229.35   82.29
   7  -1  -2 1008.70   62.80
   7  -1  -2  922.43   75.97
  -7   1   2 1015.80   68.62
   7  -1  -1  636.64   46.58
   7  -1  -1  593.96   55.45
  -7   1   1  611.44   53.65
   7  -1   0   19.03   13.17
   7  -1   0   14.46    9.25
  -7   1   0   34.42   17.76
   7  -1   1 1253.87   77.06
  -7   1  -1 1379.29   89.49
   7  -1   2  243.03   28.45
  -7   1  -2  313.31   36.77
   7  -1   3    7.10   11.18
  -7   1  -3   17.90   12.86
   7  -1   4  126.98   20.87
  -7   1  -4   79.76   20.24
   7  -1   5  702.54   51.00
  -7   1  -5  728.20   56.24
   7  -1   6  150.16   29.43
   7  -1   7    9.20   12.35
  -7   1  -7    0.14    8.84
   7   0  -8  457.58   57.47
  -7   0   8  460.37   52.02
  -7   0   8  483.26   59.47
  -7   0   7 1858.80  109.73
  -7   0   7 1912.17  107.57
   7   0  -6 1807.82  145.28
  -7   0   6 1633.78  127.54
  -7   0   6 1735.67  138.80
   7   0  -5  327.79   39.40
  -7   0   5  324.67   33.44
  -7   0   5  359.56   43.71
   7   0  -4 1202.05   53.87
   7   0  -4 1026.33   58.25
  -7   0   4 1223.27   64.09
   7   0  -3    0.33    6.20
   7   0  -3  -14.77   13.90
  -7   0   3   36.92   15.29
   7   0  -2   42.59   10.59
   7   0  -2   46.32   18.05
  -7   0   2  108.47   29.21
   7   0  -1 1525.72   72.97
   7   0  -1  725.15  121.56
  -7   0   1 1601.29   81.70
   7   0   0  138.39   26.18
   7   0   0   99.02   27.06
  -7   0   0   86.91   20.27
   7   0   1 1341.20   83.24
  -7   0  -1 1275.17   80.24
   7   0   2 1109.29   70.60
  -7   0  -2 1039.17   68.68
   7   0   3   10.64   10.90
  -7   0  -3   27.18   15.94
   7   0   4 1920.33  114.85
  -7   0  -4 1723.61  105.27
   7   0   5  136.11   42.30
  -7   0  -5  112.23   30.73
   7   0   6 1503.54   91.07
  -7   0  -6 1340.53   81.01
   7   0   7  322.54   57.82
   7   1  -8  438.92   47.20
  -7  -1   8  353.72   33.06
  -7  -1   8  327.38   59.68
   7   1  -7   71.93   31.94
  -7  -1   7   -4.36    9.30
  -7  -1   7   11.91   15.08
   7   1  -6 1528.05  124.10
  -7  -1   6 1354.02  111.62
   7   1  -5 1456.02   75.17
  -7  -1   5 1217.25   54.54
  -7  -1   5 1603.17   79.30
   7   1  -4  753.85   95.14
   7   1  -4  958.84   59.54
  -7  -1   4  862.84   51.15
   7   1  -3 1526.15   89.94
   7   1  -3 1440.80   91.99
  -7  -1   3 1637.39  102.94
   7   1  -2   40.76   11.76
   7   1  -2   12.07   13.59
  -7  -1   2   58.28   24.42
   7   1  -1  185.27   20.19
   7   1  -1  143.57   39.96
  -7  -1   1  161.60   21.89
   7   1   0   41.18   15.86
  -7  -1   0   40.22   18.22
   7   1   1   22.42   13.93
  -7  -1  -1   31.20   19.07
   7   1   2 3195.11  186.45
  -7  -1  -2 3230.42  189.42
   7   1   3 1005.27   53.30
  -7  -1  -3  948.21   50.84
   7   1   4  442.31   48.40
   7   1   5  358.51   49.95
  -7  -1  -5  342.71   49.11
   7   1   6 1961.35  144.85
   7   1   7  975.14  104.83
   7   2  -8   58.46   25.97
  -7  -2   8   33.83   15.17
  -7  -2   8   19.32   15.58
   7   2  -7 2079.82  122.77
  -7  -2   7 1886.46  105.90
  -7  -2   7 2043.07  120.78
   7   2  -6  214.39   33.36
  -7  -2   6  250.96   35.57
  -7  -2   6  205.44   33.98
   7   2  -5  291.72   34.41
  -7  -2   5  307.95   37.61
   7   2  -4  416.40   94.30
  -7  -2   4  443.60   50.71
   7   2  -3 1037.76   62.56
   7   2  -3  989.12  132.60
  -7  -2   3 1156.82   76.22
   7   2  -2 1065.76   64.81
   7   2  -2 1123.82   74.81
  -7  -2   2 1198.63   77.47
   7   2  -1  755.64   62.49
   7   2  -1  624.81   59.99
  -7  -2   1  668.87   58.81
   7   2   0   84.36   20.84
  -7  -2   0   84.32   21.06
   7   2   1  618.03   54.48
  -7  -2  -1  740.70   66.02
   7   2   2   84.45   16.30
  -7  -2  -2   65.53   18.41
   7   2   3  223.39   29.10
   7   2   4   46.61   19.31
  -7  -2  -4   33.43   18.11
   7   2   5  528.79   39.24
   7   2   6  495.96   57.22
   7   3  -8  440.33   43.31
  -7  -3   8  566.34   52.98
   7   3  -7 2063.50  122.53
  -7  -3   7 2236.34  129.64
   7   3  -6 1353.09  112.49
  -7  -3   6 1280.54  107.21
   7   3  -5   29.74   14.34
  -7  -3   5   30.02   16.09
   7   3  -4  545.13  108.73
  -7  -3   4  800.71   48.28
   7   3  -3   15.23   11.49
  -7  -3   3   69.83   22.46
   7   3  -2    9.94    8.30
   7   3  -2   19.78   14.37
  -7  -3   2   40.84   18.98
   7   3  -1 1338.06   60.09
   7   3  -1 1561.49   77.86
  -7  -3   1 1565.37   77.06
   7   3   0  199.90   24.13
  -7  -3   0  319.53   38.31
   7   3   1 1398.24   66.57
  -7  -3  -1 1325.52   64.65
   7   3   2  884.81   57.82
  -7  -3  -2  979.99   64.93
   7   3   3  628.50   55.86
  -7  -3  -3  665.24   59.53
   7   3   4   33.09   23.22
   7   3   5   92.48   45.00
   7   4  -8  407.42   55.02
  -7  -4   8  324.26   42.69
   7   4  -7   74.62   28.69
  -7  -4   7   43.11   21.91
   7   4  -6    2.85   12.08
  -7  -4   6   -4.61   11.78
   7   4  -5  718.30  111.32
  -7  -4   5  860.92   73.55
   7   4  -4  380.60   93.50
  -7  -4   4  538.26   41.87
   7   4  -3 2924.06  182.86
  -7  -4   3 3190.25  185.98
   7   4  -2  627.32   40.69
   7   4  -2  793.53   57.67
  -7  -4   2  745.32   52.27
   7   4  -1  580.83   63.98
  -7  -4   1  785.71   54.29
   7   4   0 1628.12  106.00
  -7  -4   0 1628.85   99.74
   7   4   1   19.76   14.76
  -7  -4  -1   32.03   12.20
   7   4   2  744.68   70.24
  -7  -4  -2  888.68   74.92
   7   4   3   26.19   13.41
   7   4   4   50.13   20.75
   7   5  -7 2356.75  242.09
  -7  -5   7 2351.32  243.43
   7   5  -6   22.28   15.20
  -7  -5   6    5.19   11.88
   7   5  -5   28.18   12.31
  -7  -5   5   81.01   29.30
   7   5  -4 1959.28  160.98
  -7  -5   4 2172.48  171.38
   7   5  -3 1810.69  150.13
  -7  -5   3 1805.35  143.34
  -7  -5   2  131.96   40.12
   7   5  -1   75.99   24.82
  -7  -5   1  141.10   26.19
   7   5   0  255.48   72.14
  -7  -5   0  524.84   68.38
   7   5   1  472.82   81.73
  -7  -5  -1  533.10   38.68
   7   5   2   76.33   25.65
   7   5   3   15.45    9.07
   7   6  -6    2.78    5.55
  -7  -6   6   42.36   23.54
   7   6  -5  118.88   29.73
  -7  -6   5   71.81   27.54
   7   6  -4   16.07   10.55
  -7  -6   4   30.55   14.89
  -7  -6   3 4675.32   63.02
  -7  -6   2   44.56   21.71
  -7  -6   1  787.01   65.11
  -7  -6   0   59.37   19.71
  -7  -6   0  107.60   22.32
  -7  -6  -1   26.09   11.37
   8  -4  -2   78.86   17.23
   8  -4  -2   30.48   21.64
  -8   4   2   51.14   12.54
   8  -4  -1  192.43   27.18
   8  -4  -1  142.10   29.21
  -8   4   1  271.99   38.90
   8  -4   0   74.92   27.07
   8  -4   0   16.95   15.41
  -8   4   0  112.29   33.63
   8  -4   1 1421.01  106.87
  -8   4  -1 1210.21   97.45
  -8   4  -2  238.36   46.21
   8  -4   3   36.08   16.37
  -8   4  -3   13.21   17.02
   8  -3  -3   93.27   15.55
   8  -3  -3   46.27   19.78
  -8   3   3   83.11   17.42
   8  -3  -2   67.61   23.16
   8  -3  -2   21.29   19.91
  -8   3   2   71.39   26.76
   8  -3  -1  414.72   37.51
   8  -3  -1  394.17   65.41
  -8   3   1  528.59   52.23
   8  -3   0  965.99   60.66
   8  -3   0  865.92   57.98
  -8   3   0 1054.84   70.60
   8  -3   1   85.73   30.66
  -8   3  -1   58.66   28.60
   8  -3   2  408.21   37.97
  -8   3  -2  292.61   52.14
   8  -3   3   15.56   12.64
  -8   3  -3   49.39   26.94
   8  -3   4   38.39   12.08
  -8   3  -4   59.21   18.69
   8  -2  -4  811.56  136.66
  -8   2   4 1287.48  137.62
   8  -2  -3  142.23   39.44
  -8   2   3  136.29   30.90
   8  -2  -2  403.18   65.91
   8  -2  -2  209.71   78.62
  -8   2   2  384.48   66.96
   8  -2  -1   44.99   18.18
  -8   2   1   18.79   16.68
   8  -2   0  389.11   63.66
   8  -2   0  406.93   68.76
  -8   2   0  396.41   65.27
   8  -2   1  668.28   46.70
  -8   2  -1  629.96   46.87
   8  -2   2   89.37   29.42
  -8   2  -2  179.59   37.22
   8  -2   3  204.78   38.91
  -8   2  -3  309.83   57.45
   8  -2   4  745.46   62.62
  -8   2  -4  691.06   68.43
   8  -2   5   21.62   12.28
  -8   2  -5   18.94   22.04
   8  -1  -5    7.55   15.27
  -8   1   5   52.12   23.29
   8  -1  -4 1313.77  109.29
  -8   1   4 1326.45  106.67
   8  -1  -3  811.45   50.12
   8  -1  -3  669.80   96.88
  -8   1   3 1028.91   72.87
   8  -1  -2  422.60   68.22
   8  -1  -2  373.02   93.83
  -8   1   2  476.52   80.11
   8  -1  -1  707.34   59.42
   8  -1  -1  537.04  101.51
  -8   1   1  748.97   66.15
   8  -1   0  337.32   46.12
   8  -1   0  309.33   46.46
  -8   1   0  259.06   42.14
   8  -1   1   15.54   10.11
  -8   1  -1   58.07   20.81
   8  -1   2  112.18   37.59
  -8   1  -2  176.56   33.97
   8  -1   3  163.89   33.15
  -8   1  -3  114.06   35.68
   8  -1   4 1123.37   88.93
  -8   1  -4  907.30   74.02
   8  -1   5   59.76   17.09
  -8   1  -5   31.11   25.59
   8   0  -5  788.10   65.54
  -8   0   5  855.16   72.14
   8   0  -4   88.26   32.87
  -8   0   4  191.01   40.08
   8   0  -3  458.62   78.28
  -8   0   3  661.12   47.38
   8   0  -2 1309.62  104.21
   8   0  -2 1021.04   87.74
  -8   0   2 1232.24  103.63
   8   0  -1 1861.57  145.59
   8   0  -1 1692.22  136.97
  -8   0   1 1903.77  151.36
   8   0   0 1225.59   98.47
  -8   0   0 1270.04  109.55
   8   0   1  421.77   55.61
  -8   0  -1  472.48   65.61
   8   0   2  129.47   27.47
  -8   0  -2  117.79   37.07
   8   0   3  407.71   38.84
  -8   0  -3  420.24   40.78
   8   0   4   34.73   16.20
  -8   0  -4   90.55   26.19
   8   1  -6  508.11   61.66
  -8  -1   6  568.17   69.33
   8   1  -5 1631.02  139.66
  -8  -1   5 1611.98  121.34
   8   1  -4 1654.38   99.87
  -8  -1   4 1582.27   94.08
   8   1  -3   46.89   21.68
  -8  -1   3   26.76   15.15
   8   1  -2  163.45   25.08
   8   1  -2  171.52   56.46
  -8  -1   2  284.91   44.89
   8   1  -1   25.43   16.49
  -8  -1   1   42.08   23.30
   8   1   0   -6.51    7.92
  -8  -1   0   81.61   31.57
   8   1   1  345.25   57.28
  -8  -1  -1  356.98   61.75
   8   1   2 1000.36   63.01
  -8  -1  -2 1009.92   65.89
   8   1   3   61.46   26.06
  -8  -1  -3   20.51   12.57
   8   1   4  375.47   44.97
  -8  -1  -4  318.16   41.79
   8   2  -5   80.72   29.29
  -8  -2   5  208.58   41.90
   8   2  -4  158.54   45.32
  -8  -2   4  186.71   38.98
   8   2  -3  589.38   54.18
  -8  -2   3  825.97   58.51
   8   2  -2   43.83   18.59
  -8  -2   2   23.21   14.97
   8   2  -1 1949.39  109.80
  -8  -2   1 1981.54  115.44
   8   2   0  561.60   39.17
  -8  -2   0  662.14   49.96
   8   2   1  283.49   47.61
  -8  -2  -1  292.71   52.00
   8   2   2  630.98   54.53
  -8  -2  -2  608.85   52.46
   8   2   3  128.10   20.27
  -8  -2  -3  116.01   18.56
   8   3  -5 2062.94  219.84
  -8  -3   5 2367.60  244.47
   8   3  -4  124.65   42.94
  -8  -3   4  176.46   36.22
   8   3  -3  115.70   33.57
  -8  -3   3  172.86   36.37
   8   3  -2  732.64   64.34
  -8  -3   2  696.95   59.28
  -8  -3   1 2199.08   48.59
  -8  -3   0  296.20   52.34
   8   3   1  297.14   51.05
  -8  -3  -1  329.48   58.30
   8   3   2 1579.23  163.56
  -8  -3  -2 1787.89  184.50
   8   4  -4   68.41   25.20
  -8  -4   4   72.82   13.36
   8   4  -3   28.85   13.60
  -8  -4   3   81.60   20.51
  -8  -4   2   37.11   13.93
  -8  -4   1 2829.07  289.24
;
_shelx_hkl_checksum              96142
loop_
_space_group_symop_id
_space_group_symop_operation_xyz
1 +X,+Y,+Z
2 -X,-Y,-Z
loop_
_atom_site_label
_atom_site_type_symbol
_atom_site_fract_x
_atom_site_fract_y
_atom_site_fract_z
_atom_site_U_iso_or_equiv
_atom_site_adp_type
_atom_site_occupancy
_atom_site_site_symmetry_order
_atom_site_calc_flag
_atom_site_refinement_flags_posn
_atom_site_refinement_flags_adp
_atom_site_refinement_flags_occupancy
_atom_site_disorder_assembly
_atom_site_disorder_group
S1 S -0.25072(6) 0.17710(5) 0.30738(4) 0.02340(16) Uani 1 1 d . . . . .
O1 O 0.59629(18) 0.45470(14) 0.11660(12) 0.0243(3) Uani 1 1 d . . . . .
O2 O 0.54085(17) 0.22361(14) -0.03107(11) 0.0214(3) Uani 1 1 d . . . . .
N1 N 1.2566(3) 0.2169(2) -0.45633(16) 0.0341(4) Uani 1 1 d . . . . .
C1 C -0.3371(3) 0.3523(2) 0.41206(17) 0.0258(4) Uani 1 1 d . . . . .
H1A H -0.352733 0.426732 0.362885 0.031 Uiso 1 1 calc R U . . .
H1B H -0.240058 0.391978 0.484295 0.031 Uiso 1 1 calc R U . . .
H1C H -0.465461 0.333524 0.445956 0.031 Uiso 1 1 calc R U . . .
C2 C -0.0272(2) 0.23076(19) 0.25003(15) 0.0184(3) Uani 1 1 d . . . . .
C3 C 0.0546(2) 0.37827(19) 0.28524(15) 0.0194(3) Uani 1 1 d . . . . .
H3 H -0.008745 0.457227 0.346651 0.023 Uiso 1 1 calc R U . . .
C4 C 0.2290(2) 0.40993(19) 0.23051(15) 0.0188(3) Uani 1 1 d . . . . .
H4 H 0.285282 0.510182 0.255894 0.023 Uiso 1 1 calc R U . . .
C5 C 0.3216(2) 0.29525(19) 0.13851(15) 0.0174(3) Uani 1 1 d . . . . .
C6 C 0.2408(2) 0.14674(19) 0.10426(16) 0.0196(3) Uani 1 1 d . . . . .
H6 H 0.303787 0.067843 0.042600 0.024 Uiso 1 1 calc R U . . .
C7 C 0.0693(2) 0.11497(19) 0.16021(16) 0.0198(3) Uani 1 1 d . . . . .
H7 H 0.016224 0.013801 0.137614 0.024 Uiso 1 1 calc R U . . .
C8 C 0.5012(2) 0.33702(19) 0.07865(15) 0.0184(3) Uani 1 1 d . . . . .
C9 C 0.6942(2) 0.23588(19) -0.11224(15) 0.0181(3) Uani 1 1 d . . . . .
C10 C 0.8804(2) 0.30162(19) -0.06803(16) 0.0192(3) Uani 1 1 d . . . . .
H10 H 0.907973 0.349237 0.021581 0.023 Uiso 1 1 calc R U . . .
C11 C 1.0256(2) 0.29604(19) -0.15822(16) 0.0195(3) Uani 1 1 d . . . . .
H11 H 1.153753 0.340831 -0.130354 0.023 Uiso 1 1 calc R U . . .
C12 C 0.9833(3) 0.22455(19) -0.28997(16) 0.0203(4) Uani 1 1 d . . . . .
C13 C 0.7950(3) 0.1585(2) -0.33266(16) 0.0215(4) Uani 1 1 d . . . . .
H13 H 0.767023 0.109754 -0.422048 0.026 Uiso 1 1 calc R U . . .
C14 C 0.6497(3) 0.16483(19) -0.24313(16) 0.0207(3) Uani 1 1 d . . . . .
H14 H 0.520864 0.121176 -0.270702 0.025 Uiso 1 1 calc R U . . .
C15 C 1.1354(3) 0.2197(2) -0.38263(17) 0.0247(4) Uani 1 1 d . . . . .
loop_
_atom_site_aniso_label
_atom_site_aniso_U_11
_atom_site_aniso_U_22
_atom_site_aniso_U_33
_atom_site_aniso_U_23
_atom_site_aniso_U_13
_atom_site_aniso_U_12
S1 0.0182(2) 0.0265(3) 0.0261(2) 0.00801(18) 0.00716(16) -0.00238(17)
O1 0.0209(6) 0.0232(6) 0.0272(6) 0.0039(5) 0.0069(5) -0.0033(5)
O2 0.0179(6) 0.0241(6) 0.0208(6) 0.0038(5) 0.0073(4) -0.0024(5)
N1 0.0289(9) 0.0434(10) 0.0298(8) 0.0094(7) 0.0101(7) -0.0035(7)
C1 0.0201(9) 0.0324(10) 0.0227(8) 0.0034(7) 0.0082(7) 0.0009(7)
C2 0.0140(8) 0.0251(8) 0.0183(7) 0.0096(6) 0.0017(6) 0.0010(6)
C3 0.0182(8) 0.0217(8) 0.0175(7) 0.0039(6) 0.0026(6) 0.0014(6)
C4 0.0165(8) 0.0201(8) 0.0196(8) 0.0052(6) 0.0011(6) -0.0015(6)
C5 0.0142(8) 0.0216(8) 0.0175(7) 0.0072(6) 0.0014(6) 0.0005(6)
C6 0.0174(8) 0.0197(8) 0.0221(8) 0.0062(6) 0.0031(6) 0.0016(6)
C7 0.0190(8) 0.0190(8) 0.0229(8) 0.0082(6) 0.0019(6) -0.0005(6)
C8 0.0160(8) 0.0215(8) 0.0182(8) 0.0063(6) 0.0024(6) 0.0022(6)
C9 0.0166(8) 0.0192(8) 0.0201(8) 0.0076(6) 0.0063(6) 0.0022(6)
C10 0.0186(8) 0.0201(8) 0.0186(8) 0.0050(6) 0.0013(6) 0.0008(6)
C11 0.0152(8) 0.0212(8) 0.0235(8) 0.0085(6) 0.0019(6) 0.0001(6)
C12 0.0196(8) 0.0210(8) 0.0221(8) 0.0083(6) 0.0053(6) 0.0025(6)
C13 0.0221(9) 0.0235(9) 0.0183(8) 0.0048(6) 0.0022(6) 0.0006(7)
C14 0.0167(8) 0.0224(8) 0.0225(8) 0.0055(6) 0.0011(6) -0.0007(6)
C15 0.0236(9) 0.0269(9) 0.0239(8) 0.0072(7) 0.0044(7) 0.0007(7)
loop_
_atom_type_symbol
_atom_type_description
_atom_type_scat_dispersion_real
_atom_type_scat_dispersion_imag
_atom_type_scat_source
C C 0.0033 0.0016
;
International Tables for Crystallography
(Vol. C, Tables 4.2.6.8 and 6.1.1.4)
;
H H 0.0000 0.0000
;
International Tables for Crystallography
(Vol. C, Table 6.1.1.4)
;
N N 0.0061 0.0033
;
International Tables for Crystallography
(Vol. C, Tables 4.2.6.8 and 6.1.1.4)
;
O O 0.0106 0.0060
;
International Tables for Crystallography
(Vol. C, Tables 4.2.6.8 and 6.1.1.4)
;
S S 0.1246 0.1234
;
International Tables for Crystallography
(Vol. C, Tables 4.2.6.8 and 6.1.1.4)
;
loop_
_geom_angle_atom_site_label_1
_geom_angle_atom_site_label_2
_geom_angle_atom_site_label_3
_geom_angle
_geom_angle_site_symmetry_1
_geom_angle_site_symmetry_3
_geom_angle_publ_flag
C2 S1 C1 103.92(9) . . ?
C8 O2 C9 122.78(13) . . ?
S1 C1 H1A 109.5 . . ?
S1 C1 H1B 109.5 . . ?
H1A C1 H1B 109.5 . . ?
S1 C1 H1C 109.5 . . ?
H1A C1 H1C 109.5 . . ?
H1B C1 H1C 109.5 . . ?
C3 C2 C7 119.29(15) . . ?
C3 C2 S1 124.63(13) . . ?
C7 C2 S1 116.06(13) . . ?
C4 C3 C2 120.10(15) . . ?
C4 C3 H3 119.9 . . ?
C2 C3 H3 119.9 . . ?
C3 C4 C5 120.45(16) . . ?
C3 C4 H4 119.8 . . ?
C5 C4 H4 119.8 . . ?
C4 C5 C6 119.44(15) . . ?
C4 C5 C8 118.13(15) . . ?
C6 C5 C8 122.42(15) . . ?
C7 C6 C5 120.03(15) . . ?
C7 C6 H6 120.0 . . ?
C5 C6 H6 120.0 . . ?
C6 C7 C2 120.65(16) . . ?
C6 C7 H7 119.7 . . ?
C2 C7 H7 119.7 . . ?
O1 C8 O2 124.03(15) . . ?
O1 C8 C5 125.86(15) . . ?
O2 C8 C5 110.07(14) . . ?
C10 C9 C14 122.06(15) . . ?
C10 C9 O2 123.98(15) . . ?
C14 C9 O2 113.77(15) . . ?
C9 C10 C11 118.39(15) . . ?
C9 C10 H10 120.8 . . ?
C11 C10 H10 120.8 . . ?
C10 C11 C12 120.20(16) . . ?
C10 C11 H11 119.9 . . ?
C12 C11 H11 119.9 . . ?
C13 C12 C11 120.61(15) . . ?
C13 C12 C15 119.78(16) . . ?
C11 C12 C15 119.62(16) . . ?
C14 C13 C12 119.30(15) . . ?
C14 C13 H13 120.3 . . ?
C12 C13 H13 120.3 . . ?
C13 C14 C9 119.44(16) . . ?
C13 C14 H14 120.3 . . ?
C9 C14 H14 120.3 . . ?
N1 C15 C12 179.5(2) . . ?
loop_
_geom_bond_atom_site_label_1
_geom_bond_atom_site_label_2
_geom_bond_distance
_geom_bond_site_symmetry_2
_geom_bond_publ_flag
S1 C2 1.7586(18) . ?
S1 C1 1.801(2) . ?
O1 C8 1.204(2) . ?
O2 C8 1.373(2) . ?
O2 C9 1.3975(19) . ?
N1 C15 1.152(2) . ?
C1 H1A 0.9800 . ?
C1 H1B 0.9800 . ?
C1 H1C 0.9800 . ?
C2 C3 1.395(2) . ?
C2 C7 1.404(2) . ?
C3 C4 1.392(2) . ?
C3 H3 0.9500 . ?
C4 C5 1.397(2) . ?
C4 H4 0.9500 . ?
C5 C6 1.401(2) . ?
C5 C8 1.482(2) . ?
C6 C7 1.383(2) . ?
C6 H6 0.9500 . ?
C7 H7 0.9500 . ?
C9 C10 1.389(2) . ?
C9 C14 1.395(2) . ?
C10 C11 1.392(2) . ?
C10 H10 0.9500 . ?
C11 C12 1.401(2) . ?
C11 H11 0.9500 . ?
C12 C13 1.400(2) . ?
C12 C15 1.446(2) . ?
C13 C14 1.386(2) . ?
C13 H13 0.9500 . ?
C14 H14 0.9500 . ?
loop_
_geom_torsion_atom_site_label_1
_geom_torsion_atom_site_label_2
_geom_torsion_atom_site_label_3
_geom_torsion_atom_site_label_4
_geom_torsion
_geom_torsion_site_symmetry_1
_geom_torsion_site_symmetry_2
_geom_torsion_site_symmetry_3
_geom_torsion_site_symmetry_4
_geom_torsion_publ_flag
C1 S1 C2 C3 1.06(17) . . . . ?
C1 S1 C2 C7 -177.30(12) . . . . ?
C7 C2 C3 C4 0.7(2) . . . . ?
S1 C2 C3 C4 -177.64(12) . . . . ?
C2 C3 C4 C5 1.1(2) . . . . ?
C3 C4 C5 C6 -1.8(2) . . . . ?
C3 C4 C5 C8 176.99(14) . . . . ?
C4 C5 C6 C7 0.8(2) . . . . ?
C8 C5 C6 C7 -177.94(15) . . . . ?
C5 C6 C7 C2 1.0(3) . . . . ?
C3 C2 C7 C6 -1.7(2) . . . . ?
S1 C2 C7 C6 176.77(13) . . . . ?
C9 O2 C8 O1 -1.8(2) . . . . ?
C9 O2 C8 C5 175.84(13) . . . . ?
C4 C5 C8 O1 13.5(3) . . . . ?
C6 C5 C8 O1 -167.71(17) . . . . ?
C4 C5 C8 O2 -164.09(14) . . . . ?
C6 C5 C8 O2 14.7(2) . . . . ?
C8 O2 C9 C10 39.6(2) . . . . ?
C8 O2 C9 C14 -145.26(15) . . . . ?
C14 C9 C10 C11 0.2(2) . . . . ?
O2 C9 C10 C11 174.95(14) . . . . ?
C9 C10 C11 C12 -0.4(2) . . . . ?
C10 C11 C12 C13 0.2(2) . . . . ?
C10 C11 C12 C15 179.93(15) . . . . ?
C11 C12 C13 C14 0.2(3) . . . . ?
C15 C12 C13 C14 -179.47(16) . . . . ?
C12 C13 C14 C9 -0.5(3) . . . . ?
C10 C9 C14 C13 0.3(3) . . . . ?
O2 C9 C14 C13 -174.99(15) . . . . ?
