#------------------------------------------------------------------------------
#$Date: 2022-02-04 21:26:54 +0200 (Fri, 04 Feb 2022) $
#$Revision: 272638 $
#$URL: file:///home/coder/svn-repositories/cod/cif/7/24/40/7244038.cif $
#------------------------------------------------------------------------------
#
# This file is available in the Crystallography Open Database (COD),
# http://www.crystallography.net/
#
# All data on this site have been placed in the public domain by the
# contributors.
#
data_7244038
loop_
_publ_author_name
'Zhoujin, Yunping'
'Li, Yuping'
'Zhang, Mingtao'
'Parkin, Sean'
'Guo, Ju'
'Li, Tonglei'
'Yu, Faquan'
'Long, Sihui'
_publ_section_title
;
 Polymorphism and cocrystal salt formation of
 2-((2,6-dichlorophenyl)amino)benzoic acid, harvest of a second form of
 2-((2,6-dimethylphenyl)amino)benzoic acid, and isomorphism between the
 two systems
;
_journal_issue                   3
_journal_name_full               CrystEngComm
_journal_page_first              681
_journal_page_last               690
_journal_paper_doi               10.1039/D1CE01407B
_journal_volume                  24
_journal_year                    2022
_chemical_formula_moiety         'C13 H9 Cl2 N O2'
_chemical_formula_sum            'C13 H9 Cl2 N O2'
_chemical_formula_weight         282.11
_space_group_crystal_system      triclinic
_space_group_IT_number           2
_space_group_name_Hall           '-P 1'
_space_group_name_H-M_alt        'P -1'
_atom_sites_solution_hydrogens   geom
_atom_sites_solution_primary     dual
_audit_creation_date             2021-07-03
_audit_creation_method
;
Olex2 1.3-ac4
(compiled 2019.04.23 svn.r3594 for Rigaku Oxford Diffraction, GUI svn.r5739)
;
_audit_update_record
;
2021-10-13 deposited with the CCDC.	2021-12-10 downloaded from the CCDC.
;
_cell_angle_alpha                72.216(2)
_cell_angle_beta                 84.210(2)
_cell_angle_gamma                74.767(2)
_cell_formula_units_Z            2
_cell_length_a                   7.38490(10)
_cell_length_b                   8.0981(2)
_cell_length_c                   11.1254(2)
_cell_measurement_reflns_used    5708
_cell_measurement_temperature    299.78(10)
_cell_measurement_theta_max      77.0950
_cell_measurement_theta_min      6.1850
_cell_volume                     611.13(2)
_computing_cell_refinement       'CrysAlisPro 1.171.41.103a (Rigaku OD, 2021)'
_computing_data_collection       'CrysAlisPro 1.171.41.103a (Rigaku OD, 2021)'
_computing_data_reduction        'CrysAlisPro 1.171.41.103a (Rigaku OD, 2021)'
_computing_molecular_graphics    'Olex2 (Dolomanov et al., 2009)'
_computing_publication_material  'Olex2 (Dolomanov et al., 2009)'
_computing_structure_refinement  'ShelXL (Sheldrick, 2015)'
_computing_structure_solution    'ShelXT (Sheldrick, 2015)'
_diffrn_ambient_environment      air
_diffrn_ambient_temperature      299.78(10)
_diffrn_detector                 'Hybrid Pixel Array Detector'
_diffrn_detector_area_resol_mean 10.0000
_diffrn_detector_type            HyPix
_diffrn_measured_fraction_theta_full 0.975
_diffrn_measured_fraction_theta_max 0.928
_diffrn_measurement_details
;
List of Runs (angles in degrees, time in seconds):

  # Type    Start    End  Width  t~exp~   \w     \q     \k     \f   Frames
#--------------------------------------------------------------------------
  1  \w    124.00 150.00   0.50    0.05    --  107.75  91.00  81.00   52
  2  \w     79.00 120.00   0.50    0.05    --  107.75  91.00  81.00   82
  3  \w     99.00 125.00   0.50    0.05    --  107.75  37.00 150.00   52
  4  \w    144.00 169.00   0.50    0.05    --  107.75  37.00 150.00   50
  5  \w     95.00 171.00   0.50    0.05    --  107.75  37.00  30.00  152
  6  \w    -25.00  26.00   0.50    0.05    --   47.57 -37.00  60.00  102
  7  \w    -24.00  22.00   0.50    0.05    --   47.57 -19.00-180.00   92
  8  \w    -24.00   2.00   0.50    0.05    --   47.57 -19.00-120.00   52
  9  \w    -27.00  -1.00   0.50    0.05    --   47.57 -19.00 -90.00   52
 10  \w    -27.00  23.00   0.50    0.05    --   47.57 -19.00 -30.00  100
 11  \w     36.00  61.00   0.50    0.05    --  107.75 -91.00 -31.00   50
 12  \w     79.00 104.00   0.50    0.05    --  107.75 -99.00 -60.00   50
 13  \w     35.00  91.00   0.50    0.05    --  107.75-125.00 -60.00  112
 14  \w     45.00 112.00   0.50    0.05    --  107.75-125.00-120.00  134
 15  \w     48.00 108.00   0.50    0.05    --  107.75-125.00-150.00  120
 16  \w     52.00 104.00   0.50    0.05    --  107.75 -99.00 -90.00  104
 17  \w     62.00  88.00   0.50    0.05    --  107.75 -91.00 -31.00   52
 18  \w     41.00 103.00   0.50    0.05    --  107.75 -99.00  60.00  124
 19  \w     35.00 104.00   0.50    0.05    --  107.75 -99.00 120.00  138
 20  \w     35.00  60.00   0.50    0.05    --  107.75 -57.00 120.00   50
 21  \w     42.00  70.00   0.50    0.05    --   47.57 -91.00 -31.00   56
 22  \w    -21.00  34.00   0.50    0.05    --   47.57 -91.00 -31.00  110
 23  \w     40.00 103.00   0.50    0.05    --  107.75 -77.00 -30.00  126
 24  \w    -66.00 -34.00   0.50    0.05    -- -100.00  91.00  81.00   64
 25  \w    -24.00  22.00   0.50    0.05    --  -47.57  91.00  81.00   92
 26  \w   -112.00 -57.00   0.50    0.05    -- -100.00 125.00  30.00  110
 27  \w    -94.00 -35.00   0.50    0.05    --  -47.57 125.00-180.00  118
 28  \w    -69.00 -27.00   0.50    0.05    -- -100.00  57.00-180.00   84
 29  \w    -69.00 -31.00   0.50    0.05    -- -100.00  57.00 -90.00   76
 30  \w    -68.00 -29.00   0.50    0.05    -- -100.00  57.00 -60.00   78
 31  \w   -123.00 -87.00   0.50    0.05    -- -100.00 -37.00-180.00   72
 32  \w   -172.00-129.00   0.50    0.05    -- -100.00 -37.00-180.00   86
 33  \w   -172.00 -94.00   0.50    0.05    -- -100.00 -37.00 -60.00  156
 34  \w   -129.00 -90.00   0.50    0.05    -- -100.00 -19.00  30.00   78
 35  \w   -175.00-140.00   0.50    0.05    -- -100.00 -19.00  30.00   70
 36  \w   -118.00 -92.00   0.50    0.05    -- -100.00 -91.00 -31.00   52
;
_diffrn_measurement_device       'four-circle diffractometer'
_diffrn_measurement_device_type  'ROD, Synergy Custom system, HyPix'
_diffrn_measurement_method       '\w scans'
_diffrn_orient_matrix_type
'CrysAlisPro convention (1999,Acta A55,543-557)'
_diffrn_orient_matrix_UB_11      0.0420121000
_diffrn_orient_matrix_UB_12      -0.0566093000
_diffrn_orient_matrix_UB_13      -0.1221314000
_diffrn_orient_matrix_UB_21      0.0961790000
_diffrn_orient_matrix_UB_22      0.1546865000
_diffrn_orient_matrix_UB_23      -0.0584672000
_diffrn_orient_matrix_UB_31      0.1890864000
_diffrn_orient_matrix_UB_32      -0.1237981000
_diffrn_orient_matrix_UB_33      0.0531367000
_diffrn_radiation_monochromator  mirror
_diffrn_radiation_probe          x-ray
_diffrn_radiation_type           'Cu K\a'
_diffrn_radiation_wavelength     1.54184
_diffrn_reflns_av_R_equivalents  0.0215
_diffrn_reflns_av_unetI/netI     0.0183
_diffrn_reflns_Laue_measured_fraction_full 0.975
_diffrn_reflns_Laue_measured_fraction_max 0.928
_diffrn_reflns_limit_h_max       9
_diffrn_reflns_limit_h_min       -9
_diffrn_reflns_limit_k_max       10
_diffrn_reflns_limit_k_min       -10
_diffrn_reflns_limit_l_max       14
_diffrn_reflns_limit_l_min       -13
_diffrn_reflns_number            6338
_diffrn_reflns_point_group_measured_fraction_full 0.975
_diffrn_reflns_point_group_measured_fraction_max 0.928
_diffrn_reflns_theta_full        67.684
_diffrn_reflns_theta_max         77.266
_diffrn_reflns_theta_min         4.174
_diffrn_source                   'Rotating-anode X-ray tube'
_diffrn_source_type              'Rigaku (Cu) X-ray Source'
_exptl_absorpt_coefficient_mu    4.724
_exptl_absorpt_correction_T_max  1.00000
_exptl_absorpt_correction_T_min  0.70527
_exptl_absorpt_correction_type   multi-scan
_exptl_absorpt_process_details
;
CrysAlisPro 1.171.41.103a (Rigaku Oxford Diffraction, 2021)
Empirical absorption correction using spherical harmonics,
implemented in SCALE3 ABSPACK scaling algorithm.
;
_exptl_crystal_colour            'clear light colourless'
_exptl_crystal_colour_lustre     clear
_exptl_crystal_colour_modifier   light
_exptl_crystal_colour_primary    colourless
_exptl_crystal_density_diffrn    1.533
_exptl_crystal_description       plate
_exptl_crystal_F_000             288
_exptl_crystal_size_max          0.06
_exptl_crystal_size_mid          0.03
_exptl_crystal_size_min          0.01
_refine_diff_density_max         0.317
_refine_diff_density_min         -0.361
_refine_diff_density_rms         0.044
_refine_ls_extinction_coef       0.035(5)
_refine_ls_extinction_expression Fc^*^=kFc[1+0.001xFc^2^\l^3^/sin(2\q)]^-1/4^
_refine_ls_extinction_method     'SHELXL-2018/3 (Sheldrick 2018)'
_refine_ls_goodness_of_fit_ref   1.034
_refine_ls_hydrogen_treatment    constr
_refine_ls_matrix_type           full
_refine_ls_number_parameters     165
_refine_ls_number_reflns         2412
_refine_ls_number_restraints     0
_refine_ls_restrained_S_all      1.034
_refine_ls_R_factor_all          0.0407
_refine_ls_R_factor_gt           0.0398
_refine_ls_shift/su_max          0.000
_refine_ls_shift/su_mean         0.000
_refine_ls_structure_factor_coef Fsqd
_refine_ls_weighting_details
'w=1/[\s^2^(Fo^2^)+(0.0685P)^2^+0.1666P] where P=(Fo^2^+2Fc^2^)/3'
_refine_ls_weighting_scheme      calc
_refine_ls_wR_factor_gt          0.1121
_refine_ls_wR_factor_ref         0.1132
_reflns_Friedel_coverage         0.000
_reflns_number_gt                2309
_reflns_number_total             2412
_reflns_threshold_expression     'I > 2\s(I)'
_cod_data_source_file            d1ce01407b2.cif
_cod_data_source_block           I
_cod_depositor_comments
'Adding full bibliography for 7244038--7244041.cif.'
_cod_database_code               7244038
_shelx_shelxl_version_number     2018/3
_shelx_space_group_comment
;
The symmetry employed for this shelxl refinement is uniquely defined
by the following loop, which should always be used as a source of
symmetry information in preference to the above space-group names.
They are only intended as comments.
;
_shelx_estimated_absorpt_t_max   0.954
_shelx_estimated_absorpt_t_min   0.765
_reflns_odcompleteness_completeness 97.47
_reflns_odcompleteness_iscentric 1
_reflns_odcompleteness_theta     66.97
_olex2_refinement_description
;
1. Fixed Uiso
 At 1.2 times of:
  All C(H) groups, All N(H) groups
 At 1.5 times of:
  All O(H) groups
2.a Aromatic/amide H refined with riding coordinates:
 N1(H1), C3(H3), C4(H4), C5(H5), C6(H6), C10(H10), C11(H11), C12(H12)
2.b Idealised tetrahedral OH refined as rotating group:
 O2(H2)
;
_shelx_res_file
;
TITL zhoujyp_10_0703_auto_a.res in P-1
    zhoujyp_10_0703_auto.res
    created by SHELXL-2018/3 at 15:57:58 on 03-Jul-2021
REM Old TITL zhoujyp_10_0703_auto in P-1
REM SHELXT solution in P-1: R1 0.185, Rweak 0.015, Alpha 0.045
REM <I/s> 0.000 for 0 systematic absences, Orientation as input
REM Formula found by SHELXT: C13 N O2 Cl2
CELL 1.54184 7.3849 8.0981 11.1254 72.216 84.21 74.767
ZERR 2 0.0001 0.0002 0.0002 0.002 0.002 0.002
LATT 1
SFAC C H Cl N O
UNIT 26 18 4 2 4

L.S. 4 0 0
PLAN  5
SIZE 0.01 0.03 0.06
TEMP 27
BOND
list 4
fmap 2 53
ACTA
REM <olex2.extras>
REM <HklSrc "%.\\zhoujyp_10_0703_auto.hkl">
REM </olex2.extras>

WGHT    0.068500    0.166600
EXTI    0.035108
FVAR       2.34986
CL1   3    0.783065    0.901664    0.725417    11.00000    0.08718    0.04249 =
         0.05186   -0.01248   -0.00808   -0.01379
CL2   3    0.745062    0.370315    0.539514    11.00000    0.08633    0.03702 =
         0.08129   -0.01741   -0.01112   -0.01655
O1    5    0.932358    0.199374    0.897379    11.00000    0.04623    0.04059 =
         0.06271    0.01591   -0.00263   -0.00529
O2    5    0.750809    0.047925    1.032693    11.00000    0.05610    0.04008 =
         0.06988    0.01857    0.00226   -0.00731
AFIX 147
H2    2    0.853237   -0.019042    1.056204    11.00000   -1.50000
AFIX   0
N1    4    0.769226    0.524700    0.744399    11.00000    0.04355    0.03374 =
         0.04577    0.00844   -0.00808   -0.00726
AFIX  43
H1    2    0.873794    0.475662    0.782947    11.00000   -1.20000
AFIX   0
C1    1    0.602296    0.327555    0.900500    11.00000    0.04651    0.03174 =
         0.03780   -0.00547   -0.00471   -0.01017
C2    1    0.604659    0.487192    0.802953    11.00000    0.04485    0.03032 =
         0.03666   -0.00501   -0.00638   -0.00792
C3    1    0.432288    0.610394    0.767948    11.00000    0.05118    0.03888 =
         0.04561   -0.00420   -0.00930   -0.00149
AFIX  43
H3    2    0.430042    0.716124    0.703746    11.00000   -1.20000
AFIX   0
C4    1    0.267368    0.578967    0.825861    11.00000    0.04440    0.05524 =
         0.05785   -0.01673   -0.00891    0.00077
AFIX  43
H4    2    0.155301    0.663582    0.800549    11.00000   -1.20000
AFIX   0
C5    1    0.264553    0.422473    0.922020    11.00000    0.04588    0.06058 =
         0.06100   -0.01936    0.00410   -0.01463
AFIX  43
H5    2    0.151941    0.401330    0.960881    11.00000   -1.20000
AFIX   0
C6    1    0.431742    0.299781    0.958361    11.00000    0.05222    0.04336 =
         0.04797   -0.00807    0.00196   -0.01614
AFIX  43
H6    2    0.431318    0.195341    1.023293    11.00000   -1.20000
AFIX   0
C7    1    0.775341    0.188933    0.942226    11.00000    0.05010    0.03035 =
         0.04013    0.00091   -0.00338   -0.01111
C8    1    0.765742    0.644264    0.620520    11.00000    0.04260    0.02910 =
         0.04184    0.00130   -0.00376   -0.00548
C9    1    0.773078    0.821276    0.598573    11.00000    0.05234    0.03163 =
         0.04341   -0.00351   -0.00356   -0.00647
C10   1    0.769072    0.936493    0.477604    11.00000    0.07163    0.02972 =
         0.05081    0.00233   -0.00076   -0.01040
AFIX  43
H10   2    0.775158    1.053878    0.464950    11.00000   -1.20000
AFIX   0
C11   1    0.756167    0.878028    0.376514    11.00000    0.08213    0.04394 =
         0.04017    0.00426   -0.00124   -0.01012
AFIX  43
H11   2    0.752854    0.956377    0.295348    11.00000   -1.20000
AFIX   0
C12   1    0.748006    0.704129    0.393584    11.00000    0.07316    0.05204 =
         0.04571   -0.01315   -0.00478   -0.01062
AFIX  43
H12   2    0.738756    0.664407    0.324868    11.00000   -1.20000
AFIX   0
C13   1    0.753894    0.590058    0.515301    11.00000    0.05413    0.03222 =
         0.05374   -0.00779   -0.00565   -0.00649
HKLF 4




REM  zhoujyp_10_0703_auto_a.res in P-1
REM wR2 = 0.1132, GooF = S = 1.034, Restrained GooF = 1.034 for all data
REM R1 = 0.0398 for 2309 Fo > 4sig(Fo) and 0.0407 for all 2412 data
REM 165 parameters refined using 0 restraints

END

WGHT      0.0685      0.1666

REM Highest difference peak  0.317,  deepest hole -0.361,  1-sigma level  0.044
Q1    1   0.8575  0.4109  0.7516  11.00000  0.05    0.32
Q2    1   0.6734  0.9289  0.7181  11.00000  0.05    0.29
Q3    1   0.8366  0.9072  0.6667  11.00000  0.05    0.22
Q4    1   0.7437  0.8193  0.7592  11.00000  0.05    0.20
Q5    1   0.8034  0.6410  0.4441  11.00000  0.05    0.19
;
_shelx_res_checksum              2812
_shelx_hkl_file
;
   0   0  -1 1148.51   13.45
   0   0  -3  146.06    3.61
   0   0  -4 3978.18   47.06
   0   0  -5  617.76   10.73
   0   0   6 2916.03   38.13
   0   0  -6 2917.93   37.62
   0   0   7  151.99    5.72
   0   0   7  157.13    5.77
   0   0   7  150.28    5.57
   0   0   8  217.68    7.40
   0   0   8  215.14    6.46
   0   0   8  220.42    7.58
   0   0   8  236.18    7.76
   0   0   9 1057.87   18.29
   0   0   9 1046.11   20.07
   0   0  10    3.32    1.02
   0   0  10    3.62    1.29
   0   0  10    3.44    1.58
   0   0 -11  318.43   10.42
   0   0  11  306.13    8.78
   0   0  12  133.46    4.70
   0   0 -12  123.82    5.49
   0   0 -13    4.75    1.05
   0   0  13    3.46    0.58
   0  -1  12   11.20    1.07
   0   1 -12   13.14    1.81
   0  -1  11   12.18    1.73
   0  -1  11   12.08    1.61
   0  -1  10    0.08    0.82
   0  -1   9  343.64   10.34
   0  -1   9  342.32    8.97
   0  -1   9  352.52   10.62
   0  -1   8 1576.24   25.14
   0  -1   8 1536.82   23.36
   0  -1   8 1610.14   26.42
   0  -1   8 1554.15   24.04
   0  -1   7  207.40    6.25
   0  -1   7  211.95    7.16
   0  -1   7  229.94    7.54
   0  -1   7  228.92    7.00
   0  -1   7  221.17    7.20
   0  -1   6   23.94    2.07
   0  -1   6   19.34    1.90
   0  -1   6   19.33    1.76
   0  -1   6   19.76    1.96
   0  -1   5 1228.34   17.90
   0   1  -5 1128.58   16.38
   0  -1   4  184.00    4.71
   0   1  -4  164.11    4.00
   0  -1   3 1275.97   16.80
   0   1  -3 1261.22   16.03
   0  -1   2 1905.11   23.30
   0  -1   2 1969.19   22.05
   0  -1   1 1126.57   13.20
   0  -1  -1  193.89    3.10
   0  -1  -1  210.99    3.54
   0  -1  -4  469.03    8.90
   0  -1  -4  456.06    5.76
   0  -1  -5   36.19    2.39
   0  -1  -6  160.89    5.63
   0   1   7 2434.33   32.77
   0   1   7 2430.38   33.58
   0  -1  -7 2346.77   33.45
   0  -1  -8  494.78   11.90
   0   1   8  493.53   10.44
   0   1   8  523.45   12.43
   0   1   8  509.57   11.41
   0   1   8  525.22   12.30
   0   1   9  523.44   13.01
   0   1   9  506.42   11.01
   0   1   9  529.54   12.12
   0   1  10    9.06    1.75
   0  -1 -10   12.03    2.56
   0   1  10   11.32    1.59
   0   1  11   19.08    2.42
   0  -1 -11   20.01    2.94
   0   1  12   66.40    3.74
   0  -1 -12   67.08    4.32
   0  -1 -13   52.21    3.05
   0   1  13   56.57    2.65
   0   2 -12  136.99    4.23
   0  -2  11   67.62    3.47
   0  -2  10   97.68    5.00
   0  -2  10  104.13    4.17
   0  -2   9   79.09    4.91
   0  -2   9   71.57    3.87
   0  -2   9   67.95    3.63
   0  -2   9   73.45    3.90
   0  -2   8  370.75    9.46
   0  -2   8  359.26    9.44
   0  -2   8  380.58    9.53
   0  -2   8  379.73   10.59
   0  -2   8  350.59    9.17
   0  -2   7  261.24    8.72
   0  -2   7  255.56    8.20
   0  -2   7  242.90    7.29
   0  -2   7  259.42    7.47
   0  -2   7  264.50    8.46
   0  -2   6  511.77   10.55
   0  -2   6  489.21   10.22
   0  -2   6  532.37   12.02
   0  -2   6  518.91   11.53
   0  -2   5 3233.77   41.99
   0  -2   5 3258.80   42.55
   0  -2   3   76.95    2.95
   0  -2   3   73.23    2.01
   0  -2   1  370.47    5.91
   0  -2   0 1502.83   18.36
   0   2   0 1414.37   16.81
   0  -2  -1 1619.54   19.41
   0  -2  -1 1587.65   19.44
   0  -2  -2 1081.68   13.97
   0  -2  -2 1146.21   15.01
   0  -2  -3 2708.17   31.40
   0  -2  -4 4325.93   48.87
   0  -2  -5 6240.92   69.35
   0  -2  -6 5393.93   66.99
   0  -2  -7   63.42    3.97
   0  -2  -8  351.89   10.50
   0  -2  -8  306.92    9.52
   0  -2  -9   11.23    1.99
   0  -2  -9   16.05    2.62
   0   2   9   11.36    1.61
   0  -2 -10   15.66    2.70
   0   2  10   21.49    2.61
   0   2  10   18.73    1.97
   0  -2 -10   14.86    1.97
   0  -2 -10   12.94    1.98
   0   2  10   18.50    2.48
   0  -2 -11   44.09    2.95
   0   2  11   55.55    4.11
   0  -2 -11   55.44    4.47
   0  -2 -12  125.85    5.96
   0   2  12  120.74    5.40
   0  -2 -13   17.18    1.97
   0   2  13   19.10    1.77
   0  -3  10   37.50    2.81
   0  -3   9  173.25    7.10
   0  -3   9  161.23    5.60
   0  -3   8  680.63   14.35
   0  -3   8  725.12   16.45
   0  -3   8  692.15   13.97
   0  -3   8  715.43   15.66
   0  -3   8  735.42   21.16
   0  -3   7  346.58    9.57
   0  -3   7  344.43    9.42
   0  -3   7  358.49   10.65
   0  -3   7  376.77   11.18
   0  -3   6  562.60   13.41
   0  -3   6  543.40   11.93
   0  -3   5  395.67    9.37
   0  -3   5  416.58   10.63
   0  -3   4 2332.02   32.77
   0  -3   3 2411.60   29.34
   0  -3   1 1115.20   15.53
   0   3  -1 1091.63   14.55
   0  -3   0  477.51    8.85
   0  -3   0  467.56    7.91
   0   3   0  447.82    6.43
   0  -3  -3 2173.11   26.73
   0  -3  -4 1087.86   14.96
   0  -3  -5  673.00   10.25
   0  -3  -6  197.18    4.38
   0  -3  -7  443.11   11.90
   0  -3  -7  425.15    9.90
   0  -3  -8 1822.26   30.44
   0   3   8 1839.51   28.83
   0  -3  -9   79.62    5.03
   0   3   9   80.63    4.87
   0  -3 -10    0.69    0.91
   0   3  10    0.58    1.20
   0   3  10    1.10    0.82
   0   3  11    1.95    0.85
   0  -3 -11   -0.07    0.91
   0  -3 -12  196.52    5.90
   0   3  13   58.68    3.14
   0   3  14    0.58    0.40
   0  -4  10    3.38    0.83
   0  -4   9    7.97    1.49
   0  -4   8    2.28    1.25
   0  -4   8    1.78    1.01
   0  -4   7   36.63    3.27
   0  -4   7   30.92    3.25
   0  -4   7   30.38    2.78
   0  -4   7   31.54    2.72
   0  -4   6   45.35    3.31
   0  -4   6   43.36    3.65
   0  -4   6   42.64    3.31
   0  -4   6   46.01    4.90
   0  -4   5  626.19   13.50
   0  -4   5  612.88   17.56
   0  -4   5  589.16   14.13
   0  -4   4  941.64   17.17
   0  -4   4  919.34   20.84
   0  -4   4  915.75   17.74
   0  -4   3   19.01    2.50
   0  -4   3   18.62    1.88
   0  -4   3   18.89    1.48
   0  -4   2  227.83    6.64
   0  -4   2  214.87    5.54
   0  -4   2  215.01    7.68
   0  -4   1 5500.48   63.87
   0  -4   1 5274.94   65.78
   0  -4   1 5351.39   63.64
   0  -4   0 6330.04   72.08
   0  -4   0 6128.81   72.81
   0  -4  -1 4631.18   54.87
   0  -4  -1 4335.20   53.57
   0  -4  -2 2235.57   29.60
   0  -4  -2 2099.36   27.86
   0  -4  -3 1042.75   15.57
   0  -4  -4 5734.21   66.88
   0  -4  -5  265.86    6.10
   0  -4  -5  258.63    7.63
   0  -4  -6  223.19    5.44
   0  -4  -6  218.04    7.41
   0  -4  -6  217.75    6.56
   0   4   6  210.64    6.63
   0  -4  -7   22.12    2.22
   0   4   7   22.89    2.36
   0  -4  -8  353.50   11.54
   0   4   8  355.17   10.27
   0   4   9  183.23    7.48
   0  -4  -9  171.76    7.89
   0   4  10  230.20    8.49
   0  -4 -10  195.87    8.10
   0   4  11  131.29    4.94
   0   4  11  130.94    6.09
   0  -4 -11  121.74    5.38
   0  -4 -12    7.56    1.45
   0   4  12    9.57    1.68
   0   4  13   72.39    3.32
   0  -4 -13   59.01    2.45
   0  -5   9  294.52    5.94
   0  -5   9  321.45    7.04
   0  -5   8   53.09    3.36
   0  -5   8   51.40    2.85
   0  -5   7    8.94    1.50
   0  -5   7    9.72    1.71
   0  -5   6   28.33    2.93
   0  -5   5  346.22   10.71
   0  -5   5  319.55   12.93
   0  -5   5  306.05    9.33
   0  -5   4  103.37    5.04
   0  -5   4  104.31    6.94
   0  -5   4  117.39    5.97
   0  -5   3  364.23    8.14
   0  -5   3  360.82    9.37
   0  -5   3  364.37   12.53
   0  -5   3  390.86   11.06
   0  -5   3  380.59    9.74
   0  -5   2 3226.98   42.45
   0  -5   2 3182.95   41.77
   0  -5   2 3185.97   40.70
   0  -5   2 3146.48   40.57
   0  -5   2 3094.29   46.76
   0  -5   1  121.55    4.52
   0  -5   1  107.07    4.22
   0  -5   1  110.11    4.83
   0  -5   1  109.68    4.34
   0  -5   0    2.44    0.81
   0  -5   0    0.53    0.65
   0  -5  -1  172.57    5.96
   0  -5  -1  171.85    5.49
   0  -5  -1  183.39    6.32
   0  -5  -2 3112.96   40.70
   0  -5  -2 3145.03   41.88
   0  -5  -3 2933.66   39.87
   0  -5  -3 2989.56   38.38
   0  -5  -4  140.43    5.72
   0  -5  -4  135.73    4.80
   0  -5  -5  650.28   11.86
   0  -5  -5  671.51   12.29
   0  -5  -5  651.66   14.17
   0   5   5  631.48   12.40
   0  -5  -5  649.76   12.70
   0  -5  -6 1326.07   19.86
   0   5   6 1350.39   21.84
   0  -5  -6 1392.20   20.24
   0  -5  -6 1357.22   23.37
   0  -5  -6 1301.16   21.66
   0  -5  -7 1764.16   27.36
   0  -5  -7 1720.94   24.41
   0   5   8   51.36    3.68
   0  -5  -9   79.69    5.39
   0   5   9   86.59    4.93
   0   5  10   12.54    2.01
   0  -5 -11   98.90    4.75
   0   5  11  112.38    5.31
   0   5  12    1.58    1.00
   0  -5 -12    0.45    1.00
   0  -5 -12    1.74    1.04
   0  -5 -13  127.58    3.66
   0  -5 -13  118.01    4.01
   0  -6   8   62.75    2.11
   0  -6   7  122.05    4.10
   0  -6   7  123.59    4.72
   0  -6   6  840.53   16.01
   0  -6   6  807.67   15.81
   0  -6   6  813.17   14.84
   0  -6   5   20.06    2.24
   0  -6   5   22.97    2.64
   0  -6   4  490.73   12.90
   0  -6   4  476.90   11.43
   0  -6   3   64.03    3.91
   0  -6   2   93.46    4.54
   0  -6   2   96.72    4.24
   0  -6   2  103.09    4.42
   0  -6   1    8.93    1.39
   0  -6   1    2.59    1.01
   0  -6   1    3.98    1.10
   0  -6   1    6.76    1.36
   0   6   0   24.75    2.36
   0  -6   0   23.06    2.04
   0  -6   0   27.29    2.60
   0  -6   0   25.53    2.31
   0  -6  -1  314.08    8.62
   0  -6  -1  315.09    8.44
   0  -6  -2  247.39    7.99
   0  -6  -3   30.13    2.53
   0  -6  -3   30.64    2.84
   0  -6  -3   32.41    2.54
   0  -6  -4 1453.02   22.81
   0  -6  -4 1490.59   23.17
   0  -6  -4 1440.72   22.24
   0  -6  -5 2946.01   41.80
   0  -6  -5 2885.74   39.41
   0  -6  -5 2913.60   39.09
   0  -6  -5 3006.66   39.41
   0  -6  -6 3558.49   45.65
   0  -6  -6 3511.87   45.30
   0  -6  -6 3492.55   46.75
   0  -6  -6 3562.06   49.26
   0  -6  -7   20.28    2.84
   0  -6  -7   22.31    2.03
   0  -6  -7   25.05    2.92
   0  -6  -7   22.86    1.99
   0  -6  -8  290.63   10.71
   0   6   8  301.99    8.76
   0  -6  -8  290.88    9.76
   0  -6  -9  570.45   14.02
   0   6   9  586.47   13.01
   0  -6 -10   81.49    4.73
   0   6  10   87.24    4.37
   0  -6 -11  125.38    5.07
   0  -6 -11  115.36    5.11
   0  -6 -12    6.12    1.19
   0  -6 -12    7.13    1.19
   0  -6 -13    1.96    0.52
   0  -7   6  161.21    4.08
   0  -7   6  154.58    3.87
   0  -7   5   15.09    1.61
   0  -7   5   18.10    1.56
   0  -7   5   15.83    1.56
   0  -7   5   16.33    1.76
   0  -7   4  605.56   13.05
   0  -7   4  564.33   12.09
   0  -7   4  590.46   11.59
   0  -7   4  589.26   11.32
   0  -7   3  398.77    9.28
   0  -7   3  403.85    9.48
   0  -7   2  455.80   10.30
   0  -7   2  461.26   10.27
   0  -7   1   26.62    2.24
   0  -7   1   27.43    2.35
   0  -7   1   27.21    2.28
   0  -7   0 1174.50   19.76
   0  -7   0 1102.91   17.94
   0  -7   0 1126.70   19.52
   0  -7   0 1146.01   18.26
   0  -7  -1 1217.79   20.57
   0  -7  -1 1191.18   20.50
   0   7   1 1153.21   20.75
   0  -7  -2  131.70    5.56
   0   7   2  139.37    6.12
   0  -7  -3   50.81    3.73
   0  -7  -3   52.89    3.49
   0  -7  -3   49.11    3.36
   0  -7  -4   13.02    1.79
   0  -7  -4    8.65    1.50
   0  -7  -4   10.25    1.87
   0  -7  -5  329.07    8.97
   0  -7  -5  331.34    9.99
   0  -7  -5  332.38    8.90
   0  -7  -6    2.01    1.29
   0  -7  -6    0.25    0.80
   0  -7  -6    0.21    0.81
   0  -7  -6    0.52    0.67
   0  -7  -7  184.70    7.21
   0  -7  -7  190.10    5.94
   0  -7  -8   58.82    3.96
   0  -7  -8   63.54    2.97
   0  -7  -9  119.59    5.36
   0  -7 -10    4.39    1.29
   0  -7 -10    9.71    1.52
   0  -7 -11   61.94    2.99
   0  -7 -11   52.10    2.81
   0  -8   4    3.15    0.50
   0  -8   4    4.60    0.59
   0  -8   3   67.08    2.51
   0  -8   3   65.81    2.42
   0  -8   2    3.09    0.76
   0  -8   2    2.92    1.02
   0  -8   2    2.75    0.76
   0  -8   1  963.95   17.36
   0  -8   1  931.16   14.09
   0  -8   1  921.84   14.01
   0  -8   0    3.45    0.99
   0  -8   0    6.17    1.40
   0  -8  -1  226.47    6.95
   0   8   2  440.40   10.74
   0  -8  -2  442.42   10.47
   0   8   3  786.50   15.89
   0  -8  -3  789.05   15.27
   0  -8  -4  925.09   17.08
   0   8   4 1006.38   18.82
   0  -8  -5   92.96    4.36
   0  -8  -5   95.24    4.71
   0  -8  -6    0.82    0.78
   0  -8  -6    1.26    0.97
   0  -8  -7   69.28    3.22
   0  -8  -7   66.65    3.77
   0  -8  -8  313.47    6.56
   0  -8  -8  327.06    8.35
   0  -8  -9  131.22    4.64
   0   8  10  249.54    6.15
   0  -8 -10  193.37    5.08
   0  -9   1   16.01    1.25
   0  -9   0   69.45    2.92
   0  -9  -1  138.63    4.56
   0   9   1  163.57    5.34
   0  -9  -2  678.88   11.35
   0  -9  -2  621.87   11.59
   0  -9  -4  601.43   11.01
   0   9   4  604.56   11.44
   0   9   5    4.51    1.11
   0  -9  -5    6.03    1.08
   0  -9  -6  592.06   10.29
   0   9   6  616.69   11.79
   0   9   7  325.22    7.60
   0  -9  -7  302.45    5.99
   0   9   8    4.09    0.87
   0  -9  -8    3.88    0.69
   1  -9  -7  108.46    3.01
   1  -9  -6    9.79    0.99
   1  -9  -5  208.54    4.95
   1  -9  -5  225.39    5.13
   1  -9  -4   26.36    1.74
   1  -9  -2  177.34    4.37
   1  -8  -9  119.14    3.23
   1  -8  -8  127.90    3.33
   1  -8  -8  143.72    4.24
   1  -8  -7    7.92    1.07
   1  -8  -6   65.37    3.18
   1  -8  -5  212.93    6.27
   1  -8  -4  693.36   13.22
  -1   8   4  717.99   14.19
  -1   8   3  116.12    4.75
   1  -8  -2  404.55    9.31
   1  -8  -1  109.85    4.30
   1  -8  -1  106.21    4.43
   1  -8   0  139.39    3.91
   1  -8   0  141.13    5.05
   1  -8   1  199.12    4.77
   1  -8   1  201.50    5.93
   1  -8   2  708.17   10.50
   1  -8   2  702.35   12.00
   1  -8   3    2.12    0.45
   1  -8   3    2.15    0.49
   1  -7 -11   59.12    2.44
  -1   7  11   60.02    2.34
   1  -7 -10   55.45    2.78
   1  -7  -9  180.99    5.81
   1  -7  -9  178.14    4.98
   1  -7  -9  194.15    5.75
   1  -7  -8    0.77    0.92
   1  -7  -8    0.79    0.60
   1  -7  -7    9.38    1.67
   1  -7  -7    9.48    1.35
   1  -7  -6    7.94    1.39
   1  -7  -6    5.95    1.41
   1  -7  -5   46.28    3.11
   1  -7  -5   47.78    3.37
   1  -7  -4   34.27    2.78
   1  -7  -4   36.13    2.94
   1  -7  -4   33.94    2.74
   1  -7  -3  959.85   17.77
   1  -7  -3  986.95   17.79
   1  -7  -2   89.15    3.63
  -1   7   2   85.10    4.50
   1  -7  -2   94.58    4.60
   1  -7  -1 2632.58   36.48
   1  -7  -1 2596.75   34.33
   1  -7   0  211.88    6.67
   1  -7   0  212.37    5.99
   1  -7   0  215.51    6.32
   1  -7   1   23.57    2.04
   1  -7   1   27.23    2.22
   1  -7   1   28.74    2.74
   1  -7   1   24.25    2.04
   1  -7   2   13.28    1.60
   1  -7   2   12.59    1.83
   1  -7   2   12.03    1.58
   1  -7   3   83.87    4.32
   1  -7   3   74.31    3.49
   1  -7   3   79.56    3.61
   1  -7   4   56.04    2.82
   1  -7   4   60.74    2.90
   1  -7   4   56.96    3.25
   1  -7   5  407.15    7.58
   1  -7   5  394.78    8.28
   1  -7   5  408.28    7.69
   1  -7   6   79.65    2.28
   1  -7   6   75.91    2.19
   1  -6 -12    9.12    1.13
   1  -6 -11  113.88    4.27
   1  -6 -10  117.00    5.01
   1  -6 -10  135.32    5.23
   1  -6  -9    1.48    1.10
   1  -6  -9    1.66    1.14
   1  -6  -8   89.90    4.90
   1  -6  -7   47.97    3.66
   1  -6  -7   45.91    3.79
   1  -6  -7   45.23    2.75
   1  -6  -6 1375.08   24.93
   1  -6  -6 1374.60   21.40
   1  -6  -6 1384.47   23.74
   1  -6  -5  335.08    8.65
   1  -6  -5  342.75    9.82
   1  -6  -5  351.95    8.95
   1  -6  -5  328.19   10.16
   1  -6  -4 1009.54   18.87
   1  -6  -4 1008.34   19.37
   1  -6  -4 1056.02   18.00
   1  -6  -4 1056.12   18.10
   1  -6  -3  926.15   17.51
   1  -6  -3  929.32   16.77
   1  -6  -3  971.29   17.08
   1  -6  -2  190.38    6.76
   1  -6  -2  178.52    5.43
   1  -6  -1  561.45   11.22
   1  -6  -1  562.59   12.10
   1  -6  -1  549.79   12.11
   1  -6   0 2997.76   39.55
   1  -6   0 3024.85   40.58
   1  -6   0 2986.38   40.54
   1  -6   0 3035.87   39.38
   1  -6   1  368.73    9.35
   1  -6   1  381.17    9.24
   1  -6   1  380.10    9.31
   1  -6   2  758.43   13.87
   1  -6   2  769.94   14.88
   1  -6   2  757.26   14.68
   1  -6   2  796.98   16.85
   1  -6   3 1013.41   19.84
   1  -6   3  986.76   17.76
   1  -6   3  998.75   17.67
   1  -6   4  209.90    7.20
   1  -6   4  239.72    7.23
   1  -6   4  222.79    8.03
   1  -6   4  217.06    7.02
   1  -6   5    1.26    1.00
   1  -6   5    2.20    1.02
   1  -6   5    3.16    1.07
   1  -6   5    2.53    1.03
   1  -6   6   25.65    2.06
   1  -6   6   22.69    2.07
   1  -6   6   23.99    2.02
   1  -6   7    0.91    0.53
  -1   5  12  293.95    6.95
   1  -5 -12  277.12    6.84
   1  -5 -11  179.14    6.19
  -1   5  11  189.46    6.42
  -1   5  11  194.03    5.92
  -1   5  10   13.66    1.95
   1  -5 -10   12.82    1.97
  -1   5   9  371.68   10.19
   1  -5  -9  346.04   10.92
  -1   5   8  818.69   16.32
   1  -5  -8  820.87   18.60
  -1   5   7   47.16    3.24
   1  -5  -7   51.50    3.89
   1  -5  -7   50.97    4.06
   1  -5  -6    1.03    0.79
   1  -5  -6    0.39    0.93
  -1   5   6    2.99    1.05
   1  -5  -6    0.69    0.68
   1  -5  -5 1764.50   28.55
   1  -5  -5 1725.21   27.38
   1  -5  -5 1740.29   24.90
   1  -5  -5 1777.02   25.24
   1  -5  -4   70.68    3.97
   1  -5  -4   68.93    3.42
   1  -5  -4   69.89    3.41
   1  -5  -3 1692.74   24.50
   1  -5  -3 1675.81   25.68
   1  -5  -3 1739.65   24.64
   1  -5  -2  126.64    4.70
   1  -5  -2  132.40    5.20
   1  -5  -2  128.92    4.80
   1  -5  -1  857.38   14.23
   1  -5  -1  852.11   14.93
   1  -5  -1  894.04   15.76
   1  -5  -1  860.27   14.95
   1  -5   0  893.83   15.43
   1  -5   0  856.68   18.41
   1  -5   0  895.17   15.45
   1  -5   0  870.91   14.93
   1  -5   1  387.32    8.92
   1  -5   1  358.59   11.67
   1  -5   1  374.66    8.81
   1  -5   1  372.92    8.78
   1  -5   2 1993.48   28.84
   1  -5   2 2018.49   28.05
   1  -5   2 1914.29   34.44
   1  -5   2 1992.41   27.96
   1  -5   3 8047.16   97.66
   1  -5   3 7995.20   94.99
   1  -5   3 7825.04  103.02
   1  -5   4  484.85   15.87
   1  -5   4  500.26   11.82
   1  -5   5  737.22   15.00
   1  -5   5  751.39   16.12
   1  -5   6  164.82    6.70
   1  -5   7  159.27    6.22
   1  -5   7  158.64    6.15
   1  -5   7  151.11    5.39
   1  -5   8   16.30    1.52
   1  -5   8   15.53    1.50
   1  -5   8   18.83    1.85
  -1   4  13    1.72    0.70
   1  -4 -13    0.85    0.60
   1  -4 -12   73.92    3.56
  -1   4  12   81.16    4.05
   1  -4 -11   47.49    3.32
  -1   4  11   51.90    3.19
   1  -4 -11   51.10    3.74
  -1   4  11   50.23    3.67
   1  -4 -10   65.92    4.47
   1  -4 -10   65.79    4.08
  -1   4  10   72.68    4.56
  -1   4   9  623.24   14.74
   1  -4  -9  631.33   14.98
  -1   4   8    5.14    1.45
   1  -4  -8    5.28    1.71
   1  -4  -7    1.41    1.31
  -1   4   7    1.41    0.94
  -1   4   6 1437.93   22.57
   1  -4  -6 1394.54   23.65
   1  -4  -6 1432.21   20.26
   1  -4  -6 1450.43   24.99
   1  -4  -5 3230.31   39.80
   1  -4  -5 3211.53   43.92
  -1   4   5 3172.56   40.92
   1  -4  -4  187.52    6.08
   1  -4  -4  190.23    5.22
   1  -4  -3 1846.92   24.80
   1  -4  -2  256.75    6.19
   1  -4  -1 1680.20   25.63
   1  -4   0  335.01    7.37
   1  -4   0  325.16    7.25
   1  -4   0  328.39    9.42
   1  -4   1  974.22   14.76
   1  -4   1  927.86   14.68
   1  -4   2 1179.34   17.78
   1  -4   2 1192.86   18.63
   1  -4   3  795.54   19.14
   1  -4   3  836.90   16.26
   1  -4   3  822.67   14.89
   1  -4   4   68.01    5.46
   1  -4   4   64.75    3.76
   1  -4   4   70.41    4.34
   1  -4   5  443.93   15.35
   1  -4   6 1352.40   24.45
   1  -4   6 1364.04   24.38
   1  -4   6 1326.51   29.80
   1  -4   6 1292.25   22.33
   1  -4   7    5.19    1.36
   1  -4   7    6.20    1.69
   1  -4   7    5.69    1.62
   1  -4   8   21.16    2.09
   1  -4  10   77.98    3.09
  -1   3  13   55.07    2.87
  -1   3  12    1.89    1.13
   1  -3 -12    2.02    1.25
   1  -3 -12    3.33    1.14
   1  -3 -11  169.11    6.30
  -1   3  11  182.40    6.21
  -1   3  11  186.85    7.45
   1  -3 -11  178.60    7.26
   1  -3 -10   63.08    4.55
  -1   3  10   60.30    3.75
   1  -3 -10   57.14    3.83
  -1   3  10   55.64    4.05
   1  -3 -10   56.85    4.14
  -1   3  10   61.15    4.44
   1  -3  -9  223.67    8.48
   1  -3  -9  206.09    8.07
   1  -3  -8  252.96    8.96
   1  -3  -8  261.03    8.93
   1  -3  -7  258.72    8.36
   1  -3  -7  265.65    8.88
   1  -3  -6  267.78    7.94
   1  -3  -5 2683.99   37.20
   1  -3  -5 2684.50   32.85
   1  -3  -4  124.09    3.58
   1  -3  -3 2323.39   28.78
   1  -3  -1 6303.82   75.00
   1  -3   0    1.70    0.51
   1  -3   0    2.58    0.58
   1  -3   1  112.45    3.39
   1  -3   1  118.69    3.47
   1  -3   2  582.04   13.36
   1  -3   2  614.69    9.95
   1  -3   2  597.36    9.80
   1  -3   3   13.55    1.13
   1  -3   3   11.94    1.08
   1  -3   3   14.11    2.06
   1  -3   3   12.02    1.51
   1  -3   3   14.59    1.32
   1  -3   4 3381.59   41.42
   1  -3   4 3139.04   48.05
   1  -3   5   49.39    2.89
   1  -3   5   41.89    4.18
   1  -3   5   44.90    2.96
   1  -3   6   18.21    2.09
   1  -3   6   13.65    1.65
   1  -3   6   13.67    1.69
   1  -3   7  105.23    4.91
   1  -3   7  106.34    4.64
   1  -3   7  106.68    5.69
   1  -3   8 1003.35   17.15
   1  -3   8 1041.46   20.64
   1  -3   9  814.24   16.80
   1  -3   9  767.03   13.41
   1  -3  10    9.69    1.53
  -1   2  13    6.56    1.17
   1  -2 -13    5.59    1.19
   1  -2 -12    7.85    1.77
  -1   2  11  574.95   13.95
  -1   2  11  585.31   12.24
   1  -2 -11  598.07   14.35
   1  -2 -10  126.16    5.56
   1  -2 -10  139.11    6.78
  -1   2  10  124.16    6.10
   1  -2 -10  127.67    5.98
  -1   2   9   46.85    3.72
  -1   2   9   47.65    3.29
   1  -2  -9   49.29    3.90
   1  -2  -9   43.98    3.25
   1  -2  -9   49.43    4.13
   1  -2  -8   55.06    4.04
   1  -2  -8   44.11    3.47
   1  -2  -7  799.24   16.33
  -1   2   7  790.09   15.68
   1  -2  -6  360.76    9.03
   1  -2  -6  339.96    9.20
   1  -2  -5  901.50   15.90
   1  -2  -4 3366.16   39.07
   1  -2  -3 2309.39   27.55
   1  -2  -2 1693.86   20.81
   1  -2  -1 6597.91   76.28
   1  -2   0 5060.85   59.86
   1  -2   2  513.77   11.00
   1  -2   2  543.70    8.32
   1  -2   3   97.67    3.08
   1  -2   3   85.27    2.94
   1  -2   4 2307.59   28.84
   1  -2   4 2191.72   26.20
   1  -2   5  232.52    6.23
   1  -2   5  219.18    7.01
   1  -2   6   50.82    4.48
   1  -2   6   48.07    3.41
   1  -2   6   45.48    3.33
   1  -2   6   45.20    2.83
   1  -2   6   45.69    2.87
   1  -2   6   48.01    2.94
   1  -2   7 2241.45   33.63
   1  -2   7 2120.51   30.88
   1  -2   7 2200.66   31.53
   1  -2   7 2138.77   31.17
   1  -2   7 2278.51   39.86
   1  -2   7 2190.94   33.92
   1  -2   8   10.05    1.55
   1  -2   8   10.73    2.05
   1  -2   8   12.50    2.82
   1  -2   8   11.68    1.75
   1  -2   9   29.05    2.57
   1  -2   9   29.67    3.13
   1  -2  10   10.72    1.50
   1  -2  10   12.95    1.97
   1  -2  11  153.06    4.17
  -1   1  13   39.53    1.95
  -1   1  13   42.66    2.26
   1  -1 -13   38.13    2.35
  -1   1  12    1.35    0.97
   1  -1 -12    0.95    1.21
   1  -1 -11  136.16    6.45
  -1   1  11  131.90    5.27
   1  -1 -10  245.57    7.46
  -1   1  10  256.76    8.01
   1  -1  -9 2707.05   37.97
   1  -1  -9 2638.92   39.19
   1  -1  -8 2086.90   29.97
  -1   1   8 2083.99   30.06
  -1   1   8 2126.33   32.09
   1  -1  -8 2107.45   31.51
   1  -1  -7 1174.14   20.37
  -1   1   7 1180.07   20.24
   1  -1  -6 1097.36   18.36
  -1   1   6 1090.82   17.85
   1  -1  -5   91.06    3.91
   1  -1  -4 1024.60   13.05
   1  -1  -4 1127.85   16.43
   1  -1  -3   17.59    1.42
   1  -1  -2  117.30    2.50
   1  -1  -1  572.33    7.70
   1  -1  -1  551.01    9.12
   1  -1  -1  571.91    8.23
   1  -1   1 3945.00   43.50
   1  -1   4 2262.86   28.17
   1  -1   5 2178.15   28.51
   1  -1   6  199.65    6.65
   1  -1   6  190.59    5.89
   1  -1   6  191.93    6.41
   1  -1   7 1261.66   21.56
   1  -1   7 1245.80   21.79
   1  -1   7 1214.39   18.97
   1  -1   7 1234.56   20.40
   1  -1   8   23.76    2.06
   1  -1   8   30.16    2.67
   1  -1   8   24.89    3.50
   1  -1   8   25.81    2.84
   1  -1   9    5.46    1.18
   1  -1   9   10.80    1.99
   1  -1   9    6.65    1.41
   1  -1   9    5.74    2.10
   1  -1  10  240.69    7.67
   1  -1  10  234.18    8.38
   1  -1  11  215.37    6.52
   1  -1  12   29.91    1.78
  -1   1 -12   28.43    2.27
   1   0 -13    3.10    0.81
  -1   0  12  124.62    4.72
   1   0 -12  119.03    5.13
   1   0 -11   30.07    3.21
  -1   0  11   33.24    2.54
  -1   0  10  326.56   10.31
  -1   0  10  320.33    9.02
  -1   0   9    0.80    1.00
  -1   0   9    1.47    0.97
  -1   0   8   44.15    3.08
   1   0  -8   42.83    3.11
  -1   0   8   39.15    2.89
  -1   0   8   43.52    3.46
  -1   0   7   69.34    3.53
  -1   0   7   83.18    3.78
  -1   0   7   81.30    4.25
   1   0  -7   69.39    3.78
  -1   0   7   79.88    4.20
   1   0  -6 5241.74   62.63
  -1   0   6 5035.01   62.75
  -1   0   6 5161.91   62.69
   1   0  -5 1305.66   19.62
   1   0  -4 1095.27   16.18
   1   0  -3  838.94   12.39
   1   0  -2 1725.92   20.43
   1   0  -2 1956.98   22.20
   1   0   0  545.80    7.04
  -1   0   0  554.53    6.33
  -1   0  -3 1986.90   23.84
  -1   0  -4   28.19    1.52
  -1   0  -5 6630.57   75.53
   1   0   5 6613.23   76.49
   1   0   6 3747.51   45.29
   1   0   6 3586.37   43.91
   1   0   7 1132.80   19.06
   1   0   7 1221.16   20.57
   1   0   8  135.35    6.08
   1   0   8  124.75    5.33
   1   0   8  145.42    7.64
   1   0   9  162.37    6.51
   1   0   9  156.22    6.04
   1   0   9  181.19    9.26
   1   0   9  168.84    7.14
   1   0  10  441.30   10.69
   1   0  10  431.33   15.09
   1   0  10  458.81   12.24
   1   0  10  427.47   11.28
   1   0  11    5.17    1.38
  -1   0 -11    2.67    1.61
  -1   0 -12   66.55    3.92
   1   0  12   79.64    3.62
  -1   0 -13    4.73    0.92
   1   0  13    4.55    0.70
  -1  -1  11   66.24    3.17
  -1  -1  11   66.43    3.60
  -1  -1  10  140.05    5.61
  -1  -1  10  145.36    5.74
  -1  -1   9   54.19    3.72
  -1  -1   9   54.92    3.89
  -1  -1   9   57.97    4.20
  -1  -1   9   51.77    3.53
  -1  -1   8   68.80    4.43
  -1  -1   8   68.00    3.91
  -1  -1   8   69.29    4.13
  -1  -1   8   71.23    4.34
  -1  -1   7 1049.06   18.23
  -1  -1   7 1015.62   18.29
  -1  -1   6   40.73    2.71
  -1  -1   6   33.62    2.34
   1   1  -5 1398.27   20.10
  -1  -1   5 1400.51   20.70
  -1  -1   4 4341.49   51.60
   1   1  -4 4280.85   51.06
  -1  -1   2 2787.48   29.81
   1   1  -2 2317.56   28.52
   1   1   0 1212.35   14.80
  -1  -1  -2   37.04    1.33
   1   1   2   36.36    1.46
   1   1   3 1970.70   22.88
   1   1   4  863.43   10.75
  -1  -1  -5   45.45    2.56
  -1  -1  -6   29.09    2.25
   1   1   7   24.29    2.22
  -1  -1  -7   22.24    2.04
   1   1   8 5333.20   64.15
   1   1   8 5415.22   64.40
   1   1   9 3585.86   48.00
   1   1   9 3602.82   49.17
   1   1  10    5.26    1.31
   1   1  10    7.42    1.57
  -1  -1 -10    7.58    2.20
   1   1  11  160.68    6.20
  -1  -1 -11  159.11    7.30
  -1  -1 -12  103.91    5.26
   1   1  13    8.62    1.15
  -1  -1 -13    9.62    1.45
  -1  -2  10   67.41    3.83
  -1  -2   9    1.73    1.09
  -1  -2   9    1.30    1.02
  -1  -2   9    2.08    1.13
  -1  -2   9    1.64    0.92
  -1  -2   8  151.65    6.25
  -1  -2   8  136.91    6.24
  -1  -2   8  136.61    5.82
  -1  -2   8  128.56    6.22
  -1  -2   7 1402.72   23.07
  -1  -2   7 1368.89   22.81
  -1  -2   7 1406.76   23.15
  -1  -2   7 1413.60   24.32
  -1  -2   6    1.28    0.78
  -1  -2   6    4.36    1.07
  -1  -2   6    0.30    0.63
  -1  -2   6    3.09    1.14
  -1  -2   5  227.27    6.36
  -1  -2   5  222.43    6.45
  -1  -2   4 2128.80   24.72
   1   2  -3 1721.64   20.91
  -1  -2   2   16.06    1.29
   1   2   4   40.28    1.73
  -1  -2  -5   44.72    1.56
  -1  -2  -7  138.05    5.82
  -1  -2  -7  128.23    5.67
   1   2   8  259.40    7.95
  -1  -2  -8  272.00    9.09
  -1  -2  -8  247.09    8.34
   1   2   8  245.49    6.34
   1   2   9  128.08    5.82
  -1  -2  -9  126.53    6.50
   1   2   9  113.81    4.34
   1   2  10    2.76    1.32
   1   2  10    1.79    1.04
  -1  -2 -10    2.34    1.72
  -1  -2 -11  517.85   14.01
   1   2  11  547.14   12.98
   1   2  12   23.99    2.31
  -1  -2 -12   15.48    2.38
  -1  -2 -13   26.91    2.34
   1   2  13   30.24    2.20
  -1  -3  10  127.12    4.92
  -1  -3   9  182.59    7.03
  -1  -3   9  184.46    6.43
  -1  -3   9  175.07    6.05
  -1  -3   8 1709.29   27.04
  -1  -3   8 1800.54   29.16
  -1  -3   8 1672.08   26.27
  -1  -3   8 1788.28   27.76
  -1  -3   7   13.47    1.97
  -1  -3   7   10.99    1.66
  -1  -3   7   10.21    1.81
  -1  -3   7   11.96    1.99
  -1  -3   6   37.90    2.98
  -1  -3   6   37.76    3.18
  -1  -3   6   37.20    2.74
  -1  -3   6   38.41    3.12
  -1  -3   5 1421.51   21.75
  -1  -3   5 1400.73   22.34
  -1  -3   5 1431.91   23.06
  -1  -3   5 1451.82   23.36
  -1  -3   4  706.34   13.63
  -1  -3   4  738.72   13.95
  -1  -3   3   19.44    1.31
  -1  -3   2   22.17    1.46
   1   3  -1 2605.59   31.83
   1   3   1  515.86    8.01
  -1  -3  -1  577.28    9.68
  -1  -3  -2 3691.41   44.01
   1   3   2 3583.48   41.73
  -1  -3  -4  236.01    5.10
  -1  -3  -6 8621.63  103.74
  -1  -3  -6 8964.69   98.68
   1   3   6 8773.90  102.47
  -1  -3  -7  108.58    4.56
  -1  -3  -7  108.09    5.26
   1   3   7  109.49    4.79
  -1  -3  -8    0.96    0.84
  -1  -3  -8    0.53    1.11
   1   3   8    0.30    0.53
  -1  -3  -8   -0.30    0.98
   1   3   9  379.01    8.31
  -1  -3  -9  376.01   11.56
  -1  -3 -10   48.97    3.80
   1   3  10   56.06    4.11
  -1  -3 -10   53.27    4.44
   1   3  10   51.67    2.91
   1   3  11  256.14    8.61
  -1  -3 -11  247.79    9.15
   1   3  12   93.74    4.69
  -1  -3 -12   82.66    4.84
   1   3  13  134.47    4.59
  -1  -3 -13  119.15    4.88
  -1  -4  10   54.13    2.54
  -1  -4   9   84.78    4.28
  -1  -4   8    9.13    1.79
  -1  -4   8    9.18    1.65
  -1  -4   8    5.81    1.38
  -1  -4   7  471.02   11.80
  -1  -4   7  446.78   11.52
  -1  -4   7  449.19   11.71
  -1  -4   6  393.63   10.80
  -1  -4   6  402.66   11.70
  -1  -4   6  394.85   11.08
  -1  -4   5  273.05    7.48
  -1  -4   5  304.86    9.28
  -1  -4   5  303.08    9.89
  -1  -4   5  294.61    8.90
  -1  -4   4  405.80   11.14
  -1  -4   4  403.88   10.49
  -1  -4   3   35.54    2.06
  -1  -4   3   40.27    3.15
  -1  -4   3   36.12    2.66
   1   4  -3   36.61    2.37
   1   4  -2 7493.30   88.04
  -1  -4   2 7471.14   87.95
   1   4  -1  284.45    6.25
  -1  -4   1  307.23    8.13
  -1  -4   0  431.64    8.69
   1   4   0  453.93    7.75
  -1  -4  -1   77.01    2.66
   1   4   1   78.04    2.50
  -1  -4  -2 1012.85   15.43
  -1  -4  -3   15.08    1.40
  -1  -4  -3   14.42    1.67
  -1  -4  -4 1442.19   20.18
  -1  -4  -5 1066.80   18.14
   1   4   5 1025.58   16.82
  -1  -4  -5 1082.76   15.98
   1   4   6 3317.45   43.86
  -1  -4  -6 3432.78   41.35
  -1  -4  -6 3399.93   45.47
  -1  -4  -7   88.82    4.36
   1   4   7   87.85    4.43
  -1  -4  -7   83.14    4.78
   1   4   8  178.97    6.93
  -1  -4  -8  168.44    7.78
  -1  -4  -8  173.92    7.31
  -1  -4  -8  191.43    6.88
   1   4   9 1872.70   29.93
  -1  -4  -9 1853.65   29.06
  -1  -4  -9 1821.87   30.77
  -1  -4 -10  350.95   11.24
   1   4  10  356.98   10.73
  -1  -4 -11    4.71    1.82
  -1  -4 -12  110.46    4.45
  -1  -4 -12  122.30    5.69
   1   4  13   27.21    2.10
  -1  -5   9    0.20    0.50
  -1  -5   8   89.89    4.36
  -1  -5   8   87.26    3.89
  -1  -5   7   44.02    3.21
  -1  -5   7   42.94    3.45
  -1  -5   7   38.73    3.03
  -1  -5   6  296.72    9.39
  -1  -5   6  310.67    9.44
  -1  -5   5  558.99   13.72
  -1  -5   5  557.32   13.49
  -1  -5   5  536.28   13.47
  -1  -5   5  542.83   16.83
  -1  -5   5  517.57   12.68
  -1  -5   4 3512.47   48.54
  -1  -5   4 3522.39   48.97
  -1  -5   4 3499.91   53.35
  -1  -5   4 3420.22   47.91
  -1  -5   3 6205.84   78.79
  -1  -5   3 6516.48   83.38
  -1  -5   3 6525.66   80.00
  -1  -5   3 6277.03   74.58
  -1  -5   2  338.03   10.79
  -1  -5   2  337.48    9.77
  -1  -5   2  339.04   10.14
   1   5  -2  340.77    9.27
  -1  -5   1  433.13   10.91
  -1  -5   1  419.39    9.35
   1   5  -1  424.19    9.92
  -1  -5   1  411.23    9.07
  -1  -5   1  409.80   10.61
   1   5   0   17.71    1.84
  -1  -5   0   17.86    1.82
  -1  -5   0   22.05    2.30
  -1  -5   0   19.95    1.89
  -1  -5  -1 5565.11   68.21
  -1  -5  -1 6038.31   69.48
   1   5   1 5559.24   65.01
  -1  -5  -1 5869.57   71.02
  -1  -5  -2  806.09   14.85
  -1  -5  -2  800.99   14.23
  -1  -5  -2  831.38   16.19
  -1  -5  -3 1316.04   21.09
  -1  -5  -3 1300.68   20.10
  -1  -5  -4  327.44    8.89
  -1  -5  -4  323.15    7.88
  -1  -5  -5 1584.97   25.56
   1   5   5 1543.90   23.59
  -1  -5  -5 1567.71   24.18
   1   5   6   70.09    3.88
  -1  -5  -6   77.24    4.11
  -1  -5  -6   75.93    3.51
  -1  -5  -7  927.95   15.04
   1   5   7  924.08   17.69
   1   5   8  309.44    9.53
  -1  -5  -8  306.17    9.39
  -1  -5  -8  302.72   11.07
  -1  -5  -9  385.13   10.86
   1   5   9  410.91   11.40
  -1  -5  -9  375.72   12.64
  -1  -5  -9  380.04   11.75
   1   5  10   30.12    3.07
   1   5  11  204.72    7.47
  -1  -5 -12  307.21    7.94
   1   5  12  333.66    8.71
  -1  -5 -13   37.03    1.94
  -1  -5 -13   35.88    2.38
  -1  -6   8    0.98    0.50
  -1  -6   8    0.78    0.52
  -1  -6   8    0.93    0.49
  -1  -6   7   52.97    3.17
  -1  -6   6    1.84    1.12
  -1  -6   6    1.33    1.06
  -1  -6   6    1.52    0.98
  -1  -6   5  126.07    5.50
  -1  -6   5  122.99    5.82
  -1  -6   4    1.17    1.06
  -1  -6   4    0.84    1.06
  -1  -6   3  957.61   19.12
  -1  -6   3  990.60   18.50
  -1  -6   2   89.04    4.11
  -1  -6   2   82.58    4.34
  -1  -6   2   88.73    4.13
  -1  -6   1  238.42    7.23
  -1  -6   1  240.06    7.30
  -1  -6   1  235.99    8.49
   1   6  -1  241.37    7.81
  -1  -6   0 2532.31   35.50
   1   6   0 2457.68   35.99
  -1  -6   0 2532.31   33.98
  -1  -6  -1   12.38    1.73
  -1  -6  -1   13.70    1.98
  -1  -6  -1    9.40    1.79
  -1  -6  -1    8.92    1.46
  -1  -6  -2  331.44   10.14
  -1  -6  -2  321.78    9.17
  -1  -6  -3  963.28   17.10
  -1  -6  -3  922.04   16.12
  -1  -6  -3  928.68   16.58
  -1  -6  -3  976.81   18.06
  -1  -6  -4 2361.48   33.52
  -1  -6  -4 2481.12   34.02
  -1  -6  -4 2510.94   35.75
  -1  -6  -4 2330.10   33.19
  -1  -6  -5   43.16    3.08
  -1  -6  -5   45.49    3.58
  -1  -6  -6 1359.16   21.41
  -1  -6  -6 1381.38   24.17
  -1  -6  -6 1310.50   22.45
  -1  -6  -6 1283.78   20.64
  -1  -6  -7   12.49    1.52
  -1  -6  -7   11.27    1.84
  -1  -6  -7   11.36    1.48
  -1  -6  -7   12.71    2.23
  -1  -6  -8  214.53    9.42
  -1  -6  -8  221.30    8.00
  -1  -6  -8  213.07    8.33
  -1  -6  -9   30.20    3.17
  -1  -6 -10  408.49   11.53
  -1  -6 -11   63.10    3.99
  -1  -6 -12    3.15    1.04
  -1  -6 -12    3.71    1.06
  -1  -6 -13    0.64    0.48
  -1  -6 -13    0.97    0.60
  -1  -7   6   47.10    2.28
  -1  -7   6   45.41    2.35
  -1  -7   6   42.28    2.08
  -1  -7   5   65.24    3.60
  -1  -7   5   68.79    3.29
  -1  -7   5   66.70    3.54
  -1  -7   4   28.18    2.64
  -1  -7   4   28.20    2.39
  -1  -7   3    0.69    1.04
  -1  -7   3    1.54    0.95
  -1  -7   2    1.51    0.96
  -1  -7   2    3.17    1.32
  -1  -7   1   36.77    2.69
  -1  -7   1   37.68    2.78
  -1  -7   1   41.48    2.92
  -1  -7   1   35.86    3.19
   1   7  -1   34.04    2.82
   1   7   0   39.73    3.24
  -1  -7   0   44.28    3.18
  -1  -7   0   40.48    3.03
  -1  -7   0   41.78    3.53
   1   7   1 1843.04   29.15
  -1  -7  -1 1819.19   28.22
  -1  -7  -1 1806.07   30.09
  -1  -7  -1 1789.63   27.75
  -1  -7  -2  995.16   18.71
   1   7   2 1015.07   19.51
  -1  -7  -3  747.29   15.45
  -1  -7  -3  712.94   14.86
  -1  -7  -4    9.15    1.58
  -1  -7  -4   13.21    1.68
  -1  -7  -4   10.67    1.66
  -1  -7  -5    8.28    1.56
  -1  -7  -5    7.26    1.42
  -1  -7  -5    8.40    1.50
  -1  -7  -5    8.12    1.86
  -1  -7  -6  253.35    8.91
  -1  -7  -6  256.07    8.13
  -1  -7  -6  258.30    7.77
  -1  -7  -6  263.80    7.73
  -1  -7  -7   13.61    1.99
  -1  -7  -7    9.51    1.43
  -1  -7  -7    9.31    1.99
  -1  -7  -7   10.46    1.48
  -1  -7  -8   44.43    3.66
  -1  -7  -9   53.87    3.83
  -1  -7 -10  115.77    5.20
  -1  -7 -11   87.82    4.01
  -1  -7 -12    7.56    1.07
  -1  -7 -12    8.73    1.15
  -1  -8   4    2.38    0.58
  -1  -8   4    3.47    0.83
  -1  -8   4    1.50    0.45
  -1  -8   4    2.45    0.69
  -1  -8   3  613.53   10.19
  -1  -8   3  638.32   12.16
  -1  -8   2  570.48   10.33
  -1  -8   2  562.78    9.71
  -1  -8   1   27.25    1.90
   1   8  -1   28.03    2.52
  -1  -8   1   27.01    2.67
  -1  -8   0   30.28    2.46
   1   8   1   17.55    2.15
  -1  -8  -1   17.86    2.06
  -1  -8  -2  207.80    7.10
   1   8   2  213.36    7.64
   1   8   3   98.55    5.24
  -1  -8  -3   90.12    4.66
   1   8   4  768.25   16.38
  -1  -8  -4  739.30   14.97
   1   8   5  564.40   13.60
  -1  -8  -5  528.49   11.98
  -1  -8  -6   66.89    3.60
  -1  -8  -7   25.18    2.10
   1   8   9  589.13   12.33
   1   8  10    3.30    0.94
  -1  -8 -11   35.57    1.87
   1   9   0  393.53    8.54
   1   9   1  588.91   12.21
  -1  -9  -1  535.02   11.36
   1   9   2    0.20    0.65
  -1  -9  -2    2.72    0.93
   1   9   2    1.18    1.09
   1   9   3    1.01    0.84
   1   9   4  176.87    6.15
  -1  -9  -4  169.44    5.55
  -1  -9  -5   30.91    2.35
   1   9   5   38.47    2.86
   1   9   6    5.44    1.28
  -1  -9  -6    6.04    1.17
   1   9   7  242.22    6.99
   1   9   7  250.24    7.18
  -1  -9  -8   47.95    1.83
   1   9   8   65.87    3.23
   1   9   9    0.93    0.57
  -1 -10  -3  233.94    4.46
  -1 -10  -5   91.49    2.60
   2  -9  -5   14.25    0.86
   2  -9  -4   16.37    0.98
   2  -9  -3  113.38    2.68
   2  -8  -8   62.32    2.24
   2  -8  -7    7.47    0.99
   2  -8  -7    6.91    0.83
   2  -8  -6    0.82    0.59
   2  -8  -6    1.53    0.75
  -2   8   5   24.02    1.93
   2  -8  -5   25.27    1.87
   2  -8  -4  156.38    4.79
   2  -8  -4  156.34    4.91
   2  -8  -3   95.84    3.55
   2  -8  -2    3.77    0.90
   2  -8  -1   27.44    1.89
   2  -8  -1   26.07    1.43
   2  -8   0   89.12    2.70
   2  -8   1  461.60    7.32
   2  -8   2    9.80    0.74
   2  -7  -9   18.80    1.33
   2  -7  -8  146.69    4.54
   2  -7  -7   82.36    3.68
   2  -7  -7   78.54    3.24
   2  -7  -6  121.92    4.52
   2  -7  -5    1.57    0.90
   2  -7  -4   53.86    3.28
   2  -7  -3  156.50    4.68
   2  -7  -3  167.61    5.89
   2  -7  -2  221.50    5.89
   2  -7  -1  168.21    5.83
   2  -7  -1  169.16    5.20
   2  -7   0  117.35    4.08
   2  -7   0  114.64    4.27
   2  -7   0  113.44    4.53
   2  -7   1  225.13    5.92
   2  -7   1  227.57    6.21
   2  -7   2  106.86    4.01
   2  -7   2  108.79    3.91
   2  -7   3  146.71    4.40
   2  -7   3  149.24    4.53
   2  -7   4  361.59    7.00
   2  -7   4  373.23    7.08
   2  -7   5    7.62    0.77
   2  -7   5    8.59    0.79
   2  -6 -11   27.07    1.79
  -2   6  11   29.55    1.83
   2  -6 -10   55.40    2.93
   2  -6  -9  153.61    5.29
   2  -6  -9  129.60    4.13
   2  -6  -8   80.90    3.96
   2  -6  -8   83.61    3.74
   2  -6  -7  170.85    5.98
   2  -6  -7  180.76    6.02
   2  -6  -7  177.15    5.39
   2  -6  -6 1196.92   18.99
   2  -6  -6 1202.25   19.04
   2  -6  -6 1161.02   19.24
   2  -6  -6 1176.40   19.75
   2  -6  -5 2175.69   31.19
   2  -6  -5 2197.59   30.82
   2  -6  -4  668.83   13.23
   2  -6  -4  665.83   13.25
   2  -6  -4  641.75   11.65
   2  -6  -3  295.95    7.27
   2  -6  -3  292.11    8.13
   2  -6  -2   38.98    2.58
   2  -6  -1  501.83   10.08
   2  -6  -1  499.78   11.18
   2  -6  -1  507.66   10.65
   2  -6   0   93.02    4.36
   2  -6   0   93.73    4.55
   2  -6   0   99.19    4.34
   2  -6   0   94.63    4.07
   2  -6   1  431.39    9.96
   2  -6   1  437.81    9.86
   2  -6   1  415.85   10.04
   2  -6   1  424.75   10.70
   2  -6   1  456.31   10.22
   2  -6   2   56.56    3.34
   2  -6   2   59.24    3.72
   2  -6   2   54.93    3.32
   2  -6   3  794.88   14.75
   2  -6   3  817.79   14.88
   2  -6   3  801.14   15.87
   2  -6   4   50.45    3.28
   2  -6   4   50.18    3.04
   2  -6   4   50.23    3.03
   2  -6   5  263.33    6.74
   2  -6   5  254.64    7.10
   2  -6   5  251.97    6.54
   2  -6   6   94.02    3.38
   2  -6   7   94.84    2.53
  -2   5  12    0.18    0.49
  -2   5  11   28.54    1.93
  -2   5  11   30.80    2.18
   2  -5 -11   27.40    2.20
  -2   5  10   14.60    1.67
   2  -5  -9   44.79    3.15
   2  -5  -9   46.89    3.32
  -2   5   9   43.90    2.92
   2  -5  -9   39.00    2.28
   2  -5  -8    0.29    0.99
   2  -5  -8    0.17    0.82
   2  -5  -7  931.73   17.17
   2  -5  -7  949.44   18.74
   2  -5  -7  931.80   17.53
   2  -5  -6  192.77    6.09
   2  -5  -6  205.90    7.48
   2  -5  -6  193.87    6.78
   2  -5  -6  200.05    5.97
   2  -5  -5   96.65    4.90
   2  -5  -5   93.68    4.48
   2  -5  -5   99.13    4.18
   2  -5  -4   56.10    3.46
   2  -5  -4   56.44    2.83
   2  -5  -4   55.67    3.32
   2  -5  -3  900.72   15.70
   2  -5  -3  890.36   14.58
   2  -5  -3  858.29   15.65
   2  -5  -2 1168.04   18.92
   2  -5  -2 1148.47   17.91
   2  -5  -2 1133.31   18.49
   2  -5  -1  330.26    7.62
   2  -5  -1  332.18    8.48
   2  -5  -1  337.72    8.07
   2  -5   0    2.47    1.17
   2  -5   0    2.87    0.92
   2  -5   0    0.94    0.77
   2  -5   0    1.78    0.88
   2  -5   1  278.25    7.54
   2  -5   1  284.74    7.61
   2  -5   1  286.49    7.72
   2  -5   1  268.48    8.12
   2  -5   1  279.89   10.91
   2  -5   1  281.84    7.16
   2  -5   2 3961.91   50.16
   2  -5   2 3934.98   50.63
   2  -5   2 3938.46   50.69
   2  -5   2 4030.26   49.27
   2  -5   2 3949.10   49.74
   2  -5   2 4032.97   60.12
   2  -5   2 3944.19   52.22
   2  -5   3   32.43    4.17
   2  -5   3   39.17    2.97
   2  -5   3   40.08    3.27
   2  -5   3   44.10    3.14
   2  -5   3   40.86    2.60
   2  -5   3   37.69    2.82
   2  -5   3   36.68    2.40
   2  -5   4  436.01   10.55
   2  -5   4  410.93   15.09
   2  -5   4  437.67   11.53
   2  -5   4  433.35   10.39
   2  -5   4  440.02    9.23
   2  -5   5  337.16    8.95
   2  -5   5  343.74    9.86
   2  -5   5  321.89    8.97
   2  -5   6  158.01    6.06
   2  -5   6  141.72    5.57
   2  -5   7   10.61    1.38
   2  -5   7   13.00    1.47
   2  -5   7   12.43    1.43
   2  -5   8  501.33    8.28
   2  -5   8  511.82    8.50
  -2   4  12    3.61    0.96
  -2   4  12    4.26    0.92
   2  -4 -11  194.35    6.33
  -2   4  11  197.57    6.48
  -2   4  11  208.16    6.27
  -2   4  10   19.82    2.27
   2  -4 -10   19.03    2.30
   2  -4  -9   29.48    3.04
  -2   4   9   36.80    3.13
   2  -4  -8  101.89    5.49
   2  -4  -8  101.68    5.04
  -2   4   8  114.32    5.36
   2  -4  -8   98.51    3.96
  -2   4   7  107.27    4.94
   2  -4  -7  100.25    5.33
   2  -4  -6   15.20    1.54
   2  -4  -6   16.95    2.16
   2  -4  -6   12.27    1.35
   2  -4  -5  458.54   10.58
   2  -4  -5  461.76    9.34
   2  -4  -5  479.86   11.51
   2  -4  -4 2726.78   36.85
   2  -4  -4 2616.64   35.62
   2  -4  -3    1.73    0.74
   2  -4  -3    4.74    1.06
   2  -4  -2 1866.84   25.24
   2  -4  -2 1819.55   24.89
   2  -4  -2 1795.29   24.58
   2  -4  -1 2550.64   37.05
   2  -4  -1 2438.78   34.18
   2  -4   0 5217.29   63.27
   2  -4   0 5226.04   65.74
   2  -4   0 5371.97   70.06
   2  -4   0 5370.61   63.00
   2  -4   1  349.77    8.02
   2  -4   1  338.53    7.83
   2  -4   1  357.40    9.41
   2  -4   1  341.23    8.06
   2  -4   1  331.93   11.45
   2  -4   1  342.81    8.07
   2  -4   1  349.46    7.79
   2  -4   2    5.40    1.08
   2  -4   2    7.61    1.35
   2  -4   2    4.62    1.60
   2  -4   2   11.59    1.39
   2  -4   2    5.02    1.02
   2  -4   2   11.16    1.44
   2  -4   3  445.09   10.15
   2  -4   3  434.99   14.45
   2  -4   3  436.94    9.50
   2  -4   3  437.78    9.59
   2  -4   3  440.54   10.97
   2  -4   3  428.89    9.07
   2  -4   4 2141.56   39.75
   2  -4   4 2274.59   30.52
   2  -4   4 2209.07   31.81
   2  -4   4 2300.34   33.92
   2  -4   4 2192.49   32.42
   2  -4   4 2200.08   30.86
   2  -4   5 1949.53   27.81
   2  -4   5 1860.32   37.05
   2  -4   5 1897.14   29.90
   2  -4   6  157.48    6.02
   2  -4   6  158.82    6.82
   2  -4   6  154.68    6.48
   2  -4   6  160.84    5.50
   2  -4   7   10.00    1.60
   2  -4   7    6.34    1.52
   2  -4   7    6.89    1.19
   2  -4   8   33.18    2.31
   2  -4   8   34.92    2.74
   2  -4   8   34.25    1.90
   2  -4   8   33.03    2.25
   2  -4   9   80.09    3.53
  -2   3  13   87.59    3.00
  -2   3  12   90.36    3.63
  -2   3  12   85.45    3.99
  -2   3  11    2.68    1.03
   2  -3 -11    2.54    1.24
  -2   3  11    1.79    1.05
   2  -3 -11    1.75    1.19
   2  -3 -10  121.50    5.45
  -2   3  10  123.64    5.34
  -2   3  10  127.67    6.04
   2  -3 -10  126.38    5.81
   2  -3  -9  227.08    7.73
   2  -3  -9  235.78    8.20
   2  -3  -9  231.52    8.51
   2  -3  -8 1976.96   30.05
   2  -3  -8 2046.44   31.16
   2  -3  -7  121.37    5.44
   2  -3  -7  122.93    5.77
   2  -3  -6   29.54    1.89
   2  -3  -6   33.18    2.86
   2  -3  -6   30.90    2.59
   2  -3  -5   46.17    2.90
   2  -3  -5   46.18    3.24
   2  -3  -5   45.12    2.39
   2  -3  -4  666.44   12.96
   2  -3  -3 1708.11   24.29
   2  -3  -2 4708.90   55.70
   2  -3  -2 4714.67   55.98
   2  -3  -1 3543.06   41.78
   2  -3  -1 3468.57   47.11
   2  -3   0  801.03   12.92
   2  -3   0  837.38   17.12
   2  -3   1  149.72    5.34
   2  -3   1  159.74    6.91
   2  -3   2 1780.18   25.53
   2  -3   2 1782.39   30.35
   2  -3   3 5625.78   65.64
   2  -3   3 5414.37   64.68
   2  -3   3 5433.90   66.98
   2  -3   3 5253.83   72.05
   2  -3   3 5567.14   64.27
   2  -3   4   89.60    5.99
   2  -3   4   87.66    4.29
   2  -3   4   95.62    3.94
   2  -3   4   95.02    3.88
   2  -3   4   96.90    4.12
   2  -3   5   19.19    1.81
   2  -3   5   17.30    1.96
   2  -3   5   22.91    2.47
   2  -3   5   16.54    2.06
   2  -3   5   18.41    2.98
   2  -3   6 1949.32   29.08
   2  -3   6 1985.61   29.12
   2  -3   6 1940.90   31.01
   2  -3   7   34.23    2.76
   2  -3   7   39.31    3.47
   2  -3   7   36.24    2.83
   2  -3   7   34.54    3.32
   2  -3   8  709.50   13.67
   2  -3   8  741.20   16.16
   2  -3   8  749.74   13.93
   2  -3   9  213.38    5.83
   2  -3  10    0.58    0.43
  -2   2  13   10.77    1.19
  -2   2  12    6.91    1.46
   2  -2 -12    5.77    1.27
  -2   2  12    6.29    1.19
   2  -2 -11  127.42    5.63
  -2   2  11  142.00    5.47
  -2   2  11  139.25    6.11
   2  -2 -10    4.58    1.41
   2  -2 -10    2.17    1.47
  -2   2  10    3.17    1.17
   2  -2  -9   72.66    4.31
   2  -2  -9   72.62    4.56
  -2   2   9   74.63    4.25
  -2   2   9   66.89    4.29
  -2   2   8    5.90    1.49
   2  -2  -8    5.10    1.49
   2  -2  -8    5.10    1.61
   2  -2  -8    3.64    1.28
   2  -2  -7   84.14    4.73
   2  -2  -7   76.58    3.95
  -2   2   7   77.37    4.37
   2  -2  -7   82.83    4.44
   2  -2  -6 2897.20   37.97
  -2   2   6 2713.45   37.75
   2  -2  -5 7267.93   82.96
   2  -2  -5 7429.83   86.88
   2  -2  -4  417.55    7.70
   2  -2  -4  445.98    9.53
   2  -2  -3    9.52    1.21
   2  -2  -2 1575.61   21.22
   2  -2  -1  727.85   10.80
   2  -2  -1  742.96   14.18
   2  -2   0 6354.93   79.29
   2  -2   0 6578.89   72.34
   2  -2   1 6540.93   79.75
   2  -2   2  313.89    6.25
   2  -2   3 1809.85   23.26
   2  -2   4  750.50   13.97
   2  -2   4  776.97   11.22
   2  -2   4  717.99   13.50
   2  -2   4  753.42   17.51
   2  -2   4  747.63   13.93
   2  -2   5  310.02    7.27
   2  -2   5  283.95    7.32
   2  -2   5  303.36    7.37
   2  -2   5  295.91    8.46
   2  -2   5  299.62   11.13
   2  -2   5  300.59    8.40
   2  -2   5  288.92    7.57
   2  -2   6 2481.35   33.52
   2  -2   6 2467.05   36.37
   2  -2   6 2567.79   36.68
   2  -2   6 2576.25   33.70
   2  -2   6 2582.65   43.29
   2  -2   6 2450.93   33.94
   2  -2   6 2485.73   34.75
   2  -2   7  289.27    7.91
   2  -2   7  292.42    7.48
   2  -2   7  294.03    9.67
   2  -2   7  284.28   12.38
   2  -2   7  290.41    8.45
   2  -2   8  236.11    6.98
   2  -2   8  240.24    7.67
   2  -2   8  228.81   11.21
   2  -2   9  177.06    7.27
   2  -2   9  183.73    6.37
   2  -2  10    5.19    1.16
   2  -2  10    6.98    1.49
   2  -2  11    1.79    0.62
  -2   2 -11    0.83    0.64
  -2   1  13   81.61    2.89
   2  -1 -12  504.29   10.80
  -2   1  12  610.99   10.88
  -2   1  11  258.85    7.60
   2  -1 -11  240.06    7.96
   2  -1 -10   11.63    2.27
  -2   1  10   12.53    1.92
   2  -1  -9    6.05    2.00
   2  -1  -9    1.67    1.16
   2  -1  -9    5.78    1.56
  -2   1   9    2.13    1.38
  -2   1   9    0.96    1.10
  -2   1   9    1.30    1.08
   2  -1  -8  580.27   12.76
  -2   1   8  613.31   14.42
   2  -1  -8  596.44   13.69
  -2   1   8  581.25   13.49
  -2   1   7  727.18   15.08
   2  -1  -7  731.54   15.03
   2  -1  -7  734.58   13.94
  -2   1   7  693.99   14.34
   2  -1  -6   83.37    4.28
  -2   1   6   76.31    3.91
   2  -1  -5  437.75    9.81
   2  -1  -4  135.53    3.44
   2  -1  -2 1196.11   16.47
   2  -1  -2 1214.86   15.76
   2  -1  -1  459.62    7.54
   2  -1  -1  485.38    7.59
   2  -1   0   90.92    1.71
   2  -1   0   89.20    2.07
   2  -1   2 1301.89   21.39
   2  -1   2 1421.34   17.80
   2  -1   3 1260.15   16.91
   2  -1   3 1236.09   21.54
   2  -1   4 1620.78   27.88
   2  -1   4 1811.11   22.12
   2  -1   5   95.43    4.17
   2  -1   5   90.56    4.09
   2  -1   5   91.19    5.39
   2  -1   5  102.69    3.36
   2  -1   6  115.01    4.57
   2  -1   6  126.36    6.92
   2  -1   6  121.54    4.23
   2  -1   6  118.29    4.43
   2  -1   6  127.06    4.22
   2  -1   6  130.09    5.35
   2  -1   7  190.05    5.79
   2  -1   7  204.35    5.91
   2  -1   7  202.40    6.15
   2  -1   7  200.21    9.56
   2  -1   7  199.94    5.85
   2  -1   7  186.73    6.45
   2  -1   8  427.21    9.42
   2  -1   8  422.77   15.10
   2  -1   8  428.08   12.10
   2  -1   8  457.94    9.95
   2  -1   8  427.06   10.90
   2  -1   9  624.19   13.74
   2  -1   9  629.01   15.15
   2  -1   9  601.78   18.75
   2  -1  10   32.81    3.14
   2  -1  10   30.77    2.71
   2  -1  11    5.73    1.19
  -2   1 -11    5.96    1.40
   2  -1  12   69.85    2.58
  -2   0  12    6.38    0.83
  -2   0  12    7.68    1.29
   2   0 -12    6.62    1.29
   2   0 -11  306.46    9.00
  -2   0  11  312.93    8.31
  -2   0  10   33.43    2.92
   2   0 -10   26.81    3.08
  -2   0   9 2198.55   33.13
  -2   0   9 2218.61   34.25
  -2   0   8    8.93    1.64
  -2   0   8    6.79    1.48
   2   0  -7  481.69   10.54
   2   0  -7  464.86   11.14
  -2   0   7  458.06   11.55
  -2   0   7  450.87   11.11
   2   0  -6  158.44    5.75
  -2   0   6  159.64    5.80
  -2   0   6  153.10    5.59
  -2   0   5  767.94   13.69
   2   0  -5  846.40   14.41
   2   0  -4  390.59    8.11
  -2   0   4  360.06    7.62
  -2   0   3  357.92    6.83
   2   0  -2 2685.52   30.77
  -2   0   2 2556.46   30.94
   2   0   2 1974.61   27.09
   2   0   3   12.35    1.51
   2   0   3   14.66    0.81
  -2   0  -4 5921.98   66.50
   2   0   4 5976.75   73.05
   2   0   4 6049.95   67.43
   2   0   5  211.88    7.51
   2   0   5  208.36    4.98
   2   0   6  399.37   11.66
   2   0   6  376.79    8.00
   2   0   7   21.45    1.96
   2   0   7   20.71    1.65
   2   0   7   21.82    1.81
   2   0   7   22.61    2.98
   2   0   7   18.15    1.68
   2   0   8  730.03   13.70
   2   0   8  701.55   13.67
   2   0   8  713.92   12.48
   2   0   8  693.50   13.08
   2   0   8  731.15   15.98
   2   0   8  727.89   19.30
   2   0   9 1199.79   19.47
   2   0   9 1156.13   26.54
   2   0   9 1187.12   22.40
   2   0  10   93.75    5.32
   2   0  10   88.96    3.82
   2   0  10   80.71    4.56
  -2   0 -11  106.02    5.25
   2   0  11  127.85    5.29
  -2   0 -12   67.63    3.41
   2   0  12   82.63    3.54
   2   0  13    1.14    0.43
   2   1 -12    5.15    1.01
  -2  -1  11    2.40    1.05
   2   1 -11    3.09    1.36
  -2  -1  10   99.06    4.86
  -2  -1  10   95.64    5.15
  -2  -1   9   43.40    3.64
  -2  -1   9   54.49    3.76
  -2  -1   9   52.47    3.97
  -2  -1   8  821.86   16.48
  -2  -1   8  839.95   17.57
  -2  -1   8  829.40   17.57
  -2  -1   7    2.39    1.06
  -2  -1   7    1.69    1.10
  -2  -1   6    5.02    1.25
  -2  -1   5   10.91    1.46
  -2  -1   4 2471.10   31.73
   2   1  -3  642.67   10.44
  -2  -1   3  678.81   10.84
   2   1  -2 1703.85   21.23
  -2  -1   2 1559.44   20.73
  -2  -1   1  178.97    3.74
   2   1  -1  164.33    4.04
   2   1   0  269.67    5.31
  -2  -1  -1   21.41    1.03
   2   1   1   19.75    1.55
   2   1   2 6200.54   72.36
   2   1   4   19.14    1.30
   2   1   4   17.32    1.69
   2   1   5  264.15    7.72
   2   1   6  508.89   10.80
   2   1   6  533.81   12.53
   2   1   7 1608.49   23.88
   2   1   7 1685.45   23.74
   2   1   7 1608.73   25.67
   2   1   8  136.10    5.06
   2   1   8  135.02    6.04
   2   1   8  137.65    7.19
   2   1   8  132.72    5.14
   2   1   8  124.66    5.10
   2   1   9  396.33    9.78
   2   1   9  376.28    9.83
  -2  -1 -10   18.57    2.67
   2   1  10   19.43    2.01
   2   1  10   16.57    1.92
   2   1  11   33.43    2.94
   2   1  11   36.13    2.37
  -2  -1 -11   30.97    3.15
  -2  -1 -12   60.42    3.65
   2   1  12   68.64    3.62
   2   1  13  134.85    3.97
  -2  -1 -13   96.86    3.40
   2   2 -11   67.93    3.56
  -2  -2  10   27.81    2.52
  -2  -2   9  344.13   10.18
  -2  -2   9  324.95    8.94
  -2  -2   9  349.22    9.84
  -2  -2   8   84.65    4.79
  -2  -2   8   85.08    5.06
  -2  -2   8   82.51    4.43
  -2  -2   8   84.22    4.93
  -2  -2   7  435.71   11.16
  -2  -2   7  448.00   11.95
  -2  -2   7  454.68   11.56
   2   2  -6  410.22    9.62
  -2  -2   6  406.33    9.33
  -2  -2   5  371.47    9.40
   2   2  -5  340.03    8.28
   2   2  -4 2727.56   35.60
  -2  -2   4 3275.97   38.98
   2   2  -3  779.59   12.26
  -2  -2   3  868.41   13.79
  -2  -2   2   34.29    2.01
   2   2  -2   33.54    1.76
   2   2   0 3250.20   38.86
   2   2   1 1363.69   17.72
   2   2   1 1324.21   17.37
  -2  -2  -1 1368.10   17.97
   2   2   2    4.09    0.63
   2   2   2    4.25    0.63
   2   2   3   10.51    1.09
  -2  -2  -3   10.94    1.05
   2   2   3   10.51    0.93
   2   2   4 5359.84   61.97
   2   2   4 5163.42   60.10
   2   2   5 9999.00  108.05
   2   2   5 9085.30  105.15
   2   2   6 1873.83   27.29
   2   2   7  155.51    4.95
   2   2   7  157.67    5.43
   2   2   7  153.30    6.13
  -2  -2  -7  161.18    6.11
  -2  -2  -8    9.64    1.61
   2   2   8   10.34    1.56
  -2  -2  -8    9.91    1.96
   2   2   9  248.24    7.87
   2   2   9  231.28    7.81
  -2  -2  -9  229.99    8.59
   2   2  10   59.90    3.81
  -2  -2 -10   64.00    4.56
   2   2  10   54.64    3.67
   2   2  11   23.19    2.10
  -2  -2 -11   20.38    2.70
   2   2  11   22.20    2.25
  -2  -2 -12   24.65    2.60
   2   2  12   27.77    1.89
  -2  -2 -13   31.70    2.20
   2   2  13   38.56    2.33
   2   3 -11    9.49    1.18
  -2  -3  10   21.67    1.94
  -2  -3   9   65.19    3.54
  -2  -3   9   49.73    3.23
  -2  -3   9   62.28    3.82
  -2  -3   9   51.31    3.30
  -2  -3   8  663.13   14.55
  -2  -3   8  671.13   14.57
  -2  -3   8  669.97   14.91
  -2  -3   7  331.86    8.97
  -2  -3   7  347.27   10.15
  -2  -3   6    7.59    1.39
  -2  -3   6    7.13    1.54
  -2  -3   6    4.31    1.44
   2   3  -5    5.23    1.13
  -2  -3   5    4.41    1.06
  -2  -3   5    5.73    1.37
  -2  -3   4 2090.09   26.66
  -2  -3   4 2107.81   29.19
  -2  -3   4 2116.84   29.84
   2   3  -4 2135.51   29.78
  -2  -3   4 2138.67   30.76
  -2  -3   3 2384.99   32.49
   2   3  -3 2356.11   30.18
   2   3  -2 2282.20   28.72
   2   3  -1  279.22    6.50
   2   3   0 4958.52   58.86
  -2  -3   0 5102.23   60.35
   2   3   2 1368.53   18.29
  -2  -3  -3    8.71    1.14
  -2  -3  -4  979.37   15.55
   2   3   5  105.42    3.38
  -2  -3  -6 1762.75   22.30
   2   3   6 1729.25   24.58
  -2  -3  -6 1802.82   25.81
  -2  -3  -7 1029.96   18.75
  -2  -3  -7 1046.81   17.82
   2   3   7 1009.14   17.68
   2   3   8 1717.97   26.32
   2   3   8 1670.14   24.31
  -2  -3  -8 1721.17   25.95
  -2  -3  -8 1737.75   27.84
   2   3   9  137.12    5.05
  -2  -3  -9  141.92    5.79
  -2  -3  -9  135.47    6.52
   2   3   9  138.43    5.97
   2   3  10  276.39    7.55
   2   3  10  305.10    9.23
  -2  -3 -10  284.82    9.82
  -2  -3 -11  110.31    5.83
   2   3  11  118.96    5.48
   2   3  12  509.72   10.07
   2   3  12  521.35   11.07
   2   3  13    0.77    0.78
  -2  -3 -13    0.80    0.91
  -2  -4   9  118.06    4.61
  -2  -4   9  139.30    5.08
  -2  -4   8  313.19    8.89
  -2  -4   8  341.16    9.47
  -2  -4   8  321.07    9.23
  -2  -4   7   34.48    2.79
  -2  -4   7   34.89    3.20
  -2  -4   7   35.73    2.81
  -2  -4   6   62.10    4.20
  -2  -4   6   56.35    3.62
  -2  -4   6   56.35    3.67
  -2  -4   5  159.33    6.25
  -2  -4   4  555.86   12.23
   2   4  -4  527.71   11.76
  -2  -4   3  226.73    5.99
   2   4  -3  244.81    7.21
  -2  -4   3  241.71    7.39
   2   4  -3  234.68    6.19
   2   4  -2    3.23    0.99
   2   4  -2    2.06    0.86
   2   4  -1 7033.03   81.76
  -2  -4   1 6902.03   84.46
   2   4   0 3679.97   45.52
  -2  -4   0 3788.91   48.28
   2   4   1 2332.31   30.04
  -2  -4  -1 2440.62   32.61
   2   4   2 2164.42   27.58
  -2  -4  -2 2150.73   30.40
  -2  -4  -3 3157.90   41.55
  -2  -4  -4 5741.20   69.81
   2   4   5 1731.79   25.05
  -2  -4  -5 1767.06   24.57
  -2  -4  -6 1283.61   18.63
   2   4   6 1281.33   18.75
   2   4   6 1263.99   20.46
  -2  -4  -6 1292.89   21.38
   2   4   7   70.48    3.92
  -2  -4  -7   68.37    4.25
  -2  -4  -7   69.63    3.98
  -2  -4  -8   74.26    4.66
  -2  -4  -8   81.37    4.49
  -2  -4  -9  260.39    8.51
   2   4   9  253.78    6.99
  -2  -4  -9  239.79    9.56
  -2  -4  -9  266.55    9.33
   2   4  10  209.46    6.15
  -2  -4 -10  223.71    8.54
   2   4  10  234.31    8.21
   2   4  11   78.14    4.50
  -2  -4 -11   66.35    4.53
  -2  -4 -12    4.90    1.06
  -2  -4 -12    4.35    1.49
   2   4  12    6.60    1.41
   2   4  13  157.05    4.05
   2   4  13  172.63    4.79
  -2  -5   8   27.04    2.20
  -2  -5   8   25.59    2.20
  -2  -5   8   22.48    2.10
  -2  -5   7   52.34    3.13
  -2  -5   7   54.98    3.72
  -2  -5   7   59.52    3.87
  -2  -5   6  154.37    6.14
  -2  -5   6  161.16    6.86
  -2  -5   5 1338.01   23.09
  -2  -5   5 1308.62   21.31
  -2  -5   5 1345.35   25.59
  -2  -5   4   30.42    2.91
  -2  -5   4   34.84    3.51
   2   5  -4   31.79    2.68
  -2  -5   3 1217.25   18.79
  -2  -5   3 1212.47   23.47
  -2  -5   3 1191.15   21.61
   2   5  -3 1188.02   20.06
   2   5  -3 1176.56   20.66
  -2  -5   2 1146.95   18.73
  -2  -5   2 1176.98   22.34
   2   5  -2 1122.48   19.48
   2   5  -2 1154.37   20.01
  -2  -5   2 1140.59   20.53
   2   5  -2 1189.37   19.05
  -2  -5   2 1117.75   18.07
   2   5  -1   11.89    1.44
  -2  -5   1   10.61    1.52
  -2  -5   1   10.14    1.34
   2   5  -1   10.16    1.57
  -2  -5   1    8.63    1.57
   2   5   0   25.23    1.88
  -2  -5   0   23.04    2.13
  -2  -5   0   23.96    2.25
   2   5   0   27.41    2.38
  -2  -5   0   29.60    2.76
   2   5   1   32.14    2.04
   2   5   1   32.14    2.46
  -2  -5  -1   33.59    2.55
  -2  -5  -1   35.38    2.54
   2   5   2 6512.73   75.56
  -2  -5  -2 6740.50   77.82
  -2  -5  -2 6651.44   80.33
  -2  -5  -3  394.83   10.57
  -2  -5  -3  388.13    9.25
  -2  -5  -4    2.87    0.90
  -2  -5  -4    0.94    0.83
  -2  -5  -4    0.94    0.85
  -2  -5  -5  765.88   13.74
  -2  -5  -5  761.84   14.87
  -2  -5  -6 3185.88   41.32
   2   5   6 3273.84   43.80
  -2  -5  -6 3311.19   44.97
  -2  -5  -7 2852.62   37.06
   2   5   7 2890.99   39.83
   2   5   7 2871.56   40.01
  -2  -5  -7 2875.66   40.81
   2   5   7 2902.46   37.69
  -2  -5  -8 1937.74   30.80
   2   5   8 1988.43   30.78
   2   5   9  277.30    7.13
   2   5   9  295.23    9.37
  -2  -5  -9  292.12    9.42
  -2  -5  -9  265.30   10.54
   2   5  10    1.56    0.75
   2   5  10    1.10    1.17
  -2  -5 -12   25.72    2.47
  -2  -5 -13   58.61    2.86
   2   5  13   56.10    2.27
  -2  -6   8   18.73    1.26
  -2  -6   7  263.26    7.18
  -2  -6   6  311.94    8.53
  -2  -6   6  287.96    7.78
  -2  -6   5    2.12    1.19
  -2  -6   5    4.00    1.24
  -2  -6   4    5.67    1.45
  -2  -6   3  260.65    9.48
  -2  -6   3  285.34    9.23
   2   6  -3  260.73    8.14
  -2  -6   2  362.94    9.18
   2   6  -2  345.81    9.84
   2   6  -2  350.48    8.98
  -2  -6   2  352.12    8.88
  -2  -6   2  336.15   10.94
   2   6  -2  338.68    9.69
  -2  -6   1  135.27    5.48
   2   6  -1  129.69    5.88
  -2  -6   1  120.67    6.42
  -2  -6   1  124.86    6.34
  -2  -6   1  135.38    5.32
   2   6   0  734.33   15.43
  -2  -6   0  688.17   16.57
  -2  -6   0  712.05   14.24
  -2  -6  -1  216.61    7.28
  -2  -6  -1  222.02    8.52
  -2  -6  -1  204.29    6.69
   2   6   1  212.79    7.41
   2   6   2   47.82    3.38
  -2  -6  -2   48.94    3.33
  -2  -6  -3   21.74    2.10
  -2  -6  -3   26.58    2.53
  -2  -6  -3   22.28    2.69
  -2  -6  -3   22.16    2.31
  -2  -6  -4  838.73   16.02
  -2  -6  -4  834.24   16.34
  -2  -6  -5 5992.50   72.85
  -2  -6  -5 6114.71   74.60
  -2  -6  -6 1184.34   19.56
  -2  -6  -6 1194.09   21.55
  -2  -6  -6 1134.70   21.01
  -2  -6  -6 1118.40   18.83
  -2  -6  -7  375.02    9.19
  -2  -6  -7  366.19   10.96
  -2  -6  -8   82.44    4.88
  -2  -6  -8   76.30    4.91
  -2  -6  -9 1211.18   22.15
  -2  -6  -9 1134.63   21.90
  -2  -6 -10  181.16    7.25
  -2  -6 -11  540.87   12.49
  -2  -6 -12   16.42    1.81
  -2  -6 -13   48.73    1.88
  -2  -6 -13   47.51    2.18
  -2  -7   6   40.42    2.16
  -2  -7   6   37.64    2.32
  -2  -7   5   62.91    3.23
  -2  -7   5   58.19    3.13
  -2  -7   4  768.00   14.33
  -2  -7   4  702.61   14.40
  -2  -7   3  120.11    5.16
  -2  -7   3  117.32    5.54
  -2  -7   2  115.41    4.99
   2   7  -2   98.54    4.77
  -2  -7   1  328.99    8.95
  -2  -7   1  326.46    8.64
  -2  -7   1  322.09    8.80
   2   7  -1  318.42    9.87
   2   7  -1  337.47    9.11
  -2  -7   1  320.45   10.86
   2   7  -1  302.72    9.26
   2   7   0 1037.93   20.05
  -2  -7   0  979.21   21.46
  -2  -7  -1  442.88   11.38
   2   7   1  443.36   11.93
  -2  -7  -1  421.81   13.00
  -2  -7  -1  442.29   11.13
  -2  -7  -2   18.54    2.27
   2   7   2   18.06    2.40
  -2  -7  -2   20.46    2.71
  -2  -7  -3  697.50   15.13
  -2  -7  -3  716.44   15.46
  -2  -7  -3  696.86   14.74
   2   7   3  712.91   15.82
   2   7   4  667.15   15.11
  -2  -7  -4  639.51   14.21
  -2  -7  -4  627.03   13.75
  -2  -7  -4  650.68   14.74
  -2  -7  -4  654.79   13.91
  -2  -7  -5  131.13    5.71
  -2  -7  -5  129.11    6.09
  -2  -7  -5  131.16    5.77
  -2  -7  -5  135.25    5.64
  -2  -7  -6    7.94    1.80
  -2  -7  -6    4.06    1.20
  -2  -7  -7   82.28    4.16
  -2  -7  -7   84.35    4.01
  -2  -7  -7   86.64    4.98
  -2  -7  -7   81.55    4.76
  -2  -7  -8  164.94    6.83
  -2  -7  -8  170.08    7.00
  -2  -7  -9    4.47    1.49
  -2  -7 -10   77.83    4.28
  -2  -7 -11   21.44    2.06
  -2  -7 -12  258.20    5.84
  -2  -7 -12  206.04    5.41
  -2  -8   4  157.17    4.00
  -2  -8   4  157.31    4.50
  -2  -8   4  165.85    4.98
  -2  -8   3  142.69    4.28
  -2  -8   3  144.83    5.07
  -2  -8   2  118.84    4.11
  -2  -8   2  120.77    5.16
  -2  -8   1  915.07   14.55
   2   8  -1  937.60   17.36
   2   8   0    5.98    1.41
   2   8   0    4.22    1.36
  -2  -8   0    4.55    1.19
  -2  -8  -1    1.31    1.00
   2   8   1    1.25    1.02
   2   8   1    1.65    1.27
  -2  -8  -2   20.62    2.33
   2   8   2   20.04    2.52
  -2  -8  -3 1088.03   19.80
   2   8   3 1145.68   21.26
   2   8   4  343.89   10.36
  -2  -8  -4  325.26    9.25
  -2  -8  -5    1.66    1.03
   2   8   5    0.98    1.21
  -2  -8  -6   48.72    3.16
  -2  -8  -6   50.28    3.58
  -2  -8  -6   48.13    3.25
  -2  -8  -7  524.25   10.89
   2   8   7  548.63   12.98
  -2  -8  -7  525.38   11.87
   2   8   7  575.54   13.69
  -2  -8  -7  497.37   12.19
  -2  -8  -8   92.91    4.64
  -2  -8  -8   91.52    3.52
  -2  -8  -8  100.76    4.66
   2   8   8   95.75    4.76
   2   8   9  190.84    6.21
  -2  -8  -9  163.87    5.88
  -2  -8 -10  303.13    7.51
  -2  -8 -11   23.76    1.67
  -2  -9   2   95.73    3.16
  -2  -9   1   16.42    1.57
  -2  -9   0    5.63    1.17
   2   9   0    5.92    1.21
   2   9   1  353.02    8.27
   2   9   1  383.86    9.88
   2   9   2  828.45   16.62
  -2  -9  -2  833.06   14.42
   2   9   3   34.17    2.76
   2   9   3   30.98    3.03
   2   9   4  205.57    6.98
   2   9   4  206.07    7.71
  -2  -9  -4  198.46    6.28
   2   9   5  319.42    8.91
  -2  -9  -5  314.48    7.95
   2   9   6  839.17   16.61
   2   9   6  822.45   15.56
  -2  -9  -6  786.91   13.74
   2   9   7  222.22    7.10
  -2  -9  -7  208.94    5.38
  -2  -9  -8    0.30    0.44
   2   9   8    0.62    0.71
  -2  -9  -8    0.77    0.75
  -2  -9  -9    1.72    0.70
   2   9   9    2.22    0.68
  -2 -10  -3    8.65    0.88
   2  10   4  225.58    6.12
  -2 -10  -5  229.16    4.86
  -2 -10  -6    8.51    0.80
   3  -8  -7    9.76    0.74
   3  -8  -6  138.73    3.35
   3  -8  -6  124.88    2.95
   3  -8  -5   90.34    2.80
   3  -8  -5   89.93    2.72
   3  -8  -4   19.03    1.33
   3  -8  -4   16.62    1.20
   3  -8  -3   14.82    0.89
   3  -8  -2   33.29    1.48
   3  -8  -2   34.46    1.70
   3  -8  -1   30.71    1.45
   3  -8   0  121.25    2.90
   3  -7  -8    3.42    0.70
   3  -7  -7    9.60    0.97
   3  -7  -7    8.12    1.11
   3  -7  -6    2.82    0.87
   3  -7  -6    2.34    0.76
   3  -7  -5   38.37    2.38
   3  -7  -4    5.84    1.13
   3  -7  -4    5.54    0.88
   3  -7  -4    7.18    1.24
   3  -7  -3  545.36   10.52
   3  -7  -3  535.53    9.66
   3  -7  -3  532.83    9.41
   3  -7  -3  549.05   10.89
   3  -7  -2  377.71    7.65
   3  -7  -2  374.94    8.02
   3  -7  -1  135.80    4.22
   3  -7  -1  134.79    4.66
   3  -7   0   10.00    1.22
   3  -7   1    0.35    0.58
   3  -7   2   39.91    2.03
   3  -7   3   70.48    2.44
   3  -7   4  327.48    5.27
  -3   6  11  180.91    3.64
  -3   6  10    1.14    0.62
   3  -6  -9    7.09    0.86
   3  -6  -8   35.19    2.16
   3  -6  -7   15.56    1.47
   3  -6  -7   13.17    1.60
   3  -6  -6  162.01    5.23
   3  -6  -6  169.03    5.69
   3  -6  -5  139.27    5.34
   3  -6  -5  128.42    4.93
   3  -6  -4  364.40    7.95
   3  -6  -4  372.30    9.13
   3  -6  -4  358.45    8.06
   3  -6  -3  104.20    4.55
   3  -6  -3  100.50    4.51
   3  -6  -3  103.28    4.08
   3  -6  -2    4.94    1.18
   3  -6  -2    4.52    1.06
   3  -6  -1   94.60    4.09
   3  -6  -1   89.65    4.27
   3  -6  -1   98.23    4.13
   3  -6   0  611.46   12.39
   3  -6   0  622.31   12.03
   3  -6   0  637.23   11.97
   3  -6   1  121.58    4.57
   3  -6   1  121.33    4.60
   3  -6   1  119.60    4.62
   3  -6   2   55.07    3.04
   3  -6   2   51.62    2.95
   3  -6   3   84.53    3.66
   3  -6   3   83.72    3.64
   3  -6   4  284.54    6.74
   3  -6   4  273.32    6.53
   3  -6   5    1.81    0.64
   3  -6   6   22.33    1.16
  -3   5  11   34.37    1.91
  -3   5  10    2.28    0.86
   3  -5  -9   93.41    4.10
   3  -5  -9   81.91    3.02
   3  -5  -8  668.69   12.98
   3  -5  -8  610.53   11.47
   3  -5  -7    8.86    1.50
   3  -5  -7    9.11    1.47
   3  -5  -7    8.07    1.19
   3  -5  -6  169.61    5.68
   3  -5  -6  180.27    6.06
   3  -5  -6  178.18    5.93
   3  -5  -6  173.23    5.53
   3  -5  -5   65.61    3.64
   3  -5  -5   70.06    3.44
   3  -5  -5   67.32    3.64
   3  -5  -5   69.37    3.01
   3  -5  -5   67.00    3.54
   3  -5  -4  310.50    8.37
   3  -5  -4  298.92    7.62
   3  -5  -4  307.60    8.14
   3  -5  -3   21.88    2.16
   3  -5  -3   22.04    2.16
   3  -5  -3   24.48    2.08
   3  -5  -2    7.65    1.41
   3  -5  -2    7.74    1.29
   3  -5  -1  423.26    9.37
   3  -5  -1  413.31    9.59
   3  -5  -1  414.66   10.16
   3  -5  -1  416.47    9.93
   3  -5  -1  422.93    9.50
   3  -5   0   20.95    1.98
   3  -5   0   22.17    1.99
   3  -5   0   18.46    2.00
   3  -5   0   19.88    2.07
   3  -5   0   20.20    2.04
   3  -5   1  172.01    5.27
   3  -5   1  171.03    5.79
   3  -5   1  172.14    6.06
   3  -5   1  166.61    5.76
   3  -5   1  171.86    5.86
   3  -5   1  166.11    8.29
   3  -5   1  145.72    5.29
   3  -5   1  167.86    5.71
   3  -5   2 1007.29   17.27
   3  -5   2 1005.34   17.06
   3  -5   2 1026.99   16.92
   3  -5   2 1026.31   16.83
   3  -5   2 1010.60   17.28
   3  -5   2  934.13   16.95
   3  -5   2  938.07   22.95
   3  -5   3 2081.91   29.47
   3  -5   3 2088.89   29.38
   3  -5   3 2040.84   28.39
   3  -5   4 1460.65   22.35
   3  -5   4 1387.60   22.27
   3  -5   4 1443.10   21.03
   3  -5   5   18.49    1.90
   3  -5   5   18.36    1.84
   3  -5   5   17.34    1.55
   3  -5   6   57.69    2.28
   3  -5   6   60.22    2.84
   3  -5   7  143.89    3.96
   3  -5   7  131.16    3.57
  -3   4  11    0.82    0.59
  -3   4  11    0.89    0.65
  -3   4  10   89.23    3.80
  -3   4  10   90.78    4.05
   3  -4  -9   77.03    4.10
  -3   4   9   74.54    3.74
   3  -4  -8    1.48    0.78
   3  -4  -8    1.12    1.03
   3  -4  -7   10.94    1.51
   3  -4  -7    9.40    1.65
   3  -4  -7    9.95    1.75
   3  -4  -6  582.66   11.88
   3  -4  -6  579.47   12.35
   3  -4  -6  577.20   11.42
   3  -4  -6  611.50   13.41
   3  -4  -6  574.42   11.06
   3  -4  -5  807.52   14.72
   3  -4  -5  796.29   14.44
   3  -4  -5  782.99   14.02
   3  -4  -4   12.35    1.47
   3  -4  -4   11.67    1.50
   3  -4  -4   15.45    1.72
   3  -4  -4   10.56    1.28
   3  -4  -4    9.76    1.36
   3  -4  -4   11.99    1.50
   3  -4  -3    1.37    0.75
   3  -4  -3    1.23    0.77
   3  -4  -3    1.29    0.75
   3  -4  -3    1.59    0.81
   3  -4  -2   78.44    3.82
   3  -4  -2   81.02    3.54
   3  -4  -2   75.67    4.18
   3  -4  -2   74.51    3.61
   3  -4  -1 1604.15   26.32
   3  -4  -1 1661.73   24.10
   3  -4  -1 1689.40   23.69
   3  -4  -1 1609.49   23.62
   3  -4   0  377.32    8.51
   3  -4   0  362.63    8.47
   3  -4   0  385.40    9.19
   3  -4   0  362.00   12.24
   3  -4   0  377.55    8.61
   3  -4   0  369.42    8.80
   3  -4   0  380.01    8.81
   3  -4   0  399.78   10.86
   3  -4   1  289.76    7.77
   3  -4   1  280.78    6.98
   3  -4   1  276.93    7.38
   3  -4   1  260.82    6.63
   3  -4   1  271.64   10.98
   3  -4   1  257.37    7.00
   3  -4   1  282.51    7.45
   3  -4   1  281.03    7.75
   3  -4   1  283.38    7.47
   3  -4   1  280.33    7.45
   3  -4   2  373.54    8.69
   3  -4   2  361.64    8.78
   3  -4   2  340.84    8.73
   3  -4   2  373.95    8.90
   3  -4   2  378.10    9.25
   3  -4   2  334.83   12.98
   3  -4   2  373.39    9.04
   3  -4   2  356.12    8.84
   3  -4   2  388.94   11.03
   3  -4   3   38.58    2.85
   3  -4   3   41.38    2.63
   3  -4   3   39.53    2.89
   3  -4   3   35.79    2.49
   3  -4   3   39.98    4.65
   3  -4   3   41.27    2.86
   3  -4   3   47.88    3.12
   3  -4   4  326.56    8.75
   3  -4   4  348.02    8.71
   3  -4   4  325.95    9.17
   3  -4   4  328.03    8.56
   3  -4   4  299.94    8.31
   3  -4   4  317.66   13.50
   3  -4   4  335.25    8.53
   3  -4   5  245.24    7.10
   3  -4   5  240.82    7.12
   3  -4   5  234.11    7.31
   3  -4   5  251.55    6.98
   3  -4   5  236.89    7.67
   3  -4   6   39.51    2.77
   3  -4   6   42.98    2.72
   3  -4   6   37.59    2.64
   3  -4   6   36.23    2.70
   3  -4   7   80.25    3.61
   3  -4   7   77.16    3.37
   3  -4   7   71.28    3.54
   3  -4   7   79.78    3.29
   3  -4   8   10.76    1.02
  -3   3  12    5.69    0.88
  -3   3  12    7.22    1.00
  -3   3  11   43.91    2.80
   3  -3 -10   16.93    2.05
  -3   3  10   17.74    2.02
  -3   3  10   19.24    2.15
   3  -3  -9   66.51    4.01
  -3   3   9   64.90    4.01
   3  -3  -8  129.10    5.13
   3  -3  -8  123.98    5.74
   3  -3  -7   69.77    4.02
   3  -3  -7   67.63    4.18
   3  -3  -7   61.73    3.13
   3  -3  -6    3.22    0.94
   3  -3  -6    3.40    0.83
   3  -3  -6    3.97    1.21
   3  -3  -6    3.96    1.27
   3  -3  -5  894.48   15.37
   3  -3  -5  937.68   16.16
   3  -3  -5  943.41   15.36
   3  -3  -5  917.61   14.87
   3  -3  -4  109.57    4.24
   3  -3  -4  114.51    4.30
   3  -3  -4  107.15    3.66
   3  -3  -4  123.90    4.82
   3  -3  -4  109.63    4.03
   3  -3  -4  106.97    4.01
   3  -3  -3 1188.13   17.88
   3  -3  -3 1153.52   17.51
   3  -3  -3 1154.41   17.22
   3  -3  -2  626.37   11.61
   3  -3  -2  653.27   10.74
   3  -3  -1  269.57    8.23
   3  -3   0  284.53    7.09
   3  -3   0  275.48    6.97
   3  -3   0  283.17    6.71
   3  -3   0  264.67    9.82
   3  -3   1  102.61    4.04
   3  -3   1   98.41    3.85
   3  -3   1   99.14    4.00
   3  -3   1  101.19    6.22
   3  -3   1   99.49    3.86
   3  -3   1   94.21    4.84
   3  -3   1  101.56    3.94
   3  -3   2 1088.26   17.25
   3  -3   2 1101.02   17.34
   3  -3   2 1122.17   17.33
   3  -3   2 1041.44   16.54
   3  -3   2 1106.09   20.11
   3  -3   2 1109.79   16.94
   3  -3   2 1014.18   16.95
   3  -3   2 1072.17   17.01
   3  -3   2 1069.15   17.40
   3  -3   2 1058.20   23.82
   3  -3   3  287.07    7.52
   3  -3   3  277.66    7.17
   3  -3   3  298.07    7.02
   3  -3   3  273.16    7.60
   3  -3   3  270.34    7.19
   3  -3   3  289.34    7.12
   3  -3   3  287.70    7.58
   3  -3   3  276.31   11.51
   3  -3   3  274.04    6.53
   3  -3   3  282.34    7.49
   3  -3   4 2563.39   34.06
   3  -3   4 2479.64   33.52
   3  -3   4 2478.39   34.04
   3  -3   4 2452.62   34.79
   3  -3   4 2259.09   33.74
   3  -3   4 2425.50   33.35
   3  -3   4 2664.62   37.10
   3  -3   4 2423.79   43.41
   3  -3   5  115.22    4.90
   3  -3   5  111.18    5.22
   3  -3   5  106.11    5.02
   3  -3   5  112.70    4.69
   3  -3   5  118.73    4.84
   3  -3   5  113.36    7.84
   3  -3   5  113.89    4.93
   3  -3   6   56.66    3.48
   3  -3   6   57.83    3.88
   3  -3   6   57.90    3.34
   3  -3   6   59.29    3.85
   3  -3   6   59.60    3.33
   3  -3   6   60.61    3.61
   3  -3   7  623.87   12.59
   3  -3   7  624.45   12.16
   3  -3   7  659.24   11.90
   3  -3   7  607.66   13.66
   3  -3   7  634.25   12.85
   3  -3   8  992.50   16.00
   3  -3   8 1015.33   16.50
   3  -3   8  978.14   17.85
   3  -3   9   83.66    3.17
  -3   2  12   23.35    1.84
  -3   2  12   23.14    1.72
  -3   2  11  162.79    5.97
  -3   2  10   14.54    1.95
   3  -2  -9    1.67    1.03
  -3   2   9    2.58    1.01
   3  -2  -9    2.75    1.33
   3  -2  -9    1.17    1.17
  -3   2   9    0.29    1.04
   3  -2  -8  168.13    6.56
   3  -2  -8  178.17    6.36
  -3   2   8  182.73    7.14
   3  -2  -7   18.15    2.14
  -3   2   7   14.73    1.97
   3  -2  -7   16.76    2.00
   3  -2  -7   16.33    2.13
  -3   2   7   14.10    1.79
  -3   2   6  355.15    9.42
   3  -2  -6  351.56    8.58
   3  -2  -6  341.01    7.72
   3  -2  -5 1112.21   17.99
   3  -2  -5 1090.89   16.37
   3  -2  -5 1077.96   16.65
  -3   2   5 1051.47   17.82
   3  -2  -4  390.80    8.13
   3  -2  -4  396.56    9.28
   3  -2  -3  489.97    9.24
   3  -2  -3  483.40    9.67
   3  -2  -2  162.80    4.77
   3  -2  -2  160.45    4.48
   3  -2  -1 2892.29   36.27
   3  -2  -1 2900.18   34.52
   3  -2   0 1037.79   20.63
   3  -2   1 1932.78   29.48
   3  -2   1 1902.61   32.31
   3  -2   2    5.66    0.93
   3  -2   3  178.17    5.21
   3  -2   3  175.98    4.94
   3  -2   3  163.66    5.21
   3  -2   3  169.75    6.34
   3  -2   3  174.75    5.35
   3  -2   4  346.51    8.08
   3  -2   4  319.75    8.40
   3  -2   4  317.36    8.27
   3  -2   4  351.47    8.37
   3  -2   4  343.26   12.28
   3  -2   4  337.02    7.61
   3  -2   4  358.94    9.83
   3  -2   4  356.51    8.50
   3  -2   5  423.29    9.54
   3  -2   5  450.28    9.73
   3  -2   5  418.64   10.31
   3  -2   5  396.48   14.27
   3  -2   5  405.85   10.31
   3  -2   5  425.02    9.81
   3  -2   5  435.32   10.98
   3  -2   5  423.33    9.92
   3  -2   6  248.92    7.17
   3  -2   6  247.82    7.23
   3  -2   6  253.80    7.37
   3  -2   6  234.94   11.24
   3  -2   6  237.57    8.05
   3  -2   6  239.04    7.49
   3  -2   7 2973.43   39.30
   3  -2   7 2902.94   50.78
   3  -2   7 2924.43   38.57
   3  -2   7 2920.85   42.14
   3  -2   7 2945.56   40.64
   3  -2   7 3081.37   39.64
   3  -2   8  417.22    9.35
   3  -2   8  413.65   11.26
   3  -2   8  445.23    9.53
   3  -2   8  432.07   10.51
   3  -2   9   51.88    3.63
   3  -2   9   52.95    3.21
   3  -2  10   23.48    1.84
   3  -2  11  231.74    4.46
  -3   1  12   43.97    2.57
  -3   1  12   48.70    2.44
   3  -1 -10  326.24    8.76
   3  -1  -9 1457.68   23.84
  -3   1   9 1478.39   24.00
   3  -1  -8 1380.08   23.06
   3  -1  -8 1379.32   23.86
   3  -1  -8 1456.99   23.31
  -3   1   8 1408.61   23.00
   3  -1  -7    4.87    1.30
  -3   1   7    5.35    1.47
   3  -1  -7    6.24    1.52
   3  -1  -7    4.86    1.35
  -3   1   7   10.06    1.60
  -3   1   7    4.18    1.17
   3  -1  -6  373.09    9.20
  -3   1   6  342.14    8.69
   3  -1  -6  384.22    9.00
  -3   1   6  349.92    9.43
  -3   1   5 2025.02   28.69
  -3   1   5 1946.55   27.69
   3  -1  -4  307.70    7.52
  -3   1   4  268.57    6.36
   3  -1  -3  247.89    6.19
   3  -1  -3  238.19    5.53
   3  -1  -2   98.08    3.34
   3  -1  -2   92.27    3.32
   3  -1  -1 1328.35   16.84
   3  -1  -1 1311.32   18.22
   3  -1   0 5964.73   66.07
   3  -1   1    4.31    0.78
   3  -1   1    3.37    1.35
   3  -1   2 6462.51   81.43
   3  -1   3 1102.91   21.82
   3  -1   4 1624.03   23.27
   3  -1   4 1577.26   23.39
   3  -1   4 1596.05   28.76
   3  -1   5  188.01    5.43
   3  -1   5  182.29    5.42
   3  -1   5  180.95    5.46
   3  -1   5  179.17    5.34
   3  -1   5  186.03    6.10
   3  -1   5  173.52    6.09
   3  -1   5  176.50    8.28
   3  -1   5  181.44    5.72
   3  -1   5  181.72    6.30
   3  -1   5  190.83    5.90
   3  -1   6 1678.32   24.22
   3  -1   6 1732.41   24.68
   3  -1   6 1737.41   25.34
   3  -1   6 1661.20   26.65
   3  -1   6 1597.56   31.66
   3  -1   6 1769.33   25.78
   3  -1   6 1654.85   25.42
   3  -1   7    6.56    1.46
   3  -1   7    7.47    1.24
   3  -1   7    8.04    1.60
   3  -1   7    8.47    1.47
   3  -1   7    7.20    2.08
   3  -1   8   45.92    2.71
   3  -1   8   49.71    3.13
   3  -1   8   51.51    3.90
   3  -1   8   53.59    3.31
   3  -1   8   43.96    4.93
   3  -1   8   46.73    3.37
   3  -1   9  215.40    6.37
   3  -1   9  200.83    7.03
   3  -1  10  611.24   12.46
   3  -1  11  298.37    6.95
   3  -1  12   18.99    1.05
  -3   0  12   35.79    1.99
  -3   0  11   67.79    3.52
   3   0 -10  115.76    5.08
  -3   0  10  123.04    5.88
  -3   0   9   55.55    4.19
   3   0  -9   50.94    3.70
  -3   0   9   48.61    3.60
  -3   0   9   47.49    3.61
  -3   0   8  445.65   11.65
  -3   0   8  456.91   11.38
  -3   0   8  477.88   12.54
  -3   0   7   77.87    4.15
  -3   0   7   73.12    4.08
  -3   0   7   78.45    4.60
   3   0  -6 1201.55   19.46
  -3   0   6 1195.59   20.43
  -3   0   6 1168.36   19.15
  -3   0   5 2886.01   38.41
   3   0  -5 3029.92   38.69
  -3   0   4  291.04    6.79
   3   0  -3  542.96    9.89
  -3   0   3  471.57    8.59
  -3   0   2 5600.60   63.21
   3   0  -1   52.17    2.23
  -3   0   1   39.49    1.38
   3   0   0 1666.56   21.07
   3   0   1 1602.92   19.87
   3   0   1 1578.56   25.27
   3   0   2 3361.85   46.04
   3   0   3 5307.08   67.93
   3   0   4 1500.22   25.99
   3   0   5 4046.83   51.41
   3   0   5 4219.48   57.10
   3   0   6  257.60    6.79
   3   0   6  245.47    6.38
   3   0   6  237.49    7.47
   3   0   6  236.09    9.56
   3   0   6  239.22    6.79
   3   0   6  232.16    6.63
   3   0   7   42.48    2.86
   3   0   7   41.00    2.59
   3   0   7   43.57    3.34
   3   0   7   45.34    4.37
   3   0   7   44.81    3.00
   3   0   8   19.07    1.89
   3   0   8   16.73    2.99
   3   0   8   15.20    1.96
   3   0   8   15.80    2.06
   3   0   9 1568.41   32.48
   3   0   9 1648.92   24.41
   3   0   9 1580.75   25.41
  -3   0 -10   10.67    1.73
   3   0  10   15.55    1.75
   3   0  10   14.15    1.99
   3   0  11   42.35    2.12
   3   0  11   43.21    2.87
   3   0  12   13.56    1.37
  -3  -1  11   17.06    1.76
   3   1 -10  542.53   11.95
  -3  -1   8  292.75    9.68
  -3  -1   8  297.48    9.15
  -3  -1   8  294.60    9.50
  -3  -1   7  304.96    8.91
  -3  -1   7  308.47    9.59
  -3  -1   7  313.92    9.51
  -3  -1   6  335.67    9.50
  -3  -1   6  322.89    9.08
  -3  -1   6  307.72    8.45
  -3  -1   5  407.09    9.69
  -3  -1   5  393.48    9.14
   3   1  -4 3247.76   40.85
  -3  -1   4 3081.47   40.22
  -3  -1   3 1889.74   25.25
  -3  -1   2 4075.64   50.76
   3   1  -2 4839.14   53.57
   3   1  -1 2278.57   28.62
  -3  -1   1 2079.63   26.88
   3   1   0  997.15   14.45
   3   1   0  937.36   15.33
   3   1   1  410.67    7.21
  -3  -1  -1  381.94    6.29
   3   1   2  365.10    9.28
   3   1   2  353.57    7.96
   3   1   3  453.24   10.97
   3   1   3  424.53    9.03
   3   1   4  763.08   15.77
   3   1   5  721.37   13.25
   3   1   5  694.03   15.56
   3   1   6 1629.58   25.42
   3   1   6 1630.90   28.68
   3   1   6 1679.84   22.02
   3   1   7 1309.16   18.95
  -3  -1  -7 1298.84   20.91
   3   1   7 1252.14   25.05
   3   1   8 3335.13   43.12
   3   1   8 3519.44   44.87
   3   1   8 3481.98   42.83
  -3  -1  -8 3292.59   45.80
   3   1   8 3398.49   52.28
   3   1   9 1167.34   19.80
   3   1   9 1150.96   17.43
   3   1   9 1148.84   19.70
  -3  -1 -10   77.69    4.41
   3   1  10   94.25    4.45
  -3  -1 -11    9.51    1.58
   3   1  11    8.64    1.30
   3   1  12  382.66    8.46
   3   1  13    2.19    0.60
  -3  -2  11   84.93    3.29
  -3  -2  10    0.85    0.84
  -3  -2  10    0.24    0.95
  -3  -2   9   34.40    3.16
  -3  -2   8  223.07    8.25
  -3  -2   8  218.23    8.12
  -3  -2   7 2907.77   41.14
  -3  -2   7 2968.81   41.98
  -3  -2   7 2842.45   41.66
  -3  -2   6 1867.42   29.15
   3   2  -6 1839.66   28.01
  -3  -2   6 1854.19   28.48
   3   2  -5   10.82    1.58
  -3  -2   5   10.34    1.55
  -3  -2   5    8.34    1.50
   3   2  -4   57.27    3.31
  -3  -2   4   55.83    3.23
   3   2  -4   51.34    2.92
   3   2  -3  406.00    9.00
  -3  -2   3  406.51    8.88
  -3  -2   2  414.85    8.58
   3   2  -2  481.90    9.47
   3   2  -1 4611.22   55.29
   3   2   0  899.67   14.25
  -3  -2  -1 1103.77   16.27
   3   2   1 1226.76   17.41
   3   2   2   97.86    3.65
   3   2   3 4872.10   57.61
   3   2   3 4780.50   55.96
   3   2   4  821.12   15.32
   3   2   4  818.73   13.73
   3   2   5    6.46    1.35
   3   2   5    5.27    1.01
   3   2   6 1013.67   19.40
   3   2   6  998.75   15.97
   3   2   7  229.68    6.66
   3   2   7  219.36    6.40
  -3  -2  -7  221.16    6.92
  -3  -2  -8    7.75    1.64
   3   2   8    5.66    1.21
   3   2   9   44.14    3.13
   3   2   9   40.52    2.84
  -3  -2  -9   42.19    3.41
   3   2  10  169.82    6.05
   3   2  10  164.21    5.66
   3   2  10  164.44    6.09
  -3  -2 -11  137.51    5.70
   3   2  11  150.73    5.83
  -3  -2 -12   -0.15    0.77
   3   2  12    0.68    0.85
   3   2  12    0.82    0.65
   3   2  13    0.82    0.63
  -3  -3  10    1.85    0.85
  -3  -3   9  444.38   10.72
  -3  -3   9  424.46   10.42
  -3  -3   8  476.40   12.08
  -3  -3   7  128.62    6.04
  -3  -3   7  126.02    5.99
  -3  -3   6  209.13    7.66
  -3  -3   6  191.70    7.30
   3   3  -6  194.72    6.81
   3   3  -5  661.19   14.03
  -3  -3   5  689.01   14.56
  -3  -3   4 1786.17   27.24
   3   3  -4 1780.47   27.03
  -3  -3   4 1767.30   26.74
   3   3  -3  366.14    9.18
   3   3  -3  368.51    8.60
   3   3  -2 1192.31   18.62
   3   3  -2 1161.60   17.70
   3   3  -1 1177.88   19.01
   3   3  -1 1253.25   18.48
   3   3   0 1669.61   23.21
   3   3   0 1606.63   22.51
   3   3   1  156.16    4.81
  -3  -3  -1  156.47    5.10
   3   3   2 2853.87   34.71
  -3  -3  -2 2634.54   34.67
   3   3   3  976.87   14.65
   3   3   3  915.78   14.67
  -3  -3  -4  339.25    7.95
   3   3   4  388.28    8.21
   3   3   5  535.95    9.41
   3   3   5  290.84    7.67
   3   3   6 1632.37   23.63
  -3  -3  -6 1686.42   24.15
   3   3   7  316.53    8.26
  -3  -3  -7  312.79    8.62
   3   3   8   11.90    1.65
   3   3   8   13.50    1.76
  -3  -3  -8   10.19    1.80
  -3  -3  -8   12.38    1.77
   3   3   9  198.90    6.61
   3   3   9  210.78    7.10
  -3  -3  -9  191.19    7.37
  -3  -3  -9  186.93    6.65
   3   3  10  113.85    4.84
   3   3  10  110.68    4.96
  -3  -3 -10  101.87    5.27
   3   3  11  101.14    4.57
  -3  -3 -11   91.99    4.75
   3   3  12   47.20    2.70
   3   3  12   44.09    2.76
   3   3  13  212.89    6.04
   3   3  13  210.19    4.97
  -3  -4   9   59.54    3.21
  -3  -4   8   20.60    2.06
  -3  -4   8   18.29    1.84
  -3  -4   7  193.14    7.02
   3   4  -6   89.21    4.37
   3   4  -6   89.17    4.98
  -3  -4   6  108.02    5.36
  -3  -4   6  111.46    5.68
   3   4  -5  194.07    7.52
   3   4  -5  200.61    7.09
   3   4  -4  633.75   14.22
   3   4  -4  681.20   14.35
  -3  -4   4  696.37   14.84
  -3  -4   4  646.32   12.84
   3   4  -3  268.41    8.36
   3   4  -3  281.50    8.51
  -3  -4   3  289.73    8.43
   3   4  -3  276.30    7.57
   3   4  -2 3010.20   40.95
  -3  -4   2 2924.74   40.29
   3   4  -2 3000.59   40.95
   3   4  -2 3067.51   40.92
   3   4  -2 3151.74   39.85
   3   4  -1    3.62    1.04
   3   4  -1    2.52    0.94
  -3  -4   1    2.90    1.09
   3   4  -1    6.01    1.11
   3   4   0   12.10    1.57
   3   4   0   13.44    1.59
   3   4   0   14.13    1.51
  -3  -4   0   12.88    1.81
   3   4   0   12.71    1.66
   3   4   1 2482.39   34.18
  -3  -4  -1 2433.27   34.49
   3   4   1 2447.46   32.58
   3   4   2  527.85   10.19
   3   4   3   50.91    3.19
  -3  -4  -3   55.70    3.40
   3   4   3   48.67    2.74
   3   4   3   55.56    2.98
   3   4   4 1370.29   21.89
  -3  -4  -4 1376.29   22.14
   3   4   5 2005.45   30.35
   3   4   5 2176.75   29.66
   3   4   6  297.50    8.65
   3   4   6  295.65    7.66
   3   4   7   -0.07    0.83
  -3  -4  -7   -0.07    0.92
   3   4   8  383.01   10.19
  -3  -4  -8  381.75   10.53
   3   4   9  931.38   16.66
  -3  -4  -9  900.73   17.85
   3   4   9  924.02   17.81
  -3  -4  -9  921.40   18.31
   3   4  10  158.42    5.62
  -3  -4 -10  148.97    6.06
   3   4  10  158.71    6.25
  -3  -4 -10  140.93    6.28
   3   4  11    6.73    1.25
  -3  -4 -11    6.24    1.54
   3   4  12    2.91    0.91
   3   4  13    9.32    1.00
  -3  -5   8   62.69    3.11
  -3  -5   8   63.69    3.34
  -3  -5   8   54.51    2.68
  -3  -5   7    0.32    0.78
  -3  -5   6  245.15    8.50
  -3  -5   6  235.07    7.36
   3   5  -5  642.22   14.55
  -3  -5   5  713.14   15.80
   3   5  -5  646.69   13.52
  -3  -5   5  661.20   13.40
  -3  -5   5  681.33   17.17
  -3  -5   5  712.04   14.68
   3   5  -4 3081.58   44.03
  -3  -5   4 3209.68   42.75
  -3  -5   4 3072.69   47.46
   3   5  -4 3157.42   43.69
   3   5  -3 1741.05   28.49
   3   5  -3 1820.65   29.09
  -3  -5   3 1809.21   29.31
   3   5  -2  230.65    7.64
  -3  -5   2  228.81    6.63
  -3  -5   2  230.91    7.87
   3   5  -2  222.25    7.74
   3   5  -2  239.67    7.90
  -3  -5   2  225.61    8.91
   3   5  -2  228.30    7.21
   3   5  -1  396.48    9.81
  -3  -5   1  384.46   10.24
   3   5  -1  388.86   10.31
  -3  -5   1  391.80    9.10
   3   5  -1  421.17    9.99
  -3  -5   1  410.07   11.89
   3   5  -1  382.22   10.40
   3   5   0  601.24   12.14
   3   5   0  559.13   12.87
   3   5   0  581.23   12.82
  -3  -5   0  573.23   11.57
  -3  -5   0  579.20   13.94
  -3  -5   0  581.41   12.61
   3   5   0  612.46   12.13
   3   5   1 1794.59   25.32
  -3  -5  -1 1741.41   27.94
  -3  -5  -1 1781.67   25.05
   3   5   1 1783.50   27.52
   3   5   1 1785.53   26.60
  -3  -5  -2  444.46    9.81
  -3  -5  -2  471.55    9.92
  -3  -5  -2  464.58   12.13
   3   5   3   19.86    2.01
  -3  -5  -3   24.99    2.09
  -3  -5  -3   21.83    2.48
  -3  -5  -3   21.24    1.90
   3   5   4   45.51    3.37
   3   5   4   45.92    3.01
   3   5   4   42.35    3.02
  -3  -5  -4   39.92    2.58
  -3  -5  -4   41.21    3.37
   3   5   4   53.66    3.17
  -3  -5  -5 1571.36   23.97
   3   5   5 1491.84   23.38
   3   5   5 1550.90   24.79
   3   5   5 1599.91   25.62
   3   5   5 1712.40   24.08
  -3  -5  -5 1368.13   22.05
  -3  -5  -6  122.57    5.01
  -3  -5  -6   98.50    4.08
  -3  -5  -6  119.82    5.27
   3   5   6  115.55    5.62
   3   5   6  142.03    5.57
   3   5   7  687.00   15.09
  -3  -5  -7  685.15   14.66
   3   5   7  691.73   13.72
  -3  -5  -8  989.23   19.53
   3   5   8  959.33   16.66
  -3  -5  -9    3.17    1.37
  -3  -5  -9    4.63    1.45
   3   5  10   53.49    3.06
  -3  -5 -10   55.85    3.88
   3   5  11  405.51    8.37
  -3  -5 -11  368.91    9.76
  -3  -5 -12  248.64    6.73
   3   5  13    0.43    0.63
   3   5  13    0.27    0.42
  -3  -6   8    2.28    0.48
  -3  -6   7   33.44    2.11
  -3  -6   6  147.87    5.52
  -3  -6   5   33.62    3.12
  -3  -6   5   29.76    2.31
  -3  -6   4    1.03    0.82
   3   6  -4    1.01    0.88
  -3  -6   4    2.29    1.31
  -3  -6   3  944.17   18.07
  -3  -6   3 1004.95   19.88
   3   6  -3  956.64   18.52
  -3  -6   3  962.04   20.84
  -3  -6   2   73.11    3.96
  -3  -6   2   75.17    4.81
   3   6  -2   65.29    4.28
  -3  -6   2   68.99    3.73
   3   6  -2   57.96    4.04
   3   6  -1  580.21   12.42
  -3  -6   1  672.78   13.42
  -3  -6   1  703.76   14.33
   3   6  -1  640.48   14.53
   3   6  -1  628.26   14.89
  -3  -6   1  619.56   15.76
   3   6  -1  659.31   13.97
  -3  -6   0  700.81   14.81
  -3  -6   0  649.84   13.42
   3   6   0  677.92   14.93
   3   6   0  648.34   15.16
   3   6   0  620.18   12.64
   3   6   0  680.98   13.91
  -3  -6  -1    2.24    1.01
  -3  -6  -1    0.89    0.91
   3   6   1    3.12    0.92
   3   6   1    0.74    1.03
  -3  -6  -1    1.44    1.14
   3   6   1    1.07    0.84
   3   6   2  713.55   15.21
  -3  -6  -2  719.34   17.12
  -3  -6  -2  738.01   14.37
  -3  -6  -3 1496.69   24.85
  -3  -6  -3 1517.81   23.59
  -3  -6  -3 1524.50   27.35
  -3  -6  -4  627.86   13.90
  -3  -6  -4  574.80   12.36
   3   6   4  612.02   13.54
  -3  -6  -4  618.71   13.20
  -3  -6  -4  631.03   15.50
  -3  -6  -5  158.05    6.32
  -3  -6  -5  146.27    5.57
   3   6   5  164.25    7.14
  -3  -6  -5  154.31    6.14
   3   6   5  173.29    6.43
   3   6   5  149.69    6.17
  -3  -6  -6  603.62   12.58
  -3  -6  -6  674.65   13.80
   3   6   6  656.28   15.44
   3   6   6  607.82   14.05
   3   6   6  615.53   13.70
  -3  -6  -6  599.23   13.67
   3   6   6  681.79   14.10
  -3  -6  -7   45.70    3.03
   3   6   7   48.29    3.84
   3   6   7   51.33    3.52
  -3  -6  -7   41.43    3.38
   3   6   7   48.91    3.74
   3   6   7   53.47    3.57
  -3  -6  -7   43.10    2.84
   3   6   8   18.12    2.06
  -3  -6  -8   17.57    2.36
  -3  -6  -8   17.07    2.52
  -3  -6  -9   17.82    2.35
  -3  -6  -9   20.10    2.63
   3   6  10  244.54    6.27
  -3  -6 -10  257.19    8.44
  -3  -6 -10  240.06    7.86
   3   6  11  178.46    4.48
  -3  -6 -11  173.05    6.02
  -3  -6 -12   52.46    2.65
   3   6  12   57.95    3.25
   3   6  13    4.60    0.62
  -3  -7   6   64.12    2.57
  -3  -7   6   57.53    2.57
  -3  -7   5   39.06    2.48
  -3  -7   5   29.27    1.78
  -3  -7   4  136.65    5.16
  -3  -7   4  116.19    4.50
   3   7  -3  310.86    8.38
  -3  -7   3  340.00    9.03
   3   7  -2  302.74    9.06
  -3  -7   2  309.68    9.09
   3   7  -1    2.72    1.25
  -3  -7   1    3.80    1.19
   3   7  -1    3.33    1.36
  -3  -7   0    7.97    1.58
   3   7   0    5.45    1.66
   3   7   0    6.39    1.58
  -3  -7   0    6.28    1.75
   3   7   0    9.08    1.67
  -3  -7   0    6.92    1.52
   3   7   1 1339.69   24.17
  -3  -7  -1 1382.97   23.88
   3   7   1 1285.97   24.80
   3   7   1 1364.60   23.15
  -3  -7  -1 1362.85   22.96
  -3  -7  -2  990.95   19.45
   3   7   2 1012.14   20.98
   3   7   2  987.54   19.74
  -3  -7  -2  944.05   21.53
  -3  -7  -3  348.77    9.73
  -3  -7  -3  359.54    9.95
  -3  -7  -3  359.75   10.51
   3   7   3  376.57   11.70
   3   7   3  352.07   10.52
  -3  -7  -3  339.18   11.64
   3   7   3  389.06   10.53
  -3  -7  -4  134.47    5.79
  -3  -7  -4  137.88    6.20
  -3  -7  -4  123.57    5.56
  -3  -7  -5  407.36   10.95
   3   7   5  405.81   11.19
  -3  -7  -5  389.21   10.64
   3   7   5  431.02   12.73
  -3  -7  -5  408.42   10.59
  -3  -7  -6  269.15    8.31
  -3  -7  -6  251.49    8.33
   3   7   6  270.45    8.83
   3   7   6  287.61    9.99
  -3  -7  -6  258.30    9.08
  -3  -7  -6  263.02    8.00
   3   7   6  288.51    8.90
   3   7   7    1.62    1.09
   3   7   7    2.16    1.09
  -3  -7  -7    1.60    1.13
  -3  -7  -7    1.74    1.25
  -3  -7  -7    1.36    0.86
   3   7   8   73.66    4.13
  -3  -7  -8   68.91    4.17
  -3  -7  -9   -0.14    0.85
  -3  -7  -9    0.24    1.05
  -3  -7 -10  519.08   11.68
  -3  -7 -10  436.63   10.27
  -3  -7 -11   30.37    2.15
  -3  -8   4   34.41    1.66
  -3  -8   3  455.32    8.46
  -3  -8   3  447.42    8.88
  -3  -8   2  371.26    7.74
  -3  -8   2  365.54    8.71
   3   8  -1  181.20    6.63
   3   8  -1  188.46    6.39
  -3  -8   1  186.35    6.52
   3   8   0  215.98    7.48
   3   8   0  223.42    8.22
   3   8   1  270.13    9.55
   3   8   1  290.29    9.07
   3   8   2  432.32   12.67
   3   8   2  449.53   11.96
  -3  -8  -2  450.30   11.23
   3   8   3   24.23    3.08
   3   8   3   21.29    2.67
  -3  -8  -3   22.04    2.47
   3   8   4  407.31   11.39
  -3  -8  -4  415.27   10.76
  -3  -8  -5  327.01    9.28
  -3  -8  -5  332.57    9.27
  -3  -8  -6   96.61    4.84
   3   8   6  100.29    5.15
   3   8   6  104.04    5.85
  -3  -8  -6   92.74    4.67
  -3  -8  -7    5.46    1.36
   3   8   7    5.45    1.40
  -3  -8  -7    5.30    1.17
  -3  -8  -7    5.26    1.41
   3   8   7    5.21    1.64
  -3  -8  -8  730.66   12.18
   3   8   8  759.29   14.56
  -3  -8  -8  759.18   14.88
  -3  -8  -9  305.05    8.13
  -3  -8  -9  251.09    7.07
  -3  -8 -10    7.83    1.16
  -3  -9   1  218.56    5.43
   3   9   0  201.69    5.40
  -3  -9   0  227.02    6.14
   3   9   1  227.09    7.37
   3   9   1  233.24    6.66
  -3  -9  -2   40.46    2.70
   3   9   2   38.65    3.24
   3   9   2   36.77    2.74
   3   9   3    7.60    1.72
   3   9   3    8.72    1.58
   3   9   4  152.85    6.64
   3   9   4  151.28    5.93
  -3  -9  -4  153.38    5.47
   3   9   5  205.36    6.96
  -3  -9  -5  198.83    6.15
   3   9   6  123.39    5.70
  -3  -9  -6  119.21    4.42
   3   9   7   79.57    3.87
   3   9   7   79.63    4.15
  -3  -9  -7   78.68    3.13
   3   9   8   49.50    2.73
  -3 -10  -3  249.26    4.96
  -3 -10  -3  203.23    4.93
   3  10   4  100.37    3.91
  -3 -10  -4  105.49    3.16
   3  10   4   97.01    3.27
   3  10   5    6.42    0.89
  -3 -10  -5    6.90    0.85
  -3 -10  -6    0.79    0.38
   4  -7  -7    0.56    0.37
   4  -7  -6    7.99    0.89
   4  -7  -6    6.61    0.72
   4  -7  -5    0.74    0.52
   4  -7  -4    3.78    0.75
   4  -7  -4    4.46    0.59
   4  -7  -4    3.81    0.77
   4  -7  -3  100.40    2.87
   4  -7  -3  109.37    3.48
   4  -7  -2  101.19    3.03
   4  -7  -2  102.90    3.33
   4  -7  -1   51.46    2.14
   4  -7  -1   51.99    2.19
   4  -7  -1   51.83    2.08
   4  -7   0   22.38    1.38
   4  -7   0   21.56    1.31
   4  -7   1   81.02    2.46
   4  -7   1   82.19    2.41
   4  -7   2   18.57    0.95
   4  -7   2   16.73    0.92
  -4   6   9    4.09    0.58
  -4   6   8    2.57    0.61
   4  -6  -8    1.43    0.54
   4  -6  -7  150.24    4.27
   4  -6  -7  139.50    3.52
   4  -6  -6  692.07   11.82
   4  -6  -6  661.32   11.02
   4  -6  -5  626.58   11.31
   4  -6  -5  604.25   10.76
   4  -6  -4    9.98    1.15
   4  -6  -4   14.05    1.56
   4  -6  -3    4.47    1.07
   4  -6  -3    4.76    0.98
   4  -6  -3    4.97    1.19
   4  -6  -2    3.01    0.91
   4  -6  -2    4.07    0.95
   4  -6  -2    3.63    0.97
   4  -6  -1   18.42    1.77
   4  -6  -1   12.87    1.47
   4  -6   0   51.17    2.69
   4  -6   0   53.70    2.78
   4  -6   1   69.20    3.07
   4  -6   2   75.90    3.08
   4  -6   3  608.08    9.88
   4  -6   3  640.36   10.25
  -4   5  10    0.70    0.45
  -4   5   9    6.73    0.99
   4  -5  -8  170.88    4.62
   4  -5  -7  961.05   15.12
   4  -5  -7  893.59   13.67
   4  -5  -6    0.57    0.84
   4  -5  -6    1.10    0.80
   4  -5  -5    0.62    0.92
   4  -5  -5    0.61    0.64
   4  -5  -5    2.01    0.95
   4  -5  -4    5.54    1.30
   4  -5  -4    2.22    0.84
   4  -5  -3  579.97   11.97
   4  -5  -3  568.66   12.22
   4  -5  -3  572.89   11.12
   4  -5  -3  582.81   12.08
   4  -5  -3  585.48   11.45
   4  -5  -2  537.84   11.32
   4  -5  -2  532.54   11.54
   4  -5  -2  539.41   10.98
   4  -5  -1   53.47    3.08
   4  -5  -1   54.24    3.37
   4  -5  -1   55.55    3.36
   4  -5  -1   58.04    3.19
   4  -5   0   46.10    2.72
   4  -5   0   46.68    2.92
   4  -5   1  192.30    5.80
   4  -5   1  164.51    5.58
   4  -5   2  382.17    9.06
   4  -5   2  389.19    8.80
   4  -5   2  374.82    8.73
   4  -5   3    9.20    1.40
   4  -5   3    8.39    1.30
   4  -5   4  170.04    5.32
   4  -5   4  160.77    4.73
   4  -5   4  164.42    4.96
   4  -5   5  147.21    4.22
  -4   4  11    3.94    0.67
  -4   4  10    0.89    0.64
  -4   4   9  140.89    4.76
   4  -4  -8  102.69    3.70
   4  -4  -7    8.19    1.33
   4  -4  -6  131.85    4.98
   4  -4  -6  125.86    4.43
   4  -4  -5   38.56    2.75
   4  -4  -5   39.42    2.68
   4  -4  -5   39.91    2.34
   4  -4  -5   39.67    2.63
   4  -4  -4 1236.27   19.96
   4  -4  -4 1234.84   20.03
   4  -4  -4 1209.64   18.38
   4  -4  -3    9.03    1.47
   4  -4  -3    9.70    1.40
   4  -4  -3    9.74    1.46
   4  -4  -3    9.22    1.48
   4  -4  -3    8.53    1.41
   4  -4  -3   11.60    1.80
   4  -4  -2  397.53    9.43
   4  -4  -2  405.04    9.89
   4  -4  -2  395.93    9.13
   4  -4  -2  396.65   10.92
   4  -4  -2  406.35    9.56
   4  -4  -1  960.02   16.35
   4  -4  -1  945.64   16.94
   4  -4  -1  976.32   16.16
   4  -4  -1  965.81   19.21
   4  -4   0 1199.39   19.17
   4  -4   0 1249.89   20.49
   4  -4   0 1230.42   20.00
   4  -4   0 1209.41   19.34
   4  -4   0 1201.65   19.92
   4  -4   0 1261.72   23.41
   4  -4   1  418.89    9.83
   4  -4   1  408.13    8.96
   4  -4   1  413.82    9.91
   4  -4   1  394.59    8.60
   4  -4   1  418.45    9.56
   4  -4   1  406.70    9.73
   4  -4   2   63.37    3.55
   4  -4   2   65.53    3.53
   4  -4   2   62.12    3.26
   4  -4   2   57.92    5.30
   4  -4   2   64.01    3.54
   4  -4   2   66.72    4.62
   4  -4   3    2.86    1.12
   4  -4   3    1.58    0.95
   4  -4   3    1.81    0.92
   4  -4   3    3.00    1.58
   4  -4   3    2.23    1.08
   4  -4   4   14.47    1.80
   4  -4   4   13.27    1.61
   4  -4   4   14.23    1.85
   4  -4   4   15.23    1.79
   4  -4   5   46.89    2.73
   4  -4   5   46.05    2.83
   4  -4   6   13.72    1.54
   4  -4   6   11.91    1.32
   4  -4   6   12.89    1.45
   4  -4   7   29.07    1.70
  -4   3  11   48.28    2.32
  -4   3  10   12.77    1.50
  -4   3   9  192.27    6.06
   4  -3  -8  205.96    5.52
  -4   3   8  232.60    6.92
   4  -3  -7    2.52    0.87
   4  -3  -7    3.76    1.27
   4  -3  -6  188.99    6.54
   4  -3  -6  183.88    5.88
   4  -3  -6  188.27    6.53
   4  -3  -6  186.13    5.39
   4  -3  -5  894.46   16.02
   4  -3  -5  879.42   15.50
   4  -3  -5  931.30   15.59
   4  -3  -5  854.18   14.13
   4  -3  -5  911.78   16.09
   4  -3  -5  854.20   14.72
   4  -3  -4  214.81    6.51
   4  -3  -4  219.33    6.53
   4  -3  -4  220.65    5.91
   4  -3  -4  217.81    6.29
   4  -3  -4  207.56    6.11
   4  -3  -3   35.35    2.53
   4  -3  -3   35.51    2.61
   4  -3  -3   39.69    2.41
   4  -3  -3   34.36    2.42
   4  -3  -3   34.57    2.43
   4  -3  -3   33.38    2.99
   4  -3  -2  393.36    9.07
   4  -3  -2  419.45    9.54
   4  -3  -2  385.58    8.50
   4  -3  -2  410.65    9.17
   4  -3  -2  357.42    9.23
   4  -3  -2  399.47    8.81
   4  -3  -2  386.20   11.10
   4  -3  -1  127.90    4.71
   4  -3  -1  118.97    4.82
   4  -3  -1  130.22    4.60
   4  -3  -1  135.15    4.99
   4  -3  -1  126.44    6.09
   4  -3   0   -0.11    0.76
   4  -3   0    2.68    0.86
   4  -3   0    0.83    0.72
   4  -3   0    1.44    1.09
   4  -3   0    2.33    0.85
   4  -3   1   14.58    1.71
   4  -3   1   13.32    1.48
   4  -3   1   15.59    1.74
   4  -3   1   13.68    1.46
   4  -3   1   13.55    1.55
   4  -3   1   17.81    2.91
   4  -3   1   13.04    2.14
   4  -3   1   16.68    1.85
   4  -3   2 1398.72   20.62
   4  -3   2 1445.85   22.12
   4  -3   2 1524.92   22.35
   4  -3   2 1366.92   21.25
   4  -3   2 1360.92   21.13
   4  -3   2 1424.80   21.42
   4  -3   2 1440.94   21.62
   4  -3   2 1466.27   22.52
   4  -3   2 1394.75   29.68
   4  -3   2 1515.45   26.19
   4  -3   2 1469.24   22.29
   4  -3   3  474.16   10.46
   4  -3   3  449.13   10.10
   4  -3   3  460.48    9.57
   4  -3   3  473.27   10.15
   4  -3   3  474.98   10.77
   4  -3   3  447.39    9.66
   4  -3   3  450.13   15.71
   4  -3   3  473.97   10.59
   4  -3   4   49.57    3.14
   4  -3   4   49.49    3.25
   4  -3   4   51.39    3.04
   4  -3   4   50.28    2.83
   4  -3   4   43.49    4.91
   4  -3   4   58.83    4.26
   4  -3   4   56.70    3.43
   4  -3   5    1.59    0.94
   4  -3   5    3.29    1.04
   4  -3   5    3.48    1.09
   4  -3   5    2.28    0.88
   4  -3   5    3.73    0.97
   4  -3   5    3.00    1.72
   4  -3   5    4.53    1.19
   4  -3   6  139.45    5.17
   4  -3   6  130.91    4.64
   4  -3   6  139.59    5.12
   4  -3   6  135.94    5.21
   4  -3   7  460.83    9.24
   4  -3   7  443.99    9.38
   4  -3   7  429.47    9.50
   4  -3   8   13.68    1.41
   4  -3   9  114.22    3.07
  -4   2  12   15.77    1.02
  -4   2  11    2.33    0.75
  -4   2  11    3.02    0.84
  -4   2  10   85.13    3.95
  -4   2  10   90.73    3.97
  -4   2   9    1.72    1.08
  -4   2   8   90.99    4.39
   4  -2  -7   14.66    1.55
  -4   2   7   14.79    1.95
   4  -2  -6 1196.46   20.39
   4  -2  -6 1160.12   18.51
  -4   2   6 1178.73   19.86
   4  -2  -6 1229.82   20.70
   4  -2  -5 1359.57   21.60
   4  -2  -5 1316.97   20.31
   4  -2  -5 1320.93   19.54
   4  -2  -4   50.51    2.90
   4  -2  -4   52.69    2.90
   4  -2  -4   52.08    2.64
   4  -2  -4   52.89    3.06
   4  -2  -4   49.47    2.70
   4  -2  -4   44.61    3.43
   4  -2  -3   19.56    1.79
   4  -2  -3   16.16    1.67
   4  -2  -3   16.68    1.51
   4  -2  -3   17.56    1.62
   4  -2  -3   17.83    1.71
   4  -2  -3   16.84    2.20
   4  -2  -2  525.30   10.34
   4  -2  -2  497.63    9.45
   4  -2  -2  477.36    9.62
   4  -2  -2  487.71    9.58
   4  -2  -2  452.90   12.18
   4  -2  -1  126.40    4.61
   4  -2  -1  116.79    4.78
   4  -2  -1  120.91    4.32
   4  -2  -1  120.27    5.89
   4  -2  -1  121.12    4.36
   4  -2   0   39.15    2.39
   4  -2   0   39.07    2.32
   4  -2   0   33.85    2.27
   4  -2   0   38.22    2.61
   4  -2   0   37.38    3.32
   4  -2   1 1130.35   17.90
   4  -2   1 1129.56   17.28
   4  -2   1 1249.30   18.38
   4  -2   1 1047.07   17.10
   4  -2   1 1134.38   18.32
   4  -2   1 1150.84   17.49
   4  -2   1 1141.98   17.14
   4  -2   1 1110.20   17.77
   4  -2   1 1094.11   23.84
   4  -2   1 1177.89   22.09
   4  -2   2  537.92   10.13
   4  -2   2  570.89   10.97
   4  -2   2  600.23   11.29
   4  -2   2  519.14   10.61
   4  -2   2  518.41   10.85
   4  -2   2  551.17   10.53
   4  -2   2  556.36   10.47
   4  -2   2  558.88   11.01
   4  -2   3   37.15    2.53
   4  -2   3   36.23    2.49
   4  -2   3   36.97    2.32
   4  -2   3   36.72    2.35
   4  -2   3   40.30    2.76
   4  -2   3   43.56    3.60
   4  -2   4  299.37    7.79
   4  -2   4  289.09    7.83
   4  -2   4  286.66    7.60
   4  -2   4  292.43    7.29
   4  -2   4  261.59    7.19
   4  -2   4  323.62    8.43
   4  -2   4  277.93   12.15
   4  -2   4  308.87    9.86
   4  -2   4  301.58    8.12
   4  -2   5  537.73   11.41
   4  -2   5  540.43   11.23
   4  -2   5  539.15   10.76
   4  -2   5  484.70   11.21
   4  -2   5  560.67   11.99
   4  -2   5  531.60   17.82
   4  -2   5  608.39   14.10
   4  -2   5  537.66   11.80
   4  -2   6   49.37    3.12
   4  -2   6   51.94    3.33
   4  -2   6   50.40    2.83
   4  -2   6   51.14    3.35
   4  -2   6   47.54    3.20
   4  -2   6   48.26    5.31
   4  -2   6   50.38    3.36
   4  -2   7    6.62    1.47
   4  -2   7    8.41    1.37
   4  -2   7    8.69    1.54
   4  -2   7    6.39    1.38
   4  -2   7    7.39    1.40
   4  -2   8   38.15    2.50
   4  -2   8   37.32    2.69
   4  -2   9    3.02    0.94
   4  -2   9    3.84    0.78
   4  -2  10   81.94    2.79
  -4   1  12   40.07    1.66
  -4   1  11   13.32    1.48
  -4   1  11   15.21    1.51
  -4   1  10    2.66    1.10
  -4   1   9    2.77    1.26
  -4   1   9    3.37    1.32
  -4   1   8  479.75   12.18
  -4   1   8  462.55   11.06
  -4   1   7   92.41    4.51
  -4   1   7  104.44    5.19
   4  -1  -6   21.72    1.81
  -4   1   6   25.25    2.44
  -4   1   6   21.46    2.08
   4  -1  -5   54.43    2.86
  -4   1   5   53.83    3.31
   4  -1  -4  133.20    4.51
   4  -1  -4  128.61    4.20
   4  -1  -4  123.16    5.26
   4  -1  -3 2420.26   31.81
   4  -1  -3 2369.09   34.43
   4  -1  -2  223.68    5.19
   4  -1  -2  208.39    7.06
   4  -1  -1   74.73    2.38
   4  -1  -1   86.01    3.49
   4  -1  -1   80.67    4.63
   4  -1  -1   82.46    4.26
   4  -1   0  715.17   15.54
   4  -1   1 1860.31   31.41
   4  -1   1 1806.42   28.95
   4  -1   2  337.62   11.62
   4  -1   2  333.70    9.00
   4  -1   3  168.31    5.12
   4  -1   3  166.45    5.44
   4  -1   3  173.05    5.45
   4  -1   3  152.75    7.95
   4  -1   3  169.00    7.03
   4  -1   3  164.82    5.22
   4  -1   3  158.04    5.85
   4  -1   4  675.21   12.21
   4  -1   4  640.79   11.41
   4  -1   4  666.69   11.44
   4  -1   4  660.35   12.76
   4  -1   4  663.03   18.51
   4  -1   4  685.01   15.07
   4  -1   4  673.84   12.59
   4  -1   5  286.25    7.40
   4  -1   5  298.06    7.88
   4  -1   5  294.52    7.79
   4  -1   5  286.62    6.77
   4  -1   5  272.62    7.85
   4  -1   5  289.18    8.03
   4  -1   5  304.76   12.56
   4  -1   5  304.53    9.28
   4  -1   6    2.68    1.09
   4  -1   6    3.41    0.98
   4  -1   6    2.95    1.06
   4  -1   6    4.53    0.92
   4  -1   6    4.02    1.21
   4  -1   6    4.82    1.93
   4  -1   6    2.89    1.13
   4  -1   6    3.26    1.13
   4  -1   7  457.49    9.83
   4  -1   7  471.05   10.61
   4  -1   7  422.96   15.97
   4  -1   7  446.37   11.47
   4  -1   7  457.24   10.81
   4  -1   7  444.16   10.88
   4  -1   8  217.24    6.64
   4  -1   8  206.73    6.63
   4  -1   9    7.15    1.49
   4  -1   9    6.25    1.22
   4  -1  10   24.48    1.59
   4  -1  10   23.78    1.97
   4  -1  11   15.61    1.21
  -4   0  11   29.97    2.02
  -4   0  10   16.42    1.91
  -4   0   9  320.09    9.61
  -4   0   9  327.68    8.94
  -4   0   8   13.81    1.97
  -4   0   8    9.14    1.88
  -4   0   8   10.99    1.72
  -4   0   7   95.32    5.17
  -4   0   7   85.68    4.43
  -4   0   7   84.42    4.37
  -4   0   6   41.40    3.22
  -4   0   6   37.69    2.77
  -4   0   6   40.64    2.87
   4   0  -5   28.39    1.96
  -4   0   5   26.75    2.43
  -4   0   5   26.36    2.16
  -4   0   5   24.29    2.06
   4   0  -4  389.88    8.11
  -4   0   4  393.27    8.43
  -4   0   4  356.13    7.95
  -4   0   4  382.40    9.09
   4   0  -4  381.30    9.57
   4   0  -3  695.14   12.65
   4   0  -3  710.26   14.13
   4   0  -2 2193.06   29.40
   4   0  -2 2251.67   31.85
   4   0  -1 5021.75   60.01
   4   0  -1 5238.29   63.56
   4   0   1 1063.51   14.98
   4   0   2  444.67   12.72
   4   0   2  455.94   11.52
   4   0   2  451.46   10.53
   4   0   3  142.46    5.25
   4   0   3  158.44    7.50
   4   0   3  156.19    6.39
   4   0   3  142.89    5.44
   4   0   4 1058.00   16.87
   4   0   4  979.93   17.24
   4   0   4 1010.63   22.35
   4   0   4  999.82   19.12
   4   0   4 1025.97   16.16
   4   0   4  972.06   17.09
   4   0   5   15.97    1.55
   4   0   5   14.81    1.56
   4   0   5   15.56    1.72
   4   0   5   15.20    1.83
   4   0   5   15.33    1.71
   4   0   5   12.59    1.84
   4   0   5   16.06    1.68
   4   0   6  173.68    5.30
   4   0   6  162.52    5.54
   4   0   6  174.91    5.84
   4   0   6  158.38    6.10
   4   0   6  169.88    9.06
   4   0   6  167.67    5.94
   4   0   6  164.29    6.17
   4   0   6  162.01    5.77
   4   0   7    6.05    1.10
   4   0   7    7.90    1.40
   4   0   7    7.94    1.40
   4   0   7    8.37    1.57
   4   0   7    8.10    1.52
   4   0   7    5.26    1.93
   4   0   7    7.38    1.45
   4   0   8  804.90   14.54
   4   0   8  745.46   15.27
   4   0   8  799.98   15.34
   4   0   8  756.09   21.45
   4   0   9 1198.34   18.59
   4   0   9 1134.17   19.40
   4   0  10  545.75   10.73
   4   0  10  548.07   11.47
   4   0  11   28.51    1.61
   4   0  11   28.25    2.03
   4   0  12    3.37    0.58
  -4  -1  11   32.56    1.97
  -4  -1  10   31.12    2.57
  -4  -1  10   32.85    2.49
  -4  -1   9  208.13    7.61
  -4  -1   9  218.72    7.16
  -4  -1   8   19.21    2.55
  -4  -1   8   22.54    2.46
  -4  -1   7    1.24    1.12
  -4  -1   7    0.08    1.06
  -4  -1   7    1.21    0.90
  -4  -1   6    0.83    0.87
  -4  -1   6    0.35    0.72
  -4  -1   5  291.77    8.63
  -4  -1   5  291.59    7.94
  -4  -1   5  285.34    7.86
  -4  -1   4   59.79    3.12
   4   1  -4   64.95    3.65
  -4  -1   4   58.28    3.08
   4   1  -4   56.86    3.41
  -4  -1   3  779.06   12.90
   4   1  -2  328.62    7.95
  -4  -1   2  310.24    6.51
   4   1  -1 1374.73   20.38
   4   1   0 1232.72   18.07
   4   1   1  418.82    8.13
   4   1   2 1485.13   20.58
   4   1   3 1344.01   21.49
   4   1   3 1438.94   25.19
   4   1   4    1.01    0.80
   4   1   4    0.10    0.97
   4   1   4    0.15    0.64
   4   1   5  817.00   14.10
   4   1   5  774.82   15.38
   4   1   5  794.14   18.77
   4   1   5  783.66   15.52
   4   1   5  810.09   13.78
   4   1   6  173.64    5.75
   4   1   6  189.80    6.00
   4   1   6  174.31    5.79
   4   1   6  169.68    8.43
   4   1   6  184.78    5.99
   4   1   6  169.51    5.60
   4   1   7  823.96   15.20
   4   1   7  815.43   14.66
   4   1   7  799.65   20.59
   4   1   7  799.93   15.32
   4   1   7  802.11   15.05
   4   1   8    6.72    1.46
   4   1   8    6.11    1.43
   4   1   8    6.17    1.26
   4   1   8    6.82    1.44
   4   1   9   27.50    2.11
   4   1   9   21.34    2.54
   4   1   9   26.14    2.50
   4   1   9   25.15    2.49
   4   1  10   80.05    3.99
   4   1  10   78.35    4.01
   4   1  11    1.00    0.82
   4   1  11    0.96    0.74
   4   1  12  160.69    3.42
  -4  -2  10   18.98    1.88
  -4  -2  10   20.69    1.89
  -4  -2   9    0.46    1.03
  -4  -2   8  364.26   10.61
  -4  -2   8  385.40   10.27
  -4  -2   7  211.75    8.01
  -4  -2   7  209.85    7.50
  -4  -2   7  208.31    7.54
  -4  -2   6  861.68   17.60
  -4  -2   6  849.92   16.66
  -4  -2   6  818.38   16.66
   4   2  -5  162.94    6.26
  -4  -2   5  145.16    5.76
  -4  -2   5  160.25    6.12
  -4  -2   4  305.13    8.11
  -4  -2   4  291.51    8.06
   4   2  -3   21.80    2.29
   4   2  -3   22.63    2.17
   4   2  -2 2345.31   32.52
   4   2  -2 2320.14   33.29
   4   2  -1   19.73    1.85
   4   2  -1   18.66    2.04
   4   2   0 3369.11   43.14
   4   2   0 3472.92   44.99
   4   2   1 1022.18   15.46
   4   2   1 1037.85   17.44
   4   2   2   91.43    3.59
   4   2   2   84.08    4.20
   4   2   3   95.34    4.48
   4   2   4 2052.91   31.77
   4   2   4 2092.08   30.04
   4   2   5 5485.47   66.12
   4   2   5 5468.69   71.98
   4   2   6   22.17    1.98
   4   2   6   19.66    1.82
   4   2   6   18.04    2.50
   4   2   6   19.24    1.76
   4   2   7   35.14    2.48
   4   2   7   31.03    2.36
   4   2   8  298.51    7.40
   4   2   8  280.04    7.95
   4   2   9   11.03    1.74
   4   2   9    9.34    1.66
   4   2   9   11.29    1.71
   4   2  10    1.85    0.99
   4   2  10    1.26    0.93
   4   2  11  155.29    6.07
   4   2  11  155.16    5.26
   4   2  11  156.64    5.32
   4   2  12   95.22    3.24
   4   2  12   90.76    3.37
  -4  -3   9    1.42    0.93
  -4  -3   9    2.22    1.05
  -4  -3   8  538.30   12.69
  -4  -3   8  559.22   12.58
  -4  -3   7  235.06    8.04
   4   3  -6 1092.12   21.02
   4   3  -6 1123.12   20.10
  -4  -3   6 1157.47   20.97
   4   3  -5  552.91   12.77
   4   3  -5  521.21   13.22
  -4  -3   5  552.59   12.86
   4   3  -4  775.83   16.13
   4   3  -4  792.33   15.74
  -4  -3   4  757.42   15.15
   4   3  -3 2134.43   31.98
   4   3  -3 2237.88   32.05
  -4  -3   3 2149.16   30.59
   4   3  -3 2127.46   31.56
   4   3  -2   73.20    4.16
   4   3  -2   75.89    4.04
   4   3  -2   73.93    4.16
   4   3  -1  100.96    4.75
   4   3  -1  111.21    4.86
   4   3   0  496.39   10.44
   4   3   0  486.22   11.45
  -4  -3   0  462.25   10.77
   4   3   1 7662.06   90.71
   4   3   1 7633.62   87.55
   4   3   1 7726.19   89.97
   4   3   1 7883.35   89.62
   4   3   2  127.62    5.54
   4   3   2  139.01    5.53
   4   3   3 1044.43   18.19
   4   3   3 1137.38   18.13
   4   3   4  168.88    6.27
   4   3   4  174.04    6.14
   4   3   5  540.95   12.83
   4   3   5  567.44   12.70
   4   3   6   19.80    1.82
   4   3   6   15.77    1.95
   4   3   7  118.04    4.41
   4   3   7  113.31    4.31
   4   3   8 1611.60   25.01
   4   3   8 1541.37   23.40
   4   3   9  124.91    5.33
   4   3   9  122.43    4.92
   4   3  10   38.44    2.88
   4   3  10   35.90    2.88
   4   3  10   32.71    2.51
   4   3  11  225.82    7.94
   4   3  11  220.32    6.66
   4   3  11  218.63    6.30
   4   3  12  175.98    6.03
   4   3  12  179.71    5.05
  -4  -4   9   30.18    2.09
  -4  -4   8   47.22    2.97
  -4  -4   8   51.33    3.21
  -4  -4   7    1.26    1.00
  -4  -4   7    1.93    1.17
  -4  -4   6    3.01    1.30
   4   4  -6    2.02    1.10
  -4  -4   6    3.32    1.39
   4   4  -5  147.18    6.71
  -4  -4   5  152.94    6.62
   4   4  -5  150.19    6.19
   4   4  -4 3426.64   47.07
   4   4  -4 3486.70   48.39
  -4  -4   4 3439.70   47.23
   4   4  -3 1123.48   21.00
   4   4  -3 1144.26   20.56
  -4  -4   3 1169.92   18.01
   4   4  -3 1115.75   20.26
   4   4  -2   27.16    2.78
   4   4  -2   28.65    2.73
   4   4  -2   28.94    2.62
  -4  -4   2   30.49    2.58
   4   4  -1 1635.19   25.58
   4   4  -1 1624.50   25.12
  -4  -4   1 1535.49   23.72
  -4  -4   1 1493.16   26.27
   4   4  -1 1657.15   25.46
   4   4  -1 1544.57   26.06
   4   4   0 1871.84   27.44
  -4  -4   0 1687.92   27.96
   4   4   0 1874.55   27.30
   4   4   0 1742.38   28.53
   4   4   1 1076.85   17.83
   4   4   1 1018.17   19.38
   4   4   1 1036.75   17.72
   4   4   1 1022.91   18.72
   4   4   1 1059.10   18.17
   4   4   2 1283.45   20.57
   4   4   2 1273.18   21.91
   4   4   3  612.47   12.01
   4   4   3  530.80   12.92
   4   4   3  526.54   10.91
  -4  -4  -3  460.01   11.52
   4   4   3  527.60   12.43
   4   4   3  560.32   11.96
   4   4   4 2402.66   35.18
   4   4   4 2347.69   34.20
   4   4   4 2263.81   31.27
   4   4   4 2472.66   33.39
   4   4   5   69.18    3.37
   4   4   5   59.68    3.10
   4   4   5   63.48    4.13
   4   4   5   64.16    3.82
   4   4   5   57.43    4.02
   4   4   6    9.67    1.65
  -4  -4  -8  223.83    7.96
   4   4   8  224.48    6.18
   4   4   9    2.67    0.90
  -4  -4  -9    1.62    0.98
   4   4  10   15.94    1.90
  -4  -4 -10   10.22    1.53
   4   4  11  144.68    5.00
   4   4  11  142.10    5.27
   4   4  12   58.40    2.86
   4   4  13   19.17    1.13
  -4  -5   8  108.34    3.73
  -4  -5   8  145.89    4.53
  -4  -5   7  119.21    4.99
  -4  -5   6   91.99    4.78
  -4  -5   6   77.40    4.12
  -4  -5   5  234.79    8.12
   4   5  -5  208.13    7.02
   4   5  -4    2.28    1.21
   4   5  -4    2.08    1.29
  -4  -5   4    2.01    1.33
  -4  -5   4    1.05    1.24
   4   5  -3 1635.16   27.86
  -4  -5   3 1700.84   27.93
   4   5  -3 1678.42   27.73
  -4  -5   3 1602.75   30.25
   4   5  -2  858.12   17.51
  -4  -5   2  882.52   17.59
   4   5  -2  954.57   18.47
  -4  -5   2  959.15   16.29
  -4  -5   2  856.09   19.62
   4   5  -2  894.79   17.49
   4   5  -1 1413.00   23.81
   4   5  -1 1391.35   25.18
  -4  -5   1 1404.56   23.59
   4   5  -1 1473.01   24.43
  -4  -5   1 1496.89   22.74
  -4  -5   1 1477.53   26.68
   4   5  -1 1403.85   23.64
   4   5   0  273.70    8.21
  -4  -5   0  266.20    8.02
   4   5   0  282.53    8.60
  -4  -5   0  273.49    9.34
  -4  -5   0  290.09    7.91
   4   5   0  268.62    9.24
   4   5   0  288.80    8.62
   4   5   1  697.11   13.93
   4   5   1  673.91   15.70
  -4  -5  -1  651.17   14.94
   4   5   2 1026.21   17.62
   4   5   2  972.64   19.62
   4   5   2  974.21   17.95
   4   5   2  969.55   18.28
   4   5   2 1054.51   18.71
   4   5   3   25.63    2.40
  -4  -5  -3   25.19    2.74
   4   5   3   25.22    2.62
   4   5   3   28.72    2.69
   4   5   4  240.99    8.76
   4   5   4  230.12    7.19
  -4  -5  -4  224.49    8.24
   4   5   4  227.68    8.08
  -4  -5  -4  224.14    6.82
   4   5   4  256.14    8.05
   4   5   5 1181.14   19.89
   4   5   5 1223.78   22.34
  -4  -5  -5 1160.53   19.35
   4   5   5 1286.10   21.54
   4   5   5 1250.43   23.21
  -4  -5  -6 1507.20   23.39
   4   5   6 1678.86   27.90
   4   5   6 1543.42   23.83
   4   5   6 1636.02   27.33
   4   5   6 1696.08   26.35
  -4  -5  -6 1456.55   23.15
  -4  -5  -7  580.37   12.23
   4   5   7  619.07   15.12
  -4  -5  -8  112.58    4.89
   4   5   8  127.73    6.45
  -4  -5  -8  121.99    6.07
  -4  -5  -9    1.98    0.98
   4   5   9   -0.10    1.36
  -4  -5  -9    0.60    1.00
   4   5  10   65.47    3.52
  -4  -5 -10   58.18    3.64
  -4  -5 -10   52.17    3.09
   4   5  10   63.24    4.46
   4   5  11   11.89    1.45
   4   5  11   11.32    1.96
   4   5  12   53.07    3.31
   4   5  12   54.10    2.67
   4   5  13   14.54    0.97
  -4  -6   7   28.07    1.77
  -4  -6   6   65.30    3.01
  -4  -6   5   37.61    3.06
   4   6  -5   36.53    2.41
  -4  -6   5   36.02    2.56
  -4  -6   4   55.96    3.89
   4   6  -4   48.72    3.23
  -4  -6   3   12.14    2.01
   4   6  -3   12.92    2.04
   4   6  -2  100.63    4.90
  -4  -6   2  126.65    5.06
  -4  -6   2  127.93    5.42
  -4  -6   2  118.20    5.84
  -4  -6   2  102.14    6.08
   4   6  -2  111.72    5.64
   4   6  -1  303.35    8.90
   4   6  -1  330.49   10.05
  -4  -6   1  308.76   10.86
   4   6  -1  311.32    9.43
   4   6  -1  312.99   10.40
   4   6   0  446.28   11.03
   4   6   0  474.00   12.15
   4   6   0  464.26   13.15
  -4  -6   0  450.35   13.14
   4   6   0  466.77   11.88
   4   6   1   45.55    3.58
   4   6   1   40.78    3.03
  -4  -6  -1   50.29    3.41
  -4  -6  -1   37.81    3.75
   4   6   1   47.08    3.58
   4   6   1   42.17    3.80
   4   6   2  440.14   10.79
   4   6   2  453.52   11.76
  -4  -6  -3    5.89    1.25
  -4  -6  -3    6.64    1.79
  -4  -6  -3    7.17    1.52
   4   6   4 2477.45   38.48
   4   6   4 2424.26   35.13
  -4  -6  -4 2423.48   34.33
  -4  -6  -4 2250.82   32.52
  -4  -6  -4 2234.16   37.15
   4   6   4 2361.21   35.43
  -4  -6  -5 1921.16   29.40
   4   6   5 1812.99   31.12
  -4  -6  -5 1714.27   26.72
   4   6   5 1780.95   27.77
  -4  -6  -5 1667.21   25.87
   4   6   5 1731.97   28.75
   4   6   5 1892.16   29.18
  -4  -6  -6  281.79    8.72
  -4  -6  -6  251.50    7.60
   4   6   6  278.89    9.98
   4   6   6  270.73    8.25
  -4  -6  -6  258.35    7.61
   4   6   6  279.17    9.38
   4   6   6  284.92    8.98
  -4  -6  -7  248.89    7.16
   4   6   7  264.24    9.38
   4   6   7  252.22    7.64
  -4  -6  -7  257.13    7.61
   4   6   7  260.54    9.16
  -4  -6  -8  479.08   12.86
   4   6   8  491.35   12.93
  -4  -6  -9  360.26   10.46
   4   6   9  380.64   10.99
   4   6  10    3.20    1.00
  -4  -6 -10    3.76    1.02
   4   6  10    3.02    1.35
   4   6  11   64.54    2.69
   4   6  11   65.47    3.80
   4   6  12    2.66    0.90
   4   6  12    2.51    0.70
  -4  -7   6   67.86    2.25
  -4  -7   5  179.78    5.01
  -4  -7   4  218.09    6.24
   4   7  -4  181.55    5.07
   4   7  -3    5.59    1.27
   4   7  -2   67.42    4.02
  -4  -7   2   66.40    3.43
   4   7  -1  496.47   13.24
   4   7  -1  547.11   13.25
   4   7   0  342.91   11.17
   4   7   0  359.39   10.55
  -4  -7  -1  103.31    5.04
  -4  -7  -1  101.30    5.33
   4   7   1   88.53    5.64
   4   7   1   97.42    5.29
  -4  -7  -1   85.43    5.79
   4   7   1   85.73    4.89
  -4  -7  -2   11.99    2.01
   4   7   2   10.79    2.24
  -4  -7  -2   11.98    2.34
   4   7   2   11.15    1.93
  -4  -7  -3  159.65    6.88
  -4  -7  -3  144.64    6.07
   4   7   3  148.29    7.44
  -4  -7  -3  142.81    7.39
   4   7   3  147.65    6.62
  -4  -7  -4  255.30    8.73
  -4  -7  -4  246.40    8.02
   4   7   4  246.96    8.51
  -4  -7  -4  231.34    7.16
  -4  -7  -4  234.87    9.33
   4   7   4  253.67    8.82
  -4  -7  -5  165.73    6.39
  -4  -7  -5  169.84    6.87
   4   7   5  176.80    8.07
   4   7   5  172.91    6.92
  -4  -7  -5  162.41    5.91
   4   7   5  186.40    7.39
  -4  -7  -6   28.64    2.61
   4   7   6   23.89    2.97
   4   7   6   26.65    2.68
  -4  -7  -6   22.45    2.20
   4   7   7  269.58    8.11
  -4  -7  -7  239.63    7.28
  -4  -7  -7  257.05    7.38
   4   7   7  257.91    9.26
  -4  -7  -8   47.28    3.70
   4   7   8   43.88    3.23
  -4  -7  -9    4.77    1.08
  -4  -7  -9    3.31    1.23
   4   7   9    3.98    1.20
   4   7  10   38.90    2.08
  -4  -7 -10   40.31    2.93
  -4  -7 -10   32.91    2.07
   4   7  10   37.74    2.70
   4   7  11  243.50    6.07
   4   7  12   20.62    1.19
  -4  -8   3   12.30    1.07
  -4  -8   2   72.49    2.83
   4   8  -2   68.36    3.14
   4   8  -1  505.68   11.01
  -4  -8   1  481.46    9.86
   4   8   0   27.04    2.80
   4   8   0   29.83    2.72
   4   8   1    3.98    1.52
   4   8   1    5.08    1.46
  -4  -8  -1    4.13    1.32
   4   8   2  320.92   10.79
   4   8   2  338.10    9.94
   4   8   3  584.11   15.37
   4   8   3  599.09   14.03
  -4  -8  -4   73.94    4.24
   4   8   5    0.43    1.29
   4   8   5    0.64    1.05
  -4  -8  -5    1.66    1.08
   4   8   6   30.72    3.22
   4   8   6   29.97    2.75
  -4  -8  -6   32.42    2.93
  -4  -8  -6   32.58    2.62
   4   8   7  185.02    7.28
   4   8   7  195.41    6.58
  -4  -8  -7  171.32    5.53
  -4  -8  -7  206.22    7.16
  -4  -8  -8   32.27    2.18
  -4  -8  -8   36.26    2.05
   4   8   9  128.49    3.47
  -4  -8  -9  125.22    3.91
   4   9   0  156.69    4.50
  -4  -9   0  143.10    3.95
   4   9   1   98.48    4.06
  -4  -9  -1   95.81    3.61
  -4  -9  -1  107.50    3.78
   4   9   2  415.74   10.77
   4   9   2  441.14    9.98
   4   9   3   17.57    2.24
   4   9   3   17.65    1.94
  -4  -9  -4  124.66    4.69
   4   9   4  116.11    5.56
   4   9   4  116.47    4.85
   4   9   5  456.83   11.68
  -4  -9  -5  495.13   10.09
   4   9   6  707.33   13.23
  -4  -9  -6  720.67   12.27
  -4  -9  -7   26.55    1.72
   4   9   7   27.58    2.06
  -4  -9  -8    7.98    1.12
  -4 -10  -3  150.57    3.41
  -4 -10  -4   90.88    2.67
  -4 -10  -5   74.50    2.33
   5  -6  -7   26.46    1.16
   5  -6  -6   20.51    1.27
   5  -6  -5   96.22    3.05
   5  -6  -5   94.86    2.82
   5  -6  -4  132.92    3.78
   5  -6  -4  132.09    3.70
   5  -6  -3    2.57    0.69
   5  -6  -3    3.13    0.67
   5  -6  -3    2.86    0.75
   5  -6  -2    1.39    0.57
   5  -6  -1   53.47    2.24
   5  -6  -1   52.56    2.27
   5  -6   0  190.33    4.42
   5  -6   0  190.53    4.48
   5  -6   1   16.94    1.20
   5  -6   2    0.48    0.38
   5  -6   2   -0.02    0.37
   5  -5  -8    6.36    0.64
   5  -5  -7    5.86    0.86
  -5   5   7    5.13    0.64
   5  -5  -6   16.95    1.50
   5  -5  -6   14.31    1.24
   5  -5  -5   20.72    1.78
   5  -5  -5   22.26    1.73
   5  -5  -4   19.23    1.51
   5  -5  -4   16.84    1.61
   5  -5  -3  135.06    4.68
   5  -5  -3  133.70    4.23
   5  -5  -3  135.68    4.67
   5  -5  -2    6.21    1.14
   5  -5  -2    6.45    1.13
   5  -5  -2    5.59    1.15
   5  -5  -1  153.26    4.73
   5  -5  -1  150.05    4.73
   5  -5  -1  156.44    5.02
   5  -5  -1  158.76    4.96
   5  -5   0  105.08    3.90
   5  -5   0  108.04    4.00
   5  -5   0  107.10    3.99
   5  -5   1  109.87    3.92
   5  -5   2  366.75    7.43
   5  -5   3  757.31   11.46
   5  -5   3  761.48   11.80
   5  -5   4  222.61    4.66
  -5   4   9   10.58    0.92
   5  -4  -8  122.29    3.35
  -5   4   8  123.88    3.65
   5  -4  -7  204.47    5.29
  -5   4   7  187.59    4.99
   5  -4  -6  127.63    4.50
   5  -4  -6  121.01    3.89
   5  -4  -5    0.52    0.80
   5  -4  -5    0.64    0.74
   5  -4  -4    1.22    0.89
   5  -4  -4    0.97    0.73
   5  -4  -4    1.17    0.83
   5  -4  -3   44.95    2.66
   5  -4  -3   48.37    2.95
   5  -4  -3   43.12    3.21
   5  -4  -2  170.07    5.68
   5  -4  -2  165.44    5.31
   5  -4  -2  165.32    5.63
   5  -4  -2  161.20    5.46
   5  -4  -2  165.48    6.76
   5  -4  -1   15.29    1.71
   5  -4  -1   14.59    1.69
   5  -4  -1   14.66    1.71
   5  -4  -1   19.13    2.46
   5  -4   0    2.68    0.86
   5  -4   0    0.46    0.76
   5  -4   0    2.27    0.91
   5  -4   0    0.99    0.82
   5  -4   0    1.15    1.18
   5  -4   1   54.39    3.04
   5  -4   1   58.76    4.21
   5  -4   2  206.81    5.97
   5  -4   2  218.39    5.92
   5  -4   2  217.72    6.11
   5  -4   2  216.47    6.53
   5  -4   2  234.25    8.18
   5  -4   3   65.18    3.04
   5  -4   3   66.99    3.14
   5  -4   3   73.00    3.53
   5  -4   4  106.63    3.74
   5  -4   4  107.48    4.05
   5  -4   5   73.16    3.01
   5  -4   6    4.19    0.74
  -5   3  10    9.66    0.90
  -5   3   9    2.11    0.70
   5  -3  -8    3.57    0.73
  -5   3   8    7.02    1.11
   5  -3  -7   21.74    1.76
  -5   3   7   19.12    1.73
   5  -3  -6   57.12    3.07
   5  -3  -6   53.61    2.63
  -5   3   6   50.12    2.78
   5  -3  -5 1739.97   25.64
   5  -3  -5 1739.95   24.65
   5  -3  -5 1789.87   27.04
   5  -3  -4 1088.60   18.13
   5  -3  -4 1081.59   17.06
   5  -3  -4 1108.98   19.21
   5  -3  -4 1088.36   17.67
   5  -3  -3  156.96    5.59
   5  -3  -3  155.34    5.14
   5  -3  -3  153.01    5.90
   5  -3  -3  154.87    5.42
   5  -3  -3  143.69    6.51
   5  -3  -2   27.61    2.35
   5  -3  -2   24.93    2.11
   5  -3  -2   22.62    2.28
   5  -3  -2   21.93    2.13
   5  -3  -2   24.23    2.15
   5  -3  -2   26.84    2.97
   5  -3  -1  279.34    7.58
   5  -3  -1  269.92    7.18
   5  -3  -1  261.54    7.72
   5  -3  -1  278.14    9.82
   5  -3   0    3.47    1.14
   5  -3   0    4.09    1.09
   5  -3   0    4.69    1.22
   5  -3   0    4.08    1.05
   5  -3   0    6.10    1.27
   5  -3   0    3.19    1.48
   5  -3   1  506.73   10.32
   5  -3   1  472.83    9.72
   5  -3   1  493.01   10.40
   5  -3   1  467.66   10.47
   5  -3   1  512.77   10.86
   5  -3   1  509.81   10.43
   5  -3   1  525.41   14.07
   5  -3   1  505.78   11.13
   5  -3   2   77.32    3.58
   5  -3   2   80.15    3.72
   5  -3   2   79.68    3.73
   5  -3   2   87.82    3.90
   5  -3   2   76.74    3.62
   5  -3   2   79.98    4.12
   5  -3   2   98.49    5.77
   5  -3   2   98.91    4.38
   5  -3   3   86.07    3.89
   5  -3   3   84.24    3.71
   5  -3   3   88.69    3.82
   5  -3   3   82.48    3.53
   5  -3   3   84.55    3.74
   5  -3   3   87.70    4.29
   5  -3   3   89.04    4.20
   5  -3   4  135.24    4.95
   5  -3   4  131.53    4.45
   5  -3   4  135.80    4.65
   5  -3   4  141.11    5.39
   5  -3   4  145.60    6.48
   5  -3   4  128.82    5.09
   5  -3   5    4.87    1.17
   5  -3   5    3.91    0.93
   5  -3   5    3.59    1.07
   5  -3   6   13.78    1.55
   5  -3   6   12.71    1.49
   5  -3   7  268.50    6.09
   5  -3   8  431.60    7.06
  -5   2  10    1.12    0.60
  -5   2   9   99.47    3.76
  -5   2   8    4.08    1.03
   5  -2  -7  128.71    4.31
  -5   2   7  127.21    4.73
   5  -2  -6   64.14    3.27
  -5   2   6   58.26    3.15
   5  -2  -5    2.57    0.97
   5  -2  -5    2.10    0.85
   5  -2  -4  182.43    6.01
   5  -2  -4  189.59    5.76
   5  -2  -3  838.44   15.08
   5  -2  -3  859.39   14.41
   5  -2  -3  819.17   16.25
   5  -2  -3  831.52   14.68
   5  -2  -3  794.16   18.01
   5  -2  -2 1562.68   22.63
   5  -2  -2 1537.04   24.85
   5  -2  -2 1572.37   23.26
   5  -2  -2 1540.23   27.95
   5  -2  -1 1919.56   27.23
   5  -2  -1 1887.66   26.45
   5  -2  -1 1816.14   28.31
   5  -2  -1 1889.73   27.11
   5  -2  -1 1905.20   26.58
   5  -2  -1 1928.67   32.53
   5  -2   0  214.58    6.36
   5  -2   0  187.75    5.57
   5  -2   0  200.01    6.84
   5  -2   0  210.25    6.32
   5  -2   0  199.69    5.93
   5  -2   0  203.78    6.28
   5  -2   0  214.03    8.89
   5  -2   0  200.76    6.27
   5  -2   1  203.90    6.07
   5  -2   1  206.00    6.05
   5  -2   1  191.98    5.91
   5  -2   1  208.90    6.86
   5  -2   1  208.99    6.35
   5  -2   1  209.00    5.98
   5  -2   1  205.72    6.40
   5  -2   1  210.62    8.88
   5  -2   1  205.83    6.31
   5  -2   2   28.97    2.16
   5  -2   2   30.15    2.32
   5  -2   2   30.33    2.28
   5  -2   2   31.08    2.55
   5  -2   2   29.66    2.29
   5  -2   2   32.69    2.29
   5  -2   2   30.09    2.49
   5  -2   2   35.23    3.60
   5  -2   3   92.36    4.19
   5  -2   3   96.84    3.95
   5  -2   3   90.42    4.26
   5  -2   3   94.01    3.92
   5  -2   3   94.47    3.91
   5  -2   4  763.01   14.65
   5  -2   4  800.59   13.52
   5  -2   4  791.61   14.61
   5  -2   4  769.00   13.50
   5  -2   4  795.92   15.12
   5  -2   4  756.17   21.05
   5  -2   5    3.49    1.18
   5  -2   5    3.13    1.11
   5  -2   5    3.63    0.89
   5  -2   5    3.84    1.16
   5  -2   5    2.89    1.29
   5  -2   6   20.43    2.08
   5  -2   6   19.56    2.04
   5  -2   7   80.16    3.65
   5  -2   7   76.79    3.64
   5  -2   8   23.16    1.70
   5  -2   8   23.17    1.80
   5  -2   9   15.84    1.23
  -5   1  11   13.91    0.92
  -5   1  10   21.60    1.59
  -5   1  10   25.59    1.75
  -5   1   9  903.86   15.04
  -5   1   8   67.35    3.65
  -5   1   8   68.57    3.54
  -5   1   7   39.39    2.89
  -5   1   7   33.34    2.57
   5  -1  -6   23.16    1.98
  -5   1   6   23.83    2.29
  -5   1   6   21.52    2.03
   5  -1  -5   81.71    3.75
  -5   1   5   78.60    3.65
   5  -1  -5   71.86    4.57
   5  -1  -4   84.26    3.85
   5  -1  -4   79.45    3.53
   5  -1  -4   73.38    4.82
   5  -1  -3  418.81    9.46
   5  -1  -3  412.62    9.07
   5  -1  -3  413.31   12.29
   5  -1  -3  418.62   11.40
   5  -1  -2  693.01   12.99
   5  -1  -2  689.50   12.46
   5  -1  -2  711.96   12.84
   5  -1  -2  667.10   16.51
   5  -1  -2  711.38   15.66
   5  -1  -1  587.37   10.95
   5  -1  -1  542.58   10.59
   5  -1  -1  565.45   12.54
   5  -1  -1  584.93   11.31
   5  -1  -1  602.44   11.02
   5  -1  -1  563.01   10.62
   5  -1  -1  586.97   15.17
   5  -1  -1  573.62   13.88
   5  -1   0   56.46    3.05
   5  -1   0   55.86    3.00
   5  -1   0   56.42    3.51
   5  -1   0   60.94    2.94
   5  -1   0   52.67    2.83
   5  -1   0   56.08    4.49
   5  -1   0   57.12    2.98
   5  -1   1  156.35    5.19
   5  -1   1  162.06    5.05
   5  -1   1  151.02    5.27
   5  -1   1  167.93    6.06
   5  -1   1  167.13    5.38
   5  -1   1  163.15    4.93
   5  -1   1  156.69    5.19
   5  -1   1  166.45    7.71
   5  -1   1  167.72    5.26
   5  -1   1  168.68    6.90
   5  -1   2 1202.45   18.60
   5  -1   2 1237.40   18.50
   5  -1   2 1187.15   19.63
   5  -1   2 1250.14   20.47
   5  -1   2 1228.29   19.04
   5  -1   2 1224.56   18.20
   5  -1   2 1204.70   19.24
   5  -1   2 1249.96   19.11
   5  -1   2 1250.24   22.11
   5  -1   3  714.97   12.46
   5  -1   3  736.69   12.64
   5  -1   3  716.71   13.99
   5  -1   3  739.81   14.30
   5  -1   3  708.14   12.85
   5  -1   3  709.77   12.31
   5  -1   3  705.25   13.62
   5  -1   3  693.02   19.21
   5  -1   3  785.43   18.01
   5  -1   3  755.73   13.63
   5  -1   4  165.00    4.95
   5  -1   4  162.34    5.90
   5  -1   4  155.76    5.79
   5  -1   4  157.54    4.79
   5  -1   4  146.60    8.58
   5  -1   4  156.97    7.19
   5  -1   4  150.77    5.47
   5  -1   5  176.29    4.90
   5  -1   5  180.67    6.25
   5  -1   5  168.73    4.92
   5  -1   5  169.34    6.13
   5  -1   5  166.90    9.38
   5  -1   5  178.24    7.38
   5  -1   5  167.14    5.95
   5  -1   6  195.28    6.54
   5  -1   6  191.59    6.54
   5  -1   6  189.02   10.01
   5  -1   6  209.04    7.46
   5  -1   7  105.45    4.56
   5  -1   7   91.77    4.34
   5  -1   8   37.02    2.52
   5  -1   8   35.73    2.53
   5  -1   9   41.67    2.28
   5  -1   9   42.12    2.42
   5  -1  10    3.23    0.52
   5  -1  10    4.26    0.73
  -5   0  10   15.55    1.43
  -5   0   9   35.99    2.65
  -5   0   9   39.21    2.60
  -5   0   8    2.46    1.08
  -5   0   8    0.54    0.89
  -5   0   7   49.64    3.52
  -5   0   7   49.29    3.23
   5   0  -6 1171.63   19.56
  -5   0   6 1164.49   20.20
  -5   0   6 1139.58   18.98
   5   0  -5  112.15    4.31
   5   0  -5  121.44    5.12
  -5   0   5  113.23    5.02
  -5   0   5  107.09    4.45
   5   0  -5  103.03    4.87
   5   0  -4   78.00    3.63
   5   0  -4   85.86    4.15
  -5   0   4   75.40    3.83
   5   0  -4   83.12    4.59
   5   0  -3  112.61    4.42
   5   0  -3  125.47    4.82
   5   0  -3  117.49    5.64
   5   0  -2  991.99   16.46
   5   0  -2 1048.39   16.37
   5   0  -2  992.72   15.93
   5   0  -2 1011.70   16.12
   5   0  -2 1006.14   19.57
   5   0  -1   38.84    2.53
   5   0  -1   41.06    2.30
   5   0  -1   42.63    2.48
   5   0  -1   37.11    2.39
   5   0  -1   39.73    2.43
   5   0  -1   38.14    3.27
   5   0   0 1716.10   23.43
   5   0   0 1791.03   25.06
   5   0   0 1792.93   24.42
   5   0   0 1714.53   24.97
   5   0   0 1838.92   24.93
   5   0   0 1810.69   26.83
   5   0   0 1766.47   24.07
   5   0   0 1846.78   28.91
   5   0   1  157.84    5.12
   5   0   1  168.58    4.92
   5   0   1  154.04    5.28
   5   0   1  167.10    5.93
   5   0   1  164.36    5.12
   5   0   1  168.54    4.72
   5   0   1  156.78    4.83
   5   0   1  163.38    6.27
   5   0   1  163.11    4.84
   5   0   1  164.56    6.75
   5   0   2    1.06    0.64
   5   0   2    0.52    0.53
   5   0   2    1.29    0.65
   5   0   2    0.06    0.61
   5   0   2    1.38    0.81
   5   0   2    3.33    1.21
   5   0   2    0.38    0.60
   5   0   2    0.11    0.92
   5   0   2    0.17    0.81
   5   0   3   53.04    2.78
   5   0   3   57.81    2.73
   5   0   3   54.66    3.25
   5   0   3   51.43    3.22
   5   0   3   52.35    2.46
   5   0   3   52.78    3.49
   5   0   3   51.22    2.96
   5   0   3   55.78    4.83
   5   0   3   56.19    4.32
   5   0   3   52.72    2.84
   5   0   3   55.89    3.78
   5   0   4  562.35   10.56
   5   0   4  600.51   10.41
   5   0   4  582.34   12.96
   5   0   4  564.91   11.75
   5   0   4  575.24   16.92
   5   0   4  583.94   11.50
   5   0   4  564.63   12.92
   5   0   5  273.95    7.08
   5   0   5  295.89    8.39
   5   0   5  281.34    8.47
   5   0   5  273.48   11.63
   5   0   5  289.60    9.38
   5   0   5  289.01    7.71
   5   0   6  209.74    6.30
   5   0   6  222.58    7.04
   5   0   6  212.14    7.20
   5   0   6  208.64    6.98
   5   0   6  197.83   10.04
   5   0   6  227.77    7.81
   5   0   6  210.18    6.68
   5   0   7   44.03    3.04
   5   0   7   41.27    3.07
   5   0   7   40.23    4.58
   5   0   7   40.58    2.93
   5   0   8  124.58    4.83
   5   0   8  121.63    5.07
   5   0   8  115.43    4.82
   5   0   9  246.33    6.76
   5   0   9  232.90    6.65
   5   0  10  125.04    3.95
  -5  -1  10   48.90    2.37
  -5  -1   9   47.19    3.03
  -5  -1   9   51.39    2.94
  -5  -1   8    2.53    1.13
  -5  -1   8    2.69    1.12
  -5  -1   7   94.06    4.96
  -5  -1   7   97.60    4.62
   5   1  -6    2.72    1.16
  -5  -1   6    5.85    1.44
  -5  -1   6    2.73    1.06
   5   1  -5  604.26   13.13
  -5  -1   5  573.02   12.99
  -5  -1   5  573.85   12.04
   5   1  -4  373.85    8.57
  -5  -1   4  361.95    8.66
   5   1  -4  353.82   10.00
   5   1  -3  881.98   15.30
   5   1  -3  891.34   17.91
   5   1  -2  289.57    7.42
   5   1  -2  329.42    8.51
   5   1  -2  321.88    8.43
   5   1  -2  301.53    9.29
   5   1  -1  562.28   11.04
   5   1  -1  574.56   11.44
   5   1  -1  595.21   11.66
   5   1  -1  575.33   13.62
   5   1   0   16.89    1.65
   5   1   0   20.52    2.04
   5   1   0   19.28    1.72
   5   1   0   18.38    2.33
   5   1   1  267.32    6.83
   5   1   1  272.92    6.79
   5   1   1  265.05    7.31
   5   1   1  275.27    7.63
   5   1   1  270.88    8.53
   5   1   2   25.97    2.00
   5   1   2   23.31    2.10
   5   1   2   26.07    2.22
   5   1   2   25.48    2.53
   5   1   2   25.55    1.85
   5   1   2   25.12    2.63
   5   1   3   78.65    3.86
   5   1   3   77.34    4.37
   5   1   3   74.69    3.35
   5   1   3   72.36    4.82
   5   1   3   77.21    4.46
   5   1   3   84.03    3.54
   5   1   4   47.47    3.10
   5   1   4   48.60    3.03
   5   1   4   45.58    3.43
   5   1   4   44.45    2.70
   5   1   4   44.05    3.71
   5   1   4   49.02    2.68
   5   1   4   43.18    3.31
   5   1   5  264.18    7.14
   5   1   5  288.15    8.24
   5   1   5  300.12    8.01
   5   1   5  279.24    8.89
   5   1   5  268.90    7.53
   5   1   5  274.69   10.88
   5   1   5  289.30    9.47
   5   1   5  285.67    7.28
   5   1   5  263.85    8.10
   5   1   6   10.05    1.49
   5   1   6   14.95    1.88
   5   1   6   12.12    1.67
   5   1   6   13.17    2.09
   5   1   6   11.32    2.41
   5   1   6   11.24    1.73
   5   1   6   12.37    1.59
   5   1   7  980.75   17.46
   5   1   7 1090.52   18.12
   5   1   7 1033.68   19.74
   5   1   7 1047.26   18.25
   5   1   7  975.99   23.06
   5   1   7 1032.20   17.59
   5   1   8  640.96   13.07
   5   1   8  643.39   14.45
   5   1   8  646.04   13.54
   5   1   8  659.03   13.07
   5   1   9  320.76    8.55
   5   1   9  316.81    8.19
   5   1  10   93.47    3.86
   5   1  10   77.86    3.48
   5   1  11   70.60    2.65
   5   1  11   63.33    2.57
  -5  -2  10    5.45    0.81
  -5  -2   9    3.28    0.97
  -5  -2   9    3.08    0.92
  -5  -2   8  176.75    6.45
  -5  -2   8  180.78    6.10
  -5  -2   7  301.62    9.22
  -5  -2   7  308.71    8.68
   5   2  -6  169.75    6.90
  -5  -2   6  164.94    6.75
  -5  -2   6  170.91    6.35
   5   2  -5    6.35    1.59
  -5  -2   5    7.96    1.64
  -5  -2   5    4.33    1.24
   5   2  -4   10.98    1.90
   5   2  -4   12.27    1.88
  -5  -2   4   12.18    1.62
   5   2  -4   11.37    1.78
   5   2  -3  344.70    9.60
   5   2  -3  292.77    7.50
   5   2  -2  178.76    6.51
   5   2  -2  175.95    6.27
   5   2  -2  158.97    5.29
   5   2  -1 1525.73   23.34
   5   2  -1 1506.13   23.00
   5   2  -1 1460.08   22.56
   5   2   0   14.45    1.68
   5   2   0   11.22    1.50
   5   2   1  231.17    6.62
   5   2   1  232.53    6.63
   5   2   1  228.18    6.32
   5   2   2    8.85    1.35
   5   2   2    6.30    1.06
   5   2   3 1569.95   23.73
   5   2   3 1580.62   23.00
   5   2   3 1548.83   25.73
   5   2   3 1499.12   21.56
   5   2   4  183.46    6.14
   5   2   4  191.97    5.93
   5   2   4  175.18    7.00
   5   2   4  171.17    5.33
   5   2   4  174.54    7.31
   5   2   5   27.40    2.41
   5   2   5   30.19    2.31
   5   2   5   29.27    2.95
   5   2   5   26.11    2.14
   5   2   5   26.95    2.70
   5   2   5   28.87    2.00
   5   2   5   25.25    2.56
   5   2   6  251.31    7.51
   5   2   6  248.29    7.17
   5   2   6  226.96    8.35
   5   2   6  219.40    6.83
   5   2   6  223.88    6.27
   5   2   7    8.24    1.53
   5   2   7    9.57    1.55
   5   2   7    7.83    1.84
   5   2   7    9.80    1.40
   5   2   8  160.87    5.95
   5   2   8  175.60    5.68
   5   2   8  159.25    6.98
   5   2   8  158.87    6.04
   5   2   8  158.23    5.48
   5   2   9    5.19    1.14
   5   2   9    6.09    1.33
   5   2   9    6.44    1.13
   5   2   9    6.61    1.61
   5   2   9    5.78    1.38
   5   2  10  138.31    3.91
   5   2  10  131.15    5.55
   5   2  10  140.06    5.12
   5   2  10  132.00    4.59
   5   2  11   31.76    2.08
   5   2  12   61.75    2.00
  -5  -3   9  158.71    4.52
  -5  -3   8   29.38    2.46
  -5  -3   8   27.47    2.26
  -5  -3   7   15.64    2.05
  -5  -3   7   16.32    2.04
  -5  -3   6    5.79    1.60
  -5  -3   6    8.26    1.66
   5   3  -5  165.63    6.64
  -5  -3   5  180.23    6.62
   5   3  -4  167.99    6.65
  -5  -3   4  165.64    6.19
  -5  -3   3  149.72    5.57
   5   3  -3  147.06    6.10
   5   3  -2    7.50    1.63
   5   3  -2    4.83    1.36
   5   3  -2    4.31    1.38
   5   3  -1  253.61    7.95
   5   3  -1  242.40    7.54
   5   3  -1  236.96    8.44
   5   3   0  111.23    4.89
   5   3   0  103.74    4.66
  -5  -3   0   99.25    4.59
   5   3   0   95.74    5.23
   5   3   1   68.25    3.68
   5   3   1   68.69    3.62
   5   3   1   70.04    4.44
   5   3   1   60.93    4.23
   5   3   2 2271.73   31.43
   5   3   2 2166.57   34.21
   5   3   3   11.70    1.34
   5   3   3    9.00    1.77
   5   3   3    7.19    1.63
   5   3   4   21.89    2.14
   5   3   4   22.35    1.85
   5   3   4   22.59    2.66
   5   3   4   19.76    1.67
   5   3   4   22.68    2.59
   5   3   5    5.01    1.17
   5   3   5    6.05    1.11
   5   3   5    4.82    1.00
   5   3   6  874.51   15.90
   5   3   6  848.36   14.99
   5   3   7   23.11    2.17
   5   3   7   20.72    2.70
   5   3   7   19.23    2.04
   5   3   7   21.81    1.80
   5   3   8    4.04    0.97
   5   3   8    5.25    1.09
   5   3   8    3.93    1.53
   5   3   8    6.57    1.38
   5   3   9   82.70    5.05
   5   3  10   75.12    3.74
   5   3  10   68.61    4.29
   5   3  10   74.40    3.77
   5   3  11   37.33    2.83
   5   3  11   38.81    2.43
   5   3  12   22.13    1.43
  -5  -4   8   14.07    1.44
  -5  -4   8    2.28    0.80
  -5  -4   7   30.41    2.49
  -5  -4   7   35.50    2.63
  -5  -4   6  302.70    8.66
   5   4  -5    4.10    1.41
  -5  -4   5    2.88    1.31
   5   4  -4  240.82    8.63
   5   4  -4  227.33    7.91
  -5  -4   4  243.49    7.93
  -5  -4   4  228.11    9.36
   5   4  -3 1126.91   21.41
  -5  -4   3 1122.38   19.67
   5   4  -3 1137.09   20.65
  -5  -4   3 1071.53   22.48
   5   4  -2  407.62   11.11
  -5  -4   2  380.06    9.56
   5   4  -2  390.59   10.58
  -5  -4   2  352.09   11.22
   5   4  -2  347.49   10.57
   5   4  -1    3.70    1.33
   5   4  -1    6.29    1.51
  -5  -4   1    4.46    1.35
   5   4  -1    3.48    1.35
   5   4   0  289.86    8.69
   5   4   0  311.15    8.94
   5   4   0  309.79    9.81
   5   4   1    1.03    0.88
   5   4   1   -0.18    1.00
  -5  -4  -1    0.07    0.59
   5   4   1    0.65    0.99
   5   4   2   22.51    2.17
   5   4   2   24.03    2.76
   5   4   3  549.31   11.29
   5   4   3  548.02   13.57
   5   4   3  574.86   13.86
   5   4   4   13.12    1.56
   5   4   4   17.08    2.44
   5   4   4   16.09    2.31
   5   4   5  875.21   18.66
   5   4   5  846.72   18.30
   5   4   6   27.89    2.37
   5   4   6   25.31    2.98
   5   4   6   25.25    2.86
   5   4   7    4.03    1.60
   5   4   7    1.23    0.76
  -5  -4  -8  383.14   10.48
   5   4   8  444.27   12.64
   5   4   9  383.39    9.69
   5   4   9  386.71   11.49
   5   4   9  366.29    9.21
   5   4  10    7.98    1.39
   5   4  11   26.75    2.00
   5   4  11   24.73    2.46
   5   4  11   26.47    2.06
   5   4  12    4.40    1.03
   5   4  12    4.17    0.74
  -5  -5   7    2.05    0.70
  -5  -5   7    3.02    0.88
  -5  -5   6   55.58    3.30
  -5  -5   6   48.06    3.02
  -5  -5   5  693.00   14.38
   5   5  -5  660.93   13.53
  -5  -5   4  211.99    7.31
   5   5  -4  187.34    6.87
   5   5  -3 2276.31   34.93
  -5  -5   3 2422.69   34.53
   5   5  -3 2341.20   34.83
  -5  -5   3 2336.05   37.86
   5   5  -2   83.72    4.80
  -5  -5   2   88.25    4.63
   5   5  -2   85.73    4.91
   5   5  -2   71.99    4.64
   5   5  -1   38.18    3.22
  -5  -5   1   42.90    3.10
   5   5  -1   43.84    3.53
  -5  -5   1   40.33    3.68
  -5  -5   1   46.43    3.16
   5   5  -1   41.78    3.53
   5   5   0 1204.85   21.23
   5   5   0 1219.93   22.69
   5   5   1  140.21    5.94
   5   5   1  142.04    6.02
   5   5   1  143.00    6.58
   5   5   2   41.75    3.18
   5   5   2   39.66    3.07
  -5  -5  -2   31.94    3.20
   5   5   2   38.01    3.47
   5   5   2   39.17    3.42
   5   5   3  251.35    7.78
   5   5   3  259.88    9.01
   5   5   3  246.60    8.74
   5   5   4 1138.33   19.44
   5   5   4 1126.54   22.03
   5   5   4 1160.83   22.05
   5   5   5  532.67   11.54
   5   5   5  539.90   14.14
  -5  -5  -5  525.23   11.80
   5   5   5  543.96   14.04
  -5  -5  -6  125.91    5.11
   5   5   6  132.63    6.69
   5   5   6  123.87    6.16
   5   5   7  138.62    6.85
   5   5   8  179.84    7.72
   5   5   9   18.30    2.06
  -5  -5  -9   17.79    2.10
   5   5   9   18.25    2.57
   5   5  10    8.24    1.35
  -5  -5 -10    6.30    1.15
   5   5  10    7.97    1.77
   5   5  10    8.18    1.33
   5   5  11  449.33    8.70
   5   5  11  445.39   10.66
   5   5  12   58.24    2.86
   5   5  12   57.76    2.27
  -5  -6   5    5.45    1.09
   5   6  -4   42.23    2.85
   5   6  -3  316.85    8.94
   5   6  -2  365.27   10.27
   5   6  -1  316.00    9.25
  -5  -6   1  307.14   10.48
   5   6   0 1682.40   27.32
   5   6   0 1842.67   28.99
  -5  -6   0 1976.58   27.93
   5   6   0 1541.55   28.24
   5   6   1   29.39    2.76
  -5  -6  -1   34.56    2.95
  -5  -6  -1   27.40    3.23
   5   6   1   29.25    3.02
   5   6   2  242.01    9.66
   5   6   2  233.28    8.06
  -5  -6  -2  228.79    9.20
   5   6   2  224.58    8.53
   5   6   2  254.99    8.45
   5   6   3  953.77   18.33
   5   6   3  958.30   19.04
   5   6   4  162.08    7.80
  -5  -6  -4  175.05    6.57
   5   6   4  171.56    6.57
   5   6   4  169.20    7.15
   5   6   4  175.97    7.47
   5   6   5  108.16    4.49
   5   6   5   98.41    4.77
  -5  -6  -5  105.85    4.96
   5   6   5   94.52    5.41
   5   6   5   95.12    5.47
  -5  -6  -6  670.45   14.66
  -5  -6  -6  632.59   13.10
   5   6   6  632.61   12.93
   5   6   6  651.48   15.33
  -5  -6  -7  166.05    5.57
   5   6   7  163.03    7.20
   5   6   8    6.65    1.74
  -5  -6  -8    6.23    1.67
  -5  -6  -9   78.19    4.37
   5   6   9   83.50    4.79
   5   6  10   72.24    3.26
  -5  -6 -10   65.36    3.41
   5   6  10   68.47    4.02
   5   6  10   65.49    3.07
   5   6  11    5.76    0.88
   5   6  11    6.89    1.34
   5   6  11    4.79    0.87
   5   6  12    1.11    0.38
  -5  -7   5  118.36    3.23
   5   7  -3    0.65    0.73
   5   7  -2   38.39    2.87
  -5  -7   1  156.36    5.43
   5   7  -1  124.51    5.57
  -5  -7   0  182.22    6.36
   5   7   0  154.58    6.49
  -5  -7  -1 1524.10   23.95
   5   7   1 1390.40   24.45
   5   7   2   58.16    4.63
   5   7   3  436.38   13.44
   5   7   3  453.65   11.59
  -5  -7  -4    3.36    1.34
   5   7   4    2.49    1.20
  -5  -7  -5  182.50    6.54
   5   7   5  170.97    6.48
  -5  -7  -6   44.73    3.11
   5   7   6   44.38    3.08
   5   7   6   42.50    3.20
  -5  -7  -7   17.37    1.81
   5   7   7   15.68    2.02
   5   7   8    2.08    1.06
  -5  -7  -8    2.19    1.26
   5   7   9    0.67    0.87
  -5  -7  -9    0.84    0.89
   5   7  10  213.21    5.01
  -5  -7 -10  213.18    5.97
   5   7  10  197.52    5.74
   5   8  -2  418.17    8.06
   5   8  -1    0.10    0.72
   5   8   0    1.57    0.96
   5   8   1   68.36    3.93
  -5  -8  -1   83.70    3.97
   5   8   2  692.98   14.61
  -5  -8  -2  815.14   14.97
  -5  -8  -3  142.21    5.68
  -5  -8  -4  462.22   10.71
   5   8   4  402.89   10.26
   5   8   5    1.02    0.92
  -5  -8  -5    1.18    1.02
   5   8   6   14.35    1.69
  -5  -8  -6   15.05    2.09
  -5  -8  -6   13.94    1.69
  -5  -8  -7   97.58    3.79
  -5  -8  -8  439.07   10.04
   5   8   9   37.19    1.78
  -5  -8  -9   42.73    2.57
   5   9   1   73.91    3.06
  -5  -9  -2   29.45    1.92
   5   9   2   25.86    2.00
   5   9   4   26.02    2.06
   5   9   5  201.63    5.67
  -5  -9  -6   99.92    3.39
   5   9   6   91.20    3.42
  -5  -9  -7   88.20    2.67
  -5  -9  -7  114.87    3.68
  -5  -9  -8    1.23    0.56
   6  -5  -6    0.08    0.31
   6  -5  -5    0.14    0.40
   6  -5  -3  192.36    4.48
   6  -5  -3  190.67    4.43
   6  -5  -1    3.20    0.66
   6  -5   0   30.27    1.60
   6  -5   1   28.12    1.43
   6  -4  -7    0.29    0.34
   6  -4  -6    2.15    0.62
   6  -4  -5   68.46    2.86
   6  -4  -4   64.62    2.92
   6  -4  -4   59.52    2.67
   6  -4  -3    0.95    0.67
   6  -4  -2  165.31    4.96
   6  -4  -2  166.43    4.73
   6  -4  -2  163.94    4.92
   6  -4  -2  158.77    5.55
   6  -4  -1  283.88    6.61
   6  -4  -1  286.17    6.57
   6  -4  -1  295.99    8.19
   6  -4   0  185.26    5.05
   6  -4   0  185.01    5.12
   6  -4   0  191.81    6.52
   6  -4   1   15.11    1.43
   6  -4   1   15.28    1.44
   6  -4   2    6.15    0.95
   6  -4   2    6.49    0.97
   6  -4   3   46.53    2.02
   6  -3  -7    1.05    0.53
   6  -3  -7    1.34    0.68
   6  -3  -6    1.36    0.72
   6  -3  -6    1.78    0.81
   6  -3  -5   43.21    2.52
   6  -3  -5   42.89    2.70
   6  -3  -4   90.45    3.88
   6  -3  -4   85.76    4.00
   6  -3  -4   85.37    3.53
   6  -3  -3    4.64    1.17
   6  -3  -3    6.17    1.16
   6  -3  -3    5.75    1.37
   6  -3  -2  180.63    5.73
   6  -3  -2  181.79    5.44
   6  -3  -2  174.99    5.87
   6  -3  -2  183.56    5.67
   6  -3  -2  170.97    6.83
   6  -3  -1   41.17    2.64
   6  -3  -1   43.37    2.61
   6  -3  -1   43.13    2.80
   6  -3  -1   44.43    3.56
   6  -3   0  143.98    4.85
   6  -3   0  130.41    4.80
   6  -3   0  140.10    4.92
   6  -3   0  141.29    4.77
   6  -3   0  143.68    6.49
   6  -3   1    9.52    1.33
   6  -3   1    8.53    1.23
   6  -3   1   10.20    1.38
   6  -3   1   10.65    1.37
   6  -3   1   11.12    2.03
   6  -3   2  534.62   10.10
   6  -3   2  531.90   10.06
   6  -3   3    4.14    0.89
   6  -3   3    4.33    0.87
   6  -3   3    6.09    1.23
   6  -3   4    0.42    0.71
   6  -3   5    1.15    0.67
   6  -3   6  153.92    3.86
   6  -2  -9   18.02    1.26
   6  -2  -8   13.99    1.42
   6  -2  -7   75.41    2.77
   6  -2  -7   79.16    3.61
   6  -2  -6  235.43    5.99
   6  -2  -6  237.20    7.02
   6  -2  -5    9.57    1.38
   6  -2  -5    9.36    1.59
   6  -2  -4  114.33    4.54
   6  -2  -4  113.09    5.06
   6  -2  -4  103.10    5.26
   6  -2  -3   21.14    2.04
   6  -2  -3   21.63    2.31
   6  -2  -3   20.66    1.93
   6  -2  -3   19.06    2.52
   6  -2  -2    4.88    1.09
   6  -2  -2    4.23    1.29
   6  -2  -2    4.70    1.13
   6  -2  -2    3.47    1.50
   6  -2  -1    0.92    0.77
   6  -2  -1    2.27    0.93
   6  -2  -1    1.41    0.97
   6  -2  -1    0.78    0.81
   6  -2  -1    0.45    1.06
   6  -2   0    1.06    0.86
   6  -2   0    0.41    0.78
   6  -2   0    0.89    0.76
   6  -2   0    0.80    1.25
   6  -2   1   15.50    1.66
   6  -2   1   17.48    1.77
   6  -2   1   15.82    1.59
   6  -2   1   16.44    1.91
   6  -2   1   16.24    1.74
   6  -2   1   16.20    1.68
   6  -2   1   16.51    1.83
   6  -2   1   16.10    1.84
   6  -2   1   17.46    2.66
   6  -2   2   22.09    1.81
   6  -2   2   19.33    1.80
   6  -2   2   18.87    1.78
   6  -2   2   20.04    2.03
   6  -2   2   19.25    1.74
   6  -2   2   20.46    2.03
   6  -2   2   20.97    2.76
   6  -2   2   19.10    1.95
   6  -2   3  261.24    6.47
   6  -2   3  248.12    6.85
   6  -2   3  261.84    7.26
   6  -2   3  256.52    6.33
   6  -2   3  254.21    7.20
   6  -2   3  257.16    7.03
   6  -2   4   48.84    2.88
   6  -2   4   49.86    2.89
   6  -2   5  337.42    7.88
   6  -2   5  343.50    8.17
   6  -2   6    2.65    0.86
   6  -2   6    2.90    0.93
   6  -2   7    1.40    0.65
   6  -2   8    2.15    0.49
   6  -1  -9    1.68    0.64
  -6   1   9    1.71    0.44
  -6   1   8  160.99    4.18
  -6   1   7   14.40    1.34
   6  -1  -7   13.69    1.20
   6  -1  -6   15.17    1.49
   6  -1  -5    0.87    0.83
   6  -1  -5    0.66    0.85
   6  -1  -4   96.10    4.23
   6  -1  -4   98.56    4.88
   6  -1  -4   88.73    5.27
   6  -1  -3 1190.77   19.11
   6  -1  -3 1097.65   22.83
   6  -1  -2  834.71   15.21
   6  -1  -2  833.08   19.36
   6  -1  -1  890.59   15.26
   6  -1  -1  906.38   15.75
   6  -1  -1  921.75   20.71
   6  -1   0  456.34   10.11
   6  -1   0  419.45    9.49
   6  -1   0  437.91    9.38
   6  -1   0  478.37   14.22
   6  -1   1  367.13    8.80
   6  -1   1  374.21    8.55
   6  -1   1  344.86    8.64
   6  -1   1  344.41    9.70
   6  -1   1  366.25    8.20
   6  -1   1  356.22    8.46
   6  -1   1  393.29   12.78
   6  -1   1  359.52    8.51
   6  -1   2    3.59    1.03
   6  -1   2    4.21    1.08
   6  -1   2    2.64    0.92
   6  -1   2    5.44    1.19
   6  -1   2    5.82    1.30
   6  -1   2    2.59    0.84
   6  -1   2    2.63    0.98
   6  -1   3   37.66    2.37
   6  -1   3   31.28    2.53
   6  -1   3   33.82    2.72
   6  -1   3   29.18    2.01
   6  -1   3   31.44    2.48
   6  -1   3   31.48    3.39
   6  -1   3   31.28    2.40
   6  -1   3   40.07    2.43
   6  -1   4   52.79    2.68
   6  -1   4   46.07    3.04
   6  -1   4   52.25    3.29
   6  -1   4   50.48    3.15
   6  -1   4   55.28    4.22
   6  -1   4   51.58    3.03
   6  -1   5   66.80    3.59
   6  -1   5   67.06    3.59
   6  -1   5   71.93    4.50
   6  -1   5   65.66    3.39
   6  -1   6    3.11    1.00
   6  -1   6    3.82    1.18
   6  -1   7   22.99    1.89
   6  -1   7   21.54    1.88
   6  -1   7   24.04    1.88
   6  -1   8   86.07    3.16
   6  -1   8   80.92    3.00
   6  -1   9   11.30    0.89
   6  -1   9   13.20    0.96
   6   0  -9   15.08    1.22
  -6   0   9   12.54    0.99
  -6   0   8    2.69    0.77
  -6   0   7    0.50    0.62
  -6   0   7    0.42    0.59
  -6   0   6  114.91    4.57
  -6   0   6  115.25    4.19
   6   0  -6  115.03    4.00
   6   0  -5  102.84    5.60
   6   0  -5  129.61    4.66
   6   0  -4   23.96    2.13
   6   0  -4   20.82    2.82
   6   0  -4   23.00    2.51
   6   0  -3   16.91    1.90
   6   0  -3   18.67    2.31
   6   0  -2   66.26    3.61
   6   0  -2   75.44    3.39
   6   0  -2   71.71    4.30
   6   0  -2   64.72    5.07
   6   0  -2   69.60    4.67
   6   0  -1 1129.42   18.65
   6   0  -1 1071.11   17.81
   6   0  -1 1155.46   20.29
   6   0  -1 1124.61   23.78
   6   0  -1 1154.44   22.01
   6   0   0 5439.04   65.39
   6   0   0 5121.62   64.82
   6   0   0 5392.31   67.34
   6   0   0 5265.22   62.99
   6   0   0 5464.70   73.40
   6   0   0 5585.15   70.52
   6   0   1  975.54   16.60
   6   0   1  928.22   16.75
   6   0   1  967.77   17.85
   6   0   1  935.63   15.32
   6   0   1  934.42   15.31
   6   0   1 1000.41   20.01
   6   0   2  725.76   13.36
   6   0   2  682.41   13.81
   6   0   2  706.98   14.46
   6   0   2  675.19   12.69
   6   0   2  714.42   18.08
   6   0   2  693.02   12.45
   6   0   2  731.59   16.40
   6   0   3  103.67    4.86
   6   0   3  117.88    5.16
   6   0   3  107.85    4.46
   6   0   3  114.19    6.61
   6   0   3  106.64    4.20
   6   0   3  109.89    5.66
   6   0   3  111.21    4.35
   6   0   4  291.52    8.39
   6   0   4  297.32    8.61
   6   0   4  286.29    7.75
   6   0   4  293.54   10.37
   6   0   4  275.87    7.23
   6   0   5   87.08    4.16
   6   0   5   91.64    5.21
   6   0   5   96.39    4.09
   6   0   6   35.24    2.69
   6   0   6   36.33    3.02
   6   0   6   35.17    2.48
   6   0   7  389.47    9.02
   6   0   7  386.21    9.04
   6   0   7  382.05    8.53
   6   0   8  148.10    4.72
   6   0   8  137.27    4.70
   6   0   8  137.13    4.41
   6   0   9   84.44    3.11
   6   0   9   83.01    2.91
   6   0  10   22.35    1.13
   6   0  10   21.68    1.08
  -6  -1   9    9.17    0.85
   6   1  -9    5.97    0.68
  -6  -1   8   34.72    2.26
  -6  -1   8   36.21    2.07
  -6  -1   7  101.25    4.37
  -6  -1   7  107.59    4.03
  -6  -1   6  176.85    6.14
  -6  -1   6  166.41    5.36
  -6  -1   5    3.82    1.14
   6   1  -5   15.86    1.61
   6   1  -4   63.02    3.60
  -6  -1   4   56.11    3.38
   6   1  -4   57.73    3.82
   6   1  -4   60.32    3.28
   6   1  -3    0.93    0.80
  -6  -1   3    2.79    0.91
   6   1  -3    3.54    1.41
   6   1  -2  111.19    4.68
   6   1  -2  110.67    4.52
   6   1  -2  102.48    4.34
   6   1  -2  109.86    5.18
   6   1  -2  101.30    5.62
   6   1  -1  100.90    4.46
   6   1  -1   98.92    4.12
   6   1  -1   93.55    4.25
   6   1  -1  101.79    4.88
   6   1  -1  101.34    5.69
   6   1   0  204.00    5.95
   6   1   0  188.06    6.32
   6   1   0  194.61    6.87
   6   1   0  200.79    8.15
   6   1   1  122.26    5.07
   6   1   1  122.72    5.33
   6   1   1  125.56    5.01
   6   1   2  122.15    5.20
   6   1   2  127.13    5.38
   6   1   2  120.73    4.27
   6   1   2  137.71    6.31
   6   1   2  130.36    7.19
   6   1   2  119.59    4.01
   6   1   2  130.46    6.47
   6   1   2  132.75    5.05
   6   1   3 1493.85   23.60
   6   1   3 1481.68   25.31
   6   1   3 1420.48   21.58
   6   1   3 1539.07   28.29
   6   1   3 1435.48   20.80
   6   1   3 1500.99   26.11
   6   1   3 1486.54   22.26
   6   1   4  263.31    7.99
   6   1   4  267.63    7.92
   6   1   4  256.85    8.70
   6   1   4  249.23    7.04
   6   1   4  262.40    9.79
   6   1   4  251.10    6.48
   6   1   4  258.38    8.73
   6   1   5  327.94    7.64
   6   1   5  334.65    9.25
   6   1   5  341.01    9.09
   6   1   5  320.08    9.68
   6   1   5  315.16    8.29
   6   1   5  339.56   10.60
   6   1   5  313.95    7.59
   6   1   5  315.44    9.15
   6   1   6  214.43    6.10
   6   1   6  238.79    7.39
   6   1   6  215.06    7.66
   6   1   6  224.44    6.91
   6   1   6  227.76    7.60
   6   1   6  223.91    6.27
   6   1   7  242.14    7.08
   6   1   7  232.91    7.53
   6   1   7  239.53    6.42
   6   1   8   54.67    2.99
   6   1   8   48.10    2.96
   6   1   8   50.21    2.68
   6   1   9   56.00    2.59
   6   1   9   50.19    2.73
   6   1  10    6.29    0.91
  -6  -2   8    3.49    0.89
   6   2  -8    1.59    0.48
  -6  -2   8    3.11    0.75
  -6  -2   7   86.86    4.08
  -6  -2   7   91.06    3.67
  -6  -2   6    6.35    1.37
  -6  -2   6    6.28    1.19
  -6  -2   5   35.28    2.88
  -6  -2   5   40.23    2.64
  -6  -2   4  555.22   12.63
   6   2  -4  549.39   12.82
   6   2  -3  677.54   14.10
   6   2  -3  660.94   13.49
   6   2  -3  624.48   14.75
   6   2  -3  621.15   12.52
   6   2  -2  159.34    6.05
   6   2  -2  157.03    5.92
   6   2  -2  160.16    6.10
   6   2  -2  140.91    6.60
   6   2  -2  151.96    5.55
   6   2  -1   96.90    4.47
   6   2  -1   94.08    4.52
   6   2  -1   96.29    4.52
   6   2  -1   90.11    5.41
   6   2  -1   94.41    4.34
   6   2   0  104.59    4.60
   6   2   0  111.20    4.89
   6   2   0  114.32    4.69
   6   2   0  110.07    6.06
   6   2   0  112.15    4.75
   6   2   1   38.80    2.76
   6   2   1   43.92    3.14
   6   2   1   40.35    2.93
   6   2   1   40.07    2.56
   6   2   2  200.70    6.60
   6   2   2  194.22    7.88
   6   2   2  194.04    8.08
   6   2   3  913.52   16.99
   6   2   3  942.17   16.56
   6   2   3  903.36   18.83
   6   2   3  864.38   14.56
   6   2   3  925.78   20.53
   6   2   3  933.43   19.39
   6   2   4  258.61    8.01
   6   2   4  265.49    7.66
   6   2   4  247.51    8.88
   6   2   4  254.50    6.82
   6   2   4  249.54    9.49
   6   2   4  259.65    9.05
   6   2   5  446.25    9.96
   6   2   5  508.73   11.69
   6   2   5  494.02   13.07
   6   2   5  471.52   10.33
   6   2   5  482.82   12.93
   6   2   5  457.98    9.09
   6   2   5  477.04   12.17
   6   2   6  101.78    4.33
   6   2   6  115.26    5.11
   6   2   6  119.56    4.92
   6   2   6   99.37    5.55
   6   2   6  104.47    4.49
   6   2   6  100.93    3.81
   6   2   7    1.45    0.84
   6   2   7    1.18    0.96
   6   2   7    2.12    1.35
   6   2   7    1.92    0.95
   6   2   8   11.47    1.51
   6   2   8   14.11    1.59
   6   2   8   12.64    2.00
   6   2   8   13.46    1.71
   6   2   9   24.96    1.81
   6   2  10    0.56    0.64
   6   2  11   16.30    1.10
  -6  -3   8  128.98    3.44
  -6  -3   8  122.60    4.00
  -6  -3   7    1.70    0.83
  -6  -3   7    1.45    0.70
  -6  -3   6   16.32    1.95
  -6  -3   6   18.20    1.80
  -6  -3   5   21.30    2.32
  -6  -3   5   21.50    2.04
   6   3  -4  313.19    8.78
   6   3  -3   40.41    3.22
   6   3  -3   40.08    2.71
   6   3  -3   41.97    3.25
   6   3  -3   38.70    3.29
   6   3  -2  263.51    8.42
   6   3  -2  259.51    7.31
   6   3  -2  268.78    8.31
   6   3  -1   41.07    3.22
   6   3  -1   49.98    3.05
   6   3  -1   46.03    3.28
   6   3   0 1013.22   18.48
   6   3   0 1043.52   17.45
   6   3   0 1066.24   18.33
   6   3   1 1183.16   20.25
   6   3   1 1198.12   19.21
   6   3   1 1196.81   19.66
   6   3   2    3.30    0.98
   6   3   2    0.39    1.21
   6   3   3  124.07    5.36
   6   3   3  119.10    4.66
   6   3   4  170.06    6.26
   6   3   4  168.55    5.57
   6   3   4  148.65    4.80
   6   3   4  150.49    7.17
   6   3   5  371.72    9.67
   6   3   5  365.44    8.73
   6   3   5  328.81    8.00
   6   3   5  323.90   10.20
   6   3   5  326.06   10.25
   6   3   6   63.37    3.73
   6   3   6   64.53    3.44
   6   3   6   61.25    4.50
   6   3   6   59.05    3.26
   6   3   6   49.97    3.55
   6   3   7   94.47    4.38
   6   3   7  108.55    4.66
   6   3   7  100.67    5.59
   6   3   7   98.55    4.33
   6   3   8   41.69    2.84
   6   3   8   45.34    2.67
   6   3   8   42.96    3.63
   6   3   8   42.86    2.83
   6   3   9   16.54    1.74
   6   3   9   19.37    1.53
   6   3   9   14.29    2.08
   6   3   9   16.81    1.74
   6   3  10    7.29    1.39
   6   3  11   44.66    1.99
  -6  -4   7    9.56    1.03
  -6  -4   7    9.12    1.21
  -6  -4   6    0.50    0.72
  -6  -4   6   -0.09    0.61
  -6  -4   5    9.60    1.43
  -6  -4   5   10.01    1.64
  -6  -4   4  366.62    8.80
   6   4  -4  375.34    9.84
   6   4  -3   37.55    3.12
   6   4  -2   15.48    2.13
   6   4  -2   16.77    2.16
   6   4  -1  660.48   14.35
   6   4  -1  647.02   14.06
   6   4   0  121.22    5.53
   6   4   0  120.75    5.41
   6   4   0  105.02    6.04
   6   4   1  344.64    9.60
   6   4   1  345.35    9.27
   6   4   2  290.99    8.24
   6   4   2  307.68   10.32
   6   4   3  264.29    7.34
   6   4   3  280.60    9.68
   6   4   4  399.85   10.20
   6   4   4  382.09   11.61
   6   4   5   27.31    2.49
   6   4   5   34.28    3.47
   6   4   6    0.52    0.94
   6   4   6    0.82    1.40
   6   4   6    1.32    0.71
   6   4   7  114.32    4.63
   6   4   7  105.82    5.86
   6   4   7  101.16    4.21
   6   4   8  123.20    4.96
   6   4   8  127.16    4.36
   6   4   8  118.71    4.59
   6   4   9    9.95    1.42
   6   4   9    7.78    1.23
   6   4  10   43.95    3.09
   6   4  10   41.23    2.32
   6   4  11    1.90    0.76
  -6  -5   5    1.31    0.82
  -6  -5   5    1.36    0.70
  -6  -5   4   39.23    2.51
   6   5  -4   35.77    2.71
  -6  -5   3  450.25    9.59
   6   5  -3  429.15   10.52
  -6  -5   2  116.42    4.74
   6   5  -1  123.50    5.63
  -6  -5   1  159.18    5.87
   6   5   0   50.24    3.56
   6   5   0   51.66    3.64
   6   5   1  175.24    6.70
   6   5   1  166.65    6.46
   6   5   2  218.21    7.31
   6   5   2  167.68    7.70
   6   5   3   13.27    1.81
   6   5   3   11.81    2.32
   6   5   3    9.07    2.01
   6   5   4   38.20    2.95
   6   5   4   30.23    2.46
   6   5   4   34.88    3.50
   6   5   4   25.75    3.00
   6   5   5 1134.46   18.03
   6   5   5 1024.34   20.45
   6   5   6  548.46   11.42
   6   5   6  523.36   13.83
  -6  -5  -6  543.63   11.56
   6   5   7  129.36    4.58
  -6  -5  -7  118.66    4.36
   6   5   7  127.78    6.35
  -6  -5  -8   18.17    2.08
   6   5   8   22.51    2.71
   6   5   8   22.37    1.84
   6   5   9   14.68    1.67
  -6  -5  -9   11.86    1.39
   6   5   9   16.43    2.20
   6   5   9   16.93    1.57
   6   5  10   10.13    1.24
   6   5  10    9.10    1.57
   6   5  10    7.66    1.02
   6   5  11   10.74    1.31
   6   5  11   10.18    0.93
  -6  -6   5   26.51    1.73
  -6  -6   4    5.30    1.06
   6   6  -3   65.51    3.47
   6   6  -2    5.52    1.34
  -6  -6   1    5.36    1.31
  -6  -6   0    4.23    1.37
   6   6   0    4.66    1.42
   6   6   1   35.00    3.00
  -6  -6  -1   30.14    2.78
   6   6   2  109.69    5.15
   6   6   3  123.04    5.40
  -6  -6  -3  135.55    5.79
   6   6   4  518.93   11.66
   6   6   4  518.65   13.25
   6   6   5  481.02   10.35
  -6  -6  -5  502.45   11.40
   6   6   6  213.78    5.96
  -6  -6  -6  215.72    6.69
   6   6   6  198.47    7.69
  -6  -6  -7   11.68    1.43
   6   6   7   11.72    2.04
  -6  -6  -8  292.49    8.44
   6   6   8  290.25    8.82
   6   6   9  107.90    3.98
   6   6   9  101.33    4.69
   6   6  10    6.80    0.96
   6   6  10    6.58    1.23
  -6  -7   3    1.36    0.62
   6   7  -3    1.92    0.68
   6   7  -2   60.70    3.02
   6   7  -1   16.73    1.88
  -6  -7   0  696.03   13.01
   6   7   1    5.53    1.37
  -6  -7  -1    5.45    1.34
   6   7   2   91.41    4.53
  -6  -7  -3   59.43    3.68
   6   7   3   49.68    3.30
  -6  -7  -4   75.59    4.05
   6   7   4   75.06    3.44
   6   7   4   70.20    3.77
  -6  -7  -5   96.67    4.39
   6   7   5   90.72    3.44
  -6  -7  -6   45.96    2.86
   6   7   6   45.43    3.06
   6   7   7    0.31    0.79
  -6  -7  -7    1.19    0.70
   6   7   8    0.71    0.77
  -6  -7  -8   -0.29    0.89
   6   7   9   19.12    1.49
  -6  -7  -9   19.01    1.67
   6   7   9   17.47    1.63
   6   7  10   17.63    1.11
   6   8  -1   92.14    3.20
   6   8   0   26.13    1.93
  -6  -8  -1  139.97    4.52
   6   8   2   18.53    1.85
  -6  -8  -2   23.53    2.07
   6   8   3  769.44   12.24
   6   8   3  776.34   14.13
   6   8   4    1.34    0.83
  -6  -8  -4    2.81    1.07
  -6  -8  -5   23.92    2.04
  -6  -8  -6  106.81    3.85
  -6  -8  -7  125.99    4.61
  -6  -8  -8   13.08    1.39
   6   8   9  145.07    3.17
  -6  -8  -9  198.40    4.29
  -6  -9  -2   22.85    1.29
   6   9   3    8.28    0.94
   7  -4  -3  139.93    3.27
   7  -3  -6    5.11    0.58
   7  -3  -5   42.97    1.87
   7  -3  -4   58.20    2.42
   7  -3  -2    0.58    0.56
   7  -3  -2    0.59    0.66
   7  -3  -1  114.29    3.62
   7  -3  -1  116.07    4.60
   7  -3   0  160.46    5.64
   7  -3   1    1.97    0.88
   7  -2  -7   24.24    1.33
   7  -2  -6   14.94    1.31
   7  -2  -6   16.05    1.11
   7  -2  -5    7.54    1.13
   7  -2  -5    9.23    1.07
   7  -2  -4   28.34    1.94
   7  -2  -4   26.85    2.05
   7  -2  -3    1.54    0.77
   7  -2  -3   -0.05    0.68
   7  -2  -3   -0.25    0.75
   7  -2  -2    1.61    0.87
   7  -2  -2    1.55    1.04
   7  -2  -1  107.32    4.05
   7  -2  -1  100.54    4.14
   7  -2  -1  100.64    5.05
   7  -2   0    4.16    0.97
   7  -2   0    4.09    0.99
   7  -2   0    4.43    1.35
   7  -2   1   17.61    1.70
   7  -2   1   20.05    2.37
   7  -2   2    8.43    1.17
   7  -2   2    7.82    1.62
   7  -2   3  111.86    3.79
   7  -1  -8    0.02    0.27
   7  -1  -7   10.66    1.10
   7  -1  -6   22.99    1.78
   7  -1  -6   23.86    1.42
   7  -1  -5   45.60    2.76
   7  -1  -5   46.09    2.38
   7  -1  -4    1.95    0.81
   7  -1  -4    1.34    0.90
   7  -1  -4    2.29    0.98
   7  -1  -3    4.03    1.07
   7  -1  -3    3.93    1.31
   7  -1  -2   55.11    3.12
   7  -1  -2   50.82    4.00
   7  -1  -1  111.01    4.46
   7  -1  -1  115.28    6.17
   7  -1   0  179.65    5.67
   7  -1   0  174.93    7.75
   7  -1   1   43.84    3.87
   7  -1   1   45.85    2.73
   7  -1   2  269.71    6.73
   7  -1   2  309.47    7.98
   7  -1   3   11.07    1.36
   7  -1   3   12.37    1.58
   7  -1   3   13.59    1.48
   7  -1   3   13.42    1.45
   7  -1   3   12.46    2.00
   7  -1   4   24.24    1.89
   7  -1   4   26.09    2.04
   7  -1   4   23.95    1.89
   7  -1   4   22.40    1.73
   7  -1   4   29.10    2.70
   7  -1   5  118.79    3.97
   7  -1   5  123.68    4.07
   7  -1   5  119.51    3.74
   7  -1   5  113.01    4.58
   7  -1   6   24.86    1.63
   7  -1   6   22.89    1.46
   7  -1   7    0.36    0.44
   7   0  -8    0.81    0.34
   7   0  -7    3.51    0.75
   7   0  -6  100.90    3.82
   7   0  -5    1.78    0.90
   7   0  -5    1.51    0.84
   7   0  -4   57.08    3.36
   7   0  -4   57.07    2.97
   7   0  -3   16.42    1.98
   7   0  -3   13.97    2.25
   7   0  -3   17.58    1.83
   7   0  -2   52.95    3.42
   7   0  -2   49.24    4.19
   7   0  -2   48.27    3.70
   7   0  -2   53.69    3.17
   7   0  -1    0.83    0.98
   7   0  -1   -0.47    1.21
   7   0  -1   -0.09    1.15
   7   0   0  122.83    4.57
   7   0   0  130.94    5.51
   7   0   0  139.78    7.28
   7   0   0  134.38    6.39
   7   0   0  142.17    5.25
   7   0   1  170.70    5.70
   7   0   1  178.60    6.42
   7   0   1  179.44    8.33
   7   0   1  188.24    7.58
   7   0   1  197.51    6.17
   7   0   2    0.36    0.70
   7   0   2   -0.06    0.76
   7   0   2    1.83    1.00
   7   0   2    1.08    0.71
   7   0   3   38.23    2.70
   7   0   3   40.26    2.87
   7   0   3   35.46    2.30
   7   0   3   42.14    2.36
   7   0   3   42.09    3.75
   7   0   4   54.83    3.12
   7   0   4   65.05    3.48
   7   0   4   59.93    2.99
   7   0   4   59.85    4.09
   7   0   4   58.95    2.77
   7   0   5  263.54    7.04
   7   0   5  253.32    6.48
   7   0   5  261.58    7.97
   7   0   6    6.76    1.15
   7   0   6    7.82    1.15
   7   0   7   26.18    1.77
   7   0   7   22.35    1.62
   7   1  -7    2.55    0.63
   7   1  -6    0.44    0.58
   7   1  -5  101.51    4.08
   7   1  -5   87.84    4.47
   7   1  -4  137.99    5.16
   7   1  -4  127.01    6.13
   7   1  -3   74.68    3.95
   7   1  -3   72.52    4.99
   7   1  -3   70.61    4.24
   7   1  -3   76.14    3.68
   7   1  -2   10.69    1.62
   7   1  -2    4.75    1.83
   7   1  -2    6.29    1.60
   7   1  -2    6.69    1.40
   7   1  -1   19.48    1.84
   7   1  -1   22.11    2.32
   7   1  -1   19.72    2.93
   7   1  -1   22.70    2.79
   7   1  -1   23.09    2.25
   7   1   0  317.53    8.18
   7   1   0  331.29    9.03
   7   1   0  314.68   11.39
   7   1   0  311.71   10.39
   7   1   1  251.42    7.35
   7   1   1  240.97    7.56
   7   1   1  253.27    7.29
   7   1   2   86.78    4.31
   7   1   2   96.04    4.52
   7   1   2   93.19    6.04
   7   1   2   94.05    5.36
   7   1   3   26.24    2.44
   7   1   3   25.42    1.91
   7   1   3   28.08    3.27
   7   1   3   27.73    2.94
   7   1   4    9.35    1.49
   7   1   4    8.09    1.22
   7   1   4    7.27    1.75
   7   1   4    7.37    1.53
   7   1   5   13.24    1.74
   7   1   5   14.75    1.73
   7   1   5   11.80    1.42
   7   1   5   12.87    1.89
   7   1   6    4.30    1.09
   7   1   6    3.66    0.93
   7   1   7   55.12    2.79
   7   1   7   50.43    2.59
   7   1   8  458.75    8.13
   7   1   8  427.75    7.96
  -7  -2   6    5.73    0.93
   7   2  -6    4.35    0.77
   7   2  -6    3.83    0.99
  -7  -2   5    1.31    0.67
   7   2  -5    1.64    0.72
  -7  -2   4    1.38    0.68
   7   2  -4    2.81    0.93
   7   2  -4    1.47    0.85
  -7  -2   3  165.81    5.32
   7   2  -3  172.49    5.76
   7   2  -3  158.35    6.32
   7   2  -2  154.00    5.14
   7   2  -2  155.01    5.62
   7   2  -2  147.09    6.54
   7   2  -1   81.58    3.89
   7   2  -1   82.58    4.13
   7   2  -1   80.75    5.01
   7   2   0   31.55    2.53
   7   2   0   35.16    2.74
   7   2   0   32.37    3.43
   7   2   1   27.74    2.48
   7   2   1   27.10    2.43
   7   2   1   28.47    3.48
   7   2   2    7.48    1.54
   7   2   2    6.02    1.35
   7   2   2    9.40    2.32
   7   2   2    5.30    1.71
   7   2   3 1858.63   27.15
   7   2   3 1839.80   32.15
   7   2   3 1832.85   30.43
   7   2   4  536.58   12.03
   7   2   4  563.99   11.63
   7   2   4  546.12   13.29
   7   2   4  520.17   13.92
   7   2   4  519.61   12.99
   7   2   5    0.78    0.99
   7   2   5    1.08    0.89
   7   2   5    1.47    1.12
   7   2   5    0.85    0.70
   7   2   5    1.08    0.98
   7   2   5    1.58    1.01
   7   2   6    7.28    1.36
   7   2   6    8.91    1.68
   7   2   6    5.83    1.06
   7   2   7   39.13    2.47
   7   2   7   39.03    2.32
   7   2   8    0.14    0.58
   7   2   8    1.76    0.70
   7   2   9   22.38    1.25
   7   2   9   21.07    1.40
  -7  -3   6    0.94    0.56
  -7  -3   5   91.95    3.72
  -7  -3   4   24.54    2.08
  -7  -3   3   13.51    1.63
   7   3  -3   11.85    1.33
   7   3  -3   11.57    1.78
   7   3  -2    1.50    0.76
   7   3  -2    1.69    1.15
   7   3  -1    5.58    1.09
   7   3  -1    1.12    1.13
   7   3   0  246.55    7.54
   7   3   0  244.94    6.84
   7   3   0  243.21    9.00
   7   3   1  163.09    6.07
   7   3   1  156.01    5.33
   7   3   1  154.61    7.23
   7   3   2   23.25    2.03
   7   3   3  206.49    6.95
   7   3   3  194.63    6.00
   7   3   3  194.35    8.41
   7   3   3  191.51    7.95
   7   3   4  177.35    6.43
   7   3   4  181.22    5.72
   7   3   4  182.34    7.49
   7   3   4  181.78    7.63
   7   3   4  173.71    7.25
   7   3   5   18.31    2.07
   7   3   5   17.39    1.77
   7   3   5   17.26    2.43
   7   3   5   18.08    2.24
   7   3   6 1062.51   17.82
   7   3   6 1029.21   19.74
   7   3   7  130.39    4.62
   7   3   7  123.81    5.47
   7   3   7  120.76    4.08
   7   3   8    0.21    0.57
   7   3   8    0.48    0.85
   7   3   8   -0.11    0.60
   7   3   9    1.22    0.46
   7   3   9    1.00    0.51
   7   3  10   79.92    2.23
  -7  -4   6    0.32    0.44
  -7  -4   5   38.52    2.28
  -7  -4   4  137.33    4.85
   7   4  -3   95.17    4.23
   7   4  -2  451.62   10.21
   7   4  -2  397.70   10.55
   7   4  -1  273.87    7.67
   7   4  -1  248.78    8.59
   7   4   0   36.36    2.66
   7   4   1    0.61    0.74
   7   4   2   45.12    3.25
   7   4   3   19.48    2.19
   7   4   3   18.70    2.63
   7   4   4   96.31    4.55
   7   4   4   90.28    5.35
   7   4   4   80.74    4.83
   7   4   4   87.32    5.14
   7   4   5   15.71    1.93
   7   4   5   16.62    2.42
   7   4   5   14.84    2.13
   7   4   6  244.24    6.52
   7   4   6  270.11    7.30
   7   4   7   12.15    1.45
   7   4   7   12.36    1.45
   7   4   8   49.46    2.48
   7   4   8   50.99    2.29
   7   4   8   51.62    3.37
   7   4   9  244.32    5.31
   7   4   9  253.46    6.77
  -7  -5   5  196.65    4.71
  -7  -5   4  117.48    4.05
   7   5  -2    4.81    1.20
   7   5  -2    4.44    1.17
   7   5  -1   91.27    4.18
   7   5  -1   81.67    4.54
   7   5   0   44.86    2.95
   7   5   1  221.85    6.67
   7   5   2  278.96    7.31
   7   5   3   72.69    3.90
   7   5   4  331.34    8.60
   7   5   5   86.38    4.01
   7   5   5   84.69    4.89
  -7  -5  -5   90.81    4.17
   7   5   6   87.98    3.75
  -7  -5  -6   92.26    3.85
   7   5   6   87.20    4.87
   7   5   7   52.59    2.77
   7   5   7   56.64    2.65
   7   5   7   54.22    3.67
   7   5   8    7.07    1.08
   7   5   8    7.95    1.50
   7   5   9   78.89    2.78
   7   5   9   80.70    3.63
  -7  -6   3   63.44    2.79
   7   6  -2   17.34    1.52
   7   6  -1    0.63    0.72
   7   6  -1    0.18    0.71
   7   6   0   97.56    4.14
  -7  -6   0  124.01    4.57
  -7  -6  -1    4.88    1.25
   7   6   1    7.50    1.34
   7   6   2  179.00    5.60
   7   6   3  120.75    4.76
  -7  -6  -3  143.60    5.46
   7   6   4   63.68    3.28
  -7  -6  -4   74.57    3.85
   7   6   5  168.82    5.19
  -7  -6  -5  187.46    5.85
   7   6   6   46.38    2.36
  -7  -6  -6   49.23    2.70
  -7  -6  -7   15.72    1.26
   7   6   7   16.84    2.00
   7   6   8    4.81    0.88
   7   6   8    4.26    1.13
  -7  -6  -8    3.93    0.82
   7   6   9   57.71    2.72
   7   7   0   55.52    2.66
  -7  -7  -1  231.44    5.89
   7   7   1  177.34    5.24
   7   7   2    1.07    0.72
   7   7   2    1.86    0.80
  -7  -7  -3   27.21    2.20
   7   7   3   15.18    1.46
  -7  -7  -4    9.12    1.40
   7   7   4    6.04    0.95
  -7  -7  -5   59.36    2.92
   7   7   5   44.41    2.03
  -7  -7  -6   13.22    1.30
  -7  -7  -7    0.22    0.69
  -7  -7  -8    3.11    0.66
   7   8   1   20.74    1.09
   7   8   2   28.76    1.33
   7   8   2   47.17    1.97
  -7  -8  -3    4.80    0.92
  -7  -8  -4   81.79    3.02
  -7  -8  -5    0.40    0.52
  -7  -8  -6    1.46    0.64
  -7  -8  -6    1.08    0.41
   7   8   7   37.28    1.45
  -7  -8  -7   45.85    1.89
   8  -2  -3    8.16    0.73
   8  -2  -2    0.06    0.41
   8  -2  -2    1.31    0.44
   8  -2  -1   33.67    1.57
   8  -2  -1   27.30    1.77
   8  -2   0   82.01    3.20
   8  -2   1   98.44    3.47
   8  -1  -5   10.79    0.83
   8  -1  -4    0.41    0.44
   8  -1  -3   23.17    1.63
   8  -1  -2    1.52    0.75
   8  -1  -1   56.68    3.17
   8  -1  -1   64.99    2.64
   8  -1   0  155.54    5.47
   8  -1   1   68.68    2.84
   8  -1   1   70.83    3.60
   8  -1   2   61.98    2.57
   8  -1   3   88.59    2.89
   8  -1   3   84.99    3.54
   8   0  -5    4.45    0.67
   8   0  -4   22.56    1.53
   8   0  -4   14.75    1.34
   8   0  -3    6.34    1.02
   8   0  -3    5.52    1.14
   8   0  -2   72.66    3.18
   8   0  -2   63.41    3.72
   8   0  -1  245.59    6.28
   8   0  -1  233.97    7.74
   8   0   0  175.22    5.23
   8   0   0  169.20    6.59
   8   0   1    2.65    0.88
   8   0   1    2.99    1.12
   8   0   2   26.18    1.96
   8   0   2   26.83    2.47
   8   0   3   27.47    1.89
   8   0   3   26.57    2.31
   8   0   4   23.91    1.52
   8   0   4   28.08    1.78
   8   0   4   26.44    2.01
   8   0   5   59.64    2.22
   8   0   6   24.65    1.20
   8   1  -5    4.88    0.65
   8   1  -4    7.92    0.96
   8   1  -4    6.09    1.05
   8   1  -3   67.51    2.89
   8   1  -3   63.47    3.62
   8   1  -2    0.13    0.61
   8   1  -2   -0.54    0.98
   8   1  -1   13.80    1.50
   8   1  -1   11.07    1.95
   8   1   0    3.98    0.97
   8   1   0    3.22    1.33
   8   1   0    2.32    1.18
   8   1   1    0.65    0.61
   8   1   1    0.81    0.70
   8   1   2   50.66    2.64
   8   1   2   54.48    2.90
   8   1   2   54.39    3.87
   8   1   3    7.60    1.11
   8   1   3    7.65    1.17
   8   1   3    7.47    1.52
   8   1   4    5.89    0.99
   8   1   4    5.74    1.02
   8   1   4    6.71    1.27
   8   1   6   35.44    1.80
   8   1   7   12.93    0.91
   8   2  -4   13.10    1.00
   8   2  -4   12.91    1.51
   8   2  -3   87.78    3.05
   8   2  -3   74.16    4.10
   8   2  -2   11.64    1.27
   8   2  -2   10.91    1.91
   8   2  -2   11.83    1.62
   8   2  -1   24.87    1.86
   8   2  -1   18.71    2.49
   8   2  -1   21.74    2.29
   8   2   0   55.40    2.79
   8   2   0   54.89    2.81
   8   2   0   58.56    3.72
   8   2   1   15.71    1.61
   8   2   1   16.18    1.59
   8   2   1   15.55    2.32
   8   2   2    6.52    1.16
   8   2   2    8.21    1.21
   8   2   2    8.93    1.78
   8   2   2    6.31    1.41
   8   2   3   42.71    2.66
   8   2   3   44.73    2.51
   8   2   3   43.63    3.35
   8   2   3   38.00    2.90
   8   2   4  168.15    4.92
   8   2   5   70.66    3.09
   8   2   6    5.47    0.91
   8   2   7    0.49    0.44
   8   3  -4    9.27    1.32
   8   3  -3    1.93    0.94
   8   3  -3    1.83    0.67
   8   3  -2    4.89    1.42
   8   3  -2    4.57    1.11
   8   3  -1   21.48    1.69
   8   3  -1   20.67    1.44
   8   3  -1   21.65    2.59
   8   3  -1   22.53    2.25
   8   3   0  208.30    5.75
   8   3   0  204.95    5.10
   8   3   0  201.20    7.02
   8   3   1   49.25    2.82
   8   3   1   44.13    2.30
   8   3   1   39.79    3.48
   8   3   1   46.51    3.42
   8   3   2    3.01    1.02
   8   3   2    3.65    0.82
   8   3   2    3.03    1.32
   8   3   2    2.43    1.14
   8   3   3   25.19    1.75
   8   3   3   19.61    2.35
   8   3   3   21.35    2.30
   8   3   4    1.13    0.82
   8   3   4    1.51    0.65
   8   3   4    1.36    0.92
   8   3   5   41.65    2.48
   8   3   6    8.25    1.10
   8   3   7   46.22    2.00
  -8  -4   3    1.62    0.45
  -8  -4   2   20.62    1.41
   8   4  -2   21.10    1.75
   8   4  -1  118.10    3.86
  -8  -4   1  103.80    3.41
   8   4  -1  110.60    4.55
   8   4   0    1.63    0.75
   8   4   0    1.20    1.06
   8   4   1   61.44    3.09
   8   4   1   57.56    3.99
   8   4   1   63.16    3.86
   8   4   2   68.65    4.24
   8   4   3   81.39    3.64
   8   4   3   76.44    4.20
   8   4   4    2.87    0.96
   8   4   4    2.92    1.07
   8   4   5   52.74    2.75
   8   4   6  269.98    5.88
  -8  -4  -6  206.17    4.65
   8   4   7   16.75    1.20
  -8  -5   2    0.40    0.40
   8   5  -1    0.87    0.58
   8   5  -1    0.04    0.58
  -8  -5   0    2.32    0.84
   8   5   0    1.45    0.86
   8   5   1    9.88    1.26
   8   5   1    9.60    1.65
   8   5   1   10.61    1.63
   8   5   2   94.29    3.72
   8   5   2   82.95    4.23
   8   5   3   34.07    2.26
  -8  -5  -3   39.05    2.50
   8   5   3   34.24    2.71
   8   5   4  107.40    3.92
  -8  -5  -4  117.76    4.16
   8   5   5  135.64    4.19
  -8  -5  -5  150.72    4.41
   8   5   6  307.99    5.99
  -8  -5  -6  267.36    5.40
   8   5   7    0.51    0.33
   8   6   0    1.74    0.60
   8   6   0    1.64    0.66
   8   6   1  107.63    3.45
   8   6   1   98.27    3.98
   8   6   2   24.72    1.67
   8   6   2   22.05    1.97
   8   6   3    8.24    1.08
  -8  -6  -3   10.99    1.31
   8   6   4   70.23    2.72
   8   6   4   65.41    3.24
   8   6   5  152.04    3.85
  -8  -6  -5  184.09    4.48
   8   6   6    1.36    0.38
  -8  -6  -6    1.56    0.55
  -8  -6  -6    1.55    0.43
   8   7   1    1.03    0.36
   8   7   2    2.80    0.49
   8   7   2    2.46    0.64
   8   7   3    0.66    0.38
  -8  -7  -3    1.57    0.57
  -8  -7  -4  155.63    3.78
  -8  -7  -5   16.44    1.02
   9   0   0    9.32    0.66
   9   0   1    7.83    0.61
   9   1  -1   21.04    1.03
   9   1   0    7.19    0.68
   9   1   0    5.20    0.83
   9   1   1    0.92    0.38
   9   1   2    0.77    0.35
   9   2  -1    1.13    0.55
   9   2   0    0.88    0.30
   9   2   1    2.25    0.43
   9   2   1    1.71    0.65
   9   2   2    5.81    0.60
   9   2   2    3.45    0.77
   9   2   3   39.85    1.55
   9   2   4   10.54    0.74
   9   3  -1   28.85    1.83
   9   3   0    0.17    0.53
   9   3   1   23.16    1.78
   9   3   2    0.44    0.38
   9   3   3    1.24    0.44
   9   3   5    7.93    0.63
  -9  -4   0    5.10    0.64
   9   4   1   25.28    1.27
   9   4   1   22.06    1.52
   9   4   2   10.90    0.92
  -9  -4  -2   12.69    1.07
  -9  -4  -3   23.78    1.36
  -9  -4  -4    2.61    0.46
   9   4   4    3.91    0.56
  -9  -5  -2    4.35    0.60
   9   5   3   29.79    1.32
  -9  -5  -3   37.12    1.49
   0   0   0    0.00    0.00


TITL zhoujyp_10_0703_auto in P-1
REM P-1 (#2 in standard setting)
CELL 1.54184   7.384854   8.098071  11.125406  72.2164  84.2095  74.7674
ZERR    3.00   0.000135   0.000150   0.000216   0.0017   0.0016   0.0016
LATT  1
SFAC C H N O
UNIT 33.00 30.00 3.00 3.00
REM  CrysAlisPro recorded range (K): Min=299.8; max=299.8; aver:299.8
TEMP 27
TREF
HKLF 4
END
_computing_structure_solution     'SHELXT 2018/2 (Sheldrick, 2018)'
;
_shelx_hkl_checksum              91215
_olex2_submission_special_instructions 'No special instructions were received'
_oxdiff_exptl_absorpt_empirical_details
;
Empirical correction (ABSPACK) includes:
- Absorption correction using spherical harmonics
- Frame scaling
;
_oxdiff_exptl_absorpt_empirical_full_max 2.336
_oxdiff_exptl_absorpt_empirical_full_min 0.576
loop_
_space_group_symop_operation_xyz
'x, y, z'
'-x, -y, -z'
loop_
_atom_site_label
_atom_site_type_symbol
_atom_site_fract_x
_atom_site_fract_y
_atom_site_fract_z
_atom_site_U_iso_or_equiv
_atom_site_adp_type
_atom_site_occupancy
_atom_site_site_symmetry_order
_atom_site_calc_flag
_atom_site_refinement_flags_posn
_atom_site_refinement_flags_adp
_atom_site_refinement_flags_occupancy
_atom_site_disorder_assembly
_atom_site_disorder_group
Cl1 Cl 0.78306(8) 0.90166(6) 0.72542(4) 0.0607(2) Uani 1 1 d . . . . .
Cl2 Cl 0.74506(8) 0.37032(6) 0.53951(5) 0.0672(2) Uani 1 1 d . . . . .
O1 O 0.93236(17) 0.19937(17) 0.89738(13) 0.0580(4) Uani 1 1 d . . . . .
O2 O 0.75081(19) 0.04793(18) 1.03269(14) 0.0645(4) Uani 1 1 d . . . . .
H2 H 0.853237 -0.019042 1.056204 0.097 Uiso 1 1 calc GR . . . .
N1 N 0.76923(19) 0.52470(18) 0.74440(13) 0.0456(4) Uani 1 1 d . . . . .
H1 H 0.873794 0.475662 0.782947 0.055 Uiso 1 1 calc R . . . .
C1 C 0.6023(2) 0.3276(2) 0.90050(14) 0.0394(4) Uani 1 1 d . . . . .
C2 C 0.6047(2) 0.4872(2) 0.80295(14) 0.0382(3) Uani 1 1 d . . . . .
C3 C 0.4323(2) 0.6104(2) 0.76795(16) 0.0484(4) Uani 1 1 d . . . . .
H3 H 0.430042 0.716124 0.703746 0.058 Uiso 1 1 calc R . . . .
C4 C 0.2674(3) 0.5790(3) 0.82586(18) 0.0544(5) Uani 1 1 d . . . . .
H4 H 0.155301 0.663582 0.800549 0.065 Uiso 1 1 calc R . . . .
C5 C 0.2646(3) 0.4225(3) 0.92202(19) 0.0555(5) Uani 1 1 d . . . . .
H5 H 0.151941 0.401330 0.960881 0.067 Uiso 1 1 calc R . . . .
C6 C 0.4317(2) 0.2998(2) 0.95836(16) 0.0484(4) Uani 1 1 d . . . . .
H6 H 0.431318 0.195341 1.023293 0.058 Uiso 1 1 calc R . . . .
C7 C 0.7753(2) 0.1889(2) 0.94223(15) 0.0424(4) Uani 1 1 d . . . . .
C8 C 0.7657(2) 0.64426(19) 0.62052(14) 0.0410(4) Uani 1 1 d . . . . .
C9 C 0.7731(2) 0.8213(2) 0.59857(15) 0.0447(4) Uani 1 1 d . . . . .
C10 C 0.7691(3) 0.9365(2) 0.47760(17) 0.0544(5) Uani 1 1 d . . . . .
H10 H 0.775158 1.053878 0.464950 0.065 Uiso 1 1 calc R . . . .
C11 C 0.7562(3) 0.8780(3) 0.37651(17) 0.0603(5) Uani 1 1 d . . . . .
H11 H 0.752854 0.956377 0.295348 0.072 Uiso 1 1 calc R . . . .
C12 C 0.7480(3) 0.7041(3) 0.39358(18) 0.0579(5) Uani 1 1 d . . . . .
H12 H 0.738756 0.664407 0.324868 0.069 Uiso 1 1 calc R . . . .
C13 C 0.7539(2) 0.5901(2) 0.51530(17) 0.0483(4) Uani 1 1 d . . . . .
loop_
_atom_site_aniso_label
_atom_site_aniso_U_11
_atom_site_aniso_U_22
_atom_site_aniso_U_33
_atom_site_aniso_U_23
_atom_site_aniso_U_13
_atom_site_aniso_U_12
Cl1 0.0872(4) 0.0425(3) 0.0519(3) -0.01248(19) -0.0081(2) -0.0138(2)
Cl2 0.0863(4) 0.0370(3) 0.0813(4) -0.0174(2) -0.0111(3) -0.0166(2)
O1 0.0462(6) 0.0406(6) 0.0627(8) 0.0159(6) -0.0026(5) -0.0053(5)
O2 0.0561(7) 0.0401(7) 0.0699(9) 0.0186(6) 0.0023(6) -0.0073(5)
N1 0.0436(7) 0.0337(7) 0.0458(7) 0.0084(6) -0.0081(5) -0.0073(5)
C1 0.0465(8) 0.0317(7) 0.0378(7) -0.0055(6) -0.0047(6) -0.0102(6)
C2 0.0448(8) 0.0303(7) 0.0367(7) -0.0050(6) -0.0064(6) -0.0079(6)
C3 0.0512(9) 0.0389(8) 0.0456(9) -0.0042(7) -0.0093(7) -0.0015(7)
C4 0.0444(9) 0.0552(11) 0.0578(10) -0.0167(8) -0.0089(7) 0.0008(7)
C5 0.0459(9) 0.0606(11) 0.0610(11) -0.0194(9) 0.0041(8) -0.0146(8)
C6 0.0522(9) 0.0434(9) 0.0480(9) -0.0081(7) 0.0020(7) -0.0161(7)
C7 0.0501(9) 0.0303(7) 0.0401(8) 0.0009(6) -0.0034(6) -0.0111(6)
C8 0.0426(8) 0.0291(7) 0.0418(8) 0.0013(6) -0.0038(6) -0.0055(6)
C9 0.0523(9) 0.0316(8) 0.0434(8) -0.0035(6) -0.0036(6) -0.0065(6)
C10 0.0716(11) 0.0297(8) 0.0508(10) 0.0023(7) -0.0008(8) -0.0104(7)
C11 0.0821(13) 0.0439(10) 0.0402(9) 0.0043(7) -0.0012(8) -0.0101(9)
C12 0.0732(12) 0.0520(10) 0.0457(9) -0.0131(8) -0.0048(8) -0.0106(9)
C13 0.0541(9) 0.0322(8) 0.0537(9) -0.0078(7) -0.0057(7) -0.0065(7)
loop_
_atom_type_symbol
_atom_type_description
_atom_type_scat_dispersion_real
_atom_type_scat_dispersion_imag
_atom_type_scat_source
C C 0.0181 0.0091 'International Tables Vol C Tables 4.2.6.8 and 6.1.1.4'
H H 0.0000 0.0000 'International Tables Vol C Tables 4.2.6.8 and 6.1.1.4'
Cl Cl 0.3639 0.7018 'International Tables Vol C Tables 4.2.6.8 and 6.1.1.4'
N N 0.0311 0.0180 'International Tables Vol C Tables 4.2.6.8 and 6.1.1.4'
O O 0.0492 0.0322 'International Tables Vol C Tables 4.2.6.8 and 6.1.1.4'
loop_
_geom_angle_atom_site_label_1
_geom_angle_atom_site_label_2
_geom_angle_atom_site_label_3
_geom_angle
_geom_angle_site_symmetry_1
_geom_angle_site_symmetry_3
_geom_angle_publ_flag
C2 N1 C8 119.98(12) . . ?
C2 C1 C7 121.58(14) . . ?
C6 C1 C2 119.51(14) . . ?
C6 C1 C7 118.91(14) . . ?
N1 C2 C1 122.28(13) . . ?
N1 C2 C3 120.16(14) . . ?
C3 C2 C1 117.56(15) . . ?
C4 C3 C2 121.59(16) . . ?
C3 C4 C5 121.01(16) . . ?
C6 C5 C4 118.53(17) . . ?
C5 C6 C1 121.79(16) . . ?
O1 C7 O2 121.17(14) . . ?
O1 C7 C1 124.22(14) . . ?
O2 C7 C1 114.61(14) . . ?
C9 C8 N1 121.87(15) . . ?
C13 C8 N1 121.35(14) . . ?
C13 C8 C9 116.79(15) . . ?
C8 C9 Cl1 119.79(13) . . ?
C10 C9 Cl1 118.86(14) . . ?
C10 C9 C8 121.33(17) . . ?
C11 C10 C9 120.03(17) . . ?
C10 C11 C12 120.72(17) . . ?
C11 C12 C13 118.49(18) . . ?
C8 C13 Cl2 117.88(13) . . ?
C12 C13 Cl2 119.49(15) . . ?
C12 C13 C8 122.63(17) . . ?
loop_
_geom_bond_atom_site_label_1
_geom_bond_atom_site_label_2
_geom_bond_distance
_geom_bond_site_symmetry_2
_geom_bond_publ_flag
Cl1 C9 1.7401(18) . ?
Cl2 C13 1.7344(18) . ?
O1 C7 1.229(2) . ?
O2 C7 1.3113(19) . ?
N1 C2 1.381(2) . ?
N1 C8 1.4200(19) . ?
C1 C2 1.414(2) . ?
C1 C6 1.396(2) . ?
C1 C7 1.468(2) . ?
C2 C3 1.401(2) . ?
C3 C4 1.367(3) . ?
C4 C5 1.390(3) . ?
C5 C6 1.373(3) . ?
C8 C9 1.393(2) . ?
C8 C13 1.388(2) . ?
C9 C10 1.382(2) . ?
C10 C11 1.367(3) . ?
C11 C12 1.379(3) . ?
C12 C13 1.384(3) . ?
