#------------------------------------------------------------------------------
#$Date: 2022-04-19 01:41:39 +0300 (Tue, 19 Apr 2022) $
#$Revision: 274566 $
#$URL: file:///home/coder/svn-repositories/cod/cif/7/24/48/7244800.cif $
#------------------------------------------------------------------------------
#
# This file is available in the Crystallography Open Database (COD),
# http://www.crystallography.net/
#
# All data on this site have been placed in the public domain by the
# contributors.
#
data_7244800
loop_
_publ_author_name
'Qin, Shu-Qin'
'Gan, Qian-Ying'
'Xu, Wei'
'Jiang, Ren-Wang'
_publ_section_title
;
 Hybrid interaction network of guanidinium-biphenyldisulfonic acid for the
 structure determination of liquid molecules
;
_journal_name_full               CrystEngComm
_journal_paper_doi               10.1039/D2CE00228K
_journal_year                    2022
_chemical_formula_moiety         'C12 H8 O6 S2, C10 H11 O2, 2(C H6 N3)'
_chemical_formula_sum            'C24 H31 N6 O8 S2'
_chemical_formula_weight         595.67
_space_group_crystal_system      triclinic
_space_group_IT_number           2
_space_group_name_Hall           '-P 1'
_space_group_name_H-M_alt        'P -1'
_atom_sites_solution_hydrogens   mixed
_atom_sites_solution_primary     dual
_audit_creation_date             2021-12-14
_audit_creation_method
;
Olex2 1.3-alpha
(compiled 2020.11.12 svn.r5f609507 for OlexSys, GUI svn.r6408)
;
_audit_update_record
;
2022-02-17 deposited with the CCDC.	2022-04-14 downloaded from the CCDC.
;
_cell_angle_alpha                97.548(9)
_cell_angle_beta                 90.802(11)
_cell_angle_gamma                94.115(10)
_cell_formula_units_Z            1
_cell_length_a                   6.2266(9)
_cell_length_b                   7.1344(7)
_cell_length_c                   14.1593(15)
_cell_measurement_reflns_used    2138
_cell_measurement_temperature    100.0(2)
_cell_measurement_theta_max      28.6590
_cell_measurement_theta_min      2.8810
_cell_volume                     621.77(13)
_computing_cell_refinement       'CrysAlisPro 1.171.38.43f (Rigaku OD, 2015)'
_computing_data_collection       'CrysAlisPro 1.171.38.43f (Rigaku OD, 2015)'
_computing_data_reduction        'CrysAlisPro 1.171.38.43f (Rigaku OD, 2015)'
_computing_molecular_graphics    'Olex2 1.3-alpha (Dolomanov et al., 2009)'
_computing_publication_material  'Olex2 1.3-alpha (Dolomanov et al., 2009)'
_computing_structure_refinement  'SHELXL 2018/3 (Sheldrick, 2015)'
_computing_structure_solution    'SHELXT  (Sheldrick, 2015)'
_diffrn_ambient_environment      N~2~
_diffrn_ambient_temperature      100.0(2)
_diffrn_detector                 'CCD plate'
_diffrn_detector_area_resol_mean 5.2684
_diffrn_detector_type            AtlasS2
_diffrn_measured_fraction_theta_full 0.988
_diffrn_measured_fraction_theta_max 0.988
_diffrn_measurement_details
;
List of Runs (angles in degrees, time in seconds):

  # Type    Start    End  Width  t~exp~   \w     \q     \k     \f   Frames
#--------------------------------------------------------------------------
  1  \w    -59.00  37.00   1.00    4.00    --   11.74 -57.00 -30.00   96
  2  \w    -16.00  79.00   1.00    4.00    --   11.74  77.00-120.00   95
  3  \w    -16.00  82.00   1.00    4.00    --   11.74  57.00 120.00   98
;
_diffrn_measurement_device       'four-circle diffractometer'
_diffrn_measurement_device_type  'SuperNova, Dual, Cu at zero, AtlasS2'
_diffrn_measurement_method       '\w scans'
_diffrn_orient_matrix_type
'CrysAlisPro convention (1999,Acta A55,543-557)'
_diffrn_orient_matrix_UB_11      -0.1100039000
_diffrn_orient_matrix_UB_12      0.0103497000
_diffrn_orient_matrix_UB_13      0.0103010000
_diffrn_orient_matrix_UB_21      0.0188915000
_diffrn_orient_matrix_UB_22      -0.0207525000
_diffrn_orient_matrix_UB_23      0.0469113000
_diffrn_orient_matrix_UB_31      0.0243583000
_diffrn_orient_matrix_UB_32      0.0978552000
_diffrn_orient_matrix_UB_33      0.0157528000
_diffrn_radiation_monochromator  mirror
_diffrn_radiation_probe          x-ray
_diffrn_radiation_type           'Mo K\a'
_diffrn_radiation_wavelength     0.71073
_diffrn_reflns_av_unetI/netI     0.0678
_diffrn_reflns_Laue_measured_fraction_full 0.988
_diffrn_reflns_Laue_measured_fraction_max 0.988
_diffrn_reflns_limit_h_max       7
_diffrn_reflns_limit_h_min       -7
_diffrn_reflns_limit_k_max       8
_diffrn_reflns_limit_k_min       -8
_diffrn_reflns_limit_l_max       16
_diffrn_reflns_limit_l_min       -16
_diffrn_reflns_number            2175
_diffrn_reflns_point_group_measured_fraction_full 0.988
_diffrn_reflns_point_group_measured_fraction_max 0.988
_diffrn_reflns_theta_full        25.027
_diffrn_reflns_theta_max         25.027
_diffrn_reflns_theta_min         3.557
_diffrn_source                   'micro-focus sealed X-ray tube'
_diffrn_source_type              'SuperNova (Mo) X-ray Source'
_diffrn_standards_number         0
_exptl_absorpt_coefficient_mu    0.279
_exptl_absorpt_correction_T_max  1.00000
_exptl_absorpt_correction_T_min  0.52079
_exptl_absorpt_correction_type   multi-scan
_exptl_absorpt_process_details
;
CrysAlisPro 1.171.38.43f (Rigaku Oxford Diffraction, 2015)
Empirical absorption correction using spherical harmonics,
 implemented in SCALE3 ABSPACK scaling algorithm.
;
_exptl_crystal_colour            colourless
_exptl_crystal_colour_primary    colourless
_exptl_crystal_density_diffrn    1.591
_exptl_crystal_description       block
_exptl_crystal_F_000             313
_exptl_crystal_size_max          0.23
_exptl_crystal_size_mid          0.2
_exptl_crystal_size_min          0.1
_refine_diff_density_max         0.797
_refine_diff_density_min         -0.728
_refine_diff_density_rms         0.115
_refine_ls_extinction_method     none
_refine_ls_goodness_of_fit_ref   1.074
_refine_ls_hydrogen_treatment    constr
_refine_ls_matrix_type           full
_refine_ls_number_parameters     261
_refine_ls_number_reflns         2175
_refine_ls_number_restraints     337
_refine_ls_restrained_S_all      1.054
_refine_ls_R_factor_all          0.0903
_refine_ls_R_factor_gt           0.0789
_refine_ls_shift/su_max          0.001
_refine_ls_shift/su_mean         0.000
_refine_ls_structure_factor_coef Fsqd
_refine_ls_weighting_details
'w=1/[\s^2^(Fo^2^)+(0.1184P)^2^+1.0201P] where P=(Fo^2^+2Fc^2^)/3'
_refine_ls_weighting_scheme      calc
_refine_ls_wR_factor_gt          0.2101
_refine_ls_wR_factor_ref         0.2220
_reflns_Friedel_coverage         0.000
_reflns_number_gt                1803
_reflns_number_total             2175
_reflns_threshold_expression     'I > 2\s(I)'
_cod_data_source_file            d2ce00228k3.cif
_cod_data_source_block           c1bf4
_cod_database_code               7244800
_shelx_shelxl_version_number     2018/3
_shelx_space_group_comment
;
The symmetry employed for this shelxl refinement is uniquely defined
by the following loop, which should always be used as a source of
symmetry information in preference to the above space-group names.
They are only intended as comments.
;
_shelx_estimated_absorpt_t_max   0.973
_shelx_estimated_absorpt_t_min   0.939
_reflns_odcompleteness_completeness 99.88
_reflns_odcompleteness_iscentric 1
_reflns_odcompleteness_theta     26.32
_olex2_refinement_description
;
1. Twinned data refinement
 Scales: 0.673(12)
 0.327(12)
2. Fixed Uiso
 At 1.2 times of:
  All C(H) groups, All N(H,H) groups
 At 1.5 times of:
  All C(H,H,H) groups
3. Restrained distances
 C5-O5 = O5-C10
 1.42 with sigma of 0.02
 C4-O4
 1.32 with sigma of 0.02
 C8-C9
 1.52 with sigma of 0.02
 C2-C1
 1.39 with sigma of 0.02
 C1-C7
 1.52 with sigma of 0.02
 C7-C8
 1.32 with sigma of 0.02
 C2-C7
 2.521 with sigma of 0.04
 C9-C7
 2.462 with sigma of 0.04
 C1-C8
 2.462 with sigma of 0.04
 C14A-C13 \\sim C15A-C14A \\sim C16-C15A \\sim C11A-C16 \\sim C12A-C11A \\sim
C12A-C13
 with sigma of 0.02
 C14-C13 \\sim C15-C14 \\sim C16-C15 \\sim C11-C16 \\sim C12-C11 \\sim C12-C13
 with sigma of 0.02
4. Uiso/Uaniso restraints and constraints
O4 \\sim O5 \\sim C1 \\sim C6 \\sim C5 \\sim C4 \\sim C3 \\sim C2 \\sim C7
\\sim C8 \\sim C9 \\sim C10: within 2A with sigma of 0.01 and sigma for
terminal atoms of 0.02 within 2A
Uanis(C1) \\sim Ueq, Uanis(C9) \\sim Ueq, Uanis(C8) \\sim Ueq, Uanis(C7) \\sim
Ueq, Uanis(C6) \\sim Ueq, Uanis(C2) \\sim Ueq, Uanis(C5) \\sim Ueq, Uanis(C3)
\\sim Ueq, Uanis(C4) \\sim Ueq, Uanis(O5) \\sim Ueq, Uanis(O4) \\sim Ueq,
Uanis(C10) \\sim Ueq: with sigma of 0.1 and sigma for terminal atoms of 0.2
5. Rigid body (RIGU) restrains
 O4, O5, C1, C6, C5, C4, C3, C2, C7, C8, C9, C10
 with sigma for 1-2 distances of 0.001 and sigma for 1-3 distances of 0.001
 C11, C12, C13, C14, C15, C16
 with sigma for 1-2 distances of 0.001 and sigma for 1-3 distances of 0.001
 C11A, C12A, C13, C14A, C15A, C16
 with sigma for 1-2 distances of 0.001 and sigma for 1-3 distances of 0.001
6. Others
 Sof(C11A)=Sof(H11A)=Sof(C12A)=Sof(H12A)=Sof(C14A)=Sof(H14A)=Sof(C15A)=
 Sof(H15A)=1-FVAR(1)
 Sof(C11)=Sof(H11)=Sof(C12)=Sof(H12)=Sof(C14)=Sof(H14)=Sof(C15)=Sof(H15)=FVAR(1)
 Fixed Sof: O4(0.5) O5(0.5) C1(0.5) C6(0.5) H6(0.5) C5(0.5) C4(0.5) C3(0.5)
 H3(0.5) C2(0.5) H2(0.5) C7(0.5) H7(0.5) C8(0.5) H8(0.5) C9(0.5) H9A(0.5)
 H9B(0.5) H9C(0.5) C10(0.5) H10A(0.5) H10B(0.5) H10C(0.5)
7.a Riding coordinates:
 C9(H9A,H9B,H9C), C10(H10A,H10B,H10C)
7.b Aromatic/amide H refined with riding coordinates:
 C6(H6), C3(H3), C2(H2), C7(H7), C8(H8), C11(H11), C11A(H11A), C12(H12),
 C12A(H12A), C14(H14), C14A(H14A), C15(H15), C15A(H15A)
7.c Fitted hexagon refined as free rotating group:
 C1(C6,C5,C4,C3,C2)
7.d X=CH2 refined with riding coordinates:
 N1(H1A,H1B), N2(H2A,H2B), N3(H3A,H3B)
;
_shelx_res_file
;
TITL c1bf4_a.res in P-1
    c1bf4.res
    created by SHELXL-2018/3 at 20:56:17 on 14-Dec-2021
REM Old TITL c1bf4_a.res in P-1
REM SHELXT solution in P-1
REM R1 0.354, Rweak 0.054, Alpha 0.076, Orientation as input
REM Formula found by SHELXT: C8 N
CELL 0.71073 6.2266 7.1344 14.1593 97.548 90.802 94.115
ZERR 1 0.0009 0.0007 0.0015 0.009 0.011 0.01
LATT 1
SFAC C H N O S
UNIT 24 31 6 8 2
EQIV $1 1-X,1-Y,1-Z
DFIX 1.42 C5 O5 O5 C10
RIGU 0.001 0.001 O4 > C10
DFIX 1.32 C4 O4
ISOR C1 C9 C8 C7 C6 C2 C5 C3 C4 O5 O4 C10
DFIX 1.52 C8 C9
SIMU 0.01 0.02 2 O4 > C10
DANG 2.521 C2 C7
DFIX 1.39 C2 C1
DANG 2.462 C9 C7
DFIX 1.52 C1 C7
DFIX 1.32 C7 C8
DANG 2.462 C1 C8
SADI C14A C13 C15A C14A C16 C15A C11A C16 C12A C11A C12A C13
RIGU 0.001 0.001 C11 C12 C13 C14 C15 C16
SADI C14 C13 C15 C14 C16 C15 C11 C16 C12 C11 C12 C13
RIGU 0.001 0.001 C11A C12A C13 C14A C15A C16

L.S. 4
PLAN  10
SIZE 0.1 0.2 0.23
CONF
FREE C7 C2_$1
FREE C7 C2
BOND $H
LIST 4
MORE -1
fmap 2 53
acta
SHEL 999 0.84
OMIT 0 2 1
OMIT 0 0 3
OMIT 3 -7 0
OMIT 0 -7 5
REM <olex2.extras>
REM <HklSrc "%.\\C1BF4.hkl">
REM </olex2.extras>

WGHT    0.118400    1.020100
BASF   0.32686
FVAR      11.80969   0.49705
S1    5    0.837744    0.243557    0.859570    11.00000    0.01449    0.01359 =
         0.02271    0.00004    0.00097    0.00198
O1    4    0.947188    0.125199    0.918089    11.00000    0.02263    0.02520 =
         0.02569    0.00522    0.00137    0.00831
O2    4    0.604520    0.225227    0.868252    11.00000    0.01507    0.01835 =
         0.03004    0.00134    0.00221    0.00297
O3    4    0.921986    0.439996    0.874646    11.00000    0.01835    0.02000 =
         0.03024   -0.00167    0.00100    0.00262
PART -1
O4    4   -0.294959    0.585184    0.639058    10.50000    0.26175    0.07175 =
         0.18180    0.05966   -0.00301    0.01302
O5    4   -0.234968    0.441209    0.423951    10.50000    0.26003    0.12744 =
         0.19615    0.04201    0.00538    0.00449
AFIX  66
C1    1    0.316893    0.529453    0.531493    10.50000    0.26045    0.08411 =
         0.19442    0.04977    0.00134    0.00616
C6    1    0.146590    0.495752    0.465499    10.50000    0.26144    0.10129 =
         0.19073    0.05241    0.00204    0.00424
AFIX  43
H6    2    0.172958    0.458769    0.401516    10.50000   -1.20000
AFIX  65
C5    1   -0.063123    0.517327    0.495134    10.50000    0.26190    0.11582 =
         0.19383    0.04746    0.00296    0.00576
C4    1   -0.102534    0.572603    0.590763    10.50000    0.26180    0.09289 =
         0.19169    0.05485    0.00068    0.01164
C3    1    0.067767    0.606304    0.656758    10.50000    0.26259    0.08352 =
         0.19075    0.05436    0.00053    0.01056
AFIX  43
H3    2    0.041397    0.643288    0.720741    10.50000   -1.20000
AFIX  65
C2    1    0.277481    0.584731    0.627125    10.50000    0.26119    0.06675 =
         0.19087    0.05663   -0.00236    0.01184
AFIX  43
H2    2    0.391424    0.607279    0.671280    10.50000   -1.20000
AFIX   0
C7    1    0.532756    0.490270    0.489985    10.50000    0.26198    0.07720 =
         0.20189    0.03357    0.00266    0.00383
AFIX  43
H7    2    0.547382    0.425563    0.429249    10.50000   -1.20000
AFIX   0
C8    1    0.694825    0.552818    0.544667    10.50000    0.25779    0.08789 =
         0.19956    0.00804    0.00941    0.01416
AFIX  43
H8    2    0.658449    0.670910    0.573203    10.50000   -1.20000
AFIX   0
C9    1    0.905760    0.532833    0.584523    10.50000    0.25384    0.08966 =
         0.17384   -0.01834    0.01975    0.02597
AFIX   3
H9A   2    0.934740    0.401843    0.570533    10.50000   -1.50000
H9B   2    0.843210    0.554433    0.646243    10.50000   -1.50000
H9C   2    1.037790    0.610933    0.584083    10.50000   -1.50000
AFIX   0
C10   1   -0.441617    0.418279    0.382729    10.50000    0.25378    0.10185 =
         0.17302    0.07075    0.01770   -0.00852
AFIX   3
H10A  2   -0.432497    0.399709    0.314569    10.50000   -1.50000
H10B  2   -0.516577    0.529379    0.402269    10.50000   -1.50000
H10C  2   -0.518257    0.309819    0.403329    10.50000   -1.50000
AFIX   0

PART 1
C11   1    1.125144    0.032081    0.625630    21.00000    0.02099    0.02799 =
         0.02539    0.00139    0.00034    0.01062
AFIX  43
H11   2    1.260438   -0.009413    0.610978    21.00000   -1.20000
AFIX   0
PART 2
C11A  1    1.146069    0.130773    0.607547   -21.00000    0.01856    0.02943 =
         0.02466   -0.00353    0.00114   -0.00332
AFIX  43
H11A  2    1.281860    0.155232    0.583394   -21.00000   -1.20000
AFIX   0
PART 1
C12   1    1.083113    0.089086    0.720164    21.00000    0.02233    0.03795 =
         0.02402    0.00260   -0.00109    0.01385
AFIX  43
H12   2    1.183463    0.079897    0.768297    21.00000   -1.20000
AFIX   0
PART 2
C12A  1    1.099123    0.189261    0.701908   -21.00000    0.01746    0.03643 =
         0.02479   -0.00521   -0.00006   -0.00071
AFIX  43
H12A  2    1.208620    0.251152    0.742192   -21.00000   -1.20000
AFIX   0
PART 0
C13   1    0.890455    0.158670    0.739833    11.00000    0.01762    0.01761 =
         0.02228    0.00053   -0.00135    0.00334
PART 1
C14   1    0.727146    0.156293    0.675528    21.00000    0.01619    0.03438 =
         0.02361    0.00397   -0.00051    0.00568
AFIX  43
H14   2    0.592000    0.194234    0.693216    21.00000   -1.20000
AFIX   0
PART 2
C14A  1    0.736509    0.062586    0.676226   -21.00000    0.01682    0.02489 =
         0.02391    0.00247   -0.00138    0.00012
AFIX  43
H14A  2    0.597607    0.040292    0.697573   -21.00000   -1.20000
AFIX   0
PART 1
C15   1    0.773424    0.094044    0.581956    21.00000    0.01708    0.04454 =
         0.02312    0.00023   -0.00323    0.00399
AFIX  43
H15   2    0.664423    0.091816    0.536154    21.00000   -1.20000
AFIX   0
PART 2
C15A  1    0.779608   -0.001630    0.582634   -21.00000    0.01912    0.03373 =
         0.02467   -0.00207   -0.00227   -0.00288
AFIX  43
H15A  2    0.672572   -0.067844    0.542433   -21.00000   -1.20000
AFIX   0
PART 0
C16   1    0.977387    0.032857    0.550781    11.00000    0.01968    0.02175 =
         0.02532   -0.00109   -0.00157    0.00095

C17   1    0.458005    0.737002    0.901988    11.00000    0.01900    0.01745 =
         0.02886   -0.00032    0.00485    0.00379
N1    3    0.671027    0.760068    0.898695    11.00000    0.01427    0.01764 =
         0.06043    0.00349    0.00597    0.00146
AFIX  93
H1A   2    0.746863    0.663710    0.897496    11.00000   -1.20000
H1B   2    0.733243    0.871374    0.897759    11.00000   -1.20000
AFIX   0
N2    3    0.365020    0.565371    0.903386    11.00000    0.01411    0.01529 =
         0.04168    0.00016   -0.00107    0.00250
AFIX  93
H2A   2    0.227100    0.548922    0.905660    11.00000   -1.20000
H2B   2    0.442315    0.469920    0.902023    11.00000   -1.20000
AFIX   0
N3    3    0.342489    0.885937    0.904031    11.00000    0.01437    0.01768 =
         0.05334    0.00370    0.00386    0.00284
AFIX  93
H3A   2    0.204411    0.871759    0.906309    11.00000   -1.20000
H3B   2    0.405457    0.996953    0.903080    11.00000   -1.20000
AFIX   0
HKLF 5




REM  c1bf4_a.res in P-1
REM wR2 = 0.2220, GooF = S = 1.074, Restrained GooF = 1.054 for all data
REM R1 = 0.0789 for 1803 Fo > 4sig(Fo) and 0.0903 for all 2175 data
REM 261 parameters refined using 337 restraints

END

WGHT      0.1184      1.0201

REM Highest difference peak  0.797,  deepest hole -0.728,  1-sigma level  0.115
Q1    1   0.1942  0.5983  0.6607  11.00000  0.05    0.80
Q2    1  -0.4295  0.6218  0.6529  11.00000  0.05    0.61
Q3    1  -0.3902  0.4213  0.4006  11.00000  0.05    0.60
Q4    1   0.8421  0.3641  0.8639  11.00000  0.05    0.52
Q5    1   0.2289  0.6519  0.4998  11.00000  0.05    0.44
Q6    1   0.7676  0.6713  0.5015  11.00000  0.05    0.38
Q7    1   0.2062  0.8818  0.9465  11.00000  0.05    0.38
Q8    1  -0.3765  0.5911  0.4388  11.00000  0.05    0.38
Q9    1   0.5997  0.3802  0.8649  11.00000  0.05    0.37
Q10   1   0.3131  0.5083  0.4973  11.00000  0.05    0.34
;
_shelx_res_checksum              60700
_shelx_hkl_file
;
  -2   0   0   15451     894  -2
   2   0   0   15451     894   1
  -3   0   0    3423     473  -2
   3   0   0    3423     473   1
  -5   0   0     186     143  -2
   5   0   0     186     143   1
  -6   0   0    5476    1237  -2
   6   0   0    5476    1237   1
  -7   0   0     350     378  -2
   7   0   0     350     378   1
  -7   1   0     915     665   1
  -6   1   0     273     190   1
  -5   1   0    2090     461   1
  -4   1   0   37132    1539   1
  -3   1   0   33347    1615   1
  -2   1   0   14811     896   1
  -1   1   0   46654    1891   1
   1   1   0  516972    7287   1
   2   1   0    3876     293   1
   3   1   0   51171    1768   1
   4   1   0    6184     974   1
   5   1   0     257     114   1
   6   1   0    1177     379   1
   7   1   0    5079     837   1
  -7   2   0   13243    2258   1
  -6   2   0   21520    1888   1
  -5   2   0    6233    1037   1
  -4   2   0    9830    1032   1
  -3   2   0   45044    1397   1
  -2   2   0   10061     968   1
  -1   2   0    3608     186   1
   1   2   0   74132    1151   1
   2   2   0    1815     204   1
   3   2   0   20422     949   1
   4   2   0   25014    1436   1
   5   2   0    -116     116   1
   6   2   0    6700    1224   1
   7   2   0    5895     887   1
  -7   3   0    2260     883   1
  -6   3   0    4212    1198   1
  -5   3   0    1131     136   1
  -4   3   0   22818    1909   1
  -3   3   0     147     177   1
  -2   3   0   26994     616   1
  -1   3   0   16561     640   1
   0   3   0  140691    2835   1
   1   3   0      46      65   1
   2   3   0   24749    1047   1
   3   3   0    1857     310   1
   4   3   0  158381    4146   1
   5   3   0   21830    1072   1
   6   3   0    7825     934   1
  -6   4   0   17336    2579   1
  -5   4   0    2532     951   1
  -4   4   0    3359     947   1
  -3   4   0     789     309   1
  -2   4   0     255      86   1
  -1   4   0    1461     244   1
   0   4   0   32244    1033   1
   1   4   0   25789     830   1
   2   4   0    3210     277   1
   3   4   0   61783    1212   1
   4   4   0    3742     360   1
   5   4   0   10997    1027   1
   6   4   0    3367    1008   1
  -6   5   0    1260     927   1
  -5   5   0    6688    1611   1
  -4   5   0    9897    1663   1
  -3   5   0    6484    1206   1
  -2   5   0    6671     477   1
  -1   5   0   14406     754   1
   0   5   0    4572     405   1
   1   5   0   15516     786   1
   2   5   0    2958     375   1
   3   5   0    2175     264   1
   4   5   0   32996    1495   1
   5   5   0    -127     300   1
  -5   6   0     757     396   1
  -4   6   0   39498    3558   1
  -3   6   0    6407    1030   1
  -2   6   0    1539     533   1
  -1   6   0    3263     406   1
   0   6   0   59028    2037   1
   1   6   0     121      95   1
   2   6   0    4071     385   1
   3   6   0     279     204   1
   4   6   0     329     346   1
  -4   7   0   16501    2374   1
  -3   7   0   17954    2373   1
  -2   7   0   13560    2069   1
  -1   7   0   20759    1667   1
   0   7   0    5059     579   1
   1   7   0    6562     816   1
   2   7   0    1181     275   1
   3   7   0    1760     898   1
  -2   8   0    1452     507   1
  -1   8   0    2433     402   1
   0   8   0   14394    3216   1
   1   8   0     494     373   1
  -1  -8   1     516     378   1
   0  -8   1   12492    1283   1
   1  -8   1    2326     698   1
   2  -8   1    3845     987   1
  -3  -7   1    3884    1078   1
  -2  -7   1    3233     989   1
  -1  -7   1   10663    1297   1
   0  -7   1    1005     272   1
   1  -7   1   16944    1087   1
   2  -7   1     901     688   1
   3  -7   1    2034     819   1
   4  -7   1   25395    3015   1
  -4  -6   1    3360    1006   1
  -3  -6   1      75      77   1
  -2  -6   1     744     141   1
  -1  -6   1    4132     383   1
   0  -6   1   58107    1820   1
   1  -6   1   28174    1225   1
   2  -6   1    9315     710   1
   3  -6   1    5952     471   1
   4  -6   1   20196    2539   1
   5  -6   1    6971    1607   1
  -5  -5   1   12956    1988   1
  -4  -5   1   15084    1989   1
  -3  -5   1   14158    1767   1
  -2  -5   1    3016     261   1
  -1  -5   1    1294     187   1
   0  -5   1    4849     408   1
   1  -5   1   60681    1665   1
   2  -5   1    2130     275   1
   3  -5   1    1386     656   1
   4  -5   1   12578    1972   1
   5  -5   1     698     676   1
   6  -5   1    1019     760   1
  -6  -4   1    -398     398   1
  -5  -4   1   16492    1049   1
  -4  -4   1   32926    1341   1
  -3  -4   1   47304    1460   1
  -2  -4   1    1854     233   1
  -1  -4   1    1155     190   1
   0  -4   1    9413     514   1
   1  -4   1   14119     621   1
   2  -4   1      65      52   1
   3  -4   1   15947     763   1
   4  -4   1     741     161   1
   5  -4   1   20100    2604   1
   6  -4   1    1486     841   1
  -6  -3   1   16491    1282   1
  -5  -3   1    2207     435   1
  -4  -3   1    5756     451   1
  -3  -3   1   30444    1000   1
  -2  -3   1   90320    1497   1
  -1  -3   1   51225    1725   1
   0  -3   1     299      73   1
   1  -3   1   17525     571   1
   2  -3   1    2602     189   1
   3  -3   1   25576     852   1
   4  -3   1   95438    2239   1
   5  -3   1    9367     874   1
   6  -3   1     716     434   1
   7  -3   1    4183    1314   1
  -7  -2   1   11111    1214   1
  -6  -2   1    2351     621   1
  -5  -2   1    7335     627   1
  -4  -2   1   20091     962   1
  -3  -2   1   13912     660   1
  -2  -2   1   14292     571   1
  -1  -2   1   89700    3165   1
   0  -2   1 1054850   10469   1
   1  -2   1    9989     339   1
   2  -2   1     302     210   1
   3  -2   1   12465     621   1
   4  -2   1    3622     498   1
   5  -2   1   32526    3061   1
   6  -2   1    3531     608   1
   7  -2   1    8021    1781   1
  -7  -1   1     359     418   1
  -6  -1   1    4047     674   1
  -5  -1   1    5346     561   1
  -4  -1   1     611     200   1
  -3  -1   1  131639    2559   1
  -2  -1   1     171      62   1
   1  -1   1  692285    9935   1
   2  -1   1    1180     369   1
   3  -1   1    3503     748   1
   4  -1   1   57262    2408   1
   5  -1   1     534     533   1
   6  -1   1    -202     341   1
   7  -1   1    9060    1160   1
   7   0  -1     394     335  -2
  -7   0   1     394     335   1
   6   0  -1   11532    2126  -2
  -6   0   1   11532    2126   1
   5   0  -1     103      85  -2
  -5   0   1     103      85   1
   4   0  -1   94314    6726  -2
  -4   0   1   94314    6726   1
   3   0  -1   30470    1954  -2
  -3   0   1   30470    1954   1
   1   0  -1   35906    1129  -2
  -1   0   1   35906    1129   1
  -2   0  -1   22251    1723  -2
   2   0   1   22251    1723   1
  -3   0  -1    2477     736  -2
   3   0   1    2477     736   1
  -4   0  -1   75335    3125  -2
   4   0   1   75335    3125   1
  -5   0  -1    2590     560  -2
   5   0   1    2590     560   1
  -6   0  -1    6073     876  -2
   6   0   1    6073     876   1
  -7   0  -1    4704     850  -2
   7   0   1    4704     850   1
  -7   1   1     984     622   1
  -6   1   1    1103     607   1
  -5   1   1    9600     894   1
  -4   1   1    7271     588   1
  -3   1   1  243546    6951   1
  -2   1   1   51883    1464   1
  -1   1   1    5432     538   1
   1   1   1  162000    4413   1
   2   1   1   45547    1372   1
   3   1   1   14234     745   1
   4   1   1   36909    2647   1
   5   1   1    6256    1011   1
   6   1   1      47     167   1
   7   1   1   11945    1830   1
  -7   2   1   14257    2321   1
  -6   2   1   22668    1986   1
  -5   2   1   18520    1073   1
  -4   2   1    2496     293   1
  -3   2   1    5559     947   1
  -2   2   1    2804     559   1
  -1   2   1   24539     693   1
   0   2   1   13445     612   1
   1   2   1  135567   10197   1
   2   2   1    1217     183   1
   3   2   1   17213     908   1
   4   2   1    9226    1217   1
   5   2   1   62647    2034   1
   6   2   1   13161    1530   1
   7   2   1     330     291   1
  -7   3   1     870     654   1
  -6   3   1   17339    2459   1
  -5   3   1   24557    2698   1
  -4   3   1   11089    1644   1
  -3   3   1   20971    1778   1
  -2   3   1    5054     802   1
  -1   3   1    5607     378   1
   0   3   1   85441    2173   1
   1   3   1    7822     549   1
   2   3   1    5599     403   1
   3   3   1   12682    1682   1
   4   3   1  113170    3371   1
   5   3   1   16366     981   1
   6   3   1    5842     853   1
  -6   4   1   21407    2774   1
  -5   4   1    6582    1407   1
  -4   4   1    5761    1223   1
  -3   4   1     280     250   1
  -2   4   1    9615     773   1
  -1   4   1    8140     519   1
   0   4   1    1395     202   1
   1   4   1  142631    2942   1
   2   4   1   27460    1202   1
   3   4   1   20716    1009   1
   4   4   1     196     109   1
   5   4   1   25277    1625   1
   6   4   1    -185     185   1
  -6   5   1    3367    1112   1
  -5   5   1    9644    1809   1
  -4   5   1    -464     464   1
  -3   5   1   19373    2071   1
  -2   5   1   16639     757   1
  -1   5   1      -9      98   1
   0   5   1    1733     215   1
   1   5   1    4261     388   1
   2   5   1     443     131   1
   3   5   1    6940     516   1
   4   5   1   16823    1229   1
   5   5   1    1317     625   1
  -5   6   1   14554    2259   1
  -4   6   1   36935    3367   1
  -3   6   1    3666     920   1
  -2   6   1    5335     687   1
  -1   6   1    7541     633   1
   0   6   1   23626     900   1
   1   6   1    1123     247   1
   2   6   1    2106     322   1
   3   6   1     239     278   1
   4   6   1    6784    1414   1
  -4   7   1    6933    1545   1
  -3   7   1   23138    2381   1
  -2   7   1   31811    1431   1
  -1   7   1    1289     373   1
   0   7   1    3265     821   1
   1   7   1    3115     478   1
   2   7   1     668     237   1
   3   7   1    7270    1640   1
  -2   8   1    1619     614   1
  -1   8   1   15447    1202   1
   0   8   1    4281    1314   1
   1   8   1    4263    1083   1
  -1  -8   2    6855    1253   1
   0  -8   2    6577    1146   1
   1  -8   2    5208     948   1
   2  -8   2    2275    1937   1
  -3  -7   2    9029    1604   1
  -2  -7   2    2581     839   1
  -1  -7   2    3855     432   1
   0  -7   2   18965    1370   1
   1  -7   2   27471    1406   1
   2  -7   2    9059    1042   1
   3  -7   2    3402     484   1
   4  -7   2    9941    1959   1
  -4  -6   2   12824    1917   1
  -3  -6   2     454     248   1
  -2  -6   2     496     234   1
  -1  -6   2    -114     114   1
   0  -6   2     222     144   1
   1  -6   2   78383    2594   1
   2  -6   2   22254    1173   1
   3  -6   2    1134     240   1
   4  -6   2     719     465   1
   5  -6   2   10895    2065   1
  -5  -5   2     601     444   1
  -4  -5   2   11907    1754   1
  -3  -5   2   42267    3164   1
  -2  -5   2     889     166   1
  -1  -5   2    1157     206   1
   0  -5   2   41833    1273   1
   1  -5   2   33144    1196   1
   2  -5   2   15736     695   1
   3  -5   2   16422    1070   1
   4  -5   2   14267    3261   1
   5  -5   2     270     327   1
   6  -5   2     106     502   1
  -6  -4   2    3650    1059   1
  -5  -4   2   38919    3273   1
  -4  -4   2     876     181   1
  -3  -4   2    -101     334   1
  -2  -4   2    8468    1168   1
  -1  -4   2   88012    1729   1
   0  -4   2   90092    4271   1
   1  -4   2   24634     809   1
   2  -4   2    1474     181   1
   3  -4   2    2747     323   1
   4  -4   2    5132     580   1
   5  -4   2   22005    2155   1
   6  -4   2    2167     991   1
  -6  -3   2   10197    1334   1
  -5  -3   2    2650     440   1
  -4  -3   2   11765     590   1
  -3  -3   2   33057    1077   1
  -2  -3   2   62861    3130   1
  -1  -3   2    9396     481   1
   0  -3   2    4713     293   1
   1  -3   2     398      89   1
   2  -3   2    6657     337   1
   3  -3   2    7880     948   1
   4  -3   2   34106    2262   1
   5  -3   2   42426    1540   1
   6  -3   2    4653    1337   1
   7  -3   2    8053    1966   1
  -7  -2   2    -204     376   1
  -6  -2   2     106     180   1
  -5  -2   2   25476    1173   1
  -4  -2   2   10770     655   1
  -3  -2   2     193      70   1
  -2  -2   2     362      62   1
  -1  -2   2   66465    2566   1
   1  -2   2  344597    3931   1
   2  -2   2   66365    1507   1
   3  -2   2    3969     378   1
   4  -2   2   28661    1755   1
   5  -2   2   68296    4628   1
   6  -2   2     650     482   1
   7  -2   2     536     356   1
  -7  -1   2    2149     505   1
  -6  -1   2     503     303   1
  -5  -1   2    6389     603   1
  -4  -1   2   24172    2163   1
  -3  -1   2  128783    2125   1
  -2  -1   2    5378     294   1
  -1  -1   2  105136    2130   1
   1  -1   2    7576     384   1
   2  -1   2     106     111   1
   3  -1   2   12097    1465   1
   4  -1   2   32860    3370   1
   5  -1   2    3512    1242   1
   6  -1   2    1473     863   1
   7  -1   2    4838     868   1
   7   0  -2      28     119  -2
  -7   0   2      28     119   1
   6   0  -2    1397     386  -2
  -6   0   2    1397     386   1
   5   0  -2    6779     635  -2
  -5   0   2    6779     635   1
   4   0  -2   13683    2226  -2
  -4   0   2   13683    2226   1
   1   0  -2   33233    1510  -2
  -1   0   2   33233    1510   1
  -3   0  -2   14684     996  -2
   3   0   2   14684     996   1
  -4   0  -2   16273    2295  -2
   4   0   2   16273    2295   1
  -5   0  -2   61894    4053  -2
   5   0   2   61894    4053   1
  -6   0  -2    8156    1653  -2
   6   0   2    8156    1653   1
  -7   0  -2   11143    1326  -2
   7   0   2   11143    1326   1
  -7   1   2    2817    1045   1
  -6   1   2      62     226   1
  -5   1   2    3969     527   1
  -4   1   2   13072    1116   1
  -3   1   2    5075     413   1
  -2   1   2   20955    1429   1
  -1   1   2  100480    2409   1
   0   1   2    3031     224   1
   1   1   2  112194    7095   1
   2   1   2    8278     729   1
   3   1   2   27913    1298   1
   4   1   2     221     171   1
   5   1   2   83373    4186   1
   6   1   2   12136    1903   1
   7   1   2    2858     656   1
  -7   2   2    5177    1311   1
  -6   2   2    6751     636   1
  -5   2   2   72504    4136   1
  -4   2   2    1699     221   1
  -3   2   2    1907     555   1
  -2   2   2   27616    1773   1
  -1   2   2   92975    4465   1
   0   2   2    2880     219   1
   1   2   2  181014   15395   1
   2   2   2   13201     956   1
   3   2   2     183     113   1
   4   2   2    7997     725   1
   5   2   2    2749     528   1
   6   2   2   12745    1284   1
  -7   3   2   10023    1942   1
  -6   3   2   38900    3612   1
  -5   3   2   29158    2839   1
  -4   3   2   10456    1524   1
  -3   3   2    2826     525   1
  -2   3   2   14565    1004   1
  -1   3   2     299     105   1
   0   3   2   11185     518   1
   1   3   2   57692    1472   1
   2   3   2   62032    3101   1
   3   3   2   37770    2695   1
   4   3   2   18649    1075   1
   5   3   2   15571    1099   1
   6   3   2    2626     584   1
  -6   4   2    -182     228   1
  -5   4   2   56277    4210   1
  -4   4   2    3667     910   1
  -3   4   2    -271     283   1
  -2   4   2    7479     426   1
  -1   4   2    7728     521   1
   0   4   2   26009     826   1
   1   4   2   73000    3301   1
   2   4   2    3248     285   1
   3   4   2    5824     813   1
   4   4   2    6448     553   1
   5   4   2   17757    1426   1
   6   4   2     143     253   1
  -6   5   2     405     234   1
  -5   5   2     119     217   1
  -4   5   2   10755    1672   1
  -3   5   2   18622    1968   1
  -2   5   2   13768     820   1
  -1   5   2   34829    1275   1
   0   5   2    6016     419   1
   1   5   2     596     181   1
   2   5   2    1764     266   1
   3   5   2   15602     838   1
   4   5   2    1966     456   1
   5   5   2   10404    1827   1
  -5   6   2   25428    2996   1
  -4   6   2     155     380   1
  -3   6   2    3630     919   1
  -2   6   2   42913    1584   1
  -1   6   2   36522    1620   1
   0   6   2     672     294   1
   1   6   2     -17      93   1
   2   6   2    5761     537   1
   3   6   2     473     166   1
   4   6   2    4631    1285   1
  -4   7   2   19050    2421   1
  -3   7   2   13007    1776   1
  -2   7   2    9674    1433   1
  -1   7   2   28770    1341   1
   0   7   2    3478     512   1
   1   7   2    8898    2875   1
   2   7   2    5705    1928   1
   3   7   2   11903    2019   1
  -2   8   2    2513     737   1
  -1   8   2    6697     594   1
   0   8   2    3124     577   1
   1   8   2   14478    2112   1
  -1  -8   3    4686    1031   1
   0  -8   3    3367     817   1
   1  -8   3   14718    2788   1
   2  -8   3     741     284   1
  -3  -7   3   19117    2291   1
  -2  -7   3    2628     749   1
  -1  -7   3    3228     335   1
   0  -7   3    9098     781   1
   1  -7   3    1118     250   1
   2  -7   3   22217    1268   1
   3  -7   3    5072     640   1
   4  -7   3     995     731   1
  -4  -6   3     382     355   1
  -3  -6   3   16285    2008   1
  -2  -6   3   12252    1585   1
  -1  -6   3    1011     293   1
   0  -6   3    4266     404   1
   1  -6   3   33621    2001   1
   2  -6   3    9929    1394   1
   3  -6   3    1612     247   1
   4  -6   3    7928    1649   1
   5  -6   3    5646    1577   1
  -5  -5   3     409     233   1
  -4  -5   3    8966    1498   1
  -3  -5   3    -377     439   1
  -2  -5   3   24241    2098   1
  -1  -5   3   48613     985   1
   0  -5   3     -27      88   1
   1  -5   3     289     119   1
   2  -5   3   26178    1187   1
   3  -5   3   28953    3039   1
   4  -5   3     584     409   1
   5  -5   3    5878    1540   1
   6  -5   3    -145     530   1
  -6  -4   3    5809    1324   1
  -5  -4   3   36362    3134   1
  -4  -4   3    3687     797   1
  -3  -4   3    9508    1350   1
  -2  -4   3    4432     824   1
  -1  -4   3   33175    1593   1
   0  -4   3  191916    3823   1
   1  -4   3   92110    2314   1
   2  -4   3    9768     496   1
   3  -4   3     952     196   1
   4  -4   3   10418     738   1
   5  -4   3   12787     842   1
   6  -4   3    9487    2005   1
  -6  -3   3     863     506   1
  -5  -3   3    1067     197   1
  -4  -3   3  102361    3786   1
  -3  -3   3    8290    1264   1
  -2  -3   3   20576    1661   1
  -1  -3   3     301     132   1
   0  -3   3   52064    1696   1
   1  -3   3  110154    1790   1
   2  -3   3   40508     957   1
   3  -3   3    3527     763   1
   4  -3   3     132     183   1
   5  -3   3   35929    1507   1
   6  -3   3    5686    1518   1
   7  -3   3    -445     613   1
  -7  -2   3     610     406   1
  -6  -2   3    3059     522   1
  -5  -2   3   33149    2579   1
  -4  -2   3    7065     506   1
  -3  -2   3   34736     974   1
  -2  -2   3      87      81   1
  -1  -2   3   59170    2306   1
   0  -2   3       5      38   1
   1  -2   3    5947     296   1
   2  -2   3  112736    2527   1
   3  -2   3   17346     893   1
   4  -2   3   57023    3628   1
   5  -2   3   42360    3677   1
   6  -2   3    8238    1771   1
   7  -2   3    5271    1532   1
  -7  -1   3    6051     835   1
  -6  -1   3     414     352   1
  -5  -1   3    -156     156   1
  -4  -1   3    7212     554   1
  -3  -1   3   13298     761   1
  -2  -1   3   90923    1638   1
  -1  -1   3  110549    1928   1
   0  -1   3   96253    1433   1
   1  -1   3     467      93   1
   2  -1   3   24059    1668   1
   3  -1   3   54247    3309   1
   4  -1   3   19079    1392   1
   5  -1   3  113158    6009   1
   6  -1   3   16542    2465   1
   7  -1   3     492     346   1
   7   0  -3    1163     370  -2
  -7   0   3    1163     370   1
   6   0  -3    1692     378  -2
  -6   0   3    1692     378   1
   5   0  -3    1329     271  -2
  -5   0   3    1329     271   1
   4   0  -3   67613    4809  -2
  -4   0   3   67613    4809   1
   3   0  -3    8605     860  -2
  -3   0   3    8605     860   1
   2   0  -3   82641    2243  -2
  -2   0   3   82641    2243   1
   1   0  -3   24211    1421  -2
  -1   0   3   24211    1421   1
   0   0  -3  156923    4813  -2
   0   0   3  156923    4813   1
  -1   0  -3   47546    1892  -2
   1   0   3   47546    1892   1
  -3   0  -3    1375     485  -2
   3   0   3    1375     485   1
  -4   0  -3    4632     659  -2
   4   0   3    4632     659   1
  -5   0  -3   59619    4201  -2
   5   0   3   59619    4201   1
  -7   0  -3    7733    1718  -2
   7   0   3    7733    1718   1
  -7   1   3    5944    1475   1
  -6   1   3    1645     337   1
  -5   1   3     116     111   1
  -4   1   3   31216    2071   1
  -3   1   3     -37      54   1
  -2   1   3   11479     695   1
  -1   1   3  326004    6443   1
   0   1   3     534     168   1
   1   1   3    5514     552   1
   2   1   3      52      66   1
   3   1   3   77446    3545   1
   4   1   3   16334    1154   1
   5   1   3    5850    1270   1
   6   1   3   18303    2389   1
   7   1   3     701     754   1
  -7   2   3    6827    1513   1
  -6   2   3    7488     607   1
  -5   2   3   75039    1980   1
  -4   2   3    2252     259   1
  -3   2   3    6933     728   1
  -2   2   3    5685     757   1
  -1   2   3   53117    2145   1
   0   2   3   90442    2016   1
   1   2   3   12369    1546   1
   2   2   3   76362    1949   1
   3   2   3   25049    1845   1
   4   2   3    3080     467   1
   5   2   3    1900     680   1
   6   2   3    9466    1709   1
  -6   3   3     368     507   1
  -5   3   3    1650     705   1
  -4   3   3   45538    3207   1
  -3   3   3     906     299   1
  -2   3   3    2297     216   1
  -1   3   3     870     214   1
   0   3   3     504     176   1
   1   3   3   24525    1033   1
   2   3   3   44554    2250   1
   3   3   3    1118     405   1
   4   3   3    3610     476   1
   5   3   3    8049     958   1
   6   3   3    3872     721   1
  -6   4   3    4055    1189   1
  -5   4   3   41595    3489   1
  -4   4   3    1949     694   1
  -3   4   3    5419     961   1
  -2   4   3     995     236   1
  -1   4   3    4437     409   1
   0   4   3   42177    3536   1
   1   4   3   17852    1363   1
   2   4   3     493     151   1
   3   4   3   26363    1640   1
   4   4   3    4969     568   1
   5   4   3    9092    1047   1
  -6   5   3     -47     238   1
  -5   5   3   11698    1906   1
  -4   5   3   13941    1885   1
  -3   5   3      88     267   1
  -2   5   3    2162     303   1
  -1   5   3   71245    1961   1
   0   5   3     164     124   1
   1   5   3    4774     466   1
   2   5   3    6719     608   1
   3   5   3   18554     948   1
   4   5   3    2894     589   1
   5   5   3    2527     581   1
  -5   6   3    6307    1421   1
  -4   6   3   26436    2702   1
  -3   6   3    6734    1204   1
  -2   6   3   19486    1038   1
  -1   6   3    5957     533   1
   0   6   3   40622    1797   1
   1   6   3     823     205   1
   2   6   3     828     235   1
   3   6   3    3557     594   1
   4   6   3    3469     616   1
  -4   7   3   16328    2190   1
  -3   7   3    8814    1469   1
  -2   7   3    1217     803   1
  -1   7   3   45377    2081   1
   0   7   3     201     185   1
   1   7   3    6877     803   1
   2   7   3     350     236   1
   3   7   3    5485    1465   1
  -1   8   3     547     269   1
   0   8   3   11915    1906   1
  -1  -8   4    1001     533   1
   0  -8   4    7546    1169   1
   1  -8   4    3168    2044   1
   2  -8   4    1936     383   1
  -3  -7   4    6255    1317   1
  -2  -7   4   23362    2339   1
  -1  -7   4   15393    1738   1
   0  -7   4   19535    3960   1
   1  -7   4    7164     712   1
   2  -7   4    9040     819   1
   3  -7   4    1683     328   1
   4  -7   4    6868    1594   1
  -4  -6   4    1553     621   1
  -3  -6   4     206     405   1
  -2  -6   4      69     164   1
  -1  -6   4   16211    1192   1
   0  -6   4  109169    2279   1
   1  -6   4    1561     317   1
   2  -6   4      33     100   1
   3  -6   4    9328     761   1
   4  -6   4   15032    2285   1
   5  -6   4     915     812   1
  -5  -5   4     974     500   1
  -4  -5   4   13967    1809   1
  -3  -5   4   12034    1557   1
  -2  -5   4   13989    1557   1
  -1  -5   4    7929     663   1
   0  -5   4      95      69   1
   1  -5   4   47019    1286   1
   2  -5   4   53349    1615   1
   3  -5   4   19396    2406   1
   4  -5   4    6141     679   1
   5  -5   4    1722     925   1
   6  -5   4    5073    1646   1
  -6  -4   4      97     228   1
  -5  -4   4    6891    1310   1
  -4  -4   4   32299    2657   1
  -3  -4   4   23076    2052   1
  -2  -4   4    3403     521   1
  -1  -4   4    2176     570   1
   0  -4   4    9689     520   1
   1  -4   4    2183     271   1
   2  -4   4   40078    1090   1
   3  -4   4   16960    1267   1
   4  -4   4   10979    1168   1
   5  -4   4     685     613   1
   6  -4   4    7835    1799   1
  -6  -3   4    3666     948   1
  -5  -3   4    4052     357   1
  -4  -3   4   64239    3038   1
  -3  -3   4   20536    2344   1
  -2  -3   4    4590     731   1
  -1  -3   4    1176     171   1
   0  -3   4    4510     283   1
   1  -3   4    5498     339   1
   2  -3   4    6805     389   1
   3  -3   4   25684    1155   1
   4  -3   4   68137    2187   1
   5  -3   4   45440    4026   1
   6  -3   4    8974    1943   1
  -6  -2   4    7903     803   1
  -5  -2   4    6624     775   1
  -4  -2   4   18546     979   1
  -3  -2   4     960     129   1
  -2  -2   4    1600     182   1
  -1  -2   4   47002    1108   1
   0  -2   4   12002     403   1
   1  -2   4   31411     763   1
   2  -2   4   68752    1821   1
   3  -2   4   39154    1472   1
   4  -2   4    2414     845   1
   5  -2   4   23482    2765   1
   6  -2   4   63222    5059   1
   7  -2   4   11941    2363   1
  -7  -1   4    5251     727   1
  -6  -1   4       0     149   1
  -5  -1   4    4423     410   1
  -4  -1   4    4901     444   1
  -3  -1   4   11724     522   1
  -2  -1   4      73      53   1
  -1  -1   4  108948    1461   1
   0  -1   4   77436    1294   1
   1  -1   4   28313     850   1
   2  -1   4     959     346   1
   3  -1   4    8215     947   1
   4  -1   4   70433    3582   1
   5  -1   4     444     389   1
   6  -1   4   13087    2209   1
   7  -1   4    2153     805   1
   7   0  -4    2478     527  -2
  -7   0   4    2478     527   1
   6   0  -4   21876    1574  -2
  -6   0   4   21876    1574   1
   5   0  -4     150      99  -2
  -5   0   4     150      99   1
   4   0  -4  132810   12604  -2
  -4   0   4  132810   12604   1
   3   0  -4    6835     393  -2
  -3   0   4    6835     393   1
   2   0  -4   12382     628  -2
  -2   0   4   12382     628   1
   1   0  -4    4119     211  -2
  -1   0   4    4119     211   1
   0   0  -4 1290634   14546  -2
   0   0   4 1290634   14546   1
  -1   0  -4   98325    3105  -2
   1   0   4   98325    3105   1
  -3   0  -4   17549    1671  -2
   3   0   4   17549    1671   1
  -4   0  -4    9222     832  -2
   4   0   4    9222     832   1
  -5   0  -4   39369    3461  -2
   5   0   4   39369    3461   1
  -6   0  -4    4052    1160  -2
   6   0   4    4052    1160   1
  -7   0  -4     128     523  -2
   7   0   4     128     523   1
  -7   1   4    1048     774   1
  -6   1   4   16334    1092   1
  -5   1   4   14015     914   1
  -4   1   4    7503     514   1
  -3   1   4   46175    1527   1
  -2   1   4   51362    2155   1
  -1   1   4  271292   10025   1
   0   1   4    1613     284   1
   1   1   4    1174     191   1
   2   1   4   12728     794   1
   3   1   4    5377     896   1
   4   1   4   14194    1095   1
   5   1   4    1219     581   1
   6   1   4   19445    2577   1
  -7   2   4   12341    2034   1
  -6   2   4    2108     707   1
  -5   2   4    2010     238   1
  -4   2   4   23148     963   1
  -3   2   4   12925     994   1
  -2   2   4     116      94   1
  -1   2   4    6572     722   1
   0   2   4   73688    3271   1
   1   2   4     177      88   1
   2   2   4    3720     406   1
   3   2   4    1166     243   1
   4   2   4    1840     656   1
   5   2   4     818     283   1
   6   2   4   10290    1788   1
  -6   3   4    3528    1059   1
  -5   3   4     576     338   1
  -4   3   4   40556    2966   1
  -3   3   4     409     218   1
  -2   3   4   16798     736   1
  -1   3   4     422     160   1
   0   3   4   34775    1316   1
   1   3   4    4527     414   1
   2   3   4   25009    1582   1
   3   3   4     128      95   1
   4   3   4   38528    3778   1
   5   3   4     -58     173   1
   6   3   4    -283     291   1
  -6   4   4    7460    1568   1
  -5   4   4    1308     513   1
  -4   4   4   11172    1587   1
  -3   4   4     828     409   1
  -2   4   4   15641     764   1
  -1   4   4   29394    1445   1
   0   4   4   43878    1666   1
   1   4   4    4445     875   1
   2   4   4   12412     639   1
   3   4   4   63469    2369   1
   4   4   4     282     168   1
   5   4   4     -34     266   1
  -5   5   4   15114    2128   1
  -4   5   4    1324     578   1
  -3   5   4    4506     938   1
  -2   5   4    2151     316   1
  -1   5   4   15065     820   1
   0   5   4   39835    1727   1
   1   5   4   26788    1324   1
   2   5   4    6665     700   1
   3   5   4    3745     405   1
   4   5   4   24833    2173   1
   5   5   4     691     470   1
  -5   6   4    3442    1125   1
  -4   6   4   54863    3918   1
  -3   6   4    5239    1061   1
  -2   6   4    1492     739   1
  -1   6   4      52     129   1
   0   6   4   48186    2092   1
   1   6   4    5608     687   1
   2   6   4    9221     754   1
   3   6   4    5102     739   1
   4   6   4     580     764   1
  -3   7   4   12570    1695   1
  -2   7   4   13292    1128   1
  -1   7   4   23740    1178   1
   0   7   4    3312     715   1
   1   7   4    2424     481   1
   2   7   4    3410     612   1
  -1  -8   5    3214     843   1
   0  -8   5   21292    2025   1
   1  -8   5    2299     549   1
   2  -8   5    1575     870   1
  -3  -7   5    9271    1566   1
  -2  -7   5    5507    1193   1
   0  -7   5    4507     536   1
   1  -7   5    9218     681   1
   2  -7   5    2669    1158   1
   3  -7   5     299     204   1
   4  -7   5   14614    2439   1
  -4  -6   5    4360    1049   1
  -3  -6   5    4992    1096   1
  -2  -6   5    6012    1079   1
  -1  -6   5   17763    2429   1
   0  -6   5   11341     638   1
   1  -6   5   53781    2268   1
   2  -6   5   18312     861   1
   3  -6   5   20174    1651   1
   4  -6   5   11474    2038   1
   5  -6   5   10896    2190   1
  -5  -5   5     437     418   1
  -4  -5   5      93     245   1
  -3  -5   5   29645    2483   1
  -2  -5   5     782     385   1
  -1  -5   5     362     138   1
   0  -5   5   83612    2752   1
   1  -5   5   27429    1138   1
   2  -5   5     142     118   1
   3  -5   5    1420     588   1
   4  -5   5   28343    3137   1
   5  -5   5     496     485   1
   6  -5   5    1909    1002   1
  -6  -4   5    -179     375   1
  -5  -4   5    1376     470   1
  -4  -4   5   18289    1942   1
  -3  -4   5    1582     554   1
  -2  -4   5   12356    1313   1
  -1  -4   5     877     147   1
   0  -4   5   31527     899   1
   1  -4   5   25543     993   1
   2  -4   5    3762     391   1
   3  -4   5    4199     699   1
   4  -4   5    8249    1651   1
   5  -4   5   20849    2827   1
   6  -4   5    5540    1555   1
  -6  -3   5   10201    1561   1
  -5  -3   5    4194     351   1
  -4  -3   5   20668    1420   1
  -3  -3   5   10515     832   1
  -2  -3   5     233     190   1
  -1  -3   5    4928     684   1
   0  -3   5      23      44   1
   1  -3   5    3897     294   1
   2  -3   5    2000     222   1
   3  -3   5   42401    2129   1
   4  -3   5   44732    3708   1
   5  -3   5   23927    1374   1
   6  -3   5    5064    1455   1
  -6  -2   5    6059     683   1
  -5  -2   5    2400     539   1
  -4  -2   5   28305    1339   1
  -3  -2   5    2961     240   1
  -2  -2   5    5042     259   1
  -1  -2   5   10081     489   1
   0  -2   5   14007     524   1
   1  -2   5  144682    2113   1
   2  -2   5   78513    1822   1
   3  -2   5   13420    1122   1
   4  -2   5   23868    2669   1
   5  -2   5   20342    2644   1
   6  -2   5     255     601   1
  -7  -1   5     983     306   1
  -6  -1   5    7709     890   1
  -5  -1   5   16147     906   1
  -4  -1   5     105      89   1
  -3  -1   5   57317    1795   1
  -2  -1   5     324     101   1
  -1  -1   5   19807     617   1
   0  -1   5   38487     883   1
   1  -1   5     879     189   1
   2  -1   5   42174    1501   1
   3  -1   5   31939    2444   1
   4  -1   5   48836    3679   1
   5  -1   5    3675    1156   1
   6  -1   5    5146    1490   1
   7  -1   5    5527    1637   1
   7   0  -5      94     282  -2
  -7   0   5      94     282   1
   6   0  -5      47     115  -2
  -6   0   5      47     115   1
   5   0  -5   33366    1917  -2
  -5   0   5   33366    1917   1
   4   0  -5   98511   12286  -2
  -4   0   5   98511   12286   1
   3   0  -5   46115    1728  -2
  -3   0   5   46115    1728   1
   2   0  -5    7592     390  -2
  -2   0   5    7592     390   1
   1   0  -5   20287     542  -2
  -1   0   5   20287     542   1
   0   0  -5  662387    7892  -2
   0   0   5  662387    7892   1
  -1   0  -5  125970    3824  -2
   1   0   5  125970    3824   1
  -3   0  -5   31000    1553  -2
   3   0   5   31000    1553   1
  -4   0  -5     111     172  -2
   4   0   5     111     172   1
  -5   0  -5    3067     990  -2
   5   0   5    3067     990   1
  -6   0  -5     498     485  -2
   6   0   5     498     485   1
  -7   0  -5    9851    2080  -2
   7   0   5    9851    2080   1
  -7   1   5    1506     699   1
  -6   1   5    3017     468   1
  -5   1   5     417     191   1
  -4   1   5    6260     690   1
  -3   1   5   70099    1985   1
  -2   1   5   44869    1046   1
  -1   1   5   66285    1636   1
   0   1   5   31062    1447   1
   1   1   5   31342    1591   1
   2   1   5     626     296   1
   3   1   5   25010    1318   1
   4   1   5    5219     687   1
   5   1   5    8227    1370   1
   6   1   5   12223    2107   1
  -6   2   5     168     297   1
  -5   2   5   19085     787   1
  -4   2   5   20178     757   1
  -3   2   5     705     138   1
  -2   2   5   13948     629   1
  -1   2   5  151677    3203   1
   0   2   5   67514    1847   1
   1   2   5   15010    1075   1
   2   2   5     303     199   1
   3   2   5    5090     569   1
   4   2   5   11944     984   1
   5   2   5    7388    1371   1
   6   2   5     194     605   1
  -6   3   5   13970    1989   1
  -5   3   5     595     384   1
  -4   3   5     816     384   1
  -3   3   5     -33     136   1
  -2   3   5    5129     339   1
  -1   3   5   60510    1633   1
   0   3   5  175735    5231   1
   1   3   5    1159     234   1
   2   3   5    2692     371   1
   3   3   5    5821     927   1
   4   3   5   59191    3553   1
   5   3   5    6914    1262   1
   6   3   5     -42     320   1
  -6   4   5    5726    1319   1
  -5   4   5    7509    1409   1
  -4   4   5    8323    1297   1
  -3   4   5    -106     241   1
  -2   4   5    4873     805   1
  -1   4   5    4774     458   1
   0   4   5    1341     305   1
   1   4   5   83849    2341   1
   2   4   5   20165     873   1
   3   4   5   31194    2310   1
   4   4   5    1464     554   1
   5   4   5   10829    1621   1
  -5   5   5     249     297   1
  -4   5   5   12284    1714   1
  -3   5   5   28889    2403   1
  -2   5   5    5735     571   1
  -1   5   5    4747     581   1
   0   5   5   32687    2084   1
   1   5   5    5770     697   1
   2   5   5     729     221   1
   3   5   5    9482    1230   1
   4   5   5   21792    2139   1
  -4   6   5   17907    2183   1
  -3   6   5    2211     709   1
  -2   6   5   15461    2027   1
  -1   6   5    5525     544   1
   0   6   5   10304     964   1
   1   6   5    7712    1018   1
   2   6   5    7646    1074   1
   3   6   5     634     354   1
  -3   7   5    9720    1503   1
  -2   7   5    1419     380   1
  -1   7   5    6801     826   1
   0   7   5    4820     680   1
   1   7   5     462     269   1
   2   7   5    4144     737   1
  -1  -8   6    4704    1020   1
   0  -8   6     309     377   1
   1  -8   6   10261    1298   1
   2  -8   6    4574    2805   1
  -3  -7   6    9851    1653   1
  -2  -7   6    5239    1116   1
  -1  -7   6    3302     790   1
   0  -7   6   34744    4710   1
   1  -7   6    1164     477   1
   2  -7   6   22140    1405   1
   3  -7   6   11581    1121   1
   4  -7   6   10114    2033   1
  -4  -6   6    -110     193   1
  -3  -6   6   18976    2094   1
  -2  -6   6    3367     796   1
  -1  -6   6     970     466   1
   0  -6   6    6068     455   1
   1  -6   6   73831    2024   1
   2  -6   6     392     143   1
   3  -6   6    3132     402   1
   4  -6   6    2334     926   1
   5  -6   6    9474    2082   1
  -5  -5   6    -212     212   1
  -4  -5   6    1611     601   1
  -3  -5   6    7081    1260   1
  -2  -5   6   13930    1526   1
  -1  -5   6   20282    2225   1
   0  -5   6   39895    1251   1
   1  -5   6    9896     576   1
   2  -5   6    9451     584   1
   3  -5   6    2406     466   1
   4  -5   6    4147     613   1
   5  -5   6   10184    2115   1
  -5  -4   6   14025    1819   1
  -4  -4   6     830     410   1
  -3  -4   6     822     337   1
  -2  -4   6    4932     826   1
  -1  -4   6    1540     233   1
   0  -4   6    1446     185   1
   1  -4   6   60720    1426   1
   2  -4   6    1853     236   1
   3  -4   6    1540     388   1
   4  -4   6    4884     624   1
   5  -4   6    1916     434   1
   6  -4   6   18196    2940   1
  -6  -3   6   23816    2432   1
  -5  -3   6     884     439   1
  -4  -3   6     342      74   1
  -3  -3   6   15083    1035   1
  -2  -3   6   17010    1159   1
  -1  -3   6    4958     302   1
   0  -3   6    1089     179   1
   1  -3   6   72374    1683   1
   2  -3   6   12026     707   1
   3  -3   6   31623    1849   1
   4  -3   6   12640     974   1
   5  -3   6   43610    1992   1
   6  -3   6      54     390   1
  -6  -2   6    2969     475   1
  -5  -2   6   48263    2576   1
  -4  -2   6   12385     605   1
  -3  -2   6     740     173   1
  -2  -2   6    7735     352   1
  -1  -2   6    1492     158   1
   0  -2   6   15042     578   1
   1  -2   6   58051    1208   1
   2  -2   6   73200    2395   1
   3  -2   6   19643    1144   1
   4  -2   6   58445    2235   1
   5  -2   6   11087     985   1
   6  -2   6    1589     943   1
  -6  -1   6     493     238   1
  -5  -1   6       0     148   1
  -4  -1   6   13662    1051   1
  -3  -1   6   30694    1036   1
  -2  -1   6    2147     203   1
  -1  -1   6    1536     154   1
   0  -1   6   11682     495   1
   1  -1   6    1068     211   1
   2  -1   6   23256    1212   1
   3  -1   6    2672     470   1
   4  -1   6   11851    1678   1
   5  -1   6   16383    2435   1
   6  -1   6    1795    1002   1
   6   0  -6    1054     270  -2
  -6   0   6    1054     270   1
   5   0  -6   18186    1258  -2
  -5   0   6   18186    1258   1
   4   0  -6    4938     384  -2
  -4   0   6    4938     384   1
   3   0  -6   98030    2461  -2
  -3   0   6   98030    2461   1
   2   0  -6   93615    2696  -2
  -2   0   6   93615    2696   1
   1   0  -6  129041    4497  -2
  -1   0   6  129041    4497   1
   0   0  -6  162576    3588  -2
   0   0   6  162576    3588   1
  -1   0  -6  119075    3839  -2
   1   0   6  119075    3839   1
  -2   0  -6   20121    1665  -2
   2   0   6   20121    1665   1
  -3   0  -6    3624     545  -2
   3   0   6    3624     545   1
  -4   0  -6    3770     938  -2
   4   0   6    3770     938   1
  -5   0  -6    4717     995  -2
   5   0   6    4717     995   1
  -6   0  -6    1342     915  -2
   6   0   6    1342     915   1
  -6   1   6     423     249   1
  -5   1   6    4170     502   1
  -4   1   6   45270    1979   1
  -3   1   6   63889    1298   1
  -2   1   6     488     167   1
  -1   1   6  149342    3249   1
   0   1   6  165376    4544   1
   1   1   6   25223    1500   1
   2   1   6    2903     414   1
   3   1   6     192     139   1
   4   1   6     595     410   1
   5   1   6   22520    2605   1
   6   1   6     499     360   1
  -6   2   6     360     368   1
  -5   2   6   53654    1534   1
  -4   2   6     151     274   1
  -3   2   6   10941     695   1
  -2   2   6    7795     456   1
  -1   2   6   10588     826   1
   0   2   6   14250     805   1
   1   2   6   47491    2188   1
   2   2   6      48     112   1
   3   2   6     226     299   1
   4   2   6    7221    1268   1
   5   2   6      77     174   1
   6   2   6    2999    1082   1
  -6   3   6   19802    2356   1
  -5   3   6    1856     681   1
  -4   3   6   31616    2507   1
  -3   3   6     745     331   1
  -2   3   6    6726     429   1
  -1   3   6   47890    4072   1
   0   3   6   25032    1184   1
   1   3   6   22172     886   1
   2   3   6    6335     605   1
   3   3   6   20107    1221   1
   4   3   6   15448    1841   1
   5   3   6   20899    2380   1
  -6   4   6    1251     714   1
  -5   4   6    8633    1503   1
  -4   4   6   13510    1704   1
  -3   4   6   11344     376   1
  -2   4   6    1167     210   1
  -1   4   6    -101     241   1
   0   4   6   44755    1801   1
   1   4   6   67450    3419   1
   2   4   6    2271     308   1
   3   4   6     358     262   1
   4   4   6   20831    2128   1
   5   4   6   12204    1824   1
  -5   5   6    -271     314   1
  -4   5   6     288     487   1
  -3   5   6      64     329   1
  -2   5   6    6848     819   1
  -1   5   6   48017    2810   1
   0   5   6    7511    1028   1
   1   5   6    1020     378   1
   2   5   6    9569    1196   1
   3   5   6   11488    1435   1
   4   5   6    1573     575   1
  -4   6   6     562     456   1
  -3   6   6    4319     927   1
  -2   6   6   12545     805   1
  -1   6   6    2516     492   1
   0   6   6    9027    1190   1
   1   6   6    7612    1062   1
   2   6   6    3372     744   1
   3   6   6    6675    1143   1
  -2   7   6    3766     954   1
  -1   7   6    5986     782   1
   0   7   6    4279     697   1
   1   7   6    4884     783   1
   0  -8   7     203     310   1
   1  -8   7    3931     821   1
  -3  -7   7    3237     939   1
  -2  -7   7   11479    1570   1
  -1  -7   7    4430     917   1
   1  -7   7     582     257   1
   2  -7   7   12755    1076   1
   3  -7   7     614     285   1
  -4  -6   7     398     285   1
  -3  -6   7   12093    1651   1
  -2  -6   7    -143     251   1
  -1  -6   7    6896     532   1
   0  -6   7   12500     647   1
   1  -6   7   40721    1461   1
   2  -6   7     -24     185   1
   3  -6   7    4032     594   1
   4  -6   7     833     748   1
  -5  -5   7    -220     233   1
  -4  -5   7    3645     955   1
  -3  -5   7     113     275   1
  -2  -5   7   14202    1560   1
  -1  -5   7   14104    1091   1
   0  -5   7     535     180   1
   1  -5   7    3250     335   1
   2  -5   7   12920     709   1
   3  -5   7    3218     549   1
   4  -5   7     308     232   1
   5  -5   7    4074    1421   1
  -5  -4   7   25949    2503   1
  -4  -4   7    8737    1328   1
  -3  -4   7    2116     644   1
  -2  -4   7     732     329   1
  -1  -4   7    4543     275   1
   0  -4   7   34355     973   1
   1  -4   7   17708     741   1
   2  -4   7   26614     972   1
   3  -4   7    1273     316   1
   4  -4   7    3835     588   1
   5  -4   7     355     447   1
   6  -4   7   10948    2317   1
  -6  -3   7     337     436   1
  -5  -3   7   11429    1551   1
  -4  -3   7   27180     939   1
  -3  -3   7     653     114   1
  -2  -3   7    9732     391   1
  -1  -3   7    7019     349   1
   0  -3   7     191      58   1
   1  -3   7   55325    1275   1
   2  -3   7    4158     418   1
   3  -3   7     951     287   1
   4  -3   7    -179     238   1
   5  -3   7   34655    3829   1
   6  -3   7    1535     888   1
  -6  -2   7    5895     637   1
  -5  -2   7   25219    1281   1
  -4  -2   7    2643     456   1
  -3  -2   7    2436     235   1
  -2  -2   7      44      41   1
  -1  -2   7   22624     762   1
   0  -2   7   18957     699   1
   1  -2   7    5796     550   1
   2  -2   7   53233    1542   1
   3  -2   7   11367     733   1
   4  -2   7   22732    1385   1
   5  -2   7    6445    1636   1
   6  -2   7    9750    2140   1
  -6  -1   7    3147     494   1
  -5  -1   7     784     239   1
  -4  -1   7   16344     836   1
  -3  -1   7   10320     790   1
  -2  -1   7   20377     665   1
  -1  -1   7   90071    2033   1
   0  -1   7     182      71   1
   1  -1   7   12637     780   1
   2  -1   7   12371     688   1
   3  -1   7    9880    1083   1
   4  -1   7    4021    1031   1
   5  -1   7   25807    3122   1
   6  -1   7     517     788   1
   6   0  -7     -22     181  -2
  -6   0   7     -22     181   1
   5   0  -7    4311     531  -2
  -5   0   7    4311     531   1
   4   0  -7   30313    1118  -2
  -4   0   7   30313    1118   1
   3   0  -7   72446    1776  -2
  -3   0   7   72446    1776   1
   2   0  -7   57556    1358  -2
  -2   0   7   57556    1358   1
   1   0  -7   52723    1101  -2
  -1   0   7   52723    1101   1
   0   0  -7   80953    1652  -2
   0   0   7   80953    1652   1
  -1   0  -7   30032    1224  -2
   1   0   7   30032    1224   1
  -2   0  -7   17123    1599  -2
   2   0   7   17123    1599   1
  -3   0  -7   26849    3618  -2
   3   0   7   26849    3618   1
  -4   0  -7    5001    1143  -2
   4   0   7    5001    1143   1
  -5   0  -7    7460    1564  -2
   5   0   7    7460    1564   1
  -6   0  -7    1541     942  -2
   6   0   7    1541     942   1
  -6   1   7    1273     572   1
  -5   1   7   27454    3714   1
  -4   1   7   61499    2393   1
  -3   1   7    3410     286   1
  -2   1   7   13518     573   1
  -1   1   7  111491    2584   1
   0   1   7    4574     481   1
   1   1   7    6112     762   1
   2   1   7    1955     338   1
   3   1   7    8657     811   1
   4   1   7   16180    2000   1
   5   1   7   14437    2101   1
   6   1   7    1841     819   1
  -6   2   7    2006     640   1
  -5   2   7   10554    1451   1
  -4   2   7   90572    7473   1
  -3   2   7   62364    2299   1
  -2   2   7     952     153   1
  -1   2   7    7712     487   1
   0   2   7   29600    1247   1
   1   2   7   15571    2607   1
   2   2   7    2313     385   1
   3   2   7    6462    1040   1
   4   2   7    6172    1163   1
   5   2   7    1482     715   1
   6   2   7    8382    1238   1
  -6   3   7    3323     914   1
  -5   3   7     258     300   1
  -4   3   7       4     204   1
  -3   3   7   55332    1597   1
  -2   3   7    4294     357   1
  -1   3   7   11002     887   1
   0   3   7    1278     295   1
   1   3   7   43254    1343   1
   2   3   7   22834    1252   1
   3   3   7     249     217   1
   4   3   7    4685    1027   1
   5   3   7   21969    2522   1
  -5   4   7   19351    2217   1
  -4   4   7    5083    1031   1
  -3   4   7     156      78   1
  -2   4   7    7599     508   1
  -1   4   7   11265    1272   1
   0   4   7   60811    2998   1
   1   4   7   22292    1701   1
   2   4   7    4495     799   1
   3   4   7   16789    1744   1
   4   4   7     617     473   1
   5   4   7     523     445   1
  -5   5   7    9283    1582   1
  -4   5   7    1369     654   1
  -3   5   7    1396     561   1
  -2   5   7    2907     335   1
  -1   5   7   29621    2212   1
   0   5   7   18086    1650   1
   1   5   7   28589    2072   1
   2   5   7   18400    1764   1
   3   5   7    5257    1007   1
   4   5   7    3203     921   1
  -4   6   7   11087    1671   1
  -3   6   7     566     296   1
  -2   6   7    5550     750   1
  -1   6   7     762     350   1
   0   6   7    5087     946   1
   1   6   7    4772     894   1
   2   6   7     800     402   1
   3   6   7   13606    1704   1
  -2   7   7     712     426   1
  -1   7   7   17579    1344   1
   0   7   7    4456     723   1
  -2  -7   8    7221    1277   1
  -1  -7   8    2647     746   1
   0  -7   8   12774    1490   1
   1  -7   8    3208     541   1
   2  -7   8     718     318   1
   3  -7   8    3263     885   1
  -4  -6   8    5063    1152   1
  -3  -6   8     925     500   1
  -2  -6   8    1114     481   1
  -1  -6   8    9863     653   1
   0  -6   8   10417     585   1
   1  -6   8    -168     225   1
   2  -6   8    3545     560   1
   3  -6   8    7538    1661   1
   4  -6   8     769     659   1
  -4  -5   8    1811     697   1
  -3  -5   8   10673    1438   1
  -2  -5   8   14110    1548   1
  -1  -5   8    9089     927   1
   0  -5   8    3865     356   1
   1  -5   8    5178     480   1
   2  -5   8   10609     767   1
   3  -5   8    1114     668   1
   4  -5   8    3827    1168   1
   5  -5   8     289     622   1
  -5  -4   8    2526     801   1
  -4  -4   8   42829    3011   1
  -3  -4   8    4724     917   1
  -2  -4   8      88      58   1
  -1  -4   8     171      78   1
   0  -4   8   39132    1196   1
   1  -4   8    1122     199   1
   2  -4   8    6010     600   1
   3  -4   8      35     157   1
   4  -4   8    1383     799   1
   5  -4   8    1431     849   1
  -6  -3   8    1133     644   1
  -5  -3   8    5000    1019   1
  -4  -3   8   18230     920   1
  -3  -3   8    8250     422   1
  -2  -3   8      68      87   1
  -1  -3   8    6691     373   1
   0  -3   8    1890     211   1
   1  -3   8   28178     912   1
   2  -3   8     231     131   1
   3  -3   8    5632     692   1
   4  -3   8    6027    1510   1
   5  -3   8    5561    1718   1
   6  -3   8    2259    1167   1
  -6  -2   8    3842     901   1
  -5  -2   8   10045    1320   1
  -4  -2   8   19881    1042   1
  -3  -2   8    1547     199   1
  -2  -2   8    2070     213   1
  -1  -2   8    2490     221   1
   0  -2   8   29531     954   1
   1  -2   8    9911     507   1
   2  -2   8   70656    2372   1
   3  -2   8   26881    1727   1
   4  -2   8     777     499   1
   5  -2   8     389     457   1
   6  -2   8    6247    1818   1
  -6  -1   8    5941     703   1
  -5  -1   8   13548    1136   1
  -4  -1   8    8623     553   1
  -3  -1   8    5358     467   1
  -2  -1   8    5833     364   1
  -1  -1   8    4346     298   1
   0  -1   8  187283    3864   1
   1  -1   8   13342     837   1
   2  -1   8     168     150   1
   3  -1   8     324     213   1
   4  -1   8   38565    3294   1
   5  -1   8   11651    1459   1
   6  -1   8     419     401   1
   6   0  -8    4110     547  -2
  -6   0   8    4110     547   1
   5   0  -8   16594    1057  -2
  -5   0   8   16594    1057   1
   4   0  -8  194184    4556  -2
  -4   0   8  194184    4556   1
   3   0  -8   11983     659  -2
  -3   0   8   11983     659   1
   2   0  -8    1802     230  -2
  -2   0   8    1802     230   1
   1   0  -8   23193     826  -2
  -1   0   8   23193     826   1
   0   0  -8   69204    1587  -2
   0   0   8   69204    1587   1
  -1   0  -8   19648     853  -2
   1   0   8   19648     853   1
  -2   0  -8     443     201  -2
   2   0   8     443     201   1
  -3   0  -8   24280    2256  -2
   3   0   8   24280    2256   1
  -4   0  -8    1310     640  -2
   4   0   8    1310     640   1
  -5   0  -8   13602    2128  -2
   5   0   8   13602    2128   1
  -6   0  -8    3570    1342  -2
   6   0   8    3570    1342   1
  -6   1   8   14353    1704   1
  -5   1   8    4412     500   1
  -4   1   8   24086    1081   1
  -3   1   8  108241    1956   1
  -2   1   8   45823    1341   1
  -1   1   8   58263    1486   1
   0   1   8   27459    1027   1
   1   1   8     484     142   1
   2   1   8     327     169   1
   3   1   8     190     288   1
   4   1   8   33987    3003   1
   5   1   8    2025     811   1
   6   1   8    9399    1351   1
  -6   2   8    -396     396   1
  -5   2   8    2982     770   1
  -4   2   8   14543    1333   1
  -3   2   8     175     193   1
  -2   2   8    3196     334   1
  -1   2   8     106      77   1
   0   2   8   21532    1106   1
   1   2   8     135     137   1
   2   2   8    5939     902   1
   3   2   8    3481     819   1
   4   2   8   21996    2310   1
   5   2   8   28294    2930   1
  -6   3   8    3967    1018   1
  -5   3   8    1782     644   1
  -4   3   8    5564    1699   1
  -3   3   8    6906     538   1
  -2   3   8    1307     206   1
  -1   3   8    1656     290   1
   0   3   8   28114    1899   1
   1   3   8   24931    1792   1
   2   3   8   14858    1488   1
   3   3   8    5681    1049   1
   4   3   8   11819    1720   1
   5   3   8    -268     268   1
  -5   4   8     606     416   1
  -4   4   8    4656     982   1
  -3   4   8    3796     385   1
  -2   4   8   21613     922   1
  -1   4   8   16501    1551   1
   0   4   8    3023     638   1
   1   4   8   21702    1778   1
   2   4   8   30802    2284   1
   3   4   8   27797    2382   1
   4   4   8    4534    1104   1
  -4   5   8     881     456   1
  -3   5   8    4548     922   1
  -2   5   8     711     423   1
  -1   5   8    6098    1010   1
   0   5   8   26782    2111   1
   1   5   8    1961     580   1
   2   5   8     189     200   1
   3   5   8     547     337   1
  -3   6   8     147     229   1
  -2   6   8    -185     321   1
  -1   6   8    2842     746   1
   0   6   8   12445    1518   1
   1   6   8    4400     908   1
   2   6   8    1434     536   1
  -2  -7   9    4271     994   1
  -1  -7   9     554     322   1
   0  -7   9    6718    1100   1
   1  -7   9    1323     410   1
   2  -7   9     551     247   1
   3  -7   9    1778     993   1
  -3  -6   9    1046     496   1
  -2  -6   9    1420     536   1
  -1  -6   9   11958     805   1
   0  -6   9    6396     705   1
   1  -6   9   12929     800   1
   2  -6   9     156     133   1
   3  -6   9     973     703   1
   4  -6   9    3167    1099   1
  -4  -5   9    3085     833   1
  -3  -5   9   28532    2419   1
  -2  -5   9    4403     879   1
  -1  -5   9     195     126   1
   0  -5   9   29542    1070   1
   1  -5   9    6082     537   1
   2  -5   9     787     430   1
   3  -5   9     964     716   1
   4  -5   9    2499    1133   1
   5  -5   9   10489    2363   1
  -5  -4   9     182     259   1
  -4  -4   9   15481    1759   1
  -3  -4   9    1531     457   1
  -2  -4   9   18525     905   1
  -1  -4   9   10098     517   1
   0  -4   9   18007     777   1
   1  -4   9    4716     440   1
   2  -4   9    6421     591   1
   3  -4   9     828     600   1
   4  -4   9    1245     765   1
   5  -4   9     461     682   1
  -5  -3   9    5607    1079   1
  -4  -3   9    6508     513   1
  -3  -3   9   23741     909   1
  -2  -3   9      37      65   1
  -1  -3   9    7463     464   1
   0  -3   9   36362    1022   1
   1  -3   9    3731     331   1
   2  -3   9     167      99   1
   3  -3   9   16408    2052   1
   4  -3   9    9974    2047   1
   5  -3   9    2387    1066   1
  -6  -2   9     485     371   1
  -5  -2   9    5705     618   1
  -4  -2   9   39309    1558   1
  -3  -2   9     913     176   1
  -2  -2   9    7265     414   1
  -1  -2   9    2751     251   1
   0  -2   9    5963     389   1
   1  -2   9   85410    2042   1
   2  -2   9   37827    1373   1
   3  -2   9    8079    1435   1
   4  -2   9   11996    1896   1
   5  -2   9    2275    1152   1
   6  -2   9    3531    1426   1
  -6  -1   9   10556     929   1
  -5  -1   9    1730     360   1
  -4  -1   9   32670    2122   1
  -3  -1   9   40833    1418   1
  -2  -1   9     388     143   1
  -1  -1   9    1155     204   1
   0  -1   9   75831    1860   1
   1  -1   9     266     140   1
   2  -1   9    7242     572   1
   3  -1   9   21208    2230   1
   4  -1   9   50139    3861   1
   5  -1   9     866     762   1
   6  -1   9     819    1077   1
   6   0  -9     689     283  -2
  -6   0   9     689     283   1
   5   0  -9   19657    1169  -2
  -5   0   9   19657    1169   1
   4   0  -9    6952     495  -2
  -4   0   9    6952     495   1
   3   0  -9   90601    2491  -2
  -3   0   9   90601    2491   1
   2   0  -9    1587     208  -2
  -2   0   9    1587     208   1
   1   0  -9    8504     533  -2
  -1   0   9    8504     533   1
   0   0  -9   39511    1216  -2
   0   0   9   39511    1216   1
  -1   0  -9   87757    2233  -2
   1   0   9   87757    2233   1
  -2   0  -9    2983     362  -2
   2   0   9    2983     362   1
  -3   0  -9    1971     648  -2
   3   0   9    1971     648   1
  -4   0  -9   29615    2927  -2
   4   0   9   29615    2927   1
  -5   0  -9   39944    3735  -2
   5   0   9   39944    3735   1
  -6   0  -9    1121     538  -2
   6   0   9    1121     538   1
  -6   1   9    7498    1234   1
  -5   1   9     -22     113   1
  -4   1   9    3321     359   1
  -3   1   9    7969     518   1
  -2   1   9    6071     516   1
  -1   1   9   31981    1095   1
   0   1   9   31525    1117   1
   1   1   9     849     183   1
   2   1   9    1039     485   1
   3   1   9     -22     206   1
   4   1   9    1832     800   1
   5   1   9   19939    2648   1
  -6   2   9    7732    1337   1
  -5   2   9    8160    1282   1
  -4   2   9    9584     798   1
  -3   2   9     979     202   1
  -2   2   9   18650     990   1
  -1   2   9   17895     978   1
   0   2   9     452     161   1
   1   2   9   41423    2397   1
   2   2   9    6890    1036   1
   3   2   9     -10     195   1
   4   2   9   23398    2471   1
   5   2   9    2022     872   1
  -5   3   9    1392     616   1
  -4   3   9     289     279   1
  -3   3   9    4189     470   1
  -2   3   9     993     232   1
  -1   3   9   18947    1863   1
   0   3   9   23716    1794   1
   1   3   9   21969    1761   1
   2   3   9   19098    1772   1
   3   3   9   15207    1768   1
   4   3   9    6559    1316   1
   5   3   9   10908    1845   1
  -5   4   9     756     460   1
  -4   4   9    2059     685   1
  -3   4   9    2660     777   1
  -2   4   9   15405     937   1
  -1   4   9    6657    1028   1
   0   4   9     347     261   1
   1   4   9    6517    1002   1
   2   4   9     443     310   1
   3   4   9    1048     441   1
   4   4   9    9543    1610   1
  -4   5   9    5524     828   1
  -3   5   9    3505     619   1
  -2   5   9     386     341   1
  -1   5   9    6047    1024   1
   0   5   9   44386    2879   1
   1   5   9    1120     403   1
   2   5   9    -162     384   1
   3   5   9    2876     862   1
  -2   6   9    2198     764   1
  -1   6   9    1124     466   1
   0   6   9    1256     491   1
   1   6   9   10637    1451   1
  -1  -7  10     431     382   1
   0  -7  10    7350    1166   1
   1  -7  10    2415     545   1
   2  -7  10    6176     799   1
  -3  -6  10   21579    2238   1
  -2  -6  10    4664     956   1
  -1  -6  10    4890     952   1
   0  -6  10     184     176   1
   1  -6  10   27246    1621   1
   2  -6  10     728     279   1
   3  -6  10      17     339   1
  -4  -5  10    2622     719   1
  -3  -5  10    7134    1228   1
  -2  -5  10    5168     978   1
  -1  -5  10   10843     896   1
   0  -5  10   41321    1660   1
   1  -5  10     941     368   1
   2  -5  10     293     531   1
   3  -5  10     601     720   1
   4  -5  10    1675    1008   1
  -5  -4  10    7563    1319   1
  -4  -4  10    2157     659   1
  -3  -4  10   12644    1526   1
  -2  -4  10   22779     884   1
  -1  -4  10    1098     189   1
   0  -4  10    1430     229   1
   1  -4  10   31533    1228   1
   2  -4  10    1906     775   1
   3  -4  10     529     605   1
   4  -4  10    2725    1121   1
   5  -4  10     877     753   1
  -5  -3  10    2952     766   1
  -4  -3  10    4702     461   1
  -3  -3  10   11199     592   1
  -2  -3  10    1554     240   1
  -1  -3  10   23179     896   1
   0  -3  10    1206     208   1
   1  -3  10   16928     868   1
   2  -3  10    3325     922   1
   3  -3  10   19502    2313   1
   4  -3  10    2039    1073   1
   5  -3  10   19193    3105   1
  -5  -2  10    9644     805   1
  -4  -2  10     508     195   1
  -3  -2  10   16748    1276   1
  -2  -2  10     185     121   1
  -1  -2  10    6465     459   1
   0  -2  10   17746     815   1
   1  -2  10   35752    1579   1
   2  -2  10     542     422   1
   3  -2  10    1655     690   1
   4  -2  10   61112    4496   1
   5  -2  10    5634    1604   1
  -5  -1  10     524     216   1
  -4  -1  10      98      99   1
  -3  -1  10    6949     531   1
  -2  -1  10   22173     802   1
  -1  -1  10     852     157   1
   0  -1  10   13475     715   1
   1  -1  10   17091    1060   1
   2  -1  10   38650    2817   1
   3  -1  10   14001    1868   1
   4  -1  10    1320     621   1
   5  -1  10   23047    2928   1
   6   0 -10    2814     719  -2
  -6   0  10    2814     719   1
   5   0 -10   13505     985  -2
  -5   0  10   13505     985   1
   4   0 -10    1174     233  -2
  -4   0  10    1174     233   1
   3   0 -10   32086    1196  -2
  -3   0  10   32086    1196   1
   2   0 -10    4811     374  -2
  -2   0  10    4811     374   1
   1   0 -10    2944     338  -2
  -1   0  10    2944     338   1
   0   0 -10     676     169  -2
   0   0  10     676     169   1
  -1   0 -10  136995    3482  -2
   1   0  10  136995    3482   1
  -2   0 -10    1059     479  -2
   2   0  10    1059     479   1
  -3   0 -10   12977    1718  -2
   3   0  10   12977    1718   1
  -4   0 -10    8277    1568  -2
   4   0  10    8277    1568   1
  -5   0 -10     530     365  -2
   5   0  10     530     365   1
  -5   1  10    7381     692   1
  -4   1  10   18103     795   1
  -3   1  10   19408    1133   1
  -2   1  10     -37      91   1
  -1   1  10   12257     819   1
   0   1  10   10856     971   1
   1   1  10   32491    2170   1
   2   1  10   36980    2577   1
   3   1  10     244     212   1
   4   1  10    2860     897   1
   5   1  10   17772    2469   1
  -5   2  10   18687    1984   1
  -4   2  10     598     269   1
  -3   2  10    3030     509   1
  -2   2  10   12988     915   1
  -1   2  10    4613     513   1
   0   2  10     341     514   1
   1   2  10    4451     808   1
   2   2  10   35203    2525   1
   3   2  10   17586    1972   1
   4   2  10    8348    1484   1
   5   2  10     760     546   1
  -5   3  10    6687    1232   1
  -4   3  10    7179     860   1
  -3   3  10     118      78   1
  -2   3  10     256     131   1
  -1   3  10   40791    1787   1
   0   3  10    9923    1218   1
   1   3  10    7669    1079   1
   2   3  10    1987     587   1
   3   3  10     258     195   1
   4   3  10    -322     382   1
  -4   4  10    4055     700   1
  -3   4  10    6236    1173   1
  -2   4  10     601     221   1
  -1   4  10    2199     437   1
   0   4  10   21182    1885   1
   1   4  10   17964    1755   1
   2   4  10      85     305   1
   3   4  10      42     245   1
  -3   5  10     304     318   1
  -2   5  10    2989     796   1
  -1   5  10   10841    1465   1
   0   5  10    5820    1018   1
   1   5  10     984     428   1
   2   5  10    3253     816   1
  -1   6  10     889     462   1
   0   6  10    1041     469   1
   0  -7  11    2081     659   1
   1  -7  11    3414     771   1
  -2  -6  11     229     339   1
  -1  -6  11    1321     521   1
   0  -6  11    1677     482   1
   1  -6  11   22066    2092   1
   2  -6  11    2194     493   1
   3  -6  11    3385    1231   1
  -3  -5  11     959     487   1
  -2  -5  11   19824    1955   1
  -1  -5  11   17749    1198   1
   0  -5  11    2114     305   1
   1  -5  11    4890     508   1
   2  -5  11    6040     796   1
   3  -5  11     385     537   1
   4  -5  11     225     377   1
  -4  -4  11   19293    2064   1
  -3  -4  11    9717    1376   1
  -2  -4  11     393     252   1
  -1  -4  11    1139     275   1
   0  -4  11   13510     748   1
   1  -4  11    4666     476   1
   2  -4  11    5070    1116   1
   3  -4  11     771     471   1
   4  -4  11    4053    1386   1
  -5  -3  11   12563    1648   1
  -4  -3  11     166     162   1
  -3  -3  11   10516     780   1
  -2  -3  11    6117     582   1
  -1  -3  11   14346     737   1
   0  -3  11     337     126   1
   1  -3  11   26986    1153   1
   2  -3  11    1180     605   1
   3  -3  11     203     320   1
   4  -3  11    2979     741   1
   5  -3  11   25513    3688   1
  -5  -2  11    3809     509   1
  -4  -2  11    3024     435   1
  -3  -2  11    1179     221   1
  -2  -2  11    7213     513   1
  -1  -2  11    8171     690   1
   0  -2  11   37078    1273   1
   1  -2  11   11521     916   1
   2  -2  11   18343    2048   1
   3  -2  11   14932    2050   1
   4  -2  11   11086    1942   1
   5  -2  11    4812    1916   1
  -5  -1  11     527     258   1
  -4  -1  11    2052     376   1
  -3  -1  11    1648     286   1
  -2  -1  11    3243     359   1
  -1  -1  11    6229     497   1
   0  -1  11   11471     851   1
   1  -1  11   76779    3760   1
   2  -1  11   48089    3261   1
   3  -1  11    1786     723   1
   4  -1  11    2927     964   1
   5  -1  11    8871    1856   1
   5   0 -11    3760     546  -2
  -5   0  11    3760     546   1
   4   0 -11    2922     461  -2
  -4   0  11    2922     461   1
   3   0 -11   20048    1151  -2
  -3   0  11   20048    1151   1
   2   0 -11    1573     247  -2
  -2   0  11    1573     247   1
   1   0 -11   17135    1434  -2
  -1   0  11   17135    1434   1
   0   0 -11    2459     610  -2
   0   0  11    2459     610   1
  -1   0 -11    4953     855  -2
   1   0  11    4953     855   1
  -2   0 -11   58443    3512  -2
   2   0  11   58443    3512   1
  -3   0 -11   56264    3852  -2
   3   0  11   56264    3852   1
  -4   0 -11     343     403  -2
   4   0  11     343     403   1
  -5   0 -11    6703    1590  -2
   5   0  11    6703    1590   1
  -5   1  11   20796    1255   1
  -4   1  11   17821    2564   1
  -3   1  11     229     151   1
  -2   1  11    8442     728   1
  -1   1  11   21490    1393   1
   0   1  11     978     439   1
   1   1  11    1091     435   1
   2   1  11   14867    1661   1
   3   1  11    5279    1134   1
   4   1  11    8634    1608   1
   5   1  11    6349    1524   1
  -5   2  11    8464     981   1
  -4   2  11   31929    2659   1
  -3   2  11   10301    1653   1
  -2   2  11      62     158   1
  -1   2  11     259     248   1
   0   2  11    5362     884   1
   1   2  11     134     115   1
   2   2  11    3270     798   1
   3   2  11    1938     646   1
   4   2  11    3296     997   1
  -4   3  11    2416     752   1
  -3   3  11    5483    1097   1
  -2   3  11      66     171   1
  -1   3  11    3629     783   1
   0   3  11    1907     558   1
   1   3  11   10376    1311   1
   2   3  11     153     295   1
   3   3  11    2030     719   1
   4   3  11    4747    1135   1
  -4   4  11   17188    2119   1
  -3   4  11    4110     978   1
  -2   4  11     561     358   1
  -1   4  11    6395    1097   1
   0   4  11   18667    1806   1
   1   4  11    5210    1002   1
   2   4  11     957     496   1
   3   4  11    4597    1101   1
  -2   5  11   12136    1657   1
  -1   5  11   25454    2326   1
   0   5  11    2901     741   1
   1   5  11    5739    1082   1
   2   5  11    4300    1004   1
  -2  -6  12    3827     951   1
  -1  -6  12    7466    1204   1
   0  -6  12    2186     464   1
   1  -6  12     253     246   1
   2  -6  12   11081    1161   1
  -3  -5  12   15892    1875   1
  -2  -5  12   17435    1858   1
  -1  -5  12    4214     874   1
   0  -5  12    2964     636   1
   1  -5  12    2738     554   1
   2  -5  12     194     354   1
   3  -5  12    2678    1103   1
  -4  -4  12   29760    2613   1
  -3  -4  12     617     360   1
  -2  -4  12    5466     754   1
  -1  -4  12    9873     837   1
   0  -4  12   27308    1384   1
   1  -4  12     532     249   1
   2  -4  12    4582    1073   1
   3  -4  12     306     436   1
   4  -4  12    1463     809   1
  -4  -3  12      97     251   1
  -3  -3  12    1826     349   1
  -2  -3  12    2831     339   1
  -1  -3  12     349     238   1
   0  -3  12   18119     922   1
   1  -3  12   28509    2446   1
   2  -3  12     561     523   1
   3  -3  12    5043    1215   1
   4  -3  12    2710     990   1
  -5  -2  12    2280     680   1
  -4  -2  12    4869     847   1
  -3  -2  12    1182     234   1
  -2  -2  12    3777     394   1
  -1  -2  12    3253     446   1
   0  -2  12     850     196   1
   1  -2  12   28230    2380   1
   2  -2  12   57482    3815   1
   3  -2  12    6528    1399   1
   4  -2  12     109     445   1
   5  -2  12    1656     625   1
  -5  -1  12    1996     392   1
  -4  -1  12     191     146   1
  -3  -1  12    2960     443   1
  -2  -1  12    2890     424   1
  -1  -1  12     338     142   1
   0  -1  12   48461    2748   1
   1  -1  12     606     313   1
   2  -1  12   10696    1566   1
   3  -1  12    6893    1331   1
   4  -1  12    7453    1620   1
   5  -1  12     826     621   1
   5   0 -12    1305     349  -2
  -5   0  12    1305     349   1
   4   0 -12   34366    1663  -2
  -4   0  12   34366    1663   1
   3   0 -12     878     273  -2
  -3   0  12     878     273   1
   2   0 -12    3347     677  -2
  -2   0  12    3347     677   1
   1   0 -12   31316    2098  -2
  -1   0  12   31316    2098   1
   0   0 -12     930     419  -2
   0   0  12     930     419   1
  -1   0 -12    4091     830  -2
   1   0  12    4091     830   1
  -2   0 -12    1984     656  -2
   2   0  12    1984     656   1
  -3   0 -12    3945    1025  -2
   3   0  12    3945    1025   1
  -4   0 -12    -351     447  -2
   4   0  12    -351     447   1
  -5   0 -12    5705    1523  -2
   5   0  12    5705    1523   1
  -5   1  12   11864    1633   1
  -4   1  12     875     490   1
  -3   1  12    7073    1096   1
  -2   1  12    2184     538   1
  -1   1  12    2184     536   1
   0   1  12   18136    1657   1
   1   1  12     676     351   1
   2   1  12     327     318   1
   3   1  12    1240     621   1
   4   1  12   14847    2173   1
  -4   2  12   43994    3240   1
  -3   2  12    2356     639   1
  -2   2  12    1410     553   1
  -1   2  12     520     288   1
   0   2  12     369     213   1
   1   2  12     969     402   1
   2   2  12    1650     598   1
   3   2  12      67     211   1
   4   2  12   15192    2156   1
  -4   3  12     482     418   1
  -3   3  12   17950    1979   1
  -2   3  12    2542     709   1
  -1   3  12    4780     939   1
   0   3  12    6948    1104   1
   1   3  12    7799    1207   1
   2   3  12     317     284   1
   3   3  12   10366    1642   1
  -3   4  12     597     432   1
  -2   4  12   10078    1463   1
  -1   4  12   13377    1655   1
   0   4  12    3063     743   1
   1   4  12    1557     559   1
   2   4  12    5550    1139   1
  -1   5  12    1177     515   1
   0   5  12   26999    2415   1
  -1  -6  13   10569    1477   1
   0  -6  13     199     283   1
   1  -6  13    4450     740   1
  -2  -5  13     537     335   1
  -1  -5  13    3696     838   1
   0  -5  13   22695    2053   1
   1  -5  13     766     290   1
   2  -5  13    1367     733   1
   3  -5  13     433     551   1
  -3  -4  13    4881     974   1
  -2  -4  13    3736     862   1
  -1  -4  13     527     271   1
   0  -4  13     192     135   1
   1  -4  13   11214    1046   1
   2  -4  13    1109     530   1
   3  -4  13    2628     719   1
  -4  -3  13     532     416   1
  -3  -3  13   14058    1337   1
  -2  -3  13     373     171   1
  -1  -3  13     676     219   1
   0  -3  13   11700    1010   1
   1  -3  13    1193     553   1
   2  -3  13   13212    1913   1
   3  -3  13    7465    1608   1
   4  -3  13     304     342   1
  -4  -2  13    6145     672   1
  -3  -2  13    6323     657   1
  -2  -2  13    8632    1094   1
  -1  -2  13     144     210   1
   0  -2  13    5182     949   1
   1  -2  13   11738    1572   1
   2  -2  13     485     359   1
   3  -2  13    1797     762   1
   4  -2  13    4624    1358   1
  -4  -1  13    5489     663   1
  -3  -1  13     671     254   1
  -2  -1  13    5230     600   1
  -1  -1  13   10092    1193   1
   0  -1  13   38114    2530   1
   1  -1  13    1066     461   1
   2  -1  13    -179     413   1
   3  -1  13    2334     811   1
   4  -1  13    7339    1638   1
   4   0 -13    9684     902  -2
  -4   0  13    9684     902   1
   3   0 -13   12851    1451  -2
  -3   0  13   12851    1451   1
   2   0 -13    -161     161  -2
  -2   0  13    -161     161   1
   1   0 -13    2294     593  -2
  -1   0  13    2294     593   1
   0   0 -13    1782     571  -2
   0   0  13    1782     571   1
  -1   0 -13   17372    1827  -2
   1   0  13   17372    1827   1
  -2   0 -13     -13     237  -2
   2   0  13     -13     237   1
  -3   0 -13    3422    1012  -2
   3   0  13    3422    1012   1
  -4   0 -13   12584    2123  -2
   4   0  13   12584    2123   1
  -4   1  13   11098    1503   1
  -3   1  13   11064    1429   1
  -2   1  13    2712     671   1
  -1   1  13    6946    1037   1
   0   1  13    9841    1289   1
   1   1  13     389     381   1
   2   1  13    2250     748   1
   3   1  13    1621     651   1
   4   1  13     440     517   1
  -4   2  13   16974    2004   1
  -3   2  13     733     396   1
  -2   2  13    6318    1075   1
  -1   2  13    1866     574   1
   0   2  13     409     309   1
   1   2  13    5893    1065   1
   2   2  13     187     200   1
   3   2  13    2974     896   1
  -3   3  13   11243    1620   1
  -2   3  13    -322     388   1
  -1   3  13    4023     929   1
   0   3  13    8451    1272   1
   1   3  13    2415     695   1
   2   3  13    3397     922   1
  -2   4  13   16947    1998   1
  -1   4  13    4341     942   1
   0   4  13    2448     723   1
   1   4  13    8003    1378   1
  -1  -5  14     161     203   1
   0  -5  14    4256     648   1
   1  -5  14    4469     953   1
   2  -5  14    1221     859   1
  -2  -4  14   10472    1437   1
  -1  -4  14     499     249   1
   0  -4  14     381     221   1
   1  -4  14    1151     547   1
   2  -4  14    2016     770   1
   3  -4  14    3216     994   1
  -3  -3  14    1538     574   1
  -2  -3  14    6312     696   1
  -1  -3  14    6086    1242   1
   0  -3  14     687     295   1
   1  -3  14    5079    1100   1
   2  -3  14      58     312   1
   3  -3  14     -69     282   1
  -4  -2  14    -168     168   1
  -3  -2  14    7895     830   1
  -2  -2  14      49     129   1
  -1  -2  14    5411     669   1
   0  -2  14    7075    1150   1
   1  -2  14    3811     957   1
   2  -2  14      -5     339   1
   3  -2  14     422     541   1
  -4  -1  14    3741     922   1
  -3  -1  14     983     267   1
  -2  -1  14    6000     680   1
  -1  -1  14     841     360   1
   0  -1  14    5346    1008   1
   1  -1  14    7279    1239   1
   2  -1  14    4387    1103   1
   3  -1  14    4929    1248   1
   4  -1  14     931     795   1
   4   0 -14     185     221  -2
  -4   0  14     185     221   1
   3   0 -14   23243    2029  -2
  -3   0  14   23243    2029   1
   2   0 -14    1264     486  -2
  -2   0  14    1264     486   1
   1   0 -14     200     202  -2
  -1   0  14     200     202   1
   0   0 -14    6412    1121  -2
   0   0  14    6412    1121   1
  -1   0 -14   35682    2775  -2
   1   0  14   35682    2775   1
  -2   0 -14     115     339  -2
   2   0  14     115     339   1
  -3   0 -14    3383    1053  -2
   3   0  14    3383    1053   1
  -3   1  14    2103     663   1
  -2   1  14    1324     496   1
  -1   1  14    2289     650   1
   0   1  14    5126     995   1
   1   1  14   12872    1619   1
   2   1  14    9177    1510   1
   3   1  14    1035     669   1
  -3   2  14    7733    1338   1
  -2   2  14    6733    1168   1
  -1   2  14    -245     245   1
   0   2  14    3824     891   1
   1   2  14     358     403   1
   2   2  14    3571     938   1
  -2   3  14    1210     503   1
  -1   3  14    8080    1297   1
   0   3  14     635     397   1
   1   3  14   11027    1619   1
  -1  -4  15     778     278   1
   0  -4  15      55     255   1
   1  -4  15     337     397   1
   2  -4  15    1015     578   1
  -2  -3  15    2992     515   1
  -1  -3  15    2868     519   1
   0  -3  15     372     364   1
   1  -3  15    3578     972   1
   2  -3  15    -118     402   1
  -3  -2  15    1328     341   1
  -2  -2  15     498     150   1
  -1  -2  15    4280     850   1
   0  -2  15    7809    1269   1
   1  -2  15    1371     580   1
   2  -2  15    2653     855   1
   3  -2  15    3557    1128   1
  -3  -1  15    5111     664   1
  -2  -1  15    7084    1070   1
  -1  -1  15    1649     585   1
   0  -1  15     625     396   1
   1  -1  15   22657    2359   1
   2  -1  15    6733    1420   1
   3  -1  15     477     397   1
   3   0 -15    9201    1342  -2
  -3   0  15    9201    1342   1
   2   0 -15     838     403  -2
  -2   0  15     838     403   1
   1   0 -15   12487    1564  -2
  -1   0  15   12487    1564   1
   0   0 -15    6675    1183  -2
   0   0  15    6675    1183   1
  -1   0 -15    2754     820  -2
   1   0  15    2754     820   1
  -2   0 -15    6036    1333  -2
   2   0  15    6036    1333   1
  -3   0 -15    2034     813  -2
   3   0  15    2034     813   1
  -3   1  15    3997     932   1
  -2   1  15    3452     820   1
  -1   1  15    1344     494   1
   0   1  15    2412     749   1
   1   1  15    5651    1192   1
   2   1  15     424     287   1
  -2   2  15     271     261   1
  -1   2  15    2588     784   1
   0   2  15    2710     803   1
   1   2  15    2356     779   1
  -1  -3  16    2311     513   1
   0  -3  16    1245     570   1
   1  -3  16    1532     689   1
  -2  -2  16    4603     663   1
  -1  -2  16    6573    1121   1
   0  -2  16    1522     606   1
   1  -2  16    1266     561   1
   2  -2  16    4537    1228   1
  -2  -1  16     643     308   1
  -1  -1  16    2534     693   1
   0  -1  16   19083    2071   1
   1  -1  16    6412    1315   1
   2  -1  16     -67     308   1
   2   0 -16    7664    1234  -2
  -2   0  16    7664    1234   1
   1   0 -16   19063    2035  -2
  -1   0  16   19063    2035   1
   0   0 -16     799     503  -2
   0   0  16     799     503   1
  -1   0 -16    3002     946  -2
   1   0  16    3002     946   1
  -1   1  16     465     388   1
   0   1  16   13424    1816   1
   1   1  16    1138     528   1
;
_shelx_hkl_checksum              98559
_olex2_submission_special_instructions 'No special instructions were received'
_oxdiff_exptl_absorpt_empirical_details
;
Empirical correction (ABSPACK) includes:
- Absorption correction using spherical harmonics
- Frame scaling
;
_oxdiff_exptl_absorpt_empirical_full_max 1.712
_oxdiff_exptl_absorpt_empirical_full_min 0.614
loop_
_space_group_symop_operation_xyz
'x, y, z'
'-x, -y, -z'
loop_
_atom_site_label
_atom_site_type_symbol
_atom_site_fract_x
_atom_site_fract_y
_atom_site_fract_z
_atom_site_U_iso_or_equiv
_atom_site_adp_type
_atom_site_occupancy
_atom_site_site_symmetry_order
_atom_site_calc_flag
_atom_site_refinement_flags_posn
_atom_site_refinement_flags_adp
_atom_site_refinement_flags_occupancy
_atom_site_disorder_assembly
_atom_site_disorder_group
S1 S 0.83774(15) 0.24356(13) 0.85957(7) 0.0171(4) Uani 1 1 d . . . . .
O1 O 0.9472(5) 0.1252(4) 0.9181(2) 0.0240(7) Uani 1 1 d . . . . .
O2 O 0.6045(4) 0.2252(4) 0.8683(2) 0.0212(7) Uani 1 1 d . . . . .
O3 O 0.9220(5) 0.4400(4) 0.8746(2) 0.0232(7) Uani 1 1 d . . . . .
O4 O -0.295(4) 0.585(2) 0.6391(16) 0.168(5) Uani 0.5 1 d D U P A -1
O5 O -0.235(5) 0.441(4) 0.4240(17) 0.193(6) Uani 0.5 1 d D U P A -1
C1 C 0.317(3) 0.529(4) 0.531(2) 0.177(5) Uani 0.5 1 d DG U P A -1
C6 C 0.147(5) 0.496(4) 0.4655(15) 0.182(6) Uani 0.5 1 d G U P A -1
H6 H 0.172958 0.458769 0.401516 0.218 Uiso 0.5 1 calc R U P A -1
C5 C -0.063(4) 0.517(5) 0.495(2) 0.189(5) Uani 0.5 1 d DG U P A -1
C4 C -0.103(3) 0.573(4) 0.591(2) 0.179(6) Uani 0.5 1 d DG U P A -1
C3 C 0.068(5) 0.606(3) 0.6568(15) 0.176(5) Uani 0.5 1 d G U P A -1
H3 H 0.041397 0.643288 0.720741 0.211 Uiso 0.5 1 calc R U P A -1
C2 C 0.277(4) 0.585(3) 0.627(2) 0.169(5) Uani 0.5 1 d DG U P A -1
H2 H 0.391424 0.607279 0.671280 0.203 Uiso 0.5 1 calc R U P A -1
C7 C 0.533(4) 0.490(8) 0.490(3) 0.179(6) Uani 0.5 1 d D U P A -1
H7 H 0.547382 0.425563 0.429249 0.215 Uiso 0.5 1 calc R U P A -1
C8 C 0.695(5) 0.553(5) 0.545(3) 0.183(7) Uani 0.5 1 d D U P A -1
H8 H 0.658449 0.670910 0.573203 0.219 Uiso 0.5 1 calc R U P A -1
C9 C 0.906(6) 0.533(5) 0.585(2) 0.175(9) Uani 0.5 1 d D U P A -1
H9A H 0.934740 0.401843 0.570533 0.262 Uiso 0.5 1 d R U P A -1
H9B H 0.843210 0.554433 0.646243 0.262 Uiso 0.5 1 d R U P A -1
H9C H 1.037790 0.610933 0.584083 0.262 Uiso 0.5 1 d R U P A -1
C10 C -0.442(5) 0.418(4) 0.383(2) 0.172(8) Uani 0.5 1 d D U P A -1
H10A H -0.432497 0.399709 0.314569 0.259 Uiso 0.5 1 d R U P A -1
H10B H -0.516577 0.529379 0.402269 0.259 Uiso 0.5 1 d R U P A -1
H10C H -0.518257 0.309819 0.403329 0.259 Uiso 0.5 1 d R U P A -1
C11 C 1.1251(16) 0.032(2) 0.6256(6) 0.025(3) Uani 0.50(2) 1 d D . P B 1
H11 H 1.260438 -0.009413 0.610978 0.029 Uiso 0.50(2) 1 calc R U P B 1
C11A C 1.1461(14) 0.131(2) 0.6075(7) 0.025(3) Uani 0.50(2) 1 d D . P B 2
H11A H 1.281860 0.155232 0.583394 0.030 Uiso 0.50(2) 1 calc R U P B 2
C12 C 1.0831(16) 0.089(2) 0.7202(7) 0.028(3) Uani 0.50(2) 1 d D . P B 1
H12 H 1.183463 0.079897 0.768297 0.033 Uiso 0.50(2) 1 calc R U P B 1
C12A C 1.0991(14) 0.189(2) 0.7019(7) 0.027(3) Uani 0.50(2) 1 d D . P B 2
H12A H 1.208620 0.251152 0.742192 0.033 Uiso 0.50(2) 1 calc R U P B 2
C13 C 0.8905(6) 0.1587(6) 0.7398(3) 0.0193(8) Uani 1 1 d D . . . .
C14 C 0.7271(15) 0.156(2) 0.6755(6) 0.025(2) Uani 0.50(2) 1 d D . P B 1
H14 H 0.592000 0.194234 0.693216 0.029 Uiso 0.50(2) 1 calc R U P B 1
C14A C 0.7365(15) 0.063(2) 0.6762(6) 0.022(2) Uani 0.50(2) 1 d D . P B 2
H14A H 0.597607 0.040292 0.697573 0.026 Uiso 0.50(2) 1 calc R U P B 2
C15 C 0.7734(15) 0.094(2) 0.5820(7) 0.029(3) Uani 0.50(2) 1 d D . P B 1
H15 H 0.664423 0.091816 0.536154 0.034 Uiso 0.50(2) 1 calc R U P B 1
C15A C 0.7796(15) -0.002(2) 0.5826(7) 0.027(3) Uani 0.50(2) 1 d D . P B 2
H15A H 0.672572 -0.067844 0.542433 0.032 Uiso 0.50(2) 1 calc R U P B 2
C16 C 0.9774(6) 0.0329(6) 0.5508(3) 0.0227(9) Uani 1 1 d D . . . .
C17 C 0.4580(7) 0.7370(6) 0.9020(3) 0.0219(9) Uani 1 1 d . . . . .
N1 N 0.6710(6) 0.7601(5) 0.8987(3) 0.0309(10) Uani 1 1 d . . . . .
H1A H 0.746863 0.663710 0.897496 0.037 Uiso 1 1 calc R U . . .
H1B H 0.733243 0.871374 0.897759 0.037 Uiso 1 1 calc R U . . .
N2 N 0.3650(6) 0.5654(5) 0.9034(3) 0.0240(9) Uani 1 1 d . . . . .
H2A H 0.227100 0.548922 0.905660 0.029 Uiso 1 1 calc R U . . .
H2B H 0.442315 0.469920 0.902023 0.029 Uiso 1 1 calc R U . . .
N3 N 0.3425(6) 0.8859(5) 0.9040(3) 0.0284(9) Uani 1 1 d . . . . .
H3A H 0.204411 0.871759 0.906309 0.034 Uiso 1 1 calc R U . . .
H3B H 0.405457 0.996953 0.903080 0.034 Uiso 1 1 calc R U . . .
loop_
_atom_site_aniso_label
_atom_site_aniso_U_11
_atom_site_aniso_U_22
_atom_site_aniso_U_33
_atom_site_aniso_U_23
_atom_site_aniso_U_13
_atom_site_aniso_U_12
S1 0.0145(6) 0.0136(6) 0.0227(6) 0.0000(4) 0.0010(4) 0.0020(4)
O1 0.0226(16) 0.0252(16) 0.0257(16) 0.0052(13) 0.0014(13) 0.0083(13)
O2 0.0151(15) 0.0184(15) 0.0300(16) 0.0013(12) 0.0022(12) 0.0030(12)
O3 0.0183(15) 0.0200(16) 0.0302(16) -0.0017(12) 0.0010(12) 0.0026(12)
O4 0.262(13) 0.072(9) 0.182(13) 0.060(10) -0.003(10) 0.013(10)
O5 0.260(13) 0.127(10) 0.196(12) 0.042(11) 0.005(10) 0.004(12)
C1 0.260(12) 0.084(8) 0.194(12) 0.050(9) 0.001(9) 0.006(10)
C6 0.261(12) 0.101(10) 0.191(12) 0.052(10) 0.002(9) 0.004(11)
C5 0.262(12) 0.116(9) 0.194(12) 0.047(10) 0.003(9) 0.006(11)
C4 0.262(12) 0.093(9) 0.192(12) 0.055(9) 0.001(9) 0.012(10)
C3 0.263(13) 0.084(9) 0.191(12) 0.054(10) 0.001(9) 0.011(11)
C2 0.261(12) 0.067(9) 0.191(12) 0.057(10) -0.002(9) 0.012(11)
C7 0.262(13) 0.077(9) 0.202(14) 0.034(10) 0.003(10) 0.004(11)
C8 0.258(13) 0.088(11) 0.200(15) 0.008(11) 0.009(11) 0.014(12)
C9 0.254(13) 0.090(17) 0.174(19) -0.018(14) 0.020(13) 0.026(14)
C10 0.254(15) 0.102(14) 0.173(16) 0.071(14) 0.018(12) -0.009(15)
C11 0.021(3) 0.028(7) 0.025(2) 0.001(3) 0.000(2) 0.011(4)
C11A 0.019(3) 0.029(6) 0.025(3) -0.004(3) 0.0011(19) -0.003(3)
C12 0.022(3) 0.038(7) 0.024(2) 0.003(4) -0.001(2) 0.014(4)
C12A 0.017(2) 0.036(7) 0.025(3) -0.005(3) 0.000(2) -0.001(3)
C13 0.0176(16) 0.0176(19) 0.0223(17) 0.0005(15) -0.0014(12) 0.0033(14)
C14 0.016(3) 0.034(7) 0.024(2) 0.004(3) -0.0005(18) 0.006(3)
C14A 0.017(3) 0.025(6) 0.024(2) 0.002(3) -0.0014(18) 0.000(3)
C15 0.017(3) 0.045(8) 0.023(2) 0.000(4) -0.003(2) 0.004(3)
C15A 0.019(2) 0.034(7) 0.025(3) -0.002(3) -0.002(2) -0.003(3)
C16 0.0197(17) 0.022(2) 0.0253(18) -0.0011(15) -0.0016(13) 0.0009(16)
C17 0.019(2) 0.017(2) 0.029(2) -0.0003(17) 0.0049(18) 0.0038(17)
N1 0.0143(18) 0.0176(19) 0.060(3) 0.0035(18) 0.0060(18) 0.0015(15)
N2 0.0141(18) 0.0153(18) 0.042(2) 0.0002(15) -0.0011(15) 0.0025(14)
N3 0.0144(18) 0.0177(19) 0.053(3) 0.0037(17) 0.0039(17) 0.0028(15)
loop_
_atom_type_symbol
_atom_type_description
_atom_type_scat_dispersion_real
_atom_type_scat_dispersion_imag
_atom_type_scat_source
C C 0.0033 0.0016 'International Tables Vol C Tables 4.2.6.8 and 6.1.1.4'
H H 0.0000 0.0000 'International Tables Vol C Tables 4.2.6.8 and 6.1.1.4'
N N 0.0061 0.0033 'International Tables Vol C Tables 4.2.6.8 and 6.1.1.4'
O O 0.0106 0.0060 'International Tables Vol C Tables 4.2.6.8 and 6.1.1.4'
S S 0.1246 0.1234 'International Tables Vol C Tables 4.2.6.8 and 6.1.1.4'
loop_
_geom_angle_atom_site_label_1
_geom_angle_atom_site_label_2
_geom_angle_atom_site_label_3
_geom_angle
_geom_angle_site_symmetry_1
_geom_angle_site_symmetry_3
_geom_angle_publ_flag
O1 S1 O2 112.63(17) . . ?
O1 S1 C13 106.50(18) . . ?
O2 S1 C13 106.24(18) . . ?
O3 S1 O1 113.00(18) . . ?
O3 S1 O2 111.79(17) . . ?
O3 S1 C13 106.06(18) . . ?
C10 O5 C5 157(3) . . ?
C6 C1 C2 120.0 . . ?
C6 C1 C7 114(2) . . ?
C2 C1 C7 126(2) . . ?
C1 C6 H6 120.0 . . ?
C5 C6 C1 120.0 . . ?
C5 C6 H6 120.0 . . ?
C6 C5 O5 116(3) . . ?
C4 C5 O5 123(3) . . ?
C4 C5 C6 120.0 . . ?
C5 C4 O4 131(3) . . ?
C5 C4 C3 120.0 . . ?
C3 C4 O4 109(3) . . ?
C4 C3 H3 120.0 . . ?
C2 C3 C4 120.0 . . ?
C2 C3 H3 120.0 . . ?
C1 C2 H2 120.0 . . ?
C3 C2 C1 120.0 . . ?
C3 C2 H2 120.0 . . ?
C1 C7 H7 122.6 . . ?
C8 C7 C1 115(3) . . ?
C8 C7 H7 122.6 . . ?
C7 C8 H8 104.3 . . ?
C7 C8 C9 151(4) . . ?
C9 C8 H8 104.3 . . ?
C8 C9 H9A 107.4 . . ?
C8 C9 H9B 87.2 . . ?
C8 C9 H9C 130.7 . . ?
H9A C9 H9B 109.5 . . ?
H9A C9 H9C 109.5 . . ?
H9B C9 H9C 109.5 . . ?
O5 C10 H10A 109.7 . . ?
O5 C10 H10B 109.4 . . ?
O5 C10 H10C 109.2 . . ?
H10A C10 H10B 109.5 . . ?
H10A C10 H10C 109.5 . . ?
H10B C10 H10C 109.5 . . ?
C12 C11 H11 118.0 . . ?
C12 C11 C16 124.1(8) . . ?
C16 C11 H11 118.0 . . ?
C12A C11A H11A 121.9 . . ?
C12A C11A C16 116.2(7) . . ?
C16 C11A H11A 121.9 . . ?
C11 C12 H12 121.4 . . ?
C13 C12 C11 117.3(8) . . ?
C13 C12 H12 121.4 . . ?
C11A C12A H12A 118.5 . . ?
C11A C12A C13 122.9(8) . . ?
C13 C12A H12A 118.5 . . ?
C12 C13 S1 118.2(5) . . ?
C12 C13 C14 124.8(7) . . ?
C12A C13 S1 120.9(4) . . ?
C14 C13 S1 116.9(5) . . ?
C14A C13 S1 123.7(5) . . ?
C14A C13 C12A 115.3(6) . . ?
C13 C14 H14 122.0 . . ?
C13 C14 C15 115.9(8) . . ?
C15 C14 H14 122.0 . . ?
C13 C14A H14A 118.5 . . ?
C15A C14A C13 123.1(8) . . ?
C15A C14A H14A 118.5 . . ?
C14 C15 H15 117.8 . . ?
C14 C15 C16 124.5(8) . . ?
C16 C15 H15 117.8 . . ?
C14A C15A H15A 120.5 . . ?
C16 C15A C14A 118.9(8) . . ?
C16 C15A H15A 120.5 . . ?
C11 C16 C15 113.0(6) . . ?
C11 C16 C16 123.7(6) . 2_756 ?
C11A C16 C16 117.6(5) . 2_756 ?
C15 C16 C16 123.2(6) . 2_756 ?
C15A C16 C11A 123.5(7) . . ?
C15A C16 C16 118.9(6) . 2_756 ?
N2 C17 N1 119.3(4) . . ?
N2 C17 N3 121.1(4) . . ?
N3 C17 N1 119.7(4) . . ?
C17 N1 H1A 120.0 . . ?
C17 N1 H1B 120.0 . . ?
H1A N1 H1B 120.0 . . ?
C17 N2 H2A 120.0 . . ?
C17 N2 H2B 120.0 . . ?
H2A N2 H2B 120.0 . . ?
C17 N3 H3A 120.0 . . ?
C17 N3 H3B 120.0 . . ?
H3A N3 H3B 120.0 . . ?
loop_
_geom_bond_atom_site_label_1
_geom_bond_atom_site_label_2
_geom_bond_distance
_geom_bond_site_symmetry_2
_geom_bond_publ_flag
S1 O1 1.454(3) . ?
S1 O2 1.457(3) . ?
S1 O3 1.448(3) . ?
S1 C13 1.767(4) . ?
O4 C4 1.391(18) . ?
O5 C5 1.483(18) . ?
O5 C10 1.40(2) . ?
C1 C6 1.3900 . ?
C1 C2 1.3900 . ?
C1 C7 1.504(18) . ?
C6 H6 0.9300 . ?
C6 C5 1.3900 . ?
C5 C4 1.3900 . ?
C4 C3 1.3900 . ?
C3 H3 0.9300 . ?
C3 C2 1.3900 . ?
C2 H2 0.9300 . ?
C7 H7 0.9300 . ?
C7 C8 1.281(19) . ?
C8 H8 0.9300 . ?
C8 C9 1.446(18) . ?
C9 H9A 0.9601 . ?
C9 H9B 0.9602 . ?
C9 H9C 0.9600 . ?
C10 H10A 0.9598 . ?
C10 H10B 0.9601 . ?
C10 H10C 0.9601 . ?
C11 H11 0.9300 . ?
C11 C12 1.381(10) . ?
C11 C16 1.395(9) . ?
C11A H11A 0.9300 . ?
C11A C12A 1.388(10) . ?
C11A C16 1.400(9) . ?
C12 H12 0.9300 . ?
C12 C13 1.350(8) . ?
C12A H12A 0.9300 . ?
C12A C13 1.426(8) . ?
C13 C14 1.353(9) . ?
C13 C14A 1.385(9) . ?
C14 H14 0.9300 . ?
C14 C15 1.382(10) . ?
C14A H14A 0.9300 . ?
C14A C15A 1.381(10) . ?
C15 H15 0.9300 . ?
C15 C16 1.429(9) . ?
C15A H15A 0.9300 . ?
C15A C16 1.335(9) . ?
C16 C16 1.490(8) 2_756 ?
C17 N1 1.327(5) . ?
C17 N2 1.319(5) . ?
C17 N3 1.323(6) . ?
N1 H1A 0.8600 . ?
N1 H1B 0.8600 . ?
N2 H2A 0.8600 . ?
N2 H2B 0.8600 . ?
N3 H3A 0.8600 . ?
N3 H3B 0.8600 . ?
loop_
_geom_torsion_atom_site_label_1
_geom_torsion_atom_site_label_2
_geom_torsion_atom_site_label_3
_geom_torsion_atom_site_label_4
_geom_torsion
_geom_torsion_site_symmetry_1
_geom_torsion_site_symmetry_2
_geom_torsion_site_symmetry_3
_geom_torsion_site_symmetry_4
_geom_torsion_publ_flag
S1 C13 C14 C15 178.4(7) . . . . ?
S1 C13 C14A C15A 179.5(7) . . . . ?
O1 S1 C13 C12 -33.8(9) . . . . ?
O1 S1 C13 C12A -71.8(8) . . . . ?
O1 S1 C13 C14 141.7(8) . . . . ?
O1 S1 C13 C14A 109.4(8) . . . . ?
O2 S1 C13 C12 -154.1(9) . . . . ?
O2 S1 C13 C12A 167.9(8) . . . . ?
O2 S1 C13 C14 21.4(8) . . . . ?
O2 S1 C13 C14A -10.9(8) . . . . ?
O3 S1 C13 C12 86.8(9) . . . . ?
O3 S1 C13 C12A 48.9(8) . . . . ?
O3 S1 C13 C14 -97.7(8) . . . . ?
O3 S1 C13 C14A -130.0(8) . . . . ?
O4 C4 C3 C2 174(2) . . . . ?
O5 C5 C4 O4 -6(3) . . . . ?
O5 C5 C4 C3 167(3) . . . . ?
C1 C6 C5 O5 -168(3) . . . . ?
C1 C6 C5 C4 0.0 . . . . ?
C1 C7 C8 C9 140(7) . . . . ?
C6 C1 C2 C3 0.0 . . . . ?
C6 C1 C7 C8 168(4) . . . . ?
C6 C5 C4 O4 -173(3) . . . . ?
C6 C5 C4 C3 0.0 . . . . ?
C5 C4 C3 C2 0.0 . . . . ?
C4 C3 C2 C1 0.0 . . . . ?
C2 C1 C6 C5 0.0 . . . . ?
C2 C1 C7 C8 -16(6) . . . . ?
C7 C1 C6 C5 177(3) . . . . ?
C7 C1 C2 C3 -176(3) . . . . ?
C10 O5 C5 C6 -162(6) . . . . ?
C10 O5 C5 C4 30(9) . . . . ?
C11 C12 C13 S1 -176.9(7) . . . . ?
C11 C12 C13 C14 8.0(14) . . . . ?
C11A C12A C13 S1 -177.8(8) . . . . ?
C11A C12A C13 C14A 1.2(13) . . . . ?
C12 C11 C16 C15 -1.7(13) . . . . ?
C12 C11 C16 C16 -178.6(8) . . . 2_756 ?
C12 C13 C14 C15 -6.5(13) . . . . ?
C12A C11A C16 C15A 1.3(13) . . . . ?
C12A C11A C16 C16 -179.7(8) . . . 2_756 ?
C12A C13 C14A C15A 0.6(13) . . . . ?
C13 C14 C15 C16 0.5(15) . . . . ?
C13 C14A C15A C16 -1.3(15) . . . . ?
C14 C15 C16 C11 3.3(14) . . . . ?
C14 C15 C16 C16 -179.8(8) . . . 2_756 ?
C14A C15A C16 C11A 0.3(13) . . . . ?
C14A C15A C16 C16 -178.7(8) . . . 2_756 ?
C16 C11 C12 C13 -3.5(15) . . . . ?
C16 C11A C12A C13 -2.0(15) . . . . ?
loop_
_twin_individual_id
_twin_individual_mass_fraction_refined
1 0.673(12)
2 0.327(12)
