#------------------------------------------------------------------------------
#$Date: 2022-01-27 01:42:50 +0200 (Thu, 27 Jan 2022) $
#$Revision: 272261 $
#$URL: file:///home/coder/svn-repositories/cod/cif/7/24/43/7244300.cif $
#------------------------------------------------------------------------------
#
# This file is available in the Crystallography Open Database (COD),
# http://www.crystallography.net/
#
# All data on this site have been placed in the public domain by the
# contributors.
#
data_7244300
loop_
_publ_author_name
'Cheplakova, Anastasia M.'
'Samsonenko, Denis G.'
'Lazarenko, Vladimir'
'Dorovatovskii, Pavel'
'Zubavichus, Yan'
'Khrustalev, Victor N.'
'Rakhmanova, Marianna I.'
'Fedin, Vladimir P.'
_publ_section_title
;
 Synthesis, supramolecular isomerism, and photoluminescence of
 scandium(III) complexes with tetrafluoroterephthalate ligand
;
_journal_name_full               CrystEngComm
_journal_paper_doi               10.1039/D1CE01689J
_journal_year                    2022
_chemical_formula_sum            'C12 H10 F6 O11 Sc'
_chemical_formula_weight         489.16
_space_group_crystal_system      triclinic
_space_group_IT_number           2
_space_group_name_Hall           '-P 1'
_space_group_name_H-M_alt        'P -1'
_atom_sites_solution_hydrogens   difmap
_atom_sites_solution_primary     dual
_atom_sites_solution_secondary   difmap
_audit_creation_method           SHELXL-2018/3
_audit_update_record
;
2021-12-01 deposited with the CCDC.	2022-01-26 downloaded from the CCDC.
;
_cell_angle_alpha                80.387(3)
_cell_angle_beta                 84.542(3)
_cell_angle_gamma                88.510(3)
_cell_formula_units_Z            2
_cell_length_a                   4.79757(17)
_cell_length_b                   10.0870(4)
_cell_length_c                   18.1374(7)
_cell_measurement_reflns_used    2355
_cell_measurement_temperature    150(2)
_cell_measurement_theta_max      28.74
_cell_measurement_theta_min      2.50
_cell_volume                     861.43(6)
_computing_cell_refinement       'CrysAlisPro 1.171.40.81a (Rigaku OD, 2020)'
_computing_data_collection       'CrysAlisPro 1.171.40.81a (Rigaku OD, 2020)'
_computing_data_reduction        'CrysAlisPro 1.171.40.81a (Rigaku OD, 2020)'
_computing_molecular_graphics    'ShelXle (H\"ubschle, 2011)'
_computing_publication_material  'CIFTAB (Sheldrick, 2015)'
_computing_structure_refinement  'SHELXL-2018 (Sheldrick, 2015)'
_computing_structure_solution    'SHELXT-2018 (Sheldrick, 2015)'
_diffrn_ambient_temperature      150(2)
_diffrn_detector                 'CCD plate'
_diffrn_detector_area_resol_mean 10.6
_diffrn_detector_type            AtlasS2
_diffrn_measured_fraction_theta_full 1.000
_diffrn_measured_fraction_theta_max 0.815
_diffrn_measurement_device       'four-circle diffractometer'
_diffrn_measurement_device_type  'New Xcalibur, AtlasS2'
_diffrn_measurement_method       '\w scans'
_diffrn_radiation_monochromator  graphite
_diffrn_radiation_probe          x-ray
_diffrn_radiation_source         'fine-focus sealed tube'
_diffrn_radiation_type           MoK\a
_diffrn_radiation_wavelength     0.71073
_diffrn_reflns_av_R_equivalents  0.0178
_diffrn_reflns_av_unetI/netI     0.0362
_diffrn_reflns_Laue_measured_fraction_full 1.000
_diffrn_reflns_Laue_measured_fraction_max 0.815
_diffrn_reflns_limit_h_max       6
_diffrn_reflns_limit_h_min       -5
_diffrn_reflns_limit_k_max       13
_diffrn_reflns_limit_k_min       -13
_diffrn_reflns_limit_l_max       22
_diffrn_reflns_limit_l_min       -24
_diffrn_reflns_number            6789
_diffrn_reflns_point_group_measured_fraction_full 1.000
_diffrn_reflns_point_group_measured_fraction_max 0.815
_diffrn_reflns_theta_full        25.500
_diffrn_reflns_theta_max         29.057
_diffrn_reflns_theta_min         2.048
_diffrn_source                   'sealed X-ray tube'
_exptl_absorpt_coefficient_mu    0.550
_exptl_absorpt_correction_T_max  1.00000
_exptl_absorpt_correction_T_min  0.99017
_exptl_absorpt_correction_type   multi-scan
_exptl_absorpt_process_details
;
CrysAlisPro 1.171.40.81a (Rigaku Oxford Diffraction, 2020)
Empirical absorption correction using spherical harmonics,
implemented in SCALE3 ABSPACK scaling algorithm.
;
_exptl_crystal_colour            colorless
_exptl_crystal_density_diffrn    1.886
_exptl_crystal_description       stick
_exptl_crystal_F_000             490
_exptl_crystal_size_max          0.45
_exptl_crystal_size_mid          0.05
_exptl_crystal_size_min          0.05
_refine_diff_density_max         0.334
_refine_diff_density_min         -0.373
_refine_diff_density_rms         0.063
_refine_ls_extinction_method     none
_refine_ls_goodness_of_fit_ref   1.044
_refine_ls_hydrogen_treatment    refxyz
_refine_ls_matrix_type           full
_refine_ls_number_parameters     301
_refine_ls_number_reflns         3767
_refine_ls_number_restraints     15
_refine_ls_restrained_S_all      1.043
_refine_ls_R_factor_all          0.0432
_refine_ls_R_factor_gt           0.0335
_refine_ls_shift/su_max          0.000
_refine_ls_shift/su_mean         0.000
_refine_ls_structure_factor_coef Fsqd
_refine_ls_weighting_details
'w=1/[\s^2^(Fo^2^)+(0.0318P)^2^+0.4639P] where P=(Fo^2^+2Fc^2^)/3'
_refine_ls_weighting_scheme      calc
_refine_ls_wR_factor_gt          0.0759
_refine_ls_wR_factor_ref         0.0797
_reflns_Friedel_coverage         0.000
_reflns_number_gt                3212
_reflns_number_total             3767
_reflns_threshold_expression     'I > 2\s(I)'
_cod_data_source_file            d1ce01689j2.cif
_cod_data_source_block           sn995
_cod_database_code               7244300
_shelx_shelxl_version_number     2018/3
_shelx_space_group_comment
;
The symmetry employed for this shelxl refinement is uniquely defined
by the following loop, which should always be used as a source of
symmetry information in preference to the above space-group names.
They are only intended as comments.
;
_shelx_estimated_absorpt_t_min   0.790
_shelx_estimated_absorpt_t_max   0.973
_shelx_res_file
;
TITL sn995 in P-1; 150K; Xcalibur
    sn995.res
    created by SHELXL-2018/3 at 16:47:17 on 02-Sep-2020
CELL 0.71073   4.79757  10.0870  18.1374  80.387  84.542  88.510
ZERR    2.00   0.00017   0.0004   0.0007   0.003   0.003   0.003
LATT  1
SFAC C  H  O  F  Sc
UNIT 24 20 22 12 2
 
LIST 4 ! automatically inserted. Change 6 to 4 for CHECKCIF!!
TEMP -123
 
L.S. 6
BOND $H
FMAP 2
PLAN 5
 
OMIT 0
 
DFIX 0.85 0.01 O1M H11M  O1M H12M
DFIX 1.38 0.01 H11M H12M
 
DFIX 0.87 0.01 O1W H11W  O1W H12W  O2W H21W  O2W H22W  O3W H31W  O3W H32W =
               O4W H41W  O4W H42W
DFIX 1.39 0.01 H11W H12W  H21W H22W  H31W H32W  H41W H42W
 
ACTA 51
 
SIZE 0.45 0.05 0.05
 
WGHT    0.031800    0.463900
FVAR       2.41861
SC1   5    0.728259    0.293693    0.757440    11.00000    0.01000    0.01288 =
         0.00821    0.00043    0.00122   -0.00226
F11   4    1.390926    0.188094    0.999915    11.00000    0.01890    0.01853 =
         0.01807    0.00121   -0.00184   -0.01195
F12   4    1.186794    0.053075    1.128021    11.00000    0.02362    0.02084 =
         0.01157   -0.00096   -0.00347   -0.00758
F21   4    0.950165    0.365849    0.946736    11.00000    0.02016    0.02290 =
         0.01829   -0.00520    0.00246    0.00565
F22   4    0.802133    0.324097    1.091237    11.00000    0.02444    0.02358 =
         0.01753    0.00133   -0.00174    0.00735
F31   4    0.133691    0.294539    0.522903    11.00000    0.03210    0.02869 =
         0.01815   -0.00333    0.00646   -0.02088
F32   4    0.355810    0.380457    0.386373    11.00000    0.02705    0.02616 =
         0.01314   -0.00360    0.00021   -0.01093
O1M   3    0.636475    0.133649    0.703129    11.00000    0.02942    0.02120 =
         0.01561   -0.00657    0.00536   -0.00996
H11M  2    0.696894    0.115412    0.660328    11.00000   -1.20000
H12M  2    0.550987    0.064199    0.727444    11.00000   -1.20000
O11   3    1.046969    0.186740    0.807395    11.00000    0.01350    0.01802 =
         0.01262    0.00337   -0.00118    0.00025
O12   3    1.462445    0.196976    0.849745    11.00000    0.01235    0.01945 =
         0.01307    0.00195    0.00204   -0.00327
O21   3    0.778341    0.450702    0.810578    11.00000    0.01987    0.01841 =
         0.01430   -0.00587    0.00101   -0.00152
O22   3    0.643842    0.663318    0.802502    11.00000    0.04772    0.02008 =
         0.01980    0.00431    0.01174    0.00720
O31   3    0.402856    0.402343    0.705404    11.00000    0.01401    0.02027 =
         0.01127    0.00257   -0.00071   -0.00127
O32   3    0.000457    0.367332    0.660438    11.00000    0.01184    0.02086 =
         0.01134    0.00087    0.00209   -0.00333
C11   1    1.214295    0.159128    0.856905    11.00000    0.01278    0.01088 =
         0.01299   -0.00021    0.00267    0.00075
C12   1    1.108542    0.075235    0.930090    11.00000    0.00960    0.01164 =
         0.01157    0.00268    0.00260    0.00045
C13   1    1.199317    0.094581    0.997952    11.00000    0.00891    0.01017 =
         0.01660   -0.00021    0.00048   -0.00337
C14   1    1.093109    0.023062    1.065736    11.00000    0.01232    0.01488 =
         0.01142   -0.00138   -0.00122   -0.00019
C21   1    0.671005    0.550320    0.838235    11.00000    0.01655    0.01755 =
         0.01449   -0.00353    0.00037   -0.00250
C22   1    0.581739    0.523667    0.921329    11.00000    0.01901    0.01154 =
         0.01390   -0.00316    0.00059   -0.00501
C23   1    0.723747    0.433035    0.971264    11.00000    0.01345    0.01171 =
         0.01864   -0.00508    0.00259   -0.00149
C24   1    0.645491    0.410300    1.047300    11.00000    0.01722    0.01144 =
         0.01681   -0.00116   -0.00166   -0.00048
C31   1    0.250580    0.403467    0.652742    11.00000    0.01253    0.01179 =
         0.01166    0.00025    0.00112    0.00123
C32   1    0.377809    0.453321    0.574122    11.00000    0.01242    0.01742 =
         0.01108    0.00152    0.00117    0.00018
C33   1    0.311484    0.397491    0.513235    11.00000    0.01291    0.01784 =
         0.01664    0.00069    0.00048   -0.00584
C34   1    0.428683    0.442325    0.441294    11.00000    0.01433    0.01876 =
         0.01247   -0.00223   -0.00065   -0.00175
O1W   3    0.375911   -0.079981    0.778421    11.00000    0.02700    0.01763 =
         0.03490   -0.00148   -0.00619   -0.00368
H11W  2    0.255297   -0.117032    0.756242    11.00000   -1.20000
H12W  2    0.488280   -0.143536    0.795899    11.00000   -1.20000
O2W   3    0.761278    0.039201    0.576375    11.00000    0.03066    0.02991 =
         0.01710   -0.00449    0.00300   -0.00237
H21W  2    0.921873   -0.001527    0.578882    11.00000   -1.20000
H22W  2    0.755967    0.078348    0.530264    11.00000   -1.20000
O3W   3    0.739946    0.108060    0.423209    11.00000    0.03160    0.03244 =
         0.02362    0.00601   -0.00452   -0.00747
H31W  2    0.587469    0.069136    0.418461    11.00000   -1.20000
H32W  2    0.772116    0.170808    0.385282    11.00000   -1.20000
O4W   3    0.862760    0.289045    0.295668    11.00000    0.02499    0.04359 =
         0.03388    0.01369   -0.00051   -0.00410
H41W  2    0.741181    0.342778    0.274939    11.00000   -1.20000
H42W  2    1.022290    0.304953    0.270095    11.00000   -1.20000
HKLF 4
 
 
 
 
REM  sn995 in P-1; 150K; Xcalibur
REM wR2 = 0.0797, GooF = S = 1.044, Restrained GooF = 1.043 for all data
REM R1 = 0.0335 for 3212 Fo > 4sig(Fo) and 0.0432 for all 3767 data
REM 301 parameters refined using 15 restraints
 
END
 
WGHT      0.0318      0.4639
 
REM Highest difference peak  0.334,  deepest hole -0.373,  1-sigma level  0.063
Q1    1   1.1736  0.1024  0.8951  11.00000  0.05    0.33
Q2    1   0.4652  0.5008  0.5672  11.00000  0.05    0.31
Q3    1   0.3376  0.4137  0.6086  11.00000  0.05    0.31
Q4    1   0.6457  0.5431  0.8862  11.00000  0.05    0.30
Q5    1   0.6016  0.4596  0.9364  11.00000  0.05    0.29
;
_shelx_res_checksum              20792
_shelx_hkl_file
;
   0   0  -2 65.3679 11.0669   4
   0   0   2 85.1454 10.8667   4
   0   0  -3 443.434 27.0797   4
   0   0   3 530.532 28.7169   4
   0   0   4 5938.17 120.976   4
   0   0  -4 6194.98 122.788   4
   0   0   5 3640.22 98.8867   4
   0   0  -5 3709.12 100.445   4
   0   0   6 1135.06 57.3754   4
   0   0  -6 1171.99 60.3289   4
   0   0   7 456.520 40.3963   4
   0   0  -7 470.048 44.5634   4
   0   0   8 3962.97 126.253   4
   0   0  -8 4004.08 128.824   4
   0   0  -9 47.9764 26.2956   4
   0   0   9-19.0210 17.1960   4
   0   0  10 188.026 34.2794   4
   0   0 -10 170.565 35.5213   4
   0   0 -11 1217.38 82.4572   4
   0   0  11 1200.41 80.8741   4
   0   0  12 1861.15 104.124   4
   0   0 -12 1939.86 108.962   4
   0   0 -13 894.265 77.0069   4
   0   0 -14 3468.01 157.885   4
   0   0 -15 26.3137 31.3472   4
   0   0 -16 2764.33 150.774   4
   0   0 -17 3612.83 181.089   4
   0   0 -18 1806.12 131.968   4
   0   0 -19 1260.41 117.472   4
   0   0 -20 1502.48 130.189   4
   0   0 -21 8675.03 327.377   4
   0   1 -21 3600.89 209.783   4
   0   1 -20 144.101 52.3932   4
   0   1 -19 3693.92 200.678   4
   0   1 -18 1383.35 119.335   4
   0   1 -17 331.523 59.2766   4
   0   1 -16 3920.95 185.156   4
   0   1 -15 2003.38 127.230   4
   0   1 -14 7579.42 244.894   4
   0   1 -13 319.141 53.1970   4
   0  -1  12 3813.71 154.518   4
   0   1 -12 3473.99 149.148   4
   0   1 -11 790.085 68.0322   4
   0  -1  11 777.261 66.7708   4
   0   1 -10 341.000 45.4834   4
   0  -1  10 349.334 43.3592   4
   0  -1   9 3254.75 124.002   4
   0   1  -9 3039.85 122.181   4
   0   1  -8 3801.65 129.029   4
   0  -1   8 3802.32 128.099   4
   0  -1   7 1558.00 76.7026   4
   0   1  -7 1714.95 81.4225   4
   0  -1   6 446.019 40.3614   4
   0   1  -6 393.594 40.8051   4
   0   1  -5 56.3560 25.7187   4
   0  -1   5 29.9062 16.3026   4
   0   1  -4 477.690 35.0639   4
   0  -1   4 511.076 35.5245   4
   0  -1   3 2372.38 66.9865   4
   0   1  -3 2312.27 67.5412   4
   0  -1   2 4.23818 10.3108   4
   0   1  -2 7.54612 12.5674   4
   0  -1   1 4592.74 76.1548   4
   0   1  -1 4639.14 76.5383   4
   0   1   0 13912.0 177.654   2
   0   1   1 32382.0 378.024   1
   0   1   1 31980.7 376.895   2
   0   1   2 684.289 23.7024   4
   0  -1  -2 652.237 23.4934   4
   0   1   3 15655.8 213.902   4
   0  -1  -3 15848.9 213.149   4
   0   1   4 418.214 28.3435   4
   0  -1  -4 424.054 29.9234   4
   0   1   5 4011.77 98.4762   4
   0  -1  -5 3902.42 98.0968   4
   0   1   6 3307.15 96.3315   4
   0  -1  -6 3270.42 96.7771   4
   0   1   7 40068.4 545.633   4
   0  -1  -7 40240.1 545.741   4
   0   1   8 1506.57 73.6931   4
   0  -1  -8 1442.12 72.4340   4
   0  -1  -9 38485.6 561.464   4
   0   1   9 38694.5 561.925   4
   0   1  10 924.162 65.8144   4
   0  -1 -10 991.085 68.7416   4
   0   1  11 11783.7 266.818   4
   0  -1 -11 11638.3 267.947   4
   0  -1 -12 2740.31 125.868   4
   0   1  12 2851.40 127.096   4
   0   1  13 4134.88 161.223   4
   0  -1 -13 4032.60 160.555   4
   0  -1 -14 2848.76 140.721   4
   0  -1 -15 1526.45 105.923   4
   0  -1 -16 504.847 65.9083   4
   0  -1 -17 4378.46 195.059   4
   0  -1 -18 1098.16 102.196   4
   0  -1 -19-27.2132 32.3444   4
   0  -1 -20 3883.37 203.907   4
   0  -1 -21 370.454 70.6822   4
   0  -1 -22 4512.84 234.210   4
   0   2 -20 4503.32 231.421   4
   0   2 -19 419.426 74.0110   4
   0   2 -18 4038.37 207.350   4
   0   2 -17-12.6477 29.4521   4
   0   2 -16 3819.21 186.964   4
   0   2 -15 172.255 45.5151   4
   0   2 -14-6.78956 27.6182   4
   0   2 -13 1167.73 91.5972   4
   0   2 -12 1399.49 95.5682   4
   0  -2  11 3949.50 155.214   4
   0   2 -11 3555.93 148.571   4
   0   2 -10 6182.85 191.548   4
   0  -2  10 6167.45 190.531   4
   0  -2   9 6684.20 190.913   4
   0   2  -9 6485.70 187.787   4
   0  -2   8 30257.0 479.079   4
   0   2  -8 29978.3 477.519   4
   0   2  -7 898.842 61.9032   4
   0  -2   7 892.933 60.1537   4
   0   2  -6 874.435 57.9295   4
   0  -2   6 974.844 59.0104   4
   0   2  -5 12373.0 226.971   4
   0  -2   5 11815.0 223.381   4
   0  -2   4 10350.0 193.091   4
   0   2  -4 10429.1 193.144   4
   0  -2   3 1392.81 56.1017   4
   0   2  -3 1489.27 58.0240   4
   0   2  -2 2733.01 71.3858   4
   0  -2   2 2691.92 71.2708   4
   0  -2   1 42.3715 13.4907   2
   0   2  -1 71.2843 15.2759   4
   0  -2   1 77.1241 13.5993   4
   0  -2   1 52.8508 13.9524   3
   0  -2   0 629.564 24.0806   4
   0   2   0 594.599 33.5105   2
   0  -2   0 640.187 25.0736   3
   0  -2   0 611.443 32.7952   1
   0  -2   0 650.911 32.8047   2
   0   2   0 664.070 25.5528   3
   0   2   1 243.585 24.5263   2
   0   2   1 198.707 15.0220   3
   0   2   1 224.023 21.8410   1
   0  -2  -1 215.418 15.5679   3
   0  -2  -1 240.434 21.4291   2
   0  -2  -1 241.691 21.5290   1
   0   2   2 50333.9 585.397   3
   0  -2  -2 50664.4 607.747   1
   0   2   2 50762.4 608.675   1
   0  -2  -2 50983.6 584.749   3
   0   2   2 50947.2 607.933   2
   0   2   3 4275.18 97.8810   1
   0  -2  -3 4222.26 78.6015   4
   0   2   3 4090.60 85.0063   3
   0   2   4 18238.3 255.051   4
   0  -2  -4 18811.7 253.969   4
   0   2   5 2426.60 71.7781   4
   0  -2  -5 2498.33 72.5429   4
   0  -2  -6 6281.16 135.490   4
   0   2   6 6200.79 134.190   4
   0   2   7 126.612 23.5113   4
   0  -2  -7 97.4223 22.5172   4
   0  -2  -8 2173.43 85.9095   4
   0   2   8 2139.33 85.9591   4
   0   2   9 12514.7 250.099   4
   0  -2  -9 12426.6 248.398   4
   0  -2 -10 8766.70 210.865   4
   0   2  10 9312.69 217.277   4
   0  -2 -11 812.929 64.8319   4
   0   2  11 836.963 64.9366   4
   0  -2 -12 201.956 37.6788   4
   0   2  12 236.943 38.1358   4
   0  -2 -13 8467.94 237.095   4
   0   2  13 8574.57 238.120   4
   0  -2 -14 13698.3 324.147   4
   0  -2 -15 45.7827 30.2450   4
   0  -2 -16 5218.78 203.077   4
   0  -2 -17 673.076 76.5712   4
   0  -2 -18 17.6178 31.7772   4
   0  -2 -19 137.824 42.3824   4
   0  -2 -20 2714.09 168.423   4
   0  -2 -21 2511.59 166.177   4
   0  -2 -22 30.5252 34.9007   4
   0   3 -20-26.1605 38.8216   4
   0   3 -19 446.390 77.0178   4
   0   3 -18 301.430 66.5258   4
   0   3 -17 1359.42 119.337   4
   0   3 -16 155.216 44.6419   4
   0   3 -15 2973.36 162.895   4
   0   3 -14 712.462 76.9620   4
   0   3 -13 181.052 40.5214   4
   0   3 -12 3100.27 147.304   4
   0   3 -11 5681.88 196.519   4
   0  -3  11 5999.59 201.156   4
   0   3 -10 28.3302 24.2662   4
   0  -3  10 28.3512 19.7268   4
   0   3  -9 6809.42 200.486   4
   0  -3   9 7308.19 206.337   4
   0  -3   8 53.2376 22.7624   4
   0   3  -8 12.1934 25.0371   4
   0   3  -7 54584.7 750.491   4
   0  -3   7 55098.8 751.732   4
   0  -3   6 7761.61 187.747   4
   0   3  -6 7688.50 185.872   4
   0   3  -5 3357.19 109.671   4
   0  -3   5 3533.80 112.633   4
   0  -3   4 16676.4 279.798   4
   0   3  -4 16703.1 277.234   4
   0   3  -3 1500.84 62.5623   4
   0  -3   3 1516.98 63.0252   4
   0  -3   2 3761.86 94.6687   4
   0  -3   2 3973.28 95.3795   3
   0  -3   2 3836.73 105.632   2
   0   3  -2 3755.62 93.6729   4
   0  -3   1 708.427 42.4695   2
   0   3  -1 786.792 48.0991   2
   0  -3   1 783.047 36.2605   4
   0  -3   1 742.462 36.2260   3
   0   3  -1 694.998 35.8451   4
   0  -3   0 10852.0 162.461   4
   0   3   0 10980.1 166.682   3
   0  -3   0 11259.9 194.745   1
   0  -3   0 10963.3 191.688   2
   0   3   0 11314.3 193.851   2
   0  -3   0 11024.4 166.406   3
   0  -3  -1 8903.59 164.227   1
   0   3   1 8799.61 163.085   1
   0  -3  -1 8880.85 163.603   2
   0  -3  -1 8755.20 137.297   3
   0   3   1 8648.56 138.152   3
   0   3   1 8807.29 163.765   2
   0  -3  -2 11615.8 171.128   3
   0  -3  -2 11426.9 196.618   2
   0   3   2 11242.7 196.828   1
   0   3   2 11349.4 170.265   3
   0   3   2 11489.4 197.947   2
   0  -3  -2 11479.1 198.931   1
   0  -3  -3 1443.48 50.5329   3
   0   3   3 1437.58 49.8327   3
   0  -3  -3 1566.35 64.8309   1
   0   3   3 1534.88 62.4696   1
   0   3   3 1441.26 62.1285   2
   0   3   4 37093.8 474.626   3
   0   3   4 37479.9 503.169   1
   0  -3  -4 37951.9 458.063   4
   0   3   5 16430.0 277.816   1
   0   3   5 16250.7 255.386   3
   0  -3  -5 16991.9 243.422   4
   0   3   6 25706.0 372.262   3
   0  -3  -6 26164.2 359.408   4
   0   3   6 25585.6 359.934   4
   0  -3  -7 771.865 47.0905   4
   0   3   7 732.676 45.1338   4
   0   3   8 4437.35 124.049   4
   0  -3  -8 4381.66 122.743   4
   0  -3  -9 11053.0 226.317   4
   0   3   9 11103.6 226.262   4
   0   3  10 5687.34 159.238   4
   0  -3 -10 5498.12 156.346   4
   0  -3 -11 364.835 44.8685   4
   0   3  11 308.589 41.0060   4
   0   3  12 4428.30 154.301   4
   0  -3 -12 4422.58 153.920   4
   0   3  13 1229.50 84.2147   4
   0  -3 -13 1103.51 79.4415   4
   0   3  14 6701.04 212.172   4
   0  -3 -14 6958.93 215.664   4
   0  -3 -15 1897.48 113.726   4
   0  -3 -16 34.5267 23.7604   4
   0  -3 -17 819.728 81.8385   4
   0  -3 -18 46.5237 27.0375   4
   0  -3 -19 725.232 85.9902   4
   0  -3 -20-23.6157 39.0781   4
   0  -3 -21 697.499 87.2567   4
   0  -3 -22 1163.71 118.457   4
   0  -3 -23 99.0750 51.3717   4
   0   4 -19 697.897 96.8131   4
   0   4 -18 1973.63 151.929   4
   0   4 -17 21.3098 34.6706   4
   0   4 -16 2561.19 161.379   4
   0   4 -15 981.728 97.6536   4
   0   4 -14 2033.88 135.183   4
   0   4 -13 1123.71 96.1051   4
   0   4 -12 7606.28 243.753   4
   0   4 -11 9712.58 271.092   4
   0  -4  10 430.601 54.7447   4
   0   4 -10 358.096 48.3624   4
   0   4  -9 4375.60 161.926   4
   0  -4   9 4295.04 160.180   4
   0  -4   8 2843.41 123.306   4
   0   4  -8 2785.51 122.040   4
   0  -4   7 4418.54 148.346   4
   0   4  -7 4254.36 144.828   4
   0  -4   6 4910.28 149.943   4
   0   4  -6 4764.57 146.294   4
   0   4  -5 15271.5 283.518   4
   0  -4   5 15595.9 287.040   4
   0   4  -4 66.6544 19.6797   4
   0  -4   4 91.0900 21.6791   4
   0  -4   4 81.0649 26.0760   2
   0   4  -3 10114.0 198.348   4
   0  -4   3 10385.8 197.033   3
   0  -4   3 10495.1 201.714   4
   0  -4   3 10536.2 217.802   2
   0  -4   2 6997.50 164.844   2
   0   4  -2 6542.29 141.258   4
   0  -4   2 6693.23 143.049   4
   0  -4   2 6845.73 141.371   3
   0  -4   1 15530.3 239.275   4
   0  -4   1 15653.8 271.780   2
   0  -4   1 15936.8 241.596   3
   0   4  -1 15851.9 271.475   2
   0  -4   0 15812.3 235.148   3
   0  -4   0 15955.6 270.314   2
   0   4   0 16288.8 274.451   2
   0  -4   0 16495.0 274.852   1
   0   4   0 15874.3 236.943   3
   0  -4   0 15824.1 230.513   4
   0  -4  -1 8386.48 174.433   2
   0  -4  -1 8552.80 145.933   3
   0  -4  -1 8536.05 177.045   1
   0   4   1 8506.01 178.273   2
   0   4   1 8244.96 144.508   3
   0  -4  -1 8200.87 135.280   4
   0   4   2 11309.0 216.799   1
   0   4   2 12060.5 220.530   2
   0   4   2 11238.8 181.027   3
   0  -4  -2 11638.8 184.217   3
   0  -4  -2 11817.2 220.204   1
   0  -4  -2 12001.7 220.041   2
   0   4   3 9970.43 169.176   3
   0   4   3 10503.0 204.196   2
   0   4   3 10170.7 202.340   1
   0  -4  -3 10039.2 170.206   3
   0  -4  -3 10557.5 205.406   1
   0   4   4 2482.54 92.8121   2
   0  -4  -4 2347.46 73.2029   3
   0  -4  -4 2397.96 62.3303   4
   0  -4  -4 2498.86 93.9799   1
   0   4   4 2290.92 89.5543   1
   0   4   4 2362.66 72.3759   3
   0   4   5 14933.6 244.937   3
   0   4   5 15440.7 278.685   1
   0  -4  -5 15651.8 228.204   4
   0   4   5 15644.6 278.254   2
   0   4   6 1611.54 67.1247   3
   0   4   6 1655.24 79.5448   1
   0  -4  -6 1612.56 59.5169   4
   0   4   7 1116.06 59.3356   3
   0   4   7 1290.27 73.5194   1
   0  -4  -7 1116.91 53.9545   4
   0  -4  -8 47.9518 16.7640   4
   0   4   8 93.4352 22.7912   3
   0   4   9 13816.3 271.645   3
   0  -4  -9 13946.6 256.381   4
   0   4   9 13587.1 256.144   4
   0   4  10 2936.20 108.799   4
   0   4  10 2906.85 115.999   3
   0  -4 -10 3055.01 110.263   4
   0   4  11 7506.51 195.309   4
   0  -4 -11 7614.72 194.082   4
   0  -4 -12 94.7867 27.7714   4
   0   4  12 50.2963 21.7461   4
   0  -4 -13 5853.05 183.927   4
   0   4  13 5738.96 184.977   4
   0   4  14 46.8948 24.6804   4
   0  -4 -14 230.297 42.6358   4
   0  -4 -15 3358.96 149.709   4
   0  -4 -16 270.709 45.5762   4
   0  -4 -17-46.6821 32.8378   4
   0  -4 -18 752.659 80.3377   4
   0  -4 -19 384.261 65.2041   4
   0  -4 -20 583.788 79.7264   4
   0  -4 -21 24.3322 37.6531   4
   0  -4 -22 10.4430 36.2822   4
   0  -4 -23 2508.61 171.977   4
   0   5 -18 3703.57 209.535   4
   0   5 -17 3372.11 196.874   4
   0   5 -16 141.231 52.3222   4
   0   5 -15 1186.19 109.586   4
   0   5 -14 404.611 67.8167   4
   0   5 -13 7421.37 258.000   4
   0   5 -12 7058.61 242.769   4
   0   5 -11 151.288 42.1164   4
   0   5 -10 105.750 35.3285   4
   0   5  -9 125.740 30.0395   4
   0  -5   9 79.0381 30.8719   4
   0  -5   8 352.571 45.9958   4
   0   5  -8 333.572 44.6928   4
   0  -5   7 3502.98 136.307   4
   0   5  -7 3263.01 130.720   4
   0   5  -6 4499.00 149.303   4
   0  -5   6 4896.55 162.347   2
   0  -5   6 4745.97 153.013   4
   0  -5   5 63.0390 21.8609   4
   0   5  -5 74.4322 25.1263   4
   0  -5   5 86.7166 23.1212   3
   0  -5   5 96.1419 24.4876   2
   0   5  -4 211.137 33.1999   4
   0  -5   4 222.948 30.3977   4
   0  -5   4 204.571 33.4964   2
   0  -5   4 177.433 28.8329   3
   0   5  -3 2764.52 97.3928   4
   0  -5   3 2940.80 100.655   4
   0  -5   3 3121.65 116.678   2
   0  -5   3 2928.92 97.8932   3
   0  -5   2 13161.6 232.134   3
   0  -5   2 13214.7 234.897   4
   0  -5   2 13348.8 264.599   2
   0  -5   1 1807.26 83.7732   2
   0   5  -1 1808.54 84.5138   2
   0  -5   1 1751.39 85.4419   1
   0  -5   1 1733.02 66.4351   4
   0  -5   1 1851.92 69.3597   3
   0  -5   0 405.555 40.8476   2
   0  -5   0 377.508 41.5005   1
   0  -5   0 399.872 29.2133   4
   0   5   0 436.323 44.4627   2
   0  -5   0 477.243 34.2766   3
   0  -5  -1-10.5757 15.6162   2
   0   5   1 18.1297 12.4742   3
   0   5   1-8.93680 23.8298   2
   0  -5  -1-3.08076 21.9934   1
   0  -5  -1-9.88470 13.1625   3
   0  -5  -1 0.78686 9.44233   4
   0  -5  -2 762.977 56.2732   1
   0  -5  -2 692.149 33.0962   4
   0   5   2 699.675 54.6738   2
   0  -5  -2 767.054 41.1050   3
   0  -5  -2 792.101 54.6749   2
   0   5   2 585.485 48.7118   1
   0   5   2 710.107 39.0699   3
   0  -5  -3 3187.32 110.207   2
   0   5   3 3099.52 112.615   2
   0   5   3 3227.36 113.667   1
   0   5   3 3034.28 84.8568   3
   0  -5  -3 3360.22 115.542   1
   0  -5  -3 3097.00 86.3705   3
   0  -5  -4 30271.7 412.528   3
   0   5   4 29484.2 409.977   3
   0  -5  -4 30520.1 463.819   1
   0   5   4 30679.3 464.455   1
   0   5   4 30385.8 461.784   2
   0   5   5 7928.58 162.327   3
   0  -5  -5 8193.28 145.213   4
   0   5   5 8510.70 201.852   1
   0   5   5 8554.72 201.004   2
   0   5   6 36421.8 504.988   3
   0   5   6 37360.7 556.236   1
   0  -5  -6 37183.3 477.662   4
   0   5   6 36989.9 552.205   2
   0   5   7 142.069 37.2610   2
   0   5   7 76.9039 24.0489   1
   0   5   7 109.774 21.5130   3
   0  -5  -7 137.457 20.6386   4
   0   5   8 2121.42 102.939   1
   0   5   8 1914.54 84.4060   3
   0  -5  -8 2059.49 77.0761   4
   0   5   9 13901.7 299.212   1
   0   5   9 13115.5 265.737   3
   0  -5  -9 13625.7 248.680   4
   0   5  10 168.953 30.1912   3
   0   5  10 157.111 32.6627   1
   0  -5 -10 218.903 31.5447   4
   0   5  11 648.428 59.4836   3
   0  -5 -11 664.679 53.2770   4
   0  -5 -12 33.7625 23.4912   4
   0   5  12 42.5266 22.2527   3
   0  -5 -13 346.407 43.7469   4
   0   5  13 405.408 51.4890   3
   0  -5 -14 1156.77 83.6994   4
   0   5  14 1277.94 89.8090   4
   0   5  15 1289.03 92.3924   4
   0  -5 -15 1408.36 95.5026   4
   0  -5 -16 143.927 37.9308   4
   0  -5 -17 27.5257 29.8719   4
   0  -5 -18 940.861 87.7037   4
   0  -5 -19 38.9457 30.5531   4
   0  -5 -20 49.7576 29.5977   4
   0  -5 -21 658.290 85.7356   4
   0  -5 -22 783.759 91.0343   4
   0  -5 -23 80.9978 42.1270   4
   0   6 -17 322.711 72.5856   4
   0   6 -16 10.8406 36.9613   4
   0   6 -15 970.256 104.229   4
   0   6 -14 23.3339 30.7476   4
   0   6 -13 2060.23 137.651   4
   0   6 -12 195.335 45.2159   4
   0   6 -11 3173.56 158.417   4
   0   6 -10 938.857 82.9795   4
   0   6  -9 4275.44 171.930   4
   0  -6   8 767.615 69.4174   4
   0   6  -8 664.035 67.1178   4
   0  -6   7 7142.67 210.424   4
   0  -6   7 7642.10 226.233   2
   0  -6   7 7377.64 208.454   3
   0   6  -7 7198.97 211.430   4
   0  -6   6 690.462 59.1388   3
   0   6  -6 535.271 54.4374   4
   0  -6   6 659.773 64.3772   2
   0  -6   6 633.301 57.2419   4
   0  -6   5 1488.10 82.1662   4
   0   6  -5 1406.30 81.3800   4
   0  -6   5 1544.82 93.3909   2
   0  -6   5 1332.98 76.5007   3
   0  -6   4 3189.07 116.218   4
   0   6  -4 2905.26 112.683   4
   0  -6   4 3044.79 110.672   3
   0  -6   4 3307.95 134.051   2
   0  -6   3 9405.28 207.600   4
   0  -6   3 9816.76 238.421   2
   0  -6   3 9602.51 205.422   3
   0  -6   2 98.3154 22.2899   3
   0  -6   2 32.9912 25.6964   1
   0  -6   2 48.2276 16.3801   4
   0  -6   2 116.979 29.7710   2
   0  -6   1 5179.66 129.882   4
   0   6  -1 5294.80 162.465   2
   0  -6   1 5405.31 166.258   1
   0  -6   1 5173.93 130.402   3
   0  -6   1 5269.07 162.648   2
   0   6   0 96.9123 26.9657   2
   0  -6   0 105.403 27.5048   2
   0  -6   0 102.770 28.6135   1
   0  -6   0 104.627 17.0160   4
   0  -6   0 102.224 20.4710   3
   0   6   1 570.730 38.8864   3
   0  -6  -1 626.646 36.8181   4
   0   6   1 644.951 57.6014   2
   0  -6  -1 614.618 55.4711   1
   0  -6  -1 597.457 39.6102   3
   0  -6  -1 580.564 51.6434   2
   0  -6  -2 674.365 36.2097   4
   0   6   2 561.141 38.1168   3
   0  -6  -2 649.511 41.0729   3
   0  -6  -2 591.280 54.7653   1
   0  -6  -2 597.810 51.4448   2
   0   6   2 715.366 59.1242   2
   0   6   3 1432.56 81.8113   2
   0   6   3 1552.80 84.9733   1
   0  -6  -3 1421.97 60.9560   3
   0  -6  -3 1440.04 81.4815   1
   0  -6  -3 1404.54 50.8251   4
   0   6   3 1387.35 60.4545   3
   0  -6  -3 1567.27 82.9517   2
   0   6   4 55.9772 23.0026   1
   0  -6  -4 54.6323 23.5573   1
   0  -6  -4 86.5083 19.6427   3
   0   6   4 29.6332 24.0415   2
   0   6   4 42.8952 15.0728   3
   0   6   5 2218.72 80.6123   3
   0  -6  -5 2374.90 109.272   1
   0  -6  -5 2319.63 67.7551   4
   0  -6  -5 2310.38 83.2876   3
   0   6   5 2326.01 107.374   2
   0   6   5 2335.31 106.752   1
   0   6   6 307.558 46.0708   2
   0  -6  -6 356.726 28.2217   4
   0   6   6 417.451 46.7607   1
   0   6   6 310.633 31.5867   3
   0   6   7 3489.19 112.365   3
   0   6   7 3493.44 138.477   2
   0  -6  -7 3623.94 96.9510   4
   0   6   7 3754.38 143.832   1
   0   6   8 111.622 22.4242   3
   0  -6  -8 96.7143 19.2745   4
   0   6   8 117.902 32.6084   1
   0   6   8 90.0430 33.6139   2
   0  -6  -9 5886.56 143.566   4
   0   6   9 5791.87 189.767   2
   0   6   9 5632.55 161.441   3
   0   6   9 6006.31 193.014   1
   0   6  10 34.7390 20.3859   3
   0  -6 -10 65.1045 21.0283   4
   0   6  10 93.5156 36.0820   2
   0   6  10 32.3732 22.8105   1
   0  -6 -11 286.807 36.8175   4
   0   6  11 290.091 41.3468   3
   0   6  12 4054.62 153.889   3
   0  -6 -12 4364.44 142.806   4
   0  -6 -13 456.040 49.2754   4
   0   6  13 438.105 53.4774   3
   0  -6 -14 318.407 44.9396   4
   0  -6 -15 7789.81 228.703   4
   0  -6 -16 276.385 48.5268   4
   0  -6 -17 4396.47 182.175   4
   0  -6 -18 3980.88 179.183   4
   0  -6 -19 309.545 55.5951   4
   0  -6 -20 2656.38 162.691   4
   0  -6 -21 357.478 63.7500   4
   0  -6 -22 77.2154 39.3991   4
   0  -6 -23-66.8251 44.0526   4
   0   7 -16 398.853 73.5841   4
   0   7 -15 1372.56 123.600   4
   0   7 -14 733.604 90.1525   4
   0   7 -13 51.9332 36.3203   4
   0  -7  12 217.923 47.0869   3
   0   7 -12 165.520 43.8277   4
   0   7 -11 17.4458 25.2446   4
   0  -7  11 26.5146 28.6654   3
   0   7 -10 3420.00 164.780   4
   0  -7  10 3575.09 164.142   3
   0   7  -9 403.072 58.5451   4
   0  -7   9 419.036 55.6790   3
   0  -7   8 537.922 59.5061   3
   0   7  -8 522.049 62.4587   4
   0   7  -7 1825.97 105.083   4
   0  -7   7 1906.78 107.868   4
   0  -7   7 2004.61 107.713   3
   0  -7   6 3593.57 138.499   3
   0   7  -6 3619.60 144.121   4
   0  -7   6 3623.83 144.045   4
   0  -7   5 2385.87 107.021   3
   0  -7   5 2326.63 109.570   4
   0  -7   4 29192.8 466.940   3
   0  -7   4 30405.5 522.222   2
   0  -7   4 29032.9 473.642   4
   0  -7   3 97.6423 27.2516   3
   0  -7   3 80.0548 29.8111   2
   0  -7   3 4.29608 23.7431   1
   0  -7   3 40.2603 21.1467   4
   0  -7   2 220.968 32.3114   3
   0  -7   2 188.045 27.9535   4
   0  -7   2 201.663 37.4764   2
   0  -7   2 212.541 41.5354   1
   0  -7   1 3503.43 139.215   2
   0  -7   1 3397.33 107.881   4
   0  -7   1 3217.04 106.425   3
   0  -7   1 3352.90 139.422   1
   0  -7   0 1178.29 78.6965   2
   0  -7   0 1066.51 77.6471   1
   0  -7   0 1059.29 59.0328   3
   0   7   0 1185.47 81.3439   2
   0  -7   0 1102.57 56.0331   4
   0  -7  -1 2306.15 76.7747   4
   0  -7  -1 2295.41 109.553   2
   0   7   1 2295.56 113.495   2
   0  -7  -1 2212.16 110.801   1
   0  -7  -1 2221.25 82.4784   3
   0  -7  -2 5652.51 139.243   3
   0  -7  -2 5634.41 180.631   1
   0  -7  -2 6038.83 183.233   2
   0   7   2 5868.43 183.621   2
   0  -7  -2 5511.18 121.843   4
   0   7   2 5646.28 138.272   3
   0  -7  -3 490.466 39.0834   3
   0  -7  -3 555.984 52.7042   2
   0  -7  -3 549.036 56.4653   1
   0   7   3 481.830 37.5437   3
   0  -7  -3 539.745 33.4058   4
   0   7   3 571.712 58.4360   2
   0   7   4 899.382 52.5898   3
   0   7   4 981.400 73.3698   1
   0   7   4 1044.14 77.5371   2
   0  -7  -4 868.190 69.3489   1
   0  -7  -4 979.584 42.7499   4
   0  -7  -4 861.849 51.1923   3
   0  -7  -5 110.676 36.2853   1
   0  -7  -5 70.8709 15.7665   4
   0  -7  -5 92.9532 22.2860   3
   0   7   5 71.3515 17.1032   3
   0   7   5 118.632 30.3750   1
   0   7   5 9.66328 26.0297   2
   0  -7  -6 265.067 25.1358   4
   0   7   6 297.605 32.8029   3
   0   7   6 296.496 46.1029   2
   0   7   6 417.794 50.1644   1
   0   7   7 157.706 33.9034   1
   0   7   7 136.494 34.2374   2
   0   7   7 85.1970 21.3504   3
   0  -7  -7 106.170 18.8499   4
   0   7   8 3004.72 108.843   3
   0  -7  -8 3170.39 94.7000   4
   0   7   8 3092.16 139.060   2
   0   7   8 3036.66 138.535   1
   0   7   9 14.5041 15.0644   3
   0  -7  -9 7.29612 13.6683   4
   0   7   9 69.1424 33.0727   2
   0   7  10 29.8024 18.6457   3
   0  -7 -10 6.51245 14.2665   4
   0   7  10 7.43590 27.5743   2
   0   7  11 442.149 49.5904   3
   0   7  11 500.537 63.0321   2
   0  -7 -11 387.028 39.2684   4
   0  -7 -12 44.1305 23.1336   4
   0   7  12 74.2344 29.8670   3
   0   7  12 61.6861 37.0288   2
   0  -7 -13 902.299 66.8658   4
   0   7  13 688.517 65.4753   3
   0   7  13 689.339 77.2835   2
   0  -7 -14 2111.68 106.737   4
   0  -7 -15 8721.16 239.778   4
   0  -7 -16 63.9504 32.1123   4
   0  -7 -17 1998.53 119.125   4
   0  -7 -18 5149.87 201.266   4
   0  -7 -19 1455.07 109.404   4
   0  -7 -20 14.4641 30.4399   4
   0  -7 -21-31.8387 31.3673   4
   0  -8  16 63.8299 43.9382   3
   0   8 -16 16.7374 31.4447   4
   0  -8  15 136.932 49.3405   3
   0   8 -15 144.166 58.7403   4
   0  -8  14 485.203 74.7004   3
   0   8 -14 481.797 77.6450   4
   0  -8  13 1959.67 136.675   3
   0   8 -13 2032.25 145.800   4
   0  -8  12 199.576 48.6311   3
   0   8 -12 151.253 44.5644   4
   0  -8  11 0.82076 26.8629   3
   0   8 -11-34.8921 33.0565   4
   0  -8  10 47.8386 31.5497   3
   0   8 -10 22.5154 26.1602   4
   0  -8   9 2853.48 142.930   3
   0   8  -9 2469.97 140.034   4
   0   8  -8 116.689 32.9006   4
   0  -8   8 168.626 40.3549   3
   0  -8   7 48.8861 25.8391   3
   0  -8   6 244.153 42.3718   3
   0  -8   6 279.309 42.4543   4
   0  -8   5 4566.92 161.856   4
   0  -8   5 4593.13 158.870   3
   0  -8   4-38.0804 24.5969   3
   0  -8   4 9.15009 20.3135   4
   0  -8   4-23.3996 28.9144   1
   0  -8   3 11794.4 304.374   1
   0  -8   3 11777.7 253.741   3
   0  -8   3 11409.3 252.781   4
   0  -8   2 870.810 59.5536   4
   0  -8   2 758.154 72.9787   1
   0  -8   2 894.437 61.2446   3
   0  -8   1 13588.7 320.756   1
   0  -8   1 13566.7 259.533   4
   0  -8   1 13614.5 263.149   3
   0  -8   0 8457.06 183.248   4
   0   8   0 8700.46 244.270   2
   0  -8   0 8520.26 244.308   1
   0  -8   0 8419.18 190.258   3
   0  -8  -1 2.58362 21.0870   2
   0  -8  -1 20.5700 28.4022   1
   0   8   1 66.5513 30.4813   2
   0  -8  -1 92.1088 25.6614   4
   0  -8  -1 58.2095 19.8232   3
   0  -8  -2 23.7110 19.5709   3
   0  -8  -2 19.4098 12.1188   4
   0   8   2 18.7509 26.2668   2
   0  -8  -2 22.9725 25.1085   1
   0  -8  -2 38.0112 22.7591   2
   0   8   2 5.93164 15.7206   3
   0   8   3 1109.58 62.6533   3
   0  -8  -3 1060.26 82.8762   1
   0  -8  -3 999.761 46.6504   4
   0  -8  -3 973.382 58.2164   3
   0  -8  -3 993.379 78.3015   2
   0   8   3 1014.88 82.0570   2
   0  -8  -4 5953.09 150.522   3
   0  -8  -4 6157.40 201.634   1
   0   8   4 6026.49 199.150   2
   0  -8  -4 6027.31 122.088   4
   0   8   4 5843.07 149.009   3
   0  -8  -5 24.5629 12.6580   4
   0   8   5-0.43453 15.4466   3
   0   8   5-31.1529 30.9841   2
   0  -8  -5 10.0726 9.72710   4
   0  -8  -5 22.4811 31.2249   1
   0  -8  -5-1.79321 17.1948   3
   0   8   6 420.990 39.3574   3
   0  -8  -6 392.227 29.4965   4
   0   8   6 461.704 57.8665   2
   0   8   7 2954.42 107.068   3
   0   8   7 3326.17 149.792   2
   0  -8  -7 3037.24 85.1916   4
   0   8   8 3923.80 166.687   2
   0   8   8 3646.22 125.315   3
   0  -8  -8 3699.03 99.7153   4
   0  -8  -9 689.441 44.5779   4
   0   8   9 720.859 56.5603   3
   0   8   9 690.267 74.2412   2
   0   8  10 474.521 48.3990   3
   0  -8 -10 492.023 40.7002   4
   0   8  10 454.132 64.0206   2
   0   8  11 773.116 80.8708   2
   0  -8 -11 697.596 52.9911   4
   0   8  11 521.374 53.7209   3
   0   8  12 1519.51 113.538   2
   0   8  12 1460.90 91.2244   3
   0  -8 -12 1548.63 79.1842   4
   0   8  13 979.135 95.4130   2
   0  -8 -13 1124.83 70.6907   4
   0  -8 -14 1378.61 82.4992   4
   0   8  14 1189.97 106.920   2
   0  -8 -15 1352.71 87.0188   4
   0   8  15 1386.79 117.694   2
   0  -8 -16 2358.24 119.792   4
   0   8  16 2111.63 147.041   2
   0  -8 -17 747.365 71.5232   4
   0   8  17 773.185 95.0680   2
   0   8  18 1453.17 127.091   2
   0  -9  15 78.6489 38.9842   3
   0  -9  14 453.161 72.0192   3
   0   9 -14 415.010 79.0004   4
   0   9 -13 18.4210 34.0071   4
   0  -9  13-0.71633 28.1378   3
   0  -9  12 210.921 49.2137   3
   0   9 -12 113.674 43.2582   4
   0  -9  11 320.725 62.1621   3
   0  -9  10 15.5125 37.1782   3
   0  -9   9 1814.69 117.378   3
   0  -9   8 4795.95 187.701   3
   0  -9   7-1.94670 23.0468   3
   0  -9   6 162.643 37.9782   3
   0  -9   6 208.155 49.3758   1
   0  -9   5 1858.65 104.679   4
   0  -9   5 1941.39 106.311   3
   0  -9   5 1818.55 125.129   1
   0  -9   4 819.340 66.9567   3
   0  -9   4 771.913 65.1533   4
   0  -9   4 690.307 78.4174   1
   0  -9   3 1047.38 92.0918   1
   0  -9   3 878.933 64.4573   4
   0  -9   3 879.767 66.7023   3
   0  -9   2 2184.44 98.9173   4
   0  -9   2 2183.88 128.385   1
   0  -9   2 2367.75 104.379   3
   0  -9   1 1529.42 77.8082   4
   0  -9   1 1640.92 84.1928   3
   0  -9   1 1558.61 108.239   1
   0  -9   0 1428.72 70.9136   4
   0  -9   0 1411.76 74.6935   3
   0  -9   0 1478.37 104.378   1
   0  -9  -1 175.436 24.9377   4
   0  -9  -1 162.641 42.1753   1
   0  -9  -1 125.447 24.5454   3
   0   9   1 163.953 41.5459   2
   0   9   2 5.90943 31.8319   2
   0  -9  -2 26.6611 20.5791   3
   0  -9  -2 0.83311 26.8993   1
   0  -9  -2-2.57049 13.5380   4
   0  -9  -3 5.78057 27.6855   1
   0  -9  -3 35.2046 12.7213   4
   0   9   3 64.1235 20.5573   3
   0   9   3-13.1985 29.2049   2
   0  -9  -3 28.8771 17.3750   3
   0  -9  -4 14.5670 25.3861   1
   0   9   4 15.3163 16.6044   3
   0  -9  -4-4.82520 15.9947   3
   0   9   4-1.81003 37.7454   2
   0  -9  -4 13.7027 9.67723   4
   0  -9  -5 439.980 59.8696   1
   0  -9  -5 357.544 25.7548   4
   0   9   5 333.099 35.9169   3
   0  -9  -5 386.769 39.9052   3
   0   9   5 437.670 69.8753   2
   0  -9  -5 327.642 25.4877   4
   0   9   6 27.6731 16.9787   3
   0  -9  -6-0.14685 9.68669   4
   0   9   6 39.8777 28.7651   2
   0  -9  -6 19.3283 11.5767   4
   0   9   7 1498.83 78.4187   3
   0  -9  -7 1540.80 53.9163   4
   0   9   7 1390.67 103.938   2
   0  -9  -7 1512.51 53.1718   4
   0  -9  -8 2026.62 65.4561   4
   0   9   8 2132.13 129.932   2
   0   9   8 1877.97 89.3112   3
   0   9   9 979.946 66.6355   3
   0  -9  -9 921.683 46.7267   4
   0   9   9 979.321 92.8315   2
   0   9  10 3167.83 129.982   3
   0   9  10 3193.90 164.450   2
   0  -9 -10 3343.68 98.6517   4
   0   9  11 2878.87 158.297   2
   0  -9 -11 2916.88 98.5308   4
   0   9  11 2867.61 124.006   3
   0  -9 -12 921.682 58.2618   4
   0   9  12 942.330 96.5814   2
   0   9  13 3404.36 180.313   2
   0   9  14 255.880 56.5972   2
   0   9  15 81.9796 40.9339   2
   0   9  16 867.055 100.184   2
   0   9  17 4157.64 215.977   2
   0   9  18 500.834 81.6892   2
   0 -10  13 1366.08 121.619   3
   0 -10  12 628.464 81.0319   3
   0 -10  11 1310.10 109.186   3
   0 -10  10 80.3099 37.8654   3
   0 -10   9 105.673 41.7200   3
   0 -10   8 762.182 77.3686   3
   0 -10   8 479.816 76.2980   1
   0 -10   7 131.508 47.3345   1
   0 -10   7 63.7067 28.5602   3
   0 -10   6-0.76156 27.0822   3
   0 -10   6-49.8619 40.4986   1
   0 -10   5 391.481 51.7328   3
   0 -10   5 315.326 60.7991   1
   0 -10   4 3790.61 188.428   1
   0 -10   4 3679.82 144.941   3
   0 -10   3 1134.43 101.838   1
   0 -10   3 1324.20 83.4941   3
   0 -10   2 331.727 44.2315   3
   0 -10   2 225.530 47.6730   1
   0 -10   1 188.106 33.4343   3
   0 -10   1 277.356 55.1152   1
   0 -10   0 1743.10 122.515   1
   0 -10   0 1787.27 90.3561   3
   0 -10  -1 772.391 59.3252   3
   0  10   1 644.434 76.9969   2
   0 -10  -1 675.104 76.4979   1
   0 -10  -2 2355.24 139.931   1
   0  10   2 2233.53 134.974   2
   0 -10  -2 2260.62 96.8838   3
   0  10   3 26.5349 38.5459   2
   0 -10  -3 90.0302 20.3172   3
   0 -10  -3 83.1660 31.1050   1
   0 -10  -4 4071.67 131.207   3
   0  10   4 3733.63 178.472   2
   0 -10  -4 4098.11 184.073   1
   0  10   5 564.557 74.1217   2
   0 -10  -5 561.845 68.7336   1
   0  10   6 430.048 64.9669   2
   0  10   7 1215.06 104.678   2
   0  10   8 5972.09 232.614   2
   0  10   9 14.3261 34.0699   2
   0  10  10 76.8589 37.8555   2
   0  10  11 1439.76 117.540   2
   0  10  12 1411.20 118.470   2
   0  10  13 1291.46 113.913   2
   0  10  14 209.702 54.6990   2
   0  10  15 64.3866 42.7856   2
   0  10  16 103.516 43.7332   2
   0  10  17 515.023 86.8348   2
   0 -11   9 450.039 80.4570   1
   0 -11   8 553.760 86.4934   1
   0 -11   7 269.269 61.2594   1
   0 -11   6 405.279 75.4331   1
   0 -11   5 865.411 99.7619   1
   0 -11   4 2265.19 152.064   1
   0 -11   3 1880.97 136.258   1
   0 -11   2 3.50102 31.1777   1
   0 -11   1 658.799 83.9579   1
   0 -11   0 803.503 90.1194   1
   0 -11  -1 3231.63 174.834   1
   0 -11  -2 10.6695 31.9846   1
   0  11   2 5.77480 33.8692   2
   0 -11  -3 3311.67 174.267   1
   0  11   3 3101.49 170.031   2
   0  11   4 343.270 62.0441   2
   0 -11  -4 317.798 55.1785   1
   0  11   5 5115.04 223.677   2
   0 -11  -5 5339.77 224.991   1
   0  11   6 16.8637 32.1280   2
   0  11   7 202.181 53.5808   2
   0  11   8 1250.93 111.998   2
   0  11   9 2054.82 143.237   2
   0  11  10 137.358 47.6238   2
   0  11  11 99.3860 45.0682   2
   0  11  12 276.428 58.0211   2
   0  11  13 1093.65 112.382   2
   0  11  14 13.2585 36.0279   2
   0  11  15-6.35946 43.5126   2
   0 -12   6-5.34006 32.8681   1
   0 -12   5 21.1026 28.4981   1
   0 -12   4 180.075 48.9648   1
   0 -12   3 35.9032 32.2543   1
   0 -12   2-15.0511 30.7846   1
   0 -12   1 599.960 82.4759   1
   0 -12   0 1799.46 137.347   1
   0 -12  -1 624.291 83.2909   1
   0 -12  -2 2266.94 153.161   1
   0  12   3 517.501 80.4494   2
   0 -12  -3 430.409 69.4747   1
   0 -12  -4 117.688 42.6742   1
   0  12   4 40.9854 37.6134   2
   0  12   5 98.6767 35.6494   2
   0 -12  -5 87.9195 32.6631   1
   0  12   6 2117.04 149.998   2
   0  12   7 183.930 53.3728   2
   0  12   8 164.626 52.1898   2
   0  12   9-17.0235 34.0399   2
   0  12  10 1083.77 111.864   2
   0  12  11 601.914 86.7094   2
   0  12  12 43.1021 35.0434   2
   0 -13   1 444.467 77.3552   1
   0 -13   0 193.389 50.5314   1
   0 -13  -1 1587.37 134.475   1
   0 -13  -2 1061.00 111.490   1
   0 -13  -3 4.62102 33.2014   1
   0 -13  -4 198.284 53.0397   1
   0  13   4 68.3816 42.6501   2
   0  13   5 3300.87 195.768   2
   0  13   6 2101.00 157.571   2
   0  13   7 303.060 68.4733   2
   0  13   8 618.890 91.8921   2
  -1  13   9 52.5210 38.8944   2
  -1  13   8 338.297 66.9475   2
  -1  13   7 393.565 68.7209   2
  -1  13   6 376.683 70.7146   2
  -1  13   5 28.8523 36.2685   2
   1 -13  -2 154.930 47.8577   1
   1 -13  -1 683.239 85.4777   1
  -1  12  14 257.181 62.8384   2
  -1  12  13 505.469 76.5854   2
  -1  12  12 3291.16 189.538   2
  -1  12  11 2984.38 178.269   2
  -1  12  10 16.0544 30.0400   2
  -1  12   9 105.061 38.8843   2
  -1  12   8 107.190 40.8848   2
  -1  12   7 3097.63 174.872   2
  -1  12   6 883.199 93.5281   2
  -1  12   5 167.075 48.6315   2
  -1  12   4 116.377 44.6140   2
   1 -12  -3 24.8734 33.9961   1
   1 -12  -2 643.891 78.0873   1
   1 -12  -1 889.746 92.3830   1
   1 -12   0 43.6896 32.5100   1
   1 -12   1 2720.94 159.847   1
   1 -12   2 638.916 82.0240   1
   1 -12   3 35.2105 35.1999   1
   1 -12   4 278.436 60.9682   1
   1 -12   5 1224.19 112.293   1
   1 -12   6 36.8835 31.8335   1
   1 -12   7 356.144 67.4544   1
  -1  11  16 333.440 68.6532   2
  -1  11  15 95.2592 41.0726   2
  -1  11  14-4.46577 34.3982   2
  -1  11  13 29.6093 36.7009   2
  -1  11  12 494.587 74.5682   2
  -1  11  11 429.470 67.2205   2
  -1  11  10 52.3816 36.3832   2
  -1  11   9 589.762 77.2324   2
  -1  11   8 2532.52 152.111   2
  -1  11   7 717.032 83.7688   2
   1 -11  -6 3707.97 159.588   3
  -1  11   6 3390.79 171.673   2
  -1  11   5 726.512 82.3777   2
   1 -11  -5 878.222 76.3621   3
  -1  11   4 97.0894 33.3323   2
   1 -11  -4 171.316 38.5109   3
   1 -11  -3 2177.56 120.760   3
  -1  11   3 2149.21 131.902   2
   1 -11  -3 2310.08 136.904   1
   1 -11  -2 1224.00 90.8369   3
   1 -11  -2 1288.52 101.103   1
   1 -11  -1 49.2564 29.8688   3
   1 -11  -1 19.3446 30.7531   1
   1 -11   0 90.9541 32.5057   3
   1 -11   0 82.4110 39.1413   1
   1 -11   1 288.099 50.4136   3
   1 -11   1 280.966 53.3413   1
   1 -11   2 1288.26 96.5485   3
   1 -11   2 1352.91 109.267   1
   1 -11   3 447.375 61.4927   3
   1 -11   3 571.703 74.1599   1
   1 -11   4 431.655 60.2669   3
   1 -11   4 358.191 62.5920   1
   1 -11   5 57.4787 37.7725   3
   1 -11   5 120.926 42.4126   1
   1 -11   6 542.193 68.7237   3
   1 -11   6 642.612 81.0642   1
   1 -11   7 1152.51 108.637   1
   1 -11   7 1096.51 99.4224   3
   1 -11   8 390.314 71.3398   1
   1 -11   8 407.988 70.3386   3
   1 -11   9 1503.39 131.212   1
   1 -11   9 1445.41 118.134   3
   1 -11  10 2716.85 166.719   3
   1 -11  10 2775.30 178.332   1
  -1  10  17 167.082 51.2291   2
  -1  10  16 41.0738 35.6070   2
  -1  10  15 1096.41 110.118   2
  -1  10  14 529.998 78.4985   2
  -1  10  13 250.195 54.8069   2
  -1  10  12 16.9609 29.2131   2
  -1  10  11 410.239 65.4226   2
  -1  10  10 372.462 59.4463   2
  -1  10   9 3138.80 161.567   2
   1 -10  -9 3381.52 129.663   4
   1 -10  -8 148.658 31.4195   4
  -1  10   8 86.4907 36.3895   2
   1 -10  -7 6510.64 212.153   3
   1 -10  -7 6808.49 185.329   4
  -1  10   7 6165.99 223.833   2
  -1  10   6 341.014 52.3880   2
   1 -10  -6 284.155 46.3160   3
  -1  10   5 697.493 74.8821   2
   1 -10  -5 813.476 72.5736   3
   1 -10  -4-42.4444 29.8953   3
  -1  10   4-20.3364 29.0057   2
  -1  10   3 6551.81 222.603   2
   1 -10  -3 6718.03 224.430   1
   1 -10  -3 6446.67 205.873   3
   1 -10  -2 2528.00 134.466   1
   1 -10  -2 2615.42 127.567   3
  -1  10   2 2559.09 136.637   2
   1 -10  -1 4016.42 173.174   1
   1 -10  -1 4096.02 161.700   3
   1 -10   0 1213.83 95.9510   1
   1 -10   0 1270.70 89.6272   3
   1 -10   1-13.4015 20.5310   3
   1 -10   1 31.0213 30.4536   1
   1 -10   2 602.708 70.1928   1
   1 -10   2 608.480 67.0169   3
   1 -10   3 766.022 80.3504   1
   1 -10   3 735.576 73.8520   3
   1 -10   4 2139.51 131.478   1
   1 -10   4 2271.45 128.146   3
   1 -10   5 8.57928 22.8739   3
   1 -10   5 8.11355 28.6795   1
   1 -10   6-12.9196 30.4716   3
   1 -10   6 50.9586 35.7599   1
   1 -10   7 1410.36 113.839   1
   1 -10   7 1409.49 108.636   3
   1 -10   8 273.460 55.3151   3
   1 -10   8 279.369 59.3349   1
   1 -10   9 714.759 84.8717   3
   1 -10   9 521.607 74.7372   1
   1 -10  10 1013.84 102.031   3
   1 -10  11 1232.71 114.717   3
   1 -10  12-38.2071 36.0539   3
   1 -10  13 927.863 104.864   3
  -1   9  18 301.655 69.6251   2
  -1   9  17 866.045 100.351   2
  -1   9  16 170.629 46.9324   2
   1  -9 -15 132.390 39.6183   4
  -1   9  15 31.6289 36.2356   2
   1  -9 -14 2716.28 133.041   4
  -1   9  14 2311.20 146.691   2
   1  -9 -13 609.598 61.5453   4
  -1   9  13 381.380 62.2382   2
   1  -9 -12 467.807 55.1762   4
  -1   9  12 381.176 61.5299   2
   1  -9 -11 116.993 34.2649   4
  -1   9  11 149.530 39.2087   2
   1  -9 -10 2752.36 121.429   4
  -1   9  10 2619.51 143.030   2
  -1   9   9 51.2854 36.5142   2
   1  -9  -9 54.0376 25.1967   4
   1  -9  -8 4353.50 147.336   4
  -1   9   8 3747.83 165.432   2
  -1   9   7 1290.37 94.4118   2
  -1   9   7 1181.16 84.0944   3
   1  -9  -7 1327.64 79.4023   4
   1  -9  -7 1341.12 91.1040   3
  -1   9   6 3689.66 149.498   3
   1  -9  -6 3708.37 151.209   3
  -1   9   6 3930.11 163.219   2
  -1   9   5 1596.56 95.7911   3
  -1   9   5 1490.08 100.081   2
   1  -9  -5 1689.39 98.7398   3
  -1   9   4 1381.57 87.1222   3
   1  -9  -4 1390.05 88.7501   3
  -1   9   4 1440.31 97.6469   2
   1  -9  -3 3.04611 22.0032   3
  -1   9   3-6.81918 19.8487   3
   1  -9  -3 35.1808 32.2936   1
   1  -9  -3 7.17829 14.2085   4
  -1   9   3-4.87161 25.9697   2
   1  -9  -2 480.648 56.6148   1
  -1   9   2 586.936 58.9303   3
  -1   9   2 535.004 61.0441   2
   1  -9  -2 524.008 51.3489   4
   1  -9  -2 563.750 59.0420   3
   1  -9  -1 851.417 76.8945   1
  -1   9   1 915.964 72.9951   3
   1  -9  -1 924.631 67.9869   4
  -1   9   1 869.920 76.0856   2
   1  -9  -1 897.428 72.4369   3
   1  -9  -1 901.919 74.1393   2
   1  -9   0-14.4976 26.3566   1
   1  -9   0 63.9963 30.4055   3
   1  -9   0 18.9696 21.4248   4
   1  -9   1 216.382 40.6029   3
   1  -9   1 163.638 32.2390   4
   1  -9   1 166.252 41.3097   1
   1  -9   2 1526.53 98.0225   3
   1  -9   2 1625.01 104.901   1
   1  -9   2 1560.74 95.0876   4
   1  -9   3 142.145 36.5542   4
   1  -9   3 85.8927 30.3418   3
   1  -9   3 53.1326 30.7311   1
   1  -9   4 22.3102 29.7560   3
   1  -9   4 36.8737 32.2239   1
   1  -9   5 2015.60 124.491   1
   1  -9   5 2011.17 119.438   3
   1  -9   6 2794.39 148.564   1
   1  -9   6 2765.09 143.537   3
   1  -9   7 7965.56 263.117   1
   1  -9   7 8315.00 265.207   3
   1  -9   8 524.745 69.6561   3
   1  -9   9 98.2677 40.2386   3
   1  -9  10 58.3833 33.3667   3
   1  -9  11 1511.12 122.247   3
   1  -9  12 101.520 43.0087   3
   1  -9  13 1534.04 129.910   3
   1  -9  14 863.958 101.517   3
   1  -8 -19 435.443 67.2598   4
   1  -8 -18 56.1093 32.7674   4
   1  -8 -17 1942.99 126.647   4
   1  -8 -16 355.959 56.1542   4
  -1   8  16 416.997 71.0323   2
  -1   8  15 1307.14 112.110   2
   1  -8 -15 1454.13 101.733   4
   1  -8 -14 1024.96 83.0997   4
  -1   8  14 978.344 94.8089   2
   1  -8 -13 555.749 62.0601   4
  -1   8  13 496.843 68.3650   2
   1  -8 -12 458.785 57.0712   4
  -1   8  12 526.461 70.8282   2
  -1   8  11 215.351 47.0225   2
   1  -8 -11 178.013 35.5928   4
   1  -8 -10 3200.96 130.431   4
  -1   8  10 2907.46 144.458   2
  -1   8   9 3.38790 24.9763   2
  -1   8   9 43.4984 23.8006   3
   1  -8  -9 12.7530 18.1730   4
  -1   8   8 74.4616 32.9273   2
  -1   8   8 22.6544 23.8936   3
   1  -8  -8 41.7033 21.8401   4
  -1   8   7 38.9199 25.4421   1
   1  -8  -7 12.6879 22.0120   3
  -1   8   7 37.5489 22.2704   3
  -1   8   7 25.3345 29.3917   2
   1  -8  -7 24.8730 20.9384   4
  -1   8   6 1636.87 98.2613   1
  -1   8   6 1538.30 90.5817   3
  -1   8   6 1642.97 98.5394   2
   1  -8  -6 1698.85 96.9939   3
  -1   8   5 1378.34 84.7893   3
  -1   8   5 1365.03 88.7212   2
  -1   8   5 1309.61 86.9442   1
   1  -8  -5 1299.13 84.2538   3
   1  -8  -4 666.284 60.2943   3
  -1   8   4 677.035 59.5178   3
  -1   8   4 596.275 58.2793   2
  -1   8   3 1546.17 88.6864   3
   1  -8  -3 1588.10 91.1043   3
  -1   8   3 1727.50 98.6984   2
   1  -8  -3 1630.67 92.5441   1
  -1   8   2 412.238 45.6776   3
  -1   8   2 505.104 56.2344   2
   1  -8  -2 497.951 52.4094   3
   1  -8  -2 504.821 54.6345   1
   1  -8  -2 530.648 53.0702   2
   1  -8  -2 430.668 44.7668   4
   1  -8  -1 2893.22 126.170   1
   1  -8  -1 3054.04 125.938   2
   1  -8  -1 3002.51 118.687   4
  -1   8   1 2859.06 124.517   2
  -1   8   1 2792.21 120.619   3
   1  -8  -1 2858.40 121.978   3
   1  -8   0 1.55752 20.0850   3
   1  -8   0-6.76811 18.5522   2
   1  -8   0 23.5023 25.2789   1
   1  -8   0-3.97797 17.7601   4
  -1   8   0 7.65701 16.6164   3
   1  -8   1 2744.81 124.458   1
   1  -8   1 2535.14 116.867   2
   1  -8   1 2564.61 119.730   3
   1  -8   1 2713.25 118.113   4
   1  -8   2 3119.70 131.781   4
   1  -8   2 3236.59 134.384   2
   1  -8   2 3334.69 137.377   3
   1  -8   2 3154.09 134.837   1
   1  -8   3 2183.78 112.682   3
   1  -8   3 2142.54 112.078   4
   1  -8   3 2106.76 113.578   1
   1  -8   3 2229.61 112.499   2
   1  -8   4 1951.31 112.004   1
   1  -8   4 2105.99 111.725   2
   1  -8   4 1981.62 111.183   4
   1  -8   4 1945.25 108.637   3
   1  -8   5 167.350 41.6621   1
   1  -8   5 236.191 45.3136   3
   1  -8   6 2671.62 136.786   3
   1  -8   7-20.9674 30.3023   3
   1  -8   8-17.8510 31.2512   3
   1  -8   9 542.604 66.3960   3
   1  -8  10-9.11732 31.9056   3
   1  -8  11 636.049 79.4497   3
   1  -8  12 26.4491 36.1615   3
   1  -8  13 111.780 48.8919   3
   1  -8  14 1173.17 114.068   3
   1  -8  15-1.45031 29.7735   3
   1  -7 -22 195.948 57.3834   4
   1  -7 -21-25.8411 30.9279   4
   1  -7 -20 1751.37 134.109   4
   1  -7 -19 10.4467 28.3016   4
   1  -7 -18 811.400 85.6545   4
   1  -7 -17 160.388 45.0884   4
   1  -7 -16 832.357 80.9849   4
   1  -7 -15 190.818 42.2470   4
   1  -7 -14 6541.99 217.538   4
   1  -7 -13 3697.54 154.605   4
   1  -7 -12 13.6211 20.0466   4
   1  -7 -11 526.421 55.9501   4
  -1   7  11 500.808 62.4318   2
  -1   7  10 51.4624 25.4479   3
  -1   7  10 100.827 38.2185   2
   1  -7 -10 115.819 29.7292   4
  -1   7   9 219.071 36.0735   3
   1  -7  -9 247.970 37.1005   4
  -1   7   9 249.232 45.1355   2
  -1   7   9 425.382 51.9672   1
  -1   7   8 107.337 30.3619   2
  -1   7   8 228.913 39.9139   1
  -1   7   8 209.413 36.5687   3
   1  -7  -8 166.379 31.0644   4
  -1   7   7 938.175 73.4458   2
   1  -7  -7 1078.78 68.3772   4
  -1   7   7 1008.30 74.6640   1
  -1   7   7 961.436 71.2426   3
   1  -7  -7 1075.16 76.4350   3
  -1   7   6 2137.54 103.379   3
  -1   7   6 2152.04 105.573   2
   1  -7  -6 2334.30 108.745   3
  -1   7   6 2088.59 103.476   1
  -1   7   5 5017.26 162.019   1
  -1   7   5 5392.31 166.235   2
  -1   7   5 4922.56 158.348   3
   1  -7  -5 5176.41 163.280   3
  -1   7   4 1552.95 85.1684   3
  -1   7   4 1350.17 80.2504   1
   1  -7  -4 1523.53 85.1793   3
  -1   7   4 1340.61 79.6013   2
   1  -7  -3 26471.8 442.878   3
  -1   7   3 26822.0 439.556   2
  -1   7   3 26118.2 442.346   3
   1  -7  -3 26581.1 438.141   1
   1  -7  -2 622.270 54.4778   1
  -1   7   2 598.781 54.8787   2
  -1   7   2 542.850 49.9844   3
   1  -7  -2 605.067 53.9152   3
   1  -7  -2 591.412 50.8869   2
   1  -7  -1 3302.90 121.559   2
   1  -7  -1 3366.16 121.325   4
  -1   7   1 3328.07 125.816   3
   1  -7  -1 3488.48 127.562   1
  -1   7   1 3407.00 125.269   2
   1  -7  -1 3288.27 123.520   3
   1  -7   0 794.000 59.2912   4
   1  -7   0 821.984 62.9677   3
   1  -7   0 819.914 59.7313   2
  -1   7   0 753.835 59.9410   2
  -1   7   0 747.680 59.5759   3
   1  -7   0 763.038 60.4790   1
   1  -7   1 324.436 41.3364   4
   1  -7   1 371.063 46.5820   1
   1  -7   1 466.853 47.2370   2
  -1   7  -1 407.120 45.4839   3
   1  -7   1 314.255 41.9484   3
   1  -7   2 47.4467 18.4872   4
   1  -7   2 88.8085 29.7496   1
   1  -7   2 62.5046 22.0623   2
   1  -7   2 41.6224 23.1705   3
   1  -7   3 1491.90 88.9689   3
   1  -7   3 1627.35 91.7275   1
   1  -7   3 1632.90 89.4457   2
   1  -7   3 1500.39 88.6866   4
   1  -7   4 348.548 47.4706   4
   1  -7   4 280.750 43.4096   1
   1  -7   4 404.161 47.3500   2
   1  -7   4 322.009 43.8298   3
   1  -7   5 606.950 63.9126   3
   1  -7   5 666.263 65.0420   4
   1  -7   5 742.007 64.3912   2
   1  -7   6 54.1356 29.4642   4
   1  -7   6-13.0480 27.7679   3
   1  -7   6 25.6249 23.0613   2
   1  -7   7 1601.28 100.348   2
   1  -7   7 1547.25 102.659   3
   1  -7   8 509.211 62.5568   3
   1  -7   9-31.5241 26.2789   3
   1  -7  10 58.2156 34.2085   3
   1  -7  11-21.4055 30.4978   3
   1  -7  12 1256.22 108.422   3
   1  -7  13 498.568 72.8916   3
   1  -7  14 128.892 48.3587   3
   1  -7  15 1688.21 138.484   3
  -1   7 -15 1686.96 144.143   4
   1  -7  16 24.2461 30.4490   3
  -1   7 -16-30.4687 29.2897   4
   1  -6 -22 59.6259 40.2976   4
   1  -6 -21 3026.03 185.786   4
   1  -6 -20 894.942 99.4168   4
   1  -6 -19 3937.45 197.401   4
   1  -6 -18 38.3397 29.5024   4
   1  -6 -17 383.920 62.8463   4
   1  -6 -16 31.6865 26.5286   4
   1  -6 -15 2325.35 130.717   4
   1  -6 -14 6004.35 207.285   4
   1  -6 -13 392.278 53.9933   4
   1  -6 -12 346.516 48.3997   4
   1  -6 -11 1334.92 85.9002   4
   1  -6 -10 63.2779 25.0308   4
  -1   6  10 148.857 32.1189   3
  -1   6  10 142.899 32.2526   1
   1  -6  -9 2057.69 98.6755   4
  -1   6   9 1972.67 104.613   3
  -1   6   9 1876.06 101.385   1
  -1   6   8 431.942 52.3838   2
  -1   6   8 425.349 48.4807   1
   1  -6  -8 431.511 46.2384   4
  -1   6   8 444.015 51.1587   3
  -1   6   7 258.024 36.5221   3
   1  -6  -7 273.919 39.7191   3
   1  -6  -7 226.365 33.6449   4
  -1   6   7 227.315 38.4764   2
  -1   6   7 217.582 33.7999   1
  -1   6   6 1616.84 86.2939   3
  -1   6   6 1691.30 87.9362   2
  -1   6   6 1745.10 88.3935   1
   1  -6  -6 1631.46 88.4130   3
  -1   6   5 2413.95 103.986   3
  -1   6   5 2415.22 101.173   2
   1  -6  -5 2527.62 106.956   3
  -1   6   5 2336.10 99.5663   1
  -1   6   4 7184.82 180.463   1
  -1   6   4 7430.16 181.325   2
   1  -6  -4 7242.45 186.842   3
  -1   6   4 7004.46 182.745   3
  -1   6   3 473.714 43.6077   1
   1  -6  -3 453.448 46.2828   3
  -1   6   3 485.755 45.0187   3
   1  -6  -3 458.988 45.4568   1
  -1   6   3 470.676 45.2742   2
   1  -6  -2 32067.2 492.181   3
   1  -6  -2 32571.2 479.801   1
  -1   6   2 32390.3 478.947   2
  -1   6   2 32115.1 495.407   3
   1  -6  -1 2890.92 102.965   2
  -1   6   1 2781.04 108.466   3
  -1   6   1 2851.70 104.536   2
   1  -6  -1 3013.93 107.047   1
   1  -6  -1 2768.85 107.618   3
   1  -6   0 21506.3 371.209   3
   1  -6   0 21678.1 353.538   2
  -1   6   0 21485.5 369.731   3
   1  -6   0 20597.6 360.698   4
   1  -6   0 21927.8 359.153   1
  -1   6   0 21538.2 355.074   2
   1  -6   1 1978.04 86.1363   2
   1  -6   1 2024.90 92.0826   4
  -1   6  -1 2032.43 94.0979   3
   1  -6   1 2064.18 94.3410   3
   1  -6   1 1943.47 87.4767   1
   1  -6   2 572.565 50.7325   4
   1  -6   2 437.876 43.1500   2
   1  -6   2 501.507 48.3147   1
   1  -6   2 475.817 49.0000   3
   1  -6   3 2531.37 105.627   1
   1  -6   3 2807.59 114.850   4
   1  -6   3 2727.72 107.073   2
   1  -6   3 2710.05 114.251   3
   1  -6   4 6.64200 21.5409   3
   1  -6   4 12.4627 16.5651   2
   1  -6   4 30.3145 21.9937   4
   1  -6   5 3036.73 130.334   4
   1  -6   5 2715.56 121.678   3
   1  -6   5 3077.60 122.102   2
   1  -6   6 12932.9 299.434   3
   1  -6   6 13186.8 306.684   4
   1  -6   6 13888.8 295.173   2
   1  -6   7 2079.52 106.771   2
   1  -6   7 1995.50 110.816   3
   1  -6   7 1983.57 113.499   4
   1  -6   8 1293.91 87.0389   2
   1  -6   8 1273.43 92.2962   3
   1  -6   9 1390.38 99.6353   3
  -1   6 -10 319.724 54.7437   4
   1  -6  10 299.771 50.2887   3
   1  -6  11 414.074 62.3369   3
  -1   6 -11 400.804 63.8247   4
  -1   6 -12 171.074 48.2460   4
   1  -6  12 247.310 53.8059   3
  -1   6 -13 316.522 60.7897   4
   1  -6  13 465.546 70.9661   3
  -1   6 -14 69.2060 45.2446   4
   1  -6  14 109.740 49.0371   3
  -1   6 -15 362.828 70.0163   4
   1  -6  15 415.112 73.6882   3
   1  -6  16 3684.82 206.421   3
  -1   6 -16 3663.31 205.078   4
   1  -6  17 672.718 92.7038   3
  -1   6 -17 818.609 99.2412   4
   1  -5 -22 1430.74 133.016   4
   1  -5 -21 4845.40 235.716   4
   1  -5 -20 478.231 75.9848   4
   1  -5 -19 880.061 99.7121   4
   1  -5 -18 713.076 83.0349   4
   1  -5 -17 34.3935 29.7649   4
   1  -5 -16 911.589 86.4507   4
   1  -5 -15 2475.67 135.575   4
   1  -5 -14 2425.19 128.429   4
   1  -5 -13 608.140 63.7957   4
   1  -5 -12 554.082 59.5125   4
  -1   5  11 1110.89 82.4703   3
   1  -5 -11 1108.62 78.3943   4
   1  -5 -10 4373.87 151.657   4
  -1   5  10 4111.66 155.773   3
  -1   5   9 2978.45 126.096   3
   1  -5  -9 3014.95 119.338   4
  -1   5   8 1991.39 100.129   3
   1  -5  -8 1930.68 92.1322   4
  -1   5   8 1841.50 92.4278   1
  -1   5   7 2390.77 100.766   1
   1  -5  -7 2517.20 101.368   4
  -1   5   7 2496.16 108.251   3
   1  -5  -7 2542.68 108.372   3
  -1   5   6 12222.9 246.324   2
  -1   5   6 12253.4 247.278   1
   1  -5  -6 12301.5 258.382   3
  -1   5   6 11905.8 253.257   3
  -1   5   5 2805.04 101.910   2
   1  -5  -5 2917.73 110.364   3
  -1   5   5 2798.70 101.710   1
  -1   5   5 2772.53 106.433   3
  -1   5   4 5047.72 135.068   2
   1  -5  -4 5098.22 146.633   3
  -1   5   4 5059.03 146.156   3
  -1   5   4 4913.99 134.519   1
  -1   5   3 7900.96 171.525   2
  -1   5   3 7862.17 184.468   3
   1  -5  -3 8143.55 190.150   3
  -1   5   3 7684.36 171.254   1
  -1   5   2 672.755 44.7447   1
  -1   5   2 702.337 51.6616   3
   1  -5  -2 691.595 51.5814   3
  -1   5   2 794.322 49.9959   2
   1  -5  -2 648.773 45.9861   1
   1  -5  -1 2238.35 91.3152   3
   1  -5  -1 2397.85 83.7827   2
  -1   5   1 2551.14 88.2489   2
   1  -5  -1 2397.29 85.7926   1
  -1   5   1 2340.52 94.4598   3
   1  -5   0 1816.35 83.7986   3
  -1   5   0 1773.04 73.4322   2
   1  -5   0 1807.44 72.6008   2
  -1   5   0 1743.89 81.1352   3
   1  -5   0 1767.49 73.3169   1
  -1   5  -1 8774.72 200.065   3
   1  -5   1 8756.62 181.576   2
   1  -5   1 8735.06 199.513   3
   1  -5   1 8750.03 199.582   4
   1  -5   1 8944.55 184.363   1
   1  -5   2 33.2058 18.0991   1
   1  -5   2 18.5930 20.5446   3
   1  -5   2 3.76487 16.8977   4
  -1   5  -2 0.58483 17.5821   3
   1  -5   2 11.5223 16.7534   2
   1  -5   3 10228.8 228.640   4
   1  -5   3 10126.9 209.191   2
   1  -5   3 9866.94 227.174   3
   1  -5   4 1342.62 79.2250   3
   1  -5   4 1313.62 70.9872   2
   1  -5   4 1417.95 81.4482   4
   1  -5   5 5576.05 170.221   3
   1  -5   5 5531.34 172.038   4
   1  -5   5 5482.99 155.258   2
   1  -5   6 295.190 41.0993   4
   1  -5   6 299.603 42.4141   3
   1  -5   6 360.447 43.1408   2
   1  -5   7 2766.80 125.445   3
   1  -5   7 2958.83 130.982   4
   1  -5   8 2978.86 135.146   3
  -1   5  -8 2689.47 130.292   4
   1  -5   8 2908.67 135.508   4
   1  -5   9 8178.56 239.861   3
  -1   5  -9 7758.49 236.782   4
   1  -5  10 51.8873 31.3858   3
  -1   5 -10 19.6051 23.6767   4
   1  -5  11 1385.68 105.228   3
  -1   5 -11 1364.16 101.419   4
  -1   5 -12 36.4589 27.8711   4
   1  -5  12-25.4977 27.7904   3
  -1   5 -13 117.451 40.4828   4
  -1   5 -14 875.803 94.2373   4
  -1   5 -15 1407.63 121.988   4
  -1   5 -16 339.650 65.2545   4
  -1   5 -17 620.887 88.4560   4
  -1   5 -18 1621.05 142.723   4
   1  -4 -22 356.813 75.4179   4
   1  -4 -21 1139.22 118.486   4
   1  -4 -20 710.339 87.9427   4
   1  -4 -19 49.2673 40.1870   4
   1  -4 -18 1.09146 31.8744   4
   1  -4 -17 178.210 45.6421   4
   1  -4 -16 472.297 65.2597   4
   1  -4 -15 11146.8 304.857   4
   1  -4 -14 621.206 68.5434   4
   1  -4 -13 232.194 43.0636   4
   1  -4 -12 27942.0 494.056   4
  -1   4  11 2273.57 116.541   3
   1  -4 -11 2197.73 110.088   4
   1  -4 -10 20906.7 385.424   4
  -1   4  10 20581.6 394.282   3
   1  -4  -9 1363.75 79.9905   4
  -1   4   9 1300.00 81.5450   3
   1  -4  -8 2048.58 94.0106   4
  -1   4   8 2066.86 98.2645   3
  -1   4   7 181.023 31.8083   3
   1  -4  -7 209.028 34.4971   4
   1  -4  -6 7543.47 186.599   3
   1  -4  -6 7562.36 179.481   4
  -1   4   6 7492.18 186.967   3
   1  -4  -5 1156.14 67.1673   3
  -1   4   5 1112.72 58.5417   1
  -1   4   5 1270.48 68.7543   3
  -1   4   4 538.416 39.5958   1
  -1   4   4 561.133 41.5660   2
   1  -4  -4 518.925 44.5357   3
  -1   4   4 514.692 44.6805   3
   1  -4  -3 44.3208 22.9333   3
  -1   4   3 28.7215 15.8332   1
  -1   4   3 40.5473 20.9889   3
  -1   4   3 66.3146 21.3280   2
   1  -4  -2 1679.16 62.8474   1
  -1   4   2 1476.39 69.7116   3
  -1   4   2 1436.92 57.7028   1
  -1   4   2 1492.78 59.7423   2
   1  -4  -2 1528.87 70.9468   3
  -1   4   1 2827.12 97.8968   3
   1  -4  -1 2969.90 99.8822   3
   1  -4  -1 3042.43 83.3113   2
   1  -4  -1 2952.14 83.3916   1
  -1   4   1 2877.19 82.8068   2
   1  -4   0 9829.07 173.284   2
  -1   4   0 9754.33 174.379   2
  -1   4   0 9830.27 201.303   3
   1  -4   0 9830.95 200.603   3
   1  -4   0 9819.31 174.488   1
   1  -4   1 2278.44 88.2833   3
   1  -4   1 2320.42 75.1450   1
  -1   4  -1 2083.88 84.4308   3
   1  -4   1 2170.18 71.9478   2
   1  -4   2 312.482 36.3881   4
   1  -4   2 343.318 30.6888   2
  -1   4  -2 313.882 35.4962   3
   1  -4   2 392.249 40.1515   3
   1  -4   3 1019.21 63.7485   3
   1  -4   3 1023.84 64.1347   4
   1  -4   3 1025.80 54.0382   2
   1  -4   4 922.017 62.2382   3
   1  -4   4 946.393 54.9030   2
   1  -4   4 1059.94 66.8904   4
   1  -4   5 2317.35 102.452   4
   1  -4   5 2433.11 103.199   3
   1  -4   6 9165.92 224.169   3
   1  -4   6 9421.73 231.328   4
   1  -4   7 18.7531 19.8254   4
  -1   4  -7 52.2811 25.7134   4
   1  -4   7 59.9110 24.3078   3
   1  -4   8 109.299 33.0028   3
  -1   4  -8 115.400 33.7391   4
   1  -4   8 83.0270 30.3868   4
   1  -4   9 9620.40 257.124   4
  -1   4  -9 8666.34 242.183   4
  -1   4 -10 1961.80 112.774   4
  -1   4 -11 4866.05 187.541   4
  -1   4 -12 8523.72 264.467   4
  -1   4 -13 1833.96 124.436   4
  -1   4 -14 25.0726 30.5301   4
  -1   4 -15 28.7576 36.6008   4
  -1   4 -16 1445.56 122.617   4
  -1   4 -17 529.922 79.5768   4
  -1   4 -18 102.422 45.6580   4
  -1   4 -19 45.2090 47.7621   4
   1  -3 -22 38.8149 43.1990   4
   1  -3 -21 576.086 88.8728   4
   1  -3 -20-18.3205 37.5062   4
   1  -3 -19 592.648 81.9145   4
   1  -3 -18 842.961 91.0878   4
   1  -3 -17 2064.85 137.308   4
   1  -3 -16 1385.22 106.021   4
   1  -3 -15 2472.09 136.241   4
   1  -3 -14 1359.76 98.4148   4
   1  -3 -13 3851.50 160.163   4
   1  -3 -12 261.401 45.2943   4
   1  -3 -11 14848.6 319.384   4
  -1   3  11 14903.2 327.700   3
  -1   3  10 63.0451 19.4441   3
   1  -3 -10 138.174 34.3090   4
   1  -3  -9 4507.82 148.645   4
  -1   3   9 4241.45 147.925   3
   1  -3  -8 9734.53 223.422   4
  -1   3   8 10134.3 231.685   3
   1  -3  -7 2375.23 97.9266   4
  -1   3   7 2648.75 105.395   3
   1  -3  -6 12243.6 238.227   4
  -1   3   6 11745.3 239.880   3
  -1   3   5 12302.2 240.095   3
   1  -3  -5 12705.3 242.002   3
   1  -3  -4 17323.7 291.874   3
  -1   3   4 17155.3 291.208   3
  -1   3   3 13456.3 239.405   3
  -1   3   3 13581.1 211.098   1
   1  -3  -3 13864.7 244.341   3
  -1   3   2 3283.18 100.063   3
  -1   3   2 3323.74 78.7232   2
   1  -3  -2 3144.34 99.6507   3
  -1   3   2 3220.53 77.9436   1
  -1   3   1 24656.9 319.740   2
  -1   3   1 24449.5 362.702   3
  -1   3   1 24240.6 319.809   1
   1  -3  -1 25092.6 319.346   1
   1  -3  -1 25289.4 365.203   3
   1  -3   0 35513.4 431.797   2
   1  -3   0 35218.1 481.077   3
  -1   3   0 35729.0 485.692   3
  -1   3   0 34915.4 433.382   2
   1  -3   0 35209.5 433.370   1
   1  -3   1 3598.16 81.4975   1
  -1   3  -1 3655.67 106.487   3
   1  -3   1 3666.50 107.013   3
   1  -3   1 3589.68 80.1709   2
   1  -3   2 106.237 26.6623   3
   1  -3   2 104.294 17.4085   2
  -1   3  -2 176.797 27.2434   3
   1  -3   3 2292.57 88.5626   3
   1  -3   3 2272.87 88.3029   4
   1  -3   4 2972.84 107.051   4
   1  -3   4 3109.50 107.566   3
   1  -3   5 34279.9 507.462   3
   1  -3   5 33987.8 509.722   4
  -1   3  -6 17422.3 324.094   4
   1  -3   6 17444.4 324.073   3
   1  -3   6 17357.2 325.635   4
  -1   3  -7 9545.24 228.126   4
   1  -3   7 9494.19 233.240   4
   1  -3   8 2164.90 106.516   4
  -1   3  -8 2135.34 105.478   4
   1  -3   9 2871.30 128.958   4
  -1   3  -9 2654.34 123.356   4
   1  -3  10 19831.8 397.405   4
  -1   3 -10 18359.1 384.081   4
  -1   3 -11 9354.53 261.205   4
  -1   3 -12 9444.21 272.452   4
  -1   3 -13 8492.23 265.315   4
  -1   3 -14 1796.74 122.014   4
  -1   3 -15 2078.90 137.317   4
  -1   3 -16 23.7025 32.3159   4
  -1   3 -17 754.523 92.2172   4
  -1   3 -18 117.144 46.3773   4
  -1   3 -19 700.979 96.5069   4
  -1   3 -20 889.587 108.339   4
   1  -2 -21 1042.51 114.773   4
   1  -2 -20 2367.66 163.223   4
   1  -2 -19 2.93833 32.0647   4
   1  -2 -18 435.240 68.9590   4
   1  -2 -17 1666.67 123.667   4
   1  -2 -16 5170.35 211.138   4
   1  -2 -15 10078.8 292.885   4
   1  -2 -14 149.150 38.8697   4
   1  -2 -13 1252.54 91.8357   4
   1  -2 -12 8146.08 233.760   4
  -1   2  12 8309.42 237.927   4
   1  -2 -11 4603.24 164.042   4
  -1   2  11 4967.97 171.435   4
  -1   2  11 4669.31 167.621   3
   1  -2 -10 9095.85 231.232   4
  -1   2  10 9251.96 235.289   3
  -1   2  10 9119.69 233.466   4
  -1   2   9 3298.56 128.960   3
   1  -2  -9 3424.91 128.298   4
   1  -2  -8 16474.5 312.114   4
  -1   2   8 16878.1 317.331   3
   1  -2  -7 2043.81 90.7337   4
  -1   2   7 1912.21 87.9351   3
   1  -2  -6 5554.06 147.606   4
  -1   2   6 5372.16 145.715   3
   1  -2  -5 495.883 43.3982   4
  -1   2   5 448.284 38.9906   3
   1  -2  -4 830.112 54.7262   3
  -1   2   4 818.510 49.0633   3
  -1   2   3 6783.89 148.042   3
   1  -2  -3 6604.23 147.891   3
  -1   2   2 9887.58 183.289   3
   1  -2  -2 10244.7 188.354   3
  -1   2   1 100577. 1165.45   3
  -1   2   1 99576.6 1102.91   2
  -1   2   1 99722.8 1103.69   1
   1  -2  -1 100919. 1164.61   3
   1  -2   0 2905.25 87.0367   3
  -1   2   0 2764.20 83.7850   3
   1  -2   0 2892.39 51.1071   2
   1  -2   0 2872.09 51.5678   1
  -1   2   0 2735.41 51.1097   2
   1  -2   1 117877. 1346.56   3
  -1   2  -1 116717. 1348.31   3
   1  -2   1 116098. 1281.87   2
   1  -2   2 1758.13 72.0613   3
  -1   2  -2 1686.55 67.1952   3
   1  -2   3 231.738 29.6991   4
   1  -2   3 248.822 34.8235   3
   1  -2   4 3346.63 106.532   3
   1  -2   4 3293.35 106.485   4
   1  -2   5 2084.99 88.0463   3
   1  -2   5 2099.93 87.3625   4
  -1   2  -5 1839.98 84.2101   4
   1  -2   6 13047.7 259.608   4
  -1   2  -6 12617.5 254.744   4
  -1   2  -7 33.0607 25.6561   4
   1  -2   7 66.8484 23.9604   4
   1  -2   8 8114.26 210.506   4
  -1   2  -8 7938.24 206.263   4
  -1   2  -9 15420.9 321.042   4
   1  -2   9 16108.2 328.781   4
  -1   2 -10 1188.05 82.0468   4
   1  -2  10 1444.61 91.3799   4
  -1   2 -11 5139.71 182.664   4
   1  -2  11 5702.65 193.387   4
  -1   2 -12 1.29328 23.6317   4
  -1   2 -13 3144.66 149.623   4
  -1   2 -14 563.255 69.1584   4
  -1   2 -15 68.3925 36.3756   4
  -1   2 -16 966.894 94.1289   4
  -1   2 -17 13.1050 30.2835   4
  -1   2 -18 71.4948 38.0455   4
  -1   2 -19 231.354 55.3289   4
  -1   2 -20 278.743 61.1102   4
   1  -1 -21 616.951 89.7225   4
   1  -1 -20 770.195 96.2692   4
   1  -1 -19 894.499 99.8988   4
   1  -1 -18 185.154 46.6859   4
   1  -1 -17 1255.72 108.262   4
   1  -1 -16 70.6198 35.3648   4
   1  -1 -15 6907.00 240.117   4
   1  -1 -14 1014.98 88.6997   4
   1  -1 -13 381.891 54.0016   4
  -1   1  12 917.546 76.2879   4
   1  -1 -12 820.078 73.4256   4
  -1   1  11 4959.59 172.674   4
   1  -1 -11 4612.11 166.343   4
  -1   1  10 3208.64 131.468   4
   1  -1 -10 2860.66 124.277   4
   1  -1  -9 3205.02 125.607   4
  -1   1   9 3311.67 127.935   4
   1  -1  -8 6795.64 182.478   4
  -1   1   8 7269.65 187.969   4
   1  -1  -7 6483.73 170.307   4
  -1   1   7 6715.26 172.201   4
  -1   1   7 6651.47 170.901   3
   1  -1  -6 11910.6 232.920   4
  -1   1   6 11536.4 229.465   3
   1  -1  -5 2865.31 99.0989   4
  -1   1   5 2706.67 93.1098   3
   1  -1  -4 3580.20 105.854   4
  -1   1   4 3641.25 103.084   3
   1  -1  -3 523.746 40.9749   3
  -1   1   3 523.686 37.4620   3
   1  -1  -2 13325.8 214.195   3
  -1   1   2 12869.0 212.204   3
  -1   1   1 773.100 40.6763   3
   1  -1  -1 801.783 43.4067   3
   1  -1   0 1985.57 65.7082   3
  -1   1   0 1940.79 62.7227   3
   1  -1   1 602.242 38.3631   3
  -1   1  -1 745.860 39.9742   3
   1  -1   2 58599.0 711.877   3
  -1   1  -2 58422.8 710.213   3
   1  -1   3 37704.4 494.020   3
   1  -1   3 37582.6 494.968   4
   1  -1   4 22490.0 337.256   4
   1  -1   4 22573.2 339.168   3
   1  -1   5 579.898 43.7950   4
  -1   1  -5 571.539 46.6604   4
  -1   1  -6 15142.0 273.198   4
   1  -1   6 15269.7 275.326   4
  -1   1  -7 260.181 36.0254   4
   1  -1   7 265.108 35.5749   4
   1  -1   8 3740.45 130.002   4
  -1   1  -8 3497.92 125.072   4
  -1   1  -9 2492.22 108.939   4
   1  -1   9 2637.61 114.022   4
  -1   1 -10 2892.55 124.152   4
   1  -1  10 3168.58 130.510   4
   1  -1  11 971.128 76.3880   4
  -1   1 -11 790.106 68.3621   4
   1  -1  12 3267.45 144.634   4
  -1   1 -12 2994.28 137.653   4
  -1   1 -13 488.914 59.9521   4
  -1   1 -14 22172.7 455.727   4
  -1   1 -15 6025.57 221.584   4
  -1   1 -16 1798.67 123.388   4
  -1   1 -17 1089.00 100.083   4
  -1   1 -18 685.969 86.5096   4
  -1   1 -19-5.54249 35.7729   4
  -1   1 -20 643.955 87.5017   4
  -1   1 -21 543.771 80.5991   4
   1   0 -21-5.79702 33.4427   4
   1   0 -20 1345.03 126.048   4
   1   0 -19 137.291 47.6897   4
   1   0 -18 1693.74 132.421   4
   1   0 -17 3843.05 193.535   4
   1   0 -16 37.8750 35.7020   4
   1   0 -15 2447.00 141.750   4
   1   0 -14 56.0806 31.2167   4
   1   0 -13 1403.28 97.9718   4
   1   0 -12-3.44929 26.6426   4
   1   0 -11 739.838 68.4310   4
  -1   0  11 782.651 69.3229   4
  -1   0  10 33.0749 22.2858   4
   1   0 -10 10.8094 23.1513   4
  -1   0   9 815.402 64.9951   4
   1   0  -9 658.603 58.9015   4
  -1   0   8 11.4284 16.7295   4
   1   0  -8-15.8317 22.4806   4
   1   0  -7 26852.2 430.339   4
  -1   0   7 27672.2 435.016   4
   1   0  -6 10373.1 218.627   4
  -1   0   6 10746.8 221.256   4
  -1   0   5 3877.95 115.770   4
   1   0  -5 3929.36 118.182   4
   1   0  -4 10458.2 200.731   4
  -1   0   4 10746.6 194.609   3
   1   0  -3 3925.55 105.680   4
  -1   0   3 4035.62 99.8811   3
   1   0  -2 9556.40 163.117   3
  -1   0   2 9424.70 162.383   3
   1   0  -1 14391.7 211.460   3
  -1   0   1 14202.8 210.949   3
  -1   0   0 3508.74 79.7312   3
   1   0   0 3589.28 79.5157   3
   1   0   0 3533.87 64.3841   2
  -1   0   0 3467.08 63.5351   2
   1   0   1 1967.48 43.9325   2
  -1   0  -1 1940.62 42.9264   2
   1   0   1 1866.40 55.7984   3
  -1   0  -1 1937.05 57.7802   3
   1   0   1 1757.71 44.1180   1
  -1   0  -1 1928.65 43.7369   1
  -1   0  -2 149.680 19.4714   3
   1   0   2 142.224 22.3497   3
   1   0   2 172.414 18.0557   1
   1   0   3 8370.11 152.526   4
   1   0   3 8137.70 149.786   3
   1   0   4 1114.79 51.4835   4
  -1   0  -5 10516.0 196.248   4
   1   0   5 10778.3 197.392   4
  -1   0  -6 5484.24 138.421   4
   1   0   6 5732.55 141.124   4
  -1   0  -7 3398.14 110.721   4
   1   0   7 3435.48 111.964   4
  -1   0  -8 8242.28 192.782   4
   1   0   8 8204.20 194.966   4
   1   0   9 3314.87 122.531   4
  -1   0  -9 3095.81 118.034   4
  -1   0 -10 4518.61 150.514   4
   1   0  10 4465.25 151.511   4
  -1   0 -11 627.803 59.2964   4
   1   0  11 653.049 59.6145   4
   1   0  12 10.9940 20.7990   4
  -1   0 -12 46.7332 29.2261   4
  -1   0 -13 6170.85 203.844   4
   1   0  13 6599.40 211.674   4
  -1   0 -14 1960.64 116.267   4
  -1   0 -15 24292.4 487.876   4
  -1   0 -16-42.9498 35.4065   4
  -1   0 -17 104.847 38.7015   4
  -1   0 -18 3169.39 171.794   4
  -1   0 -19 56.9000 45.3391   4
  -1   0 -20-19.2533 35.9039   4
  -1   0 -21 148.150 45.7415   4
  -1   0 -22 128.567 44.2864   4
   1   1 -20 109.118 43.3210   4
   1   1 -19 3440.11 197.313   4
   1   1 -18 1182.68 114.986   4
   1   1 -17 448.758 70.8754   4
   1   1 -16 90.2814 41.8633   4
   1   1 -15 721.136 80.6584   4
   1   1 -14 130.876 42.1834   4
   1   1 -13 348.345 52.1333   4
   1   1 -12 414.967 58.0493   4
   1   1 -11 179.701 39.8126   4
  -1  -1  11 205.592 38.0879   4
   1   1 -10 41.7736 23.4895   4
  -1  -1  10 14.0476 19.8082   4
   1   1  -9 88.5095 32.0768   4
  -1  -1   9 89.9598 28.7197   4
  -1  -1   8 59.4242 22.3489   4
   1   1  -8 26.0814 20.0335   4
  -1  -1   7 3416.31 121.899   4
   1   1  -7 3530.02 123.315   4
   1   1  -6 215472. 2466.87   4
  -1  -1   6 216449. 2469.70   4
   1   1  -5 4267.91 123.523   4
  -1  -1   5 4332.08 124.172   4
  -1  -1   4 32544.8 457.678   4
   1   1  -4 33318.3 459.239   4
   1   1  -3 217.469 31.6132   4
  -1  -1   3 266.735 28.8401   4
   1   1  -2 20189.7 289.359   4
  -1  -1   2 19839.5 276.011   3
  -1  -1   1 1398.92 45.3295   3
  -1  -1   1 1399.87 51.2866   2
   1   1  -1 1412.42 46.1176   3
  -1  -1   0 12353.5 190.759   2
  -1  -1   0 12509.7 175.668   3
   1   1   0 13029.7 193.549   2
   1   1   0 12812.1 177.615   3
   1   1   1 6512.75 118.260   2
   1   1   1 6338.35 104.171   3
   1   1   1 6300.55 117.554   1
  -1  -1  -1 6224.00 115.750   2
  -1  -1  -1 6192.45 104.049   3
  -1  -1  -1 6408.73 116.932   1
   1   1   2 407.775 28.3559   1
   1   1   2 350.372 24.4224   3
  -1  -1  -2 347.917 23.6032   3
  -1  -1  -2 385.751 28.6545   1
   1   1   2 411.916 30.4620   2
   1   1   3 275.016 25.7088   3
   1   1   3 249.179 24.8725   1
   1   1   3 269.083 22.4737   4
   1   1   4 16051.3 237.936   4
   1   1   5 179.330 23.3557   4
  -1  -1  -5 152.616 24.4101   4
   1   1   6 722.707 44.5583   4
  -1  -1  -6 723.145 46.3477   4
  -1  -1  -7 3187.78 101.521   4
   1   1   7 3146.89 101.520   4
  -1  -1  -8 15415.9 278.200   4
   1   1   8 15884.1 283.964   4
  -1  -1  -9 92.2051 25.2962   4
   1   1   9 42.0742 20.4215   4
  -1  -1 -10 4577.50 145.920   4
   1   1  10 4539.61 146.570   4
   1   1  11 1321.43 81.2580   4
  -1  -1 -11 1341.63 82.0598   4
  -1  -1 -12 1724.24 97.2080   4
   1   1  12 1883.23 101.466   4
   1   1  13 1826.62 105.059   4
  -1  -1 -13 1655.60 99.7594   4
  -1  -1 -14 3756.55 158.315   4
  -1  -1 -15 17405.1 387.372   4
  -1  -1 -16 8906.12 270.767   4
  -1  -1 -17 1.10997 31.4641   4
  -1  -1 -18 2442.70 147.904   4
  -1  -1 -19 1071.23 101.104   4
  -1  -1 -20 111.818 47.0373   4
  -1  -1 -21 102.395 36.3116   4
  -1  -1 -22 6.54947 32.3861   4
   1   2 -20 28.1102 44.4047   4
   1   2 -19 1459.46 132.808   4
   1   2 -18 124.700 41.5755   4
   1   2 -17 960.119 102.688   4
   1   2 -16 501.277 72.8551   4
   1   2 -15 379.512 63.5240   4
   1   2 -14 222.228 49.2823   4
   1   2 -13 1488.65 107.098   4
   1   2 -12 4.01038 30.1021   4
  -1  -2  11 180.056 39.0544   4
   1   2 -11 187.407 42.5118   4
  -1  -2  10 456.711 51.8532   4
   1   2 -10 379.000 49.7470   4
   1   2  -9 450.542 53.4707   4
  -1  -2   9 408.375 47.9537   4
   1   2  -8 1483.28 84.3890   4
  -1  -2   8 1386.26 82.3365   4
   1   2  -7 16161.0 308.858   4
  -1  -2   7 16385.9 309.931   4
  -1  -2   6 378.599 38.7209   4
   1   2  -6 412.958 43.2868   4
  -1  -2   5 2797.00 98.0492   4
   1   2  -5 2786.59 98.6233   4
   1   2  -4 1471.76 65.7977   4
  -1  -2   4 1426.23 65.5101   4
  -1  -2   3 43002.4 560.682   4
   1   2  -3 43400.1 559.385   4
   1   2  -2 1369.94 54.8218   4
  -1  -2   2 1349.57 61.4888   2
  -1  -2   2 1315.90 53.4782   4
   1   2  -1 16794.5 263.618   2
  -1  -2   1 16470.4 262.675   2
  -1  -2   1 16637.6 221.083   3
   1   2  -1 16209.3 236.171   4
  -1  -2   0 2149.05 73.2444   1
  -1  -2   0 2086.34 45.5423   3
  -1  -2   0 2010.60 70.0934   2
   1   2   0 2110.01 56.2178   4
   1   2   0 2093.51 73.7495   2
   1   2   1 53761.2 664.282   1
  -1  -2  -1 53337.4 662.728   2
  -1  -2  -1 53529.6 600.045   3
  -1  -2  -1 54430.2 664.821   1
   1   2   1 53541.5 599.265   3
   1   2   1 54230.9 665.289   2
   1   2   2 4583.25 111.658   2
   1   2   2 4398.11 71.9209   3
  -1  -2  -2 4451.76 108.791   2
   1   2   2 4455.41 108.853   1
  -1  -2  -2 4597.31 111.885   1
   1   2   3 52775.2 656.933   2
   1   2   3 51908.8 604.785   3
   1   2   3 52438.5 656.788   1
   1   2   3 52159.6 605.378   4
  -1  -2  -3 52561.1 656.487   1
   1   2   4 7112.71 122.798   4
   1   2   4 6948.50 152.294   1
   1   2   4 7095.80 153.925   2
   1   2   5 24935.0 335.995   4
  -1  -2  -5 25340.4 335.667   4
   1   2   5 24378.2 370.765   1
  -1  -2  -6 5172.64 116.867   4
   1   2   6 5105.86 116.795   4
   1   2   7 9389.39 184.007   4
  -1  -2  -7 9587.07 183.119   4
   1   2   8 3558.17 109.080   4
  -1  -2  -8 3529.28 107.846   4
  -1  -2  -9 643.144 48.5719   4
   1   2   9 544.749 45.4527   4
   1   2  10 5744.71 160.152   4
  -1  -2 -10 5664.04 158.594   4
   1   2  11 2726.29 112.757   4
  -1  -2 -11 2544.58 108.851   4
  -1  -2 -12 37.6148 22.9949   4
   1   2  12 63.3888 22.4595   4
   1   2  13 791.853 68.0510   4
  -1  -2 -13 701.145 63.4575   4
   1   2  14 8448.28 238.604   4
  -1  -2 -14 8015.92 232.836   4
  -1  -2 -15 51.6832 29.8505   4
  -1  -2 -16 3032.86 148.955   4
  -1  -2 -17 692.690 77.0031   4
  -1  -2 -18 2632.23 149.955   4
  -1  -2 -19 16.2227 30.2207   4
  -1  -2 -20 248.300 53.9039   4
  -1  -2 -21 303.787 62.3256   4
  -1  -2 -22 131.517 54.2393   4
  -1  -2 -23 47.8638 40.0486   4
   1   3 -19 1396.65 132.609   4
   1   3 -18 570.508 85.1649   4
   1   3 -17 3018.12 181.043   4
   1   3 -16 3549.33 189.587   4
   1   3 -15 356.340 63.2811   4
   1   3 -14 169.097 43.2322   4
   1   3 -13 398.082 59.9829   4
   1   3 -12 1.84424 26.5588   4
   1   3 -11 367.004 52.5772   4
  -1  -3  10 2683.49 129.319   4
   1   3 -10 2454.89 124.956   4
   1   3  -9 1334.29 87.7706   4
  -1  -3   9 1276.17 85.0918   4
   1   3  -8 4022.99 145.718   4
  -1  -3   8 4058.79 147.580   4
   1   3  -7 1128.67 72.7443   4
  -1  -3   7 1192.50 74.9786   4
  -1  -3   6 250.978 35.7555   4
   1   3  -6 225.683 33.3667   4
  -1  -3   5 2.82826 16.1565   4
   1   3  -5 3.76549 18.7913   4
   1   3  -4 7894.16 173.844   4
  -1  -3   4 8031.34 174.240   4
   1   3  -3 38.0312 17.9803   4
  -1  -3   3 8.77543 13.1175   4
  -1  -3   3 63.1379 25.8573   2
  -1  -3   2 13957.0 224.832   4
   1   3  -2 13849.7 223.102   4
  -1  -3   2 14238.0 260.740   2
  -1  -3   1 1694.88 55.8136   4
   1   3  -1 1678.78 55.2980   4
   1   3  -1 1646.21 76.5506   2
  -1  -3   1 1646.79 73.1629   2
  -1  -3   0 5620.04 139.688   2
   1   3   0 5467.15 99.9692   4
  -1  -3   0 5498.33 81.3984   3
  -1  -3   0 5419.82 139.635   1
   1   3   0 5769.86 143.522   2
  -1  -3  -1 1145.45 58.8361   2
  -1  -3  -1 1168.46 61.1402   1
   1   3   1 1135.71 34.0630   4
   1   3   1 1123.88 61.9665   2
   1   3   2 33545.1 470.073   2
  -1  -3  -2 32688.7 466.901   2
  -1  -3  -2 33445.8 471.017   1
   1   3   2 33323.9 469.914   1
   1   3   3 8080.61 176.818   2
  -1  -3  -3 7939.68 172.940   2
   1   3   3 7906.66 174.088   1
   1   3   3 8011.03 110.062   4
  -1  -3  -3 8173.85 177.022   1
   1   3   4 17113.1 295.205   2
   1   3   4 17353.5 223.022   4
   1   3   4 17267.1 295.802   1
  -1  -3  -4 17373.3 294.548   1
   1   3   5 522.092 27.2229   4
   1   3   5 525.373 46.1030   1
   1   3   5 476.929 47.0818   2
   1   3   6 2065.39 63.5520   4
  -1  -3  -6 2212.09 64.7881   4
   1   3   6 2059.17 89.1819   1
   1   3   7 12662.0 212.354   4
  -1  -3  -7 13031.2 212.889   4
   1   3   7 12408.0 257.218   1
   1   3   8 26328.5 384.565   4
  -1  -3  -8 26956.8 385.108   4
   1   3   9 1564.37 71.2002   4
  -1  -3  -9 1579.61 71.3810   4
  -1  -3 -10 6955.18 171.872   4
   1   3  10 7064.75 172.932   4
  -1  -3 -11 98.5643 25.2669   4
   1   3  11 81.6849 23.2189   4
  -1  -3 -12 230.970 38.6200   4
   1   3  12 212.758 33.2040   4
  -1  -3 -13 452.154 49.1917   4
   1   3  13 441.012 48.9331   4
  -1  -3 -14 6470.71 199.720   4
   1   3  14 6533.66 202.169   4
  -1  -3 -15 1397.93 94.0432   4
  -1  -3 -16 898.917 78.6159   4
  -1  -3 -17 3475.55 162.761   4
  -1  -3 -18 151.559 40.4186   4
  -1  -3 -19 4745.53 206.100   4
  -1  -3 -20 185.245 49.5632   4
  -1  -3 -21-0.82053 30.5724   4
  -1  -3 -22 306.232 61.1636   4
  -1  -3 -23 1086.40 114.806   4
   1   4 -19 498.386 84.2080   4
   1   4 -18 8.84780 36.0814   4
   1   4 -17 2169.98 157.629   4
   1   4 -16 81.9417 39.8926   4
   1   4 -15 8784.06 300.401   4
   1   4 -14 179.575 46.8938   4
   1   4 -13 5542.94 219.180   4
   1   4 -12 4467.95 188.455   4
   1   4 -11 5990.11 210.900   4
   1   4 -10 2879.81 138.406   4
  -1  -4   9 101.513 30.7542   4
   1   4  -9 122.201 35.9397   4
  -1  -4   8 248.580 40.1887   4
   1   4  -8 274.055 44.6556   4
   1   4  -7 102.090 28.1057   4
  -1  -4   7 114.864 26.8771   4
   1   4  -6 6862.74 184.003   4
  -1  -4   6 6827.39 181.936   4
   1   4  -5 1856.87 86.7511   4
  -1  -4   5 1841.86 97.1077   2
  -1  -4   5 1884.40 85.3166   4
   1   4  -4 1831.76 80.1310   4
  -1  -4   4 1773.96 77.8559   4
  -1  -4   4 1993.71 98.0727   2
  -1  -4   3 286.693 39.3611   2
   1   4  -3 325.313 31.5749   4
  -1  -4   3 356.630 34.2517   4
   1   4  -2 2073.80 71.8055   4
  -1  -4   2 2016.80 70.4518   4
  -1  -4   2 2082.39 94.9485   2
  -1  -4   1 1950.92 62.0493   4
   1   4  -1 1871.11 60.9711   4
   1   4  -1 1946.92 89.2434   2
  -1  -4   1 1825.03 86.0368   2
  -1  -4   0 18568.3 323.275   2
  -1  -4   0 18379.4 225.182   3
  -1  -4   0 18721.9 325.707   1
   1   4   0 18017.9 247.609   4
   1   4   0 18627.0 325.686   2
  -1  -4  -1 26835.4 416.870   2
  -1  -4  -1 26660.4 417.269   1
   1   4   1 26340.2 318.082   4
   1   4   1 27445.9 421.366   2
   1   4   2 30089.1 454.155   1
  -1  -4  -2 29432.4 451.404   2
  -1  -4  -2 29877.4 456.115   1
   1   4   2 29765.3 453.614   2
  -1  -4  -3 398.829 43.0312   1
   1   4   3 428.952 42.8123   1
   1   4   3 465.499 47.3208   2
  -1  -4  -3 424.147 43.2030   2
   1   4   4 5490.88 154.592   2
  -1  -4  -4 5442.67 154.457   1
   1   4   4 5431.16 154.162   1
   1   4   4 5380.65 85.6128   3
   1   4   5 1212.67 71.1930   1
  -1  -4  -5 1225.09 75.3938   1
   1   4   5 1199.96 73.2976   2
   1   4   5 1230.28 33.8004   4
   1   4   6 11293.8 246.057   2
  -1  -4  -6 11665.8 170.189   4
   1   4   6 11360.3 170.534   4
   1   4   6 11483.2 248.998   1
   1   4   7 10734.5 244.553   2
  -1  -4  -7 11031.5 178.305   4
   1   4   7 10718.3 178.477   4
   1   4   7 10699.3 244.997   1
   1   4   8 4336.89 108.061   4
  -1  -4  -8 4391.48 107.146   4
   1   4   8 4330.34 149.088   1
   1   4   9 463.180 52.5833   1
   1   4   9 383.191 34.4480   4
  -1  -4  -9 345.355 32.5543   4
   1   4  10-4.38352 13.7267   4
  -1  -4 -10 14.1067 16.8887   4
   1   4  10 16.0543 23.5774   1
  -1  -4 -11 4316.63 133.177   4
   1   4  11 4710.24 139.147   4
  -1  -4 -12 29.6769 21.1888   4
   1   4  12 34.5968 16.6238   4
  -1  -4 -13 2715.68 115.764   4
   1   4  13 2883.99 121.200   4
  -1  -4 -14 371.396 47.9300   4
   1   4  14 293.140 41.8962   4
  -1  -4 -15 3450.33 145.957   4
   1   4  15 3772.43 153.445   4
  -1  -4 -16 74.2480 31.0974   4
  -1  -4 -17 218.301 42.5932   4
  -1  -4 -18 1412.31 105.823   4
  -1  -4 -19 100.678 38.9830   4
  -1  -4 -20 2667.99 155.900   4
  -1  -4 -21 1106.56 104.587   4
  -1  -4 -22 788.185 94.3665   4
  -1  -4 -23 508.044 79.4437   4
   1   5 -18 2778.21 184.041   4
   1   5 -17 800.784 97.9046   4
   1   5 -16 1525.58 128.899   4
   1   5 -15 849.422 96.6455   4
   1   5 -14 5260.54 225.674   4
   1   5 -13 4801.56 206.490   4
   1   5 -12 301.460 53.9230   4
   1   5 -11 795.416 88.4162   4
   1   5 -10 82.4364 31.5407   4
   1   5  -9 761.773 72.0074   4
  -1  -5   9 828.574 72.9100   4
   1   5  -8 124.410 33.0620   4
  -1  -5   8 107.745 27.7624   4
  -1  -5   7 2487.67 114.187   4
   1   5  -7 2522.59 115.864   4
  -1  -5   6 17.1069 22.5985   2
   1   5  -6 7.60610 23.4633   4
  -1  -5   6 11.9630 15.6047   4
   1   5  -5 9040.39 211.514   4
  -1  -5   5 9604.93 248.172   2
  -1  -5   5 8843.49 208.816   4
  -1  -5   4 958.131 59.1987   4
  -1  -5   4 976.469 73.2274   2
   1   5  -4 954.413 59.3700   4
   1   5  -3 8112.09 175.671   4
  -1  -5   3 7826.15 173.138   4
  -1  -5   3 8242.78 218.036   2
   1   5  -2 14591.0 241.338   4
  -1  -5   2 13947.7 239.061   4
  -1  -5   2 14613.5 301.969   2
  -1  -5   1 813.103 64.1405   1
  -1  -5   1 843.317 36.0795   3
   1   5  -1 803.085 65.5201   2
  -1  -5   1 821.680 41.7337   4
   1   5  -1 764.580 40.3259   4
  -1  -5   1 887.891 66.4129   2
  -1  -5   0 681.071 57.2170   2
  -1  -5   0 732.508 27.1607   3
  -1  -5   0 740.338 59.7884   1
   1   5   0 757.299 63.4673   2
  -1  -5   0 657.982 32.1599   4
   1   5   0 667.773 32.0184   4
  -1  -5  -1 471.525 47.4936   2
   1   5   1 471.757 50.7275   2
  -1  -5  -1 484.912 51.2233   1
   1   5   1 433.335 19.5641   4
  -1  -5  -2 4368.78 143.626   2
   1   5   2 4367.90 146.113   2
  -1  -5  -2 4624.75 149.553   1
   1   5   3 24908.4 421.983   1
  -1  -5  -3 25281.6 423.230   2
  -1  -5  -3 24801.9 423.546   1
   1   5   3 24849.2 421.170   2
   1   5   4 1562.71 87.7361   2
   1   5   4 1628.67 87.8771   1
  -1  -5  -4 1499.27 86.3076   1
  -1  -5  -4 1496.68 84.6823   2
   1   5   5 22446.0 395.780   2
   1   5   5 22177.9 394.749   1
  -1  -5  -5 22253.5 395.663   1
   1   5   5 22250.0 283.866   3
   1   5   6 2973.26 122.815   2
   1   5   6 3222.46 127.334   1
   1   5   6 2898.87 74.3086   3
   1   5   7 13121.4 291.279   2
   1   5   7 13761.7 297.936   1
   1   5   7 13163.0 190.783   4
  -1  -5  -7 13799.0 190.365   4
   1   5   7 12787.9 215.195   3
   1   5   8 4784.35 165.920   2
  -1  -5  -8 4967.80 104.979   4
   1   5   8 4866.09 167.490   1
   1   5   8 4811.40 105.783   4
   1   5   8 4726.35 120.402   3
   1   5   9 5582.07 184.651   2
  -1  -5  -9 5506.23 124.140   4
   1   5   9 5556.18 184.661   1
   1   5   9 5502.59 126.084   4
  -1  -5 -10 78.0555 18.0635   4
   1   5  10 50.4891 15.2544   4
   1   5  10 94.2633 32.2857   1
   1   5  10 52.5005 32.3968   2
  -1  -5 -11 3566.63 112.709   4
   1   5  11 3257.70 110.218   4
   1   5  12 98.0440 24.6187   4
  -1  -5 -12 98.0727 23.4528   4
  -1  -5 -13 1142.71 71.2890   4
   1   5  13 1103.62 73.2301   4
   1   5  14 341.920 42.7396   4
  -1  -5 -14 397.716 44.7200   4
   1   5  15 66.0442 25.2302   4
  -1  -5 -15 76.1069 28.4898   4
   1   5  16 225.673 38.2767   4
  -1  -5 -16 223.884 41.6695   4
  -1  -5 -17 72.5898 30.2261   4
  -1  -5 -18 124.840 40.8691   4
  -1  -5 -19 3691.60 173.227   4
  -1  -5 -20 489.372 67.4967   4
  -1  -5 -21 1587.93 122.167   4
  -1  -5 -22-94.7301 33.8081   4
  -1  -5 -23 1288.05 118.316   4
  -1  -5 -24 3085.18 189.040   4
   1   6 -17 102.007 40.2866   4
   1   6 -16 3397.72 197.595   4
   1   6 -15 437.510 72.8500   4
   1   6 -14 97.6375 45.1560   4
   1   6 -13 2331.30 147.925   4
   1   6 -12 1913.30 128.553   4
   1   6 -11 135.188 36.0642   4
   1   6 -10 666.579 73.1248   4
   1   6  -9 264.340 45.3945   4
   1   6  -8 7426.82 221.976   4
  -1  -6   8 7400.99 222.280   4
  -1  -6   7 74.9388 28.1898   4
   1   6  -7 148.017 34.9649   4
  -1  -6   6 65.0108 25.4706   4
   1   6  -6 42.2114 20.5218   4
   1   6  -5 160.117 30.9202   4
  -1  -6   5 182.191 30.3820   4
  -1  -6   4 2850.26 107.256   4
   1   6  -4 3015.89 109.889   4
  -1  -6   4 3396.05 146.281   2
  -1  -6   3 1030.44 53.7642   3
   1   6  -3 909.826 55.6878   4
  -1  -6   3 870.782 54.0288   4
  -1  -6   3 1017.18 78.4855   2
  -1  -6   2 7344.95 215.575   1
  -1  -6   2 7396.04 145.216   3
  -1  -6   2 6947.61 156.608   4
   1   6  -2 7155.06 155.925   4
  -1  -6   2 7637.76 216.741   2
  -1  -6   1 3465.41 143.180   1
   1   6  -1 3308.45 90.4205   4
  -1  -6   1 3333.81 91.0920   4
   1   6  -1 3647.20 144.700   2
  -1  -6   1 3535.43 142.181   2
  -1  -6   1 3456.31 83.0275   3
  -1  -6   0 7881.33 215.003   2
  -1  -6   0 7665.54 121.928   3
  -1  -6   0 7274.83 133.647   4
   1   6   0 7516.85 212.519   2
  -1  -6   0 7786.36 217.296   1
   1   6   0 7465.07 132.685   4
  -1  -6  -1 2123.79 107.780   1
  -1  -6  -1 2242.21 108.859   2
   1   6   1 2135.06 109.104   2
  -1  -6  -1 2129.49 44.1457   3
  -1  -6  -2 5349.14 172.774   2
  -1  -6  -2 5523.14 177.354   1
   1   6   2 5297.58 174.836   2
  -1  -6  -3 428.115 52.8384   1
   1   6   3 487.827 54.8365   2
  -1  -6  -3 419.682 49.0536   2
   1   6   4 70.2885 32.1420   2
   1   6   4 23.9464 21.7164   1
  -1  -6  -4 7.65719 18.4523   2
  -1  -6  -4 5.98900 29.1884   1
   1   6   5 1979.81 106.758   2
   1   6   5 1964.18 48.0573   3
   1   6   5 2127.24 108.520   1
  -1  -6  -5 2035.63 108.784   1
  -1  -6  -6 1295.67 89.0307   1
   1   6   6 1241.99 85.9469   2
   1   6   6 1249.50 83.5581   1
   1   6   6 1241.67 43.7926   3
   1   6   7 1107.17 83.2839   2
   1   6   7 1055.98 78.9780   1
   1   6   7 1048.98 46.6448   3
   1   6   8 4223.56 163.876   2
  -1  -6  -8 4549.70 84.6354   4
   1   6   8 4424.82 167.281   1
   1   6   8 4286.69 110.883   3
  -1  -6  -9 571.262 32.5601   4
   1   6   9 477.959 58.5941   2
   1   6   9 479.096 38.2905   3
   1   6  10 27.8661 16.7930   3
  -1  -6 -10 48.9415 16.0567   4
   1   6  10 15.1645 31.6339   2
   1   6  11 68.2358 19.0395   4
  -1  -6 -11 70.6857 18.0570   4
   1   6  11 70.8879 22.1716   3
   1   6  11 158.683 45.0632   2
   1   6  12 15.4474 16.5763   3
  -1  -6 -12 26.5410 16.8129   4
   1   6  12 19.5721 15.1256   4
   1   6  12-33.0213 36.8938   2
   1   6  13 371.176 42.8682   4
   1   6  13 408.746 47.5974   3
  -1  -6 -13 475.687 44.8731   4
  -1  -6 -14 722.836 58.2037   4
   1   6  14 646.756 58.4589   4
  -1  -6 -15 1568.98 90.0231   4
   1   6  15 1415.43 89.5695   4
  -1  -6 -16 1597.24 95.5570   4
   1   6  16 1523.06 96.7695   4
  -1  -6 -17 1777.86 106.100   4
  -1  -6 -18 1048.67 87.5279   4
  -1  -6 -19 1881.94 119.369   4
  -1  -6 -20 2382.60 139.104   4
  -1  -6 -21 673.361 78.0173   4
  -1  -6 -22 922.177 94.7740   4
   1   7 -16 986.567 110.207   4
   1   7 -15 1186.39 118.393   4
   1   7 -14 494.581 73.6946   4
   1   7 -13 3335.89 180.072   4
   1   7 -12 68.5880 33.9408   4
   1   7 -11 1758.77 120.973   4
   1   7 -10 5503.77 209.076   4
   1   7  -9 1247.98 94.3547   4
   1   7  -8 1975.80 113.923   4
  -1  -7   7 6100.57 196.125   4
   1   7  -7 6177.59 196.637   4
   1   7  -6 1802.45 97.2033   4
  -1  -7   6 1583.13 91.5817   4
  -1  -7   5 2934.57 110.221   3
   1   7  -5 2442.52 108.067   4
  -1  -7   5 2530.15 110.746   4
  -1  -7   4 919.223 55.9547   3
  -1  -7   4 854.297 59.8486   4
   1   7  -4 938.781 62.5820   4
  -1  -7   3 1165.29 90.5176   1
  -1  -7   3 1352.11 63.6611   3
   1   7  -3 1287.45 68.7159   4
  -1  -7   3 1204.49 66.4971   4
  -1  -7   2 57.2071 32.6978   1
   1   7  -2 8.92673 12.3446   4
  -1  -7   2 15.1471 12.3019   3
  -1  -7   2 20.8618 11.6120   4
  -1  -7   1-15.1225 32.0276   1
  -1  -7   1 20.2976 11.4980   3
  -1  -7   1 13.1356 11.1292   4
   1   7  -1 6.24959 11.8937   4
   1   7   0 183.609 42.3328   2
  -1  -7   0 148.671 38.1019   1
  -1  -7   0 155.007 16.6813   3
  -1  -7   0 143.745 17.0792   4
  -1  -7  -1 5529.14 189.006   2
  -1  -7  -1 5216.50 187.876   1
   1   7   1 5657.00 192.785   2
  -1  -7  -1 5512.77 92.4899   3
  -1  -7  -2 1712.12 102.466   2
  -1  -7  -2 1734.89 106.108   1
   1   7   2 1788.80 105.856   2
  -1  -7  -3 768.609 69.0548   2
  -1  -7  -3 670.747 67.8958   1
   1   7   3 595.528 63.1401   2
   1   7   4-0.95638 20.0313   1
   1   7   4-38.7723 32.2828   2
  -1  -7  -4 32.0974 30.1916   2
  -1  -7  -4 57.0030 34.0090   1
   1   7   5 1675.32 43.0285   3
   1   7   5 1825.33 108.993   2
  -1  -7  -5 1639.02 102.476   1
   1   7   6 3838.12 81.7472   3
   1   7   6 4027.52 165.182   2
  -1  -7  -6 3974.77 162.653   1
   1   7   7 526.013 31.9952   3
   1   7   7 472.722 60.5851   2
   1   7   8 3000.11 144.764   2
   1   7   8 3277.24 91.8005   3
   1   7   9 2146.78 124.174   2
   1   7   9 1982.30 76.9709   3
   1   7  10 43.1672 16.8376   3
  -1  -7 -10 66.0817 14.5936   4
   1   7  10 14.0147 28.4889   2
   1   7  11 10512.8 300.138   2
  -1  -7 -11 10674.1 189.070   4
   1   7  11 10191.0 224.935   3
   1   7  12 2115.16 133.297   2
  -1  -7 -12 2364.88 84.5647   4
   1   7  12 2053.10 100.997   3
   1   7  13 26.1273 15.9784   3
  -1  -7 -13 44.0692 18.7246   4
   1   7  13-1.35382 30.8317   2
  -1  -7 -14 4772.71 144.198   4
   1   7  14 4603.18 205.032   2
   1   7  14 4585.89 163.527   3
  -1  -7 -15 313.764 40.4745   4
   1   7  15 369.448 66.6914   2
  -1  -7 -16 59.3316 26.8015   4
   1   7  16-9.07564 34.3896   2
  -1  -7 -17 201.736 39.4257   4
  -1  -7 -18 1393.64 93.6612   4
  -1  -7 -19 23.8852 25.0209   4
   1   8 -15 26.2170 30.0246   4
   1   8 -14-15.1432 33.2630   4
   1   8 -13 156.618 46.3750   4
   1   8 -12 753.873 88.3547   4
   1   8 -11 45.7068 30.1938   4
   1   8 -10 8868.53 277.891   4
   1   8  -9 499.285 64.8773   4
  -1  -8   9 446.986 57.1824   3
   1   8  -8 59.5632 31.2820   4
  -1  -8   8 37.5804 24.7953   3
  -1  -8   7 1297.84 91.6573   4
  -1  -8   7 1534.79 90.1791   3
   1   8  -7 1502.06 96.5599   4
   1   8  -6 397.181 50.7885   4
  -1  -8   6 494.427 49.9272   3
  -1  -8   6 471.361 55.4402   4
  -1  -8   5 3820.69 129.537   3
  -1  -8   5 3689.22 139.375   4
   1   8  -5 3869.46 140.925   4
  -1  -8   4 13292.6 350.862   1
  -1  -8   4 12639.7 270.739   4
  -1  -8   4 13891.8 261.471   3
   1   8  -4 13411.5 272.538   4
  -1  -8   3 2723.98 147.895   1
  -1  -8   3 2513.84 91.3389   3
   1   8  -3 2517.13 99.5878   4
  -1  -8   3 2386.15 97.2694   4
  -1  -8   2 193.782 44.7138   1
  -1  -8   2 199.958 25.3960   3
  -1  -8   2 173.682 25.5395   4
  -1  -8   1 3223.79 87.9063   3
  -1  -8   1 3244.75 157.033   1
  -1  -8   1 3229.00 95.0597   4
  -1  -8   0 884.056 82.4473   1
  -1  -8   0 952.717 43.5252   4
   1   8   0 1074.22 89.2348   2
  -1  -8   0 909.117 39.4762   3
  -1  -8  -1 414.538 22.2271   3
   1   8   1 472.663 61.3279   2
  -1  -8  -1 410.821 60.7166   1
  -1  -8  -2 49.0244 29.0960   1
   1   8   2 11.4776 29.5425   2
   1   8   3 810.466 79.5741   2
  -1  -8  -3 628.808 72.1569   1
   1   8   4 97.4664 39.5531   2
  -1  -8  -4 51.2811 31.8632   1
   1   8   5 2714.50 140.960   2
  -1  -8  -5 2637.90 139.968   1
   1   8   6 1445.39 105.586   2
   1   8   6 1479.74 44.2726   3
  -1  -8  -6 1507.96 105.393   1
   1   8   7 551.807 31.4893   3
   1   8   7 543.024 67.7917   2
  -1  -8  -7 526.358 70.4747   1
   1   8   8 604.484 36.3097   3
   1   8   8 561.813 69.2469   2
   1   8   9 9915.73 190.020   3
   1   8   9 10145.0 295.290   2
   1   8  10 416.236 36.7741   3
   1   8  10 488.364 66.5124   2
   1   8  11 1550.06 116.553   2
   1   8  11 1563.07 76.8697   3
   1   8  12 7334.20 261.852   2
  -1  -8 -12 7706.50 145.405   4
   1   8  12 7525.84 192.420   3
   1   8  13 3023.18 167.595   2
   1   8  13 2912.26 119.614   3
  -1  -8 -13 3153.94 96.0638   4
  -1  -8 -14 214.579 29.1921   4
   1   8  14 170.658 49.1755   2
   1   8  15 2471.29 159.779   2
   1   8  16 69.6746 41.1423   2
   1   8  17 948.942 107.718   2
   1   8  18 70.9964 44.2982   2
   1   8  19 49.6304 46.4379   2
   1   9 -14 102.385 52.4038   4
   1   9 -13 466.111 83.8244   4
  -1  -9  13 550.550 74.3813   3
  -1  -9  12 70.5116 34.3592   3
   1   9 -12 9.98322 27.5043   4
  -1  -9  11 5206.27 206.997   3
   1   9 -11 4619.56 210.199   4
   1   9 -10 172.732 46.1414   4
  -1  -9  10 163.387 39.9595   3
  -1  -9   9 1154.82 88.5432   3
   1   9  -9 984.521 88.9902   4
   1   9  -8-43.3833 30.1781   4
  -1  -9   8 23.8986 20.8361   3
  -1  -9   7 7865.43 217.974   3
   1   9  -7 7204.30 227.025   4
  -1  -9   6 3328.40 181.939   1
  -1  -9   6 3553.58 134.053   3
   1   9  -6 3026.49 135.484   4
  -1  -9   5 140.563 28.3828   3
  -1  -9   5 135.669 40.2998   1
   1   9  -5 200.792 38.2531   4
  -1  -9   4 147.986 47.5812   1
  -1  -9   4 193.852 30.1838   3
  -1  -9   4 170.241 33.3968   4
  -1  -9   3 303.775 33.1196   3
  -1  -9   3 317.698 37.5187   4
  -1  -9   3 298.464 57.8617   1
  -1  -9   2 2713.84 153.712   1
  -1  -9   2 2791.23 91.1013   3
  -1  -9   2 2632.11 95.8809   4
  -1  -9   1 679.319 40.3953   3
  -1  -9   1 585.659 39.9802   4
  -1  -9   1 772.781 84.1178   1
  -1  -9   0 943.904 93.5749   1
  -1  -9   0 959.272 43.4886   4
  -1  -9   0 1084.13 44.9967   3
  -1  -9  -1 12.1582 32.0333   1
  -1  -9  -1 10.8564 8.73071   3
   1   9   1 85.2564 40.4149   2
  -1  -9  -2 713.774 80.4652   1
   1   9   2 645.712 75.6281   2
  -1  -9  -3 3416.53 169.298   1
   1   9   3 3173.87 161.702   2
  -1  -9  -4 199.924 43.3649   1
   1   9   4 235.947 52.1601   2
   1   9   5-35.2359 31.1627   2
  -1  -9  -5-6.49484 37.1904   1
  -1  -9  -6 1714.28 120.175   1
   1   9   6 1750.39 121.915   2
  -1  -9  -7 4654.38 200.571   1
   1   9   7 4402.72 90.0944   3
   1   9   7 4778.02 203.001   2
   1   9   8-67.6694 38.2036   2
   1   9   8 16.6087 10.7101   3
   1   9   9 232.479 54.2219   2
   1   9  10 8537.74 285.441   2
   1   9  11 140.683 42.7581   2
   1   9  12 242.256 55.2802   2
   1   9  13 574.402 78.1974   2
   1   9  14 2430.87 159.881   2
   1   9  15 57.9360 40.2730   2
   1   9  16-27.9535 38.2044   2
   1   9  17 195.616 51.9194   2
  -1 -10   8 2285.42 164.619   1
  -1 -10   7 1148.25 114.101   1
  -1 -10   6 1083.17 110.747   1
  -1 -10   5 966.806 102.983   1
  -1 -10   4 136.837 43.6512   1
  -1 -10   3 366.812 66.8795   1
  -1 -10   2 2945.34 169.044   1
  -1 -10   1 68.1561 40.1449   1
  -1 -10   0 110.232 38.7039   1
  -1 -10  -1 821.991 89.9364   1
   1  10   1 740.493 85.1762   2
  -1 -10  -2 1693.68 124.844   1
   1  10   2 1550.40 120.437   2
   1  10   3 330.414 58.8377   2
  -1 -10  -3 375.506 66.1801   1
  -1 -10  -4 2356.28 147.291   1
   1  10   4 2307.45 146.961   2
  -1 -10  -5 1070.50 101.444   1
   1  10   5 1073.06 101.454   2
   1  10   6 992.405 98.2053   2
  -1 -10  -6 1011.79 96.9885   1
  -1 -10  -7 5731.73 235.856   1
   1  10   7 5254.40 226.035   2
   1  10   8 14.3833 33.7690   2
   1  10   9 407.924 69.1595   2
   1  10  10 1800.24 137.621   2
   1  10  11 4595.22 219.277   2
   1  10  12 1509.72 127.917   2
   1  10  13 595.146 83.4297   2
   1  10  14 556.589 81.5179   2
   1  10  15 304.395 64.5763   2
   1  10  16 451.421 79.9047   2
  -1 -11   6 164.827 49.6572   1
  -1 -11   5 7.89444 28.5331   1
  -1 -11   4 695.995 90.8896   1
  -1 -11   3 167.668 50.8670   1
  -1 -11   2 1539.66 130.187   1
  -1 -11   1 397.618 69.9332   1
  -1 -11   0 696.724 88.3290   1
  -1 -11  -1 282.076 59.9499   1
  -1 -11  -2 6013.78 256.892   1
   1  11   2 5900.42 248.664   2
   1  11   3 67.7598 40.5591   2
  -1 -11  -3 144.316 54.1564   1
  -1 -11  -4 92.7041 37.1062   1
   1  11   4 139.913 45.3774   2
  -1 -11  -5 204.260 56.2410   1
   1  11   5 185.273 54.0141   2
   1  11   6 1760.16 134.586   2
  -1 -11  -6 1955.30 143.337   1
   1  11   7 320.821 65.5185   2
   1  11   8 96.8980 43.3585   2
   1  11   9 90.8298 46.9572   2
   1  11  10 281.043 64.4177   2
   1  11  11 10.8532 37.0036   2
   1  11  12 48.5408 42.4697   2
   1  11  13 155.805 47.8585   2
  -1 -12   2-55.4552 42.0785   1
  -1 -12   1 5583.41 261.609   1
  -1 -12   0 2.57608 34.8842   1
  -1 -12  -1 2471.79 168.860   1
  -1 -12  -2 227.784 57.5163   1
   1  12   3 1296.34 124.282   2
  -1 -12  -3 1264.93 119.204   1
  -1 -12  -4 1062.39 108.965   1
   1  12   4 976.970 108.712   2
  -1 -12  -5 22.5536 32.5640   1
   1  12   5 76.0657 44.3100   2
  -1 -12  -6-21.2407 33.0735   1
   1  12   6 58.2062 41.5649   2
   1  12   7 61.0362 38.9508   2
   1  12   8 21.8178 41.1087   2
   1  12   9 20.5685 32.4180   2
   1  12  10 155.718 60.6250   2
   2 -12  -8 146.276 46.7392   3
   2 -12  -7 288.204 61.9160   3
   2 -12  -6 1264.88 111.206   3
   2 -12  -5-10.5779 40.3390   3
   2 -12  -4 488.514 72.0351   3
   2 -12  -3 1045.15 99.8837   3
   2 -12  -2 1988.07 138.069   3
   2 -12  -1-40.9413 35.5206   3
   2 -12   0-27.4939 39.5771   3
   2 -12   1 1173.76 108.752   3
   2 -12   2 215.658 56.2781   3
   2 -12   3 321.294 66.4103   3
   2 -12   4 719.472 87.4417   3
   2 -12   5 73.9936 36.3343   3
   2 -11  -8 25.6033 34.0260   3
   2 -11  -7-11.0274 36.9802   3
   2 -11  -6 52.8878 45.6616   3
   2 -11  -5 905.771 96.7680   3
   2 -11  -4 124.119 56.2996   3
   2 -11  -3 139.093 55.8793   3
   2 -11  -2 14.2708 31.7401   3
   2 -11  -1 824.521 87.6592   3
   2 -11   0 337.264 60.4860   3
   2 -11   1 180.433 45.8641   3
   2 -11   2 11.0373 29.4720   3
   2 -11   3 1010.63 99.9044   3
   2 -11   4 85.4952 37.4213   3
   2 -11   5 455.520 68.7454   3
   2 -11   6 36.6685 37.3526   3
   2 -11   7 2116.35 148.831   3
   2 -11   8 944.110 101.530   3
   2 -11   9 1278.44 123.182   3
  -2  10  16 72.6234 35.8375   2
  -2  10  15 450.294 72.8732   2
  -2  10  14 1832.61 130.323   2
  -2  10  13-33.6695 30.2642   2
  -2  10  12 1987.20 128.839   2
   2 -10 -12 2287.76 135.489   4
  -2  10  11 67.1189 31.0542   2
   2 -10 -11 12.2243 27.1947   4
  -2  10  10 326.303 54.8836   2
   2 -10 -10 289.902 54.4820   4
  -2  10   9 2165.24 126.295   2
   2 -10  -9 2175.72 127.489   4
   2 -10  -8 802.257 84.6318   3
   2 -10  -8 854.506 80.4442   4
  -2  10   8 752.929 72.9920   2
   2 -10  -7 854.336 87.3356   3
  -2  10   7 798.799 72.8251   2
   2 -10  -6 354.542 60.5774   3
  -2  10   6 284.638 47.9878   2
   2 -10  -5-2.73383 28.9698   3
  -2  10   5 99.1380 36.3655   2
  -2  10   4 1700.58 103.655   2
   2 -10  -4 1734.33 119.878   3
   2 -10  -3 189.209 43.5725   3
   2 -10  -2 1790.22 122.158   3
   2 -10  -1 603.660 73.4640   3
   2 -10   0 243.482 43.8853   1
   2 -10   0 222.468 47.0629   3
   2 -10   1 235.470 44.4949   1
   2 -10   1 297.269 53.5388   3
   2 -10   2 108.142 37.0047   1
   2 -10   2 105.049 41.9019   3
   2 -10   3 293.558 55.4289   3
   2 -10   3 273.660 47.4413   1
   2 -10   4 1320.62 111.291   3
   2 -10   4 1459.78 98.8271   1
   2 -10   5 88.2777 40.8251   3
   2 -10   5 79.4915 34.2744   1
   2 -10   6 2500.45 155.541   3
   2 -10   6 2489.29 134.493   1
   2 -10   7 1918.43 138.262   3
   2 -10   8 589.748 81.4811   3
   2 -10   9 1588.42 131.308   3
   2 -10  10 876.190 99.4164   3
   2 -10  11 138.118 43.8522   3
  -2   9  18 386.504 73.8033   2
   2  -9 -17 281.932 57.8631   4
  -2   9  17 281.965 60.2453   2
   2  -9 -16 49.1892 36.2597   4
  -2   9  16 64.0330 35.0020   2
  -2   9  15 1241.62 106.807   2
   2  -9 -15 1440.99 115.225   4
   2  -9 -14 149.667 39.8966   4
  -2   9  14 231.667 53.8937   2
  -2   9  13 2383.79 141.636   2
   2  -9 -13 2772.75 153.877   4
  -2   9  12 313.913 54.7592   2
   2  -9 -12 333.461 54.5837   4
  -2   9  11 2182.64 126.554   2
   2  -9 -11 2166.04 130.002   4
  -2   9  10-17.7705 28.3012   2
   2  -9 -10 41.2911 29.3887   4
  -2   9   9 3659.31 155.983   2
   2  -9  -9 4108.09 173.172   4
   2  -9  -9 3902.99 183.347   3
   2  -9  -8 757.763 80.8817   3
  -2   9   8 692.752 65.9825   2
   2  -9  -7 185.781 44.3870   3
  -2   9   7 152.878 36.5772   2
   2  -9  -6 1055.59 91.5068   3
  -2   9   6 1168.95 82.3209   2
  -2   9   5 78.4398 30.1592   2
   2  -9  -5 43.3812 27.8913   3
   2  -9  -4 25.0972 23.8174   3
  -2   9   4 110.945 34.0772   2
  -2   9   3 525.854 54.0067   2
   2  -9  -3 484.414 64.6745   3
   2  -9  -2 3701.19 170.361   3
   2  -9  -1 280.361 51.9499   3
   2  -9  -1 278.413 43.2409   1
   2  -9   0 172.527 39.1360   3
   2  -9   0 216.893 37.0480   1
   2  -9   1 1369.34 102.650   3
   2  -9   1 1280.69 80.7597   2
   2  -9   1 1526.26 88.8092   1
   2  -9   2 122.032 36.3215   3
   2  -9   2 229.438 43.5805   1
   2  -9   3 942.454 73.5948   1
   2  -9   3 845.192 85.7607   3
   2  -9   4 259.586 51.0328   3
   2  -9   4 149.464 37.8311   1
   2  -9   5 3688.46 178.906   3
   2  -9   5 3944.82 155.152   1
   2  -9   6 374.247 61.0788   3
   2  -9   6 397.242 52.6299   1
   2  -9   7 4291.73 200.157   3
   2  -9   7 4239.45 172.471   1
   2  -9   8 3140.22 150.584   1
   2  -9   8 3043.89 171.551   3
   2  -9   9 1115.11 109.454   3
   2  -9  10 1077.66 107.950   3
   2  -9  11 157.090 47.2045   3
   2  -9  12 241.700 62.2667   3
   2  -8 -19 91.6833 46.2096   4
   2  -8 -18 1094.20 109.564   4
   2  -8 -17 39.0400 34.9140   4
   2  -8 -16 817.046 89.6624   4
   2  -8 -15 84.5877 36.5527   4
  -2   8  15 137.100 46.4339   2
  -2   8  14 1660.41 119.096   2
   2  -8 -14 1787.20 124.032   4
   2  -8 -13 514.099 70.3958   4
  -2   8  13 413.086 60.5916   2
  -2   8  12 1505.37 105.433   2
   2  -8 -12 1530.19 109.494   4
  -2   8  11 63.3512 30.0661   2
   2  -8 -11 73.6117 34.0298   4
  -2   8  10 7573.82 229.729   2
   2  -8 -10 7892.63 247.354   4
  -2   8   9 937.410 75.6821   2
  -2   8   9 773.279 68.9576   1
   2  -8  -9 905.329 81.4832   4
   2  -8  -9 939.492 88.3337   3
   2  -8  -8 101.851 38.3925   3
  -2   8   8 31.3702 23.0602   2
  -2   8   8 110.101 29.8423   1
  -2   8   7-9.13953 17.2247   1
   2  -8  -7-3.85002 25.7462   3
  -2   8   7 21.8635 26.4863   2
  -2   8   6 874.008 67.5895   1
  -2   8   6 997.241 70.7301   2
   2  -8  -6 993.427 86.0972   3
   2  -8  -5 25.1947 27.2912   3
  -2   8   5 60.5532 25.1273   2
   2  -8  -4 212.711 40.7076   3
  -2   8   4 293.071 40.9002   2
  -2   8   3 78.5872 24.8974   2
   2  -8  -3 48.7830 26.2987   3
  -2   8   2 349.992 40.4625   2
   2  -8  -2 394.729 57.9720   3
   2  -8  -1 17.7639 29.5303   3
   2  -8  -1 215.683 49.6783   1
   2  -8   0 5486.43 197.607   3
   2  -8   0 5889.17 163.885   1
   2  -8   1 9060.84 263.056   3
   2  -8   1 9290.54 215.412   2
   2  -8   1 9281.90 218.108   1
   2  -8   2 437.992 48.9357   1
   2  -8   2 452.267 59.8227   3
   2  -8   2 449.190 45.5350   2
   2  -8   3 393.849 44.0013   2
   2  -8   3 297.560 48.7207   3
   2  -8   3 358.588 43.5818   1
   2  -8   4 216.452 45.8639   3
   2  -8   4 219.631 39.5323   1
   2  -8   4 252.611 38.7410   2
   2  -8   5 65.8605 27.9788   1
   2  -8   5 95.6630 38.1862   3
   2  -8   5 75.9463 25.4567   2
   2  -8   6 910.950 71.7382   2
   2  -8   6 927.462 75.1788   1
   2  -8   6 839.497 83.9794   3
   2  -8   7 5521.94 187.393   1
   2  -8   7 5125.45 213.519   3
   2  -8   8 49.1021 35.4500   3
   2  -8   9 1777.91 130.899   3
   2  -8  10 207.372 58.2084   3
   2  -8  11 2326.36 157.177   3
   2  -8  12 44.5499 33.7322   3
   2  -8  13 53.8365 33.3045   3
   2  -8  14 994.598 111.922   3
   2  -7 -20 311.295 67.9345   4
   2  -7 -19 56.0300 33.2685   4
   2  -7 -18 150.605 46.3362   4
   2  -7 -17 394.376 67.9513   4
   2  -7 -16 1535.63 122.331   4
   2  -7 -15 991.626 96.3984   4
   2  -7 -14 41.2039 26.2500   4
   2  -7 -13 27.9727 26.7778   4
   2  -7 -12 1052.36 91.2884   4
   2  -7 -11 505.158 62.9294   4
  -2   7  11 522.128 61.3132   2
  -2   7  10 21.8407 21.1413   1
   2  -7 -10 35.4010 28.5549   4
  -2   7  10-2.80534 25.1552   2
  -2   7   9 2840.11 126.198   2
   2  -7  -9 3200.76 147.001   4
  -2   7   9 2867.40 127.111   1
   2  -7  -9 3078.05 152.400   3
  -2   7   8 204.755 34.7864   1
   2  -7  -8 257.441 47.0027   3
  -2   7   8 241.977 38.2720   2
   2  -7  -7 233.705 47.3350   3
  -2   7   7 209.886 34.3274   2
  -2   7   7 263.755 38.3047   1
  -2   7   6 846.884 61.4102   2
  -2   7   6 687.577 55.4481   1
   2  -7  -6 700.258 70.2486   3
  -2   7   5 7827.32 189.949   2
  -2   7   5 7138.17 185.613   1
   2  -7  -5 7781.80 234.770   3
   2  -7  -4 473.052 59.4676   3
  -2   7   4 440.369 42.6996   2
   2  -7  -3 228.857 40.3754   3
  -2   7   3 257.515 35.6190   2
  -2   7   2 2740.36 100.160   2
   2  -7  -2 2777.41 132.672   3
   2  -7  -1 7676.75 228.539   3
   2  -7   0 10313.4 270.139   3
   2  -7   0 10478.2 212.531   1
   2  -7   1 208.117 42.7254   3
   2  -7   1 239.396 44.0026   4
   2  -7   1 250.118 34.2087   1
   2  -7   1 244.868 31.8815   2
   2  -7   2-13.3918 21.0224   1
   2  -7   2 18.0991 26.7783   3
   2  -7   2-26.3928 17.5098   2
   2  -7   3 972.145 82.1726   3
   2  -7   3 959.625 60.9916   2
   2  -7   3 1106.61 65.8617   1
   2  -7   4 2759.33 107.857   2
   2  -7   4 2614.53 135.624   3
   2  -7   4 2620.65 108.253   1
   2  -7   5 84.9752 29.1212   1
   2  -7   5 102.702 27.6680   2
   2  -7   5 88.1051 32.7903   3
   2  -7   6 213.818 36.7144   2
   2  -7   6 188.726 42.2788   3
   2  -7   7 19.8254 18.2576   2
   2  -7   7 13.9759 28.4848   3
   2  -7   8 444.842 52.3847   2
   2  -7   8 484.360 68.6898   3
   2  -7   9 5.56249 21.5630   2
   2  -7   9-23.2134 32.3697   3
   2  -7  10 6806.45 255.490   3
   2  -7  11 247.821 56.9480   3
   2  -7  12 6668.87 265.821   3
   2  -7  13 138.418 45.2663   3
   2  -7  14 531.812 81.9367   3
   2  -7  15 74.5913 35.6524   3
   2  -6 -20 1824.18 146.938   4
   2  -6 -19 84.6384 36.9235   4
   2  -6 -18 2067.50 149.542   4
   2  -6 -17 70.3035 43.2118   4
   2  -6 -16 372.404 62.8217   4
   2  -6 -15 1625.78 121.284   4
   2  -6 -14 988.028 93.0994   4
   2  -6 -13 1121.90 95.1604   4
   2  -6 -12 218.611 44.6242   4
  -2   6  11 1758.51 103.302   1
   2  -6 -11 1883.73 116.340   4
  -2   6  10 106.545 29.8239   1
   2  -6 -10 83.9708 30.1237   4
   2  -6  -9 6872.00 216.642   4
  -2   6   9 6222.51 186.182   1
  -2   6   8 1954.93 95.3090   2
  -2   6   8 1744.52 90.6629   1
   2  -6  -8 1774.79 110.417   3
   2  -6  -7 333.448 53.9717   3
  -2   6   7 286.843 36.7225   1
  -2   6   7 294.605 39.6682   2
  -2   6   6 2227.35 91.9156   2
  -2   6   6 1936.81 87.1772   1
   2  -6  -6 2104.39 115.182   3
  -2   6   5 1572.98 97.2824   3
  -2   6   5 1379.81 68.9718   1
  -2   6   5 1374.35 68.7055   2
   2  -6  -5 1426.30 93.5912   3
  -2   6   4 379.831 39.0126   1
   2  -6  -4 230.028 41.8140   3
  -2   6   4 236.385 40.6153   3
  -2   6   4 263.177 32.3035   2
  -2   6   3 1354.08 89.0759   3
  -2   6   3 1359.95 63.5864   2
   2  -6  -3 1298.19 88.6240   3
  -2   6   2 1251.50 85.2652   3
  -2   6   2 1177.80 57.7583   2
   2  -6  -2 1274.16 87.3519   3
  -2   6   1 4378.37 162.508   3
   2  -6  -1 4268.00 158.309   3
   2  -6   0 171.015 37.9548   3
  -2   6   0 243.041 41.8100   3
   2  -6   0 234.001 27.2182   1
   2  -6   1 174.435 41.7015   3
   2  -6   1 146.911 25.2628   1
  -2   6  -1 161.408 33.4505   3
   2  -6   1 127.822 22.8834   2
  -2   6  -2 298.789 44.0203   3
   2  -6   2 252.787 41.6976   3
   2  -6   2 208.493 40.1102   4
   2  -6   2 204.070 25.9439   2
   2  -6   2 261.625 29.8840   1
   2  -6   3 80.8019 22.3182   1
   2  -6   3 60.7689 28.6972   3
   2  -6   3 89.2682 29.8567   4
   2  -6   3 59.6503 18.1699   2
   2  -6   4 2233.61 90.0525   1
   2  -6   4 2265.65 120.682   3
   2  -6   4 2206.13 87.5620   2
   2  -6   5 10.4759 16.4314   2
   2  -6   5 4.75144 27.5503   3
   2  -6   6 165.096 30.0550   2
   2  -6   6 199.890 44.4571   3
   2  -6   7-2.08762 19.5270   2
   2  -6   7 3.93200 26.6743   3
   2  -6   8 2529.46 141.533   3
   2  -6   8 2376.06 110.604   2
   2  -6   9 3219.06 163.157   3
   2  -6   9 3086.45 131.618   2
   2  -6  10 229.536 50.8418   3
   2  -6  11 3454.41 177.733   3
   2  -6  12 684.499 84.9964   3
   2  -6  13 3405.68 185.936   3
   2  -6  14 79.9363 43.0528   3
   2  -6  15 3714.47 205.449   3
   2  -6  16 97.3239 41.0641   3
   2  -5 -20 1901.63 151.122   4
   2  -5 -19 202.511 50.7342   4
   2  -5 -18-10.7349 33.2915   4
   2  -5 -17 1806.88 135.434   4
   2  -5 -16 454.106 71.9023   4
   2  -5 -15 2247.79 142.935   4
   2  -5 -14 357.612 57.9749   4
   2  -5 -13 318.086 56.7046   4
   2  -5 -12 1503.57 108.227   4
   2  -5 -11 8.67529 23.0794   4
   2  -5 -10 3454.62 153.902   4
   2  -5  -9 2749.54 133.250   4
   2  -5  -8 4373.72 164.608   4
   2  -5  -8 4264.85 167.946   3
  -2   5   7 1516.09 94.6478   3
   2  -5  -7 1411.00 93.8409   3
  -2   5   7 1416.67 73.3983   1
  -2   5   6 20947.7 336.104   2
  -2   5   6 21352.4 406.261   3
  -2   5   6 19792.6 334.287   1
   2  -5  -6 21200.5 404.719   3
  -2   5   5 957.125 74.2420   3
  -2   5   5 857.473 50.6994   2
  -2   5   5 861.757 50.9603   1
   2  -5  -5 943.312 73.8664   3
  -2   5   4 13295.7 293.978   3
  -2   5   4 12907.5 222.113   2
  -2   5   4 12278.2 220.881   1
   2  -5  -4 13649.4 297.799   3
  -2   5   3 556.635 36.0915   2
  -2   5   3 624.471 58.6720   3
  -2   5   3 477.106 33.7629   1
   2  -5  -3 558.284 57.4110   3
   2  -5  -2 95.6780 26.7011   3
  -2   5   2 68.4791 14.6481   2
  -2   5   2 126.383 28.4310   3
   2  -5  -1 7186.68 200.927   3
  -2   5   1 7820.03 213.164   3
  -2   5   1 6958.78 134.279   2
   2  -5   0 17726.4 351.734   3
  -2   5   0 18464.4 360.340   3
   2  -5   1 7208.36 206.394   3
  -2   5  -1 7392.28 208.381   3
   2  -5   1 7150.92 134.858   2
   2  -5   1 7379.05 137.033   1
   2  -5   2 4230.39 154.763   3
   2  -5   2 4458.91 103.436   2
  -2   5  -2 4441.81 158.990   3
   2  -5   2 4584.44 105.553   1
   2  -5   3 41.4366 15.9797   1
   2  -5   3 38.5384 27.7770   3
   2  -5   3 43.2356 27.3105   4
  -2   5  -3 34.2615 19.1652   3
   2  -5   3 60.7139 17.6069   2
   2  -5   4 305.045 30.4470   2
   2  -5   4 315.745 44.4529   4
  -2   5  -4 386.121 50.1238   3
   2  -5   4 327.367 49.1971   3
   2  -5   5 846.125 74.0088   4
   2  -5   5 779.990 71.0336   3
   2  -5   5 775.534 49.6383   2
   2  -5   6 1210.16 89.7970   3
   2  -5   6 1030.61 61.2199   2
   2  -5   7 2324.81 126.361   3
   2  -5   8 496.571 62.2061   3
   2  -5   9 0.46746 27.6814   3
   2  -5  10 235.863 47.1090   3
   2  -5  11 1021.09 94.0568   3
   2  -5  12 6567.94 245.884   3
   2  -5  13 2750.40 162.452   3
   2  -5  14 930.771 100.430   3
   2  -5  15 11.3851 35.8320   3
   2  -5  16 3480.77 199.655   3
   2  -5  17 262.932 60.7290   3
   2  -4 -20 799.393 104.250   4
   2  -4 -19 565.821 85.0243   4
   2  -4 -18 144.797 52.2461   4
   2  -4 -17-4.06584 34.4903   4
   2  -4 -16 4702.61 212.134   4
   2  -4 -15 855.145 89.7036   4
   2  -4 -14 1507.84 112.203   4
   2  -4 -13 418.778 61.4565   4
   2  -4 -12 7485.81 243.848   4
   2  -4 -11 4793.28 185.579   4
   2  -4 -10 23.9184 23.0279   4
   2  -4  -9 1158.85 86.0719   4
   2  -4  -8 2480.10 121.364   4
  -2   4   8 2445.69 122.703   3
   2  -4  -7 3925.78 152.797   3
  -2   4   7 3899.98 151.794   3
  -2   4   6 277.238 40.8520   3
   2  -4  -6 277.544 43.2100   3
  -2   4   5 4698.80 158.924   3
  -2   4   5 4282.14 113.489   1
   2  -4  -5 4856.37 162.700   3
   2  -4  -4 503.971 53.9564   3
  -2   4   4 537.073 34.8283   2
  -2   4   4 556.277 53.9991   3
  -2   4   4 510.650 34.1107   1
  -2   4   3 3924.29 140.287   3
  -2   4   3 3966.97 90.3535   2
  -2   4   3 3615.03 87.7984   1
   2  -4  -3 3784.06 140.294   3
  -2   4   2 6668.28 118.062   2
  -2   4   2 6561.12 118.269   1
  -2   4   2 7337.28 195.349   3
   2  -4  -2 7323.42 196.639   3
  -2   4   1 943.673 67.4989   3
  -2   4   1 966.914 33.7984   2
   2  -4  -1 953.455 67.2526   3
   2  -4   0 6872.92 190.104   3
  -2   4   0 7106.16 195.810   3
   2  -4   1 112.466 13.4691   1
   2  -4   1 81.1455 29.8748   3
  -2   4  -1 78.9198 24.1489   3
   2  -4   2 5321.54 165.732   3
   2  -4   2 5144.00 96.7815   2
  -2   4  -2 5359.28 167.558   3
   2  -4   2 5304.21 97.7881   1
   2  -4   3 18409.6 353.626   3
  -2   4  -3 19053.7 359.428   3
   2  -4   3 17891.2 256.722   2
   2  -4   4 433.381 51.3811   4
   2  -4   4 427.175 49.5924   3
  -2   4  -4 431.370 56.1879   3
   2  -4   4 389.256 30.1160   2
   2  -4   5 8403.18 230.358   3
   2  -4   5 8561.26 231.755   4
   2  -4   6 288.980 47.6056   4
   2  -4   6 285.816 47.1915   3
   2  -4   7 1319.34 91.6738   3
   2  -4   7 1429.12 95.1695   4
   2  -4   8 2931.31 140.051   3
   2  -4   9 4453.58 178.379   3
   2  -4  10 455.868 63.3414   3
   2  -4  11 1181.50 96.2685   3
   2  -4  12 91.6488 36.6125   3
   2  -4  13 5411.47 223.097   3
   2  -4  14 6823.57 259.553   3
   2  -4  15-43.7493 40.0665   3
   2  -4  16 2091.70 152.911   3
   2  -4  17 99.7421 43.1548   3
   2  -4  18 617.146 94.9828   3
   2  -3 -20 130.310 52.1861   4
   2  -3 -19 816.161 100.617   4
   2  -3 -18 5906.17 255.424   4
   2  -3 -17 45.1398 34.1232   4
   2  -3 -16 2277.51 147.623   4
   2  -3 -15 4.87649 34.2404   4
   2  -3 -14 2257.18 137.499   4
   2  -3 -13 1873.98 120.498   4
   2  -3 -12 9111.04 271.486   4
   2  -3 -11 5633.63 202.711   4
   2  -3 -10 580.646 64.1821   4
   2  -3  -9 698.271 67.4702   4
  -2   3   9 670.993 66.2650   3
  -2   3   8 180.080 35.1201   3
   2  -3  -8 139.359 37.4711   4
   2  -3  -7 387.309 49.4808   3
  -2   3   7 461.330 51.6334   3
   2  -3  -7 334.493 45.8249   4
   2  -3  -6 2718.64 120.026   3
  -2   3   6 2628.04 117.850   3
  -2   3   5 359.119 44.0941   3
   2  -3  -5 393.546 48.9361   3
  -2   3   4 3731.33 133.426   3
   2  -3  -4 3516.46 131.451   3
  -2   3   3 7297.41 192.779   3
   2  -3  -3 7233.17 192.273   3
  -2   3   2 3230.19 119.939   3
  -2   3   2 3194.16 63.4370   2
  -2   3   2 3209.25 63.8687   1
   2  -3  -2 3265.63 122.571   3
  -2   3   1 12417.9 258.782   3
   2  -3  -1 12193.3 256.579   3
   2  -3   0 4075.75 136.343   3
  -2   3   0 4370.29 141.571   3
   2  -3   1 5556.54 163.741   3
  -2   3  -1 5786.02 166.579   3
   2  -3   2 98.9309 28.8210   3
  -2   3  -2 91.6713 24.2292   3
   2  -3   3 11917.2 257.273   3
  -2   3  -3 12450.8 263.762   3
   2  -3   3 11679.2 168.798   2
   2  -3   4 7364.56 201.228   3
  -2   3  -4 7948.67 207.735   3
   2  -3   5 2378.79 111.998   3
   2  -3   5 2496.28 112.720   4
   2  -3   6 5477.54 177.048   3
   2  -3   6 5807.25 182.292   4
   2  -3   7 2196.89 113.552   3
   2  -3   7 2440.72 118.606   4
   2  -3   8 3909.95 155.993   3
   2  -3   8 4026.09 157.908   4
   2  -3   9 680.726 70.3993   3
   2  -3  10 1241.00 93.2593   3
   2  -3  11 730.965 75.4394   3
   2  -3  12-15.4850 30.2953   3
   2  -3  13 140.018 48.2826   3
   2  -3  14 2354.16 146.563   3
   2  -3  15 6278.12 252.104   3
  -2   3 -15 6018.83 248.415   4
  -2   3 -16 31.8202 37.0052   4
   2  -3  16 38.6727 35.0513   3
  -2   3 -17 15.0087 32.7048   4
   2  -3  17 66.3129 41.0099   3
  -2   3 -18-11.0252 29.0457   4
   2  -3  18 92.8206 48.5410   3
  -2   3 -19 274.659 70.9819   4
   2  -3  19 340.401 73.4156   3
   2  -2 -20 144.001 42.8639   4
   2  -2 -19 4418.97 227.404   4
   2  -2 -18 150.916 47.8470   4
   2  -2 -17 5718.67 246.195   4
   2  -2 -16 102.128 47.4887   4
   2  -2 -15 2037.94 137.029   4
   2  -2 -14 353.133 59.0216   4
   2  -2 -13 7070.68 242.996   4
   2  -2 -12 105.202 34.3388   4
   2  -2 -11 643.549 69.8407   4
   2  -2 -10 2703.62 133.033   4
   2  -2  -9 23.0972 22.4634   4
  -2   2   9 38.8385 22.0383   3
   2  -2  -8 2239.24 113.760   4
  -2   2   8 2437.53 116.616   3
   2  -2  -7 5331.96 173.725   4
  -2   2   7 5482.51 174.054   3
   2  -2  -6 20305.8 376.005   3
  -2   2   6 21000.9 381.020   3
   2  -2  -5 73.0564 26.5185   3
  -2   2   5 137.143 31.3087   3
   2  -2  -4 6443.94 176.268   3
  -2   2   4 6588.88 176.646   3
  -2   2   3 2787.13 107.723   3
   2  -2  -3 2669.07 106.819   3
  -2   2   2 10161.4 223.482   3
   2  -2  -2 10096.1 223.582   3
  -2   2   1 9256.62 207.174   3
   2  -2  -1 9448.55 210.212   3
   2  -2   0 24587.9 392.867   3
  -2   2   0 24104.6 391.981   3
   2  -2   1 15448.4 288.000   3
  -2   2  -1 15229.6 288.913   3
   2  -2   2 10963.8 233.611   3
  -2   2  -2 11650.7 240.890   3
   2  -2   3 7306.11 185.193   3
  -2   2  -3 7612.72 188.441   3
   2  -2   4 15912.2 305.872   3
  -2   2  -4 15666.1 304.401   3
   2  -2   5 18435.9 343.351   3
   2  -2   5 18737.2 348.601   4
   2  -2   6 14708.1 302.803   3
   2  -2   6 14923.7 305.590   4
   2  -2   7 1628.67 92.3570   3
   2  -2   7 1831.84 97.6724   4
   2  -2   8-14.2461 20.4959   4
   2  -2   8-14.4416 22.9841   3
   2  -2   9 1280.04 89.3194   3
   2  -2   9 1436.70 93.5668   4
   2  -2  10 71.3439 32.3617   3
   2  -2  11 1291.51 95.4610   3
   2  -2  12 70.2928 34.0302   3
   2  -2  13 2187.40 135.228   3
  -2   2 -13 2283.72 134.977   4
  -2   2 -14 799.902 83.9635   4
  -2   2 -15 478.206 70.0744   4
  -2   2 -16 4806.66 216.510   4
  -2   2 -17 3580.33 193.096   4
  -2   2 -18 1161.39 113.799   4
  -2   2 -19 734.368 96.6491   4
  -2   2 -20 2064.88 158.616   4
   2  -1 -20 279.079 65.7765   4
   2  -1 -19-13.1776 28.3104   4
   2  -1 -18 4039.37 212.671   4
   2  -1 -17 748.755 90.8063   4
   2  -1 -16 2389.22 153.947   4
   2  -1 -15 173.337 50.8332   4
   2  -1 -14 4978.55 207.762   4
   2  -1 -13 576.824 69.1412   4
   2  -1 -12 241.750 47.8182   4
   2  -1 -11 343.149 52.7670   4
   2  -1 -10 2817.04 136.458   4
   2  -1  -9 4769.85 173.530   4
  -2   1   9 5000.23 174.538   3
  -2   1   8 392.991 47.5530   3
   2  -1  -8 349.250 49.7799   4
   2  -1  -7 9760.78 244.839   4
  -2   1   7 9718.14 237.719   3
   2  -1  -6 1284.11 80.8551   4
  -2   1   6 1462.84 82.6690   3
   2  -1  -5 7519.86 193.050   3
  -2   1   5 7742.23 195.323   3
   2  -1  -4 2186.74 94.6818   3
  -2   1   4 2184.33 94.7701   3
   2  -1  -3 1545.80 77.9807   3
  -2   1   3 1421.88 73.3834   3
   2  -1  -2 38.1782 27.3240   3
  -2   1   2 33.0271 18.0690   3
  -2   1   1 3751.87 117.253   3
  -2   1   1 3378.73 69.9391   2
   2  -1  -1 3868.00 119.672   3
   2  -1   0 1949.73 82.0592   3
  -2   1   0 1814.05 79.0810   3
  -2   1   0 1762.61 39.5821   2
  -2   1   0 1767.30 40.3076   1
   2  -1   1 391.945 40.5499   3
  -2   1  -1 322.288 35.4569   3
   2  -1   2 18235.3 229.471   2
   2  -1   2 18663.4 312.531   3
   2  -1   2 18306.8 230.317   1
  -2   1  -2 18901.9 316.503   3
   2  -1   3 44437.7 608.963   3
  -2   1  -3 44302.1 610.333   3
   2  -1   3 44482.6 520.980   2
   2  -1   3 43655.3 521.404   1
   2  -1   4 12463.5 251.992   3
  -2   1  -4 12701.4 253.126   3
   2  -1   5 7500.33 188.479   3
   2  -1   5 7933.14 195.866   4
   2  -1   6 80.2462 25.8001   4
   2  -1   6 113.552 29.2737   3
   2  -1   7 14139.8 291.460   3
   2  -1   7 14461.0 296.723   4
   2  -1   8 2135.60 105.994   3
   2  -1   8 2352.09 110.023   4
   2  -1   9 749.062 65.1731   4
   2  -1   9 691.547 65.2553   3
   2  -1  10 502.805 58.5685   3
   2  -1  10 432.451 53.5665   4
   2  -1  11 641.973 67.5409   3
  -2   1 -12 45.8618 27.4298   4
  -2   1 -13 477.350 63.7119   4
  -2   1 -14 3060.18 155.968   4
  -2   1 -15 967.215 91.0969   4
  -2   1 -16 4409.06 200.298   4
  -2   1 -17 1956.75 138.389   4
  -2   1 -18 27.5210 31.8220   4
  -2   1 -19 2112.07 152.087   4
  -2   1 -20 548.680 83.9367   4
  -2   1 -21 109.879 51.7452   4
   2   0 -19 1485.92 134.790   4
   2   0 -18 1697.54 140.175   4
   2   0 -17 1585.82 130.343   4
   2   0 -16 2422.35 155.151   4
   2   0 -15 1848.69 132.344   4
   2   0 -14 110.036 41.1670   4
   2   0 -13 1870.88 123.946   4
   2   0 -12 2765.46 144.064   4
   2   0 -11 113.423 37.8371   4
   2   0 -10 4532.72 175.124   4
  -2   0  10 4793.62 175.730   3
  -2   0   9 572.177 58.1619   3
   2   0  -9 562.964 60.2942   4
   2   0  -8 3208.42 136.311   4
  -2   0   8 3198.34 130.296   3
   2   0  -7 709.891 62.1014   4
  -2   0   7 674.769 59.1331   3
   2   0  -6 5993.31 179.064   4
  -2   0   6 6102.07 173.297   3
   2   0  -5 1523.56 84.0877   4
  -2   0   5 1579.33 80.5261   3
   2   0  -4 1265.43 70.3364   3
  -2   0   4 1405.40 73.6888   3
   2   0  -3 3578.99 115.379   3
  -2   0   3 3654.00 116.598   3
  -2   0   2 2558.86 92.0179   3
  -2   0   2 2278.93 72.6645   2
   2   0  -2 2413.28 90.0151   3
  -2   0   1 1391.89 66.6529   3
  -2   0   1 1297.69 50.4058   2
   2   0  -1 1404.05 67.9383   3
  -2   0   0 21078.8 289.580   2
  -2   0   0 21739.2 335.590   3
  -2   0   0 21419.0 291.967   1
   2   0   0 22351.7 338.506   3
   2   0   1 6551.06 151.331   3
  -2   0  -1 6699.84 153.887   3
  -2   0  -1 6394.41 117.273   2
  -2   0  -1 6628.99 119.933   1
   2   0   1 6573.78 120.130   2
   2   0   2 30.9863 13.6876   1
  -2   0  -2 41.9625 15.5876   1
   2   0   2 41.9022 22.1199   3
   2   0   2 46.7666 15.5682   2
  -2   0  -2 35.7199 18.1525   3
   2   0   3 1399.50 67.6141   3
   2   0   3 1392.26 51.0909   2
  -2   0  -3 1401.63 67.6199   3
   2   0   3 1321.03 50.0569   1
   2   0   4 1712.61 77.5833   3
  -2   0  -4 1693.27 77.0166   3
   2   0   4 1629.69 60.2201   2
   2   0   4 1712.32 60.5443   1
   2   0   5 2409.69 78.6877   1
   2   0   5 2401.68 95.2257   3
   2   0   5 2543.92 99.6994   4
   2   0   6 3460.05 120.400   3
   2   0   6 3560.98 122.196   4
   2   0   7 1335.26 77.3436   3
   2   0   7 1294.57 75.1573   4
   2   0   8 16919.8 324.510   4
   2   0   8 16366.6 321.303   3
   2   0   9 4900.08 164.011   3
   2   0   9 5068.37 164.440   4
   2   0  10 6094.98 190.483   4
   2   0  11 3491.17 145.831   4
  -2   0 -12 2132.03 117.188   4
  -2   0 -13 2640.79 134.419   4
  -2   0 -14 6191.54 217.369   4
  -2   0 -15 1924.49 122.208   4
  -2   0 -16 101.259 38.3300   4
  -2   0 -17 209.023 50.2007   4
  -2   0 -18 3312.94 180.494   4
  -2   0 -19 35.6371 35.2709   4
  -2   0 -20 562.856 81.2285   4
  -2   0 -21 166.684 55.2183   4
   2   1 -19-5.41545 39.0693   4
   2   1 -18 1080.61 113.319   4
   2   1 -17-45.6492 39.8372   4
   2   1 -16 33.1335 37.1128   4
   2   1 -15 1309.45 111.490   4
   2   1 -14 648.959 83.3199   4
   2   1 -13 4315.25 191.280   4
   2   1 -12 681.061 73.1161   4
   2   1 -11 928.951 82.9927   4
   2   1 -10 7108.20 225.273   4
  -2  -1  10 7118.01 217.393   3
   2   1  -9 2339.43 119.757   4
  -2  -1   9 2415.14 117.293   3
   2   1  -8 2861.87 128.864   4
  -2  -1   8 2877.98 123.167   3
   2   1  -7 17028.9 345.165   4
  -2  -1   7 17240.3 330.928   3
  -2  -1   6 4466.02 142.525   3
   2   1  -6 4428.76 150.557   4
   2   1  -5 9088.78 216.710   4
  -2  -1   5 8626.42 202.768   3
   2   1  -4 5827.13 163.100   4
  -2  -1   4 5678.51 150.463   3
  -2  -1   3 1753.90 75.4670   2
   2   1  -3 1977.21 81.1877   3
  -2  -1   3 1753.55 76.0913   3
  -2  -1   2 1093.76 56.8714   2
   2   1  -2 1100.19 58.6100   3
  -2  -1   2 1172.52 60.0638   3
  -2  -1   1 9296.02 183.932   3
   2   1  -1 9874.20 188.980   3
  -2  -1   1 9387.22 181.196   2
  -2  -1   0 964.418 48.7790   2
  -2  -1   0 881.462 48.3320   3
  -2  -1   0 965.553 49.7441   1
   2   1   0 974.802 49.4781   2
   2   1   0 987.419 52.7731   3
  -2  -1  -1 1142.56 55.2666   3
  -2  -1  -1 1200.72 53.2061   2
  -2  -1  -1 1279.13 55.7418   1
   2   1   1 1230.95 55.4195   2
   2   1   1 1216.75 57.2523   3
   2   1   2 2072.89 71.7640   1
   2   1   2 2025.44 75.9453   3
  -2  -1  -2 2085.51 75.8230   3
  -2  -1  -2 2075.27 70.6448   2
  -2  -1  -2 2143.25 72.8305   1
   2   1   2 2151.65 73.2091   2
   2   1   3 5902.86 130.198   2
   2   1   3 5593.63 133.291   3
  -2  -1  -3 5537.51 134.239   3
   2   1   3 5592.22 127.998   1
  -2  -1  -3 5837.62 130.060   1
   2   1   4 8651.56 179.542   3
   2   1   4 8718.77 172.020   2
  -2  -1  -4 8721.74 183.075   3
   2   1   4 8226.03 170.193   1
   2   1   5 43.2766 19.3701   4
   2   1   5 78.2734 24.2471   3
   2   1   5 82.6307 21.5270   1
   2   1   5 108.872 25.0166   2
   2   1   6 1048.36 61.8183   3
   2   1   6 1044.52 61.4691   4
   2   1   6 1070.75 59.1363   1
   2   1   7 5031.38 141.608   1
   2   1   7 4982.21 145.079   3
   2   1   7 5089.29 146.458   4
   2   1   8 4395.33 142.933   3
   2   1   8 4424.03 140.600   4
   2   1   9 26066.4 436.617   4
   2   1  10 522.173 52.3411   4
   2   1  11 9848.88 249.933   4
   2   1  12 2098.33 113.007   4
  -2  -1 -12 2082.11 112.502   4
  -2  -1 -13 480.009 57.8252   4
  -2  -1 -14 5405.77 196.495   4
  -2  -1 -15 92.7076 36.1012   4
  -2  -1 -16 178.784 43.1260   4
  -2  -1 -17 2704.66 152.362   4
  -2  -1 -18 435.074 68.7984   4
  -2  -1 -19 157.723 46.6249   4
  -2  -1 -20 2386.38 157.669   4
  -2  -1 -21-17.7535 30.3208   4
  -2  -1 -22-15.7286 31.7070   4
   2   2 -18 360.242 74.9971   4
   2   2 -17 103.688 47.9008   4
   2   2 -16 243.752 52.7079   4
   2   2 -15 73.7370 29.4534   4
   2   2 -14 6699.26 252.960   4
   2   2 -13 288.365 51.6264   4
   2   2 -12 2167.11 131.258   4
   2   2 -11 1556.20 107.219   4
   2   2 -10 8905.96 258.075   4
  -2  -2  10 9444.31 253.403   3
  -2  -2   9 40.4427 19.7644   3
   2   2  -9 57.2416 28.5927   4
   2   2  -8 6619.19 203.689   4
  -2  -2   8 6689.39 193.825   3
  -2  -2   7 172.082 31.2156   3
   2   2  -7 229.349 36.8564   4
   2   2  -6 7159.79 197.294   4
  -2  -2   6 6810.95 180.150   3
  -2  -2   5 316.464 35.0824   3
   2   2  -5 276.856 37.3824   4
   2   2  -4 26992.7 431.206   4
  -2  -2   4 26781.3 430.623   2
  -2  -2   4 26837.1 408.365   3
   2   2  -3 2354.82 96.2743   4
  -2  -2   3 2342.86 95.7362   2
  -2  -2   3 2351.58 85.3153   3
  -2  -2   2 29.4332 16.7448   3
  -2  -2   2 22.9237 17.4952   2
   2   2  -2 52.2843 21.9242   4
  -2  -2   1 2454.10 78.5142   3
   2   2  -1 2562.45 80.8335   3
  -2  -2   1 2552.48 93.8549   2
  -2  -2   0 39455.8 546.288   2
  -2  -2   0 39402.1 514.597   3
  -2  -2   0 40046.4 550.537   1
   2   2   0 40554.3 549.170   2
   2   2   0 40511.0 516.002   3
  -2  -2  -1 3638.48 109.393   2
  -2  -2  -1 3622.81 93.6814   3
  -2  -2  -1 3778.57 112.500   1
   2   2   1 3857.20 114.206   2
   2   2   1 3717.00 94.7063   3
   2   2   2 1497.21 56.9963   3
  -2  -2  -2 1455.09 57.5939   3
  -2  -2  -2 1433.27 66.5293   2
  -2  -2  -2 1433.75 68.3654   1
   2   2   2 1523.53 70.3717   2
  -2  -2  -3 327.914 35.4982   1
   2   2   3 290.086 33.2735   1
   2   2   3 327.101 29.5638   3
   2   2   3 384.124 39.8518   2
  -2  -2  -3 333.241 29.6812   3
  -2  -2  -3 315.852 35.8550   2
  -2  -2  -4 883.218 57.1055   1
   2   2   4 905.247 56.0036   2
   2   2   4 965.560 49.9145   3
   2   2   4 922.651 55.0852   1
   2   2   5 2888.45 95.0517   4
   2   2   5 2822.86 90.3177   3
   2   2   5 2882.87 102.274   2
   2   2   5 3005.04 105.874   1
   2   2   6 1948.07 78.1866   3
   2   2   6 1937.92 85.9740   2
   2   2   6 1977.79 79.4976   4
   2   2   6 1984.33 87.5354   1
   2   2   7 5083.37 139.102   3
   2   2   7 5284.86 141.303   4
   2   2   7 5207.86 151.742   1
   2   2   8 14490.9 278.761   3
   2   2   8 15281.2 281.015   4
   2   2   8 14517.6 290.415   1
   2   2   9 8611.02 218.757   1
   2   2   9 8975.71 210.300   4
   2   2  10 7866.77 202.994   4
   2   2  11 2742.85 118.405   4
  -2  -2 -12 10715.5 261.297   4
   2   2  12 10945.6 266.636   4
  -2  -2 -13 4893.83 173.760   4
   2   2  13 5204.51 181.194   4
  -2  -2 -14 798.698 72.0018   4
  -2  -2 -15 893.245 79.7473   4
  -2  -2 -16 279.785 50.4198   4
  -2  -2 -17 1101.61 94.9399   4
  -2  -2 -18-14.5685 26.9507   4
  -2  -2 -19-1.57429 30.3453   4
  -2  -2 -20 143.461 48.3285   4
  -2  -2 -21 14.7055 30.0698   4
  -2  -2 -22 73.0582 36.9650   4
   2   3 -18 212.869 55.7503   4
   2   3 -17 410.082 74.0652   4
   2   3 -16 23.5996 36.6422   4
   2   3 -15 1143.20 109.195   4
   2   3 -14 476.762 71.1978   4
   2   3 -13 4826.71 208.357   4
   2   3 -12 340.047 59.9708   4
   2   3 -11 407.112 56.6808   4
   2   3 -10 381.820 50.6764   4
   2   3  -9 8816.12 250.457   4
   2   3  -8 283.584 42.0957   4
  -2  -3   8 323.755 46.2337   4
   2   3  -7 4942.17 168.681   4
  -2  -3   7 4984.62 157.017   3
   2   3  -6 1991.75 100.404   4
  -2  -3   6 2034.75 92.4902   3
   2   3  -5 1217.25 74.9418   4
  -2  -3   5 1392.72 85.8158   2
  -2  -3   5 1283.55 69.3712   3
  -2  -3   4 38.5207 19.6654   3
  -2  -3   4 58.8526 25.5864   2
   2   3  -4 6.73647 18.5796   4
   2   3  -3 2426.48 96.5715   4
  -2  -3   3 2587.07 109.137   2
  -2  -3   3 2678.31 88.9222   3
   2   3  -2 6858.03 164.527   4
  -2  -3   2 6823.85 181.004   2
  -2  -3   2 6821.97 144.848   3
  -2  -3   1 23950.9 392.315   1
   2   3  -1 23401.6 359.443   4
  -2  -3   1 23691.6 390.365   2
  -2  -3   1 22917.1 326.946   3
  -2  -3   0 4201.25 132.242   2
  -2  -3   0 4194.91 95.9587   3
  -2  -3   0 4169.53 133.886   1
   2   3   0 3988.57 131.246   2
  -2  -3  -1 5172.26 146.298   2
  -2  -3  -1 4999.98 103.234   3
  -2  -3  -1 5174.71 146.902   1
   2   3   1 5028.36 102.444   3
   2   3   1 5114.16 148.204   2
  -2  -3  -2 28.6505 11.1874   3
   2   3   2 17.5820 11.1583   3
  -2  -3  -2-2.53558 19.0143   2
   2   3   2 53.1529 23.2642   2
  -2  -3  -2 21.7101 22.0555   1
   2   3   3 1346.15 74.6127   2
   2   3   3 1187.08 44.9073   3
   2   3   3 1285.12 71.8177   1
  -2  -3  -3 1245.16 68.6837   2
  -2  -3  -3 1233.18 71.5467   1
   2   3   4 3684.48 123.877   2
   2   3   4 3608.55 87.4280   3
   2   3   4 3605.31 123.397   1
  -2  -3  -4 3660.58 124.678   1
  -2  -3  -5 1379.78 80.2818   1
   2   3   5 1381.88 77.7679   2
   2   3   5 1344.74 55.0301   3
   2   3   5 1334.99 58.1690   4
   2   3   5 1303.78 73.5840   1
   2   3   6 3183.32 120.193   2
   2   3   6 3068.50 92.0632   3
   2   3   6 3192.99 95.7236   4
   2   3   6 3279.44 122.041   1
   2   3   7 11105.7 249.133   2
   2   3   7 11183.5 212.001   3
   2   3   7 11298.5 213.849   4
   2   3   7 11396.5 253.187   1
   2   3   8 7239.16 171.604   3
   2   3   8 7029.37 195.347   2
   2   3   8 7311.36 169.793   4
   2   3   8 7241.08 199.218   1
   2   3   9 470.477 52.8228   1
   2   3   9 395.984 39.5378   4
   2   3  10 116.428 29.9139   1
   2   3  10 96.7046 23.6276   4
   2   3  11 28.3730 22.6700   1
   2   3  11 45.2526 20.7154   4
  -2  -3 -12 3963.26 142.624   4
   2   3  12 3768.85 140.775   4
  -2  -3 -13 290.384 42.5591   4
   2   3  13 229.558 37.5144   4
  -2  -3 -14 67.3716 26.0686   4
   2   3  14 42.3895 20.3914   4
  -2  -3 -15 593.670 62.9276   4
  -2  -3 -16 1553.19 104.685   4
  -2  -3 -17 109.837 34.8771   4
  -2  -3 -18 573.160 69.8972   4
  -2  -3 -19 35.7296 28.6612   4
  -2  -3 -20 630.120 78.3981   4
  -2  -3 -21-6.81806 32.3980   4
  -2  -3 -22 222.654 51.4328   4
  -2  -3 -23 358.125 71.8346   4
   2   4 -17 766.461 96.7516   4
   2   4 -16 964.342 106.103   4
   2   4 -15 1080.63 109.025   4
   2   4 -14 794.907 91.4645   4
   2   4 -13 347.860 63.5958   4
   2   4 -12 3924.88 183.074   4
   2   4 -11 133.297 37.0033   4
   2   4 -10 2580.66 137.857   4
   2   4  -9 345.967 51.5845   4
   2   4  -8 232.720 42.1602   4
  -2  -4   8 287.771 45.5588   4
   2   4  -7 3778.89 148.543   4
  -2  -4   7 3854.03 149.511   4
   2   4  -6 1299.17 83.3368   4
  -2  -4   6 1257.25 89.8786   2
  -2  -4   6 1165.15 69.5048   3
  -2  -4   5 226.760 30.4920   3
  -2  -4   5 203.318 37.0321   2
   2   4  -5 156.765 30.2787   4
   2   4  -4 14027.4 278.616   4
  -2  -4   4 13972.7 253.459   3
  -2  -4   4 14496.0 316.071   2
   2   4  -3 1651.36 78.9123   4
  -2  -4   3 1638.59 66.9405   3
  -2  -4   3 1688.88 95.7367   2
   2   4  -2 679.303 48.6963   4
  -2  -4   2 731.185 40.4024   3
  -2  -4   2 716.469 62.6803   2
  -2  -4   1 1000.64 72.8816   1
   2   4  -1 1047.75 55.8630   4
  -2  -4   1 965.001 42.8199   3
  -2  -4   1 975.059 67.8188   2
  -2  -4   0 14454.3 210.015   3
  -2  -4   0 14601.4 297.726   2
  -2  -4   0 14586.3 300.615   1
   2   4   0 14813.6 246.082   4
   2   4   0 15109.9 302.167   2
  -2  -4  -1 1562.28 84.8648   2
  -2  -4  -1 1541.30 43.5041   3
  -2  -4  -1 1473.10 83.8139   1
   2   4   1 1515.91 60.3699   4
   2   4   1 1633.74 87.2461   2
  -2  -4  -2 1144.34 72.7221   2
  -2  -4  -2 1060.77 72.2963   1
   2   4   2 1129.37 74.0611   2
   2   4   3 5339.29 163.039   1
  -2  -4  -3 5440.54 163.371   2
  -2  -4  -3 5381.68 165.454   1
   2   4   3 5284.66 88.2157   3
   2   4   3 5256.40 162.199   2
  -2  -4  -4-25.0986 25.7058   1
   2   4   4-15.5841 19.6927   1
   2   4   4-7.01984 8.02091   3
   2   4   4-5.62399 25.2643   2
  -2  -4  -4 24.0512 23.0503   2
  -2  -4  -5 49.6178 27.5222   1
   2   4   5 25.4706 20.1654   1
   2   4   5 14.4360 9.09790   3
   2   4   5 22.7779 9.95936   4
   2   4   5 32.8053 28.0049   2
   2   4   6 589.589 34.9188   3
   2   4   6 592.080 36.0159   4
   2   4   6 629.428 56.1795   1
   2   4   6 598.369 57.1910   2
   2   4   7 3564.50 138.817   2
   2   4   7 3497.76 96.9529   3
   2   4   7 3583.09 99.0091   4
   2   4   7 3485.82 137.320   1
   2   4   8 6352.23 195.451   2
   2   4   8 6655.04 154.668   3
   2   4   8 6773.43 202.162   1
   2   4   8 6653.23 150.589   4
   2   4   9 2103.83 111.709   2
   2   4   9 2184.62 85.4099   4
   2   4   9 2311.56 116.213   1
   2   4  10 2097.63 113.531   2
   2   4  10 2083.67 88.2438   4
   2   4  10 1974.74 111.080   1
   2   4  11 3477.72 122.384   4
   2   4  12 61.1565 21.9938   4
  -2  -4 -13 3869.77 141.254   4
   2   4  13 3684.19 139.957   4
  -2  -4 -14 1772.07 98.4667   4
   2   4  14 1631.72 95.8996   4
  -2  -4 -15 760.461 69.8203   4
   2   4  15 550.060 58.6773   4
  -2  -4 -16 1299.99 91.9676   4
  -2  -4 -17 4931.27 189.496   4
  -2  -4 -18 736.953 76.1333   4
  -2  -4 -19 292.137 55.8084   4
  -2  -4 -20 67.7105 37.7536   4
  -2  -4 -21 1476.94 118.618   4
  -2  -4 -22 235.830 59.3148   4
  -2  -4 -23 836.915 97.3433   4
   2   5 -17 2530.15 177.406   4
   2   5 -16 205.519 57.0889   4
   2   5 -15 1076.36 111.059   4
   2   5 -14 152.303 53.7017   4
   2   5 -13 1617.65 124.597   4
   2   5 -12 1959.05 131.843   4
   2   5 -11 300.110 55.9236   4
   2   5 -10 2834.60 147.696   4
   2   5  -9 32.7837 25.0122   4
   2   5  -8 1227.28 88.6096   4
  -2  -5   8 1336.75 92.4119   4
  -2  -5   7 12751.4 298.313   4
   2   5  -7 12499.2 295.082   4
   2   5  -6 680.341 60.6517   4
   2   5  -5 10680.1 246.476   4
  -2  -5   5 10580.2 221.053   3
   2   5  -4 9795.40 225.555   4
  -2  -5   4 10052.5 201.881   3
  -2  -5   4 10181.4 271.302   2
  -2  -5   3 68.8253 28.2530   2
  -2  -5   3 30.9019 12.4595   3
   2   5  -3 33.4161 15.8065   4
  -2  -5   2 6445.72 202.850   1
   2   5  -2 6587.77 158.802   4
  -2  -5   2 6494.80 132.169   3
  -2  -5   2 6682.83 204.592   2
  -2  -5   1 4631.60 165.720   2
  -2  -5   1 4847.71 171.320   1
   2   5  -1 4502.80 120.397   4
  -2  -5   1 4616.50 95.4279   3
  -2  -5   0 5532.67 90.7649   3
  -2  -5   0 5951.81 186.726   2
  -2  -5   0 5610.81 183.430   1
   2   5   0 5674.76 128.554   4
   2   5   0 5606.77 181.560   2
  -2  -5  -1 14101.4 304.667   2
  -2  -5  -1 13441.7 300.684   1
   2   5   1 13580.6 216.867   4
   2   5   1 13306.7 300.624   2
  -2  -5  -2 7456.25 210.806   2
  -2  -5  -2 7974.40 219.272   1
   2   5   2 7663.87 138.465   4
   2   5   2 7776.89 218.234   2
  -2  -5  -3 3957.39 148.406   2
   2   5   3 3533.81 79.7069   4
  -2  -5  -3 3753.41 146.553   1
   2   5   3 3806.79 145.412   2
   2   5   4 723.258 63.6621   1
  -2  -5  -4 720.711 62.9169   2
   2   5   4 702.251 30.3349   4
   2   5   4 797.029 66.5431   2
  -2  -5  -4 734.220 68.0058   1
   2   5   5 10182.3 256.665   2
   2   5   5 10770.2 262.591   1
   2   5   5 10184.6 156.287   4
  -2  -5  -5 9936.21 255.477   1
   2   5   6 830.039 33.1393   3
   2   5   6 880.367 69.9996   1
   2   5   6 798.272 35.1576   4
   2   5   6 771.414 68.0503   2
  -2  -5  -6 855.185 73.9157   1
   2   5   7-3.48951 8.70984   4
   2   5   7 11.5683 11.8521   3
   2   5   7 19.9461 22.4360   1
   2   5   7-16.4847 33.7826   2
   2   5   8 15.4110 11.2442   4
   2   5   8 15.5785 12.1679   3
   2   5   8 0.42863 27.8322   2
   2   5   8-4.21437 18.9053   1
   2   5   9 3935.57 160.883   2
   2   5   9 4035.77 108.281   4
   2   5  10 196.855 26.3198   4
   2   5  10 301.200 51.7543   2
   2   5  11 1315.50 97.5817   2
   2   5  11 1254.78 67.1859   4
   2   5  12 3715.38 167.576   2
   2   5  12 3620.74 125.044   4
   2   5  13-8.58423 17.5932   4
   2   5  13-24.0250 30.3857   2
   2   5  14 13.8599 19.4914   4
  -2  -5 -15 4103.14 153.269   4
   2   5  15 3570.91 144.978   4
  -2  -5 -16 4123.79 159.788   4
   2   5  16 3765.25 156.248   4
  -2  -5 -17 61.7973 28.6647   4
  -2  -5 -18 1934.71 117.818   4
  -2  -5 -19 165.330 40.3128   4
  -2  -5 -20 3949.55 184.492   4
  -2  -5 -21 202.391 47.7605   4
  -2  -5 -22 1585.39 124.334   4
  -2  -5 -23 1205.26 117.915   4
   2   6 -16 77.6296 45.4843   4
   2   6 -15 2216.59 158.234   4
   2   6 -14 217.341 58.0901   4
   2   6 -13 25.3361 35.7955   4
   2   6 -12 554.917 73.4010   4
   2   6 -11 456.488 63.7702   4
   2   6 -10 76.1079 33.2169   4
   2   6  -9 1855.18 116.013   4
   2   6  -8 5943.96 204.044   4
   2   6  -7-1.25016 20.7033   4
  -2  -6   7 2.05095 24.5010   4
   2   6  -6 1096.24 77.5353   4
  -2  -6   6 1081.77 77.6015   4
   2   6  -5 209.307 32.8272   4
   2   6  -4 3504.76 127.169   4
  -2  -6   4 3512.87 107.468   3
  -2  -6   3 11745.7 307.471   1
   2   6  -3 12354.2 248.287   4
  -2  -6   3 12078.4 211.946   3
  -2  -6   2 654.904 69.4616   1
   2   6  -2 689.349 49.6263   4
  -2  -6   2 639.334 35.2030   3
  -2  -6   1 23669.6 462.116   1
   2   6  -1 24085.1 357.500   4
  -2  -6   1 23612.8 300.599   3
  -2  -6   0 5119.31 187.650   1
   2   6   0 5589.20 124.326   4
   2   6   0 5661.63 194.806   2
  -2  -6  -1 13696.7 319.534   2
  -2  -6  -1 13688.8 322.130   1
   2   6   1 13562.0 208.488   4
   2   6   1 13700.4 321.588   2
  -2  -6  -2 10851.4 277.709   2
  -2  -6  -2 10756.4 279.456   1
   2   6   2 10886.4 160.128   4
   2   6   2 10794.5 279.231   2
  -2  -6  -3 737.701 69.3564   2
  -2  -6  -3 681.698 68.7107   1
   2   6   3 638.840 65.0370   2
  -2  -6  -4 3099.02 139.477   2
  -2  -6  -4 2994.42 140.268   1
   2   6   4 2869.63 136.906   2
  -2  -6  -5 3819.07 159.059   1
   2   6   5 3573.25 154.465   2
   2   6   6 7831.71 235.952   2
  -2  -6  -6 7727.27 233.079   1
   2   6   7 50.6994 9.07194   3
   2   6   7 59.8954 9.16745   3
   2   6   7 22.9344 36.9542   2
  -2  -6  -7 70.6875 39.7725   1
   2   6   8 432.869 28.9574   3
   2   6   8 483.186 23.9488   4
   2   6   8 492.802 60.7954   2
   2   6   8 441.479 28.5278   3
   2   6   9 652.190 41.7561   3
   2   6   9 697.864 35.4176   4
   2   6   9 556.768 68.8013   2
   2   6  10 1321.72 99.3818   2
   2   6  10 1396.18 58.1013   4
   2   6  11 73.2014 16.9690   4
   2   6  11 4.98266 34.0608   2
   2   6  12 335.750 35.4258   4
   2   6  12 313.488 51.1910   2
   2   6  13 330.622 39.1547   4
   2   6  13 306.768 55.3790   2
   2   6  14 193.441 32.6947   4
   2   6  14 198.833 51.3287   2
   2   6  15 469.938 73.1450   2
   2   6  16-10.1391 32.8822   2
  -2  -6 -17 2899.40 132.809   4
   2   6  17 2516.44 162.361   2
  -2  -6 -18 1628.99 104.983   4
  -2  -6 -19 1293.13 96.6719   4
  -2  -6 -20 1594.87 111.847   4
   2   7 -15 73.1921 43.7304   4
   2   7 -14 938.082 103.987   4
   2   7 -13 112.006 38.8103   4
   2   7 -12 47.6442 32.3693   4
   2   7 -11 180.672 44.6144   4
   2   7 -10 3171.67 162.812   4
   2   7  -9 154.542 37.6971   4
   2   7  -8 633.025 67.6471   4
   2   7  -7 827.983 72.4144   4
  -2  -7   7 766.801 69.9199   4
   2   7  -6 3624.62 145.271   4
  -2  -7   6 3633.45 146.042   4
   2   7  -5 3186.78 129.011   4
  -2  -7   4 323.705 53.7741   1
  -2  -7   4 330.809 33.5205   3
   2   7  -4 383.696 41.9693   4
  -2  -7   3 1337.04 105.581   1
   2   7  -3 1495.51 76.6897   4
  -2  -7   3 1447.47 59.5296   3
  -2  -7   2 937.808 39.9654   3
  -2  -7   2 836.616 84.2830   1
   2   7  -2 1038.66 58.4477   4
  -2  -7   2 954.720 40.3114   3
  -2  -7   1-10.7544 28.0785   1
   2   7  -1-4.26607 12.1685   4
  -2  -7   0 4129.37 176.727   1
   2   7   0 3989.15 173.066   2
   2   7   0 4182.41 100.380   4
   2   7   1 1235.70 41.4511   4
  -2  -7  -1 1291.89 98.4313   1
   2   7   1 1187.68 94.8073   2
  -2  -7  -2 7995.94 249.325   1
   2   7   2 7769.59 246.896   2
  -2  -7  -3 431.180 60.1640   1
   2   7   3 391.657 56.7956   2
   2   7   4 585.182 69.0212   2
  -2  -7  -4 430.281 56.2293   1
  -2  -7  -5 256.901 44.9000   1
   2   7   5 307.004 54.6566   2
  -2  -7  -6 2123.48 127.042   1
   2   7   6 2021.26 123.577   2
   2   7   7 5094.30 199.387   2
  -2  -7  -7 5088.66 200.094   1
   2   7   8 3245.32 158.810   2
   2   7   9 8778.40 273.963   2
   2   7   9 9136.96 149.072   3
   2   7   9 8971.37 148.329   3
   2   7  10 4384.52 191.761   2
   2   7  10 4720.60 112.190   3
   2   7  11 8508.20 278.231   2
   2   7  11 8655.57 149.118   4
   2   7  11 8542.50 179.812   3
   2   7  12 163.757 26.3375   3
   2   7  12 225.175 54.6670   2
   2   7  12 187.351 24.0564   4
   2   7  13 6.99384 16.6522   3
   2   7  13-21.7369 38.0128   2
   2   7  14 3964.55 197.594   2
   2   7  15 944.096 100.847   2
   2   7  16 359.972 71.8595   2
   2   7  17 1304.35 121.508   2
   2   7  18 512.404 80.4072   2
   2   7  19 1364.50 131.477   2
   2   8 -15 80.4815 37.6082   4
   2   8 -14 303.396 70.4221   4
   2   8 -13 1556.17 129.458   4
   2   8 -12 98.5487 41.9935   4
   2   8 -11 4931.32 214.454   4
   2   8 -10 24.4549 26.7199   4
   2   8  -9 2251.57 133.567   4
   2   8  -8-21.8374 28.7949   4
   2   8  -7 21.6680 21.4380   4
   2   8  -6 20.9899 21.8560   4
  -2  -8   5 1736.25 131.446   1
  -2  -8   5 1792.44 81.5614   3
   2   8  -5 1667.14 93.5641   4
  -2  -8   4 175.150 46.9515   1
  -2  -8   4 202.702 26.0929   3
   2   8  -4 167.776 31.0203   4
  -2  -8   4 196.204 25.3186   3
  -2  -8   3 1265.94 109.131   1
  -2  -8   3 1358.89 54.2401   3
   2   8  -3 1246.58 69.7930   4
  -2  -8   3 1192.71 51.4921   3
  -2  -8   2 186.779 44.1750   1
  -2  -8   2 303.123 19.9626   3
   2   8  -2 347.278 35.0070   4
  -2  -8   2 295.668 19.7119   3
  -2  -8   1 2576.30 149.744   1
   2   8  -1 2632.03 84.0903   4
   2   8   0 52.1308 31.7352   2
   2   8   0 62.2673 12.5971   4
  -2  -8   0 81.1954 39.9948   1
  -2  -8  -1 1728.21 121.100   1
   2   8   1 1699.68 117.959   2
  -2  -8  -2 1801.45 123.885   1
   2   8   2 2449.54 150.090   2
  -2  -8  -3 1573.82 114.803   1
   2   8   3 1585.46 113.696   2
   2   8   4 727.111 80.0873   2
  -2  -8  -4 735.381 79.0688   1
  -2  -8  -5 4715.38 201.456   1
   2   8   5 4534.16 193.817   2
   2   8   6 325.847 55.9910   2
  -2  -8  -6 237.435 51.7247   1
  -2  -8  -7 210.512 49.2806   1
   2   8   7 160.850 43.5429   2
   2   8   8 3131.73 165.399   2
   2   8   9 452.149 67.1313   2
   2   8  10 41.8933 31.2497   2
   2   8  10 3.19870 9.10589   3
   2   8  11 3720.27 193.545   2
   2   8  12 328.625 59.9353   2
   2   8  13 1498.66 123.843   2
   2   8  14 219.837 59.3150   2
   2   8  15 695.439 92.1502   2
   2   8  16 707.632 93.3181   2
   2   8  17 8.26992 33.7483   2
   2   8  18-0.11095 37.4692   2
   2   9 -12 0.26832 30.8936   4
   2   9 -11 705.255 84.0151   4
   2   9 -10 6732.77 246.130   4
   2   9  -9 1525.23 108.681   4
   2   9  -8 2924.92 145.539   4
  -2  -9   7 1809.68 146.907   1
   2   9  -7 1612.65 103.340   4
  -2  -9   6 2575.70 169.381   1
   2   9  -6 2544.25 122.797   4
  -2  -9   5 32.0316 35.2027   1
   2   9  -5 57.4583 24.4253   4
  -2  -9   4 66.6045 41.4596   1
   2   9  -4 43.7697 20.9046   4
  -2  -9   3 18.3217 37.3984   1
   2   9  -3 9.93378 16.9385   4
  -2  -9   2 98.9568 42.4649   1
   2   9  -2 85.9015 19.4657   4
  -2  -9   1 1471.05 119.610   1
  -2  -9   0 1113.14 104.790   1
   2   9   1-23.7270 39.4110   2
  -2  -9  -1-3.84646 37.2805   1
  -2  -9  -2 76.2115 35.7350   1
   2   9   2 67.9518 38.1497   2
  -2  -9  -3 4417.14 205.515   1
   2   9   3 4539.16 206.170   2
  -2  -9  -4 1416.72 115.554   1
   2   9   4 1362.71 113.554   2
  -2  -9  -5 647.458 78.2672   1
   2   9   5 677.117 80.9429   2
  -2  -9  -6 1980.26 137.296   1
   2   9   6 2012.86 136.746   2
  -2  -9  -7 2040.59 142.689   1
   2   9   7 1976.98 136.490   2
   2   9   8 217.779 52.9068   2
   2   9   9 3392.11 182.605   2
   2   9  10 774.037 93.4585   2
   2   9  11 3444.31 188.095   2
   2   9  12 219.323 60.4137   2
   2   9  13 383.160 72.6125   2
   2   9  14 204.755 57.0930   2
   2   9  15 376.738 71.5270   2
   2   9  16 151.666 55.5375   2
  -2 -10   7 3614.70 214.978   1
  -2 -10   6 1410.61 134.533   1
  -2 -10   5 270.300 64.9542   1
  -2 -10   4 541.357 89.0634   1
  -2 -10   3 2749.42 175.706   1
  -2 -10   2 300.059 64.6895   1
  -2 -10   1 309.925 59.3216   1
  -2 -10   0 837.112 97.3429   1
  -2 -10  -1 483.559 73.3451   1
   2  10   2 35.7398 38.3241   2
  -2 -10  -2 78.9856 39.7279   1
  -2 -10  -3 5945.66 253.789   1
   2  10   3 5840.78 247.242   2
  -2 -10  -4 3067.61 179.696   1
   2  10   4 3296.01 186.593   2
   2  10   5 492.236 74.2266   2
  -2 -10  -5 669.669 89.9313   1
   2  10   6 400.682 72.0227   2
  -2 -10  -6 551.568 79.6882   1
  -2 -10  -7 868.492 97.4663   1
   2  10   7 939.347 101.676   2
   2  10   8 3090.96 182.629   2
   2  10   9 241.543 63.9701   2
   2  10  10 455.658 74.5164   2
   2  10  11 1.72606 36.9517   2
   2  10  12 1523.45 134.842   2
   2  10  13 22.5538 42.2749   2
   2  10  14 266.164 66.8921   2
  -2 -11   3 336.870 68.3796   1
  -2 -11   2 112.712 48.6366   1
  -2 -11   1 711.335 95.1166   1
  -2 -11   0 891.647 106.088   1
  -2 -11  -1 25.3393 36.4168   1
  -2 -11  -2 281.888 68.3184   1
  -2 -11  -3 3428.19 201.150   1
   2  11   3 2962.78 182.379   2
  -2 -11  -4 1684.79 142.343   1
   2  11   4 1546.14 132.035   2
  -2 -11  -5 2888.95 182.384   1
   2  11   5 2892.95 181.843   2
  -2 -11  -6 77.1761 41.1296   1
   2  11   6 94.7118 46.7790   2
  -2 -11  -7 1352.26 128.411   1
   2  11   7 1417.66 127.245   2
   2  11   8 1690.01 154.409   2
   2  11   9 9.86098 35.1029   2
   2  11  10 166.647 50.7352   2
   2  11  11 100.442 43.9699   2
   3 -11  -9 298.261 61.9192   3
   3 -11  -8 1076.95 113.950   3
   3 -11  -7 53.1031 39.2969   3
   3 -11  -6 1087.68 111.809   3
   3 -11  -5 467.859 78.7959   3
   3 -11  -4-21.9747 38.5124   3
   3 -11  -3 644.216 85.2495   3
   3 -11  -2 662.528 89.5858   3
   3 -11  -1 55.5770 39.2705   3
   3 -11   0 1618.92 135.741   3
   3 -11   1-1.12177 37.4840   3
   3 -11   2 564.725 83.7183   3
   3 -11   3 18.9938 35.5363   3
   3 -11   4 23.5396 36.7983   3
   3 -10 -13 364.754 70.0519   4
   3 -10 -12-43.3939 42.2867   4
   3 -10 -11 13.2321 34.5155   4
   3 -10 -10 169.178 50.7524   4
   3 -10  -9 426.364 72.9600   3
   3 -10  -9 446.981 70.5964   4
   3 -10  -8 48.0605 35.2634   3
   3 -10  -7-25.0939 35.1762   3
   3 -10  -6 365.210 66.6632   3
   3 -10  -5 555.372 78.3852   3
   3 -10  -4-32.8790 39.9618   3
   3 -10  -3 1164.39 108.861   3
   3 -10  -2-6.26730 34.0824   3
   3 -10  -1 775.948 93.3324   3
   3 -10   0 138.556 45.2033   3
   3 -10   1 1049.30 108.394   3
   3 -10   2 187.606 56.3532   3
   3 -10   3 2613.66 166.056   3
   3 -10   4 54.1777 40.7473   3
   3 -10   5 575.192 84.2187   3
   3 -10   6 238.677 58.4421   3
   3 -10   7-25.3618 37.7854   3
   3  -9 -16 1422.68 131.391   4
   3  -9 -15 184.626 58.1848   4
   3  -9 -14 1030.71 108.974   4
   3  -9 -13 1513.02 128.185   4
   3  -9 -12 995.551 105.457   4
   3  -9 -11 344.722 65.3786   4
   3  -9 -10 414.342 68.0017   4
   3  -9  -9-46.2863 34.7692   3
   3  -9  -9 33.2861 33.5990   4
   3  -9  -8 1385.66 120.412   3
   3  -9  -7 90.4526 36.1185   3
   3  -9  -6 51.9076 41.8629   3
   3  -9  -5 1125.01 107.480   3
   3  -9  -4 759.210 87.3848   3
   3  -9  -3 55.8048 36.4134   3
   3  -9  -2 98.7223 38.2176   3
   3  -9  -1 32.0226 34.9871   3
   3  -9   0 1292.62 112.996   3
   3  -9   1 1026.12 101.210   3
   3  -9   2 230.516 50.5976   3
   3  -9   3 86.7845 45.4499   3
   3  -9   4 2944.88 173.206   3
   3  -9   5 1102.15 109.420   3
   3  -9   6 637.240 88.9535   3
   3  -9   7 225.462 54.3309   3
   3  -9   8 487.083 79.0721   3
   3  -9   9 61.4101 40.7084   3
   3  -8 -16-10.7904 34.9334   4
   3  -8 -15 213.910 59.1909   4
   3  -8 -14 171.762 52.6692   4
   3  -8 -13 1032.07 104.570   4
   3  -8 -12 666.805 84.5629   4
   3  -8 -11 661.817 86.2758   4
   3  -8 -10 2.72089 31.0369   4
   3  -8  -9-21.0080 34.5924   3
   3  -8  -9-9.65496 33.1399   4
   3  -8  -8 747.365 87.7410   3
   3  -8  -7 0.67332 35.7442   3
   3  -8  -6-10.5965 30.5804   3
   3  -8  -5 0.24624 31.1199   3
   3  -8  -4-7.83481 29.1766   3
   3  -8  -3 354.808 60.0779   3
   3  -8  -2 201.180 51.8338   3
   3  -8  -1 4010.52 190.159   3
   3  -8   0 780.590 82.4267   3
   3  -8   1 5647.79 225.059   3
   3  -8   2 1099.28 100.942   3
   3  -8   3 2702.22 157.925   3
   3  -8   4 1149.28 107.385   3
   3  -8   5 2816.61 166.447   3
   3  -8   6 1901.36 137.366   3
   3  -8   7 27.5869 35.6310   3
   3  -8   8 378.774 69.3949   3
   3  -8   9 137.553 46.5358   3
   3  -8  10 203.365 56.7039   3
   3  -8  11 211.906 57.0388   3
   3  -7 -17 35.6583 41.2639   4
   3  -7 -16 2695.29 178.342   4
   3  -7 -15 160.738 53.6967   4
   3  -7 -14 24.9014 34.9742   4
   3  -7 -13 449.303 73.2669   4
  -3   7  12 3123.17 141.746   2
   3  -7 -12 3330.45 182.227   4
   3  -7 -11 60.4202 34.2378   4
  -3   7  11 71.6110 30.8857   2
   3  -7 -10 152.949 45.9654   4
  -3   7  10 117.565 31.3382   2
   3  -7  -9 263.418 54.9264   3
  -3   7   9 189.942 34.2820   2
   3  -7  -9 213.470 50.2052   4
   3  -7  -8 8.42977 33.8153   3
  -3   7   8 29.6151 22.4380   2
   3  -7  -7 246.054 47.2028   3
  -3   7   7 228.470 30.5882   2
  -3   7   6 1074.37 59.7986   2
   3  -7  -6 1276.26 105.650   3
   3  -7  -5 25.3521 26.9379   3
  -3   7   5 47.9442 18.4160   2
   3  -7  -4 674.817 78.6081   3
  -3   7   4 663.010 39.6259   2
   3  -7  -3 1717.56 120.237   3
   3  -7  -2 83.3524 34.2617   3
   3  -7  -1 367.646 58.2175   3
   3  -7   0 4719.75 198.938   3
   3  -7   1 3852.85 178.170   3
   3  -7   2-1.11822 30.4502   3
   3  -7   3 3457.87 173.414   3
   3  -7   4 759.451 84.3128   3
   3  -7   4 427.175 30.7126   1
   3  -7   5 1454.71 114.706   3
   3  -7   5 1123.53 55.6277   1
   3  -7   6 164.293 26.5000   1
   3  -7   6 218.961 53.1968   3
   3  -7   7 39.8979 22.1922   1
   3  -7   7 80.1449 40.7512   3
   3  -7   8 374.401 64.7611   3
   3  -7   9 1993.45 145.289   3
   3  -7  10 398.967 69.9942   3
   3  -7  11 124.428 51.5145   3
   3  -7  12 882.489 105.465   3
   3  -7  13 1775.52 147.804   3
   3  -6 -17 53.3066 36.5840   4
   3  -6 -16 423.698 73.9509   4
   3  -6 -15 3313.72 191.892   4
   3  -6 -14 19.7595 34.3393   4
   3  -6 -13 191.524 56.5679   4
   3  -6 -12 1433.31 117.250   4
   3  -6 -11 2413.11 149.410   4
   3  -6 -10 1693.47 122.873   4
  -3   6   9 203.166 32.0465   1
   3  -6  -9 256.862 51.7917   3
   3  -6  -9 281.179 55.1189   4
  -3   6   8 1335.57 73.0909   2
  -3   6   8 1289.51 72.6329   1
   3  -6  -8 1408.67 110.785   3
  -3   6   7 6419.71 157.222   2
  -3   6   7 5553.90 150.100   1
   3  -6  -7 6462.62 234.442   3
  -3   6   6 4062.10 112.085   2
  -3   6   6 3581.12 107.328   1
   3  -6  -6 4104.37 182.981   3
  -3   6   5 49.3076 15.2791   1
   3  -6  -5 88.0160 29.4450   3
  -3   6   5 76.2167 18.8493   2
   3  -6  -4 90.8958 36.0942   3
  -3   6   4 65.4115 14.8789   2
   3  -6  -3 3194.91 158.227   3
   3  -6  -2 3498.24 165.820   3
   3  -6  -1 207.244 42.2740   3
   3  -6   0 2333.24 132.460   3
   3  -6   1 19.3719 27.1659   3
   3  -6   2 2857.09 149.200   3
   3  -6   3-13.4465 32.5636   3
   3  -6   4 2635.67 146.154   3
   3  -6   4 2778.14 66.4433   2
   3  -6   4 2718.18 66.5554   1
   3  -6   5 328.936 58.2749   3
   3  -6   5 362.538 28.7618   1
   3  -6   5 357.962 28.3301   2
   3  -6   6 3344.75 97.4838   2
   3  -6   6 3378.88 169.308   3
   3  -6   6 3402.35 99.7597   1
   3  -6   7-5.27051 30.5134   3
   3  -6   8 196.013 53.2493   3
   3  -6   9 76.1084 45.7905   3
   3  -6  10 5492.40 238.958   3
   3  -6  11 415.932 75.3741   3
   3  -6  12 232.868 66.1621   3
   3  -6  13 445.260 75.7209   3
   3  -6  14 4031.39 220.978   3
   3  -5 -17 1531.61 138.680   4
   3  -5 -16 198.423 56.6252   4
   3  -5 -15 624.021 84.1451   4
   3  -5 -14 109.332 45.0312   4
   3  -5 -13 12.7476 33.5935   4
   3  -5 -12 1385.09 113.604   4
   3  -5 -11 254.358 49.7207   4
   3  -5 -10 1006.49 93.7564   4
   3  -5  -9 2088.48 131.561   4
   3  -5  -9 2070.94 133.082   3
  -3   5   8 4214.70 133.768   1
   3  -5  -8 5089.10 206.215   3
   3  -5  -7 4822.69 195.429   3
  -3   5   7 4199.29 123.419   1
   3  -5  -6 188.235 42.8157   3
  -3   5   6 205.502 26.2264   1
  -3   5   6 238.236 28.7578   2
   3  -5  -5 420.855 62.5041   3
  -3   5   5 363.274 31.0497   2
  -3   5   5 283.926 25.9041   1
  -3   5   4 177.188 17.6566   1
   3  -5  -4 149.021 40.0268   3
  -3   5   4 183.229 18.2091   2
   3  -5  -3 60.9967 36.3706   3
   3  -5  -2 4319.12 178.301   3
   3  -5  -1 737.813 74.7676   3
   3  -5   0 7082.85 228.562   3
   3  -5   1 93.6494 33.2807   3
   3  -5   2 7705.44 244.390   3
   3  -5   3 3659.83 165.216   3
   3  -5   4 839.115 80.2327   3
   3  -5   5 2363.61 61.8386   2
   3  -5   5 2340.34 133.834   3
   3  -5   5 2183.17 60.7525   1
   3  -5   6 45.6429 15.6574   2
   3  -5   6 52.6518 33.5155   3
   3  -5   7 2398.36 141.372   3
   3  -5   7 2502.43 86.4318   2
   3  -5   8 363.317 37.5816   2
   3  -5   8 370.430 59.6957   3
   3  -5   9 10631.5 323.749   3
   3  -5  10 330.438 62.0133   3
   3  -5  11 1073.33 102.725   3
   3  -5  12 1384.96 119.756   3
   3  -5  13 153.629 54.1603   3
   3  -5  14 121.726 43.0068   3
   3  -5  15 1804.71 148.120   3
   3  -4 -17 126.840 51.9736   4
   3  -4 -16 720.722 94.4203   4
   3  -4 -15 809.764 93.9339   4
   3  -4 -14 70.2299 39.0624   4
   3  -4 -13 397.063 67.6853   4
   3  -4 -12 3099.36 169.138   4
   3  -4 -11 1004.46 95.5754   4
   3  -4 -10 5758.17 223.982   4
   3  -4  -9 815.038 81.2834   4
   3  -4  -8 4009.33 177.902   3
   3  -4  -7 2350.21 132.604   3
   3  -4  -6 11049.6 297.130   3
   3  -4  -5 3643.03 159.793   3
  -3   4   5 3519.92 92.4749   1
  -3   4   4 4229.20 86.6617   2
  -3   4   4 3916.15 85.1874   1
   3  -4  -4 4323.53 172.635   3
   3  -4  -3 565.047 64.4491   3
   3  -4  -2 1762.86 109.063   3
   3  -4  -1 146.298 36.3850   3
   3  -4   0 3772.32 156.663   3
   3  -4   1 179.652 41.5415   3
   3  -4   2 6106.93 206.239   3
   3  -4   3 1038.61 84.3436   3
   3  -4   4 1837.80 112.040   3
   3  -4   5 243.090 17.5612   2
   3  -4   5 225.791 44.9443   3
   3  -4   6 2902.68 145.584   3
   3  -4   6 2777.97 76.5864   2
   3  -4   7 233.985 50.1422   3
   3  -4   8 1701.46 118.577   3
   3  -4   9 175.495 45.1461   3
   3  -4  10 2069.38 135.445   3
   3  -4  11 11.3820 33.9391   3
   3  -4  12 7609.95 275.819   3
   3  -4  13 1135.30 108.271   3
   3  -4  14 2677.75 168.974   3
   3  -4  15 174.340 55.5791   3
   3  -4  16 266.731 59.7619   3
   3  -4  17 1172.27 122.006   3
   3  -3 -17 2530.90 173.371   4
   3  -3 -16 730.421 91.3002   4
   3  -3 -15 890.504 100.910   4
   3  -3 -14 1821.01 136.862   4
   3  -3 -13 2130.51 143.978   4
   3  -3 -12 164.863 43.6502   4
   3  -3 -11 756.322 81.2085   4
   3  -3 -10 634.517 74.8292   4
   3  -3  -9 2085.02 128.539   4
   3  -3  -8 4072.05 178.009   4
   3  -3  -8 4080.28 175.249   3
   3  -3  -7 6155.62 213.737   3
   3  -3  -6 297.588 49.4694   3
   3  -3  -5 345.917 53.5804   3
   3  -3  -4 374.765 52.2773   3
  -3   3   3 4697.96 84.7044   2
   3  -3  -3 5064.27 180.275   3
  -3   3   2 1353.48 91.3254   3
   3  -3  -2 1316.19 90.9241   3
  -3   3   1 5954.33 194.651   3
   3  -3  -1 5881.89 194.070   3
   3  -3   0 16.4910 23.4741   3
  -3   3   0 108.198 32.3654   3
   3  -3   1 1.35472 24.5921   3
  -3   3  -1 8.89559 21.8126   3
   3  -3   2 417.885 53.7266   3
  -3   3  -2 397.069 51.0324   3
   3  -3   3 2392.60 122.717   3
  -3   3  -3 2559.50 126.379   3
   3  -3   4 3883.14 157.662   3
   3  -3   5 6743.97 216.102   3
   3  -3   5 6784.68 111.553   1
   3  -3   6 227.186 43.6845   3
   3  -3   7 2951.63 145.858   3
   3  -3   8 3598.24 165.695   3
   3  -3   9 280.768 51.1867   3
   3  -3  10 194.575 48.1795   3
   3  -3  11 1223.01 105.031   3
   3  -3  12 1599.32 122.766   3
   3  -3  13-9.15585 30.5099   3
   3  -3  14 4013.94 201.028   3
   3  -3  15 297.391 65.9052   3
   3  -3  16 467.141 76.4536   3
   3  -3  17 279.448 65.2953   3
   3  -3  18 540.550 86.5567   3
   3  -2 -17 158.972 51.3280   4
   3  -2 -16 1976.96 148.698   4
   3  -2 -15 1864.41 139.740   4
   3  -2 -14 1990.28 141.621   4
   3  -2 -13 13.5225 30.7879   4
   3  -2 -12 221.611 51.7911   4
   3  -2 -11 12.2318 26.6669   4
   3  -2 -10 3444.71 169.226   4
   3  -2  -9 484.595 62.4085   4
   3  -2  -8 2948.89 148.965   4
   3  -2  -7 452.486 58.4725   3
   3  -2  -7 466.038 60.4165   4
   3  -2  -6 2185.94 119.246   3
   3  -2  -5 230.556 42.7065   3
  -3   2   4 6218.42 198.578   3
   3  -2  -4 5804.28 192.762   3
  -3   2   3 1247.88 85.2523   3
  -3   2   3 1151.45 45.1311   2
   3  -2  -3 1193.35 84.2658   3
  -3   2   2 8111.20 220.109   3
   3  -2  -2 7693.92 218.229   3
  -3   2   2 7143.59 116.291   2
  -3   2   2 7373.43 117.942   1
  -3   2   1 54.0020 22.3257   3
   3  -2  -1 21.9575 24.1456   3
  -3   2   0 861.333 69.1953   3
   3  -2   0 856.671 68.7285   3
   3  -2   1 1059.65 75.8369   3
  -3   2  -1 1110.68 78.9261   3
   3  -2   2 7886.07 220.981   3
  -3   2  -2 8376.06 227.947   3
   3  -2   3 3884.55 150.227   3
  -3   2  -3 4271.75 158.088   3
   3  -2   4 91.4154 10.8375   1
   3  -2   4 96.6164 11.6098   2
   3  -2   4 96.9256 28.1436   3
  -3   2  -4 120.922 30.5168   3
   3  -2   5 645.775 31.8137   2
  -3   2  -5 690.412 66.1316   3
   3  -2   5 609.354 30.7505   1
   3  -2   5 652.250 64.7551   3
   3  -2   6 425.984 55.7330   3
   3  -2   6 426.747 30.4916   1
   3  -2   7 154.392 38.3331   3
   3  -2   8 2041.94 119.402   3
   3  -2   9 5678.94 206.033   3
   3  -2  10 614.960 72.5654   3
   3  -2  11 324.817 52.6962   3
   3  -2  12 1063.44 94.8202   3
   3  -2  13 701.244 81.3892   3
   3  -2  14 590.639 78.9683   3
   3  -2  15 3074.77 175.115   3
   3  -2  16 2144.68 151.982   3
   3  -2  17 749.864 96.7055   3
   3  -2  18 25.9679 36.4188   3
   3  -1 -17 823.134 101.649   4
   3  -1 -16 823.089 100.348   4
   3  -1 -15 2157.99 153.907   4
   3  -1 -14 75.0105 44.3283   4
   3  -1 -13 2663.55 159.727   4
   3  -1 -12 3363.43 176.141   4
   3  -1 -11 2301.46 142.140   4
   3  -1 -10 3076.16 157.513   4
   3  -1  -9 990.299 88.4475   4
   3  -1  -8 609.423 67.8326   4
   3  -1  -7 187.806 43.2470   4
   3  -1  -6 6713.24 209.965   3
  -3   1   6 6529.66 206.899   3
  -3   1   5 5086.74 174.220   3
   3  -1  -5 5002.52 176.433   3
  -3   1   4 20240.5 387.867   3
  -3   1   4 19662.2 312.679   2
   3  -1  -4 20003.1 387.227   3
  -3   1   3 13510.0 296.942   3
  -3   1   3 12246.7 215.433   2
   3  -1  -3 12542.3 287.343   3
  -3   1   2 5804.57 179.047   3
   3  -1  -2 5980.12 182.845   3
  -3   1   2 5606.06 119.161   2
  -3   1   1 575.022 31.1535   2
  -3   1   1 685.204 60.2928   3
  -3   1   1 617.161 32.7263   1
   3  -1  -1 689.208 63.3802   3
  -3   1   0 888.269 67.7094   3
  -3   1   0 853.666 34.6819   2
  -3   1   0 963.713 36.8575   1
   3  -1   0 941.129 71.2389   3
   3  -1   1 3159.96 126.481   3
  -3   1  -1 3161.45 129.616   3
   3  -1   2 962.335 69.8294   3
  -3   1  -2 990.130 70.9580   3
   3  -1   3 1388.38 85.7329   3
  -3   1  -3 1410.30 85.3775   3
   3  -1   3 1389.65 45.6547   2
   3  -1   4 126.962 17.0792   1
   3  -1   4 108.534 34.2046   3
   3  -1   4 127.461 17.4598   2
  -3   1  -4 136.703 29.9529   3
   3  -1   5-26.5776 27.5560   3
  -3   1  -5 15.3555 21.5428   3
   3  -1   5 31.3972 16.3902   2
   3  -1   5-18.4555 12.0205   1
   3  -1   6 641.493 40.1745   2
   3  -1   6 644.309 63.1082   3
   3  -1   6 673.420 41.9063   1
   3  -1   7 118.163 21.6429   1
   3  -1   7 112.099 33.0026   4
   3  -1   7 97.8254 33.5606   3
   3  -1   8 262.312 32.0963   1
   3  -1   8 222.537 44.0511   3
   3  -1   9 3605.18 157.454   3
   3  -1  10 167.321 44.9838   3
   3  -1  11 1731.25 114.566   3
   3  -1  12 1006.99 91.6671   3
   3  -1  13 59.3417 35.3906   3
   3  -1  14 1416.04 113.604   3
   3  -1  15 125.973 43.7302   3
   3  -1  16 3858.21 198.678   3
   3  -1  17 225.764 57.9693   3
   3  -1  18 5924.60 262.183   3
   3  -1  19 31.7110 41.1547   3
   3   0 -17 563.096 86.2407   4
   3   0 -16 2179.86 157.470   4
   3   0 -15 11.4821 34.0104   4
   3   0 -14 1736.53 134.482   4
   3   0 -13 2638.07 160.201   4
   3   0 -12 306.344 61.1615   4
   3   0 -11 642.728 77.0155   4
   3   0 -10 1840.80 123.146   4
   3   0  -9 1763.43 116.358   4
   3   0  -8 460.414 62.6478   4
   3   0  -7 1027.41 87.0527   4
  -3   0   6 17.2912 17.0858   3
   3   0  -6 9.45595 25.3474   4
   3   0  -5 861.491 69.8884   3
  -3   0   5 857.338 69.0286   3
  -3   0   4 11066.7 257.254   3
  -3   0   4 10425.1 216.952   2
   3   0  -4 10393.1 254.437   3
  -3   0   3 24222.2 418.619   3
  -3   0   3 22806.2 359.695   2
   3   0  -3 23317.5 413.882   3
  -3   0   2 3584.34 133.961   3
   3   0  -2 3280.73 128.240   3
  -3   0   2 3251.52 99.3150   2
  -3   0   1 10545.4 194.874   2
  -3   0   1 10567.8 243.310   3
  -3   0   1 10927.4 198.700   1
   3   0  -1 11160.6 250.335   3
  -3   0   0 4009.41 139.349   3
  -3   0   0 3613.70 97.5273   2
  -3   0   0 3860.66 101.280   1
   3   0   0 4170.61 145.026   3
  -3   0  -1 2417.44 106.513   3
  -3   0  -1 2178.60 71.3950   2
  -3   0  -1 2273.63 72.9725   1
   3   0   1 2187.94 99.8735   3
  -3   0  -2 455.377 33.7054   1
   3   0   2 386.816 30.5686   2
   3   0   2 464.624 47.1626   3
  -3   0  -2 419.348 45.6010   3
   3   0   3 2864.13 117.499   3
  -3   0  -3 2783.22 115.837   3
   3   0   3 2779.41 83.2224   2
   3   0   4 88.8322 20.5437   1
   3   0   4 54.1069 29.7458   3
   3   0   4 61.7744 20.8365   2
  -3   0  -4 49.5652 26.6589   3
   3   0   5 11783.4 264.952   3
   3   0   5 11977.4 214.974   2
  -3   0  -5 12092.5 273.281   3
   3   0   5 11806.9 214.641   1
   3   0   6 29.1250 17.9990   1
   3   0   6 9.73074 22.8886   3
   3   0   6 13.9407 16.4175   2
   3   0   7 3280.30 136.407   3
   3   0   7 3211.54 106.667   2
   3   0   7 3493.66 142.384   4
   3   0   7 3136.20 106.804   1
   3   0   8 20.5575 16.6595   1
   3   0   8 48.4696 24.0840   4
   3   0   8 64.2398 31.5422   3
   3   0   9 429.997 44.2554   1
   3   0   9 439.344 53.6536   4
   3   0   9 341.231 52.0964   3
   3   0  10 516.750 51.9195   1
   3   0  10 538.693 62.7266   3
   3   0  11 212.385 47.0589   3
   3   0  12 38.6777 29.3035   3
   3   0  13 253.797 52.2834   3
   3   0  14 166.702 46.8432   3
   3   0  15 1670.99 124.769   3
   3   0  16 916.408 98.8562   3
   3   0  17 2084.05 147.084   3
   3   0  18 2178.41 156.683   3
   3   0  19 623.711 86.5079   3
   3   0  20-63.3799 40.1022   3
   3   1 -17 167.910 52.3248   4
   3   1 -16 1159.44 117.113   4
   3   1 -15-10.1733 34.4287   4
   3   1 -14 390.435 71.1773   4
   3   1 -13 136.099 38.7731   4
   3   1 -12 5133.34 220.841   4
   3   1 -11 2266.58 141.777   4
   3   1 -10 561.967 69.8533   4
   3   1  -9 269.489 54.1611   4
   3   1  -8 54.5030 28.4970   4
  -3  -1   7 221.597 39.2568   3
   3   1  -7 185.419 42.1929   4
   3   1  -6 785.077 74.0774   4
  -3  -1   6 707.501 60.5954   2
  -3  -1   6 896.243 71.7912   3
   3   1  -5 4057.16 160.489   4
  -3  -1   5 4099.58 141.084   2
  -3  -1   5 4257.53 152.471   3
   3   1  -4 5917.52 177.098   3
  -3  -1   4 5466.39 160.341   2
  -3  -1   4 5843.08 175.063   3
   3   1  -3-15.1788 25.3177   3
  -3  -1   3 24.4426 18.9555   2
  -3  -1   3 16.6708 18.2970   3
   3   1  -2 64.6716 22.3654   3
  -3  -1   2 97.9918 26.5377   3
  -3  -1   2 82.1342 20.7519   2
  -3  -1   1 2472.11 92.5026   2
  -3  -1   1 2586.46 105.762   3
  -3  -1   1 2411.03 92.7636   1
   3   1  -1 2632.26 106.792   3
  -3  -1   0 33045.1 475.751   2
  -3  -1   0 34040.2 512.652   3
  -3  -1   0 33549.3 478.798   1
   3   1   0 34496.8 514.017   3
  -3  -1  -1 44.7242 16.4255   1
   3   1   1 34.4561 23.9055   3
  -3  -1  -1 30.8098 16.5275   3
  -3  -1  -1 40.5326 17.3422   2
  -3  -1  -2 91.7657 20.3396   1
   3   1   2 85.1473 22.2500   2
   3   1   2 112.098 27.4563   3
  -3  -1  -2 92.8853 23.9355   3
  -3  -1  -2 46.3960 17.5359   2
   3   1   3 1936.53 90.3105   3
  -3  -1  -3 1889.75 90.4085   3
   3   1   3 1967.53 79.4162   2
  -3  -1  -3 1926.62 79.1841   1
   3   1   4 1810.48 77.7023   1
   3   1   4 1739.10 86.4797   3
  -3  -1  -4 1775.58 88.9043   3
   3   1   4 1869.40 79.9945   2
   3   1   5 1469.45 72.6481   2
   3   1   5 1446.96 81.5168   3
   3   1   5 1456.48 72.2291   1
  -3  -1  -5 1322.63 79.3187   3
   3   1   6 694.793 53.1497   2
   3   1   6 689.353 51.0272   1
   3   1   6 647.136 55.3880   3
   3   1   7 1658.17 92.8459   3
   3   1   7 1761.76 84.1856   2
   3   1   7 1763.06 96.1274   4
   3   1   7 1695.36 83.4195   1
   3   1   8 14129.5 306.342   3
   3   1   8 14361.5 283.556   2
   3   1   8 14600.5 314.256   4
   3   1   8 14145.8 284.817   1
   3   1   9 728.233 61.7777   2
   3   1   9 634.633 60.5620   4
   3   1   9 625.057 61.3724   3
   3   1   9 749.891 59.8541   1
   3   1  10 2557.97 125.114   3
   3   1  10 2524.00 124.288   4
   3   1  10 2406.98 111.305   1
   3   1  11 31.5587 20.2700   1
   3   1  11 81.8769 36.4475   3
   3   1  12 1593.85 98.9464   1
   3   1  12 1490.79 103.601   3
   3   1  13 471.084 62.5529   3
   3   1  14 310.707 55.9582   3
   3   1  15-32.6462 33.2113   3
   3   1  16 1550.92 119.717   3
   3   1  17 129.775 43.4806   3
   3   1  18 1196.97 114.613   3
   3   1  19 405.577 72.0108   3
   3   1  20 678.388 95.5463   3
   3   1  21 949.591 111.590   3
   3   2 -17 131.786 57.2154   4
   3   2 -16 3336.17 198.367   4
   3   2 -15 1294.28 120.723   4
   3   2 -14 316.329 63.4034   4
   3   2 -13 5704.88 239.811   4
   3   2 -12 3140.99 171.478   4
   3   2 -11 8077.88 273.308   4
   3   2 -10 560.702 69.0887   4
   3   2  -9 1901.99 121.660   4
   3   2  -8 1154.38 93.3407   4
  -3  -2   7 64.5021 27.6681   2
  -3  -2   7 66.8484 27.2383   3
   3   2  -7 58.1768 28.9168   4
  -3  -2   6 284.936 45.1242   2
  -3  -2   6 316.394 43.2631   3
   3   2  -6 240.152 43.9144   4
  -3  -2   5 182.387 33.3704   2
  -3  -2   5 158.932 30.9102   3
   3   2  -5 183.888 34.5160   4
   3   2  -4 2751.88 126.554   4
  -3  -2   4 2762.86 119.292   2
  -3  -2   4 2780.23 114.784   3
  -3  -2   3 3409.10 123.192   3
   3   2  -3 3574.64 141.779   4
  -3  -2   3 3583.42 131.604   2
  -3  -2   2 1572.47 81.1246   3
   3   2  -2 1687.01 83.0166   3
  -3  -2   2 1532.19 82.4094   2
  -3  -2   1 80.1591 25.4919   1
   3   2  -1 43.2227 19.9485   3
  -3  -2   1 54.4753 17.5186   3
  -3  -2   1 48.3707 22.3359   2
  -3  -2   0 1248.31 70.9045   2
  -3  -2   0 1397.71 72.1344   3
  -3  -2   0 1416.27 76.1943   1
   3   2   0 1451.28 74.1264   3
  -3  -2  -1 6451.35 165.363   3
  -3  -2  -1 6354.94 166.544   2
  -3  -2  -1 6532.71 170.779   1
   3   2   1 6563.20 171.135   2
   3   2   1 6675.91 166.352   3
  -3  -2  -2 2058.94 88.0654   3
  -3  -2  -2 2096.70 89.6585   2
  -3  -2  -2 2161.90 93.3983   1
   3   2   2 2059.35 91.9668   2
   3   2   2 2182.28 89.4303   3
  -3  -2  -3 0.79445 20.2681   1
   3   2   3 5.07096 19.8825   2
   3   2   3-2.62234 17.5519   3
  -3  -2  -3 14.1267 15.6289   3
  -3  -2  -3-3.89879 15.4250   2
  -3  -2  -4 486.282 47.7131   1
   3   2   4 417.240 41.3178   1
  -3  -2  -4 462.514 44.7290   3
   3   2   4 476.339 42.1829   3
   3   2   4 539.681 48.9853   2
   3   2   5 13919.9 273.537   2
   3   2   5 13108.3 259.892   3
   3   2   5 13332.5 270.472   1
   3   2   6-8.88007 20.7268   3
   3   2   6 45.7878 21.3937   1
   3   2   6 14.6688 20.0699   2
   3   2   7 1947.61 93.9481   3
   3   2   7 2120.05 98.4123   2
   3   2   7 2007.81 97.8724   4
   3   2   7 1916.78 95.0048   1
   3   2   8 5944.41 176.292   3
   3   2   8 5914.51 177.213   2
   3   2   8 6033.21 181.574   4
   3   2   8 6152.39 181.698   1
   3   2   9 4613.33 158.265   3
   3   2   9 4872.31 162.758   2
   3   2   9 4856.66 164.529   4
   3   2   9 5002.33 166.128   1
   3   2  10 34.0952 21.3924   4
   3   2  10-37.5116 25.8902   3
   3   2  10 56.8535 24.2159   1
   3   2  10 36.2187 30.8556   2
   3   2  11 7123.32 214.457   3
   3   2  11 7201.16 216.419   2
   3   2  11 7570.79 222.714   4
   3   2  11 7350.90 219.386   1
   3   2  12 188.716 41.2996   3
   3   2  13 84.9158 33.7558   3
   3   2  14 2466.24 137.173   3
   3   2  15 5017.25 203.021   3
   3   2  16 904.288 91.2186   3
   3   2  17 1663.52 126.185   3
   3   2  18 1288.96 116.722   3
   3   2  19-15.6062 32.7336   3
   3   2  20 352.996 69.4336   3
   3   2  21 517.581 83.3083   3
   3   3 -16 1027.37 111.288   4
   3   3 -15-10.8076 32.8141   4
   3   3 -14 1346.35 122.355   4
   3   3 -13 59.5233 34.9581   4
   3   3 -12 2208.28 143.416   4
   3   3 -11 765.653 84.2232   4
   3   3 -10 11732.8 329.442   4
   3   3  -9 856.128 82.0930   4
   3   3  -8 10517.7 292.483   4
   3   3  -7 2415.52 129.030   4
  -3  -3   7 2419.80 118.299   3
   3   3  -6 13966.8 328.337   4
  -3  -3   6 13820.1 301.059   3
  -3  -3   5 189.725 35.7195   2
  -3  -3   5 204.050 32.0720   3
   3   3  -5 225.405 43.0973   4
   3   3  -4 641.053 60.8229   4
  -3  -3   4 728.314 67.8044   2
  -3  -3   4 685.999 56.7610   3
  -3  -3   3 38.9566 18.6903   3
  -3  -3   3 11.1549 18.5011   2
   3   3  -3 21.8565 20.3437   4
  -3  -3   2 545.986 55.9229   1
  -3  -3   2 486.254 43.3169   3
  -3  -3   2 479.418 49.5787   2
   3   3  -2 433.412 48.0904   4
  -3  -3   1 656.042 59.7711   2
  -3  -3   1 576.663 46.3365   3
  -3  -3   1 658.604 60.5673   1
   3   3   0 241.549 30.0508   3
  -3  -3   0 202.927 35.4783   1
  -3  -3   0 226.970 30.1436   3
  -3  -3   0 230.495 36.5408   2
  -3  -3  -1 918.627 64.7866   2
  -3  -3  -1 867.659 54.0343   3
  -3  -3  -1 959.322 69.3641   1
   3   3   1 872.030 66.2204   2
   3   3   1 858.123 51.9770   3
  -3  -3  -2 12840.5 241.300   3
  -3  -3  -2 13069.7 275.563   2
  -3  -3  -2 13340.0 282.803   1
   3   3   2 13304.6 281.214   2
   3   3   2 13140.3 240.217   3
   3   3   3 376.609 35.4158   3
   3   3   3 276.873 38.6560   2
  -3  -3  -3 314.689 33.8025   3
  -3  -3  -3 267.644 40.4466   1
  -3  -3  -3 336.956 40.7087   2
   3   3   4 2499.13 90.0656   3
  -3  -3  -4 2482.38 94.4330   3
  -3  -3  -4 2445.51 109.310   1
   3   3   4 2428.57 109.927   2
   3   3   5 3285.01 129.048   2
  -3  -3  -5 3289.23 129.736   1
   3   3   5 3261.87 107.912   3
   3   3   5 3340.45 130.139   1
   3   3   6 6389.67 187.529   2
   3   3   6 6403.18 161.796   3
   3   3   6 6671.74 191.631   1
   3   3   7 7761.27 213.168   2
   3   3   7 7665.33 184.598   3
   3   3   7 7929.91 214.478   1
   3   3   7 7771.53 195.897   4
   3   3   8 8086.24 199.181   3
   3   3   8 8378.40 224.896   2
   3   3   8 7743.87 202.585   4
   3   3   8 7921.16 221.234   1
   3   3   9 5051.56 157.932   3
   3   3   9 5199.47 178.857   2
   3   3   9 5424.68 166.743   4
   3   3   9 5119.36 177.936   1
   3   3  10 1246.15 79.5415   3
   3   3  10 1377.03 92.9245   2
   3   3  10 1424.55 85.3606   4
   3   3  10 1355.24 91.1183   1
   3   3  11 3274.88 136.079   3
   3   3  11 3116.46 143.639   2
   3   3  11 3398.63 138.989   4
   3   3  12-32.5790 19.9847   4
   3   3  12 13.5856 23.0109   3
   3   3  12 32.6913 30.0800   2
   3   3  13 1016.99 84.6036   3
   3   3  13 1037.09 91.9563   2
   3   3  14 1204.86 92.2788   3
   3   3  15 1899.31 121.648   3
   3   3  16 286.166 55.3679   3
   3   3  17 2290.68 144.469   3
   3   3  18 1151.45 107.002   3
   3   3  19 66.2524 34.0112   3
   3   3  20 739.078 94.4493   3
   3   3  21 672.568 98.4321   3
   3   3  22 99.7193 47.9132   3
   3   4 -16 1015.85 110.336   4
   3   4 -15 708.632 92.3693   4
   3   4 -14 118.238 44.2351   4
   3   4 -13 304.155 59.4311   4
   3   4 -12 66.8972 35.4548   4
   3   4 -11 7378.65 264.121   4
   3   4 -10 134.056 42.6824   4
   3   4  -9 389.825 58.1654   4
   3   4  -8 1656.65 109.818   4
  -3  -4   8 1659.63 99.6509   3
   3   4  -7 11662.4 303.725   4
  -3  -4   7 11826.6 278.578   3
   3   4  -6 3655.85 155.606   4
  -3  -4   6 3921.68 142.908   3
   3   4  -5 5075.92 178.635   4
  -3  -4   5 5007.43 158.354   3
  -3  -4   4 8.52675 16.8119   3
   3   4  -4 33.1550 24.9265   4
  -3  -4   3 165.237 26.6439   3
  -3  -4   3 193.375 38.1083   2
   3   4  -3 194.125 36.3067   4
  -3  -4   2 16.9168 24.6275   1
  -3  -4   2 19.4497 15.7601   3
  -3  -4   2-3.67502 18.6347   2
   3   4  -2 13.1498 20.7154   4
  -3  -4   1 173.096 39.6776   1
  -3  -4   1 197.440 26.2522   3
  -3  -4   1 214.488 38.3145   2
   3   4  -1 152.000 30.1639   4
  -3  -4   0 4153.21 154.917   2
  -3  -4   0 4008.74 112.448   3
  -3  -4   0 4137.23 156.192   1
   3   4   0 4092.68 136.483   4
  -3  -4  -1 22160.6 412.228   2
  -3  -4  -1 21702.1 333.061   3
  -3  -4  -1 21993.2 416.236   1
   3   4   1 22338.2 416.112   2
   3   4   1 22196.6 331.953   3
  -3  -4  -2 1973.34 105.065   2
  -3  -4  -2 1983.03 73.6874   3
  -3  -4  -2 1970.93 107.301   1
   3   4   2 2102.38 111.385   2
   3   4   2 2049.09 73.4479   3
   3   4   3 16.6656 14.6172   3
   3   4   3 39.5544 25.7393   2
  -3  -4  -3 18.1790 23.6335   1
  -3  -4  -3 19.2655 13.8648   3
  -3  -4  -3 33.9455 23.6517   2
  -3  -4  -4 24.4824 26.9618   1
   3   4   4 7.78787 13.3969   3
   3   4   4 21.7218 23.2344   2
  -3  -4  -4 29.4088 20.1126   2
   3   4   5 834.832 46.9925   3
   3   4   5 956.513 73.9574   1
  -3  -4  -5 866.745 71.3581   1
   3   4   5 911.140 75.3975   2
   3   4   6 1168.00 85.6636   2
   3   4   6 1078.63 57.7191   3
  -3  -4  -6 1140.70 84.9375   1
   3   4   6 1183.04 82.7899   1
   3   4   6 1170.19 65.3573   4
   3   4   7 934.400 76.5917   2
   3   4   7 808.554 50.9487   3
   3   4   7 932.294 74.9757   1
   3   4   7 845.953 57.2114   4
   3   4   8 802.478 73.2331   2
   3   4   8 573.427 46.0936   3
   3   4   8 648.628 51.2620   4
   3   4   8 655.528 64.2357   1
   3   4   9 7853.99 235.082   2
   3   4   9 8211.09 196.589   3
   3   4   9 7692.30 196.866   4
   3   4  10 5703.41 201.412   2
   3   4  10 5928.93 169.248   3
   3   4  10 5821.29 172.217   4
   3   4  11 38.4911 20.4919   4
   3   4  11 34.5002 19.3875   3
   3   4  11 68.7410 37.0150   2
   3   4  12 791.783 66.0706   3
   3   4  12 889.652 69.8777   4
   3   4  12 858.635 81.9254   2
   3   4  13 309.287 44.2692   4
   3   4  13 248.570 43.3271   3
   3   4  13 350.928 57.7276   2
   3   4  14 1326.49 94.9347   3
   3   4  14 1473.01 112.785   2
   3   4  15 290.708 51.4840   3
   3   4  15 202.197 49.9397   2
   3   4  16 371.107 54.9446   3
   3   4  16 407.138 69.1897   2
   3   4  17 374.402 61.9222   3
   3   4  18 325.106 55.7927   3
   3   4  19 272.496 54.8233   3
   3   4  20 836.845 100.162   3
   3   4  21-34.8623 30.6664   3
   3   4  22 3968.56 220.277   3
   3   5 -15 222.797 59.4574   4
   3   5 -14 40.8669 41.8871   4
   3   5 -13 725.853 86.0439   4
   3   5 -12 3269.93 180.987   4
   3   5 -11 144.961 46.7813   4
   3   5 -10 2080.16 132.998   4
   3   5  -9 1451.96 107.935   4
  -3  -5   8 637.160 61.7967   3
   3   5  -8 777.063 77.7648   4
  -3  -5   7 416.920 49.1201   3
   3   5  -7 385.067 55.0886   4
   3   5  -6 8714.39 248.653   4
  -3  -5   6 8537.80 218.556   3
   3   5  -5 1229.68 86.3121   4
  -3  -5   5 1164.15 71.7803   3
  -3  -5   4 483.880 44.0449   3
   3   5  -4 499.740 52.7089   4
  -3  -5   3 151.376 42.7342   1
  -3  -5   3 133.717 24.7854   3
   3   5  -3 134.789 33.6012   4
  -3  -5   2 1179.71 59.3638   3
  -3  -5   2 1295.44 97.5836   1
   3   5  -2 1211.25 76.2803   4
  -3  -5   1 1154.70 55.6259   3
  -3  -5   1 1195.26 92.2335   1
   3   5  -1 1247.04 74.5546   4
  -3  -5   0-2.50627 11.8112   3
  -3  -5   0-13.0534 27.5850   1
   3   5   0 16.7779 16.7115   4
  -3  -5  -1 1660.82 59.0966   3
  -3  -5  -1 1857.80 111.638   1
   3   5   1 1637.69 79.4497   4
   3   5   1 1762.99 106.402   2
  -3  -5  -2 3118.40 79.3066   3
  -3  -5  -2 2907.11 139.370   1
   3   5   2 2888.77 104.854   4
   3   5   2 3011.64 141.256   2
  -3  -5  -3 6163.52 206.081   1
   3   5   3 6126.00 205.442   2
   3   5   4 759.011 72.6551   2
   3   5   4 704.170 34.6541   3
  -3  -5  -4 675.755 70.3125   1
  -3  -5  -5 3416.50 150.750   1
   3   5   5 3506.83 86.7111   3
   3   5   5 3377.48 150.661   2
   3   5   6 467.342 38.6146   4
   3   5   6 344.942 52.2495   2
  -3  -5  -6 475.123 60.4146   1
   3   5   6 456.885 31.9815   3
   3   5   7 235.681 25.9060   3
   3   5   7 270.566 30.7463   4
   3   5   7 323.703 53.8816   2
   3   5   8 11586.0 303.363   2
   3   5   8 11969.5 218.819   3
   3   5   8 11873.6 233.987   4
   3   5   9 1647.44 110.203   2
   3   5   9 1991.49 82.4488   3
   3   5   9 1702.77 80.6395   4
   3   5  10 8445.25 260.844   2
   3   5  10 8690.50 199.466   3
   3   5  10 8609.76 203.786   4
   3   5  11 6987.17 238.895   2
   3   5  11 7177.32 187.399   3
   3   5  11 7091.51 188.987   4
   3   5  12 383.887 45.3810   4
   3   5  12 373.884 44.2482   3
   3   5  12 361.601 59.5178   2
   3   5  13 1505.37 116.086   2
   3   5  13 1423.94 88.1168   3
   3   5  13 1536.35 93.1975   4
   3   5  14 152.867 33.2803   4
   3   5  14 121.551 33.3062   3
   3   5  14 173.092 50.4801   2
   3   5  15 2592.04 156.650   2
   3   5  15 2686.86 133.584   3
   3   5  16 412.321 57.2317   3
   3   5  16 316.864 60.2673   2
   3   5  17 33.9194 35.4132   3
   3   5  17 152.055 53.3908   2
   3   5  18 26.8840 27.9538   3
   3   5  18 115.641 51.3001   2
   3   5  19 130.271 44.7558   3
   3   5  19 302.356 68.0689   2
   3   5  20 184.989 51.6602   3
   3   5  20 162.031 50.7826   2
   3   5  21 594.469 83.9896   3
   3   5  22 132.940 47.5181   3
   3   6 -15-46.1106 41.2647   4
   3   6 -14 514.498 78.9475   4
   3   6 -13 1756.97 137.892   4
   3   6 -12 7.69509 29.8183   4
   3   6 -11 26.9571 31.8109   4
   3   6 -10 1126.30 102.047   4
   3   6  -9 110.622 38.3477   4
   3   6  -8 2255.71 131.896   4
   3   6  -7 4488.36 181.131   4
  -3  -6   7 4388.53 156.093   3
  -3  -6   6 554.501 51.4248   3
   3   6  -6 498.025 58.9477   4
   3   6  -5 4275.36 162.299   4
  -3  -6   5 3804.80 129.615   3
  -3  -6   4 7317.38 256.996   1
   3   6  -4 7643.71 215.539   4
  -3  -6   4 7659.73 180.962   3
  -3  -6   3 628.831 76.3199   1
   3   6  -3 606.288 55.9123   4
  -3  -6   3 610.629 43.0692   3
  -3  -6   2 171.271 44.0712   1
  -3  -6   2 124.463 19.9747   3
   3   6  -2 144.637 30.5576   4
  -3  -6   1 982.953 44.8623   3
  -3  -6   1 956.051 87.7301   1
   3   6  -1 1104.84 67.6141   4
  -3  -6   0 1238.90 42.4611   3
  -3  -6   0 1352.60 103.614   1
   3   6   0 1284.46 69.6382   4
  -3  -6  -1 1521.91 108.478   1
   3   6   1 1336.14 67.6411   4
   3   6   1 1273.92 99.8447   2
  -3  -6  -2 949.196 88.1279   1
   3   6   2 993.636 56.0534   4
   3   6   2 1026.20 90.2857   2
   3   6   3 59.2818 33.1494   2
  -3  -6  -3 46.9827 31.2671   1
   3   6   3 70.1486 17.8060   4
   3   6   4 16.0336 35.0063   2
  -3  -6  -4 13.2183 30.2250   1
   3   6   4-3.67683 13.4812   4
   3   6   5 860.902 45.5966   4
  -3  -6  -5 837.244 81.7888   1
   3   6   5 799.699 81.5506   2
   3   6   6 2384.53 77.7076   4
  -3  -6  -6 2501.50 138.366   1
   3   6   6 2468.95 136.960   2
  -3  -6  -7 188.885 50.9089   1
   3   6   7 111.035 13.3941   3
   3   6   7 88.2408 37.6824   2
   3   6   7 115.028 18.8077   4
   3   6   8 294.498 24.6970   3
   3   6   8 272.143 55.8288   2
   3   6   8 284.079 28.4522   4
   3   6   9 5098.33 205.090   2
   3   6   9 5223.20 119.749   3
   3   6   9 5250.45 133.655   4
   3   6  10 1500.11 112.030   2
   3   6  10 1581.32 68.9717   3
   3   6  10 1690.56 75.0122   4
   3   6  11 49.7495 21.2018   3
   3   6  11 46.8994 16.6649   4
   3   6  11 8.19522 35.4556   2
   3   6  12 3413.59 174.430   2
   3   6  12 3364.35 119.777   3
   3   6  13 12.8479 20.7690   3
   3   6  13-10.7871 30.2066   2
   3   6  14 9435.23 311.625   2
   3   6  14 9346.53 237.061   3
   3   6  15 11.5816 19.9626   3
   3   6  15 28.4136 44.4915   2
   3   6  16 1733.67 136.786   2
   3   6  16 1580.47 102.396   3
   3   6  17 586.255 66.6396   3
   3   6  17 600.402 87.3437   2
   3   6  18 991.153 108.512   2
   3   6  19 238.975 58.5141   2
   3   7 -14 710.634 93.8547   4
   3   7 -13 441.115 71.7779   4
   3   7 -12 433.544 69.3870   4
   3   7 -11 946.854 96.8025   4
   3   7 -10 1022.66 99.7160   4
   3   7  -9 1768.96 123.798   4
   3   7  -8 642.261 70.9762   4
   3   7  -7 9173.87 269.806   4
   3   7  -6 2694.21 134.990   4
  -3  -7   5 8480.64 298.429   1
   3   7  -5 8731.27 242.290   4
  -3  -7   4 1444.32 117.900   1
   3   7  -4 1403.76 89.0669   4
  -3  -7   3 222.978 51.9583   1
   3   7  -3 285.099 41.9901   4
  -3  -7   2 322.480 59.8304   1
   3   7  -2 404.456 42.8199   4
   3   7  -1 861.954 57.5681   4
  -3  -7   1 820.912 86.4547   1
  -3  -7   0 4781.74 204.698   1
   3   7   0 4781.93 134.425   4
   3   7   1 724.693 81.5977   2
   3   7   1 799.163 48.4245   4
  -3  -7  -1 738.802 81.5553   1
  -3  -7  -2 542.179 68.5756   1
   3   7   2 505.595 64.9708   2
   3   7   2 539.650 38.0689   4
   3   7   3 185.524 45.4107   2
  -3  -7  -3 118.777 36.6201   1
   3   7   3 110.820 16.9620   4
   3   7   4 47.4004 33.2700   2
   3   7   4 91.3813 13.5415   4
   3   7   4 90.8536 17.3964   4
  -3  -7  -4 101.219 42.7593   1
  -3  -7  -5 714.037 80.9727   1
   3   7   5 813.411 31.8487   4
   3   7   5 882.248 87.8496   2
   3   7   5 809.901 32.6843   4
   3   7   6 367.482 19.2628   4
   3   7   6 379.839 20.2935   4
   3   7   6 371.300 61.6301   2
  -3  -7  -6 366.464 59.0647   1
   3   7   7 23.9210 32.2635   2
  -3  -7  -7 55.5254 43.1640   1
   3   7   7 2.32840 5.53861   4
   3   7   7-5.40814 6.23589   4
   3   7   8 258.086 18.7503   4
   3   7   8 353.760 62.8599   2
   3   7   9-36.8374 30.1770   2
   3   7  10 52.1340 38.3784   2
   3   7  11 850.650 93.3930   2
   3   7  12 640.173 80.0774   2
   3   7  13 2102.87 146.299   2
   3   7  14-41.5459 38.7573   2
   3   7  15 6275.99 263.506   2
   3   7  16 575.069 86.2793   2
   3   7  17 314.073 67.6735   2
   3   8 -12 1364.72 120.990   4
   3   8 -11 98.5954 41.2475   4
   3   8 -10 150.495 38.2989   4
   3   8  -9 58.7026 27.8268   4
   3   8  -8 625.919 72.5772   4
  -3  -8   7 82.7592 44.8753   1
   3   8  -7 37.1998 22.5990   4
  -3  -8   6 3084.35 187.508   1
   3   8  -6 3187.39 147.489   4
  -3  -8   5 430.498 73.0814   1
   3   8  -5 472.450 56.0868   4
  -3  -8   4 6770.32 272.300   1
   3   8  -4 6481.33 196.976   4
   3   8  -3 814.380 63.6879   4
  -3  -8   3 765.334 93.2222   1
   3   8  -2 1178.00 70.3798   4
  -3  -8   2 878.358 97.1189   1
   3   8  -1 190.541 28.1457   4
  -3  -8   1 184.359 47.8214   1
   3   8   0 366.158 33.4469   4
  -3  -8   0 323.047 60.1258   1
  -3  -8  -1 1561.95 125.573   1
  -3  -8  -2 904.380 96.1911   1
   3   8   2 733.424 84.3974   2
  -3  -8  -3 1403.10 116.527   1
   3   8   3 1632.06 123.306   2
  -3  -8  -4 8063.09 284.612   1
   3   8   4 7841.22 277.636   2
  -3  -8  -5 6117.76 244.830   1
   3   8   5 5881.86 238.595   2
   3   8   6 87.6388 42.6143   2
  -3  -8  -6 18.3314 34.5446   1
  -3  -8  -7 69.1603 44.9442   1
   3   8   7 16.6742 35.4830   2
   3   8   8 1177.40 111.006   2
   3   8   9 1256.72 114.074   2
   3   8  10 227.617 50.9233   2
   3   8  11 422.310 72.0462   2
   3   8  12 183.275 56.6811   2
   3   8  13 1033.20 105.177   2
   3   8  14 2387.71 164.622   2
   3   8  15 1152.44 116.414   2
   3   8  16 176.006 56.9867   2
  -3  -9   6-39.5803 42.1808   1
  -3  -9   5 707.045 97.6633   1
  -3  -9   4 9.58981 40.5618   1
  -3  -9   3 3021.06 190.782   1
  -3  -9   2 591.828 84.5848   1
  -3  -9   1 1952.68 146.893   1
  -3  -9   0 889.573 101.622   1
  -3  -9  -1 88.4995 43.0787   1
  -3  -9  -2 226.804 59.7984   1
   3   9   2 145.373 49.7869   2
   3   9   3 156.711 50.6256   2
  -3  -9  -3 78.8622 38.3305   1
  -3  -9  -4 1836.68 140.882   1
   3   9   4 1652.73 129.419   2
  -3  -9  -5 2532.21 163.521   1
   3   9   5 2540.72 164.399   2
   3   9   6 805.466 98.4487   2
  -3  -9  -6 558.626 83.1245   1
   3   9   7 7618.68 289.559   2
  -3  -9  -7 7514.32 287.387   1
   3   9   8 339.275 64.0605   2
   3   9   9-64.3819 36.6276   2
   3   9  10 858.566 99.0975   2
   3   9  11 38.4563 31.2875   2
   3   9  12 120.373 47.8569   2
   3   9  13 143.866 54.6176   2
   3   9  14 1123.36 122.945   2
  -3 -10   2 1383.38 130.414   1
  -3 -10   1 570.946 82.8472   1
  -3 -10   0 229.085 61.5709   1
  -3 -10  -1 1371.53 129.345   1
  -3 -10  -2 80.1371 36.7675   1
   3  10   3 1132.73 112.820   2
  -3 -10  -3 1122.20 114.954   1
  -3 -10  -4 260.794 54.9108   1
   3  10   4 333.671 68.2054   2
   3  10   5 1032.74 110.868   2
  -3 -10  -5 1072.71 111.566   1
   3  10   6 1001.29 109.070   2
  -3 -10  -6 939.318 105.779   1
   3  10   7 1736.88 144.276   2
  -3 -10  -7 1776.57 144.743   1
   3  10   8 1036.63 112.650   2
   3  10   9 840.018 99.6712   2
   3  10  10 201.742 60.3303   2
   3  10  11-54.9209 41.6056   2
   4  -9  -9 1539.62 137.969   4
   4  -9  -5 194.364 60.9919   3
   4  -9  -4 719.545 92.3817   3
   4  -9  -3 4030.27 219.692   3
   4  -9  -2 657.847 88.7054   3
   4  -9  -1 163.884 50.9639   3
   4  -9   0-92.5225 52.3101   3
   4  -9   1 795.635 100.702   3
   4  -9   2-17.6425 34.4009   3
   4  -8 -11 329.436 76.4583   4
   4  -8 -10 701.664 93.9011   4
   4  -8  -8 351.037 74.2779   3
   4  -8  -7 56.6794 38.0385   3
   4  -8  -6 1147.20 117.381   3
   4  -8  -5 549.477 81.7213   3
   4  -8  -4-8.13937 35.4241   3
   4  -8  -3 1449.11 127.684   3
   4  -8  -2 1946.97 147.327   3
   4  -8  -1-55.0192 37.6590   3
   4  -8   0 377.624 68.0043   3
   4  -8   1 729.837 91.5506   3
   4  -8   2 4097.70 213.982   3
   4  -8   3-61.9023 38.4187   3
   4  -8   4 108.626 50.4729   3
   4  -8   5 558.017 81.5373   3
   4  -8   6 43.8453 39.7064   3
   4  -7 -12-4.81824 36.0287   4
   4  -7 -11 98.4231 49.2045   4
   4  -7 -10 54.6351 38.6526   4
   4  -7  -9 70.2919 43.9537   3
   4  -7  -8 99.1953 41.7172   3
   4  -7  -7 2366.18 161.282   3
   4  -7  -6 1928.67 144.959   3
   4  -7  -5 2865.54 175.973   3
   4  -7  -4 110.962 45.8389   3
   4  -7  -3 1492.91 125.404   3
   4  -7  -2-113.462 51.1240   3
   4  -7  -1 5584.02 245.122   3
   4  -7   0 782.252 91.4706   3
   4  -7   1 68.9649 32.7580   3
   4  -7   2 2711.91 167.359   3
   4  -7   3 802.006 92.0037   3
   4  -7   4 1297.90 118.608   3
   4  -7   5 527.318 80.4966   3
   4  -7   6 181.382 55.2959   3
   4  -7   7 201.799 56.1321   3
   4  -7   8 120.818 49.7251   3
   4  -7   9 230.210 64.9316   3
   4  -6 -13 47.0871 39.4456   4
   4  -6 -12 56.3400 44.7436   4
   4  -6 -11 435.050 74.6642   4
   4  -6 -10 373.892 72.3048   4
   4  -6  -9 245.325 60.5533   3
   4  -6  -9 139.765 47.6632   4
   4  -6  -8 56.6712 29.3846   3
   4  -6  -7-17.5828 39.2766   3
   4  -6  -6 3045.80 177.066   3
   4  -6  -5 353.912 68.7250   3
   4  -6  -4 431.820 67.2689   3
   4  -6  -3 4910.44 221.337   3
   4  -6  -2 574.036 77.6435   3
   4  -6  -1 446.679 69.0479   3
   4  -6   0 462.172 69.6607   3
   4  -6   1 387.233 64.5582   3
   4  -6   2 103.636 37.1488   3
   4  -6   3 7001.76 266.279   3
   4  -6   4 548.300 78.3307   3
   4  -6   5 236.978 53.0707   3
   4  -6   6 1155.64 111.292   3
   4  -6   7 1301.44 117.277   3
   4  -6   8 17.2907 28.5453   3
   4  -6   9 279.971 62.1589   3
   4  -6  10 183.083 54.9393   3
   4  -6  11-1.84811 34.1262   3
   4  -5 -13 1543.21 136.092   4
   4  -5 -12 491.391 83.1823   4
   4  -5 -11-31.0332 32.0805   4
   4  -5 -10 98.0351 41.5781   4
   4  -5  -9 2339.94 158.002   4
   4  -5  -9 1995.62 145.243   3
   4  -5  -8 312.549 59.8515   3
   4  -5  -7 33.9711 43.6643   3
   4  -5  -6 2206.88 145.320   3
   4  -5  -5 250.113 55.3470   3
   4  -5  -4 318.085 59.8898   3
   4  -5  -3 9.34462 65.8454   3
   4  -5  -2 262.720 79.4481   3
   4  -5  -1 74.3167 36.1967   3
   4  -5   0 330.409 62.1537   3
   4  -5   1 11.3790 30.4950   3
   4  -5   2-26.2836 35.4508   3
   4  -5   3 494.920 71.3759   3
   4  -5   4 2596.17 156.235   3
   4  -5   5 259.800 49.3534   3
   4  -5   6 3877.84 194.754   3
   4  -5   7 508.267 72.1431   3
   4  -5   8 6634.53 262.809   3
   4  -5   9 557.058 80.4952   3
   4  -5  10 54.3205 44.3504   3
   4  -5  11-11.0979 41.3845   3
   4  -5  12 26.9557 35.1191   3
   4  -4 -14 633.677 90.4434   4
   4  -4 -13 2733.76 180.054   4
   4  -4 -12 1571.52 142.668   4
   4  -4 -11 719.327 94.9268   4
   4  -4 -10 2596.76 168.525   4
   4  -4  -9-12.1649 36.2679   4
   4  -4  -8 1204.62 110.010   3
   4  -4  -7 745.444 85.9755   3
   4  -4  -6 1457.86 114.857   3
   4  -4  -5 956.443 93.1005   3
   4  -4  -4 498.833 73.5163   3
   4  -4  -3 2827.61 157.088   3
   4  -4  -2 1071.92 97.0329   3
   4  -4  -1 831.794 86.9858   3
   4  -4   0 10.4972 32.3867   3
   4  -4   1 69.0717 38.4784   3
   4  -4   2 1179.15 100.400   3
   4  -4   3 6967.84 249.103   3
   4  -4   4 597.006 75.1996   3
   4  -4   5 3356.54 175.420   3
   4  -4   6 758.278 84.5502   3
   4  -4   7 3393.96 176.465   3
   4  -4   8 46.0981 36.3486   3
   4  -4   9 921.002 96.6999   3
   4  -4  10 302.665 59.7884   3
   4  -4  11 800.271 93.4685   3
   4  -4  12 46.1343 35.3826   3
   4  -4  13 154.898 53.5151   3
   4  -4  14 194.668 62.1210   3
   4  -3 -14 2217.69 165.730   4
   4  -3 -13 943.543 108.182   4
   4  -3 -12 9796.68 342.733   4
   4  -3 -11 38.2451 34.3273   4
   4  -3 -10 3163.16 181.988   4
   4  -3  -9 40.4831 37.7675   4
   4  -3  -8 25.5162 32.4020   3
   4  -3  -8 13.3571 30.8986   4
   4  -3  -7 91.7508 43.2244   3
   4  -3  -6 1743.88 124.566   3
   4  -3  -5 1009.47 94.5426   3
  -4   3   5 857.647 43.3088   2
  -4   3   4 1362.58 39.0817   2
  -4   3   4 1272.67 38.4030   1
   4  -3  -4 1585.29 115.485   3
   4  -3  -3 1572.81 112.427   3
   4  -3  -2 539.596 70.5187   3
   4  -3  -1 12.0339 31.1476   3
   4  -3   0 48.9461 29.0759   3
   4  -3   1 1499.01 108.346   3
   4  -3   2 1715.74 115.210   3
   4  -3   3 893.813 83.0519   3
   4  -3   4 413.639 61.1738   3
   4  -3   5 130.539 41.0118   3
   4  -3   6 9441.57 292.004   3
   4  -3   7 2296.44 141.749   3
   4  -3   8 8314.90 278.543   3
   4  -3   8 8050.31 144.545   2
   4  -3   9 1525.99 120.026   3
   4  -3   9 1456.91 62.6214   2
   4  -3  10 237.200 55.0616   3
   4  -3  11 331.577 62.2117   3
   4  -3  12 2561.01 166.395   3
   4  -3  13 98.2843 47.6778   3
   4  -3  14-4.27985 35.4333   3
   4  -3  15 60.1842 38.8586   3
   4  -2 -14 110.939 53.6983   4
   4  -2 -13 3161.44 194.173   4
   4  -2 -12 993.760 107.474   4
   4  -2 -11 2200.99 154.267   4
   4  -2 -10-10.2062 33.8479   4
   4  -2  -9 1013.31 100.939   4
   4  -2  -8 679.803 83.2878   4
   4  -2  -7 305.522 56.7861   3
  -4   2   7 381.883 41.3480   2
   4  -2  -6-0.52536 28.0011   3
  -4   2   6 19.0941 16.6555   2
   4  -2  -5 279.577 52.2821   3
  -4   2   5 295.324 33.0404   2
  -4   2   4 21.9143 12.5726   1
   4  -2  -4 37.7724 26.6444   3
  -4   2   4 37.8396 14.6698   2
  -4   2   3 881.107 38.5591   2
  -4   2   3 833.489 37.6837   1
   4  -2  -3 823.701 79.9628   3
  -4   2   2 900.722 27.6641   1
   4  -2  -2 1086.69 90.3425   3
   4  -2  -1 9555.68 279.683   3
   4  -2   0 1415.49 103.423   3
   4  -2   1 2985.12 150.425   3
   4  -2   2 576.638 65.1367   3
   4  -2   3 2349.55 132.297   3
   4  -2   4 2756.67 144.302   3
   4  -2   5 1241.77 98.9977   3
   4  -2   6 1219.59 98.6604   3
   4  -2   6 1113.45 37.0316   2
   4  -2   7 625.596 35.7007   2
   4  -2   7 531.083 33.1135   1
   4  -2   7 649.862 74.9844   3
   4  -2   8 4365.25 191.348   3
   4  -2   8 4391.07 112.211   2
   4  -2   8 4261.39 111.652   1
   4  -2   9 388.771 62.3639   3
   4  -2   9 356.180 35.2339   2
   4  -2  10 964.993 60.9435   2
   4  -2  10 971.837 95.4698   3
   4  -2  11 517.435 73.4685   3
   4  -2  12 1914.70 138.499   3
   4  -2  13 433.466 74.2627   3
   4  -2  14-8.61507 30.5167   3
   4  -2  15 584.664 84.6039   3
   4  -2  16 191.340 53.6546   3
   4  -1 -14 104.903 46.2692   4
   4  -1 -13 276.630 63.1435   4
   4  -1 -12 572.887 84.1534   4
   4  -1 -11 200.977 57.1748   4
   4  -1 -10 5540.57 239.842   4
   4  -1  -9 32.3856 32.8560   4
   4  -1  -8 3971.00 194.830   4
  -4   1   8 3529.68 140.769   2
  -4   1   7 96.6220 25.7450   2
   4  -1  -7 15.7836 30.5819   4
  -4   1   6 944.931 65.2754   2
   4  -1  -6 1025.22 91.5097   3
   4  -1  -5 200.666 49.4349   3
  -4   1   5 175.080 29.8879   2
   4  -1  -4 4065.44 173.698   3
  -4   1   4 3914.88 118.296   2
  -4   1   3 4926.91 126.074   2
  -4   1   3 4968.50 127.759   1
   4  -1  -3 4852.05 190.043   3
  -4   1   2 835.571 44.2995   2
  -4   1   2 831.605 45.4960   1
   4  -1  -2 879.160 80.6017   3
   4  -1  -1 93.2401 34.5276   3
  -4   1   1 60.6496 16.7950   1
  -4   1   1 66.7095 14.5448   2
   4  -1   0 1301.26 95.7711   3
   4  -1   1 9750.28 272.226   3
   4  -1   2 468.227 58.4934   3
   4  -1   3 20.8999 23.4004   3
   4  -1   4 1077.69 87.4413   3
   4  -1   5 28.6283 14.1455   2
   4  -1   5-16.2335 32.6125   3
   4  -1   6 2602.16 137.495   3
   4  -1   6 2462.45 80.3961   2
   4  -1   7 325.218 32.1521   1
   4  -1   7 378.251 58.4927   3
   4  -1   7 355.772 35.0193   2
   4  -1   8 417.763 61.7832   3
   4  -1   8 377.960 35.9566   1
   4  -1   8 370.685 37.4516   2
   4  -1   9 3438.91 166.889   3
   4  -1   9 3610.55 118.787   2
   4  -1   9 3404.82 116.789   1
   4  -1  10 2606.72 148.634   3
   4  -1  10 2886.05 111.400   2
   4  -1  10 2651.03 107.918   1
   4  -1  11 4374.77 200.053   3
   4  -1  11 4383.62 147.615   2
   4  -1  12 93.3123 61.0106   3
   4  -1  12 35.1519 27.2279   2
   4  -1  13 1685.30 129.151   3
   4  -1  14 34.9114 30.2478   3
   4  -1  15-3.81037 29.3074   3
   4  -1  16 464.210 74.9281   3
   4  -1  17 1538.15 137.193   3
   4   0 -14 7.75227 32.7202   4
   4   0 -13 418.420 74.3921   4
   4   0 -12 350.522 71.3774   4
   4   0 -11 1643.65 133.466   4
   4   0 -10 5371.89 234.648   4
   4   0  -9 4553.63 212.944   4
   4   0  -8 3507.53 182.711   4
  -4   0   8 3375.42 144.989   2
   4   0  -7 696.204 81.0613   4
  -4   0   7 676.670 62.2142   2
  -4   0   6 17.5609 22.0631   2
   4   0  -6 69.9148 32.2540   4
   4   0  -5 1947.87 125.086   3
  -4   0   5 1847.46 94.3149   2
   4   0  -4 652.777 70.2429   3
  -4   0   4 563.340 49.7693   2
  -4   0   3 1240.75 69.4633   2
  -4   0   3 1331.14 73.4352   1
   4   0  -3 1263.99 91.8281   3
  -4   0   2 875.454 55.1929   2
  -4   0   2 843.287 55.4099   1
   4   0  -2 909.467 79.1016   3
  -4   0   1 1276.03 66.5578   2
  -4   0   1 1225.16 63.4337   1
   4   0  -1 1244.66 90.0404   3
   4   0   0-2.45389 27.9963   3
  -4   0   0 22.3102 17.6640   1
  -4   0   0 14.7845 15.8418   2
  -4   0  -1 1645.26 68.3243   1
   4   0   1 1564.37 100.438   3
   4   0   2 2867.50 135.968   3
   4   0   3 60.6606 32.4087   3
   4   0   4 1954.56 112.432   3
   4   0   4 2026.54 77.9741   2
   4   0   5 188.560 30.3594   2
   4   0   5 171.566 39.5050   3
   4   0   6 397.264 39.0681   2
   4   0   6 389.246 55.4540   3
   4   0   7 43.5865 18.3366   1
   4   0   7 18.8175 27.4960   3
   4   0   7 33.5916 20.6903   2
   4   0   8 282.259 49.6433   3
   4   0   8 120.329 26.0298   1
   4   0   8 113.292 25.8962   2
   4   0   9 93.6392 33.2396   3
   4   0   9 133.889 30.1534   2
   4   0   9 161.319 31.7442   1
   4   0  10 4018.27 178.253   3
   4   0  10 4166.71 144.284   2
   4   0  10 4035.47 144.095   1
   4   0  11 13.4547 21.6707   1
   4   0  11 21.0515 32.4087   3
   4   0  11 22.6729 23.1484   2
   4   0  12 8239.67 277.455   3
   4   0  12 8183.09 225.631   2
   4   0  12 7376.06 218.130   1
   4   0  13 3099.67 170.518   3
   4   0  13 3111.94 140.356   2
   4   0  14 6171.18 249.460   3
   4   0  15 223.120 55.5665   3
   4   0  16 118.370 45.8746   3
   4   0  17 382.376 68.8085   3
   4   0  18 1159.89 117.013   3
   4   1 -14 25.2168 42.8586   4
   4   1 -13 5.28947 38.5820   4
   4   1 -12 111.970 42.0048   4
   4   1 -11 155.984 53.5903   4
   4   1 -10 4114.91 206.323   4
   4   1  -9 2501.05 155.231   4
   4   1  -8 115.752 39.1107   4
   4   1  -7 12486.8 349.634   4
  -4  -1   7 11947.1 298.235   2
   4   1  -6 3764.32 180.728   4
  -4  -1   6 3940.89 155.035   2
  -4  -1   5 178.631 33.5256   2
   4   1  -5 268.807 52.8558   4
   4   1  -4 47.3436 30.2903   3
  -4  -1   4 16.1803 19.9347   2
  -4  -1   3 952.580 68.7703   2
  -4  -1   3 917.211 68.7002   1
   4   1  -3 931.647 77.8632   3
   4   1  -2-19.5770 25.7736   3
  -4  -1   2 0.85676 22.7928   1
  -4  -1   2-2.37769 15.2924   2
  -4  -1   1 11058.3 278.044   3
  -4  -1   1 10518.6 232.112   2
  -4  -1   1 11321.4 242.174   1
   4   1  -1 11147.8 277.664   3
  -4  -1   0 749.635 67.2631   3
  -4  -1   0 769.048 53.9924   2
  -4  -1   0 805.220 58.3339   1
   4   1   0 833.303 69.1897   3
  -4  -1  -1 4736.73 173.283   3
  -4  -1  -1 4579.17 136.949   2
  -4  -1  -1 5289.22 148.720   1
   4   1   1 4843.57 172.343   3
  -4  -1  -2 2103.11 112.213   3
  -4  -1  -2 2199.04 91.8542   1
   4   1   2 2055.62 109.766   3
  -4  -1  -3 1846.53 105.129   3
   4   1   3 1980.83 88.0402   2
   4   1   3 1762.90 101.737   3
   4   1   4-18.9775 23.0739   2
   4   1   4 17.6843 25.3881   3
  -4  -1  -4 1.59034 22.5990   3
   4   1   5 137.087 29.3987   2
   4   1   5 73.1800 26.9541   3
  -4  -1  -5 99.6968 29.5566   3
   4   1   6 456.079 46.4990   2
   4   1   6 408.172 52.1009   3
   4   1   7 2313.23 102.948   2
   4   1   7 2052.96 113.933   3
   4   1   7 2123.90 98.3265   1
   4   1   8 721.209 61.0190   2
   4   1   8 756.302 61.4597   1
   4   1   8 696.608 69.0550   3
   4   1   9 1388.57 98.4526   3
   4   1   9 1492.42 87.1466   2
   4   1   9 1547.81 89.1887   1
   4   1  10 16.0660 28.1330   3
   4   1  10 14.5225 22.8665   2
   4   1  10 28.6830 17.9413   1
   4   1  11 3519.66 165.066   3
   4   1  11 3508.46 144.250   2
   4   1  11 3442.57 144.726   1
   4   1  12 177.049 46.9688   3
   4   1  12 231.926 44.3582   2
   4   1  13 975.779 81.4672   2
   4   1  13 893.573 89.1022   3
   4   1  14 736.836 83.2311   3
   4   1  14 603.867 69.2062   2
   4   1  15 2622.32 158.155   3
   4   1  15 2668.92 143.857   2
   4   1  16-14.3532 30.0855   3
   4   1  17-11.1082 29.2497   3
   4   1  18 321.168 67.1836   3
   4   1  19 30.6758 38.6663   3
   4   2 -14 118.750 43.8663   4
   4   2 -13 43.4897 42.7683   4
   4   2 -12-25.5622 29.6130   4
   4   2 -11 1237.97 114.616   4
   4   2 -10 5060.50 228.780   4
   4   2  -9-7.23326 28.6771   4
   4   2  -8 1057.14 100.972   4
   4   2  -7 5106.60 212.607   4
   4   2  -6 22093.6 481.066   4
  -4  -2   5 32.2842 20.1915   2
   4   2  -5 87.0246 37.0486   4
  -4  -2   4 14.9731 27.3576   1
  -4  -2   4-16.7995 17.5017   2
   4   2  -4 37.2532 33.7338   4
  -4  -2   3 179.564 39.8733   1
  -4  -2   3 143.502 34.2969   3
  -4  -2   3 159.469 32.3879   2
   4   2  -2 90.7937 35.5240   3
  -4  -2   2 57.1152 30.0603   1
  -4  -2   2 51.6846 19.8394   3
  -4  -2   2 60.6083 24.7761   2
   4   2  -1 138.048 32.3665   3
  -4  -2   1 156.206 33.2424   3
  -4  -2   1 122.879 31.1266   1
  -4  -2   1 110.973 28.5612   2
   4   2   0 176.758 38.2651   3
  -4  -2   0 221.496 38.3693   3
  -4  -2   0 195.397 33.4359   2
  -4  -2   0 169.858 31.1500   1
   4   2   1 550.880 55.6471   3
  -4  -2  -1 551.900 53.9935   1
  -4  -2  -1 509.547 55.1463   3
  -4  -2  -1 535.587 50.9601   2
  -4  -2  -2 8503.67 228.085   3
  -4  -2  -2 8340.05 210.711   2
  -4  -2  -2 8684.52 216.264   1
   4   2   2 8635.47 227.195   3
  -4  -2  -3-0.61707 23.0074   1
   4   2   3-35.9944 30.3240   2
   4   2   3-4.51536 24.2112   3
  -4  -2  -3-20.2383 19.9609   3
  -4  -2  -4 4699.86 165.230   3
   4   2   4 4686.59 155.545   2
   4   2   4 4727.21 162.928   3
   4   2   5 51.6820 25.7357   2
   4   2   5 64.7258 24.7672   3
  -4  -2  -5 58.3822 26.6170   3
   4   2   6 1360.23 88.7413   3
   4   2   6 1307.22 81.6076   2
   4   2   7 727.037 66.8907   3
   4   2   7 714.544 62.1906   1
   4   2   7 755.905 65.1906   2
   4   2   8 180.872 37.8613   1
   4   2   8 191.927 41.3595   3
   4   2   8 266.368 42.8215   2
   4   2   9 373.692 51.3011   3
   4   2   9 407.121 50.4774   1
   4   2   9 422.873 51.7122   2
   4   2  10 7775.26 234.686   3
   4   2  10 7962.86 227.762   2
   4   2  10 7600.54 224.960   1
   4   2  11 1647.59 108.219   3
   4   2  11 1703.44 105.712   2
   4   2  12 572.500 70.2015   3
   4   2  12 526.876 63.1412   2
   4   2  13 531.706 67.3403   3
   4   2  13 470.859 61.4903   2
   4   2  14 1223.26 104.089   3
   4   2  14 1302.52 101.160   2
   4   2  15 2298.49 143.560   3
   4   2  15 2257.07 138.163   2
   4   2  16 256.252 56.7596   3
   4   2  16 364.832 59.0385   2
   4   2  17 69.9401 36.5875   3
   4   2  17 31.0276 37.0867   2
   4   2  18 22.8363 31.7306   3
   4   2  18 3.25088 30.8994   2
   4   2  19 450.588 78.2647   3
   4   2  19 399.388 71.2174   2
   4   2  20 189.183 54.8051   3
   4   3 -13 44.2944 37.9835   4
   4   3 -12 37.1845 33.4121   4
   4   3 -11 457.952 76.2353   4
   4   3 -10 530.543 76.3430   4
   4   3  -9 172.547 48.4626   4
   4   3  -8 49.8702 31.2813   4
   4   3  -7 51.0807 36.5882   4
   4   3  -6 633.800 70.7350   4
   4   3  -5 4683.77 194.843   4
  -4  -3   4 1121.77 90.1782   1
  -4  -3   4 1463.16 94.8761   3
   4   3  -4 1268.69 98.5142   4
  -4  -3   3 389.945 54.6224   1
  -4  -3   3 454.553 51.9739   3
   4   3  -3 511.781 66.7367   4
  -4  -3   2 220.275 44.3006   1
  -4  -3   2 216.973 38.8117   3
  -4  -3   2 213.242 37.9043   2
   4   3  -2 107.936 30.3880   4
  -4  -3   1 4356.14 162.961   2
  -4  -3   1 4398.67 153.562   3
  -4  -3   1 4305.29 164.117   1
   4   3  -1 4068.03 148.387   3
   4   3   0 480.590 49.7465   3
  -4  -3   0 473.113 50.4624   3
  -4  -3   0 550.499 55.9770   2
  -4  -3   0 470.427 56.6247   1
  -4  -3  -1 135.404 34.2576   1
   4   3   1 187.030 35.3216   3
  -4  -3  -1 123.922 28.1621   3
  -4  -3  -1 165.437 33.3353   2
   4   3   2-7.92691 21.2628   3
  -4  -3  -2 42.6233 27.2238   1
  -4  -3  -2 23.3649 16.9706   3
  -4  -3  -2-7.10400 19.8270   2
  -4  -3  -3 11078.6 254.623   3
  -4  -3  -3 11250.9 268.965   2
  -4  -3  -3 11418.9 275.179   1
   4   3   3 11282.2 273.658   2
   4   3   3 11492.0 257.360   3
   4   3   4-18.1345 25.0698   2
  -4  -3  -4-28.3513 25.8337   1
   4   3   4 0.34213 19.2339   3
  -4  -3  -4 10.6155 17.9015   3
   4   3   5 7143.31 211.998   2
   4   3   5 6814.99 191.196   3
   4   3   6 402.720 46.6418   3
   4   3   6 401.163 50.6221   2
   4   3   7 5742.87 192.074   1
   4   3   7 5937.58 183.282   3
   4   3   7 6102.41 198.595   4
   4   3   7 6216.81 198.877   2
   4   3   8 205.118 41.0519   1
   4   3   8 161.441 32.3825   3
   4   3   8 143.611 33.3678   2
   4   3   9 11072.8 286.028   2
   4   3   9 11136.4 270.893   3
   4   3  10-24.5621 23.0408   3
   4   3  10 31.0764 26.2114   2
   4   3  11 959.912 85.9846   2
   4   3  11 949.780 79.5188   3
   4   3  12 320.327 50.7354   3
   4   3  12 290.928 51.4541   2
   4   3  13 450.711 61.3395   3
   4   3  13 441.869 62.4111   2
   4   3  14 309.351 55.6681   3
   4   3  14 371.776 59.9075   2
   4   3  15 228.500 48.0969   3
   4   3  15 267.409 54.8657   2
   4   3  16 1554.03 118.590   3
   4   3  16 1435.75 117.128   2
   4   3  17 333.540 61.3394   3
   4   3  17 241.737 55.0463   2
   4   3  18 468.782 73.0180   3
   4   3  18 564.590 79.5727   2
   4   3  19 186.261 49.7315   3
   4   3  19 178.440 46.7443   2
   4   3  20 965.872 107.257   3
   4   3  20 916.457 107.465   2
   4   4 -13 547.006 81.1918   4
   4   4 -12 163.968 53.3032   4
   4   4 -11 138.097 48.7858   4
   4   4 -10 354.695 63.6720   4
   4   4  -9 146.199 40.5493   4
   4   4  -8 1386.31 113.394   4
   4   4  -7 836.102 85.0869   4
   4   4  -6 301.943 52.7993   4
  -4  -4   5 76.4936 37.2455   1
  -4  -4   5 98.5816 34.6412   3
   4   4  -5 43.6343 33.2278   4
  -4  -4   4 907.085 72.7242   3
  -4  -4   4 872.496 84.1429   1
   4   4  -4 839.568 80.3679   4
  -4  -4   3 64.6801 30.6246   1
  -4  -4   3 11.9786 18.9382   3
   4   4  -3 65.7387 26.0594   4
  -4  -4   2 2239.03 104.741   3
  -4  -4   2 2066.91 124.544   1
   4   4  -2 2138.54 121.664   4
  -4  -4   1 1604.39 86.8668   3
  -4  -4   1 1652.96 108.553   1
   4   4  -1 1717.44 105.933   4
  -4  -4   0 241.011 37.4633   3
  -4  -4   0 195.714 43.6605   1
   4   4   0 152.009 36.7955   4
  -4  -4  -1 981.027 65.2895   3
  -4  -4  -1 1079.94 88.0505   1
   4   4   1 1046.65 66.4988   3
  -4  -4  -2 8057.45 199.336   3
  -4  -4  -2 8211.90 244.739   1
   4   4   2 8274.07 243.597   2
   4   4   2 8636.50 202.885   3
  -4  -4  -3 4929.68 150.521   3
  -4  -4  -3 4951.50 185.644   1
   4   4   3 5080.96 185.596   2
   4   4   3 5308.86 153.580   3
  -4  -4  -4 2720.72 134.580   1
   4   4   4 2910.18 139.132   2
   4   4   4 2805.16 108.251   3
   4   4   5 4385.97 173.914   2
   4   4   5 4312.43 139.390   3
  -4  -4  -5 4244.54 171.713   1
   4   4   6 174.364 30.2482   3
   4   4   6 152.646 37.2334   2
   4   4   7 3096.40 118.919   3
   4   4   7 3085.82 132.236   4
   4   4   7 3136.82 148.599   2
   4   4   8 2619.23 112.812   3
   4   4   8 2581.38 121.622   4
   4   4   8 2540.90 134.165   2
   4   4   9 944.364 85.2018   2
   4   4   9 988.747 71.9929   3
   4   4   9 955.144 76.2934   4
   4   4  10 2263.69 132.230   2
   4   4  10 2249.47 110.041   3
   4   4  10 2309.34 119.047   4
   4   4  11 480.546 54.4618   3
   4   4  11 585.499 72.8910   2
   4   4  12 578.928 60.6157   3
   4   4  12 421.316 61.0700   2
   4   4  13-6.87333 24.0324   3
   4   4  13 84.7858 39.7824   2
   4   4  14 537.421 67.6901   3
   4   4  14 523.119 69.9177   2
   4   4  15 1047.32 91.2303   3
   4   4  15 862.665 94.0954   2
   4   4  16 816.703 85.2309   3
   4   4  16 680.312 86.6717   2
   4   4  17 1248.95 107.088   3
   4   4  17 1060.58 107.927   2
   4   4  18 21.0586 27.9010   3
   4   4  18 115.783 45.9823   2
   4   4  19 612.783 83.3656   3
   4   4  19 570.717 84.5186   2
   4   5 -13 3547.69 208.987   4
   4   5 -12 1895.77 147.304   4
   4   5 -11 68.0000 41.7501   4
   4   5 -10 61.4735 38.5454   4
   4   5  -9 55.5571 32.2602   4
   4   5  -8 23.4289 32.1613   4
   4   5  -7 78.0791 35.6125   4
  -4  -5   6 824.653 90.9112   1
   4   5  -6 921.195 87.9822   4
  -4  -5   5 6704.31 251.871   1
   4   5  -5 6585.77 231.461   4
  -4  -5   4 253.481 57.0803   1
   4   5  -4 328.647 52.4985   4
  -4  -5   3 383.190 62.3769   1
   4   5  -3 468.655 60.8562   4
  -4  -5   2 28.6230 29.6009   1
  -4  -5   2 77.3472 25.5685   3
   4   5  -2 63.0452 36.2464   4
  -4  -5   1 2196.45 95.4400   3
  -4  -5   1 2204.48 133.420   1
   4   5  -1 2020.27 114.142   4
  -4  -5   0 18.2003 15.4588   3
   4   5   0 11.9867 21.7553   4
  -4  -5   0 31.3462 30.6303   1
  -4  -5  -1 22.6309 27.0642   1
  -4  -5  -1 48.3282 19.6893   3
   4   5   1 57.7738 28.1503   4
   4   5   2 304.099 51.5120   2
  -4  -5  -2 384.838 57.7328   1
  -4  -5  -2 389.311 38.0446   3
   4   5   2 372.816 48.0710   4
  -4  -5  -3 4941.47 198.641   1
   4   5   3 5230.43 201.572   2
   4   5   3 5326.77 139.488   3
  -4  -5  -4 2987.85 152.179   1
   4   5   4 3136.54 156.056   2
   4   5   4 3112.10 102.755   3
  -4  -5  -5 86.6635 36.4863   1
   4   5   5 81.9792 19.7404   3
   4   5   5 68.2624 37.0860   2
  -4  -5  -6 965.647 91.1847   1
   4   5   6 1007.61 89.3323   2
   4   5   6 1088.96 60.3971   3
   4   5   7 593.252 72.0026   2
   4   5   7 610.219 56.5569   4
   4   5   7 709.476 51.2534   3
   4   5   8 1678.10 93.7332   4
   4   5   8 1706.13 116.469   2
   4   5   8 1767.21 82.4377   3
   4   5   9 598.070 49.1338   3
   4   5   9 469.872 66.5105   2
   4   5  10 772.467 60.2723   3
   4   5  10 750.578 81.2516   2
   4   5  11 262.845 38.2225   3
   4   5  11 303.750 58.8278   2
   4   5  12 365.316 47.3031   3
   4   5  12 289.814 58.6887   2
   4   5  13-3.91066 21.4821   3
   4   5  13 16.1146 35.5413   2
   4   5  14 969.074 79.8078   3
   4   5  14 1126.59 107.380   2
   4   5  15 34.9689 34.6087   2
   4   5  16 5184.67 235.470   2
   4   5  17 113.150 46.2595   2
   4   5  18 5.30344 31.6644   2
   4   6 -12 2391.36 168.078   4
   4   6 -11 1823.08 143.189   4
   4   6 -10-5.05478 41.3248   4
   4   6  -9 59.9473 39.6856   4
   4   6  -8 639.889 78.8849   4
  -4  -6   7 230.026 54.9969   1
   4   6  -7 192.391 48.0280   4
  -4  -6   6 89.9827 42.2849   1
   4   6  -6 71.7644 32.7023   4
  -4  -6   5 13.9836 33.9237   1
   4   6  -5 56.5846 33.4790   4
  -4  -6   4 906.712 99.2369   1
   4   6  -4 1117.06 88.9657   4
  -4  -6   3 3587.03 183.985   1
   4   6  -3 3281.35 149.849   4
  -4  -6   2 1144.17 104.092   1
   4   6  -2 1029.48 79.6103   4
  -4  -6   1 2269.98 143.842   1
   4   6  -1 2220.17 115.527   4
   4   6   0 91.9346 26.2700   4
  -4  -6   0 61.9168 39.7476   1
  -4  -6  -1 78.4637 42.9493   1
   4   6   1 113.735 30.1341   4
   4   6   2 4920.08 163.464   4
  -4  -6  -2 4736.58 204.749   1
   4   6   3 420.658 65.8766   2
  -4  -6  -3 483.641 66.7475   1
   4   6   3 445.443 46.8832   4
   4   6   4 2127.42 100.455   4
  -4  -6  -4 2080.87 133.281   1
   4   6   4 2115.86 133.034   2
   4   6   5 2561.11 148.450   2
  -4  -6  -5 2607.09 150.477   1
  -4  -6  -6 259.316 54.2311   1
   4   6   6 284.756 54.9302   2
   4   6   7 2053.71 134.348   2
   4   6   8 80.6106 39.6806   2
   4   6   9 2929.79 162.707   2
   4   6  10 295.543 54.9470   2
   4   6  11 52.9177 38.4828   2
   4   6  12 465.139 72.7711   2
   4   6  13 139.972 46.4895   2
   4   6  14 247.296 58.2476   2
   4   6  15 1055.93 109.154   2
   4   6  16 389.659 69.8506   2
   4   6  17 401.712 74.7377   2
   4   7 -11 577.341 88.4124   4
   4   7 -10 881.761 93.9915   4
   4   7  -9 2514.64 157.238   4
  -4  -7   8 2748.55 182.896   1
   4   7  -8 2519.74 151.135   4
  -4  -7   7 1303.67 126.074   1
   4   7  -7 1253.57 103.101   4
  -4  -7   6 1182.93 117.891   1
   4   7  -6 1110.81 93.5751   4
  -4  -7   5 404.325 71.3828   1
   4   7  -5 380.366 55.3412   4
  -4  -7   4 1310.10 121.106   1
   4   7  -4 1358.14 102.582   4
  -4  -7   3 488.782 76.9502   1
   4   7  -3 471.352 57.8597   4
   4   7  -2 743.949 66.9717   4
  -4  -7   2 795.145 91.5782   1
   4   7  -1 175.614 32.5571   4
  -4  -7   1 248.452 58.2489   1
   4   7   0 182.401 31.5076   4
  -4  -7   0 163.459 48.7773   1
  -4  -7  -1 11.9054 35.0240   1
   4   7   1 121.598 30.1294   4
  -4  -7  -2 63.5585 43.0951   1
   4   7   3 175.744 51.2006   2
  -4  -7  -3 210.110 56.9945   1
  -4  -7  -4 10.2533 36.5170   1
   4   7   4-40.5724 37.4782   2
   4   7   5 1249.29 110.563   2
  -4  -7  -5 1063.98 105.176   1
   4   7   6 1653.39 126.346   2
  -4  -7  -6 1532.74 121.447   1
   4   7   7 66.5292 32.6969   2
  -4  -7  -7 90.3406 47.0015   1
   4   7   8 9310.59 311.087   2
   4   7   9 33.1310 34.8924   2
   4   7  10 1556.82 126.889   2
   4   7  11 1096.10 110.304   2
   4   7  12 1141.61 111.726   2
   4   7  13 197.436 49.8517   2
   4   7  14 142.585 49.5407   2
   4   7  15 35.1126 30.7964   2
  -4  -8   5 966.455 110.773   1
  -4  -8   4 72.1568 38.0926   1
  -4  -8   3-25.8744 36.4810   1
  -4  -8   2 5.87756 34.5901   1
  -4  -8   1 359.285 68.7424   1
  -4  -8   0 111.791 39.7870   1
  -4  -8  -1 393.364 72.8284   1
  -4  -8  -2-25.9679 38.1954   1
   4   8   3 235.780 57.6104   2
  -4  -8  -3 162.188 49.7350   1
  -4  -8  -4 12.2233 39.7640   1
   4   8   4 5.66470 36.9729   2
   4   8   5 512.960 74.6662   2
  -4  -8  -5 770.820 92.5131   1
  -4  -8  -6 437.527 73.5508   1
   4   8   6 282.250 58.2626   2
  -4  -8  -7 1398.36 123.553   1
   4   8   7 1279.06 119.922   2
   4   8   8-17.5894 33.4318   2
   4   8   9 3643.53 200.546   2
   4   8  10 52.3230 33.4940   2
   4   8  11 3962.21 212.348   2
   4   8  12 58.7941 42.6291   2
   4   8  13 682.989 92.7896   2
  -4  -9   1 363.093 72.3621   1
  -4  -9   0 455.200 74.2478   1
  -4  -9  -1 241.167 63.7654   1
  -4  -9  -2 4.06290 37.5205   1
  -4  -9  -3 778.751 99.2560   1
  -4  -9  -4 389.467 75.7196   1
   4   9   4 430.779 89.2813   2
   4   9   5 381.565 75.7373   2
  -4  -9  -5 483.947 77.5713   1
  -4  -9  -6 171.807 56.2902   1
   4   9   6 87.6708 45.5992   2
  -4  -9  -7 84.3380 44.4601   1
   4   9   7-9.84598 34.0666   2
   4   9   8 1082.65 114.750   2
   4   9   9 2380.39 169.566   2
   4   9  10 294.210 63.7844   2
   5  -6  -2 1628.22 140.584   3
   5  -6  -1 375.666 75.2431   3
   5  -6   0 683.429 91.5996   3
   5  -6   1 50.4031 40.6399   3
   5  -6   2 30.8074 32.8788   3
   5  -5  -6 319.950 64.2731   3
   5  -5  -5 79.9463 43.3659   3
   5  -5  -4 352.762 67.9992   3
   5  -5  -3 2784.68 177.927   3
   5  -5  -2 432.434 71.3589   3
   5  -5  -1 3938.41 212.997   3
   5  -5   0 73.6900 40.2508   3
   5  -5   1 1215.49 116.496   3
   5  -5   2 215.309 58.6474   3
   5  -5   3 60.9414 44.0026   3
   5  -5   4 206.174 56.1325   3
   5  -5   5 16.7230 32.7472   3
   5  -5   6 346.273 67.6168   3
   5  -5   7 946.450 108.152   3
   5  -4  -8 155.328 52.2874   3
   5  -4  -7 125.884 46.8625   3
   5  -4  -6 235.876 60.5983   3
   5  -4  -5 46.2304 33.8729   3
   5  -4  -4 325.799 64.4748   3
   5  -4  -3 86.4915 36.7878   3
   5  -4  -2 11.6200 34.6343   3
   5  -4  -1 424.436 69.9247   3
   5  -4   0 5273.25 239.907   3
   5  -4   1 5.45758 34.2462   3
   5  -4   2 6996.58 278.270   3
   5  -4   3 30.9316 42.2158   3
   5  -4   4 287.177 60.0078   3
   5  -4   5 86.9855 41.1033   3
   5  -4   6 374.894 69.5973   3
   5  -4   7-25.6084 40.2480   3
   5  -4   8 554.579 85.1540   3
   5  -4   9-47.2363 40.1588   3
   5  -3  -8 627.692 91.6036   4
   5  -3  -7 737.826 94.3879   3
   5  -3  -6 10.2105 32.1353   3
   5  -3  -5 39.2211 38.8427   3
   5  -3  -4 150.299 54.1318   3
   5  -3  -3 711.582 86.3143   3
   5  -3  -2 284.323 58.3984   3
   5  -3  -1 2260.68 151.752   3
   5  -3   0 741.767 87.7875   3
   5  -3   1 4529.68 216.245   3
   5  -3   2 471.182 71.1102   3
   5  -3   3 2351.71 152.652   3
   5  -3   4-25.0020 38.2764   3
   5  -3   5 1840.76 136.267   3
   5  -3   6 72.3692 39.2585   3
   5  -3   7 386.924 68.7761   3
   5  -3   8 5.29086 32.9667   3
   5  -3   9 58.9693 35.7582   3
   5  -3  10 404.285 72.2518   3
   5  -3  11 1169.90 115.725   3
   5  -2  -9 484.821 82.0088   4
   5  -2  -8 1044.73 114.393   4
   5  -2  -7 63.0734 32.3458   3
   5  -2  -7 41.7479 38.6159   4
   5  -2  -6 158.465 49.5251   3
   5  -2  -5 1419.55 122.174   3
   5  -2  -4 104.155 41.1255   3
   5  -2  -3-14.3794 30.8201   3
   5  -2  -2 1259.01 111.400   3
   5  -2  -1 168.185 44.3096   3
   5  -2   0 3443.42 181.739   3
   5  -2   1-18.9769 33.1655   3
   5  -2   2 5185.01 224.549   3
   5  -2   3 5267.89 226.270   3
   5  -2   4 2935.71 168.429   3
   5  -2   5-32.2427 38.3500   3
   5  -2   6 819.783 92.4785   3
   5  -2   7 265.968 57.5758   3
   5  -2   8 350.954 66.1203   3
   5  -2   9 170.002 42.7212   3
   5  -2  10 20.2919 32.2377   3
   5  -2  11 1048.89 108.782   3
   5  -2  12 292.784 66.5341   3
   5  -2  13 252.369 62.1471   3
   5  -1  -9 430.326 74.7101   4
   5  -1  -8 1065.93 113.745   4
   5  -1  -7 3225.29 195.371   4
   5  -1  -6 3339.99 194.125   4
   5  -1  -6 2935.04 172.100   3
   5  -1  -5 3911.48 195.450   3
   5  -1  -4 22.7444 31.4260   3
   5  -1  -3 135.104 41.0398   3
   5  -1  -2 1500.90 116.319   3
   5  -1  -1 241.338 48.8804   3
   5  -1   0 688.733 78.6476   3
   5  -1   1 1700.28 124.308   3
   5  -1   2 865.563 90.3152   3
   5  -1   3-22.6584 39.6244   3
   5  -1   4 90.7402 34.6882   3
   5  -1   5 3259.85 170.501   3
   5  -1   6 4023.29 191.858   3
   5  -1   7 385.571 64.2333   3
   5  -1   8 101.438 43.7635   3
   5  -1   9 870.337 95.3248   3
   5  -1  10 615.297 81.1427   3
   5  -1  11 208.716 58.1387   3
   5  -1  12 1823.54 140.690   3
   5  -1  13 267.237 60.7892   3
   5  -1  14 577.974 83.8716   3
   5   0 -10 3068.51 194.038   4
   5   0  -9 2704.65 179.836   4
   5   0  -8 1070.63 113.913   4
   5   0  -7 667.581 90.3617   4
   5   0  -6 1359.61 123.392   4
   5   0  -5 8423.24 307.020   4
   5   0  -5 8139.68 282.485   3
   5   0  -4 246.836 52.2798   3
   5   0  -3 71.1632 35.2359   3
   5   0  -2 210.122 51.7786   3
   5   0  -1 592.918 72.0450   3
   5   0   0 506.042 66.2020   3
   5   0   1 1.50067 28.6451   3
   5   0   2 40.8365 31.7089   3
   5   0   3 764.708 83.1200   3
   5   0   4 2039.50 129.578   3
   5   0   5 5938.63 226.084   3
   5   0   6 120.123 41.1876   3
   5   0   7 1854.31 126.751   3
   5   0   8-3.64524 29.9353   3
   5   0   9 445.539 69.9451   3
   5   0  10 654.285 79.7868   3
   5   0  11 2302.81 149.684   3
   5   0  12 24.3512 31.6814   3
   5   0  13 508.207 78.4249   3
   5   0  14 326.396 68.2650   3
   5   0  15 1449.70 128.740   3
   5   1 -10 564.804 88.2106   4
   5   1  -9 1566.14 139.369   4
   5   1  -8 2060.58 153.498   4
  -5  -1   7 1218.97 96.1385   1
   5   1  -7 1477.95 129.783   4
  -5  -1   6 57.8645 49.2552   1
   5   1  -6 83.1844 40.9113   4
  -5  -1   5 1295.74 91.9219   1
   5   1  -5 1429.11 123.808   4
  -5  -1   4 1787.77 100.906   1
   5   1  -4 1878.23 138.509   4
   5   1  -3 578.072 72.4445   3
  -5  -1   3 708.920 64.4976   1
  -5  -1   2 34.5050 22.9050   1
   5   1  -2 14.2018 27.1996   3
   5   1  -1-1.56824 25.7321   3
  -5  -1   1-4.80127 20.2115   1
  -5  -1   0 448.815 47.0246   1
   5   1   0 441.080 61.9533   3
   5   1   1 12.0943 25.9883   3
  -5  -1  -1 49.2453 28.3424   1
   5   1   2 13.5832 27.9036   3
   5   1   3-31.6091 25.8024   3
   5   1   4 4000.71 177.817   3
   5   1   5 515.700 65.8191   3
   5   1   6 619.964 54.9018   2
   5   1   6 624.527 70.1823   3
   5   1   7 2086.06 129.475   3
   5   1   7 2362.21 106.275   2
   5   1   8 13660.1 358.498   3
   5   1   8 13770.2 293.980   2
   5   1   9 12.6099 31.8286   3
   5   1  10 75.7665 39.0508   3
   5   1  11 376.539 62.3128   3
   5   1  12 1206.11 106.787   3
   5   1  13 90.2456 36.6301   3
   5   1  14 2725.81 169.659   3
   5   1  15 151.772 44.4981   3
   5   1  16 361.199 69.3927   3
   5   2 -10 124.515 51.1959   4
   5   2  -9 407.283 73.2135   4
   5   2  -8 207.066 49.4782   4
  -5  -2   7 3389.80 166.497   1
   5   2  -7 3445.69 194.511   4
  -5  -2   6 138.149 38.9895   1
   5   2  -6 124.079 41.4971   4
  -5  -2   5 2214.79 125.827   1
   5   2  -5 2016.85 144.690   4
  -5  -2   4-0.66166 23.8115   1
   5   2  -4 21.2981 28.6103   4
  -5  -2   3 1027.53 82.1692   1
   5   2  -3 956.775 98.9389   4
   5   2  -2 33.1033 28.5204   3
  -5  -2   2-13.7633 22.0592   1
  -5  -2   1 1336.65 89.4204   1
   5   2  -1 1209.33 94.3154   3
   5   2   0 124.625 37.9049   3
  -5  -2   0 148.307 31.7904   1
   5   2   1 621.020 70.2529   3
  -5  -2  -1 565.154 57.0560   1
   5   2   2 71.2592 32.8238   3
  -5  -2  -2 118.976 31.5140   1
   5   2   3 637.720 69.9322   3
   5   2   4-70.4009 37.9002   3
   5   2   5 706.531 71.2738   3
   5   2   6 913.879 72.8019   2
   5   2   6 946.571 83.1229   3
   5   2   7 386.388 49.8703   2
   5   2   7 234.633 42.4855   3
   5   2   8 360.319 53.2456   2
   5   2   8 299.198 50.0166   3
   5   2   9 7085.41 243.655   3
   5   2   9 7420.52 222.217   2
   5   2  10 224.912 48.0490   3
   5   2  10 176.358 35.2273   2
   5   2  11 93.5030 37.7868   3
   5   2  11 88.5635 36.4366   2
   5   2  12 428.031 65.1494   3
   5   2  12 361.914 53.5568   2
   5   2  13 416.072 63.9553   3
   5   2  14 1030.74 100.853   3
   5   2  15 774.505 90.8093   3
   5   2  16 381.038 64.0433   3
   5   2  17 707.751 90.4778   3
   5   3 -10 743.482 98.8404   4
   5   3  -9 18.3792 37.4547   4
  -5  -3   8 743.674 86.2382   1
   5   3  -8 843.233 99.0601   4
  -5  -3   7 629.639 79.0609   1
   5   3  -7 799.870 97.4451   4
  -5  -3   6 393.187 62.5378   1
   5   3  -6 525.152 79.2603   4
  -5  -3   5 433.024 66.3207   1
   5   3  -5 464.068 68.9151   4
  -5  -3   4 4218.85 183.017   1
   5   3  -4 4236.88 206.358   4
  -5  -3   3 3.51038 28.0309   1
   5   3  -3-41.6844 34.6762   4
  -5  -3   2 1727.36 112.315   1
   5   3  -2 1558.37 120.731   4
  -5  -3   1 12.6802 26.0810   1
   5   3   0 693.212 68.2694   3
  -5  -3   0 714.530 71.9379   1
   5   3   1 311.498 47.3102   3
  -5  -3  -1 326.913 50.6532   1
   5   3   2 59.3361 23.4771   3
  -5  -3  -2 147.401 40.4945   1
   5   3   3 142.567 35.7078   3
  -5  -3  -3 111.795 30.9297   1
   5   3   4 5190.69 187.031   3
   5   3   5 367.607 52.8981   2
   5   3   5 381.065 52.5035   3
   5   3   6 720.425 71.8659   2
   5   3   6 597.262 65.0627   3
   5   3   7 350.242 52.6494   2
   5   3   7 320.167 48.7639   3
   5   3   8 795.020 73.4125   3
   5   3   8 915.100 80.9485   2
   5   3   9 1674.93 109.810   3
   5   3   9 1860.65 114.972   2
   5   3  10 572.891 69.8763   3
   5   3  10 574.077 69.0310   2
   5   3  11-3.66750 28.0969   3
   5   3  11 12.6550 27.6327   2
   5   3  12 49.7842 31.1358   3
   5   3  12 8.30072 33.6993   2
   5   3  13 680.378 77.1564   3
   5   3  13 843.906 85.3511   2
   5   3  14-45.6332 37.5217   3
   5   3  14 47.6675 35.6900   2
   5   3  15 46.6979 34.7583   3
   5   3  15 51.6254 40.6436   2
   5   4  -9 29.0974 39.9406   4
  -5  -4   8 80.4729 38.6943   1
   5   4  -8 146.604 55.1531   4
  -5  -4   7 2984.21 174.325   1
   5   4  -7 2593.78 169.233   4
  -5  -4   6 866.310 92.7134   1
   5   4  -6 1117.69 110.939   4
  -5  -4   5 253.912 54.0222   1
   5   4  -5 252.494 55.6183   4
  -5  -4   4 468.809 69.9590   1
   5   4  -4 353.493 62.8597   4
  -5  -4   3 3925.12 182.994   1
   5   4  -3 3887.87 190.952   4
   5   4  -2 6.42598 25.8869   4
  -5  -4   2 48.7483 33.2872   1
  -5  -4   1 3658.54 173.347   1
   5   4  -1 3308.17 170.380   4
  -5  -4   0 297.184 54.3290   1
   5   4   0 264.423 48.9251   4
  -5  -4  -1 6493.67 228.953   1
   5   4   1 6449.50 202.436   3
  -5  -4  -2 160.214 37.7855   1
   5   4   2 136.076 31.0455   3
   5   4   3 230.352 40.5129   3
  -5  -4  -3 206.173 45.0270   1
   5   4   4 555.225 58.2205   3
  -5  -4  -4 616.594 70.6906   1
   5   4   5 150.528 41.0641   2
   5   4   5 94.7902 25.7915   3
   5   4   6 152.529 39.0782   2
   5   4   6 217.162 40.3913   3
   5   4   7 885.076 84.3595   2
   5   4   7 1009.50 77.9331   3
   5   4   8 253.147 49.6969   2
   5   4   8 297.110 46.5343   3
   5   4   9 27.4696 25.1172   3
   5   4   9-10.9784 26.1711   2
   5   4  10 1217.71 102.204   2
   5   4  11 75.7585 35.9751   2
   5   4  12 399.277 63.0257   2
   5   4  13 947.672 93.6655   2
   5   4  14 485.781 73.3764   2
   5   4  15 47.6356 32.2504   2
   5   4  16 1096.86 109.743   2
  -5  -5   9 42.5838 38.4469   1
   5   5  -9-9.80352 33.3383   4
  -5  -5   8 649.702 89.7605   1
   5   5  -8 676.362 87.3859   4
  -5  -5   7 1790.26 140.878   1
   5   5  -7 1937.28 145.691   4
  -5  -5   6 207.324 51.5392   1
   5   5  -6 353.586 67.8610   4
  -5  -5   5-10.2696 34.9256   1
   5   5  -5-32.1328 42.0815   4
  -5  -5   4 2006.77 142.210   1
   5   5  -4 1918.29 136.457   4
  -5  -5   3 782.979 92.5879   1
   5   5  -3 753.528 82.9605   4
  -5  -5   2 1444.38 116.667   1
   5   5  -2 1306.72 107.013   4
  -5  -5   1 1736.64 126.282   1
   5   5  -1 1694.77 120.081   4
   5   5   0 1058.91 95.1817   4
  -5  -5   0 1128.95 102.521   1
  -5  -5  -1 396.173 65.8456   1
   5   5   1 340.004 54.0563   4
   5   5   2 1584.53 112.168   4
  -5  -5  -2 1470.10 114.230   1
  -5  -5  -3 1109.59 99.1202   1
  -5  -5  -4 17.2581 37.0030   1
   5   5   5 94.1296 39.1960   2
  -5  -5  -5 63.1394 32.5743   1
   5   5   6 118.091 42.8781   2
   5   5   7 91.3964 33.5450   2
   5   5   8-25.7823 34.1341   2
   5   5   9 107.444 46.2436   2
   5   5  10 1437.76 117.167   2
   5   5  11 201.325 55.2892   2
   5   5  12 115.255 45.6834   2
   5   5  13 898.006 97.1676   2
   5   5  14 5.21459 40.8064   2
   5   5  15 295.460 62.1188   2
   5   5  16-12.2769 32.2441   2
  -5  -6   6 45.0231 34.7497   1
   5   6  -6 144.432 42.9187   4
  -5  -6   5 3527.53 200.916   1
   5   6  -5 3657.75 187.581   4
  -5  -6   4 1440.33 126.353   1
   5   6  -4 1597.91 123.066   4
  -5  -6   3 2041.62 147.392   1
   5   6  -3 2097.45 134.982   4
  -5  -6   2 1461.19 132.040   1
  -5  -6   1 297.475 63.0069   1
  -5  -6   0 326.912 64.3418   1
  -5  -6  -1 685.374 85.3526   1
  -5  -6  -2 2101.56 144.141   1
  -5  -6  -3 102.824 47.3493   1
  -5  -6  -4 544.767 74.0584   1
   5   6   5 257.836 57.5003   2
  -5  -6  -5 155.863 50.9757   1
   5   6   6 731.161 87.9171   2
   5   6   7-66.2529 35.8244   2
   5   6   8 1167.62 110.807   2
   5   6   9 118.326 44.2199   2
   5   6  10 1305.28 115.802   2
   5   6  11-33.2826 35.8516   2
   5   6  12 509.263 76.1173   2
   5   6  13 222.930 58.1663   2
   5   6  14 1080.53 111.174   2
  -5  -7   3 340.014 63.2683   1
  -5  -7   2 21.3239 32.5832   1
  -5  -7   1 783.745 95.4752   1
  -5  -7   0 450.164 73.2649   1
  -5  -7  -1 1691.29 137.167   1
  -5  -7  -2 38.6147 36.4535   1
  -5  -7  -3 313.641 66.7399   1
  -5  -7  -4-21.0174 44.7950   1
  -5  -7  -5 1116.75 113.064   1
   5   7   5 1214.80 114.115   2
   5   7   6 217.859 49.2134   2
  -5  -7  -6 225.878 60.7652   1
   5   7   7 1420.56 123.607   2
   5   7   8 378.115 70.9284   2
   5   7   9 1388.18 123.781   2
   5   7  10 215.531 65.8649   2
   5   7  11 54.4300 39.9966   2
   5   7  12 154.216 53.9094   2
  -5  -8  -2 2153.28 163.216   1
  -5  -8  -3-33.5887 49.2193   1
  -5  -8  -4 1847.91 148.156   1
  -5  -8  -5 233.497 61.3550   1
   5   8   6 672.325 92.1526   2
  -5  -8  -6 585.153 86.4267   1
   5   8   7 1072.78 116.486   2
   6  -2   0-27.2806 38.7948   3
   6  -2   1 320.551 66.9428   3
   6  -2   2 1.29542 35.0191   3
   6  -2   3 75.6725 42.8278   3
   6  -2   4 134.825 41.1208   3
   6  -1  -3 1417.69 128.387   3
   6  -1  -2 2802.05 179.483   3
   6  -1  -1 426.396 70.1519   3
   6  -1   0 391.218 69.4798   3
   6  -1   1 655.530 86.0401   3
   6  -1   2 680.154 86.2277   3
   6  -1   3 263.506 63.5155   3
   6  -1   4 608.701 87.7570   3
   6  -1   5 528.155 84.3344   3
   6  -1   6 414.327 75.1336   3
   6  -1   7 151.271 48.2154   3
   6  -1   8 576.813 83.2495   3
   6   0  -4 188.094 50.2555   3
   6   0  -3 255.408 58.1190   3
   6   0  -2 36.3327 31.5338   3
   6   0  -1 446.239 70.9587   3
   6   0   0 946.791 100.594   3
   6   0   1 100.727 47.4568   3
   6   0   2 138.665 46.9557   3
   6   0   3 863.930 97.4074   3
   6   0   4 962.959 100.594   3
   6   0   5 187.807 51.8101   3
   6   0   6 2817.32 173.684   3
   6   0   7 316.426 62.2031   3
   6   0   8-0.49511 27.0998   3
   6   0   9 69.4057 41.9002   3
   6   0  10 1638.36 135.550   3
   6   1  -2 296.667 57.9009   3
   6   1  -1 1072.68 104.045   3
   6   1   0 345.918 57.7058   3
   6   1   1 1191.84 110.060   3
   6   1   2 42.0473 35.3182   3
   6   1   3-20.5396 30.7776   3
   6   1   4 541.130 72.7701   3
   6   1   5 3880.99 196.616   3
   6   1   6 53.9097 33.7690   3
   6   1   7 421.789 66.5281   3
   6   1   8 896.428 98.9625   3
   6   1   9 350.875 64.9106   3
   6   1  10 376.473 67.2622   3
   6   1  11 669.775 86.8964   3
   6   2  -3 83.5771 35.9501   4
   6   2  -2 1682.55 143.131   4
   6   2  -1 207.405 49.4240   3
   6   2   0 7.53114 27.4428   3
   6   2   1 36.6489 31.5622   3
   6   2   2 4447.69 202.427   3
   6   2   3-12.0710 31.1837   3
   6   2   4 893.850 89.6457   3
   6   2   5 207.143 49.4902   3
   6   2   6 447.749 67.5262   3
   6   2   7 381.541 65.9364   3
   6   2   8 4436.48 209.438   3
   6   3  -3 1439.69 135.725   4
   6   3  -2 0.95102 34.9805   4
   6   3  -1 131.555 45.9724   4
   6   4  -3-14.5439 36.0340   4
   6   4  -2 1883.55 150.029   4
   6   4  -1 2.60761 33.3835   4
   6   4   0 541.546 78.8160   4
   6   4   1 18.5351 38.9345   4
   0   0   0    0.00    0.00   0
;
_shelx_hkl_checksum              3138
loop_
_space_group_symop_operation_xyz
'x, y, z'
'-x, -y, -z'
loop_
_atom_site_label
_atom_site_type_symbol
_atom_site_fract_x
_atom_site_fract_y
_atom_site_fract_z
_atom_site_U_iso_or_equiv
_atom_site_adp_type
_atom_site_occupancy
_atom_site_site_symmetry_order
_atom_site_calc_flag
_atom_site_refinement_flags_posn
_atom_site_refinement_flags_adp
_atom_site_refinement_flags_occupancy
_atom_site_disorder_assembly
_atom_site_disorder_group
Sc1 Sc 0.72826(7) 0.29369(3) 0.75744(2) 0.01071(10) Uani 1 1 d . . . . .
F11 F 1.3909(2) 0.18809(11) 0.99992(6) 0.0188(3) Uani 1 1 d . . . . .
F12 F 1.1868(2) 0.05307(11) 1.12802(6) 0.0186(2) Uani 1 1 d . . . . .
F21 F 0.9502(2) 0.36585(11) 0.94674(7) 0.0206(3) Uani 1 1 d . . . . .
F22 F 0.8021(2) 0.32410(11) 1.09124(7) 0.0225(3) Uani 1 1 d . . . . .
F31 F 0.1337(3) 0.29454(12) 0.52290(7) 0.0266(3) Uani 1 1 d . . . . .
F32 F 0.3558(2) 0.38046(11) 0.38637(7) 0.0220(3) Uani 1 1 d . . . . .
O1M O 0.6365(3) 0.13365(14) 0.70313(9) 0.0220(3) Uani 1 1 d D . . . .
H11M H 0.697(5) 0.115(2) 0.6603(7) 0.026 Uiso 1 1 d D U . . .
H12M H 0.551(4) 0.0642(15) 0.7274(10) 0.026 Uiso 1 1 d D U . . .
O11 O 1.0470(3) 0.18674(13) 0.80740(8) 0.0154(3) Uani 1 1 d . . . . .
O12 O 1.4624(3) 0.19698(13) 0.84975(8) 0.0156(3) Uani 1 1 d . . . . .
O21 O 0.7783(3) 0.45070(13) 0.81058(8) 0.0173(3) Uani 1 1 d . . . . .
O22 O 0.6438(4) 0.66332(14) 0.80250(9) 0.0312(4) Uani 1 1 d . . . . .
O31 O 0.4029(3) 0.40234(13) 0.70540(8) 0.0158(3) Uani 1 1 d . . . . .
O32 O 0.0005(3) 0.36733(13) 0.66044(7) 0.0152(3) Uani 1 1 d . . . . .
C11 C 1.2143(4) 0.15913(17) 0.85690(11) 0.0127(4) Uani 1 1 d . . . . .
C12 C 1.1085(4) 0.07523(17) 0.93009(11) 0.0117(4) Uani 1 1 d . . . . .
C13 C 1.1993(4) 0.09458(17) 0.99795(11) 0.0122(4) Uani 1 1 d . . . . .
C14 C 1.0931(4) 0.02306(18) 1.06574(11) 0.0130(4) Uani 1 1 d . . . . .
C21 C 0.6710(4) 0.55032(19) 0.83824(11) 0.0162(4) Uani 1 1 d . . . . .
C22 C 0.5817(4) 0.52367(18) 0.92133(11) 0.0147(4) Uani 1 1 d . . . . .
C23 C 0.7237(4) 0.43303(17) 0.97126(11) 0.0145(4) Uani 1 1 d . . . . .
C24 C 0.6455(4) 0.41030(18) 1.04730(11) 0.0153(4) Uani 1 1 d . . . . .
C31 C 0.2506(4) 0.40347(17) 0.65274(11) 0.0124(4) Uani 1 1 d . . . . .
C32 C 0.3778(4) 0.45332(18) 0.57412(11) 0.0142(4) Uani 1 1 d . . . . .
C33 C 0.3115(4) 0.39749(19) 0.51324(11) 0.0162(4) Uani 1 1 d . . . . .
C34 C 0.4287(4) 0.44233(19) 0.44129(11) 0.0152(4) Uani 1 1 d . . . . .
O1W O 0.3759(3) -0.07998(14) 0.77842(10) 0.0266(4) Uani 1 1 d D . . . .
H11W H 0.255(4) -0.117(2) 0.7562(13) 0.032 Uiso 1 1 d D U . . .
H12W H 0.488(4) -0.1435(17) 0.7959(13) 0.032 Uiso 1 1 d D U . . .
O2W O 0.7613(3) 0.03920(15) 0.57638(9) 0.0261(3) Uani 1 1 d D . . . .
H21W H 0.922(3) -0.002(2) 0.5789(12) 0.031 Uiso 1 1 d D U . . .
H22W H 0.756(4) 0.078(2) 0.5303(7) 0.031 Uiso 1 1 d D U . . .
O3W O 0.7399(3) 0.10806(16) 0.42321(9) 0.0302(4) Uani 1 1 d D . . . .
H31W H 0.587(3) 0.069(2) 0.4185(13) 0.036 Uiso 1 1 d D U . . .
H32W H 0.772(5) 0.1708(19) 0.3853(10) 0.036 Uiso 1 1 d D U . . .
O4W O 0.8628(3) 0.28905(17) 0.29567(10) 0.0365(4) Uani 1 1 d D . . . .
H41W H 0.741(3) 0.343(2) 0.2749(14) 0.044 Uiso 1 1 d D U . . .
H42W H 1.022(3) 0.305(2) 0.2701(13) 0.044 Uiso 1 1 d D U . . .
loop_
_atom_site_aniso_label
_atom_site_aniso_U_11
_atom_site_aniso_U_22
_atom_site_aniso_U_33
_atom_site_aniso_U_23
_atom_site_aniso_U_13
_atom_site_aniso_U_12
Sc1 0.01000(17) 0.01288(17) 0.00821(19) 0.00043(13) 0.00122(13) -0.00226(13)
F11 0.0189(6) 0.0185(5) 0.0181(6) 0.0012(5) -0.0018(5) -0.0120(5)
F12 0.0236(6) 0.0208(6) 0.0116(6) -0.0010(5) -0.0035(5) -0.0076(5)
F21 0.0202(6) 0.0229(6) 0.0183(7) -0.0052(5) 0.0025(5) 0.0057(5)
F22 0.0244(6) 0.0236(6) 0.0175(7) 0.0013(5) -0.0017(5) 0.0074(5)
F31 0.0321(7) 0.0287(6) 0.0182(7) -0.0033(5) 0.0065(5) -0.0209(5)
F32 0.0271(6) 0.0262(6) 0.0131(6) -0.0036(5) 0.0002(5) -0.0109(5)
O1M 0.0294(8) 0.0212(7) 0.0156(8) -0.0066(6) 0.0054(6) -0.0100(6)
O11 0.0135(6) 0.0180(6) 0.0126(7) 0.0034(5) -0.0012(5) 0.0002(5)
O12 0.0123(6) 0.0195(7) 0.0131(7) 0.0019(5) 0.0020(5) -0.0033(5)
O21 0.0199(7) 0.0184(7) 0.0143(8) -0.0059(6) 0.0010(6) -0.0015(6)
O22 0.0477(10) 0.0201(7) 0.0198(9) 0.0043(6) 0.0117(8) 0.0072(7)
O31 0.0140(6) 0.0203(7) 0.0113(7) 0.0026(5) -0.0007(5) -0.0013(5)
O32 0.0118(6) 0.0209(7) 0.0113(7) 0.0009(5) 0.0021(5) -0.0033(5)
C11 0.0128(9) 0.0109(8) 0.0130(10) -0.0002(7) 0.0027(7) 0.0008(7)
C12 0.0096(8) 0.0116(8) 0.0116(10) 0.0027(7) 0.0026(7) 0.0005(7)
C13 0.0089(8) 0.0102(8) 0.0166(10) -0.0002(7) 0.0005(7) -0.0034(7)
C14 0.0123(9) 0.0149(9) 0.0114(10) -0.0014(7) -0.0012(7) -0.0002(7)
C21 0.0165(9) 0.0175(9) 0.0145(10) -0.0035(8) 0.0004(8) -0.0025(7)
C22 0.0190(9) 0.0115(8) 0.0139(10) -0.0032(7) 0.0006(8) -0.0050(7)
C23 0.0134(9) 0.0117(8) 0.0186(11) -0.0051(7) 0.0026(8) -0.0015(7)
C24 0.0172(9) 0.0114(8) 0.0168(11) -0.0012(7) -0.0017(8) -0.0005(7)
C31 0.0125(9) 0.0118(8) 0.0117(10) 0.0003(7) 0.0011(7) 0.0012(7)
C32 0.0124(9) 0.0174(9) 0.0111(10) 0.0015(7) 0.0012(7) 0.0002(7)
C33 0.0129(9) 0.0178(9) 0.0166(11) 0.0007(8) 0.0005(8) -0.0058(7)
C34 0.0143(9) 0.0188(9) 0.0125(10) -0.0022(8) -0.0007(8) -0.0018(7)
O1W 0.0270(8) 0.0176(7) 0.0349(10) -0.0015(7) -0.0062(7) -0.0037(6)
O2W 0.0307(8) 0.0299(8) 0.0171(8) -0.0045(7) 0.0030(7) -0.0024(7)
O3W 0.0316(9) 0.0324(9) 0.0236(9) 0.0060(7) -0.0045(7) -0.0075(7)
O4W 0.0250(9) 0.0436(10) 0.0339(11) 0.0137(8) -0.0005(8) -0.0041(8)
loop_
_atom_type_symbol
_atom_type_description
_atom_type_scat_dispersion_real
_atom_type_scat_dispersion_imag
_atom_type_scat_source
C C 0.0033 0.0016 'International Tables Vol C Tables 4.2.6.8 and 6.1.1.4'
H H 0.0000 0.0000 'International Tables Vol C Tables 4.2.6.8 and 6.1.1.4'
O O 0.0106 0.0060 'International Tables Vol C Tables 4.2.6.8 and 6.1.1.4'
F F 0.0171 0.0103 'International Tables Vol C Tables 4.2.6.8 and 6.1.1.4'
Sc Sc 0.2519 0.3716 'International Tables Vol C Tables 4.2.6.8 and 6.1.1.4'
loop_
_geom_angle_atom_site_label_1
_geom_angle_atom_site_label_2
_geom_angle_atom_site_label_3
_geom_angle
_geom_angle_site_symmetry_1
_geom_angle_site_symmetry_3
_geom_angle_publ_flag
O1M Sc1 O12 86.01(6) . 1_455 yes
O1M Sc1 O32 87.45(5) . 1_655 yes
O11 Sc1 O1M 91.65(6) . . yes
O11 Sc1 O12 86.02(5) . 1_455 yes
O11 Sc1 O31 179.46(6) . . yes
O11 Sc1 O32 91.58(5) . 1_655 yes
O12 Sc1 O32 172.96(5) 1_455 1_655 yes
O21 Sc1 O1M 174.76(6) . . yes
O21 Sc1 O11 92.57(5) . . yes
O21 Sc1 O12 91.20(5) . 1_455 yes
O21 Sc1 O31 87.89(5) . . yes
O21 Sc1 O32 95.52(5) . 1_655 yes
O31 Sc1 O1M 87.90(6) . . yes
O31 Sc1 O12 94.26(5) . 1_455 yes
O31 Sc1 O32 88.10(5) . 1_655 yes
Sc1 O1M H11M 130.8(14) . . ?
Sc1 O1M H12M 120.7(14) . . ?
H11M O1M H12M 107.3(14) . . ?
C11 O11 Sc1 154.14(13) . . ?
C11 O12 Sc1 133.39(13) . 1_655 ?
C21 O21 Sc1 148.79(13) . . ?
C31 O31 Sc1 141.84(12) . . ?
C31 O32 Sc1 131.83(13) . 1_455 ?
O11 C11 C12 117.74(16) . . ?
O12 C11 O11 124.56(17) . . ?
O12 C11 C12 117.70(17) . . ?
C13 C12 C11 121.85(16) . . ?
C13 C12 C14 116.07(17) . 2_757 ?
C14 C12 C11 122.05(17) 2_757 . ?
F11 C13 C12 120.58(16) . . ?
F11 C13 C14 117.05(16) . . ?
C14 C13 C12 122.34(16) . . ?
F12 C14 C12 120.80(17) . 2_757 ?
F12 C14 C13 117.60(15) . . ?
C13 C14 C12 121.58(17) . 2_757 ?
O21 C21 C22 115.79(17) . . ?
O22 C21 O21 124.45(19) . . ?
O22 C21 C22 119.73(17) . . ?
C23 C22 C21 122.14(17) . . ?
C24 C22 C21 121.96(18) 2_667 . ?
C24 C22 C23 115.89(18) 2_667 . ?
F21 C23 C22 120.55(17) . . ?
F21 C23 C24 117.21(17) . . ?
C24 C23 C22 122.22(17) . . ?
F22 C24 C22 120.39(18) . 2_667 ?
F22 C24 C23 117.70(17) . . ?
C23 C24 C22 121.89(18) . 2_667 ?
O31 C31 C32 117.50(16) . . ?
O32 C31 O31 125.12(18) . . ?
O32 C31 C32 117.37(17) . . ?
C33 C32 C31 121.93(16) . . ?
C33 C32 C34 116.32(18) . 2_666 ?
C34 C32 C31 121.74(17) 2_666 . ?
F31 C33 C32 120.53(17) . . ?
F31 C33 C34 117.37(17) . . ?
C34 C33 C32 122.09(17) . . ?
F32 C34 C32 120.64(17) . 2_666 ?
F32 C34 C33 117.76(16) . . ?
C33 C34 C32 121.59(17) . 2_666 ?
H11W O1W H12W 106.4(13) . . ?
H21W O2W H22W 106.5(14) . . ?
H31W O3W H32W 108.5(14) . . ?
H41W O4W H42W 108.2(15) . . ?
loop_
_geom_bond_atom_site_label_1
_geom_bond_atom_site_label_2
_geom_bond_distance
_geom_bond_site_symmetry_2
_geom_bond_publ_flag
Sc1 O1M 2.1026(14) . yes
Sc1 O11 2.0431(13) . yes
Sc1 O12 2.1199(13) 1_455 yes
Sc1 O21 2.0171(13) . yes
Sc1 O31 2.0916(13) . yes
Sc1 O32 2.1282(13) 1_655 yes
F11 C13 1.3411(19) . ?
F12 C14 1.337(2) . ?
F21 C23 1.344(2) . ?
F22 C24 1.343(2) . ?
F31 C33 1.339(2) . ?
F32 C34 1.338(2) . ?
O1M H11M 0.850(9) . ?
O1M H12M 0.855(9) . ?
O11 C11 1.253(2) . ?
O12 C11 1.248(2) . ?
O21 C21 1.272(2) . ?
O22 C21 1.224(2) . ?
O31 C31 1.255(2) . ?
O32 C31 1.251(2) . ?
C11 C12 1.502(3) . ?
C12 C13 1.389(3) . ?
C12 C14 1.391(2) 2_757 ?
C13 C14 1.377(3) . ?
C21 C22 1.508(3) . ?
C22 C23 1.389(3) . ?
C22 C24 1.388(3) 2_667 ?
C23 C24 1.377(3) . ?
C31 C32 1.507(3) . ?
C32 C33 1.386(3) . ?
C32 C34 1.397(3) 2_666 ?
C33 C34 1.378(3) . ?
O1W H11W 0.861(9) . ?
O1W H12W 0.865(9) . ?
O2W H21W 0.865(9) . ?
O2W H22W 0.866(9) . ?
O3W H31W 0.857(9) . ?
O3W H32W 0.859(9) . ?
O4W H41W 0.856(9) . ?
O4W H42W 0.861(10) . ?
