#------------------------------------------------------------------------------
#$Date: 2022-02-01 01:37:57 +0200 (Tue, 01 Feb 2022) $
#$Revision: 272360 $
#$URL: file:///home/coder/svn-repositories/cod/cif/7/24/43/7244324.cif $
#------------------------------------------------------------------------------
#
# This file is available in the Crystallography Open Database (COD),
# http://www.crystallography.net/
#
# All data on this site have been placed in the public domain by the
# contributors.
#
data_7244324
loop_
_publ_author_name
'Zhang, Xiaopeng'
'Hou, Tianyang'
'Lin, Qiuhan'
'Wang, Pengcheng'
'Li, Dongxue'
'Xu, Yuangang'
'Lu, Ming'
_publ_section_title
;
 Fascinating 3D energetic [Ag2(N5)2(EDA)]n: filling the ethylenediamine
 molecules into [Ag(N5)]n framework
;
_journal_name_full               CrystEngComm
_journal_paper_doi               10.1039/D2CE00086E
_journal_year                    2022
_chemical_formula_moiety         '0.5(Ag6 N40), Ag H6 N2'
_chemical_formula_sum            'Ag4 H6 N22'
_chemical_formula_weight         745.75
_space_group_crystal_system      monoclinic
_space_group_IT_number           14
_space_group_name_Hall           '-P 2ybc'
_space_group_name_H-M_alt        'P 1 21/c 1'
_atom_sites_solution_hydrogens   geom
_atom_sites_solution_primary     dual
_audit_creation_date             2018-12-13
_audit_creation_method
;
Olex2 1.2
(compiled 2018.05.29 svn.r3508 for OlexSys, GUI svn.r5506)
;
_cell_angle_alpha                90
_cell_angle_beta                 108.847(4)
_cell_angle_gamma                90
_cell_formula_units_Z            2
_cell_length_a                   9.0932(18)
_cell_length_b                   9.1069(17)
_cell_length_c                   9.8502(19)
_cell_measurement_reflns_used    2704
_cell_measurement_temperature    220
_cell_measurement_theta_max      22.259
_cell_measurement_theta_min      2.435
_cell_volume                     772.0(3)
_computing_cell_refinement       'SAINT v8.34A (Bruker, 2013)'
_computing_data_reduction        'SAINT v8.34A (Bruker, 2013)'
_computing_molecular_graphics    'Olex2 (Dolomanov et al., 2009)'
_computing_publication_material  'Olex2 (Dolomanov et al., 2009)'
_computing_structure_refinement  'ShelXL (Sheldrick, 2015)'
_computing_structure_solution    'ShelXT (Sheldrick, 2015)'
_diffrn_ambient_temperature      220
_diffrn_measured_fraction_theta_full 0.999
_diffrn_measured_fraction_theta_max 0.995
_diffrn_measurement_device_type  'Bruker APEX-II CCD'
_diffrn_measurement_method       '\f and \w scans'
_diffrn_radiation_type           MoK\a
_diffrn_radiation_wavelength     0.71073
_diffrn_reflns_av_R_equivalents  0.0828
_diffrn_reflns_av_unetI/netI     0.0781
_diffrn_reflns_Laue_measured_fraction_full 0.999
_diffrn_reflns_Laue_measured_fraction_max 0.995
_diffrn_reflns_limit_h_max       11
_diffrn_reflns_limit_h_min       -11
_diffrn_reflns_limit_k_max       11
_diffrn_reflns_limit_k_min       -11
_diffrn_reflns_limit_l_max       12
_diffrn_reflns_limit_l_min       -12
_diffrn_reflns_number            6195
_diffrn_reflns_point_group_measured_fraction_full 0.999
_diffrn_reflns_point_group_measured_fraction_max 0.995
_diffrn_reflns_theta_full        25.242
_diffrn_reflns_theta_max         27.175
_diffrn_reflns_theta_min         2.367
_diffrn_standards_number         0
_exptl_absorpt_coefficient_mu    5.046
_exptl_absorpt_correction_T_max  0.7455
_exptl_absorpt_correction_T_min  0.6874
_exptl_absorpt_correction_type   multi-scan
_exptl_absorpt_process_details
'SADABS-2014/5 (Bruker,2014/5) was used for absorption correction. wR2(int) was 0.0746 before and 0.0561 after correction. The Ratio of minimum to maximum transmission is 0.9221. The \l/2 correction factor is 0.00150.'
_exptl_crystal_colour            colourless
_exptl_crystal_colour_primary    colourless
_exptl_crystal_density_diffrn    3.208
_exptl_crystal_description       plate
_exptl_crystal_F_000             696
_exptl_crystal_size_max          0.12
_exptl_crystal_size_mid          0.06
_exptl_crystal_size_min          0.03
_refine_diff_density_max         0.946
_refine_diff_density_min         -0.861
_refine_diff_density_rms         0.212
_refine_ls_extinction_method     none
_refine_ls_goodness_of_fit_ref   0.971
_refine_ls_hydrogen_treatment    constr
_refine_ls_matrix_type           full
_refine_ls_number_parameters     122
_refine_ls_number_reflns         1710
_refine_ls_number_restraints     0
_refine_ls_restrained_S_all      0.971
_refine_ls_R_factor_all          0.1100
_refine_ls_R_factor_gt           0.0415
_refine_ls_shift/su_max          0.000
_refine_ls_shift/su_mean         0.000
_refine_ls_structure_factor_coef Fsqd
_refine_ls_weighting_details
'w=1/[\s^2^(Fo^2^)+(0.0227P)^2^] where P=(Fo^2^+2Fc^2^)/3'
_refine_ls_weighting_scheme      calc
_refine_ls_wR_factor_gt          0.0654
_refine_ls_wR_factor_ref         0.0840
_reflns_Friedel_coverage         0.000
_reflns_number_gt                857
_reflns_number_total             1710
_reflns_threshold_expression     'I > 2\s(I)'
_iucr_refine_instructions_details
;
TITL mo_20181178-NLG-X-312_0m in C2/c
    mo_20181178-nlg-x-312_0m.res
    created by SHELXL-2018/3 at 17:21:20 on 13-Dec-2018
CELL 0.71073 9.0932 9.1069 9.8502 90 108.8469 90
ZERR 2 0.0018 0.0017 0.0019 0 0.0042 0
LATT 1
SYMM -X,0.5+Y,0.5-Z
SFAC Ag H N
UNIT 8 12 44
EQIV $1 1+X,+Y,+Z
EQIV $2 1-X,1-Y,1-Z
EQIV $3 +X,1.5-Y,0.5+Z
EQIV $4 1-X,2-Y,1-Z
EQIV $5 1+X,1.5-Y,0.5+Z
EQIV $6 1-X,-0.5+Y,0.5-Z

L.S. 10
PLAN  20
SIZE 0.12 0.06 0.03
TEMP -53.15
HTAB N11 N2
HTAB N11 N8_$1
HTAB N11 N5_$2
HTAB N11 N3_$3
HTAB N11 N10_$4
BIND Ag1 N10_$5
BIND Ag1 N10_$6
BOND $H
htab
conf
fmap 2
acta
REM <olex2.extras>
REM <HklSrc "%.\\mo_20181178-NLG-X-312_0m.hkl">
REM </olex2.extras>

WGHT    0.022700
FVAR       0.09759
AG1   1    1.000000    0.500000    0.500000    10.50000    0.01826    0.02682 =
         0.03955    0.00464    0.00733   -0.00205
AG3   1    0.500000    1.000000    0.500000    10.50000    0.03520    0.03274 =
         0.03145   -0.00151    0.01482    0.00056
AG2   1    0.255649    0.669688    0.250369    11.00000    0.02053    0.01714 =
         0.06183    0.00491    0.01949    0.00202
N1    3    0.487144    0.538317    0.341553    11.00000    0.02010    0.02088 =
         0.03253    0.00167    0.01435    0.00333
N2    3    0.626056    0.587889    0.408614    11.00000    0.01713    0.01848 =
         0.03798    0.00072    0.01158    0.00313
N3    3    0.724815    0.480692    0.417639    11.00000    0.02237    0.02108 =
         0.03168   -0.00522    0.01068    0.00308
N4    3    0.646914    0.363188    0.353999    11.00000    0.00932    0.02343 =
         0.04230    0.00228    0.01071    0.00322
N5    3    0.495605    0.397877    0.304986    11.00000    0.02293    0.02019 =
         0.04332    0.00608    0.01144   -0.00528
N6    3    0.074711    0.801112    0.324981    11.00000    0.01451    0.02041 =
         0.04010    0.00587    0.01026    0.00194
N7    3    0.001654    0.759486    0.415412    11.00000    0.03522    0.01697 =
         0.03326    0.01073    0.01732    0.00805
N8    3   -0.107716    0.857420    0.408851    11.00000    0.02849    0.01767 =
         0.04615    0.00815    0.01899    0.00016
N9    3   -0.100701    0.959153    0.317037    11.00000    0.01304    0.02655 =
         0.03679   -0.00475    0.01188    0.00450
N10   3    0.013851    0.925901    0.267831    11.00000    0.02003    0.01746 =
         0.03725    0.00299    0.01534   -0.00067
N11   3    0.686185    0.859489    0.603139    11.00000    0.03127    0.02092 =
         0.03836   -0.00408    0.01872   -0.01086
AFIX 137
H11A  2    0.716977    0.811875    0.536911    11.00000   -1.20000
H11B  2    0.655417    0.793812    0.656721    11.00000   -1.20000
H11C  2    0.765825    0.912661    0.659913    11.00000   -1.20000
AFIX   0
HKLF 4




REM  mo_20181178-NLG-X-312_0m in C2/c
REM wR2 = 0.0840, GooF = S = 0.971, Restrained GooF = 0.971 for all data
REM R1 = 0.0415 for 857 Fo > 4sig(Fo) and 0.1100 for all 1710 data
REM 122 parameters refined using 0 restraints

END  
     
WGHT      0.0227      0.0000 

REM Instructions for potential hydrogen bonds
HTAB N11 N2
HTAB N11 N8_$1
HTAB N11 N5_$2
HTAB N11 N10_$4

REM Highest difference peak  0.946,  deepest hole -0.861,  1-sigma level  0.212
Q1    1   0.6749  0.9429  0.5262  11.00000  0.05    0.95
Q2    1   0.8759  0.6653  0.5307  11.00000  0.05    0.86
Q3    1   0.8565  0.5701  0.3973  11.00000  0.05    0.78
Q4    1   0.0368  1.1139  0.2540  11.00000  0.05    0.77
Q5    1   0.6177  0.9004  0.7008  11.00000  0.05    0.76
Q6    1   0.6564  0.8319  0.4557  11.00000  0.05    0.76
Q7    1   0.6172  0.8351  0.4711  11.00000  0.05    0.75
Q8    1   0.8861  0.9015  0.8134  11.00000  0.05    0.73
Q9    1   0.6830  1.0202  0.6962  11.00000  0.05    0.69
Q10   1   0.5127  0.5516  0.4348  11.00000  0.05    0.66
Q11   1   0.4269  0.6429  0.2796  11.00000  0.05    0.66
Q12   1   0.9054  0.6061  0.4794  11.00000  0.05    0.64
Q13   1   0.8136  1.0203  0.7962  11.00000  0.05    0.64
Q14   1   0.7818  0.8885  0.5192  11.00000  0.05    0.64
Q15   1   0.6256  0.3398  0.4233  11.00000  0.05    0.64
Q16   1  -0.1615  1.0654  0.2802  11.00000  0.05    0.62
Q17   1  -0.0633  0.6615  0.3811  11.00000  0.05    0.61
Q18   1   0.5416  0.7729  0.5393  11.00000  0.05    0.61
Q19   1   0.7460  0.2891  0.4318  11.00000  0.05    0.61
Q20   1   0.1007  0.8611  0.3996  11.00000  0.05    0.61

  REM The information below was added by Olex2.
  REM
  REM R1 = 0.0415 for 857 Fo > 4sig(Fo) and 0.1100 for all 6413 data
  REM n/a parameters refined using n/a restraints
  REM Highest difference peak 0.95, deepest hole -0.86
  REM Mean Shift 0, Max Shift 0.000.

  REM +++ Tabular Listing of Refinement Information +++
  REM R1_all = 0.1100
  REM R1_gt = 0.0415
  REM wR_ref = 0.0840
  REM GOOF = 0.971
  REM Shift_max = 0.000
  REM Shift_mean = 0
  REM Reflections_all = 6413
  REM Reflections_gt = 857
  REM Parameters = n/a
  REM Hole = -0.86
  REM Peak = 0.95
  REM Flack = n/a

  
;
_cod_data_source_file            d2ce00086e2.cif
_cod_data_source_block           mo_20181178-nlg-x-312_0m
_cod_database_code               7244324
_shelx_shelxl_version_number     2018/3
_shelx_space_group_comment
;
The symmetry employed for this shelxl refinement is uniquely defined
by the following loop, which should always be used as a source of
symmetry information in preference to the above space-group names.
They are only intended as comments.
;
_shelx_estimated_absorpt_t_max   0.863
_shelx_estimated_absorpt_t_min   0.583
_olex2_refinement_description
;
1. Fixed Uiso
 At 1.2 times of:
  All N(H,H,H) groups
2.a Idealised Me refined as rotating group:
 N11(H11A,H11B,H11C)
;
_olex2_submission_special_instructions 'No special instructions were received'
loop_
_space_group_symop_operation_xyz
'x, y, z'
'-x, y+1/2, -z+1/2'
'-x, -y, -z'
'x, -y-1/2, z-1/2'
loop_
_atom_site_label
_atom_site_type_symbol
_atom_site_fract_x
_atom_site_fract_y
_atom_site_fract_z
_atom_site_U_iso_or_equiv
_atom_site_adp_type
_atom_site_occupancy
_atom_site_site_symmetry_order
_atom_site_calc_flag
_atom_site_refinement_flags_posn
_atom_site_refinement_flags_adp
_atom_site_refinement_flags_occupancy
_atom_site_disorder_assembly
_atom_site_disorder_group
Ag1 Ag 1.000000 0.500000 0.500000 0.0287(3) Uani 1 2 d S T P . .
Ag3 Ag 0.500000 1.000000 0.500000 0.0322(3) Uani 1 2 d S T P . .
Ag2 Ag 0.25565(9) 0.66969(6) 0.25037(11) 0.0317(2) Uani 1 1 d . . . . .
N1 N 0.4871(8) 0.5383(7) 0.3416(8) 0.0231(17) Uani 1 1 d . . . . .
N2 N 0.6261(8) 0.5879(7) 0.4086(8) 0.0239(18) Uani 1 1 d . . . . .
N3 N 0.7248(8) 0.4807(7) 0.4176(8) 0.0246(17) Uani 1 1 d . . . . .
N4 N 0.6469(7) 0.3632(7) 0.3540(8) 0.0244(18) Uani 1 1 d . . . . .
N5 N 0.4956(9) 0.3979(8) 0.3050(9) 0.029(2) Uani 1 1 d . . . . .
N6 N 0.0747(8) 0.8011(7) 0.3250(8) 0.0247(18) Uani 1 1 d . . . . .
N7 N 0.0017(9) 0.7595(7) 0.4154(8) 0.0270(18) Uani 1 1 d . . . . .
N8 N -0.1077(8) 0.8574(7) 0.4089(9) 0.0291(19) Uani 1 1 d . . . . .
N9 N -0.1007(8) 0.9592(8) 0.3170(8) 0.0245(17) Uani 1 1 d . . . . .
N10 N 0.0139(8) 0.9259(7) 0.2678(9) 0.0234(19) Uani 1 1 d . . . . .
N11 N 0.6862(8) 0.8595(7) 0.6031(8) 0.0284(18) Uani 1 1 d . . . . .
H11A H 0.716977 0.811875 0.536911 0.034 Uiso 1 1 calc GR . . . .
H11B H 0.655417 0.793812 0.656721 0.034 Uiso 1 1 calc GR . . . .
H11C H 0.765825 0.912661 0.659913 0.034 Uiso 1 1 calc GR . . . .
loop_
_atom_site_aniso_label
_atom_site_aniso_U_11
_atom_site_aniso_U_22
_atom_site_aniso_U_33
_atom_site_aniso_U_23
_atom_site_aniso_U_13
_atom_site_aniso_U_12
Ag1 0.0183(6) 0.0268(6) 0.0396(8) 0.0046(6) 0.0073(5) -0.0020(5)
Ag3 0.0352(7) 0.0327(7) 0.0315(7) -0.0015(6) 0.0148(6) 0.0006(5)
Ag2 0.0205(3) 0.0171(3) 0.0618(5) 0.0049(5) 0.0195(3) 0.0020(4)
N1 0.020(4) 0.021(4) 0.033(5) 0.002(3) 0.014(4) 0.003(3)
N2 0.017(4) 0.018(4) 0.038(5) 0.001(4) 0.012(4) 0.003(3)
N3 0.022(4) 0.021(4) 0.032(5) -0.005(4) 0.011(4) 0.003(3)
N4 0.009(4) 0.023(4) 0.042(5) 0.002(4) 0.011(4) 0.003(3)
N5 0.023(4) 0.020(4) 0.043(6) 0.006(4) 0.011(4) -0.005(3)
N6 0.015(4) 0.020(4) 0.040(5) 0.006(4) 0.010(4) 0.002(3)
N7 0.035(5) 0.017(4) 0.033(5) 0.011(4) 0.017(4) 0.008(3)
N8 0.028(4) 0.018(4) 0.046(5) 0.008(4) 0.019(4) 0.000(3)
N9 0.013(4) 0.027(4) 0.037(5) -0.005(4) 0.012(4) 0.004(3)
N10 0.020(4) 0.017(4) 0.037(5) 0.003(4) 0.015(4) -0.001(3)
N11 0.031(4) 0.021(4) 0.038(5) -0.004(4) 0.019(4) -0.011(3)
loop_
_atom_type_symbol
_atom_type_description
_atom_type_scat_dispersion_real
_atom_type_scat_dispersion_imag
_atom_type_scat_source
Ag Ag -0.8971 1.1015 'International Tables Vol C Tables 4.2.6.8 and 6.1.1.4'
H H 0.0000 0.0000 'International Tables Vol C Tables 4.2.6.8 and 6.1.1.4'
N N 0.0061 0.0033 'International Tables Vol C Tables 4.2.6.8 and 6.1.1.4'
loop_
_geom_angle_atom_site_label_1
_geom_angle_atom_site_label_2
_geom_angle_atom_site_label_3
_geom_angle
_geom_angle_site_symmetry_1
_geom_angle_site_symmetry_3
_geom_angle_publ_flag
N3 Ag1 N3 180.0 . 3_766 ?
N3 Ag1 N7 85.7(2) 3_766 1_655 ?
N3 Ag1 N7 94.3(2) . 1_655 ?
N3 Ag1 N7 94.3(2) 3_766 3_666 ?
N3 Ag1 N7 85.7(2) . 3_666 ?
N3 Ag1 N10 86.3(2) . 2_645 ?
N3 Ag1 N10 86.3(2) 3_766 4_676 ?
N3 Ag1 N10 93.7(2) 3_766 2_645 ?
N3 Ag1 N10 93.7(2) . 4_676 ?
N7 Ag1 N7 180.0 3_666 1_655 ?
N7 Ag1 N10 85.1(2) 3_666 4_676 ?
N7 Ag1 N10 94.9(2) 1_655 4_676 ?
N7 Ag1 N10 94.9(2) 3_666 2_645 ?
N7 Ag1 N10 85.1(2) 1_655 2_645 ?
N10 Ag1 N10 180.0 2_645 4_676 ?
N11 Ag3 N11 180.0 3_676 . ?
N1 Ag2 N4 97.6(2) . 2_655 ?
N1 Ag2 N6 141.3(3) . . ?
N1 Ag2 N9 94.3(3) . 2_545 ?
N6 Ag2 N4 99.0(2) . 2_655 ?
N6 Ag2 N9 95.1(2) . 2_545 ?
N9 Ag2 N4 139.9(3) 2_545 2_655 ?
N2 N1 Ag2 128.6(5) . . ?
N2 N1 N5 109.7(6) . . ?
N5 N1 Ag2 120.6(6) . . ?
N1 N2 N3 107.9(6) . . ?
N2 N3 Ag1 126.3(5) . . ?
N2 N3 N4 108.7(7) . . ?
N4 N3 Ag1 124.4(5) . . ?
N3 N4 Ag2 126.4(5) . 2_645 ?
N3 N4 N5 108.1(6) . . ?
N5 N4 Ag2 120.4(6) . 2_645 ?
N1 N5 N4 105.7(7) . . ?
N7 N6 Ag2 128.4(5) . . ?
N10 N6 Ag2 123.5(6) . . ?
N10 N6 N7 107.6(7) . . ?
N6 N7 Ag1 123.4(5) . 1_455 ?
N8 N7 Ag1 124.5(5) . 1_455 ?
N8 N7 N6 107.8(6) . . ?
N9 N8 N7 107.9(7) . . ?
N8 N9 Ag2 127.9(5) . 2 ?
N8 N9 N10 108.2(7) . . ?
N10 N9 Ag2 123.9(6) . 2 ?
N6 N10 N9 108.4(7) . . ?
Ag3 N11 H11A 109.5 . . ?
Ag3 N11 H11B 109.5 . . ?
Ag3 N11 H11C 109.5 . . ?
H11A N11 H11B 109.5 . . ?
H11A N11 H11C 109.5 . . ?
H11B N11 H11C 109.5 . . ?
loop_
_geom_bond_atom_site_label_1
_geom_bond_atom_site_label_2
_geom_bond_distance
_geom_bond_site_symmetry_2
_geom_bond_publ_flag
Ag1 N3 2.375(7) . ?
Ag1 N3 2.375(7) 3_766 ?
Ag1 N7 2.507(6) 3_666 ?
Ag1 N7 2.507(6) 1_655 ?
Ag1 N10 2.686(8) 2_645 ?
Ag1 N10 2.686(8) 4_676 ?
Ag3 N11 2.103(7) 3_676 ?
Ag3 N11 2.103(7) . ?
Ag2 N1 2.334(7) . ?
Ag2 N4 2.353(7) 2_655 ?
Ag2 N6 2.337(7) . ?
Ag2 N9 2.345(7) 2_545 ?
N1 N2 1.303(9) . ?
N1 N5 1.338(9) . ?
N2 N3 1.310(8) . ?
N3 N4 1.324(9) . ?
N4 N5 1.340(9) . ?
N6 N7 1.327(9) . ?
N6 N10 1.309(9) . ?
N7 N8 1.322(9) . ?
N8 N9 1.311(9) . ?
N9 N10 1.318(9) . ?
N11 H11A 0.9000 . ?
N11 H11B 0.9000 . ?
N11 H11C 0.9000 . ?
loop_
_geom_hbond_atom_site_label_D
_geom_hbond_atom_site_label_H
_geom_hbond_atom_site_label_A
_geom_hbond_distance_DH
_geom_hbond_distance_HA
_geom_hbond_distance_DA
_geom_hbond_angle_DHA
_geom_hbond_site_symmetry_A
_geom_hbond_publ_flag
N11 H11A N2 0.90 2.40 3.068(10) 131.0 . yes
N11 H11A N8 0.90 2.37 3.081(10) 136.3 1_655 yes
N11 H11B N5 0.90 2.33 3.164(9) 154.9 3_666 yes
N11 H11C N3 0.90 2.85 3.337(10) 115.2 4_576 yes
N11 H11C N10 0.90 2.40 3.261(10) 160.2 3_676 yes
loop_
_geom_torsion_atom_site_label_1
_geom_torsion_atom_site_label_2
_geom_torsion_atom_site_label_3
_geom_torsion_atom_site_label_4
_geom_torsion
_geom_torsion_site_symmetry_1
_geom_torsion_site_symmetry_2
_geom_torsion_site_symmetry_3
_geom_torsion_site_symmetry_4
_geom_torsion_publ_flag
Ag1 N3 N4 Ag2 -17.3(10) . . . 2_645 ?
Ag1 N3 N4 N5 -171.7(5) . . . . ?
Ag1 N7 N8 N9 -158.3(5) 1_455 . . . ?
Ag2 N1 N2 N3 -168.9(5) . . . . ?
Ag2 N1 N5 N4 169.7(5) . . . . ?
Ag2 N4 N5 N1 -156.2(5) 2_645 . . . ?
Ag2 N6 N7 Ag1 -12.3(10) . . . 1_455 ?
Ag2 N6 N7 N8 -170.1(6) . . . . ?
Ag2 N6 N10 N9 170.0(5) . . . . ?
Ag2 N9 N10 N6 -179.1(5) 2 . . . ?
N1 N2 N3 Ag1 171.8(5) . . . . ?
N1 N2 N3 N4 0.7(10) . . . . ?
N2 N1 N5 N4 0.5(10) . . . . ?
N2 N3 N4 Ag2 154.0(6) . . . 2_645 ?
N2 N3 N4 N5 -0.4(10) . . . . ?
N3 N4 N5 N1 0.0(9) . . . . ?
N5 N1 N2 N3 -0.7(10) . . . . ?
N6 N7 N8 N9 -0.9(9) . . . . ?
N7 N6 N10 N9 -2.7(9) . . . . ?
N7 N8 N9 Ag2 -179.5(6) . . . 2 ?
N7 N8 N9 N10 -0.8(9) . . . . ?
N8 N9 N10 N6 2.2(9) . . . . ?
N10 N6 N7 Ag1 159.9(5) . . . 1_455 ?
N10 N6 N7 N8 2.2(9) . . . . ?
loop_
_refln_index_h
_refln_index_k
_refln_index_l
_refln_F_squared_meas
_refln_F_squared_sigma
-1 0 0 0.41 0.45
-1 0 0 0.54 0.34
-1 0 0 0.78 0.38
1 0 0 0.31 0.41
1 0 0 1.23 0.38
-2 0 0 41.06 1.96
-2 0 0 43.88 2.28
-2 0 0 41.93 1.99
-3 0 0 45.86 2.36
-3 0 0 45.59 2.37
-3 0 0 48.87 2.76
-4 0 0 653.99 14.93
-5 0 0 37.14 3.51
-5 0 0 33.97 2.63
-6 0 0 3.98 1.64
-6 0 0 4.65 1.49
-7 0 0 1.41 1.32
-8 0 0 238.27 10.38
-9 0 0 3.05 2.51
-10 0 0 -0.88 2.37
-11 0 0 13.44 4.38
-11 1 0 19.79 4.93
-10 1 0 6.01 3.09
-9 1 0 24.89 4.31
-8 1 0 3.51 2.39
-7 1 0 45.41 4.78
-6 1 0 -0.44 1.14
-6 1 0 1.43 1.23
-5 1 0 118.12 5.58
-5 1 0 111.5 5.02
-4 1 0 3.84 1.28
-4 1 0 4.24 1.47
-3 1 0 139.46 4.69
-3 1 0 143.06 4.98
-2 1 0 1.57 0.95
-2 1 0 -1.48 0.58
1 -1 0 165.5 3.34
-1 1 0 155.64 4.18
-1 1 0 165.01 3.95
0 -1 0 0.06 0.32
0 -1 0 -0.27 0.28
0 -1 0 0.2 0.31
0 1 0 -0.18 0.31
0 1 0 -0.23 0.35
1 1 0 161.07 3.92
1 1 0 158.55 3.48
-2 -1 0 -0.05 0.65
-2 -1 0 -0.58 0.71
-4 -1 0 5.7 1.57
-4 -1 0 3.07 1.2
-5 -1 0 106.58 5.33
-5 -1 0 109 4.85
-6 -1 0 -0.44 1.14
-6 -1 0 -0.08 1.04
-7 -1 0 32.54 3.76
-7 -1 0 41.11 4.53
-8 -1 0 3.97 2.29
-9 -1 0 22.95 4.35
-10 -1 0 10.95 3.55
-10 2 0 48.67 6.21
-9 2 0 1.86 2.36
-8 2 0 11.55 2.85
-8 2 0 11.4 3.08
-7 2 0 0.41 1.64
-7 2 0 -0.65 1.68
-6 2 0 167.12 7.05
-6 2 0 182.94 7.69
-5 2 0 -0.39 1.18
-5 2 0 2.63 1.41
-4 2 0 45.68 3.37
-4 2 0 48.32 3.15
-3 2 0 0.6 1.06
-3 2 0 10.78 1.62
2 -2 0 503.71 9.59
-2 2 0 482.23 11.54
-2 2 0 505.84 10.9
1 -2 0 16.78 1.03
-1 2 0 13.9 1.58
0 -2 0 120.05 3.2
0 2 0 125 3.41
0 2 0 117.39 3.57
-1 -2 0 18.74 1.64
1 2 0 18.63 1.29
1 2 0 17.29 1.63
2 2 0 493.33 9.75
2 2 0 477.2 10.6
-3 -2 0 10.97 1.64
3 2 0 9.82 1.39
3 2 0 12.11 1.71
-4 -2 0 41.81 2.95
4 2 0 38.32 2.64
-5 -2 0 -0.44 0.88
-5 -2 0 0.78 1.11
-7 -2 0 -0.08 1.44
-7 -2 0 1.65 1.67
-8 -2 0 16.55 3.15
10 2 0 51.11 6.37
-10 3 0 -3.34 2.15
-9 3 0 -0.53 1.86
-9 3 0 1.42 2.57
-8 3 0 -1.14 1.81
-8 3 0 0.15 1.96
-7 3 0 2.48 1.75
-7 3 0 2.83 1.87
-6 3 0 2.17 1.71
-6 3 0 1.28 1.46
-5 3 0 1.46 1.52
-5 3 0 2.88 1.47
4 -3 0 2.43 0.81
-4 3 0 2.31 1.22
-4 3 0 0.07 1.2
3 -3 0 6.8 1.03
-3 3 0 6.4 1.54
-3 3 0 4.46 1.59
2 -3 0 2.31 0.66
-2 3 0 1.25 1.04
-2 3 0 -0.01 0.49
1 -3 0 10.95 1.11
-1 3 0 10.67 1.59
-1 3 0 7.06 1.41
0 -3 0 0.21 0.68
0 3 0 0.52 0.84
0 3 0 -0.19 0.82
-1 -3 0 11.62 1.52
1 3 0 11.49 1.55
1 3 0 13.01 1.39
-2 -3 0 1.19 0.96
2 3 0 2.85 0.87
2 3 0 2.49 1.12
3 3 0 5.84 1.46
3 3 0 5.16 1.04
-4 -3 0 2.24 1.17
4 3 0 1.48 0.97
4 3 0 2.44 0.99
-5 -3 0 1.69 1.19
5 3 0 0.19 0.71
5 3 0 0.46 1
-6 -3 0 1.96 1.47
6 3 0 0.86 1.2
6 3 0 0.79 1.23
-7 -3 0 4.46 2.05
7 3 0 2.83 1.83
7 3 0 5.4 1.95
-8 -3 0 0.82 1.71
8 3 0 0.75 2.01
8 3 0 -1.78 1.25
-9 -3 0 1.29 2.1
9 3 0 -2.53 1.79
10 3 0 1.45 2.59
-10 4 0 32.01 5.38
-10 4 0 35.99 5.26
-9 4 0 0.96 2.36
-9 4 0 3.3 2.48
-8 4 0 2.91 2.13
-8 4 0 5.86 2.69
-7 4 0 21.83 3.91
-6 4 0 85.43 5.72
-6 4 0 83.67 5.41
5 -4 0 2.88 1.18
-5 4 0 0.9 1.32
-5 4 0 5.02 2.05
4 -4 0 62.11 2.93
-4 4 0 60.23 4.43
-4 4 0 69.45 4.16
3 -4 0 0.94 0.66
-3 4 0 0.02 0.84
-3 4 0 0.25 1.38
2 -4 0 321.22 7.18
-2 4 0 316.03 8.78
-2 4 0 321.84 9.3
1 -4 0 14.68 1.51
-1 4 0 13.13 1.96
-1 4 0 11.62 1.79
0 -4 0 24.27 1.93
0 4 0 25.82 2.29
0 4 0 25.23 2.42
-1 -4 0 14.34 1.84
1 4 0 13.87 1.73
1 4 0 13.83 1.97
-2 -4 0 291.72 8.14
2 4 0 311.4 8.73
2 4 0 307.39 7.58
-3 -4 0 0.29 0.95
3 4 0 -0.21 0.91
3 4 0 -0.21 0.75
-4 -4 0 62.16 3.94
4 4 0 63.44 4.08
4 4 0 65.22 3.14
-5 -4 0 0.68 1.01
5 4 0 2.78 1.24
5 4 0 0.35 1.05
-6 -4 0 90.81 5.58
6 4 0 88.7 4.45
6 4 0 85.76 5.46
-7 -4 0 2.39 2.04
7 4 0 2.28 1.79
7 4 0 4.18 1.56
-8 -4 0 10.49 2.72
8 4 0 7.37 2.64
-9 -4 0 6.03 2.73
9 4 0 1.14 2.27
-10 -4 0 35.45 5.22
10 4 0 37.6 5.57
-10 5 0 0.43 2.96
-9 5 0 22.8 4.43
-9 5 0 14.32 3.87
-8 5 0 2.05 2.02
-7 5 0 36.97 4.92
-7 5 0 34.99 4.63
-6 5 0 -0.98 1.52
-6 5 0 -1.02 1.39
-5 5 0 30.04 4.04
4 -5 0 1.08 0.83
-4 5 0 1.23 1.22
-4 5 0 1.39 1.62
3 -5 0 45.89 2.33
-3 5 0 51.93 4.08
-3 5 0 48.4 3.44
2 -5 0 0.86 0.75
-2 5 0 0.23 1.1
-2 5 0 -0.58 1.14
1 -5 0 66.65 2.97
-1 5 0 71.04 4.28
-1 5 0 60.9 3.58
0 -5 0 0.68 0.88
0 5 0 -1.3 1.07
0 5 0 -0.96 0.82
-1 -5 0 67.47 3.6
1 5 0 70.31 4.09
1 5 0 70.13 3.45
-2 -5 0 0.29 1
2 5 0 1.99 1.04
2 5 0 0.59 1.11
-3 -5 0 48.46 3.52
3 5 0 54.78 3.89
3 5 0 49.03 2.93
-4 -5 0 -1.77 0.82
4 5 0 -1.04 1.13
4 5 0 1.04 0.97
-5 -5 0 37.52 4.07
5 5 0 28.92 2.75
5 5 0 29.84 3.6
-6 -5 0 -1.09 1.25
6 5 0 0.01 1.19
6 5 0 -1.15 1.18
-7 -5 0 39.85 4.82
7 5 0 32.45 4.45
-8 -5 0 -2.42 1.5
8 5 0 -2.05 1.76
-9 -5 0 15.29 3.81
9 5 0 11.12 3.33
-9 6 0 0.26 2.42
-9 6 0 -0.75 2.68
-8 6 0 57.48 6.49
-8 6 0 63.7 6.8
-7 6 0 7.15 2.8
-7 6 0 3.78 2.37
-6 6 0 5.61 2.1
-6 6 0 3.95 2.51
-5 6 0 9.42 2.43
-5 6 0 10.52 2.83
-4 6 0 194 8.14
-4 6 0 201.86 9.48
3 -6 0 0.71 0.78
-3 6 0 0.5 1.46
-3 6 0 0.38 1.23
2 -6 0 16.98 1.9
-2 6 0 14.14 2.43
-2 6 0 20.52 3.14
1 -6 0 0.33 0.89
-1 6 0 0.75 1.37
-1 6 0 1.62 1.24
0 -6 0 352.38 9.44
0 6 0 343.35 10.4
0 6 0 354.83 9.98
-1 -6 0 0.28 1.21
1 6 0 1.02 1.16
1 6 0 -0.36 1.16
-2 -6 0 18.61 2.57
2 6 0 16.26 2.15
2 6 0 13.45 2.47
-3 -6 0 0.72 1.28
3 6 0 0.37 1.12
3 6 0 1.28 1.09
-4 -6 0 206.04 8.3
4 6 0 187.22 8.13
4 6 0 193.76 6.52
-5 -6 0 5.49 2.21
5 6 0 9.9 2.57
5 6 0 6.38 1.62
-6 -6 0 5.4 2.3
6 6 0 5.64 2.2
-7 -6 0 3.32 2.23
7 6 0 4.8 2.46
-8 -6 0 61.14 6.65
8 6 0 62.46 6.71
-9 -6 0 -2.45 1.94
9 6 0 4.21 2.97
-8 7 0 2.32 2.25
-8 7 0 2.4 2.73
-7 7 0 27.33 4.31
-7 7 0 21.81 4.51
-6 7 0 1.17 1.91
-6 7 0 1.46 2.26
-5 7 0 42.46 5.2
-5 7 0 38.15 4.68
-4 7 0 1.1 1.51
-4 7 0 -0.66 1.8
-3 7 0 55.92 4.94
-3 7 0 57.09 5.49
2 -7 0 1.37 1.1
-2 7 0 6.14 1.95
-2 7 0 1.75 2.03
1 -7 0 75.6 3.91
-1 7 0 81.12 5.3
-1 7 0 79.67 4.77
0 -7 0 -1.43 1.03
0 7 0 -0.12 1.43
0 7 0 -0.76 1.02
-1 -7 0 71.86 4.15
1 7 0 72.38 4.97
1 7 0 79.76 4.38
-2 -7 0 2.97 1.59
2 7 0 0.82 2.28
2 7 0 2.14 1.53
-3 -7 0 54.65 4.93
3 7 0 47.53 4.76
3 7 0 54.04 3.56
-4 -7 0 -1.47 1.18
4 7 0 0.79 1.63
4 7 0 0.9 1.24
-5 -7 0 40.57 4.86
5 7 0 51.14 5.29
-6 -7 0 1.69 1.93
6 7 0 -0.76 2.08
-7 -7 0 21.2 4.21
7 7 0 21.98 4.17
-8 -7 0 0.11 2.27
8 7 0 -1.69 1.92
-8 8 0 0.87 2.59
-8 8 0 -1.58 2.89
-7 8 0 0.43 2.78
-7 8 0 -1.54 1.68
-6 8 0 63.96 7.14
-6 8 0 68.93 6.86
-5 8 0 -0.89 2.32
-5 8 0 1.26 2.06
-4 8 0 7.33 2.52
-4 8 0 3.83 2.88
-3 8 0 0.65 1.44
-3 8 0 -0.44 1.94
-2 8 0 87.72 6.33
-2 8 0 93.41 5.67
1 -8 0 -1.46 0.99
-1 8 0 0.45 1.37
-1 8 0 -3.69 1.63
0 -8 0 7.54 1.91
0 8 0 6.46 2.2
0 8 0 8.53 2.71
-1 -8 0 1.73 1.46
1 8 0 1.05 1.57
1 8 0 3.37 2.07
-2 -8 0 98.04 5.58
2 8 0 94.9 6.18
2 8 0 89.52 5.11
-3 -8 0 1.55 1.71
3 8 0 0.62 2.2
3 8 0 0.5 1.42
-4 -8 0 5.23 2.18
4 8 0 4.24 2.34
4 8 0 4.59 2.12
-5 -8 0 2.6 2.13
5 8 0 0.21 2.11
-6 -8 0 63.65 6.59
6 8 0 64.43 6.77
-7 -8 0 -1.48 1.79
7 8 0 0.81 2.56
-8 -8 0 5.75 3.27
8 8 0 4.14 3.02
-7 9 0 -0.94 3.1
-7 9 0 -1.03 1.82
-6 9 0 1.46 2.97
-6 9 0 3.6 2.64
-5 9 0 2.16 2.18
-5 9 0 2.8 3.13
-4 9 0 1.32 2.16
-4 9 0 1.74 2.72
-3 9 0 -1.31 2.03
-3 9 0 -0.37 1.7
-2 9 0 1.92 2.05
-2 9 0 3.55 2.61
-1 9 0 2.96 2.07
-1 9 0 -1.32 2.33
0 -9 0 -0.32 1.23
0 9 0 2.32 2.7
0 9 0 -0.75 1.4
-1 -9 0 -0.56 1.3
1 9 0 2.18 2.38
1 9 0 1.73 1.63
-2 -9 0 5.87 2.3
2 9 0 2.71 2.36
2 9 0 3.15 1.86
-3 -9 0 1.61 2.04
3 9 0 -0.17 1.58
3 9 0 3.36 2.41
-4 -9 0 4.58 2.25
4 9 0 -0.47 2.02
-5 -9 0 0.13 1.91
5 9 0 -1.12 2.32
-6 -9 0 2.32 2.29
6 9 0 0.23 2.32
-7 -9 0 2.45 2.63
7 9 0 1.91 2.96
-5 10 0 -1.51 3.12
-5 10 0 0.29 2.1
-4 10 0 5.55 3.7
-4 10 0 5.15 2.64
-3 10 0 0.81 1.94
-3 10 0 -0.69 2.22
-2 10 0 29.51 5.29
-2 10 0 37.5 4.79
-1 10 0 1.29 2.75
-1 10 0 -1.45 1.62
0 10 0 2.49 1.96
0 10 0 5.31 3.04
-1 -10 0 3.13 2
1 10 0 0.06 1.7
1 10 0 -0.44 2.68
-2 -10 0 28.39 4.14
2 10 0 31.5 4.33
2 10 0 35.74 5.48
-3 -10 0 -1.89 1.66
3 10 0 1.28 2.37
-4 -10 0 0.87 2.21
4 10 0 10.2 3.31
-5 -10 0 1.25 2.19
5 10 0 0.76 2.7
-3 11 0 15.36 3.86
-3 11 0 10.34 3.88
-2 11 0 -0.15 2.08
-2 11 0 0.27 3.14
-1 11 0 12.09 4.15
-1 11 0 8.23 2.75
0 11 0 -2.06 2.78
0 11 0 0.4 1.96
1 11 0 3.52 3.78
2 11 0 -2.73 3.16
-3 -11 0 5.74 2.89
3 11 0 9.75 4.48
3 11 -1 43.61 6.4
2 11 -1 3.77 3.81
1 11 -1 -4.15 2.95
0 11 -1 7.52 3.75
0 11 -1 0.1 2.09
-1 11 -1 49.24 6.7
-1 11 -1 43.24 5.17
-2 11 -1 -2.22 1.97
-2 11 -1 -1.15 2.64
-3 11 -1 0.02 2.25
-3 11 -1 3.71 3.21
5 10 -1 0.84 2.92
-5 -10 1 1.53 2.14
4 10 -1 11.36 3.9
-4 -10 1 18.02 3.65
3 10 -1 0.54 2.6
-3 -10 1 0.87 1.98
2 10 -1 29.87 5.27
-2 -10 1 29.61 4.17
1 10 -1 -0.06 1.75
1 10 -1 3.24 2.88
0 10 -1 32.3 5.33
0 10 -1 33.59 4.25
-1 10 -1 -0.13 2.84
-1 10 -1 2.57 2.04
-2 10 -1 38.2 4.92
-2 10 -1 31.78 5.32
-3 10 -1 -0.93 2.54
-3 10 -1 2.24 2.33
-4 10 -1 13.82 3.69
-4 10 -1 17.78 4.81
-5 10 -1 0.23 2.27
-5 10 -1 0.95 3.25
7 9 -1 2.33 2.81
-7 -9 1 3.56 2.49
6 9 -1 0.15 2.39
-6 -9 1 3.82 2.49
5 9 -1 81.24 7.73
-5 -9 1 76.86 6.98
4 9 -1 -0.13 1.76
-4 -9 1 1.74 1.83
3 9 -1 1.18 2.31
-3 -9 1 0.86 1.59
2 9 -1 0.92 1.38
2 9 -1 1.13 2.31
-2 -9 1 -0.51 1.59
1 9 -1 139.32 8.2
1 9 -1 142.81 6.9
-1 -9 1 141.47 6.62
0 9 -1 -0.17 1.45
0 9 -1 2.47 2.58
-1 9 -1 0.63 1.47
-1 9 -1 3.98 2.65
-2 9 -1 0.48 1.63
-2 9 -1 -0.74 2.14
-3 9 -1 92.31 8.09
-3 9 -1 90.06 6.34
-4 9 -1 1.84 1.9
-4 9 -1 -2.23 2.43
-5 9 -1 0.41 2.25
-5 9 -1 -0.15 2.78
-6 9 -1 4.84 3.54
-6 9 -1 -1.21 1.8
8 8 -1 5.47 3.13
-8 -8 1 10.74 3.71
7 8 -1 0 2.2
-7 -8 1 0.2 2.12
6 8 -1 11.83 3.24
-6 -8 1 16.56 3.52
5 8 -1 0.46 2.08
-5 -8 1 3.44 2.18
4 8 -1 68.53 6.33
-4 -8 1 71.26 5.35
3 8 -1 -1.62 2.05
3 8 -1 0.43 1.26
-3 -8 1 0.87 1.5
2 8 -1 24.7 3.09
2 8 -1 23.75 3.78
-2 -8 1 23.84 3.26
1 8 -1 2.49 2.18
1 8 -1 0.99 1.18
-1 -8 1 2.06 1.51
0 8 -1 39.49 4.04
0 8 -1 43.43 4.95
0 -8 1 38.79 3.44
-1 8 -1 3 2.43
-1 8 -1 4.32 1.91
-2 8 -1 14.46 2.77
-2 8 -1 14.59 3.58
-3 8 -1 -0.97 1.25
-3 8 -1 -1.63 1.83
-4 8 -1 38.75 5.63
-4 8 -1 30.68 4.23
-5 8 -1 -0.05 2.14
-5 8 -1 0.52 2.53
-6 8 -1 9.21 2.95
-6 8 -1 6.1 3.17
-7 8 -1 -4.23 2.69
-7 8 -1 3.47 2.61
9 7 -1 1.88 2.78
-9 -7 1 3.33 2.96
8 7 -1 1.88 2.49
-8 -7 1 -2 1.92
7 7 -1 47.08 5.57
-7 -7 1 58.81 6.3
6 7 -1 0.06 1.88
-6 -7 1 0.12 1.93
5 7 -1 3.63 2.34
-5 -7 1 9.12 2.68
4 7 -1 -0.13 1.06
4 7 -1 -0.29 1.55
-4 -7 1 1.62 1.49
3 7 -1 85 4.3
3 7 -1 71.06 5.21
-3 -7 1 88.64 5.25
2 7 -1 -0.66 1.14
2 7 -1 -1.52 2.23
-2 -7 1 1.33 1.45
1 7 -1 22.29 3.39
1 7 -1 25.42 2.89
-1 -7 1 28.21 2.98
0 7 -1 -0.74 0.92
0 7 -1 0.46 1.58
0 -7 1 0.94 1.02
-1 7 -1 107.81 5.47
-1 7 -1 119.23 6.63
1 -7 1 111.81 4.28
-2 7 -1 -0.21 1.2
-2 7 -1 2.25 2
-3 7 -1 26.93 3.68
-3 7 -1 28.67 4.22
-4 7 -1 2.02 2.44
-4 7 -1 3.4 2.06
-5 7 -1 85.97 6.99
-5 7 -1 85.22 6.22
-6 7 -1 2.47 2.08
-6 7 -1 -1.34 2.17
-7 7 -1 2.24 2.72
-7 7 -1 3.43 2.54
-8 7 -1 5.03 2.7
-8 7 -1 1.37 3.19
9 6 -1 -0.87 2.11
-9 -6 1 1.01 2.05
8 6 -1 2.18 2.02
-8 -6 1 4.71 2.37
7 6 -1 2.06 2.1
-7 -6 1 2.74 2.18
6 6 -1 2.82 1.95
-6 -6 1 2.1 1.65
5 6 -1 -0.55 1.03
5 6 -1 -0.62 1.38
-5 -6 1 -0.89 1.43
4 6 -1 -0.33 1.3
4 6 -1 -0.41 0.97
-4 -6 1 -0.69 1.3
3 6 -1 4.93 1.29
3 6 -1 3.34 1.56
-3 -6 1 6.73 1.86
2 6 -1 0.06 1.2
2 6 -1 -0.01 0.91
-2 -6 1 -0.63 1.05
1 6 -1 13.9 2.35
1 6 -1 15.14 2.12
-1 -6 1 12.98 1.98
0 6 -1 0.7 1
0 6 -1 1.15 1.43
0 -6 1 0.8 0.87
-1 6 -1 10.19 2.29
-1 6 -1 6.1 1.75
1 -6 1 6.57 1.22
-2 6 -1 -1.48 1.5
-2 6 -1 -1.62 1
2 -6 1 0.72 0.76
-3 6 -1 0.13 1.5
-3 6 -1 0.16 1.35
-4 6 -1 3.95 1.94
-4 6 -1 5.91 2.8
-5 6 -1 1.17 2.18
-5 6 -1 1.26 1.6
-6 6 -1 0.62 1.49
-6 6 -1 -2.63 1.64
-7 6 -1 0.54 2.42
-7 6 -1 0.12 2.02
-8 6 -1 -2.47 2.29
-8 6 -1 2.77 2.33
-9 6 -1 -0.63 3.12
-9 6 -1 2.56 2.51
10 5 -1 4.21 3.01
9 5 -1 2.74 2.1
-9 -5 1 2.69 2.28
8 5 -1 2.92 2.08
-8 -5 1 2.65 2.04
7 5 -1 101.61 6.43
-7 -5 1 103.44 6.53
6 5 -1 -0.2 1.29
-6 -5 1 1.29 1.57
5 5 -1 11.59 1.72
-5 -5 1 10.15 2.41
4 5 -1 1 0.84
4 5 -1 1.46 1.23
-4 -5 1 1.39 1.39
3 5 -1 218.8 6.09
3 5 -1 222.81 7.95
-3 -5 1 214.16 7.52
2 5 -1 -0.23 0.72
2 5 -1 0.14 1.23
-2 -5 1 -0.48 0.99
1 5 -1 18.39 2.64
1 5 -1 18.43 1.98
-1 -5 1 17.87 2.05
0 5 -1 0.82 0.93
0 5 -1 1.22 1.43
0 -5 1 0.43 0.72
-1 5 -1 278.82 8.18
-1 5 -1 278.6 8.95
1 -5 1 281.5 6.58
-2 5 -1 12.3 2.36
-2 5 -1 10.17 2.06
2 -5 1 12.36 1.18
-3 5 -1 13.91 2.74
-3 5 -1 8.29 1.95
-4 5 -1 3.37 2.07
-4 5 -1 5.93 1.78
-5 5 -1 91.66 5.6
-5 5 -1 95.06 6.4
-6 5 -1 -0.54 1.78
-6 5 -1 -0.46 1.37
-7 5 -1 7.58 2.87
-7 5 -1 12.88 3.04
-8 5 -1 2.15 2.49
-8 5 -1 -1.08 2.24
-9 5 -1 27.38 5.1
-9 5 -1 36.95 5.47
10 4 -1 8.38 3.46
9 4 -1 3.54 2.37
-9 -4 1 -1.25 1.82
8 4 -1 30.98 4.35
-8 -4 1 40.67 5
7 4 -1 6.59 2.28
-7 -4 1 11.48 2.72
6 4 -1 34.93 2.52
6 4 -1 34.25 4.02
-6 -4 1 23.12 3.22
5 4 -1 8.81 1.35
5 4 -1 1.45 1.3
-5 -4 1 11.61 2.29
4 4 -1 123.19 3.97
-4 -4 1 120.73 5.47
3 4 -1 5.43 1.46
3 4 -1 6.21 1.04
-3 -4 1 3.42 1.41
2 4 -1 156.35 5.81
2 4 -1 162.19 4.57
-2 -4 1 156.26 5.44
1 4 -1 5.23 1.08
1 4 -1 4.28 1.34
-1 -4 1 2.35 1
0 4 -1 131.41 4.55
0 4 -1 144.46 5.32
0 -4 1 135.91 3.99
-1 4 -1 1.41 1.41
-1 4 -1 1.28 0.97
1 -4 1 0.03 0.54
-2 4 -1 78.61 4.08
-2 4 -1 81.86 4.57
-3 4 -1 3.91 1.71
-3 4 -1 4.24 1.49
-4 4 -1 100.12 5.83
-4 4 -1 82.81 4.8
4 -4 1 103.3 3.09
-5 4 -1 -0.98 1
-5 4 -1 1.82 1.71
-6 4 -1 31.64 4.25
-6 4 -1 43.01 4.65
-7 4 -1 8.05 2.76
-7 4 -1 11.49 2.83
-8 4 -1 23.78 4.49
-8 4 -1 28.71 4.58
-9 4 -1 4 2.94
-10 4 -1 5.9 3.58
10 3 -1 1.83 2.5
9 3 -1 123.83 7.68
8 3 -1 12.76 3.1
-8 -3 1 10.3 2.67
7 3 -1 -0.25 1.29
7 3 -1 1.11 1.31
-7 -3 1 1.38 1.53
6 3 -1 5.41 1.9
6 3 -1 6.62 1.54
-6 -3 1 -0.07 1.17
5 3 -1 293.91 7.41
5 3 -1 299.81 9.41
4 3 -1 1.66 0.74
4 3 -1 3.12 1.12
-4 -3 1 2.47 1.11
3 3 -1 7.8 1.03
-3 -3 1 8.06 1.64
2 3 -1 0.84 0.6
2 3 -1 -0.11 0.67
-2 -3 1 2.39 1.05
1 3 -1 705.57 13.47
-1 -3 1 705.11 13.99
0 3 -1 21.04 1.64
0 3 -1 21.69 2.12
0 -3 1 22.73 1.37
-1 3 -1 7.56 1.37
1 -3 1 7.16 0.71
-2 3 -1 -0.04 1.02
-2 3 -1 0.51 0.94
-3 3 -1 624.72 15.45
3 -3 1 616.4 11.59
-4 3 -1 0.44 1.44
-4 3 -1 2.58 1.25
-5 3 -1 7.82 2.23
-5 3 -1 4.48 1.71
-6 3 -1 6.18 2.25
-6 3 -1 5.39 2
-7 3 -1 175.25 8.42
-7 3 -1 195.71 9.31
-8 3 -1 1.01 2.05
-8 3 -1 5.91 2.75
-9 3 -1 1.52 2.6
-10 3 -1 3.78 3.44
11 2 -1 -2.17 2.42
10 2 -1 17.22 3.96
9 2 -1 8.06 2.76
8 2 -1 18.42 3.31
7 2 -1 5.23 2.01
-7 -2 1 8.06 2.2
6 2 -1 93.08 5.12
-6 -2 1 90.42 4.99
5 2 -1 0.96 1.19
-5 -2 1 2.35 1.23
4 2 -1 128.6 5.05
4 2 -1 123.29 4.1
-4 -2 1 136.77 5.26
3 2 -1 2.49 1.03
3 2 -1 1.28 0.53
-3 -2 1 -0.24 0.49
2 2 -1 284.93 5.6
-2 -2 1 281.26 5.74
-2 -2 1 278.19 6.97
1 2 -1 -0.13 0.41
1 2 -1 0.72 0.51
-1 -2 1 0.46 0.67
-1 -2 1 0.12 0.47
0 2 -1 58.18 2.6
0 2 -1 58.43 2.16
0 -2 1 55.78 1.77
-1 2 -1 49.61 2.79
-1 2 -1 52.4 2.54
-2 2 -1 0.15 0.35
-3 2 -1 2.25 1.44
-3 2 -1 2.44 1.18
-4 2 -1 62.06 3.82
-4 2 -1 55.4 3.97
-5 2 -1 1.64 1.3
-5 2 -1 -0.67 1.28
-6 2 -1 31.71 4.06
-6 2 -1 37.55 3.99
-7 2 -1 1.76 1.93
-8 2 -1 27.06 4.31
-9 2 -1 3.34 2.5
-10 2 -1 14.66 4.25
-9 -1 1 3.83 2.42
-8 -1 1 2.41 2.11
-7 -1 1 138.4 6.94
-6 -1 1 22.45 3.06
-5 -1 1 32.03 3.11
-5 -1 1 30.23 3.16
-4 -1 1 9.79 1.81
-4 -1 1 8.4 1.65
-3 -1 1 350.7 8.52
2 1 -1 15.95 0.84
2 1 -1 17.46 1.54
-2 -1 1 13.84 1.45
1 1 -1 29.91 1.51
-1 -1 1 29.81 1.51
0 1 -1 7.22 0.79
0 -1 1 5.57 0.7
-1 1 -1 187.77 5.52
-1 1 -1 218.39 3.99
-2 1 -1 11.71 1.72
-2 1 -1 12.6 1.5
-2 1 -1 12.94 1.08
-3 1 -1 84.02 4.07
-3 1 -1 78.29 2.85
-3 1 -1 77.53 3.7
-4 1 -1 2.6 1.23
-4 1 -1 0.95 0.85
-4 1 -1 1 1.08
-5 1 -1 247.19 8.86
-5 1 -1 236.68 6.99
-6 1 -1 0.99 1.69
-7 1 -1 5.87 2.42
-8 1 -1 2.47 2.12
-9 1 -1 24.18 4.5
-10 1 -1 -1.56 2.32
-11 0 1 -0.23 2.55
-10 0 1 1.92 2.22
-9 0 1 3.08 2.19
-8 0 1 -2.38 1.14
-7 0 1 -0.89 1.41
-6 0 1 -0.38 1.16
-5 0 1 -0.85 0.66
-5 0 1 -1.15 0.77
-4 0 1 0.35 0.84
-4 0 1 -0.38 0.76
-3 0 1 -0.99 0.66
-3 0 1 -0.79 0.65
2 0 -1 0.42 0.46
-2 0 1 0.33 0.56
-2 0 1 0.22 0.59
1 0 -1 -0.66 0.28
1 0 -1 -0.41 0.25
-1 0 1 -0.85 0.3
0 0 -1 -0.03 0.36
0 0 -1 -0.6 0.34
0 0 1 0.51 0.35
0 0 1 0.04 0.43
-1 0 -1 -0.2 0.68
-1 0 -1 -0.72 0.43
-2 0 -1 -0.21 0.26
-2 0 -1 0.63 0.68
-3 0 -1 -0.18 0.71
-3 0 -1 0.16 0.77
-4 0 -1 -0.06 1
-4 0 -1 -0.03 0.8
-5 0 -1 -0.23 1.12
-5 0 -1 -0.24 0.95
-6 0 -1 0.53 1.24
-6 0 -1 -2.26 1.08
-7 0 -1 0.95 1.31
-7 0 -1 0.45 1.8
-8 0 -1 -0.07 1.96
-9 0 -1 0.29 2.17
-10 0 -1 0.41 2.7
-11 1 1 32.97 5.45
-10 1 1 3.03 2.62
-9 1 1 2.4 2.21
-8 1 1 8.82 2.57
-7 1 1 131.29 6.69
-7 1 1 152.47 6.55
-6 1 1 22.18 2.72
-6 1 1 22.56 2.99
-5 1 1 31.03 3.05
-5 1 1 31.9 2.95
-4 1 1 -1.07 0.75
-4 1 1 7.06 1.52
-3 1 1 398.92 9.03
-3 1 1 384.65 8.97
-2 1 1 18.14 1.44
-2 1 1 21.2 1.7
1 -1 -1 28.09 1.1
1 -1 -1 27.59 1.51
-1 1 1 28.06 1.17
-1 1 1 26.63 1.39
-1 -1 -1 243.68 5.67
-1 -1 -1 251.13 5.76
1 1 1 239.49 5.8
-2 -1 -1 11.37 1.45
-2 -1 -1 15.21 1.69
-3 -1 -1 -0.13 0.66
-3 -1 -1 0.79 0.67
-4 -1 -1 0.11 0.57
-4 -1 -1 -0.44 0.91
-6 -1 -1 1.01 1.19
-6 -1 -1 0.7 1.29
-7 -1 -1 6.47 2.04
-7 -1 -1 6.02 2.16
-8 -1 -1 2.3 2.18
-8 -1 -1 7.29 2.21
-9 -1 -1 27.91 4.66
-10 -1 -1 0.18 2.45
-11 2 1 -0.98 2.59
-10 2 1 17.73 4.03
-9 2 1 7.35 2.49
-9 2 1 5.12 2.52
-8 2 1 22.11 3.62
-8 2 1 15.72 3.01
-7 2 1 8.88 2.34
-7 2 1 8.33 2.39
-6 2 1 106.66 5.3
-6 2 1 103.33 5.53
-5 2 1 1.44 1.29
-5 2 1 -0.74 1.02
-4 2 1 151.11 5.52
-4 2 1 152.49 5.51
3 -2 -1 1.31 0.75
-3 2 1 -1.13 0.72
-3 2 1 -0.11 0.79
2 -2 -1 284.11 6.63
-2 2 1 265.05 6.99
-2 2 1 285.75 7.02
1 -2 -1 -0.05 0.76
-1 2 1 0.09 0.55
-1 2 1 1.39 0.72
0 -2 -1 63.8 2.58
0 2 1 58.28 2.47
0 2 1 62.58 2.34
1 2 1 54.43 2.38
1 2 1 50.56 2.38
2 2 1 222.06 6.28
2 2 1 239.34 6.14
-3 -2 -1 4.01 1.33
-3 -2 -1 2.72 1.03
3 2 1 2.46 1.17
-4 -2 -1 50.19 3.45
-4 -2 -1 56.22 3.46
4 2 1 61.18 3.62
-5 -2 -1 1.04 1.06
-5 -2 -1 0.48 1.15
-6 -2 -1 30.09 3.44
-7 -2 -1 2.12 1.85
-7 -2 -1 3.12 1.98
-8 -2 -1 25.07 3.8
-8 -2 -1 23.75 4.09
-9 -2 -1 0.43 2.01
-9 -2 -1 4.72 2.4
9 2 1 1.19 2.28
-10 3 1 0.78 2.33
-10 3 1 3.17 2.88
-9 3 1 83.2 6.29
-9 3 1 100.86 7.06
-8 3 1 18.02 3.42
-8 3 1 18.18 3.31
-7 3 1 -1.38 1.48
-7 3 1 -0.36 1.66
-6 3 1 4.59 1.9
-6 3 1 4.02 1.75
5 -3 -1 316.78 8.54
-5 3 1 325.65 9.82
-5 3 1 314.93 9.73
4 -3 -1 1.78 0.9
-4 3 1 4.68 1.5
-4 3 1 4.52 1.5
3 -3 -1 8.66 1.43
-3 3 1 5.96 1.47
2 -3 -1 1.34 0.81
-2 3 1 -0.38 0.65
-2 3 1 1.96 0.93
1 -3 -1 727.2 14.39
-1 3 1 722.18 14.55
0 -3 -1 20.32 1.89
0 3 1 24.66 2.12
0 3 1 19.62 1.76
-1 -3 -1 6.94 1.39
1 3 1 8.15 1.35
1 3 1 8.16 1.38
-2 -3 -1 0.36 0.65
2 3 1 0.24 0.78
2 3 1 -0.2 0.78
-3 -3 -1 618.12 13.98
3 3 1 591.52 13.89
3 3 1 596.99 13.24
-4 -3 -1 5.19 1.61
4 3 1 2.4 1.12
4 3 1 1.79 1.32
-5 -3 -1 8.33 1.92
5 3 1 5.62 1.82
5 3 1 1.43 1.31
-6 -3 -1 5.41 1.97
6 3 1 4.64 1.87
6 3 1 4.21 1.83
-7 -3 -1 174.76 8.1
7 3 1 164.39 7.62
7 3 1 180.65 8.58
-8 -3 -1 2.32 2.17
8 3 1 7.77 2.75
8 3 1 2.27 1.94
-9 -3 -1 1.15 2.12
9 3 1 -1.87 1.72
-10 -3 -1 11.3 3.51
10 3 1 8.26 3.58
-10 4 1 10.86 3.39
-10 4 1 10.87 3.77
-9 4 1 1.61 2.09
-9 4 1 1.24 2.13
-8 4 1 38.31 4.8
-8 4 1 41.18 5.11
7 -4 -1 14.65 2.41
-7 4 1 12.7 2.9
-7 4 1 8.36 2.44
6 -4 -1 38.51 3.39
-6 4 1 44.5 4.42
-6 4 1 32.4 3.91
5 -4 -1 8.99 1.74
-5 4 1 9.67 2.21
-5 4 1 10.31 2.21
4 -4 -1 105.37 4.4
-4 4 1 112.6 5.45
-4 4 1 120.18 5.32
3 -4 -1 7.68 1.45
-3 4 1 5.02 1.34
-3 4 1 4.59 1.62
2 -4 -1 168.43 5.14
-2 4 1 161.03 5.82
1 -4 -1 4.86 1.2
-1 4 1 3.69 1.18
0 -4 -1 141.89 4.85
0 4 1 142.82 4.95
-1 -4 -1 -1.03 0.81
1 4 1 -0.94 0.69
1 4 1 0.53 0.87
-2 -4 -1 74.02 4.01
2 4 1 69.22 3.36
2 4 1 74.14 3.82
-3 -4 -1 2.2 1.19
3 4 1 2.06 1.03
3 4 1 0.8 1.18
4 4 1 95.35 4.32
4 4 1 87.78 4.95
-5 -4 -1 0.15 1.04
5 4 1 -0.5 1.19
5 4 1 -0.95 1.29
-6 -4 -1 34.55 4.14
6 4 1 37.24 3.72
6 4 1 41.61 4.47
-7 -4 -1 9.02 2.44
7 4 1 6.95 2.16
7 4 1 5.86 2.12
-8 -4 -1 20.41 3.98
8 4 1 26.44 4.18
-9 -4 -1 2.18 2.48
9 4 1 3.28 2.46
-10 -4 -1 8.83 3.47
10 4 1 4.62 3.06
-10 5 1 1.7 2.54
-10 5 1 -1.88 2.88
-9 5 1 2.44 2.5
-9 5 1 -2.6 2.43
-8 5 1 -1.64 1.9
-8 5 1 -0.96 1.81
-7 5 1 113.24 6.77
-7 5 1 114.94 6.84
-6 5 1 2.87 1.81
-6 5 1 -1.38 1.32
5 -5 -1 11.11 1.95
-5 5 1 6.72 2.05
-5 5 1 17.72 3.12
4 -5 -1 2.14 1.12
-4 5 1 0.09 0.99
-4 5 1 2.72 1.73
3 -5 -1 207.86 6.11
-3 5 1 206.55 7.58
-3 5 1 202.2 7.36
2 -5 -1 -0.67 0.88
-2 5 1 -0.18 1.26
-2 5 1 -0.98 0.91
1 -5 -1 19.6 2.21
-1 5 1 17.04 2.24
-1 5 1 14.51 2.5
0 -5 -1 1.47 1.07
0 5 1 -2.06 1.1
0 5 1 0.83 1
-1 -5 -1 285.53 8.36
1 5 1 271.82 7.93
1 5 1 276.67 8.38
-2 -5 -1 6.42 1.77
2 5 1 9.9 1.76
2 5 1 7.02 1.73
-3 -5 -1 8.06 1.98
3 5 1 15.53 2.16
3 5 1 7.41 1.94
-4 -5 -1 3.71 1.71
4 5 1 4.8 1.52
4 5 1 5.17 1.88
-5 -5 -1 88.6 5.47
5 5 1 92.7 4.63
5 5 1 79.51 5.32
-6 -5 -1 1.06 1.47
6 5 1 -0.54 1.36
6 5 1 0.48 1.36
-7 -5 -1 13.72 3.19
7 5 1 10.51 2.97
7 5 1 10.67 2.46
-8 -5 -1 3.14 2.44
8 5 1 3.2 2.42
-9 -5 -1 53.37 6.51
9 5 1 56.29 6.72
-9 6 1 -2.27 1.93
-9 6 1 1.59 2.42
-8 6 1 2.76 2.5
-8 6 1 1.4 2.35
-7 6 1 0.42 1.96
-7 6 1 4.38 2.21
-6 6 1 -0.81 1.86
-6 6 1 -1.11 1.47
-5 6 1 -0.25 1.52
-5 6 1 -2.14 1.22
4 -6 -1 -0.74 0.96
-4 6 1 -1.48 1.75
-4 6 1 -0.4 1.04
3 -6 -1 4.9 1.4
-3 6 1 6.29 2
-3 6 1 6.28 1.99
2 -6 -1 0.62 0.94
-2 6 1 1.11 1.25
-2 6 1 1.49 1.67
1 -6 -1 14.13 2.03
-1 6 1 12.29 2.26
-1 6 1 17.37 2.58
0 -6 -1 0.28 1.12
0 6 1 0.64 1.08
0 6 1 0.29 1.15
-1 -6 -1 7.39 1.9
1 6 1 9.97 1.96
1 6 1 7.42 2
-2 -6 -1 2.74 1.5
2 6 1 -1.51 1.24
2 6 1 1.01 1.15
-3 -6 -1 1.74 1.42
3 6 1 1.57 1.27
3 6 1 0.57 1.17
-4 -6 -1 5.01 2.02
4 6 1 5.21 1.65
4 6 1 4.41 1.98
-5 -6 -1 2.75 1.97
5 6 1 1.03 1.55
5 6 1 1.26 1.34
-6 -6 -1 3.76 2.16
6 6 1 -0.85 1.4
6 6 1 2.4 2.06
-7 -6 -1 -2.58 1.49
7 6 1 0.08 1.98
-8 -6 -1 1.36 2.14
8 6 1 0.76 2.49
-9 -6 -1 1.4 2.57
9 6 1 0.85 2.07
-9 7 1 1.4 2.9
-9 7 1 4.57 3.28
-8 7 1 -1.15 2.34
-8 7 1 3.65 2.52
-7 7 1 41.54 5.45
-7 7 1 49.5 5.71
-6 7 1 -0.33 2.13
-6 7 1 2.15 1.85
-5 7 1 3.37 2.06
-5 7 1 10.17 3.11
-4 7 1 -0.47 1.98
-4 7 1 2.93 1.73
3 -7 -1 83.76 4.12
-3 7 1 84.48 5.28
-3 7 1 78.12 5.46
2 -7 -1 1.69 1.23
-2 7 1 0.87 1.48
-2 7 1 1.05 1.66
1 -7 -1 21.4 2.67
-1 7 1 24.9 3.37
-1 7 1 24.64 3.27
0 -7 -1 0.61 1.08
0 7 1 0.99 1.28
0 7 1 -0.56 1.35
-1 -7 -1 105.89 5.53
1 7 1 116.65 5.59
1 7 1 116.81 6.29
-2 -7 -1 5.69 2.05
2 7 1 1.88 1.35
2 7 1 6.05 2.09
-3 -7 -1 27.44 3.55
3 7 1 30.64 3.89
3 7 1 25.45 3.06
-4 -7 -1 -0.19 1.51
4 7 1 2.95 1.94
4 7 1 1.73 1.41
-5 -7 -1 79.07 5.88
5 7 1 72.3 4.66
5 7 1 78.24 5.9
-6 -7 -1 3.84 2.35
6 7 1 1.65 2.31
-7 -7 -1 4.69 2.48
7 7 1 3.41 2.51
-8 -7 -1 1.79 2.35
8 7 1 1.18 2.66
-8 8 1 5.47 3.1
-8 8 1 16.62 4.4
-7 8 1 -2.33 2.28
-7 8 1 -3.26 1.64
-6 8 1 12.21 3.44
-6 8 1 11.99 2.99
-5 8 1 2.28 1.85
-5 8 1 1.9 2.8
-4 8 1 54.74 5.41
-4 8 1 63.41 6.31
-3 8 1 1.2 2.11
-3 8 1 -1.71 1.37
2 -8 -1 25.46 3.06
-2 8 1 26.98 3.81
-2 8 1 27.89 3.99
1 -8 -1 1.36 1.41
-1 8 1 1.01 1.53
-1 8 1 -0.98 1.76
0 -8 -1 47.35 4.28
0 8 1 40.53 4.46
0 8 1 45.13 4.49
-1 -8 -1 7.41 2.32
1 8 1 7.67 2.19
1 8 1 2.81 1.97
-2 -8 -1 11.56 2.55
2 8 1 10.48 2.88
2 8 1 10.66 2.51
-3 -8 -1 1.12 1.76
3 8 1 0.13 1.48
3 8 1 2.99 1.84
-4 -8 -1 31.26 4.46
4 8 1 33.86 3.78
4 8 1 34.72 4.69
-5 -8 -1 1.97 2.25
5 8 1 2.58 2.47
-6 -8 -1 7.93 2.87
6 8 1 4.08 2.73
-7 -8 -1 1.45 2.27
7 8 1 1.61 2.57
-7 9 1 1.69 2.45
-6 9 1 2.6 2.76
-6 9 1 -3.43 1.81
-5 9 1 77.77 7.34
-5 9 1 86.01 8.29
-4 9 1 1.18 2.68
-4 9 1 1.76 1.92
-3 9 1 -2.93 1.82
-3 9 1 3.32 2.14
-2 9 1 0.19 2.25
-2 9 1 -0.63 1.65
1 -9 -1 143.12 6.65
-1 9 1 137.55 7.38
-1 9 1 147.45 8.28
0 -9 -1 1.4 1.64
0 9 1 2.07 2.43
0 9 1 -0.22 1.57
-1 -9 -1 1.51 1.63
1 9 1 6.14 2.08
1 9 1 8.58 3.05
-2 -9 -1 -0.71 1.56
2 9 1 -1.05 1.61
2 9 1 0.26 2.3
-3 -9 -1 90.81 6.31
3 9 1 89.68 5.55
3 9 1 109.64 7.15
-4 -9 -1 -1.59 1.89
4 9 1 -0.01 2.15
-5 -9 -1 2.5 2.35
5 9 1 1.7 2.32
-6 -9 -1 1.77 2.51
6 9 1 4.12 3
-5 10 1 3.28 2.73
-5 10 1 -2.26 3.68
-4 10 1 14.86 4.05
-4 10 1 15.72 3.5
-3 10 1 2.97 2.28
-3 10 1 0.46 2.77
-2 10 1 29.48 5.01
-2 10 1 33.66 4.81
-1 10 1 3.41 2.16
-1 10 1 2.42 2.77
0 -10 -1 29.84 3.87
0 10 1 30.87 4.38
0 10 1 19.31 4.44
-1 -10 -1 1.31 1.87
1 10 1 -0.31 1.65
1 10 1 0.9 2.81
-2 -10 -1 27.17 4.14
2 10 1 32.71 4.47
2 10 1 36.92 5.43
-3 -10 -1 1.19 2.24
3 10 1 0.48 2.39
-4 -10 -1 17.8 3.71
4 10 1 13.55 3.94
-5 -10 -1 -0.52 1.9
5 10 1 -0.86 2.76
-3 11 1 53.62 6.19
-3 11 1 58.41 7.11
-2 11 1 -0.04 2.08
-2 11 1 -0.86 3.47
-1 11 1 1.08 2.92
-1 11 1 0.66 2.29
0 11 1 -0.24 2.4
0 11 1 -0.45 3.09
1 11 1 49.89 7.05
1 11 1 51.18 5.72
-2 -11 -1 2.23 2.46
2 11 1 -2.79 3.25
-3 -11 -1 -0.4 2.2
3 11 1 2.01 3.7
3 11 -2 16.45 5.12
2 11 -2 2.54 3.66
1 11 -2 15.06 4.31
0 11 -2 6.76 3.88
-1 11 -2 10.37 4.09
-1 11 -2 10.45 2.98
-2 11 -2 1.44 2.25
-2 11 -2 8.01 3.86
6 10 -2 3.07 3.24
-6 -10 2 -0.25 2.11
5 10 -2 -1.35 2.75
-5 -10 2 -2.02 1.83
4 10 -2 25.86 4.89
-4 -10 2 27.29 4.59
3 10 -2 -1.35 2.67
-3 -10 2 2.55 2.25
2 10 -2 -0.1 2.96
1 10 -2 -1.25 2.82
0 10 -2 34.99 5.44
0 10 -2 35.15 4.39
-1 10 -2 3.24 2.84
-1 10 -2 -0.57 1.7
-2 10 -2 8.82 2.79
-2 10 -2 3.39 2.84
-3 10 -2 -0.92 2.29
-3 10 -2 0.25 2.81
-4 10 -2 14.48 3.57
-4 10 -2 19.18 5.14
7 9 -2 7.57 3.31
-7 -9 2 -1.65 2.18
6 9 -2 -0.25 2.33
-6 -9 2 -0.01 2.11
5 9 -2 2.62 2.58
-5 -9 2 -1.7 1.67
4 9 -2 1.06 2.33
-4 -9 2 3.96 2.49
3 9 -2 3.29 2.63
-3 -9 2 10.31 2.79
2 9 -2 2.87 2.51
-2 -9 2 1.96 1.8
1 9 -2 3.58 1.8
1 9 -2 1.47 2.58
0 9 -2 -0.69 2.28
0 9 -2 1.48 1.81
-1 9 -2 0.01 1.49
-1 9 -2 0.71 2.3
-2 9 -2 4.9 2.72
-2 9 -2 1.06 1.71
-3 9 -2 1.52 2.42
-3 9 -2 -0.58 1.77
-4 9 -2 -1.24 2.86
-4 9 -2 -0.57 2.04
-5 9 -2 -1.21 2.07
-5 9 -2 5.59 3.36
-6 9 -2 2.81 2.61
-6 9 -2 -0.93 3.01
8 8 -2 31.53 5.33
-8 -8 2 40.92 5.73
7 8 -2 3.02 2.53
-7 -8 2 -1.21 2.26
6 8 -2 5.64 2.52
-6 -8 2 -1.99 1.84
5 8 -2 -1.1 1.87
-5 -8 2 0.88 1.9
4 8 -2 100.98 6.9
-4 -8 2 108.61 6.49
3 8 -2 0.54 2.6
-3 -8 2 1.12 1.81
2 8 -2 8.55 2.54
2 8 -2 6.96 1.87
-2 -8 2 6.42 1.94
1 8 -2 6.54 1.95
1 8 -2 8.2 2.6
-1 -8 2 5.16 1.65
0 8 -2 133.48 6.16
0 8 -2 133.24 7.64
-1 8 -2 1.8 1.58
-1 8 -2 -0.54 2.17
-2 8 -2 4.63 2.04
-2 8 -2 4.2 2.37
-3 8 -2 -1.93 2.11
-3 8 -2 1.78 1.85
-4 8 -2 61.03 7.25
-4 8 -2 67.37 6.22
-5 8 -2 -1.95 2.36
-5 8 -2 1.33 2.08
-6 8 -2 1.82 2.55
-6 8 -2 1.8 2.86
-7 8 -2 3.59 2.88
-7 8 -2 4.28 3.49
9 7 -2 22.05 4.71
-9 -7 2 19.08 4.1
8 7 -2 2.82 2.66
-8 -7 2 3.14 2.53
7 7 -2 10.61 3.07
-7 -7 2 15.48 3.6
6 7 -2 2.33 1.98
-6 -7 2 0.33 1.76
5 7 -2 70.74 5.56
-5 -7 2 71.83 5.32
4 7 -2 1.66 1.54
-4 -7 2 1.3 1.56
3 7 -2 26.05 3.76
3 7 -2 30.39 2.81
-3 -7 2 27.01 3.29
2 7 -2 2.89 2.47
2 7 -2 1.77 1.2
-2 -7 2 2.95 1.43
1 7 -2 66.84 5.25
1 7 -2 60.35 3.74
-1 -7 2 62.04 3.7
0 7 -2 2.44 1.3
0 7 -2 -0.65 1.68
0 -7 2 0.23 1.02
-1 7 -2 32.6 3.62
-1 7 -2 38.35 4.57
-2 7 -2 1.73 2.07
-2 7 -2 0.51 1.38
-3 7 -2 66.29 4.92
-3 7 -2 65.54 6.23
-4 7 -2 -2.05 2.24
-4 7 -2 1.48 1.85
-5 7 -2 8.33 3.02
-5 7 -2 14.21 3.08
-6 7 -2 -2.13 1.78
-6 7 -2 4.42 2.82
-7 7 -2 18.15 3.9
-7 7 -2 24.5 4.94
-8 7 -2 1.96 2.75
-8 7 -2 8.64 3.75
9 6 -2 6.04 3.18
-9 -6 2 2.99 2.66
8 6 -2 2.59 2.48
-8 -6 2 2.51 2
7 6 -2 1.33 2.17
-7 -6 2 1.49 1.93
6 6 -2 158.45 8.05
-6 -6 2 156.67 7.91
5 6 -2 1.46 1.59
-5 -6 2 2.06 1.53
4 6 -2 1.26 0.97
4 6 -2 -0.03 1.25
-4 -6 2 -1.17 1.21
3 6 -2 0.29 1.07
3 6 -2 2.3 1.07
-3 -6 2 5.3 1.62
2 6 -2 355.04 9.03
-2 -6 2 361 10
1 6 -2 1.07 1.01
1 6 -2 -0.65 1.05
-1 -6 2 0.29 0.9
0 6 -2 -0.36 1.47
0 6 -2 -0.36 0.88
0 -6 2 0.53 0.88
-1 6 -2 1.16 1.75
-1 6 -2 1.89 1.27
1 -6 2 0.47 0.7
-2 6 -2 243.99 8.51
-2 6 -2 248.79 9.8
-3 6 -2 -0.21 1.89
-3 6 -2 -1.43 1.06
-4 6 -2 0.42 1.46
-4 6 -2 -2.51 2.03
-5 6 -2 0.9 1.83
-5 6 -2 -0.47 1.99
-6 6 -2 117.41 7.96
-6 6 -2 102.72 6.84
-7 6 -2 0.02 1.94
-7 6 -2 0.56 2.41
-8 6 -2 -1.68 2.1
-8 6 -2 -2.02 2.49
10 5 -2 -0.31 2.42
9 5 -2 15.67 3.64
8 5 -2 -1.75 1.86
-8 -5 2 1.37 1.86
7 5 -2 58.61 5.53
-7 -5 2 61.03 5.85
6 5 -2 1.31 1.77
-6 -5 2 0.38 1.59
5 5 -2 44.52 2.41
5 5 -2 52.36 4.78
-5 -5 2 48.76 4.62
4 5 -2 4.25 1.73
4 5 -2 4.47 1.01
-4 -5 2 6.85 2.01
3 5 -2 43.6 3.92
3 5 -2 36.44 2.09
-3 -5 2 39.45 3.14
2 5 -2 -0.1 0.57
2 5 -2 1.68 0.86
-2 -5 2 3.02 1.21
1 5 -2 72.05 3.29
1 5 -2 73.47 4.27
-1 -5 2 70.52 3.28
0 5 -2 12.69 1.8
0 5 -2 13.02 2.41
0 -5 2 13.41 1.48
-1 5 -2 107.93 5.55
-1 5 -2 111.13 4.86
1 -5 2 113.06 3.11
-2 5 -2 -0.09 1.45
-2 5 -2 3.09 1.54
-3 5 -2 74.83 5.63
-3 5 -2 76.98 4.76
-4 5 -2 -0.29 1.24
-4 5 -2 1.96 1.75
-5 5 -2 32.05 4.01
-5 5 -2 26.5 4.17
-6 5 -2 9 2.62
-6 5 -2 9.15 3.2
-7 5 -2 15.77 3.43
-7 5 -2 16.73 3.98
-8 5 -2 -0.2 2.12
-8 5 -2 -2.23 1.89
-9 5 -2 2.79 3.29
10 4 -2 5.3 2.98
9 4 -2 3.2 2.46
8 4 -2 95.83 6.52
-8 -4 2 102.59 6.55
7 4 -2 5.97 2.32
-7 -4 2 4.7 1.9
6 4 -2 15.75 2.86
-6 -4 2 18.67 3.03
5 4 -2 2.97 1.52
5 4 -2 4.31 0.88
-5 -4 2 3.92 1.59
4 4 -2 289.45 6.25
4 4 -2 277.6 9.11
-4 -4 2 283.76 8.99
3 4 -2 2 0.64
3 4 -2 3.14 1.27
-3 -4 2 0.82 1.17
2 4 -2 49.82 2.18
-2 -4 2 51.7 3.04
1 4 -2 -0.43 0.66
1 4 -2 -0.25 0.64
-1 -4 2 -0.52 0.79
0 4 -2 300.44 9.08
0 4 -2 306.33 7.91
0 -4 2 304.87 6.82
-1 4 -2 -2.12 1.12
-1 4 -2 0.54 1.08
-2 4 -2 45.53 3.21
-2 4 -2 42.4 4.03
-3 4 -2 10.89 2.61
-3 4 -2 8.73 2.11
-4 4 -2 175.5 7.38
-4 4 -2 181.52 8.26
-5 4 -2 -0.19 1.72
-5 4 -2 -0.68 1.06
-6 4 -2 25.67 3.8
-6 4 -2 22.49 4.06
-7 4 -2 0.35 2.08
-7 4 -2 2.84 2.6
-8 4 -2 34.85 5.28
-9 4 -2 0.41 2.9
11 3 -2 -2.44 2.34
10 3 -2 0.47 2.2
9 3 -2 -0.67 1.8
8 3 -2 0.35 1.57
7 3 -2 6.25 2.01
-7 -3 2 3.67 1.85
6 3 -2 5.66 1.89
6 3 -2 3.92 0.95
-6 -3 2 0.36 1.1
5 3 -2 0.8 0.59
5 3 -2 1.5 1.24
-5 -3 2 1.42 1.09
4 3 -2 5.11 1.59
4 3 -2 6.92 0.83
-4 -3 2 7.49 1.62
3 3 -2 12.79 1.91
3 3 -2 10.5 0.78
-3 -3 2 10.91 1.83
2 3 -2 2.51 1.07
2 3 -2 3.08 0.62
-2 -3 2 2.22 1.04
1 3 -2 -0.07 0.57
1 3 -2 -0.24 0.6
-1 -3 2 1.16 0.78
0 3 -2 0.44 0.82
0 3 -2 -0.54 0.49
-1 3 -2 1.82 1.06
-1 3 -2 3.04 1.26
-2 3 -2 0.54 1.1
-2 3 -2 1.9 1.31
-3 3 -2 -0.08 0.82
-3 3 -2 1.77 1.4
-4 3 -2 5.37 1.99
-5 3 -2 0.97 1.77
-5 3 -2 2.03 1.49
-6 3 -2 0.96 1.81
-6 3 -2 -0.15 1.42
-7 3 -2 -0.99 1.86
-8 3 -2 -0.62 2.19
-9 3 -2 -0.32 2.61
11 2 -2 2.69 2.69
10 2 -2 1.65 2.17
9 2 -2 2.95 2.22
8 2 -2 86.98 5.68
7 2 -2 -0.32 1.33
6 2 -2 5.18 1.67
5 2 -2 -0.22 0.87
4 2 -2 346.49 7.27
4 2 -2 369.02 9.53
3 2 -2 2.22 0.95
-3 -2 2 2.23 1.12
2 2 -2 14.81 1.66
1 2 -2 2.69 0.64
1 2 -2 2.19 1.02
-1 -2 2 1.84 0.64
0 2 -2 385.76 8.38
0 2 -2 399.81 9.22
-1 2 -2 24.77 2.19
-2 2 -2 -0.47 0.63
-2 2 -2 5.85 1.38
-3 2 -2 1.84 0.65
-3 2 -2 1.29 1.01
-3 2 -2 0.51 0.63
-4 2 -2 143.19 4.24
-4 2 -2 136.46 6.36
-4 2 -2 136.73 5.81
-5 2 -2 -1.51 0.95
-6 2 -2 7.36 2.54
-7 2 -2 4.65 2.4
-8 2 -2 42.65 5.58
-9 2 -2 3.28 2.9
-10 2 -2 -0.03 2.81
11 1 -2 18.13 4.06
10 1 -2 7.27 2.72
5 1 -2 79.16 4.04
4 1 -2 13.08 1.74
-4 -1 2 14.21 1.31
3 1 -2 95.57 3.59
3 1 -2 96.14 2.45
-3 -1 2 103.22 2.51
2 1 -2 31.84 1.82
1 1 -2 83.81 2.78
0 1 -2 8.26 0.96
0 1 -2 8.08 1.22
-1 1 -2 437.35 10.23
-1 1 -2 419.58 8.22
-2 1 -2 10.69 1.1
-4 1 -2 -0.73 0.62
-4 1 -2 2.77 1.03
-6 1 -2 4.99 1.64
-6 1 -2 1.56 1.59
-7 1 -2 22.1 3.9
-8 1 -2 3.17 2.44
-9 1 -2 9.27 3.42
-10 1 -2 2 2.97
-10 0 2 73.66 7.01
-9 0 2 18.83 3.63
-8 0 2 3.61 1.93
-7 0 2 9.9 1.92
-7 0 2 7.87 2.1
-6 0 2 340.84 10.19
-6 0 2 347.7 9.19
-5 0 2 1.88 1.16
-5 0 2 0.19 0.71
-4 0 2 1.38 0.76
-4 0 2 -0.4 0.84
-3 0 2 11.24 1.41
-3 0 2 9.22 1.09
2 0 -2 630.15 11.62
2 0 -2 598.45 11.44
-2 0 2 600.48 11.31
1 0 -2 10.58 0.77
1 0 -2 12.65 1.28
1 0 -2 12 1
-1 0 2 10.1 0.78
-1 0 2 13.39 1.04
0 0 -2 9.32 1.12
0 0 -2 10.96 1.26
0 0 2 10.36 1.28
-1 0 -2 14.72 1.39
-1 0 -2 12.06 1.52
-2 0 -2 493.52 10.4
-2 0 -2 499.47 11.52
-3 0 -2 -0.81 0.64
-3 0 -2 1.14 1.05
-4 0 -2 1.8 1.04
-4 0 -2 1.51 1.31
-5 0 -2 24.88 3.31
-5 0 -2 33.85 3.05
-6 0 -2 183.65 6.98
-7 0 -2 5.2 2.12
-7 0 -2 3.72 1.99
-8 0 -2 1.33 1.81
-8 0 -2 -0.68 1.68
-9 0 -2 5.58 3.08
-10 0 -2 54.14 7.03
-11 1 2 26.16 4.82
-10 1 2 3.93 2.66
-9 1 2 19.47 3.69
-8 1 2 -0.03 1.35
-8 1 2 3.03 1.76
-7 1 2 53.49 3.8
-7 1 2 54.63 4.23
-6 1 2 -2.01 0.73
-6 1 2 0.09 1.04
-5 1 2 84.21 3.92
-5 1 2 85.92 4.02
-4 1 2 3.43 1.03
-4 1 2 16.02 1.81
-3 1 2 98.7 3.28
-3 1 2 101.5 3.55
2 -1 -2 29.57 1.98
2 -1 -2 31.28 1.42
-2 1 2 33.93 1.87
-2 1 2 30.47 1.3
0 -1 -2 7.53 0.85
0 -1 -2 7.42 1.2
0 1 2 7.58 0.82
0 1 2 5.61 1.1
-1 -1 -2 421.6 9.3
-1 -1 -2 419.35 9.12
-2 -1 -2 12.03 1.77
-2 -1 -2 13.73 1.66
2 1 2 10.05 1.8
-3 -1 -2 79.27 4.09
-3 -1 -2 83.28 3.73
-4 -1 -2 3.36 1.62
-4 -1 -2 4.18 1.35
-5 -1 -2 60.9 4.37
-5 -1 -2 63.63 3.87
-6 -1 -2 4.62 1.64
-6 -1 -2 5.29 2.16
-7 -1 -2 23.41 3.37
-7 -1 -2 19.68 3.51
-8 -1 -2 1.85 2.25
-8 -1 -2 3.52 2.16
-9 -1 -2 13.68 3.9
-9 -1 -2 13.12 3.11
-10 -1 -2 3.67 2.85
-11 2 2 4.87 3
-10 2 2 4.27 2.34
-10 2 2 0.09 1.71
-9 2 2 2.64 2.04
-9 2 2 4.62 2.17
-8 2 2 97.02 5.59
-8 2 2 96.6 5.84
-7 2 2 0.85 1.37
-7 2 2 -1.02 1.03
-6 2 2 7.28 1.76
-6 2 2 2.78 1.48
-5 2 2 -0.3 1
-5 2 2 -0.08 1.02
4 -2 -2 387.07 9.64
-4 2 2 384.67 9.29
-4 2 2 381.89 9.77
3 -2 -2 4.4 1.13
-3 2 2 3.78 0.97
-3 2 2 -0.35 0.8
2 -2 -2 13.93 1.82
-2 2 2 11.97 1.58
-2 2 2 14.29 1.31
1 -2 -2 2.86 0.62
1 -2 -2 3.68 1.25
-1 2 2 3.6 0.96
-1 2 2 2.33 0.59
1 2 2 24.94 2.21
-2 -2 -2 6.79 1.48
-2 -2 -2 5.69 1.36
2 2 2 5.02 1.3
-3 -2 -2 2.24 1.24
-3 -2 -2 2.26 1.32
3 2 2 1.89 1.34
-4 -2 -2 143.8 6.18
-4 -2 -2 134.65 5.53
4 2 2 142.05 6.06
-5 -2 -2 2.16 1.67
-5 -2 -2 0.76 1.26
5 2 2 0.99 1.63
-6 -2 -2 6.48 2.09
-6 -2 -2 8.35 2.5
6 2 2 7.57 2.44
-7 -2 -2 8.19 2.43
-7 -2 -2 3.69 2.15
7 2 2 5.73 2.46
-8 -2 -2 50.3 5.43
-8 -2 -2 46.38 5.75
8 2 2 41.7 5.07
-9 -2 -2 -0.66 2.3
-9 -2 -2 0.56 2.27
9 2 2 -1.42 2.23
-10 -2 -2 1.82 2.62
10 2 2 1.6 2.69
-11 3 2 -1.25 2.06
-11 3 2 -2.22 2.34
-10 3 2 -1.44 2.11
-10 3 2 -1.19 2
-9 3 2 -1.42 1.66
-9 3 2 2.67 2.32
8 -3 -2 -0.47 1.23
-8 3 2 -1.72 1.41
-8 3 2 2.62 1.76
7 -3 -2 2.7 1.55
-7 3 2 0.03 1.36
-7 3 2 4.44 1.87
6 -3 -2 6.48 1.7
-6 3 2 8.38 2.05
-6 3 2 8.5 2.09
5 -3 -2 2.77 1.22
-5 3 2 2.99 1.28
-5 3 2 1.35 1.08
4 -3 -2 7.99 1.6
-4 3 2 6.24 1.52
3 -3 -2 9.43 1.65
-3 3 2 11.73 1.85
-3 3 2 10.09 1.55
2 -3 -2 2.5 1.18
-2 3 2 3.35 1.18
-2 3 2 2.55 1.04
1 -3 -2 2.32 1.02
-1 3 2 0.35 0.49
-1 3 2 0.74 0.73
0 -3 -2 1.34 1.04
0 3 2 0.63 0.92
0 3 2 2.74 0.92
-1 -3 -2 0.05 0.57
1 3 2 3.45 1.17
1 3 2 1.18 0.92
-2 -3 -2 0.99 0.92
2 3 2 0.8 0.95
2 3 2 2.89 1.08
-3 -3 -2 0.36 1.05
3 3 2 1.89 1.15
3 3 2 1.56 1.19
-4 -3 -2 5.98 1.65
4 3 2 3.77 1.48
-5 -3 -2 -0.43 1.02
5 3 2 3.11 1.64
-6 -3 -2 -0.61 1.32
6 3 2 -0.8 1.35
-7 -3 -2 0.21 1.88
7 3 2 -0.37 1.79
-8 -3 -2 0.82 1.78
8 3 2 2.22 2.35
-9 -3 -2 2.31 2.34
9 3 2 -3.22 2.31
9 3 2 2.67 2.75
-10 4 2 2.46 2.59
-10 4 2 0.02 2.39
-9 4 2 -0.67 1.92
-9 4 2 2.78 2.18
8 -4 -2 99.44 5.67
-8 4 2 109.45 6.64
-8 4 2 103.42 6.45
7 -4 -2 6.84 1.93
-7 4 2 4 1.92
-7 4 2 5.43 2.13
6 -4 -2 13.31 2.36
-6 4 2 15.05 2.67
5 -4 -2 1.86 1.37
-5 4 2 4.74 1.62
-5 4 2 4.41 1.59
4 -4 -2 294.66 8.77
-4 4 2 302 9.3
-4 4 2 291.22 8.74
3 -4 -2 3.17 1.24
-3 4 2 2.62 1.19
-3 4 2 -0.87 0.9
2 -4 -2 44.87 3.1
-2 4 2 48.49 2.96
1 -4 -2 -0.02 1.28
-1 4 2 0.2 0.84
-1 4 2 3.49 1.91
0 -4 -2 311.88 8.66
0 4 2 310.86 8.53
-1 -4 -2 1.57 1.04
1 4 2 1.43 1.05
1 4 2 0.89 0.97
-2 -4 -2 37.59 3.38
2 4 2 38.6 2.86
2 4 2 40.2 2.85
3 4 2 14.04 2.29
3 4 2 12.73 2.06
4 4 2 175.57 7.04
4 4 2 168.19 6.59
-5 -4 -2 2.19 1.73
5 4 2 0.99 1.32
5 4 2 -0.53 1.32
-6 -4 -2 20.63 3.55
6 4 2 23.82 3.65
6 4 2 27.13 3.63
-7 -4 -2 -2.82 1.57
7 4 2 5.39 2.24
7 4 2 3.92 2.35
-8 -4 -2 38.46 5.14
8 4 2 29.96 4.18
8 4 2 35.19 4.79
-9 -4 -2 3.12 2.89
9 4 2 1.64 2.67
-10 5 2 -1.5 2.32
-10 5 2 3.61 2.87
-9 5 2 19.78 4.06
-8 5 2 0.9 1.99
-8 5 2 6.1 2.33
-7 5 2 54.42 5.15
-7 5 2 60.23 5.67
6 -5 -2 0.07 1.35
-6 5 2 0.77 1.7
-6 5 2 -1.19 1.09
5 -5 -2 43.26 3.96
-5 5 2 51.41 4.72
-5 5 2 50.64 3.97
4 -5 -2 5.96 1.7
-4 5 2 0.79 1.15
-4 5 2 6.56 1.92
3 -5 -2 41.5 3.04
-3 5 2 41.34 3.62
2 -5 -2 1.26 1.15
-2 5 2 2.39 1.31
-2 5 2 1.65 1.07
1 -5 -2 67.51 3.78
-1 5 2 72.96 4.06
-1 5 2 79.99 3.85
0 -5 -2 12.95 2.08
0 5 2 14.05 1.98
0 5 2 11.62 1.99
-1 -5 -2 112.68 5.24
1 5 2 118.78 5.06
1 5 2 115.16 4.95
-2 -5 -2 1.19 1.32
2 5 2 0.55 1.07
2 5 2 1.03 1.27
-3 -5 -2 64.62 4.46
3 5 2 70.8 4.38
3 5 2 70.87 4.08
-4 -5 -2 1.96 1.39
4 5 2 2.71 1.64
4 5 2 0.45 1.14
-5 -5 -2 22.48 3.49
5 5 2 30.2 3.48
5 5 2 25.01 3.55
-6 -5 -2 8.51 2.7
6 5 2 12.18 3.09
6 5 2 12.24 2.53
-7 -5 -2 16.27 3.44
7 5 2 22.91 3.96
7 5 2 10.94 2.7
-8 -5 -2 0.6 1.94
8 5 2 3.44 2.51
-9 -5 -2 1.87 2.91
9 5 2 3.08 3.33
-9 6 2 1.2 2.93
-9 6 2 4.07 2.96
-8 6 2 1.2 2.19
-8 6 2 5.35 2.18
-7 6 2 1.54 1.94
-7 6 2 2.75 2.09
-6 6 2 152.61 7.53
-6 6 2 161.23 8.06
5 -6 -2 4.26 1.55
-5 6 2 2.74 1.71
-5 6 2 2.11 1.69
4 -6 -2 -0.34 1.22
-4 6 2 0.05 1.16
-4 6 2 0.8 1.74
3 -6 -2 -0.49 1.21
-3 6 2 2.93 1.66
-3 6 2 1.84 1.37
2 -6 -2 357.44 10.1
-2 6 2 358.94 10.96
-2 6 2 368.92 10.56
1 -6 -2 0.94 1.25
-1 6 2 0.38 1.27
-1 6 2 3.17 1.51
0 -6 -2 -2.03 1
0 6 2 0.8 1.12
0 6 2 0.01 1.27
-1 -6 -2 0.94 1.36
1 6 2 4.05 1.61
1 6 2 0.11 1.23
-2 -6 -2 255.56 9.11
2 6 2 235.56 8.15
2 6 2 257.78 8.96
-3 -6 -2 0.44 1.42
3 6 2 -1.84 1.32
3 6 2 -0.33 0.93
-4 -6 -2 0.25 1.38
4 6 2 -1.36 1.3
4 6 2 0.71 1.47
-5 -6 -2 0.03 1.51
5 6 2 1.32 1.78
5 6 2 0.74 1.81
-6 -6 -2 115.29 7.23
6 6 2 118.3 7.35
6 6 2 122.54 6.43
-7 -6 -2 2.23 2.14
7 6 2 2.07 2.16
7 6 2 -0.59 1.85
-8 -6 -2 -3.7 2.02
8 6 2 3.06 2.79
-9 7 2 22.34 4.72
-8 7 2 -1.91 2.03
-7 7 2 8.65 2.98
-7 7 2 7.1 2.91
-6 7 2 0.04 1.81
-6 7 2 2.05 2.13
-5 7 2 75.03 5.42
-5 7 2 80.19 5.84
4 -7 -2 0.72 1.53
-4 7 2 -1.45 1.11
-4 7 2 -0.38 1.73
3 -7 -2 26.82 3.05
-3 7 2 28.91 3.73
-3 7 2 31.82 3.91
2 -7 -2 1.92 1.49
-2 7 2 1.02 1.46
-2 7 2 2.77 1.89
1 -7 -2 57.31 3.94
-1 7 2 57.38 4.45
-1 7 2 58.07 4.33
0 -7 -2 0.77 1.35
0 7 2 0.2 1.11
0 7 2 -1.4 1.75
-1 -7 -2 40.88 4.19
1 7 2 41.51 4.03
1 7 2 41.42 4.27
-2 -7 -2 0.13 1.52
2 7 2 1.14 1.85
2 7 2 0.28 1.27
-3 -7 -2 57.3 5.42
3 7 2 65.57 5.02
3 7 2 66.07 4.48
-4 -7 -2 1.69 1.91
4 7 2 -0.75 1.58
4 7 2 2.31 1.75
-5 -7 -2 10.14 3.05
5 7 2 17.11 3.51
5 7 2 12.36 2.61
-6 -7 -2 2.05 1.73
6 7 2 -0.35 1.72
6 7 2 -0.29 1.68
-7 -7 -2 18.59 4.01
7 7 2 24.03 4.52
-8 -7 -2 2.48 2.25
8 7 2 -0.82 2.92
-8 8 2 39.85 5.83
-7 8 2 3.97 2.78
-6 8 2 -2.77 1.9
-6 8 2 2.48 2.04
-5 8 2 -0.4 1.95
-5 8 2 1.36 1.67
-4 8 2 100.13 6.76
-4 8 2 111.45 6.82
3 -8 -2 1.78 1.53
-3 8 2 -0.25 1.72
-3 8 2 3.18 2.15
2 -8 -2 8.75 2.12
-2 8 2 4.62 2.11
-2 8 2 6.77 2.53
1 -8 -2 3.09 1.69
-1 8 2 6.71 2.25
-1 8 2 2.35 2.06
0 -8 -2 131.53 6.49
0 8 2 132.44 6.82
0 8 2 128.41 6.69
-1 -8 -2 1.14 1.55
1 8 2 1.53 1.55
1 8 2 -0.75 1.8
-2 -8 -2 5.84 2.31
2 8 2 2.39 1.69
2 8 2 3.58 2.48
-3 -8 -2 -0.04 1.49
3 8 2 3.08 2.13
3 8 2 2.88 1.7
-4 -8 -2 54.75 5.69
4 8 2 57.88 5.25
4 8 2 52.67 5.48
-5 -8 -2 -1.17 1.95
5 8 2 -0.82 1.92
5 8 2 -0.56 1.57
-6 -8 -2 0.79 2.16
6 8 2 0.12 2.31
-7 -8 -2 -0.13 2.13
7 8 2 1.14 2.86
-7 9 2 0.39 2.5
-6 9 2 0.99 2.24
-5 9 2 0.62 1.62
-4 9 2 -0.5 2.34
-4 9 2 0.1 1.68
-3 9 2 9.45 2.7
-3 9 2 5.9 2.28
2 -9 -2 5.01 2.11
-2 9 2 4.25 2.27
-2 9 2 2.57 2.33
1 -9 -2 6.61 2.29
-1 9 2 5.49 2.83
-1 9 2 2.84 2.08
0 -9 -2 0.13 1.6
0 9 2 0.68 1.75
0 9 2 0.34 2.19
-1 -9 -2 0.85 1.85
1 9 2 1.09 1.79
1 9 2 0.67 2.37
-2 -9 -2 1.46 1.91
2 9 2 6.58 2.26
2 9 2 3.19 2.21
-3 -9 -2 1.12 1.88
3 9 2 1.29 1.79
3 9 2 1.21 2.24
-4 -9 -2 0.2 1.91
4 9 2 -0.81 1.72
4 9 2 0.26 2.06
-5 -9 -2 1.05 2.31
5 9 2 6.4 2.95
-6 -9 -2 -2.36 1.94
6 9 2 2.49 2.79
-6 10 2 3.11 3.01
-5 10 2 1.35 2.46
-4 10 2 21.94 4.31
-3 10 2 -0.12 1.94
-2 10 2 3.78 3.06
-2 10 2 0.59 2.19
1 -10 -2 -1.91 1.75
-1 10 2 0.62 2.15
-1 10 2 -2.15 2.75
0 -10 -2 29.85 4.12
0 10 2 39.2 5.68
0 10 2 19.69 3.71
-1 -10 -2 1.09 1.71
1 10 2 -2.18 2.5
1 10 2 0.09 1.91
-2 -10 -2 6.01 2.52
2 10 2 7.35 2.83
2 10 2 9.29 3.43
-3 -10 -2 0.67 2.19
3 10 2 0.11 2.37
3 10 2 2.06 2.11
-4 -10 -2 29.14 4.87
4 10 2 21.85 4.63
-3 11 2 9.19 3.46
-2 11 2 2.81 2.37
-1 11 2 15.26 3.68
0 11 2 3.27 2.43
0 11 2 -0.72 3.92
-1 -11 -2 14.66 3.4
1 11 2 14.59 4.74
1 11 2 16.59 3.7
-2 -11 -2 1.08 2.15
2 11 2 3.74 4.3
2 11 2 2.74 2.29
3 11 -3 0.25 3.7
2 11 -3 -0.98 3.31
1 11 -3 31.73 5.81
0 11 -3 1.51 3.3
-1 11 -3 1.43 3.4
5 10 -3 2.13 3.1
-5 -10 3 1.57 2.51
4 10 -3 18.77 4.28
-4 -10 3 14.49 3.19
3 10 -3 3.69 2.97
2 10 -3 25.54 4.87
1 10 -3 6.23 3.03
0 10 -3 10.44 3.36
-1 10 -3 0.67 2.06
-1 10 -3 -1.18 2.44
-2 10 -3 25.92 5.04
-2 10 -3 17.84 3.68
-3 10 -3 2.18 2.93
-3 10 -3 -1.31 1.99
-4 10 -3 7.87 4.49
-4 10 -3 12.76 3.61
7 9 -3 63.23 7.21
-7 -9 3 57.78 6.67
6 9 -3 -1.61 1.95
-6 -9 3 3.86 2.43
5 9 -3 1.59 2.55
-5 -9 3 2.62 2.27
4 9 -3 -0.87 2.21
-4 -9 3 0.23 1.53
3 9 -3 112.37 7.64
-3 -9 3 117.55 6.37
2 9 -3 -0.23 2.09
1 9 -3 5.55 2.68
1 9 -3 -0.71 1.69
0 9 -3 1.7 1.74
0 9 -3 -0.86 2.35
-1 9 -3 88.03 5.77
-1 9 -3 89.28 8.14
-2 9 -3 -1.73 2.12
-2 9 -3 -1.69 1.87
-3 9 -3 -1.15 2.34
-3 9 -3 0.77 1.93
-4 9 -3 1.99 2.11
-4 9 -3 0.89 3.17
-5 9 -3 45.29 5.86
-5 9 -3 55.76 7.2
8 8 -3 20.04 4.39
-8 -8 3 17.19 4.19
7 8 -3 1.51 2.24
-7 -8 3 1.71 2.17
6 8 -3 26.17 4.38
-6 -8 3 20.17 3.81
5 8 -3 3.22 2.27
-5 -8 3 1.53 1.81
4 8 -3 25.36 4.16
-4 -8 3 24.72 3.68
3 8 -3 4.26 1.95
-3 -8 3 7.52 2.03
2 8 -3 20.11 4.01
-2 -8 3 23.33 3.01
1 8 -3 1.41 2.2
1 8 -3 0.18 1.25
0 8 -3 40.36 3.9
0 8 -3 37.09 5.16
-1 8 -3 -0.46 1.78
-1 8 -3 -0.92 1.53
-2 8 -3 23.28 3.59
-2 8 -3 25.8 4.52
-3 8 -3 1.42 1.88
-3 8 -3 0.6 2.15
-4 8 -3 6.66 3.71
-4 8 -3 8.75 2.92
-5 8 -3 1.57 2.18
-5 8 -3 -0.51 2.67
-6 8 -3 2.33 2.67
-6 8 -3 4.02 3.4
9 7 -3 34.41 5.67
8 7 -3 1.39 2.75
7 7 -3 9.49 3.16
-7 -7 3 14.3 3.36
6 7 -3 -0.43 1.5
-6 -7 3 -0.06 1.86
5 7 -3 60.95 6.1
-5 -7 3 72.92 5.25
4 7 -3 2.75 1.83
-4 -7 3 4.11 1.83
3 7 -3 3.9 2.18
-3 -7 3 4.69 1.75
2 7 -3 0.99 1.76
2 7 -3 2 1.24
-2 -7 3 2.29 1.41
1 7 -3 90.24 4.48
1 7 -3 83.43 5.86
-1 -7 3 86.65 4.06
0 7 -3 -1.56 1.44
0 7 -3 0.66 1.29
-1 7 -3 7.83 2.06
-1 7 -3 8.23 2.8
-2 7 -3 1.6 1.49
-2 7 -3 2.31 2.3
-3 7 -3 64.81 5.64
-3 7 -3 69.41 6.71
-4 7 -3 -0.26 1.8
-4 7 -3 -2.27 2.49
-5 7 -3 0.49 2.02
-5 7 -3 0.71 2.25
-6 7 -3 6.25 3.18
-6 7 -3 -0.4 2.08
-7 7 -3 19.45 4.45
-7 7 -3 18.8 4.81
9 6 -3 -1.72 2.24
8 6 -3 5.53 2.69
7 6 -3 -1.22 1.75
-7 -6 3 -1.56 1.51
6 6 -3 2.19 1.89
-6 -6 3 2.94 2.05
5 6 -3 0.08 1.64
-5 -6 3 0.4 1.39
4 6 -3 2.56 1.72
-4 -6 3 2.24 1.42
3 6 -3 -0.13 1.28
3 6 -3 0.94 0.8
-3 -6 3 0.52 1.26
2 6 -3 2.05 1.26
2 6 -3 4.07 1.17
-2 -6 3 1.83 1.22
1 6 -3 0.07 0.98
1 6 -3 0.59 0.99
-1 -6 3 2.02 1.07
0 6 -3 -1.02 1
0 6 -3 1.16 1.28
-1 6 -3 -1.02 1.29
-1 6 -3 -0.97 1.22
-2 6 -3 5.22 2.15
-2 6 -3 3.95 1.85
-3 6 -3 0.31 2.09
-3 6 -3 0.22 1.34
-4 6 -3 4.3 2.72
-4 6 -3 2.46 1.89
-5 6 -3 1.46 1.77
-5 6 -3 0.29 2.44
-6 6 -3 2.02 2.53
-6 6 -3 -1.61 1.89
-7 6 -3 0.44 2.69
-7 6 -3 1.86 1.99
-8 6 -3 0.96 3.21
10 5 -3 2.29 2.71
9 5 -3 47.63 5.79
8 5 -3 8.8 2.84
7 5 -3 -0.48 1.68
6 5 -3 3.27 1.99
-6 -5 3 4.41 2.02
5 5 -3 153.95 7.23
-5 -5 3 153.47 7
4 5 -3 1.58 1.51
-4 -5 3 1.66 1.45
3 5 -3 1.74 1.46
3 5 -3 5.48 0.98
-3 -5 3 5.37 1.57
2 5 -3 4.19 1.07
2 5 -3 6.66 1.83
-2 -5 3 5.44 1.42
1 5 -3 228.85 6.45
1 5 -3 214.81 7.93
0 5 -3 4.09 1.56
0 5 -3 1.44 1.18
-1 5 -3 13.32 2.11
-2 5 -3 -0.86 1.17
-2 5 -3 -0.41 1.06
-4 5 -3 -0.6 1.38
-4 5 -3 2.08 1.91
-5 5 -3 4.1 2.25
-5 5 -3 0.52 1.58
-6 5 -3 3.07 2.76
-6 5 -3 2.27 2.11
-7 5 -3 29.94 4.87
-7 5 -3 33.57 4.74
-8 5 -3 -1.38 2.42
10 4 -3 9.42 3.33
9 4 -3 -0.67 1.94
8 4 -3 69.89 6.24
7 4 -3 5.7 2.06
6 4 -3 38.41 4.13
5 4 -3 4.1 1.73
4 4 -3 62.05 4
-4 -4 3 61.94 3.9
3 4 -3 2.81 1.42
-3 -4 3 0.37 0.53
2 4 -3 85.48 2.92
2 4 -3 83.59 4.5
1 4 -3 0.13 0.74
1 4 -3 -1.2 1
0 4 -3 144.2 5.02
0 4 -3 142.13 5.94
-1 4 -3 2.43 1.23
-1 4 -3 2.52 1.25
-2 4 -3 21.7 2.73
-3 4 -3 9.25 2.13
-3 4 -3 -0.9 1.16
-4 4 -3 44.45 4.44
-5 4 -3 1.36 1.53
-5 4 -3 0.05 1.68
-6 4 -3 19.3 3.79
-6 4 -3 16.94 3.35
-7 4 -3 -2.19 1.59
-8 4 -3 9.13 3.49
-9 4 -3 -2.27 2.81
11 3 -3 60.59 6.68
10 3 -3 1.99 2.46
9 3 -3 1.21 1.91
8 3 -3 0.36 1.69
7 3 -3 157.55 7.35
6 3 -3 2.73 1.63
5 3 -3 3.09 1.39
4 3 -3 8.27 1.78
3 3 -3 573.77 13.55
2 3 -3 8.51 1.68
2 3 -3 6.41 0.78
1 3 -3 0.33 0.63
1 3 -3 -0.62 0.91
0 3 -3 0.8 0.87
0 3 -3 0.19 1.14
-1 3 -3 469.87 11.22
-1 3 -3 460.95 12.19
-2 3 -3 11.73 2.07
-2 3 -3 9.83 2.25
-3 3 -3 0.49 1.17
-3 3 -3 1.96 1.38
-4 3 -3 -0.47 0.89
-4 3 -3 -1.21 0.95
-5 3 -3 175.44 8.57
-6 3 -3 1.74 1.6
-7 3 -3 -0.04 2
-8 3 -3 4.03 2.77
-9 3 -3 42.4 6.11
11 2 -3 5.16 3.03
10 2 -3 22.35 3.91
9 2 -3 -0.56 1.53
8 2 -3 29.76 3.82
7 2 -3 3.6 1.53
6 2 -3 105.67 5.23
5 2 -3 15.36 2.25
4 2 -3 75.37 3.73
3 2 -3 1.83 0.97
2 2 -3 197.42 5.85
-2 -2 3 194.92 4.08
1 2 -3 12.56 1.73
0 2 -3 66.76 3.42
0 2 -3 65.56 2.43
-1 2 -3 -0.04 0.55
-1 2 -3 0.84 1.08
-2 2 -3 77.73 2.42
-2 2 -3 78.98 4.53
-3 2 -3 1.36 1.45
-3 2 -3 1.52 0.7
-4 2 -3 29.58 1.95
-4 2 -3 34.11 3.93
-5 2 -3 -0.09 0.9
-5 2 -3 -0.45 1.04
-6 2 -3 33.91 4.41
-7 2 -3 3.54 2.21
-8 2 -3 10.26 3.48
-9 2 -3 1.22 2.59
11 1 -3 -1.56 2.55
10 1 -3 4.18 2.14
9 1 -3 93.37 6
8 1 -3 -0.36 1.29
7 1 -3 21.67 2.98
6 1 -3 11.61 2.03
-6 -1 3 14.95 1.69
5 1 -3 234.35 7.13
-5 -1 3 227.75 5.64
4 1 -3 -0.2 0.69
-4 -1 3 0.3 0.5
3 1 -3 51.28 1.53
3 1 -3 47.76 2.52
-3 -1 3 51.31 1.61
2 1 -3 40.65 2.07
-2 -1 3 42.95 1.57
1 1 -3 980 18.63
1 1 -3 976.58 18.63
-1 -1 3 1000 18.45
0 1 -3 1.88 1.01
0 1 -3 0.81 0.9
-1 1 -3 86.47 3.01
-1 1 -3 90.4 4.08
-2 1 -3 8.45 1.83
-2 1 -3 6.2 1.09
-3 1 -3 287.75 9.2
-3 1 -3 275.45 6.88
-4 1 -3 6.4 1.89
-4 1 -3 2.7 1.04
-5 1 -3 19.72 3.35
-5 1 -3 22.8 2.39
-6 1 -3 0.1 1.42
-6 1 -3 -2.36 0.99
-7 1 -3 85.55 6.6
-8 1 -3 1.73 2.16
-9 1 -3 8.26 3.4
11 0 -3 -1.34 2.05
-8 0 3 -0.35 1.41
-8 0 3 0.59 1.18
-7 0 3 -0.34 1.18
-7 0 3 0.17 0.92
-6 0 3 -1.32 0.77
-5 0 3 -0.3 0.68
4 0 -3 -0.05 0.67
-4 0 3 -0.67 0.59
3 0 -3 -0.25 0.58
-3 0 3 -0.05 0.59
2 0 -3 0.43 0.44
2 0 -3 1.34 0.91
-2 0 3 -0.42 0.49
1 0 -3 -1.11 0.66
1 0 -3 -0.55 0.6
-1 0 3 0.26 0.74
0 0 -3 -0.21 0.87
0 0 -3 0.15 0.8
0 0 3 0.16 0.73
-1 0 -3 0.15 0.79
-1 0 -3 -1.19 0.91
-2 0 -3 0.87 1.1
-2 0 -3 1.12 0.88
-3 0 -3 0.57 1.08
-3 0 -3 0.14 0.91
-4 0 -3 1.19 1.42
-4 0 -3 1.56 0.99
-5 0 -3 0.75 1.49
-5 0 -3 -1.7 1.05
-6 0 -3 -0.27 1.34
-6 0 -3 -0.05 1.67
-7 0 -3 1.04 1.89
-7 0 -3 -0.52 1.47
-8 0 -3 -0.85 2.01
-9 0 -3 -1.16 2.52
-11 1 3 6.65 3.15
-10 1 3 0.72 1.86
-9 1 3 88.65 5.41
-9 1 3 89.39 6.02
-8 1 3 0.86 1.43
-8 1 3 -0.81 1.3
-7 1 3 22.68 2.97
-7 1 3 22.92 2.76
-6 1 3 12.02 2.03
-6 1 3 13.78 1.96
-5 1 3 227.79 6.69
-5 1 3 230.99 6.84
-4 1 3 -1 0.63
-4 1 3 -0.46 0.78
3 -1 -3 53.74 3.02
-3 1 3 52.49 2.6
1 -1 -3 962.62 19.46
-1 1 3 983.49 18.63
0 -1 -3 1.07 0.96
0 -1 -3 1.11 0.74
0 1 3 1.61 0.95
-1 -1 -3 86.54 3.57
-2 -1 -3 3.96 1.25
-2 -1 -3 3.57 1.4
2 1 3 0.37 1.13
-3 -1 -3 313.25 9.58
-3 -1 -3 316.86 8.84
-4 -1 -3 3.09 1.29
-4 -1 -3 8.38 2.11
-5 -1 -3 31.97 3.93
-5 -1 -3 27.58 3.14
-6 -1 -3 0.39 1.62
-6 -1 -3 -1.1 1.23
-7 -1 -3 88.23 5.6
-7 -1 -3 78.2 6.41
-8 -1 -3 2.72 2.11
-8 -1 -3 -1.61 2.08
-9 -1 -3 10.19 3.58
-11 2 3 11.37 3.45
-10 2 3 23.15 3.9
-10 2 3 18 3.43
-9 2 3 -0.23 1.94
-9 2 3 1.55 1.79
-8 2 3 28.48 3.57
-8 2 3 31.37 3.74
-7 2 3 4.08 1.63
-7 2 3 2.81 1.58
-6 2 3 128.92 5.19
-6 2 3 102.18 5.04
5 -2 -3 13.28 2.12
-5 2 3 15.78 2.15
4 -2 -3 78.71 3.92
-4 2 3 86.46 3.9
-4 2 3 80.54 3.15
3 -2 -3 1.42 1.07
-3 2 3 0.43 0.89
-3 2 3 0.77 0.57
-1 -2 -3 0.89 1.05
-1 -2 -3 -0.36 0.66
1 2 3 0.02 0.64
-2 -2 -3 73.92 3.77
-2 -2 -3 68.29 3.77
2 2 3 67.83 3.8
-3 -2 -3 0.91 1.2
-3 -2 -3 0.06 1.24
3 2 3 0.5 1.43
-4 -2 -3 33.1 3.44
-4 -2 -3 36.93 3.92
4 2 3 40.22 4.03
-5 -2 -3 -0.86 1.1
-5 -2 -3 1.52 1.86
5 2 3 -1.9 1.38
-6 -2 -3 33.05 3.9
-6 -2 -3 27.34 4.07
6 2 3 31.37 4.26
-7 -2 -3 2.91 2.25
-7 -2 -3 0.72 1.73
7 2 3 3.83 2.3
-8 -2 -3 15.15 3.82
-8 -2 -3 18.91 3.7
8 2 3 12.71 3.73
-9 -2 -3 2.24 2.69
-9 -2 -3 1.49 2.52
9 2 3 1.89 2.48
10 -3 -3 2.02 1.99
-10 3 3 1.42 2.26
-10 3 3 5.69 2.64
9 -3 -3 -0.81 1.49
-9 3 3 0.08 1.76
-9 3 3 -0.92 1.54
8 -3 -3 -1.69 1.34
-8 3 3 1.65 1.6
-8 3 3 0 1.5
7 -3 -3 166.76 7.11
-7 3 3 173.06 7.31
-7 3 3 170.42 6.97
6 -3 -3 2.55 1.41
-6 3 3 1.23 1.22
-6 3 3 0.11 1.17
5 -3 -3 1.32 1.26
-5 3 3 1.35 1.06
-5 3 3 2.82 1.35
4 -3 -3 6.29 1.67
-4 3 3 8.96 1.34
-4 3 3 7.72 1.72
3 -3 -3 600.7 14.32
-3 3 3 599.26 12.04
-3 3 3 584.11 13.75
2 -3 -3 9.26 1.93
-2 3 3 7.41 1.06
-2 3 3 4.64 1.24
1 -3 -3 -0.63 0.98
-1 3 3 0.31 0.62
-1 3 3 1.37 1.06
0 -3 -3 -0.59 0.67
0 3 3 0.01 0.61
0 3 3 -0.12 0.62
-1 -3 -3 458.47 11.7
1 3 3 454.35 11.32
-2 -3 -3 12.39 2.17
2 3 3 11.78 1.82
2 3 3 12.24 2.01
-3 -3 -3 0 1.34
3 3 3 1.46 1.37
-4 -3 -3 1.67 1.46
-4 -3 -3 0.6 1.49
4 3 3 0.58 1.3
-5 -3 -3 186.92 8.3
-5 -3 -3 178.65 7.62
5 3 3 177.74 7.7
-6 -3 -3 1.21 1.76
-6 -3 -3 2.71 2
6 3 3 1.37 1.92
-7 -3 -3 0.03 1.79
-7 -3 -3 2.95 2.18
7 3 3 1.26 2.04
-8 -3 -3 6.67 2.86
8 3 3 2.77 2.63
-9 -3 -3 59.01 6.82
9 3 3 43.39 5.69
-10 4 3 8.94 3.14
9 -4 -3 1.47 1.92
-9 4 3 -3.01 1.41
-9 4 3 -1.67 1.7
8 -4 -3 70.43 4.94
-8 4 3 57.07 5.11
-8 4 3 71.24 6.1
7 -4 -3 3.3 1.84
-7 4 3 1.04 1.68
-7 4 3 1.47 1.54
6 -4 -3 43.62 4.2
-6 4 3 36.49 3.43
-6 4 3 34.4 3.77
5 -4 -3 4.1 1.78
-5 4 3 3.53 1.58
-5 4 3 5.39 1.44
4 -4 -3 62.68 4.03
-4 4 3 56.49 3.93
3 -4 -3 1.6 1.21
-3 4 3 0.62 0.87
-3 4 3 0.1 0.97
2 -4 -3 85.29 4.45
-2 4 3 89.7 3.54
-2 4 3 84.94 4.24
1 -4 -3 0.08 0.98
-1 4 3 0.38 0.77
-1 4 3 -0.76 0.55
0 -4 -3 148.03 5.84
0 4 3 147.91 5.46
0 4 3 116.89 4.43
-1 -4 -3 1.99 1.09
1 4 3 -1.18 0.91
1 4 3 2.06 0.91
2 4 3 18.64 2.35
2 4 3 17.34 2.46
-3 -4 -3 0.44 1.24
3 4 3 9.58 2.02
3 4 3 6.76 1.86
-4 -4 -3 49.15 4.55
4 4 3 45.04 4.26
4 4 3 41.28 4.08
-5 -4 -3 1.06 1.68
5 4 3 -0.54 1.43
5 4 3 0.14 1.44
-6 -4 -3 16.27 3.31
6 4 3 14.85 2.98
6 4 3 25.21 3.97
-7 -4 -3 -4.36 1.49
7 4 3 2.44 1.97
7 4 3 0.97 2.18
-8 -4 -3 13.73 3.57
8 4 3 7.97 2.92
8 4 3 14.73 3.85
-9 -4 -3 0.98 2.51
9 4 3 -4 2.62
9 4 3 -1.52 2.98
-10 5 3 -1.15 2.16
-9 5 3 52.05 5.94
-8 5 3 6.13 2.48
-8 5 3 6.6 2.4
7 -5 -3 3.12 2.06
-7 5 3 2.01 1.91
-7 5 3 -0.23 1.52
6 -5 -3 2.7 1.87
-6 5 3 4.09 1.69
-6 5 3 2.68 1.63
5 -5 -3 160.2 7.1
-5 5 3 161.74 7.21
-5 5 3 163.22 6.33
4 -5 -3 0.46 1.29
-4 5 3 2.19 1.48
-4 5 3 0.28 1.12
3 -5 -3 5.94 1.72
-3 5 3 0.5 0.9
-3 5 3 -1.14 0.85
2 -5 -3 4.57 1.58
-2 5 3 -1.01 0.74
-2 5 3 2.86 1.27
1 -5 -3 238.31 8.05
-1 5 3 220.75 7.62
0 -5 -3 2.79 1.71
0 5 3 5.87 1.69
0 5 3 2.72 1.23
-1 -5 -3 12.48 2.24
1 5 3 16.18 2.35
1 5 3 13.3 2.1
-2 -5 -3 -0.36 1.31
2 5 3 0.45 1.16
2 5 3 0.96 1.16
3 5 3 150.76 6.63
3 5 3 138.32 6.27
-4 -5 -3 -0.28 1.12
4 5 3 3.03 1.66
4 5 3 -0.27 1.53
-5 -5 -3 0.66 1.69
5 5 3 0.48 1.59
5 5 3 -1.17 1.57
-6 -5 -3 2.78 2.31
6 5 3 1.04 1.75
6 5 3 -0.24 1.82
-7 -5 -3 32.67 4.83
7 5 3 33.03 4.35
7 5 3 32.47 4.78
-8 -5 -3 -0.06 2.31
8 5 3 0.8 2.1
8 5 3 -4 2.11
-10 6 3 -3.77 2.51
-9 6 3 -3.83 2.01
-8 6 3 0.2 2.02
-7 6 3 -0.66 1.78
-7 6 3 1.41 1.95
6 -6 -3 2.44 1.78
-6 6 3 1.94 1.69
-6 6 3 2.33 1.7
5 -6 -3 0.45 1.54
-5 6 3 0.19 1.46
-5 6 3 1.23 1.62
4 -6 -3 3.72 1.81
-4 6 3 8.76 2.38
-4 6 3 1.78 1.51
3 -6 -3 1.68 1.26
-3 6 3 -0.4 0.86
-3 6 3 0.75 1.2
2 -6 -3 -0.32 1.27
-2 6 3 0.42 1.23
-2 6 3 2.81 1.33
1 -6 -3 1 1.53
-1 6 3 0.5 1.27
-1 6 3 2.7 1.36
0 -6 -3 1.06 1.46
0 6 3 -0.47 1.19
0 6 3 1.84 1.32
-1 -6 -3 -0.78 1.26
1 6 3 -1.94 0.91
1 6 3 0.29 1.21
-2 -6 -3 5.45 1.98
2 6 3 4.26 1.85
2 6 3 5.64 1.75
-3 -6 -3 1.04 1.52
3 6 3 1.73 1.57
3 6 3 2.56 1.54
-4 -6 -3 7.63 2.14
4 6 3 3.32 1.88
4 6 3 4.98 2.13
-5 -6 -3 1.63 1.79
5 6 3 1.65 1.67
5 6 3 0.98 1.92
-6 -6 -3 0.96 2.14
6 6 3 1.68 1.74
6 6 3 1.92 2.16
-7 -6 -3 1.03 2.49
7 6 3 1.41 2.19
7 6 3 0.31 2.46
-8 -6 -3 1.51 2.65
8 6 3 0.91 2.84
-9 7 3 14.14 3.86
-8 7 3 0.42 2.47
-7 7 3 21.38 4.11
-6 7 3 0.58 1.91
5 -7 -3 64.43 4.56
-5 7 3 74.28 6.44
-5 7 3 68.45 5.13
4 -7 -3 1.89 1.74
-4 7 3 3.51 2.26
-4 7 3 5.77 2.05
3 -7 -3 4.75 1.97
-3 7 3 4.83 2.04
-3 7 3 4.6 1.87
2 -7 -3 -1.65 1.35
-2 7 3 4.67 1.92
-2 7 3 3.09 1.84
1 -7 -3 84.53 5.13
-1 7 3 83.23 4.88
-1 7 3 80.6 5.15
0 -7 -3 -0.8 1.47
0 7 3 -0.14 1.2
0 7 3 -0.11 1.4
-1 -7 -3 8.31 2.29
1 7 3 8.49 2.46
1 7 3 7.04 2.17
-2 -7 -3 -1.91 1.61
2 7 3 0.02 1.34
2 7 3 1.38 1.32
-3 -7 -3 68.67 5.48
3 7 3 63.83 4.76
3 7 3 69.29 5.18
-4 -7 -3 -0.64 1.57
4 7 3 -0.47 1.69
4 7 3 0.35 1.47
-5 -7 -3 3.63 2.22
5 7 3 6.87 2.3
5 7 3 3.8 2.36
-6 -7 -3 2.09 2.18
6 7 3 1.11 2.1
6 7 3 0.17 1.99
-7 -7 -3 19.74 4.41
7 7 3 22.22 4.53
-8 8 3 14.25 4.13
-7 8 3 1.01 2.16
-6 8 3 19.56 3.8
-5 8 3 1.72 1.93
4 -8 -3 22.9 3.43
-4 8 3 28.14 4.22
3 -8 -3 9.27 2.45
-3 8 3 4.45 2.26
-3 8 3 2.96 2.05
2 -8 -3 19.64 3.09
-2 8 3 22.38 3.61
-2 8 3 24.99 3.75
1 -8 -3 1.93 1.72
-1 8 3 -3.21 2.05
-1 8 3 0.62 1.55
0 -8 -3 42.5 4.71
0 8 3 44.07 4.63
0 8 3 44.96 4.8
-1 -8 -3 3.2 2.03
1 8 3 4.4 2.16
1 8 3 1.76 1.65
-2 -8 -3 16.44 3.5
2 8 3 24.86 3.86
2 8 3 25.33 3.56
-3 -8 -3 1.36 2.27
3 8 3 1.16 1.73
3 8 3 2.49 1.88
-4 -8 -3 6.1 2.49
4 8 3 8.94 2.45
4 8 3 14.14 3.48
-5 -8 -3 1.21 2.04
5 8 3 -1.71 1.64
5 8 3 2.12 2.47
-6 -8 -3 8.4 3.18
6 8 3 8.23 3.35
-7 9 3 59.5 7.13
-6 9 3 2.5 2.39
-5 9 3 0.6 1.91
-4 9 3 4.35 2.37
3 -9 -3 104.07 6.07
-3 9 3 110.37 7.13
2 -9 -3 -0.39 1.8
-2 9 3 2.25 1.97
1 -9 -3 0.6 1.85
-1 9 3 1.03 2.2
-1 9 3 2.91 2.05
0 -9 -3 -0.36 1.71
0 9 3 2.13 2.17
0 9 3 1.85 1.94
-1 -9 -3 89.97 6.35
1 9 3 85.61 6.07
1 9 3 90.86 6.31
-2 -9 -3 1.56 1.94
2 9 3 -1.72 1.77
2 9 3 -0.71 1.37
-3 -9 -3 -0.69 1.91
3 9 3 0.84 1.59
3 9 3 0.72 2.41
-4 -9 -3 0.29 1.86
4 9 3 1.09 2.2
4 9 3 0.46 1.99
-5 -9 -3 39.21 5.71
5 9 3 48.51 6.08
-5 10 3 -0.36 2.4
-4 10 3 9.66 3.41
-3 10 3 1.55 2.25
2 -10 -3 29.57 4.27
-2 10 3 36.7 5.16
1 -10 -3 1.42 1.77
-1 10 3 3.6 2.55
0 -10 -3 8.43 2.89
0 10 3 9.88 2.95
-1 -10 -3 1.46 2.05
1 10 3 1.1 2.07
1 10 3 -0.7 2.67
-2 -10 -3 18.31 3.77
2 10 3 20.88 3.97
2 10 3 16.21 3.86
-3 -10 -3 -1.56 1.71
3 10 3 1.29 2.17
3 10 3 3.77 3.41
-4 -10 -3 9.87 3.47
4 10 3 3.69 3.29
-3 11 3 1.57 2.64
-2 11 3 -1.11 1.99
-1 11 3 32.28 5.09
0 -11 -3 -1.49 2.24
0 11 3 0.2 2.07
-1 -11 -3 -0.55 2
1 11 3 -2.2 1.86
2 11 -4 -1.41 2.93
1 11 -4 13.35 4.5
0 11 -4 -1.12 3.06
5 10 -4 1.85 3.1
4 10 -4 8.12 3.47
3 10 -4 1.25 2.69
2 10 -4 22.62 4.73
1 10 -4 3.08 3.03
0 10 -4 9.11 3.67
-1 10 -4 0.94 2.48
-1 10 -4 1.05 2.31
-2 10 -4 27.46 5.17
-2 10 -4 22.99 4.12
-3 10 -4 -0.15 3.37
-3 10 -4 -1.22 2.02
7 9 -4 1.14 2.5
6 9 -4 4.41 2.83
5 9 -4 6.05 2.49
4 9 -4 -2.37 2.02
3 9 -4 -0.69 1.83
2 9 -4 1.94 2.46
1 9 -4 -1.53 1.96
0 9 -4 2.12 1.83
0 9 -4 -0.79 2.42
-1 9 -4 3.14 2.06
-1 9 -4 9.37 3.47
-2 9 -4 -0.6 1.64
-2 9 -4 -2.16 2.25
-3 9 -4 -1.86 2.3
-3 9 -4 0.49 1.96
-4 9 -4 -1.24 1.85
-4 9 -4 -1.98 2.95
8 8 -4 1.39 2.69
7 8 -4 4 3.02
6 8 -4 36.7 5.45
5 8 -4 1.76 2.14
4 8 -4 -2.11 1.94
3 8 -4 3.14 2.43
2 8 -4 101.69 6.73
1 8 -4 -0.73 1.73
1 8 -4 -0.14 1.35
0 8 -4 0.82 1.49
0 8 -4 3.78 2.52
-1 8 -4 -0.94 1.37
-1 8 -4 0.16 2.24
-2 8 -4 42.56 5.67
-2 8 -4 53.74 5.12
-3 8 -4 -0.15 2.07
-3 8 -4 -1.89 1.53
-4 8 -4 2.15 2.27
-4 8 -4 3.58 3.38
-5 8 -4 -2.57 2.05
-5 8 -4 2.05 3.14
-6 8 -4 17.62 4.65
-6 8 -4 30.81 5.3
9 7 -4 15.58 4.36
8 7 -4 -1.86 2.11
7 7 -4 24.41 4.23
6 7 -4 -1.65 1.53
5 7 -4 47.14 5.31
4 7 -4 1.82 2.06
3 7 -4 43.15 4.78
2 7 -4 4.88 1.5
2 7 -4 2.01 2.27
1 7 -4 42.09 3.59
1 7 -4 30.22 4.39
0 7 -4 7.89 2.86
0 7 -4 11.15 2.27
-1 7 -4 26.67 3.35
-1 7 -4 27.55 4.05
-2 7 -4 0.42 1.51
-2 7 -4 2.46 2.09
-3 7 -4 15.32 3.11
-3 7 -4 27.68 4.84
-4 7 -4 -1.41 1.63
-4 7 -4 1.92 2.37
-5 7 -4 2.51 2.83
-5 7 -4 9.16 3.02
-6 7 -4 1.47 2.43
-6 7 -4 2.73 2.93
10 6 -4 1.08 2.81
9 6 -4 4.4 2.85
8 6 -4 99.41 7.32
7 6 -4 -1.83 1.65
6 6 -4 2.23 2.03
5 6 -4 2.08 1.8
4 6 -4 187.6 8.37
3 6 -4 -3.79 1.37
2 6 -4 -0.42 1.45
2 6 -4 0.71 0.96
1 6 -4 0.43 1.04
1 6 -4 0.04 1.59
0 6 -4 182.61 6.81
0 6 -4 182.79 8.31
-1 6 -4 -1.06 1.31
-1 6 -4 0.35 1.13
-2 6 -4 -0.13 1.68
-2 6 -4 -0.45 1.56
-3 6 -4 3.07 1.89
-3 6 -4 4.77 2.68
-4 6 -4 88.71 7.04
-4 6 -4 90.97 6.27
-5 6 -4 -0.63 2.08
-5 6 -4 2.11 2.2
-6 6 -4 0.65 2.25
-6 6 -4 2.45 2.39
-7 6 -4 3.31 3.05
10 5 -4 0.45 2.68
9 5 -4 15.77 3.76
8 5 -4 2.04 2.25
7 5 -4 32.77 4.57
6 5 -4 9 2.61
5 5 -4 25.86 3.61
4 5 -4 0.49 1.41
3 5 -4 73.2 2.61
3 5 -4 76.05 4.83
2 5 -4 1.22 0.84
2 5 -4 0.49 1.41
1 5 -4 54.41 3.05
1 5 -4 51.89 4.05
0 5 -4 4.05 1.98
0 5 -4 4.82 1.47
-1 5 -4 35.36 4.09
-1 5 -4 41.32 3.68
-2 5 -4 0.06 1.39
-2 5 -4 3.39 1.96
-3 5 -4 26.75 4.23
-3 5 -4 23.81 3.42
-4 5 -4 3.75 2.27
-4 5 -4 0.13 1.79
-5 5 -4 30.58 4.35
-5 5 -4 27.8 4.52
-6 5 -4 0.71 2.43
-7 5 -4 6.2 3
-8 5 -4 0.05 2.16
10 4 -4 23.66 4.4
9 4 -4 1.22 2.2
8 4 -4 10.82 3.03
7 4 -4 -0.69 1.59
6 4 -4 100.94 5.85
5 4 -4 -0.22 1.32
4 4 -4 5.43 1.84
3 4 -4 3.04 1.55
2 4 -4 107.14 5.13
1 4 -4 -0.63 1.28
1 4 -4 -0.35 0.75
0 4 -4 40.6 3.99
0 4 -4 39.83 2.06
0 4 -4 39.77 2.8
-1 4 -4 4.98 1.48
-1 4 -4 2.26 1.61
-2 4 -4 138.07 7.19
-2 4 -4 142.66 6.2
-3 4 -4 4.65 2.15
-3 4 -4 2.52 1.85
-4 4 -4 2.88 1.67
-5 4 -4 -0.75 1.34
-6 4 -4 41.52 5.41
-7 4 -4 -1.66 1.87
-8 4 -4 3.8 3.1
11 3 -4 -1.26 2.5
10 3 -4 -0.3 1.81
9 3 -4 2.75 2.25
8 3 -4 0.16 1.76
7 3 -4 2.21 1.57
6 3 -4 1.75 1.4
5 3 -4 1.22 1.22
4 3 -4 1.33 1.2
3 3 -4 0.03 1.09
2 3 -4 0.15 1.09
0 3 -4 0.12 0.73
0 3 -4 -0.28 1.33
-1 3 -4 5.72 0.95
-1 3 -4 7.18 2.03
-2 3 -4 1.04 1.53
-3 3 -4 3.24 1.93
-4 3 -4 1.02 1.82
-5 3 -4 0.27 1.9
-6 3 -4 -0.79 1.66
-7 3 -4 6.03 2.91
-8 3 -4 0.31 2.48
11 2 -4 3.73 2.5
10 2 -4 48.61 5.43
9 2 -4 17.56 3.26
8 2 -4 10.95 2.45
7 2 -4 1.94 1.48
6 2 -4 185.26 7.05
5 2 -4 7.04 1.64
4 2 -4 17.74 2.2
3 2 -4 -0.59 1.53
2 2 -4 262.36 7.29
-2 -2 4 255.23 6.01
1 2 -4 8.98 1.43
1 2 -4 12.12 1.91
0 2 -4 35.03 2.36
0 2 -4 38.64 3.3
-1 2 -4 6.28 1.96
-1 2 -4 3.27 0.98
-2 2 -4 327.68 10.32
-2 2 -4 321.6 7.37
-3 2 -4 3.17 1.76
-3 2 -4 6.21 1.1
-4 2 -4 19.26 1.94
-4 2 -4 21.79 3.47
-5 2 -4 0.9 1.61
-6 2 -4 65.27 6.31
-7 2 -4 1.39 2.05
-8 2 -4 0.47 1.92
-9 2 -4 1.9 2.5
11 1 -4 6.16 2.93
10 1 -4 2.12 2.03
9 1 -4 26.41 3.68
8 1 -4 10.97 2.37
6 1 -4 0.31 0.99
-6 -1 4 -0.26 0.67
5 1 -4 103.97 4.4
-5 -1 4 98.31 3.06
4 1 -4 3.66 1.03
-4 -1 4 5.93 0.81
3 1 -4 98.02 3.6
-3 -1 4 92.51 2.76
2 1 -4 1.25 0.82
2 1 -4 0.53 0.97
-2 -1 4 -0.25 0.64
1 1 -4 101.21 3.95
1 1 -4 100.44 3.87
-1 -1 4 108 3.89
0 1 -4 3.64 1.42
0 1 -4 0.77 0.99
-1 1 -4 107.88 4.87
-1 1 -4 106.42 4.25
-2 1 -4 0.12 1.26
-2 1 -4 3.64 1
-3 1 -4 42.52 4.11
-4 1 -4 -1.01 1.47
-4 1 -4 1.8 1.11
-5 1 -4 12.41 2.98
-5 1 -4 15.65 2.25
-6 1 -4 3.18 2.22
-7 1 -4 10.75 3.38
-8 1 -4 -2.21 2.2
-9 1 -4 4.42 3.31
10 0 -4 3.86 2.07
9 0 -4 1.76 1.57
8 0 -4 182.95 7.55
-8 0 4 183.88 6.58
7 0 -4 13.06 2.35
-7 0 4 11.72 1.8
6 0 -4 1.04 1.05
-6 0 4 -0.36 0.77
5 0 -4 9.02 1.52
-5 0 4 6.81 1.18
4 0 -4 616.66 12.72
-4 0 4 619.46 12.58
3 0 -4 1.41 1.03
3 0 -4 0.11 0.48
-3 0 4 0.35 0.62
2 0 -4 5.11 0.95
2 0 -4 4.52 1.31
-2 0 4 6.98 1.15
1 0 -4 14.8 1.55
-1 0 4 9.94 1.53
0 0 -4 309.79 7.91
0 0 4 320.45 8.59
-1 0 -4 -0.3 0.77
-1 0 -4 0.63 1.03
1 0 4 -1.03 0.84
-2 0 -4 5.32 1.67
-2 0 -4 4.82 1.31
-3 0 -4 -1.04 1.15
-3 0 -4 0.32 0.83
-4 0 -4 240.42 9.39
-4 0 -4 250.43 7.78
-5 0 -4 1.31 1.31
-5 0 -4 0.3 1.51
-6 0 -4 -1.91 1.31
-6 0 -4 1.86 2.3
-7 0 -4 8.23 3.03
-8 0 -4 37.44 5.39
-9 0 -4 0.05 2.6
11 -1 -4 10.37 2.98
-8 1 4 16.43 2.81
-8 1 4 15.44 2.52
-7 1 4 50.3 3.63
-7 1 4 50.99 3.39
-6 1 4 1.72 1.04
5 -1 -4 104.61 3.91
5 -1 -4 104.14 5.1
-5 1 4 100.74 4.18
4 -1 -4 1.47 1.28
4 -1 -4 3.19 0.8
-4 1 4 0.63 0.75
-3 1 4 37.77 2.32
2 -1 -4 1.39 1.09
-2 1 4 -0.38 0.68
1 -1 -4 97.79 2.78
1 -1 -4 100.92 4.58
-1 1 4 96.39 2.89
0 -1 -4 0.79 1.04
0 -1 -4 0.54 0.82
0 1 4 1.47 1.16
-1 -1 -4 110.49 4.42
-1 -1 -4 108.94 4.88
1 1 4 113.68 5.01
-2 -1 -4 1.84 1.43
-2 -1 -4 1.88 1.19
2 1 4 -0.85 0.62
-3 -1 -4 51.88 4.05
-3 -1 -4 53.4 3.58
3 1 4 54.55 4.05
-4 -1 -4 2.09 1.44
-4 -1 -4 0.97 1.52
4 1 4 3.38 1.9
-5 -1 -4 16.79 3.21
-5 -1 -4 16.81 2.58
-6 -1 -4 5.65 2.16
-6 -1 -4 8.16 2.63
-7 -1 -4 9.8 3.46
-7 -1 -4 12.12 3.01
-8 -1 -4 0.65 2.08
-8 -1 -4 -1.34 2.35
8 1 4 1.2 2.36
-9 -1 -4 0.59 2.61
9 1 4 0.26 2.74
11 -2 -4 1.35 1.92
-10 2 4 58.52 5.74
-9 2 4 20.51 3.25
-9 2 4 11.08 2.67
8 -2 -4 14.81 2.82
-8 2 4 9.81 2.29
-8 2 4 12.37 2.47
7 -2 -4 -1.08 1.17
-7 2 4 0.11 1.32
-7 2 4 -0.09 1.26
6 -2 -4 183.35 7.34
-6 2 4 179.04 6.58
-6 2 4 179.26 6.1
5 -2 -4 6.85 1.81
-5 2 4 5.7 1.17
-5 2 4 7.31 1.7
4 -2 -4 15.74 2.37
-4 2 4 17.4 1.36
-4 2 4 19.01 2.22
3 -2 -4 -1.11 1.43
-3 2 4 1.01 0.92
1 -2 -4 8.07 1.87
-1 2 4 11.11 0.97
-1 2 4 11.38 1.86
-1 2 4 10.03 0.86
0 -2 -4 37.16 3.35
0 -2 -4 40.5 2.14
0 2 4 39.01 2.93
-1 -2 -4 5.37 1.29
-1 -2 -4 5.92 1.67
1 2 4 4.41 1.37
-2 -2 -4 327.69 9.28
-2 -2 -4 328.06 9.58
2 2 4 309.38 9.57
-3 -2 -4 4.12 1.71
-3 -2 -4 8.7 1.97
3 2 4 5.77 1.97
-4 -2 -4 30.54 3.55
-4 -2 -4 23.48 3.41
4 2 4 19.35 3.21
-5 -2 -4 4.81 2.27
-5 -2 -4 2.71 1.66
5 2 4 4.52 2.08
-6 -2 -4 74.74 5.38
-6 -2 -4 71.9 6.73
6 2 4 85.62 6.21
-7 -2 -4 -0.68 2.06
-7 -2 -4 0.96 2.1
7 2 4 2.11 2.26
-8 -2 -4 2.86 2.56
-8 -2 -4 6.02 3
8 2 4 -0.31 2.26
-9 -2 -4 -1.41 3.03
-9 -2 -4 0.12 3.23
9 2 4 -4.08 2.43
11 -3 -4 2.73 2.75
10 -3 -4 1.79 1.97
-10 3 4 0.39 2.03
9 -3 -4 1.29 1.84
8 -3 -4 -0.32 1.28
-8 3 4 0.82 1.51
-8 3 4 -0.68 1.5
7 -3 -4 2.12 1.65
-7 3 4 3.62 1.71
-7 3 4 0.79 1.39
6 -3 -4 -1.5 1.06
-6 3 4 0.78 1.04
-6 3 4 -0.75 1.05
5 -3 -4 3.18 1.55
-5 3 4 2.05 0.9
-5 3 4 0.45 1.09
4 -3 -4 2.54 1.49
-4 3 4 1.69 0.74
-4 3 4 0.38 1.13
3 -3 -4 -0.17 1.27
-3 3 4 -0.63 0.86
2 -3 -4 -0.31 1.21
-2 3 4 -0.56 0.74
1 -3 -4 6.14 1.57
-1 3 4 4.93 1.45
-1 3 4 6.16 0.85
0 -3 -4 -0.59 0.98
0 3 4 0 0.67
0 3 4 0.79 0.82
-1 -3 -4 2.66 1.43
1 3 4 4.53 1.24
1 3 4 5.28 1.7
-2 -3 -4 1.15 1.45
2 3 4 -2.16 1.09
-3 -3 -4 2.54 1.54
-3 -3 -4 5.32 1.75
3 3 4 2.45 1.6
-4 -3 -4 2.69 1.79
-4 -3 -4 2.39 1.77
4 3 4 1.27 1.58
-5 -3 -4 -0.28 1.42
-5 -3 -4 -1.23 1.61
5 3 4 0.42 1.62
-6 -3 -4 -0.28 1.69
-6 -3 -4 1.19 1.99
6 3 4 -1.78 1.46
-7 -3 -4 2.07 2.2
-7 -3 -4 0.18 2.07
7 3 4 0.52 2.31
-8 -3 -4 0.53 2.28
8 3 4 -1.15 2.21
-10 4 4 25.26 4.28
9 -4 -4 6.44 2.71
-9 4 4 6.81 2.5
8 -4 -4 10.53 2.68
-8 4 4 7.25 2.58
7 -4 -4 0.84 1.5
-7 4 4 0.82 1.58
-7 4 4 1.33 1.38
6 -4 -4 99.48 5.8
-6 4 4 102.7 4.6
-6 4 4 106.81 5.74
5 -4 -4 1.25 1.56
-5 4 4 0.12 0.82
-5 4 4 1.02 1.35
4 -4 -4 3.8 1.88
-4 4 4 7.25 1.23
-4 4 4 6.53 1.73
3 -4 -4 5.79 1.8
-3 4 4 1.08 0.85
-3 4 4 3.04 1.26
2 -4 -4 104.03 5.26
-2 4 4 97.72 3.31
-2 4 4 106.59 4.95
1 -4 -4 -1.26 1.22
-1 4 4 -0.64 0.68
-1 4 4 0.06 0.73
0 -4 -4 39.48 3.77
0 4 4 41.72 3.19
-1 -4 -4 0.86 1.01
1 4 4 -0.79 1.19
1 4 4 2.55 1.19
2 4 4 125.57 5.28
2 4 4 119.98 5.81
-3 -4 -4 4.03 1.75
3 4 4 6.51 2.09
3 4 4 6.13 1.84
-4 -4 -4 1.09 1.57
4 4 4 2.48 1.83
4 4 4 4.57 1.94
-5 -4 -4 0.84 1.48
5 4 4 0.3 1.57
5 4 4 2.39 1.64
-6 -4 -4 42.04 5.09
6 4 4 41.64 5.17
6 4 4 53.66 5.37
-7 -4 -4 0 2.15
7 4 4 4.47 2.51
7 4 4 -5.12 1.89
-8 -4 -4 2.87 2.6
8 4 4 5.17 2.73
8 4 4 4.47 3.15
-10 5 4 2.07 2.44
-9 5 4 16.63 3.64
8 -5 -4 4.44 2.41
-8 5 4 2.5 2.25
7 -5 -4 30 4.16
-7 5 4 36.77 4.41
6 -5 -4 8.56 2.71
-6 5 4 10.95 2.59
5 -5 -4 24.46 3.55
-5 5 4 23.53 2.49
-5 5 4 23.29 3.3
4 -5 -4 0.04 1.45
-4 5 4 -0.13 0.85
-4 5 4 -0.81 1.29
3 -5 -4 69.94 4.66
-3 5 4 76.2 3.51
2 -5 -4 0.45 1.34
-2 5 4 1.2 0.93
-2 5 4 2.47 1.14
1 -5 -4 51.67 4.6
-1 5 4 53.35 3.74
0 -5 -4 8.12 2.21
0 5 4 4.91 1.78
0 5 4 4.9 1.39
-1 -5 -4 44.93 4.35
1 5 4 50.24 3.4
1 5 4 43.32 4.04
-2 -5 -4 -1.2 1.04
2 5 4 -1.17 1.09
2 5 4 0.5 1.51
-3 -5 -4 20.57 3.27
3 5 4 20.49 3.15
3 5 4 20.08 3.06
-4 -5 -4 2.93 2
4 5 4 -1.02 1.32
4 5 4 2.3 1.72
-5 -5 -4 29.91 4.24
5 5 4 30.14 4.08
5 5 4 25.15 3.9
-6 -5 -4 4.61 2.45
6 5 4 -1.6 2.01
6 5 4 2.46 2.04
-7 -5 -4 6.48 2.98
7 5 4 2.36 2.64
7 5 4 6.09 2.85
-8 -5 -4 -1.54 2.53
8 5 4 2.44 2.92
8 5 4 -2.2 2.17
-10 6 4 -3.95 2.32
-9 6 4 4.48 2.85
-8 6 4 97.06 6.99
7 -6 -4 2.87 2.23
-7 6 4 4.54 2.24
6 -6 -4 4.43 2.15
-6 6 4 4.94 2.08
5 -6 -4 -0.46 1.59
-5 6 4 0.64 1.38
4 -6 -4 192.26 7.99
-4 6 4 185.39 8.16
-4 6 4 184.4 8.11
3 -6 -4 0.55 1.61
-3 6 4 1.52 1.26
-3 6 4 0.21 1.18
2 -6 -4 -1.12 1.47
-2 6 4 0.43 1.13
-2 6 4 -0.36 1.14
1 -6 -4 -1.51 1.42
-1 6 4 3.01 1.27
-1 6 4 0.95 1.3
0 -6 -4 187.69 8.13
0 6 4 183.94 7.71
0 6 4 193.93 6.94
-1 -6 -4 3.11 1.84
1 6 4 0.17 1.31
1 6 4 0.62 1.54
-2 -6 -4 1.55 1.64
2 6 4 2.92 1.66
2 6 4 0.49 1.55
-3 -6 -4 3.02 1.93
3 6 4 0.79 1.69
3 6 4 1.06 1.51
-4 -6 -4 89.38 6.35
4 6 4 91.71 6.05
4 6 4 89.91 5.9
-5 -6 -4 2.03 2.08
5 6 4 1.07 1.93
5 6 4 -0.97 1.71
-6 -6 -4 2.29 2.61
6 6 4 -0.99 1.85
6 6 4 0.59 2.16
-7 -6 -4 8.54 3.53
7 6 4 1.02 2.5
7 6 4 -0.49 2.61
-9 7 4 19.08 4.5
-8 7 4 3.62 2.64
-7 7 4 24.88 4.21
6 -7 -4 3.08 2.14
-6 7 4 2.35 2.18
5 -7 -4 51.74 5.06
-5 7 4 50.43 5.51
4 -7 -4 0.27 1.62
-4 7 4 0.69 1.42
3 -7 -4 48.81 4.9
-3 7 4 41.93 4.57
2 -7 -4 7.89 2.41
-2 7 4 4.01 1.63
-2 7 4 2.72 1.82
1 -7 -4 36.32 4.44
-1 7 4 28.19 3.51
-1 7 4 33.61 4.01
0 -7 -4 14.54 3.02
0 7 4 13.65 2.86
0 7 4 14.18 2.57
-1 -7 -4 30.7 4.11
1 7 4 26.75 3.65
1 7 4 29.49 3.51
-2 -7 -4 2.16 1.72
2 7 4 2.86 1.9
2 7 4 -1.71 1.74
-3 -7 -4 17.14 3.64
3 7 4 25.49 3.73
3 7 4 21.56 3.6
-4 -7 -4 3.83 2.35
4 7 4 0.41 2.02
4 7 4 2.32 2.07
-5 -7 -4 9.32 2.87
5 7 4 7.02 3.04
5 7 4 7.95 2.71
-6 -7 -4 -1.04 1.97
6 7 4 1.54 2.49
6 7 4 -0.49 2.18
-8 8 4 -0.07 2.38
-7 8 4 3 2.45
-6 8 4 29.96 4.67
5 -8 -4 0.17 1.91
-5 8 4 -0.57 1.47
4 -8 -4 -0.24 1.74
-4 8 4 2.09 1.75
3 -8 -4 1.62 2.17
-3 8 4 2 1.87
2 -8 -4 99.68 6.17
-2 8 4 96.49 6.29
1 -8 -4 2.6 1.79
-1 8 4 2.43 1.89
0 -8 -4 2.36 1.91
0 8 4 -1.35 1.93
0 8 4 0.89 1.72
-1 -8 -4 -0.98 1.65
1 8 4 0.83 1.93
1 8 4 -1.03 1.49
-2 -8 -4 47.24 5.6
2 8 4 57.68 5.38
2 8 4 47.82 5.08
-3 -8 -4 4.03 2.15
3 8 4 2.6 1.96
3 8 4 0.01 1.65
-4 -8 -4 2.24 2.42
4 8 4 5.29 2.62
4 8 4 -1.74 2.24
-5 -8 -4 1.01 2.08
5 8 4 1.47 2.87
5 8 4 4.39 2.57
-6 -8 -4 18.46 4.32
6 8 4 15.81 3.58
6 8 4 12.55 4.08
-7 9 4 0.36 2.25
-6 9 4 -0.92 1.65
-5 9 4 3.33 2.44
4 -9 -4 2.79 2.21
-4 9 4 -0.3 2.02
3 -9 -4 4.08 2.38
-3 9 4 1.75 2.08
2 -9 -4 -2.04 1.53
-2 9 4 0.69 1.64
1 -9 -4 0.13 1.77
-1 9 4 -1.84 1.67
0 -9 -4 -0.73 1.95
0 9 4 -1.99 1.63
-1 -9 -4 6.9 2.75
1 9 4 1.79 2.09
-2 -9 -4 -1.89 2.06
2 9 4 -2.85 2.33
2 9 4 4.49 2.27
-3 -9 -4 -0.91 1.94
3 9 4 3.08 2.81
3 9 4 -1.3 1.68
-4 -9 -4 -1.75 2.07
4 9 4 0.26 2.55
4 9 4 -0.4 1.99
-5 10 4 5.29 2.86
-4 10 4 11.44 3.71
-3 10 4 -1.45 2.11
2 -10 -4 30.1 4.45
-2 10 4 33.63 4.91
1 -10 -4 3 2.35
-1 10 4 1.58 2.02
0 -10 -4 9.82 3.24
0 10 4 8.89 2.99
-1 -10 -4 1.6 2.42
1 10 4 0.06 2.2
-2 -10 -4 26.89 4.89
2 10 4 28.68 4.37
-3 -10 -4 -0.48 2.19
3 10 4 0.66 2.11
-2 11 4 0.63 2.48
1 -11 -4 17.52 3.79
-1 11 4 17.43 4.21
0 -11 -4 1.92 2.62
0 11 4 -1.14 2.14
5 10 -5 0.75 2.96
4 10 -5 24.56 5.29
3 10 -5 -1.94 2.83
2 10 -5 28.33 5.2
1 10 -5 0.72 3.02
0 10 -5 18.17 4.64
-1 10 -5 -0.61 2.36
-2 10 -5 7.33 2.94
-2 10 -5 6.63 3.65
7 9 -5 0.2 2.91
6 9 -5 -3.09 2.68
5 9 -5 75.91 7.53
4 9 -5 -0.16 2.37
3 9 -5 0.06 2.86
2 9 -5 1.13 2.31
1 9 -5 77.5 7.62
0 9 -5 7.54 3.31
-1 9 -5 1.37 2
-1 9 -5 2.19 2.57
-2 9 -5 -0.09 1.95
-2 9 -5 1.63 2.46
-3 9 -5 36.4 5.08
-3 9 -5 44.49 6.83
-4 9 -5 -2.59 2.97
-4 9 -5 -1.21 2.01
8 8 -5 8.41 3.74
7 8 -5 3.32 3
6 8 -5 14.54 3.87
5 8 -5 -2.89 1.43
4 8 -5 15.5 3.81
3 8 -5 3.39 2.72
2 8 -5 10.05 3.16
1 8 -5 -0.35 2.36
0 8 -5 10.15 2.41
0 8 -5 13.21 3.54
-1 8 -5 1.46 1.85
-1 8 -5 1.86 2.49
-2 8 -5 15.51 3.8
-2 8 -5 20.25 3.46
-3 8 -5 -0.09 2.13
-3 8 -5 -0.85 2.86
-4 8 -5 6.5 2.8
-4 8 -5 12.72 3.86
-5 8 -5 1 2.95
-5 8 -5 1.11 2.3
9 7 -5 2.14 2.82
8 7 -5 1.68 2.5
7 7 -5 27.34 4.74
6 7 -5 -0.17 1.9
5 7 -5 2.14 2.57
4 7 -5 7.59 2.76
3 7 -5 60.49 5.91
2 7 -5 -0.68 1.87
1 7 -5 10.8 3.22
1 7 -5 14.8 2.27
0 7 -5 4.13 2.42
0 7 -5 1.83 1.42
-1 7 -5 70.05 4.86
-1 7 -5 59.25 6.29
-2 7 -5 0.11 1.58
-2 7 -5 2.69 2.25
-3 7 -5 9.97 3.73
-3 7 -5 10.95 2.84
-4 7 -5 3.52 2.65
-4 7 -5 2.67 2.27
-5 7 -5 14.88 4.32
-6 7 -5 1.2 2.87
9 6 -5 1.11 2.47
8 6 -5 1.6 2.41
7 6 -5 -0.2 2.09
6 6 -5 8.57 2.88
5 6 -5 4.25 2.14
4 6 -5 -0.55 1.69
3 6 -5 -1.25 1.5
2 6 -5 0.87 0.95
2 6 -5 1.52 2.04
1 6 -5 3.29 1.34
1 6 -5 5.5 2.27
0 6 -5 0.45 1.23
0 6 -5 -1.4 1.45
-1 6 -5 0.44 1.44
-1 6 -5 3.18 2.11
-2 6 -5 1.73 2.35
-2 6 -5 0.86 1.53
-3 6 -5 -0.63 1.54
-3 6 -5 0.91 2.27
-4 6 -5 -0.31 1.94
-5 6 -5 2.32 2.86
-6 6 -5 -2.82 2.29
10 5 -5 -2.03 2.2
9 5 -5 6.94 2.89
8 5 -5 1.5 2.23
7 5 -5 72 5.75
6 5 -5 0.45 1.8
5 5 -5 25.86 3.64
4 5 -5 1.76 1.68
3 5 -5 141.13 6.79
2 5 -5 -0.92 1.49
1 5 -5 11.06 2.58
0 5 -5 -0.69 1.62
-1 5 -5 106 6.59
-2 5 -5 1.77 1.94
-3 5 -5 21.03 3.88
-4 5 -5 -0.59 1.68
-5 5 -5 71.3 7.14
-6 5 -5 -0.74 2.08
-7 5 -5 2.13 2.72
10 4 -5 14.11 3.67
9 4 -5 0.57 2.13
8 4 -5 47.97 5.23
7 4 -5 3.95 2.22
6 4 -5 37.79 4.16
5 4 -5 -0.4 1.2
4 4 -5 62.29 4.36
3 4 -5 -1.09 1.16
2 4 -5 46.63 3.79
1 4 -5 -0.43 0.77
1 4 -5 -0.48 1.43
0 4 -5 74.79 3.18
0 4 -5 78.96 4.95
-1 4 -5 4.13 1.98
-2 4 -5 20.24 3.56
-3 4 -5 3.96 2.18
-4 4 -5 35.22 4.92
-5 4 -5 -0.14 2.09
-6 4 -5 11.66 3.36
-7 4 -5 -2.42 2.54
11 3 -5 0.11 2.32
10 3 -5 11.34 3.1
9 3 -5 108.88 6.79
8 3 -5 0.46 1.66
7 3 -5 -1.56 1.62
6 3 -5 4.24 1.81
5 3 -5 324.2 9.93
4 3 -5 7.62 1.87
3 3 -5 3.05 1.26
-3 -3 5 0.87 0.61
2 3 -5 2.45 1.39
1 3 -5 399.37 11.17
0 3 -5 8.6 2.22
0 3 -5 9.38 1.53
-1 3 -5 2.84 0.91
-1 3 -5 0.29 1.7
-2 3 -5 0.72 1.74
-3 3 -5 146.83 7.64
-4 3 -5 1.5 1.95
-5 3 -5 2.65 2.29
-6 3 -5 1.14 2.51
-7 3 -5 30.25 5.08
-8 3 -5 2.26 2.67
11 2 -5 3.72 2.57
10 2 -5 37.2 4.78
9 2 -5 1.39 1.68
8 2 -5 31.79 3.82
7 2 -5 1.8 1.46
6 2 -5 41.17 3.36
5 2 -5 6.78 1.61
4 2 -5 12.75 1.99
3 2 -5 3.13 1.39
-3 -2 5 1.03 0.6
2 2 -5 96.93 4.31
2 2 -5 102.76 4.57
-2 -2 5 101.66 3.77
1 2 -5 5.28 1.65
1 2 -5 6.97 1.54
0 2 -5 48.55 2.89
0 2 -5 59.36 3.82
-1 2 -5 0.33 1.47
-1 2 -5 1.27 0.9
-2 2 -5 37.47 2.34
-2 2 -5 35.15 3.86
-3 2 -5 0.82 1.01
-3 2 -5 2.26 1.76
-4 2 -5 14.27 3.08
-5 2 -5 -1.15 1.64
-6 2 -5 12.69 3.57
-7 2 -5 6.41 2.86
-8 2 -5 2.68 2.59
11 1 -5 39.51 5.15
10 1 -5 4.39 2.26
9 1 -5 9.16 2.42
8 1 -5 1.02 1.57
7 1 -5 97.33 5.06
6 1 -5 3.45 1.31
-6 -1 5 2.58 0.84
5 1 -5 21.33 2.31
-5 -1 5 21.71 1.5
4 1 -5 0.13 0.85
-4 -1 5 0.24 0.56
3 1 -5 166.03 5.22
3 1 -5 156.96 6.03
-3 -1 5 171.23 4.64
2 1 -5 2.77 1.17
2 1 -5 4.09 1.36
-2 -1 5 1.25 0.95
1 1 -5 26.21 2.67
1 1 -5 29.12 2.61
-1 -1 5 27.85 2.62
0 1 -5 1.72 1.31
0 1 -5 3.74 1.32
0 -1 5 0.64 1.26
-1 1 -5 151.74 6.19
-2 1 -5 1.36 1.51
-2 1 -5 1.84 1.06
-3 1 -5 8.83 2.15
-3 1 -5 12.91 1.93
-4 1 -5 3.76 2.01
-4 1 -5 2.96 1.29
-5 1 -5 38.38 4.78
-6 1 -5 1.6 2.28
-7 1 -5 8.22 3.28
-8 1 -5 3.46 2.77
10 0 -5 -0.9 1.69
9 0 -5 -0.28 1.35
8 0 -5 0.46 1.27
7 0 -5 1.43 1.38
-7 0 5 0.3 0.98
6 0 -5 -0.12 0.86
-6 0 5 0.39 0.87
5 0 -5 1.65 0.92
-5 0 5 0.67 0.74
4 0 -5 -0.28 1.05
4 0 -5 0.77 0.68
-4 0 5 1.65 0.82
3 0 -5 -0.12 1.1
3 0 -5 -0.05 0.64
-3 0 5 -0.54 0.64
2 0 -5 1.21 0.86
2 0 -5 -1.21 1.1
-2 0 5 0.14 0.77
1 0 -5 1.83 1.6
1 0 -5 0.3 0.84
-1 0 5 0.26 0.96
0 0 -5 1.06 1.09
0 0 -5 -0.63 1.01
0 0 5 -0.93 1.13
-1 0 -5 -0.98 1.14
-1 0 -5 0.21 1.23
1 0 5 -1.28 1.1
-2 0 -5 0.89 1.14
-2 0 -5 1.06 1.34
2 0 5 -1.28 1.13
-3 0 -5 -2.32 0.78
-3 0 -5 1.06 1.42
-4 0 -5 2.02 1.8
-4 0 -5 0.38 1.4
-5 0 -5 -1.22 1.32
-5 0 -5 -1.13 1.41
-6 0 -5 -2.48 1.68
-6 0 -5 0.67 2.02
-7 0 -5 4.17 2.88
-8 0 -5 4.89 3.27
9 -1 -5 10.62 2.4
8 -1 -5 0.66 1.34
-8 1 5 2 1.35
7 -1 -5 106.87 4.84
7 -1 -5 105.34 6.09
-7 1 5 109.96 4.94
6 -1 -5 2.83 1.08
6 -1 -5 2.34 1.83
-6 1 5 2.24 1.33
5 -1 -5 27.74 3.32
5 -1 -5 24.89 1.77
-5 1 5 30.39 2.72
4 -1 -5 0.56 0.5
4 -1 -5 0.78 0.99
-4 1 5 0.3 0.86
3 -1 -5 159.63 6.33
-3 1 5 158.8 5.22
2 -1 -5 -0.62 1.3
-2 1 5 0.59 0.99
1 -1 -5 21.02 1.61
1 -1 -5 29.88 3.14
-1 1 5 23.24 2.55
0 -1 -5 2.07 1.29
0 -1 -5 2.47 1.02
0 1 5 2.47 1.31
-1 -1 -5 143.88 5.61
-1 -1 -5 141.11 5.89
1 1 5 161.35 6.4
-2 -1 -5 -1.39 1.11
-2 -1 -5 -0.95 1.04
2 1 5 -0.04 0.89
-3 -1 -5 13.8 2.39
-3 -1 -5 8.55 2.33
-4 -1 -5 -1.67 1.55
-4 -1 -5 4.49 1.78
4 1 5 4.85 2.26
-5 -1 -5 37.37 4.69
-5 -1 -5 39.55 3.98
5 1 5 42.47 5.21
-6 -1 -5 -0.85 1.82
-6 -1 -5 -2.08 1.83
6 1 5 0.23 2.17
-7 -1 -5 0.78 2.09
-7 -1 -5 5.29 2.66
7 1 5 3.9 2.77
-8 -1 -5 3.72 2.77
8 1 5 1.64 2.88
11 -2 -5 1.93 2.19
10 -2 -5 36.21 4.91
9 -2 -5 0.44 1.89
-9 2 5 3.86 1.85
8 -2 -5 31.57 4.23
-8 2 5 27 3.27
7 -2 -5 2.6 1.84
-7 2 5 0.03 1.11
6 -2 -5 46.36 4.5
6 -2 -5 41.54 2.61
-6 2 5 30.55 3.27
5 -2 -5 4.45 0.91
5 -2 -5 8.09 2.16
-5 2 5 4.24 1.38
4 -2 -5 14.43 2.5
-4 2 5 15.03 2.12
3 -2 -5 1.17 1.48
-3 2 5 4.06 1.28
2 -2 -5 95.8 5.11
-2 2 5 102.77 4.49
1 -2 -5 5.48 1.96
-1 2 5 8.82 1.91
0 -2 -5 53.96 2.73
0 -2 -5 61.6 4.03
0 2 5 49.96 3.6
-1 -2 -5 -0.07 1.09
-1 -2 -5 0.27 0.98
1 2 5 -0.13 0.93
-2 -2 -5 36.45 3.62
-2 -2 -5 39.24 3.6
-3 -2 -5 1.44 1.46
-3 -2 -5 2.97 1.7
3 2 5 0.59 1.51
-4 -2 -5 18.16 3.14
-4 -2 -5 19.79 3.28
4 2 5 11.97 3.01
-5 -2 -5 -1.48 1.79
-5 -2 -5 -0.61 1.41
5 2 5 -0.07 1.93
-6 -2 -5 21.24 3.64
-6 -2 -5 15.86 3.62
6 2 5 21.68 4.1
-7 -2 -5 2.31 2.21
-7 -2 -5 -0.16 2.39
7 2 5 -0.18 2.52
-8 -2 -5 5.8 3.27
-8 -2 -5 4.72 3.06
8 2 5 4.23 3.05
11 -3 -5 5.84 2.65
10 -3 -5 5.62 2.41
9 -3 -5 97.77 6.51
-9 3 5 98.34 6.08
8 -3 -5 -1.73 1.39
-8 3 5 -0.11 1.41
7 -3 -5 4.67 2.17
-7 3 5 3.96 1.78
6 -3 -5 2.16 1.79
-6 3 5 4.7 1.76
5 -3 -5 340.04 11.18
-5 3 5 338.87 7.55
-5 3 5 337.96 10.2
4 -3 -5 2.35 1.88
-4 3 5 5.94 1.65
3 -3 -5 0.54 1.6
-3 3 5 3.86 1.24
2 -3 -5 0.76 1.38
-2 3 5 -0.26 0.87
-1 3 5 384.32 8.07
-1 3 5 389.11 10.94
0 -3 -5 5.3 1.88
0 3 5 8.62 1.87
0 3 5 10.2 1.41
-1 -3 -5 1.21 1.5
1 3 5 0.54 1.08
-2 -3 -5 0.33 1.11
-2 -3 -5 0.95 1.4
2 3 5 0.2 1.26
-3 -3 -5 139.51 6.93
-3 -3 -5 140.57 6.67
3 3 5 137.96 6.96
-4 -3 -5 1.87 1.89
-4 -3 -5 0.61 1.64
4 3 5 1.83 1.99
-5 -3 -5 2.67 2.25
-5 -3 -5 6.14 2.44
5 3 5 3.93 2.13
-6 -3 -5 0.6 1.97
-6 -3 -5 -1.67 2.09
6 3 5 7.49 2.57
-7 -3 -5 38.56 5.39
-7 -3 -5 39.39 5.85
-8 -3 -5 -0.91 2.63
-8 -3 -5 0.44 2.83
8 3 5 0.3 2.32
10 -4 -5 14.06 3.65
-10 4 5 15.1 3.52
9 -4 -5 0.12 1.88
-9 4 5 1.51 2.27
8 -4 -5 46.39 5.21
-8 4 5 39.85 4.63
7 -4 -5 7.85 2.73
-7 4 5 11.53 2.57
6 -4 -5 29.72 4.08
-6 4 5 30.28 3.75
5 -4 -5 1.8 1.68
-5 4 5 0.43 1.37
4 -4 -5 58.43 4.7
-4 4 5 65.46 4.31
3 -4 -5 1.27 1.49
-3 4 5 0.27 1.12
2 -4 -5 51.99 4.68
-2 4 5 48.32 3.62
1 -4 -5 0.55 1.46
-1 4 5 0.45 0.72
-1 4 5 -0.69 0.94
0 -4 -5 0.11 1.1
0 4 5 0.62 0.77
0 4 5 -0.7 0.69
-1 -4 -5 -1.7 1.26
1 4 5 0.24 1.21
1 4 5 2.51 1.44
-2 -4 -5 14.76 2.89
2 4 5 18.73 2.57
2 4 5 17.66 2.91
-3 -4 -5 3.99 1.93
3 4 5 4.95 2.01
3 4 5 3.61 1.83
-4 -4 -5 27.11 4.05
4 4 5 32.78 4.11
4 4 5 30.22 4.04
-5 -4 -5 3.04 2.08
5 4 5 0.9 1.95
5 4 5 3.36 2.26
-6 -4 -5 10.77 2.95
6 4 5 8.36 2.89
6 4 5 4.29 2.59
-7 -4 -5 -4.31 1.78
7 4 5 1.86 2.74
7 4 5 3.03 2.72
-10 5 5 -1.43 2.37
9 -5 -5 7.23 3.02
-9 5 5 5.05 3.03
8 -5 -5 0.09 1.7
-8 5 5 -0.15 1.7
7 -5 -5 87.14 6.24
-7 5 5 90.13 5.92
6 -5 -5 -1.95 1.49
-6 5 5 3.13 2.05
5 -5 -5 23.69 3.66
-5 5 5 19.47 3.11
4 -5 -5 -0.5 1.79
-4 5 5 -0.03 1.23
3 -5 -5 147.37 6.96
-3 5 5 141.21 6.51
2 -5 -5 3.54 1.87
-2 5 5 0.93 0.89
-2 5 5 2.07 1.36
1 -5 -5 15.55 3.08
-1 5 5 13.08 1.71
0 -5 -5 2.23 1.55
0 5 5 1.57 1.43
0 5 5 1.16 1.13
-1 -5 -5 107.8 6.1
1 5 5 107.81 5.09
1 5 5 99.53 5.74
-2 -5 -5 0.26 1.52
2 5 5 1.21 1.48
2 5 5 0.31 1.37
-3 -5 -5 16.7 3.28
3 5 5 17.92 3.05
3 5 5 15.27 2.91
-4 -5 -5 -3.01 1.8
4 5 5 3.22 1.97
4 5 5 -3.2 1.62
-5 -5 -5 74.72 6.86
5 5 5 79.2 6.16
5 5 5 60.36 5.91
-6 -5 -5 -1.72 1.51
6 5 5 3.95 2.5
6 5 5 -3.3 1.81
-7 -5 -5 5.07 3.06
7 5 5 8.11 3.36
7 5 5 12.56 3.77
-9 6 5 1.66 2.51
8 -6 -5 5.67 2.73
-8 6 5 0.8 1.95
7 -6 -5 1.32 2.04
-7 6 5 0.86 1.75
6 -6 -5 11.09 3.14
-6 6 5 14.64 3.2
5 -6 -5 2.06 2.14
-5 6 5 1.6 1.86
4 -6 -5 -2.36 1.34
-4 6 5 1.84 1.73
3 -6 -5 1.81 1.66
-3 6 5 0.58 1.31
2 -6 -5 4.17 2.16
-2 6 5 1.15 1.41
1 -6 -5 7.18 2.31
-1 6 5 1.48 1.59
-1 6 5 6.48 1.88
0 -6 -5 1.21 1.57
0 6 5 -0.59 1.35
0 6 5 0.52 1.3
-1 -6 -5 0.06 1.7
1 6 5 1.62 1.75
1 6 5 0.05 1.44
-2 -6 -5 1.16 1.81
2 6 5 1.18 1.68
2 6 5 -1.23 1.29
-3 -6 -5 1.18 1.85
3 6 5 1.48 1.76
3 6 5 -0.4 1.67
-4 -6 -5 2.2 2.09
4 6 5 0.48 1.91
4 6 5 -2.05 1.8
-5 -6 -5 -0.76 1.96
5 6 5 2.02 2.18
5 6 5 1.92 2.5
-6 -6 -5 1.32 2.43
6 6 5 -2.4 2.23
6 6 5 0 2.09
-9 7 5 5.62 3.11
-8 7 5 0.84 2.2
7 -7 -5 32.64 4.75
-7 7 5 34.92 5.14
6 -7 -5 -0.08 1.97
-6 7 5 0.79 1.89
5 -7 -5 7.74 2.79
-5 7 5 9.78 2.74
4 -7 -5 3.41 1.97
-4 7 5 3.51 1.98
3 -7 -5 62.69 5.9
-3 7 5 56.5 5.37
2 -7 -5 -2.28 1.65
-2 7 5 2.5 1.72
1 -7 -5 8.89 2.78
-1 7 5 14.03 2.9
0 -7 -5 1.98 1.89
0 7 5 1.28 1.78
-1 -7 -5 59.04 5.91
1 7 5 69.24 4.84
1 7 5 71.51 5.24
-2 -7 -5 1.24 1.82
2 7 5 0.95 1.92
2 7 5 1.59 1.88
-3 -7 -5 13.4 3.46
3 7 5 11.02 2.92
3 7 5 9.56 2.7
-4 -7 -5 0.33 1.9
4 7 5 1.42 2.08
4 7 5 -1.36 1.86
-5 -7 -5 16.33 3.96
5 7 5 16.73 3.72
5 7 5 23.05 4.28
-6 -7 -5 0.2 2.55
6 7 5 2.3 3.01
6 7 5 3.84 2.84
-8 8 5 8.09 3.37
-7 8 5 1.64 2.57
6 -8 -5 9.57 2.75
-6 8 5 18.46 3.93
5 -8 -5 0.74 2.28
-5 8 5 0.74 1.78
4 -8 -5 10.08 3.26
-4 8 5 9.1 2.81
3 -8 -5 2.2 2.27
-3 8 5 4.04 2.06
2 -8 -5 9.23 2.87
-2 8 5 7.55 2.62
1 -8 -5 0.39 1.88
-1 8 5 0.35 1.85
0 -8 -5 15.19 3.56
0 8 5 13.79 3.02
-1 -8 -5 2.12 2.2
1 8 5 2.79 2.19
-2 -8 -5 16.62 3.73
2 8 5 14.63 3.23
-3 -8 -5 0.85 2.4
3 8 5 -0.87 1.94
3 8 5 1.22 2.28
-4 -8 -5 3.78 2.69
4 8 5 9.43 3.16
4 8 5 9.32 2.99
-5 -8 -5 -0.3 2.31
5 8 5 -2.37 2
5 8 5 1.27 2.73
-7 9 5 1.93 2.69
-6 9 5 -0.33 2.2
5 -9 -5 68.29 6.7
-5 9 5 61.95 6.69
4 -9 -5 -0.79 1.93
-4 9 5 2.71 2.21
3 -9 -5 1.67 2.26
-3 9 5 0.81 2
2 -9 -5 -0.54 1.93
-2 9 5 0.55 2.13
1 -9 -5 65.22 6.52
-1 9 5 67.88 6.43
0 -9 -5 -0.44 2.19
0 9 5 1.29 1.94
-1 -9 -5 1.56 2.61
1 9 5 0.9 2.1
-2 -9 -5 -0.74 2.22
2 9 5 3.06 2.31
-3 -9 -5 40.43 5.92
3 9 5 39.48 5.16
-4 -9 -5 3.37 2.62
4 9 5 1.35 2.44
-5 10 5 1.04 2.5
-4 10 5 23.02 4.57
3 -10 -5 -0.03 2.26
-3 10 5 -1.64 2.04
2 -10 -5 17.78 3.85
-2 10 5 16.69 3.76
1 -10 -5 5.72 3.1
-1 10 5 -1.24 2.02
0 -10 -5 9.37 3.42
0 10 5 12.58 3.47
-1 -10 -5 -1.49 2.18
1 10 5 -2.79 1.87
-2 -10 -5 11.13 3.47
2 10 5 -1.56 2.3
4 10 -6 12.83 4.21
3 10 -6 -1.86 2.97
2 10 -6 8.1 3.76
1 10 -6 0.16 3.24
0 10 -6 12.47 4.15
6 9 -6 2.7 3.09
5 9 -6 1 2.73
4 9 -6 -1.76 2.43
3 9 -6 -0.09 2.61
2 9 -6 0.66 2.6
1 9 -6 0.69 2.52
0 9 -6 -3.42 2.14
-1 9 -6 0.75 2.63
-2 9 -6 -0.14 2.1
-2 9 -6 0.22 2.35
7 8 -6 -1.74 2.39
6 8 -6 5.1 3.07
5 8 -6 1.17 2.36
4 8 -6 56.77 6.44
3 8 -6 2.27 2.19
2 8 -6 1.79 2.5
1 8 -6 -1.5 2.43
0 8 -6 22.9 4.52
-1 8 -6 -3.35 2.22
-1 8 -6 3.22 1.93
-2 8 -6 1.26 2.6
-3 8 -6 -1.92 2.73
-4 8 -6 7 3.67
8 7 -6 4.37 2.74
7 7 -6 18.3 4.04
6 7 -6 -1.02 1.9
5 7 -6 17.6 3.61
4 7 -6 2.01 2.25
3 7 -6 18.4 3.66
2 7 -6 0.16 2.13
1 7 -6 25.25 4.34
0 7 -6 0.97 2.39
-1 7 -6 14.83 3.48
-2 7 -6 -0.77 2.09
-3 7 -6 15.65 4.28
-4 7 -6 1.33 2.7
-5 7 -6 0.34 2.85
9 6 -6 4.38 2.83
8 6 -6 1.29 2.3
7 6 -6 2.05 2.18
6 6 -6 142.12 8.11
5 6 -6 7.56 2.78
4 6 -6 -1.66 1.64
3 6 -6 0.77 1.81
2 6 -6 151.72 8.04
1 6 -6 2.22 2.15
0 6 -6 1.03 2.13
-1 6 -6 -0.87 2.08
-2 6 -6 119.57 8.52
-3 6 -6 0.39 2.65
-4 6 -6 0.28 2.57
-5 6 -6 3.59 2.8
-6 6 -6 32.49 5.68
9 5 -6 21.97 4.21
8 5 -6 2.83 2.32
7 5 -6 17.52 3.51
6 5 -6 5.6 2.37
5 5 -6 33.64 4.18
4 5 -6 0.73 1.81
3 5 -6 44.19 4.66
2 5 -6 1.38 1.81
1 5 -6 26.51 3.95
0 5 -6 1.32 2.07
-1 5 -6 5.78 2.6
-2 5 -6 1.57 2.42
-3 5 -6 6.93 3.02
-4 5 -6 0.04 1.87
-5 5 -6 7 3.1
-6 5 -6 1.59 2.58
10 4 -6 5.84 2.87
9 4 -6 0.2 2.04
8 4 -6 34.76 4.44
7 4 -6 0.47 1.71
6 4 -6 14.99 2.88
5 4 -6 3.83 1.98
4 4 -6 70.16 4.73
3 4 -6 2.4 1.59
2 4 -6 25.12 3.34
2 4 -6 35.14 3.27
1 4 -6 -0.36 1.06
1 4 -6 -0.41 1.66
0 4 -6 104.06 6.18
-1 4 -6 -0.14 1.58
-2 4 -6 16.68 3.43
-3 4 -6 1.66 2.27
-4 4 -6 28.52 4.53
-5 4 -6 4.14 2.61
-6 4 -6 6.73 3.01
-7 4 -6 -1.74 2.45
11 3 -6 1.02 2.74
10 3 -6 2.09 2.24
9 3 -6 4.37 2.47
8 3 -6 0.66 1.81
7 3 -6 -1.73 1.22
6 3 -6 0.22 1.3
5 3 -6 0.46 1.34
4 3 -6 3.34 1.57
3 3 -6 1.8 1.67
-3 -3 6 0.82 0.83
2 3 -6 8.78 1.87
2 3 -6 6.63 1.89
-2 -3 6 5.81 1.52
1 3 -6 0.24 1.53
1 3 -6 7.21 1.77
0 3 -6 1.96 1.6
0 3 -6 1.29 1.12
-1 3 -6 0.72 1.7
-1 3 -6 0.93 1.02
-2 3 -6 9.51 2.68
-3 3 -6 1.69 1.92
-4 3 -6 -3.36 1.72
-5 3 -6 0.47 1.97
-6 3 -6 4.82 2.89
-7 3 -6 0.7 2.75
10 2 -6 8.54 2.81
9 2 -6 3.17 2.05
8 2 -6 102.59 5.9
7 2 -6 0.9 1.3
6 2 -6 19.55 2.66
5 2 -6 2.12 1.28
4 2 -6 183.66 6.38
-4 -2 6 177.84 4.56
3 2 -6 1.38 1.28
3 2 -6 0.87 1.28
-3 -2 6 1.61 0.89
2 2 -6 58.19 3.64
2 2 -6 60.75 3.77
-2 -2 6 60.39 3.21
1 2 -6 -1.61 1.08
1 2 -6 0.87 1.44
-1 -2 6 -0.32 1.13
0 2 -6 165.23 5.95
0 2 -6 170.54 7.37
-1 2 -6 1.04 1.26
-1 2 -6 -2.43 1.19
-2 2 -6 27.52 3.71
-2 2 -6 24.47 2.48
-3 2 -6 0.56 1.81
-4 2 -6 56.24 5.59
-5 2 -6 0.36 1.74
-6 2 -6 9.9 3.32
-7 2 -6 2.24 2.7
9 1 -6 22.91 3.4
8 1 -6 10.71 2.36
7 1 -6 34.5 3.49
6 1 -6 3.31 1.36
5 1 -6 53.45 3.22
-5 -1 6 52.88 2.42
4 1 -6 1.01 0.97
4 1 -6 -0.44 1.26
-4 -1 6 0.01 0.67
3 1 -6 110.01 4.32
3 1 -6 104.32 5.07
2 1 -6 0.28 1.02
2 1 -6 0.26 1.29
-2 -1 6 0.86 0.94
1 1 -6 20.05 2.66
1 1 -6 25.89 2.8
-1 -1 6 20.31 2.43
0 1 -6 0.21 1.12
0 1 -6 -1.04 1.06
0 -1 6 0.05 1.28
-1 1 -6 23.45 2.71
-1 1 -6 21.5 2.99
1 -1 6 23.15 3.14
-2 1 -6 -0.65 1.51
-2 1 -6 0.36 1.21
-3 1 -6 17.69 2.47
-3 1 -6 14.38 2.88
-4 1 -6 -2.33 1.91
-5 1 -6 8.69 2.95
-6 1 -6 4.41 2.87
-7 1 -6 2.88 2.49
8 0 -6 1.99 1.47
7 0 -6 25.74 2.76
6 0 -6 162.05 7.54
6 0 -6 163.48 5.58
-6 0 6 166.22 5.43
5 0 -6 1.86 1.46
5 0 -6 2.65 1.01
-5 0 6 1.98 1.02
4 0 -6 0.01 0.73
4 0 -6 0.2 1.27
-4 0 6 0.69 0.82
3 0 -6 34.55 3.64
3 0 -6 35.08 2.13
-3 0 6 36.76 2.63
2 0 -6 389.38 11.05
2 0 -6 388.19 9.08
-2 0 6 348.53 9.73
1 0 -6 5.7 1.72
1 0 -6 5.06 1.39
-1 0 6 7.51 1.76
0 0 -6 1.51 1.28
0 0 -6 1.08 1.24
0 0 6 -0.48 1.15
-1 0 -6 -2.02 1.07
-1 0 -6 2.12 1.42
1 0 6 0.15 1.49
-2 0 -6 202.91 7.82
-2 0 -6 177.35 6.9
2 0 6 191.13 8.12
-3 0 -6 4.77 2.21
-3 0 -6 5.45 1.93
3 0 6 2.43 1.75
-4 0 -6 1.37 2.16
-4 0 -6 0.91 1.61
4 0 6 -0.65 1.67
-5 0 -6 1.87 1.7
-5 0 -6 0.53 2.02
5 0 6 -0.86 1.95
-6 0 -6 51.14 6.17
6 0 6 48.71 6.09
-7 0 -6 0.8 2.13
7 0 6 -0.54 2.6
11 -1 -6 16.81 3.98
10 -1 -6 -1.31 1.85
9 -1 -6 27.23 4.33
8 -1 -6 6.7 2.66
7 -1 -6 33.64 4.39
-7 1 6 36.93 3.31
6 -1 -6 3.27 1.88
6 -1 -6 1.2 1
-6 1 6 1.91 1.24
5 -1 -6 54.77 2.35
-5 1 6 51.82 3.21
4 -1 -6 -1.27 0.97
-4 1 6 -0.6 0.91
3 -1 -6 102.28 5.48
-3 1 6 100.98 4.45
2 -1 -6 1.11 1.44
2 -1 -6 0.75 0.68
-2 1 6 -0.34 1.14
1 -1 -6 17.37 1.77
1 -1 -6 21.26 2.91
-1 1 6 24.36 2.89
0 -1 -6 1.79 1.35
0 -1 -6 -0.36 0.99
0 1 6 -0.36 1.17
-1 -1 -6 20.95 2.99
-1 -1 -6 19.23 2.55
1 1 6 27.32 3.32
-2 -1 -6 0.19 1.43
-2 -1 -6 2.49 1.72
2 1 6 1.43 1.56
-3 -1 -6 20.86 3.06
-3 -1 -6 22.75 3.46
3 1 6 20.26 3.32
-4 -1 -6 4.42 2.25
-4 -1 -6 2.15 1.86
4 1 6 0.29 1.7
-5 -1 -6 7.81 2.74
-5 -1 -6 17.5 3.19
5 1 6 9.55 2.96
-6 -1 -6 2.64 2.35
-6 -1 -6 -1.2 2.02
6 1 6 2.09 2.43
-7 -1 -6 4.51 2.89
7 1 6 4.41 3
11 -2 -6 3.36 2.62
10 -2 -6 0.34 2.18
9 -2 -6 1.17 1.91
8 -2 -6 88.82 6.16
-8 2 6 76.18 4.84
7 -2 -6 0.83 1.78
-7 2 6 -0.82 1.27
6 -2 -6 17.64 3.14
-6 2 6 17.35 2.59
5 -2 -6 2.47 1.83
-5 2 6 2.48 1.43
4 -2 -6 176.01 7.63
-4 2 6 181.69 6.51
3 -2 -6 -0.28 1.03
-3 2 6 -0.72 0.91
2 -2 -6 63.33 4.44
-2 2 6 61.26 3.94
1 -2 -6 0.66 1.36
1 -2 -6 -0.86 0.63
-1 2 6 0.64 1.22
0 -2 -6 143.47 6.49
0 -2 -6 135.78 4.89
0 2 6 144.89 6.5
-1 -2 -6 0.49 1.23
-1 -2 -6 0.01 1.55
1 2 6 -0.27 1.11
-2 -2 -6 29.07 3.41
-2 -2 -6 22.88 3.23
-3 -2 -6 1.81 1.99
-3 -2 -6 -1.15 1.42
3 2 6 1.39 1.53
-4 -2 -6 53.32 5.14
-4 -2 -6 59.51 5.65
4 2 6 55.11 5.38
-5 -2 -6 0.31 1.89
-5 -2 -6 -2.57 1.7
5 2 6 -0.5 1.83
-6 -2 -6 15.47 3.95
-6 -2 -6 4.86 2.41
6 2 6 13.13 3.56
-7 -2 -6 -1.51 2.56
-7 -2 -6 -1.28 2.59
7 2 6 5.11 3.27
11 -3 -6 -1.64 1.9
10 -3 -6 3.76 2.48
9 -3 -6 2.39 2.33
-9 3 6 5.36 2.34
8 -3 -6 1.73 2.1
-8 3 6 0.17 1.48
7 -3 -6 -1.22 1.65
-7 3 6 0.23 1.41
6 -3 -6 -0.86 1.69
-6 3 6 2.04 1.47
5 -3 -6 -0.7 1.77
-5 3 6 -0.63 1.1
4 -3 -6 2.44 1.83
-4 3 6 0.51 1.24
3 -3 -6 2.63 1.82
-3 3 6 0.25 0.99
2 -3 -6 0.28 1.11
-2 3 6 4.63 1.73
1 -3 -6 0.14 1.16
-1 3 6 3.19 0.87
-1 3 6 1.84 1.51
0 -3 -6 -2.96 1.39
0 3 6 0.76 1.3
0 3 6 -0.7 0.76
-1 -3 -6 -1.84 1.42
-1 -3 -6 1.86 1.26
1 3 6 -1.03 0.73
-2 -3 -6 -1.48 1.52
-2 -3 -6 -0.64 1.38
2 3 6 -0.05 1.24
-3 -3 -6 -0.62 1.51
-3 -3 -6 0.31 1.81
3 3 6 -0.86 1.6
-4 -3 -6 -0.98 1.87
-4 -3 -6 -0.68 1.61
4 3 6 0.88 2
-5 -3 -6 -0.28 1.97
-5 -3 -6 -3.77 1.78
5 3 6 2.46 2
-6 -3 -6 -2.92 1.94
-6 -3 -6 1.25 2.69
6 3 6 2.76 2.34
-7 -3 -6 -0.37 2.3
-7 -3 -6 -0.77 2.54
7 3 6 3.34 2.87
10 -4 -6 7.27 3.08
9 -4 -6 -0.79 2.01
-9 4 6 4.8 2.21
8 -4 -6 36.46 4.96
-8 4 6 46.88 4.89
7 -4 -6 1.64 2.06
-7 4 6 1.49 1.69
6 -4 -6 11.95 3.09
-6 4 6 10.05 2.4
5 -4 -6 5.48 2.26
-5 4 6 4.42 1.86
4 -4 -6 66.04 5.29
-4 4 6 64.72 4.49
3 -4 -6 -0.36 1.29
-3 4 6 1.35 1.33
2 -4 -6 22.75 3.48
-2 4 6 21.14 3.08
1 -4 -6 0.39 1.05
-1 4 6 -0.68 1.38
-1 -4 -6 1.31 1.95
1 4 6 0.6 1.13
1 4 6 1.25 1.44
-2 -4 -6 14.02 3.11
2 4 6 19.71 3.4
2 4 6 17.89 2.66
-3 -4 -6 0.76 2.05
3 4 6 1.76 1.83
3 4 6 1.8 1.88
-4 -4 -6 35.51 4.88
4 4 6 33.79 4.3
4 4 6 37.47 4.78
-5 -4 -6 -1.41 1.93
5 4 6 -0.93 1.81
5 4 6 1.3 2.37
-6 -4 -6 2.94 2.55
6 4 6 5.83 3.1
6 4 6 3.47 2.59
-7 -4 -6 0.51 2.63
7 4 6 -1.78 2.33
7 4 6 1.11 2.91
10 -5 -6 3.52 2.83
-10 5 6 4.49 3.12
9 -5 -6 21.86 4.37
-9 5 6 13.15 3.4
8 -5 -6 9.43 3.33
-8 5 6 2.77 2.11
7 -5 -6 17.21 3.61
-7 5 6 20.16 3.64
6 -5 -6 0.04 1.78
-6 5 6 2.98 1.92
5 -5 -6 18.56 3.62
-5 5 6 28.11 3.78
4 -5 -6 3.07 2.06
-4 5 6 0.94 1.54
3 -5 -6 37.13 4.44
-3 5 6 39.72 4.25
2 -5 -6 0.06 1.82
-2 5 6 0.99 1.68
1 -5 -6 16.79 3.31
-1 5 6 13.58 2.69
0 -5 -6 0.47 1.41
0 5 6 0.32 1.3
-1 -5 -6 1.61 1.79
1 5 6 3.98 1.97
1 5 6 3.29 1.47
-2 -5 -6 1.35 2.17
2 5 6 3.22 2.1
2 5 6 -0.96 1.48
-3 -5 -6 7.05 2.83
3 5 6 7.78 2.62
3 5 6 9.05 2.5
-4 -5 -6 1.07 2.22
4 5 6 1.51 1.91
4 5 6 3.19 2.29
-5 -5 -6 7.72 2.93
5 5 6 12.5 3.27
5 5 6 4.72 2.72
-6 -5 -6 2.25 2.48
6 5 6 0.41 2.46
6 5 6 3 2.78
9 -6 -6 7.09 3.32
-9 6 6 8.68 3.2
8 -6 -6 0.82 2.52
-8 6 6 -2.2 1.73
7 -6 -6 -0.15 2.1
-7 6 6 -0.72 1.62
6 -6 -6 120.17 7.57
-6 6 6 124.41 7.34
5 -6 -6 12.33 3.2
-5 6 6 7.16 2.56
4 -6 -6 5.7 2.49
-4 6 6 2.83 1.7
3 -6 -6 1.92 2
-3 6 6 -1.92 1.41
2 -6 -6 146.2 7.94
-2 6 6 150.15 7.31
1 -6 -6 0.98 2.08
-1 6 6 0.17 1.41
0 -6 -6 0.82 1.89
0 6 6 -0.16 1.66
-1 -6 -6 0.4 1.7
1 6 6 1.84 1.74
-2 -6 -6 122.22 7.56
2 6 6 110.34 6.67
2 6 6 100.89 6.87
-3 -6 -6 0.22 2.16
3 6 6 -0.19 1.88
3 6 6 0.26 2.03
-4 -6 -6 0.09 2.15
4 6 6 2.69 2.4
4 6 6 0.13 2.15
-5 -6 -6 3.76 2.7
5 6 6 4.7 2.77
5 6 6 1.9 2.67
-6 -6 -6 42.34 5.97
6 6 6 35.64 5.56
6 6 6 24.46 4.59
8 -7 -6 -0.17 2.66
-8 7 6 1.11 2.32
7 -7 -6 20.14 4.32
-7 7 6 15.99 3.79
6 -7 -6 -1.98 1.83
-6 7 6 0.7 1.95
5 -7 -6 16.19 3.55
-5 7 6 21.1 3.75
4 -7 -6 -1.28 2.16
-4 7 6 4.66 2.37
3 -7 -6 14.73 3.56
-3 7 6 20.01 3.47
2 -7 -6 -2.65 1.94
-2 7 6 2.52 1.73
1 -7 -6 26.05 4.39
-1 7 6 26.55 3.94
0 -7 -6 0 1.76
0 7 6 -2.29 1.39
-1 -7 -6 18.96 3.94
1 7 6 15.78 3.33
-2 -7 -6 -0.63 1.77
2 7 6 -0.23 1.49
-3 -7 -6 5.03 2.85
3 7 6 15.6 3.56
-4 -7 -6 -0.67 2.12
4 7 6 1.46 2.39
-5 -7 -6 1.64 2.44
5 7 6 4.29 3.64
5 7 6 0.93 2.45
7 -8 -6 -2.34 2.26
-7 8 6 0.45 2.21
6 -8 -6 0.9 2.3
-6 8 6 4 2.85
5 -8 -6 -3.83 2
-5 8 6 -1.46 1.82
4 -8 -6 57.72 6.21
-4 8 6 56.63 5.87
3 -8 -6 -2.38 1.97
-3 8 6 -0.39 1.63
2 -8 -6 3.22 2.61
-2 8 6 1.5 2.08
1 -8 -6 2.18 2.34
-1 8 6 2.05 2
0 -8 -6 43.57 5.73
0 8 6 30.25 4.59
-1 -8 -6 -1.39 2.11
1 8 6 -1.5 1.8
-2 -8 -6 -0.87 1.9
2 8 6 -1.49 1.53
-3 -8 -6 2.96 2.68
3 8 6 0.61 2.21
-4 -8 -6 15.02 4.2
4 8 6 19.68 4.01
-6 9 6 -0.19 2.37
5 -9 -6 -0.43 2.5
-5 9 6 0.35 1.96
4 -9 -6 1.87 2.39
-4 9 6 3.02 2.35
3 -9 -6 -1.23 2.08
-3 9 6 2.78 2.24
2 -9 -6 3.09 2.72
-2 9 6 1.33 2.23
1 -9 -6 1.02 2.41
-1 9 6 -1.73 1.94
0 -9 -6 -1.38 2.29
0 9 6 0.42 2
-1 -9 -6 3.06 2.82
1 9 6 0.6 2.05
-2 -9 -6 1.67 2.63
2 9 6 -2.96 1.88
4 -10 -6 20.81 4.39
-4 10 6 20.78 4.53
3 -10 -6 -0.09 2.38
-3 10 6 6.92 2.75
2 -10 -6 7.38 3.12
-2 10 6 8.09 3.22
1 -10 -6 -0.28 2.6
-1 10 6 -1.88 2.11
0 -10 -6 22.64 4.66
0 10 6 19.26 4.29
5 9 -7 -2.69 2.73
4 9 -7 1.44 3.01
3 9 -7 58.74 6.97
2 9 -7 1.74 3.12
1 9 -7 -2.46 2.73
0 9 -7 1.83 3.1
-1 9 -7 31.43 5.88
7 8 -7 2.6 3.08
6 8 -7 4.54 3.05
5 8 -7 0.07 2.66
4 8 -7 10.86 3.6
3 8 -7 2.69 2.68
2 8 -7 6.55 3.33
1 8 -7 -0.2 2.62
0 8 -7 10.21 3.58
-1 8 -7 -3.45 2.58
-2 8 -7 8.38 4.1
-3 8 -7 -2.74 2.6
8 7 -7 0.04 2.47
7 7 -7 -0.42 2.17
6 7 -7 3.51 2.57
5 7 -7 24.02 4.29
4 7 -7 -1.24 2.05
3 7 -7 15.03 3.61
2 7 -7 -0.67 2.22
1 7 -7 27.29 4.56
0 7 -7 1.6 2.11
-1 7 -7 5.8 3.22
-2 7 -7 0.9 3.02
-3 7 -7 21.59 4.95
-4 7 -7 -0.67 2.69
9 6 -7 1.09 2.67
8 6 -7 0.69 2.28
7 6 -7 -0.1 2.13
6 6 -7 4.01 2.42
5 6 -7 2.51 2.04
4 6 -7 3.84 2.36
3 6 -7 0.13 2
2 6 -7 1.2 2.13
1 6 -7 9.08 3.2
0 6 -7 0.15 1.97
-1 6 -7 2.33 2.77
-2 6 -7 -2.19 2.27
-3 6 -7 2.9 2.68
-4 6 -7 3.78 3.09
-5 6 -7 -0.08 2.67
9 5 -7 36.53 5.16
8 5 -7 2.9 2.4
7 5 -7 1.48 2.01
6 5 -7 -0.97 1.68
5 5 -7 68.51 5.32
4 5 -7 1.93 1.92
3 5 -7 2.57 2.26
3 5 -7 11.52 2.43
2 5 -7 -2.01 2.09
2 5 -7 -0.91 1.13
1 5 -7 69.39 6.22
0 5 -7 -2.73 1.71
-1 5 -7 1.84 2.49
-2 5 -7 0.83 2.48
-3 5 -7 25.41 4.47
-4 5 -7 -0.52 2.28
-5 5 -7 2.15 2.79
10 4 -7 9.6 3.34
9 4 -7 3.34 2.29
8 4 -7 13.88 3.08
7 4 -7 0.01 2.01
6 4 -7 24.27 3.73
5 4 -7 -0.46 1.36
4 4 -7 40.77 4.32
3 4 -7 -1.14 1.58
3 4 -7 3.05 1.7
2 4 -7 26.95 3.15
2 4 -7 22.65 3.57
1 4 -7 1.91 1.48
1 4 -7 0.3 1.84
0 4 -7 22.1 3.59
-1 4 -7 -0.98 2.17
-2 4 -7 10.72 3.29
-3 4 -7 1.53 2.2
-4 4 -7 14.16 3.82
-5 4 -7 -1.14 2.27
-6 4 -7 2.41 2.91
9 3 -7 0.46 2.01
8 3 -7 0.57 1.93
7 3 -7 135.43 6.71
6 3 -7 1.83 1.58
5 3 -7 0.42 1.39
4 3 -7 -0.1 1.6
4 3 -7 1.61 1.65
3 3 -7 116.69 5.69
3 3 -7 108.71 5.6
2 3 -7 2.55 1.52
2 3 -7 3.84 1.8
-2 -3 7 0.85 1.4
1 3 -7 -0.72 1.48
1 3 -7 -1.12 1.64
0 3 -7 -0.4 1.5
0 3 -7 2.26 1.92
-1 3 -7 138.11 7.38
-2 3 -7 3.2 1.99
-3 3 -7 4.8 2.4
-4 3 -7 -1.26 2.19
-5 3 -7 45.94 5.81
-6 3 -7 1.07 2.63
8 2 -7 18.11 2.97
7 2 -7 0.71 1.69
6 2 -7 38.04 3.71
5 2 -7 -0.65 1.36
5 2 -7 0.85 1.22
4 2 -7 32.33 3.22
4 2 -7 24.66 3.36
-4 -2 7 23.52 1.83
3 2 -7 1.49 1.48
3 2 -7 0.52 1.38
-3 -2 7 1.99 1.11
2 2 -7 17.45 2.56
2 2 -7 21.04 3.03
-2 -2 7 14.13 2.06
1 2 -7 3.32 1.62
1 2 -7 1.36 1.73
-1 -2 7 0.66 1.38
0 2 -7 32.87 3.44
0 2 -7 34.49 3.88
0 -2 7 33.34 3.68
-1 2 -7 -0.42 1.34
-1 2 -7 0.76 1.59
-2 2 -7 19.96 3.4
-3 2 -7 1.09 1.88
-4 2 -7 6.03 2.76
-5 2 -7 -0.51 2.03
-6 2 -7 1.13 2.58
7 1 -7 8.49 1.95
7 1 -7 6.19 2.44
6 1 -7 2.63 2.07
6 1 -7 0.35 1.16
5 1 -7 99.28 4.44
5 1 -7 114.33 6.35
4 1 -7 1.69 1.28
4 1 -7 -0.5 1.39
-4 -1 7 0.61 0.93
3 1 -7 18.81 2.42
3 1 -7 26.95 3.42
-3 -1 7 14.92 2.02
2 1 -7 2.64 1.84
2 1 -7 3.78 1.52
-2 -1 7 2.76 1.39
1 1 -7 106.69 5.43
1 1 -7 103.38 5.09
-1 -1 7 94.25 4.92
0 1 -7 0.26 1.23
0 1 -7 0.44 1.42
0 -1 7 -2.42 1.43
-1 1 -7 38.8 4
-1 1 -7 29.29 3.39
1 -1 7 34.49 3.94
-2 1 -7 -0.67 1.42
-2 1 -7 0.15 1.38
2 -1 7 -1.26 1.59
-3 1 -7 56.5 5.42
3 -1 7 60.11 5.93
-4 1 -7 1.95 2.12
-5 1 -7 9.72 3.22
-6 1 -7 -1 2.44
-7 1 -7 17.67 4.4
7 -1 7 6.81 3.86
11 0 -7 -0.13 2.34
10 0 -7 -4.13 1.86
9 0 -7 0.51 2.13
8 0 -7 -0.09 1.69
7 0 -7 0.9 1.6
6 0 -7 -1.08 1.44
5 0 -7 -1.01 0.84
5 0 -7 0.69 1.66
-5 0 7 -1.81 0.75
4 0 -7 -0.83 0.86
4 0 -7 -0.41 1.58
-4 0 7 0.25 0.99
3 0 -7 0.79 1.64
3 0 -7 -0.81 0.9
-3 0 7 -0.23 1.16
2 0 -7 -2.03 0.86
2 0 -7 0.5 1.66
-2 0 7 -0.83 1.11
1 0 -7 0.4 1.15
1 0 -7 -1.7 1.43
-1 0 7 1.71 1.36
0 0 -7 0.11 1.25
0 0 -7 1.06 1.59
0 0 7 -0.31 1.17
-1 0 -7 0.84 1.52
-1 0 -7 -0.31 1.78
1 0 7 -0.01 1.59
-2 0 -7 -0.07 1.38
-2 0 -7 3.97 1.78
2 0 7 -2.12 1.58
-3 0 -7 -0.49 1.47
-3 0 -7 0.1 1.68
3 0 7 -1.41 1.59
-4 0 -7 -0.55 1.72
-4 0 -7 -1.43 1.82
4 0 7 1.04 1.69
-5 0 -7 -0.07 2.2
5 0 7 -2.05 1.24
-6 0 -7 -0.14 2.74
6 0 7 4.89 2.87
-7 0 -7 3.97 3.25
7 0 7 0.14 3.02
11 -1 -7 -2.84 2.06
10 -1 -7 1.8 2.3
9 -1 -7 51.43 5.97
8 -1 -7 1.26 2.12
7 -1 -7 7.34 2.67
6 -1 -7 1.44 1.68
-6 1 7 -2.11 1.02
-5 1 7 102.48 4.73
4 -1 -7 -1.43 1.38
-4 1 7 1.32 1.21
3 -1 -7 20.79 3.33
-3 1 7 21.98 2.7
2 -1 -7 3.35 1.9
2 -1 -7 2.3 0.88
-2 1 7 0.04 1.45
1 -1 -7 99.41 5.59
1 -1 -7 100.96 4.11
-1 1 7 93.85 5.26
0 -1 -7 0.29 1.22
0 -1 -7 0.7 1.56
0 1 7 1.2 1.51
-1 -1 -7 29.81 3.76
-1 -1 -7 42.25 3.88
1 1 7 36.08 3.99
-2 -1 -7 4.35 2.14
-2 -1 -7 -0.43 1.52
2 1 7 -1.19 1.59
-3 -1 -7 68.9 5.48
-3 -1 -7 58.08 5.17
3 1 7 57.16 5.7
-4 -1 -7 -2 1.87
-4 -1 -7 -2.14 1.85
4 1 7 -1.19 1.61
-5 -1 -7 9.18 3.26
-5 -1 -7 5.05 2.51
5 1 7 7.6 3.04
-6 -1 -7 -0.05 2.57
6 1 7 1.87 2.9
-7 -1 -7 10.24 3.99
7 1 7 9.99 3.89
11 -2 -7 -0.04 2.52
10 -2 -7 9.23 3.19
9 -2 -7 10.79 3.25
8 -2 -7 16.26 3.74
7 -2 -7 2.08 2.09
-7 2 7 -0.08 1.4
6 -2 -7 35.19 4.73
-6 2 7 42.46 3.94
5 -2 -7 0.75 1.61
-5 2 7 1.59 1.17
-4 2 7 22.45 2.88
3 -2 -7 0.03 1.24
-3 2 7 3.63 1.55
2 -2 -7 11.22 2.72
-2 2 7 17.33 2.76
1 -2 -7 3.87 1.89
1 -2 -7 2.39 1.09
-1 2 7 -0.95 1.1
0 -2 -7 34.55 2.97
0 -2 -7 33 4.06
0 2 7 30.55 3.76
-1 -2 -7 0.15 1.82
-1 -2 -7 -0.45 1.15
1 2 7 1.29 1.58
-2 -2 -7 29.25 3.58
-2 -2 -7 22.93 3.54
2 2 7 15.95 2.98
-3 -2 -7 -3.08 1.38
-3 -2 -7 -0.03 1.79
3 2 7 -0.71 1.32
-4 -2 -7 2.26 2.05
-4 -2 -7 8.86 3.03
4 2 7 7.03 2.53
-5 -2 -7 -0.92 2.08
-5 -2 -7 1.48 2.41
5 2 7 0.76 2.17
-6 -2 -7 5.7 3.32
-6 -2 -7 -0.97 2.09
6 2 7 2.04 2.28
10 -3 -7 9.92 3.37
9 -3 -7 2.75 2.18
8 -3 -7 -1.62 2.06
-8 3 7 -1.59 1.61
7 -3 -7 136.41 8.03
-7 3 7 126.71 6.53
6 -3 -7 2.85 2.33
-6 3 7 2.25 1.72
5 -3 -7 -1.26 1.71
-5 3 7 -1.01 1.24
4 -3 -7 -1.19 1.31
-4 3 7 -1.86 1.24
-3 3 7 107.04 5.59
2 -3 -7 -0.7 1.47
-2 3 7 0.37 1.51
1 -3 -7 -2.64 1.9
-1 3 7 -1.81 1.3
0 -3 -7 -1.46 1.79
0 3 7 1.84 1.74
-1 -3 -7 106.22 5.25
-1 -3 -7 112.89 6.57
1 3 7 111.6 6.47
-2 -3 -7 3.86 2.01
-2 -3 -7 1.23 2.07
2 3 7 3.97 1.94
-3 -3 -7 0.5 2.12
-3 -3 -7 1.02 2.12
3 3 7 -0.42 1.85
-4 -3 -7 2.14 2.44
-4 -3 -7 2.25 2.31
4 3 7 -1.95 1.73
-5 -3 -7 45.6 5.54
-5 -3 -7 47.71 5.84
5 3 7 40.12 5.38
-6 -3 -7 9.53 3.63
-6 -3 -7 2.7 2.68
6 3 7 -2.25 2.04
10 -4 -7 12.18 3.84
9 -4 -7 2.2 2.73
-9 4 7 -1.34 1.91
8 -4 -7 8.11 3.27
-8 4 7 13.44 2.96
7 -4 -7 -0.96 2.13
-7 4 7 3.39 1.98
6 -4 -7 17.86 3.97
-6 4 7 23.99 3.68
5 -4 -7 -0.51 1.94
-5 4 7 0.48 1.41
4 -4 -7 29.92 4.49
-4 4 7 36.07 3.91
3 -4 -7 4.26 1.94
-3 4 7 3.42 1.84
2 -4 -7 19.66 3.39
-2 4 7 20.82 3.27
1 -4 -7 -2.03 1.44
-1 4 7 -0.41 1.26
0 -4 -7 16.27 3.45
0 4 7 17.01 3.24
-1 -4 -7 1.62 2.16
1 4 7 -0.34 1.3
-2 -4 -7 11.18 3.18
2 4 7 7.65 2.13
2 4 7 7.53 2.42
-3 -4 -7 -0.02 2.06
3 4 7 0.99 1.81
3 4 7 -2.63 1.56
-4 -4 -7 9.09 3.02
4 4 7 4.97 2.67
4 4 7 14.46 3.65
-5 -4 -7 1.78 2.57
5 4 7 -0.59 2.45
5 4 7 3.1 2.82
-6 -4 -7 2.92 3.26
6 4 7 5.43 3.3
6 4 7 1.86 2.36
9 -5 -7 34.01 5.4
-9 5 7 34.92 4.75
8 -5 -7 0.36 2.55
-8 5 7 1.32 2.17
7 -5 -7 5.82 2.85
-7 5 7 2.35 2.06
6 -5 -7 0.39 1.72
-6 5 7 0.24 1.69
5 -5 -7 76.69 6.97
-5 5 7 70.53 6.11
4 -5 -7 -2.61 1.73
-4 5 7 -1.07 1.43
3 -5 -7 9.16 2.88
-3 5 7 11.9 2.78
2 -5 -7 -0.32 1.97
-2 5 7 2.92 1.87
1 -5 -7 65.15 6.12
-1 5 7 54.51 5.29
0 -5 -7 0.45 1.83
0 5 7 1.73 1.78
-1 -5 -7 2.85 2.13
1 5 7 1.04 2.12
-2 -5 -7 2.44 2.43
2 5 7 0.55 2.05
-3 -5 -7 19.93 4.02
3 5 7 18.11 3.75
-4 -5 -7 2.74 2.48
4 5 7 0.93 2.32
4 5 7 0.53 2.28
-5 -5 -7 1.61 2.64
5 5 7 0.68 2.65
5 5 7 4.63 2.62
9 -6 -7 1.18 2.99
-9 6 7 -0.05 2.21
8 -6 -7 0.17 2.62
-8 6 7 -1.91 1.94
7 -6 -7 0.15 2.33
-7 6 7 1.63 2.16
6 -6 -7 5.5 2.74
-6 6 7 3.56 2.36
5 -6 -7 0.12 2.09
-5 6 7 -0.79 1.68
4 -6 -7 -1.67 1.54
-4 6 7 -1.6 1.75
3 -6 -7 5.22 2.85
-3 6 7 0.86 1.78
2 -6 -7 1.68 2.46
-2 6 7 -0.41 1.5
1 -6 -7 5.17 2.79
-1 6 7 3.89 1.97
0 -6 -7 -0.58 1.84
0 6 7 1.11 1.6
-1 -6 -7 -0.36 1.87
1 6 7 -1.87 1.7
-2 -6 -7 0.36 2.26
2 6 7 -1.52 1.87
-3 -6 -7 1.12 2.42
3 6 7 2.79 2.44
-4 -6 -7 -0.35 2.54
4 6 7 -2.03 2.04
-5 -6 -7 3.73 2.86
5 6 7 3.49 2.74
8 -7 -7 -1.45 2.61
-8 7 7 -2.41 2.15
7 -7 -7 -0.83 2.33
-7 7 7 1.21 2.41
6 -7 -7 1.24 2.27
-6 7 7 -3.04 1.9
5 -7 -7 16.6 3.95
-5 7 7 21.33 3.91
4 -7 -7 0.27 2.17
-4 7 7 3.73 2.39
3 -7 -7 10.18 3.12
-3 7 7 7.87 2.66
2 -7 -7 0.99 2.45
-2 7 7 1.08 1.75
1 -7 -7 17.83 4.09
-1 7 7 25.15 4.16
0 -7 -7 2.36 2.53
0 7 7 1.05 1.85
-1 -7 -7 9.81 3.15
1 7 7 5.14 2.56
-2 -7 -7 3.85 2.76
2 7 7 -0.92 1.76
-3 -7 -7 14.6 4.11
3 7 7 12.29 3.61
-4 -7 -7 1.02 2.89
4 7 7 -1.96 2.51
7 -8 -7 0.47 2.54
-7 8 7 0.46 2.64
6 -8 -7 8.36 3.21
-6 8 7 7.94 3.18
5 -8 -7 4.31 2.78
-5 8 7 1.98 2.26
4 -8 -7 6.03 3.07
-4 8 7 10.19 3.01
3 -8 -7 3.63 2.86
-3 8 7 2.51 2.36
2 -8 -7 9.48 3.29
-2 8 7 4.69 2.53
1 -8 -7 -1.3 2.3
-1 8 7 0.88 1.75
0 -8 -7 3.08 2.96
0 8 7 7.62 2.86
-1 -8 -7 2.55 2.78
1 8 7 1.41 2.36
-2 -8 -7 7.45 3.37
2 8 7 3.36 2.77
-3 -8 -7 0.82 2.66
3 8 7 0.71 2.63
5 -9 -7 -0.88 2.81
-5 9 7 0.4 2.49
4 -9 -7 -0.37 2.49
-4 9 7 2.13 2.26
3 -9 -7 50.05 6.24
-3 9 7 56.22 6.5
2 -9 -7 1.49 2.57
-2 9 7 0.89 1.86
1 -9 -7 -1.61 1.89
-1 9 7 4.25 2.76
0 -9 -7 1.87 2.88
0 9 7 -2.23 2.31
-1 -9 -7 23.12 4.87
1 9 7 21.48 4.56
3 9 -8 -1.89 3.02
2 9 -8 -0.98 3.04
6 8 -8 21.03 4.88
5 8 -8 6.5 3.36
4 8 -8 -0.86 2.77
3 8 -8 -2.38 2.31
2 8 -8 28.58 5.28
1 8 -8 2.19 2.83
0 8 -8 1.85 3.13
-1 8 -8 0.92 3.05
7 7 -8 11.89 3.91
6 7 -8 1.88 2.3
5 7 -8 8.39 3.37
4 7 -8 3.77 2.95
3 7 -8 7.25 3.22
2 7 -8 -1.28 2.67
1 7 -8 8.17 3.77
0 7 -8 -1.84 2.6
-1 7 -8 10.93 4.04
-2 7 -8 1.24 3.2
-3 7 -8 6.24 3.65
8 6 -8 42.6 5.67
7 6 -8 -0.84 2.3
6 6 -8 1.59 2.19
5 6 -8 4.51 2.54
4 6 -8 64.3 4.93
4 6 -8 54.3 5.86
3 6 -8 -2.22 2.01
2 6 -8 0.49 2.32
1 6 -8 1.47 2.78
0 6 -8 56.35 6.51
-1 6 -8 2.78 2.98
-2 6 -8 4.04 3.03
-3 6 -8 0.44 2.78
-4 6 -8 28.56 5.32
9 5 -8 15.77 3.8
8 5 -8 3.21 2.58
7 5 -8 1.48 2.45
6 5 -8 0.84 1.9
5 5 -8 23.49 3.94
4 5 -8 1.18 2.39
4 5 -8 0.4 1.94
3 5 -8 1.52 2.19
3 5 -8 7.31 2.19
2 5 -8 -2.47 2.22
1 5 -8 10.9 3.16
0 5 -8 4.68 2.7
-1 5 -8 3.37 3.04
-2 5 -8 0.27 2.36
-3 5 -8 12.56 3.83
-4 5 -8 0.74 3
8 4 -8 7.4 2.94
7 4 -8 5.88 2.4
6 4 -8 56.64 5.17
5 4 -8 1.79 1.82
5 4 -8 -0.37 1.55
4 4 -8 10.13 2.68
4 4 -8 11.1 2.87
3 4 -8 -2.55 1.38
3 4 -8 1.19 1.93
2 4 -8 81.19 5.79
2 4 -8 76.45 4.89
1 4 -8 3.28 2.15
0 4 -8 9.84 3.24
-1 4 -8 -1.02 2.25
-2 4 -8 29.7 4.64
-3 4 -8 3.45 2.46
-4 4 -8 6.81 3.25
-5 4 -8 -0.74 2.69
7 3 -8 4.29 1.97
6 3 -8 3.46 2.22
6 3 -8 4.24 1.88
5 3 -8 5.16 2.05
5 3 -8 0.46 1.75
4 3 -8 2.86 1.98
4 3 -8 5.21 2.32
3 3 -8 4.32 2.21
3 3 -8 -0.05 1.52
2 3 -8 1.96 1.98
2 3 -8 0.63 1.66
-2 -3 8 0.23 1.27
1 3 -8 -0.87 1.73
1 3 -8 0.82 1.8
-1 -3 8 -1.21 1.44
0 3 -8 -0.72 1.95
0 -3 8 -0.4 1.76
-1 3 -8 4.48 2.55
-2 3 -8 0.64 2.09
-3 3 -8 3.28 2.43
-4 3 -8 -0.03 2.33
-5 3 -8 -2.73 2.24
7 2 -8 0.26 2.03
6 2 -8 82.84 5.99
6 2 -8 63.73 4.51
5 2 -8 1.62 2.01
5 2 -8 2.3 1.61
4 2 -8 18.19 3.26
4 2 -8 17.43 2.78
3 2 -8 2.21 1.71
3 2 -8 -0.46 1.4
-3 -2 8 0.57 1.32
2 2 -8 121.1 6.32
2 2 -8 110.22 5.74
-2 -2 8 111.76 5.34
1 2 -8 -0.31 1.79
1 2 -8 0.82 2.05
-1 -2 8 -1 1.37
0 2 -8 11.52 2.78
0 2 -8 8.18 2.28
0 -2 8 9.72 2.44
-1 2 -8 -0.42 1.7
1 -2 8 -0.12 1.74
-2 2 -8 39.69 4.83
2 -2 8 42.41 5.09
-3 2 -8 -1.91 1.9
-4 2 -8 7.06 2.98
-5 2 -8 0.62 2.76
10 1 -8 0.69 2.58
9 1 -8 10.19 3.27
8 1 -8 0.44 2.02
7 1 -8 21.37 3.86
6 1 -8 0.28 1.96
5 1 -8 3.28 2.14
4 1 -8 3.15 1.94
4 1 -8 -0.39 1.37
-4 -1 8 0.48 1.1
3 1 -8 33.05 4.09
3 1 -8 29.46 3.02
-3 -1 8 26.87 3.02
2 1 -8 0.76 1.64
2 1 -8 0.45 1.58
-2 -1 8 1.66 1.49
1 1 -8 11.14 2.37
1 1 -8 6.86 2.31
-1 -1 8 12.24 2.52
0 1 -8 4.54 2.37
0 1 -8 1.28 1.63
0 -1 8 -0.8 1.4
-1 1 -8 11.83 2.83
-1 1 -8 16.25 3.02
1 -1 8 15.97 3.08
-2 1 -8 -3.15 1.87
-2 1 -8 0.82 2.79
2 -1 8 -2.77 1.35
-3 1 -8 1.68 2.27
3 -1 8 6.58 2.71
-4 1 -8 0.66 2.3
4 -1 8 -2.06 2.13
-5 1 -8 3.48 2.8
5 -1 8 2.7 2.93
-6 1 -8 1.44 2.76
6 -1 8 1.39 2.35
10 0 -8 4.7 2.67
9 0 -8 1.81 2.48
8 0 -8 79.71 6.34
7 0 -8 2.9 1.96
6 0 -8 2.5 2.04
5 0 -8 -0.67 1.76
-5 0 8 3.38 1.35
4 0 -8 133.04 7.25
-4 0 8 132.09 5.63
3 0 -8 1.42 1.75
-3 0 8 -0.84 1.31
2 0 -8 -1.51 1.83
2 0 -8 1.06 1.21
-2 0 8 1.22 1.67
1 0 -8 2.21 1.84
1 0 -8 2.42 1.54
-1 0 8 2.36 1.81
0 0 -8 84.23 4.95
0 0 -8 81.08 5.35
0 0 8 85.99 5.37
-1 0 -8 -0.39 1.62
-1 0 -8 0.2 1.85
1 0 8 -1.91 1.45
-2 0 -8 3.94 2.34
-2 0 -8 6.05 2.21
2 0 8 0.98 1.88
-3 0 -8 1.05 2.07
-3 0 -8 2.16 2.05
3 0 8 0.82 2.33
-4 0 -8 35.41 4.83
4 0 8 30.29 4.58
-5 0 -8 1.81 2.97
5 0 8 0.82 2.15
-6 0 -8 0.11 2.65
6 0 8 4.24 2.83
10 -1 -8 -2.18 1.97
9 -1 -8 9.95 3.17
8 -1 -8 -0.82 2.14
7 -1 -8 24.47 4.26
6 -1 -8 1.9 1.74
-6 1 8 1.23 1.35
5 -1 -8 0.39 2.01
-5 1 8 5.92 1.81
4 -1 -8 2.41 1.78
-4 1 8 -0.87 1.03
3 -1 -8 28.01 3.99
-3 1 8 23.25 3.03
2 -1 -8 1.38 1.95
-2 1 8 2.57 1.75
1 -1 -8 12.35 2.89
-1 1 8 5.52 2.05
0 -1 -8 2.98 2.57
0 -1 -8 0.21 1.48
0 1 8 -1.88 1.45
-1 -1 -8 16.84 2.92
-1 -1 -8 10.1 2.74
1 1 8 17.3 3.06
-2 -1 -8 0.21 1.84
-2 -1 -8 -0.54 1.66
2 1 8 2.15 1.93
-3 -1 -8 2.72 2.37
-3 -1 -8 0.35 2.22
3 1 8 -0.97 1.95
-4 -1 -8 -0.79 1.7
-4 -1 -8 3.54 2.6
4 1 8 -1.33 1.87
-5 -1 -8 1.71 2.97
5 1 8 -0.58 1.97
-6 -1 -8 1.99 3.21
6 1 8 -1.8 2.13
10 -2 -8 22.89 4.61
9 -2 -8 4.49 2.77
8 -2 -8 -0.32 2.27
7 -2 -8 0.19 2.32
-7 2 8 0.43 1.5
6 -2 -8 76.62 7.02
-6 2 8 81.64 4.95
5 -2 -8 3.22 2.01
-5 2 8 2.39 1.35
4 -2 -8 22.4 3.66
-4 2 8 14.3 2.59
3 -2 -8 0.78 1.85
-3 2 8 -0.72 1.26
2 -2 -8 122.24 6.91
-2 2 8 108.22 6.19
1 -2 -8 0.1 2.25
-1 2 8 1.42 1.57
0 -2 -8 7.43 2.81
0 2 8 6.21 2.17
-1 -2 -8 3.19 1.88
-1 -2 -8 4.61 2.53
1 2 8 0.81 1.8
-2 -2 -8 43.34 4.96
-2 -2 -8 33.79 4.13
2 2 8 36.2 4.67
-3 -2 -8 1.1 1.99
-3 -2 -8 -2.66 1.78
3 2 8 0.43 1.39
-4 -2 -8 8.21 2.87
-4 -2 -8 5.28 2.94
4 2 8 5.37 2.7
-5 -2 -8 2.64 3.34
-5 -2 -8 2.38 2.87
5 2 8 0.54 1.75
10 -3 -8 -0.76 2.24
9 -3 -8 -1.03 2.2
8 -3 -8 -1.78 2.14
7 -3 -8 4.42 2.43
-7 3 8 1.46 1.91
6 -3 -8 -1.8 2.08
-6 3 8 -0.26 1.65
5 -3 -8 3.63 2.55
-5 3 8 1 1.53
4 -3 -8 2.2 1.92
-4 3 8 2.01 1.72
3 -3 -8 -0.65 2.15
-3 3 8 -0.94 1.46
2 -3 -8 2.34 2.43
-2 3 8 -1.56 1.35
1 -3 -8 -2.43 1.73
-1 3 8 -0.23 1.6
0 -3 -8 0.16 2.27
0 3 8 1.69 1.65
-1 -3 -8 7.74 2.79
1 3 8 -1.05 1.64
-2 -3 -8 2.08 2.04
2 3 8 2.6 1.82
-3 -3 -8 3.39 2.64
-3 -3 -8 -0.53 2.18
3 3 8 -1.15 1.82
-4 -3 -8 0.57 2.51
-4 -3 -8 0.03 2.22
4 3 8 1.55 2.23
-5 -3 -8 -1.16 2.56
-5 -3 -8 2.66 2.81
5 3 8 -1.67 1.99
10 -4 -8 23.67 5.09
9 -4 -8 0.18 2.62
8 -4 -8 4.35 2.99
-8 4 8 10.55 2.97
7 -4 -8 2.61 2.67
-7 4 8 3.4 2.37
6 -4 -8 44.75 5.78
-6 4 8 56.13 5.34
5 -4 -8 2.82 2.2
-5 4 8 0.38 1.76
4 -4 -8 5.54 2.96
-4 4 8 9.53 2.51
3 -4 -8 2.94 2.32
-3 4 8 0.83 1.77
2 -4 -8 63.38 6.01
-2 4 8 59.82 5.5
1 -4 -8 4.5 3.43
-1 4 8 1.43 1.63
0 -4 -8 7.07 2.77
0 4 8 4.7 2.17
-1 -4 -8 -3.62 1.88
1 4 8 0.15 1.77
-2 -4 -8 17.82 3.81
2 4 8 13.05 3.22
-3 -4 -8 0.27 2.32
3 4 8 0.16 1.96
-4 -4 -8 4.21 2.91
4 4 8 9.48 3.4
-5 -4 -8 5.9 3.45
5 4 8 1.02 2.37
9 -5 -8 14.82 4.26
-9 5 8 8.69 3.13
8 -5 -8 2.18 2.8
-8 5 8 1.87 2.23
7 -5 -8 5.71 2.79
-7 5 8 6.35 2.75
6 -5 -8 -1.17 2.34
-6 5 8 1.93 1.86
5 -5 -8 14.31 3.8
-5 5 8 23.89 3.9
4 -5 -8 1.16 2.25
-4 5 8 3.39 2
3 -5 -8 5.61 2.96
-3 5 8 6.5 2.49
2 -5 -8 -1.4 2.27
-2 5 8 2.13 1.99
1 -5 -8 12.66 3.52
-1 5 8 6.88 2.6
0 -5 -8 1.15 2.32
0 5 8 1.04 1.96
-1 -5 -8 -0.01 2.35
1 5 8 4.45 2.22
-2 -5 -8 0.24 2.42
2 5 8 -1.67 1.62
-3 -5 -8 10.11 3.41
3 5 8 18.47 4.07
-4 -5 -8 1.64 2.87
4 5 8 -0.25 2.47
8 -6 -8 49.28 6.52
-8 6 8 59.24 6.7
7 -6 -8 1.84 2.62
-7 6 8 -0.72 2.36
6 -6 -8 1.12 2.46
-6 6 8 3.45 2.29
5 -6 -8 -0.96 2.16
-5 6 8 1.69 2.32
4 -6 -8 56.56 6.28
-4 6 8 58.55 5.97
3 -6 -8 -1.83 1.93
-3 6 8 -2.73 1.76
2 -6 -8 -2.97 2.2
-2 6 8 -3.2 1.59
1 -6 -8 2.17 2.46
-1 6 8 -0.14 1.78
0 -6 -8 44.24 5.83
0 6 8 45.28 5.39
-1 -6 -8 0.68 1.96
1 6 8 0.59 2.36
-2 -6 -8 1.44 2.69
2 6 8 3.46 2.5
-3 -6 -8 3.09 2.92
3 6 8 2.16 2.8
-4 -6 -8 16.99 4.31
7 -7 -8 10.87 3.93
-7 7 8 19.07 4.09
6 -7 -8 0.75 2.54
-6 7 8 2.67 2.35
5 -7 -8 6.17 3.08
-5 7 8 12.8 3.49
4 -7 -8 -0.8 2.38
-4 7 8 -1.04 1.96
3 -7 -8 6.75 3.26
-3 7 8 10.05 3.19
2 -7 -8 0.47 2.37
-2 7 8 1.71 2.05
1 -7 -8 6.05 3.1
-1 7 8 6.09 2.82
0 -7 -8 3.22 2.68
0 7 8 -0.13 2.22
-1 -7 -8 4.97 3.13
1 7 8 0.48 2.41
-2 -7 -8 0.03 2.33
2 7 8 -0.64 2.23
-3 -7 -8 3.91 3.27
3 7 8 0.74 2.33
6 -8 -8 23.81 4.69
-6 8 8 27.35 5.13
5 -8 -8 0.65 2.62
-5 8 8 3.78 2.93
4 -8 -8 -0.17 2.61
-4 8 8 -0.14 2.14
3 -8 -8 2.62 2.97
-3 8 8 -1 2.1
2 -8 -8 17.1 4.11
-2 8 8 16.38 3.9
1 -8 -8 -0.91 2.65
-1 8 8 -0.52 2.13
0 -8 -8 3.24 2.73
0 8 8 2.56 2.31
-1 -8 -8 0.37 2.63
1 8 8 -2.26 1.81
3 -9 -8 3.09 2.93
-3 9 8 2.01 2.78
2 -9 -8 2.45 2.98
-2 9 8 0.72 2.66
4 8 -9 0.34 3.21
3 8 -9 0.14 3.19
2 8 -9 4.31 3.44
1 8 -9 0.09 3.11
6 7 -9 -2.1 2.8
5 7 -9 4.76 3.15
4 7 -9 -0.49 2.5
3 7 -9 21.5 4.58
2 7 -9 1.09 2.88
1 7 -9 2.07 3.12
0 7 -9 4.98 3.67
-1 7 -9 10.72 4.51
7 6 -9 0.02 2.28
6 6 -9 1.47 2.37
5 6 -9 -0.1 1.93
5 6 -9 -1.1 2.12
4 6 -9 3 2.73
3 6 -9 0.24 2.6
2 6 -9 4.16 2.88
1 6 -9 5.56 2.96
0 6 -9 0.4 2.94
-1 6 -9 -0.96 2.84
-2 6 -9 0.51 3.04
7 5 -9 29.55 4.48
6 5 -9 -3.04 1.79
6 5 -9 3.14 2.5
5 5 -9 0.93 2.2
5 5 -9 0.8 2.36
4 5 -9 1.75 2.12
4 5 -9 1.38 2.23
3 5 -9 48.65 5.54
2 5 -9 -2.13 2.06
1 5 -9 4.62 2.92
0 5 -9 0.46 2.84
-1 5 -9 39.01 5.63
-2 5 -9 5.06 3.08
-3 5 -9 0.4 2.71
7 4 -9 -0.35 2.15
6 4 -9 10.16 3.07
6 4 -9 13.03 3.32
5 4 -9 2 2.27
5 4 -9 4.25 2.3
4 4 -9 11.48 3.08
4 4 -9 17.51 3.56
3 4 -9 4.89 2.3
3 4 -9 3.31 2.22
2 4 -9 7.24 2.93
1 4 -9 -1.08 2.27
-1 -4 9 4.34 2.33
0 4 -9 4.07 2.67
0 -4 9 6.8 2.6
-1 4 -9 4.99 2.78
-2 4 -9 11.52 3.26
-3 4 -9 7.92 3.17
-4 4 -9 1.2 2.58
9 3 -9 47.3 6.34
8 3 -9 0.4 2.19
7 3 -9 -2.43 1.91
6 3 -9 -2.74 1.94
5 3 -9 72.53 6.52
4 3 -9 -0.74 2.18
4 3 -9 1.9 1.98
3 3 -9 7.16 2.42
3 3 -9 6.08 2.35
2 3 -9 2.47 2.26
2 3 -9 1.4 2.16
1 3 -9 59.93 6.09
-1 -3 9 55.88 5.09
0 3 -9 3.23 2.48
0 -3 9 -1.39 1.74
-1 3 -9 0.84 2.27
1 -3 9 6.31 2.63
-2 3 -9 4.39 2.67
2 -3 9 -2.19 2.1
-3 3 -9 21.82 4.41
-4 3 -9 -1.27 2.31
10 2 -9 0.71 2.95
9 2 -9 4.1 2.77
8 2 -9 7.07 3.26
7 2 -9 2.77 2.66
6 2 -9 22.22 4.12
5 2 -9 6.2 2.57
4 2 -9 16.83 3.44
3 2 -9 1.17 2.5
3 2 -9 2.69 1.78
2 2 -9 3.03 2.91
2 2 -9 6.94 2.61
-2 -2 9 4.44 1.92
1 2 -9 2.68 2.15
1 2 -9 3.25 2.21
-1 -2 9 0.38 1.53
0 2 -9 9.26 2.7
0 -2 9 5.49 2.46
-1 2 -9 -1.33 1.79
1 -2 9 1.08 1.76
-2 2 -9 4.53 2.39
2 -2 9 1.81 2.16
-3 2 -9 0.44 2.27
3 -2 9 -0.01 2.24
-4 2 -9 2.27 2.93
4 -2 9 -0.29 2.76
10 1 -9 1.34 2.49
9 1 -9 -1.53 1.86
8 1 -9 1.15 2.45
7 1 -9 40.72 5.24
6 1 -9 3.04 2.53
5 1 -9 13.44 3.4
4 1 -9 2.57 2.29
3 1 -9 62.19 5.84
-3 -1 9 64.27 4.32
2 1 -9 -0.28 1.99
-2 -1 9 0.12 1.45
1 1 -9 14.3 2.75
1 1 -9 14.01 3.65
-1 -1 9 10 2.37
0 1 -9 -0.37 1.67
0 1 -9 -0.88 2.11
0 -1 9 -0.32 1.48
-1 1 -9 37.06 4.39
-1 1 -9 49.27 4.94
1 -1 9 48.15 5.26
-2 1 -9 3.05 2.33
2 -1 9 -0.49 2.1
-3 1 -9 8.26 2.98
3 -1 9 6.27 2.91
-4 1 -9 0.03 2.19
4 -1 9 -0.49 2.57
-5 1 -9 14.99 4.18
10 0 -9 -0.99 2.15
9 0 -9 1.58 2.57
8 0 -9 1.16 2.11
7 0 -9 0.32 2.29
6 0 -9 -2.03 1.93
5 0 -9 -2.75 1.77
4 0 -9 -2.39 1.74
-4 0 9 0.92 1.44
3 0 -9 1.41 2.17
-3 0 9 -0.19 1.48
2 0 -9 0.21 1.89
-2 0 9 0.02 1.38
1 0 -9 -0.43 2.49
-1 0 9 0.23 1.65
0 0 -9 0.99 1.92
0 0 9 0.03 1.95
-1 0 -9 1.28 2.24
-1 0 -9 -0.56 1.9
1 0 9 2.09 1.87
-2 0 -9 3.15 2.41
-2 0 -9 3.55 2.11
2 0 9 2.35 2.34
-3 0 -9 1.14 2.45
3 0 9 0.22 2.13
-4 0 -9 1.29 2.52
4 0 9 2.86 2.85
-5 0 -9 -3.34 2.11
5 0 9 -1.06 2.31
10 -1 -9 -0.8 2.18
9 -1 -9 1.18 2.43
8 -1 -9 3.36 2.68
7 -1 -9 45.26 5.73
6 -1 -9 1.44 2.15
5 -1 -9 8.96 2.99
-5 1 9 11.54 2.36
4 -1 -9 5.33 2.89
-4 1 9 1.74 1.65
3 -1 -9 58.49 5.85
-3 1 9 55.39 5.04
2 -1 -9 -0.09 1.93
-2 1 9 0.45 1.64
1 -1 -9 15.36 3.79
-1 1 9 13.63 3.01
0 -1 -9 0.57 2.48
0 1 9 0.77 1.86
-1 -1 -9 41.01 4.8
1 1 9 40.38 4.8
-2 -1 -9 -1.02 2.8
-2 -1 -9 2.03 2.26
2 1 9 1.32 1.97
-3 -1 -9 4.02 2.52
-3 -1 -9 5.88 2.77
3 1 9 2.49 2.43
-4 -1 -9 -1 2.18
4 1 9 1.48 2.26
-5 -1 -9 9.89 3.63
10 -2 -9 0.26 2.94
9 -2 -9 1.69 2.59
8 -2 -9 9.8 3.5
7 -2 -9 0.59 2.3
6 -2 -9 19.45 3.96
-6 2 9 15.74 2.89
5 -2 -9 -0.1 2.27
-5 2 9 3.86 2.12
4 -2 -9 16.04 3.93
-4 2 9 19.45 3.18
3 -2 -9 -1.28 2.82
-3 2 9 3.46 1.87
2 -2 -9 2.48 2.79
-2 2 9 3.38 2.15
1 -2 -9 0.86 2.43
-1 2 9 0.67 1.75
0 -2 -9 9.42 3.1
0 2 9 3.94 2.32
-1 -2 -9 -0.27 2.21
1 2 9 3.01 2.28
-2 -2 -9 2.69 2.3
2 2 9 1.19 1.81
-3 -2 -9 -3.73 2.18
3 2 9 3.88 2.53
-4 -2 -9 4.44 2.94
4 2 9 -0.35 2.17
9 -3 -9 36.03 5.72
8 -3 -9 -0.83 2.61
7 -3 -9 -1.63 2.21
-7 3 9 -0.2 1.94
6 -3 -9 0.58 2.21
-6 3 9 4.74 2.22
5 -3 -9 68 6.72
-5 3 9 75.19 5.24
4 -3 -9 -1.68 2.14
-4 3 9 1.34 1.7
3 -3 -9 8.57 3.01
-3 3 9 4.65 2.34
2 -3 -9 2.4 2.54
-2 3 9 -0.52 1.94
1 -3 -9 60.72 6.05
-1 3 9 53.93 5.6
0 -3 -9 -3.83 1.54
0 3 9 -0.94 1.79
-1 -3 -9 0.92 2.38
1 3 9 3.01 1.96
-2 -3 -9 3.97 2.7
2 3 9 1.59 1.99
-3 -3 -9 27.86 4.81
3 3 9 27.87 4.61
-4 -3 -9 -1.01 2.67
4 3 9 -0.72 2.13
9 -4 -9 1.64 2.65
8 -4 -9 10.39 3.68
7 -4 -9 -1.04 2.56
-7 4 9 -0.33 2.13
6 -4 -9 10.46 3.44
-6 4 9 10.57 2.97
5 -4 -9 -1.78 2.08
-5 4 9 -0.31 1.66
4 -4 -9 8.59 3.12
-4 4 9 11.83 2.88
3 -4 -9 0.04 1.86
-3 4 9 1.27 2.01
2 -4 -9 4.03 2.43
-2 4 9 3.14 2.3
1 -4 -9 3.42 2.53
-1 4 9 7.06 2.93
0 -4 -9 8.57 3.26
0 4 9 6.86 2.84
-1 -4 -9 2.69 2.77
1 4 9 0.03 1.95
-2 -4 -9 3.68 2.91
2 4 9 5.07 2.51
-3 -4 -9 -1.58 2.4
3 4 9 -1.53 2.12
-4 -4 -9 -1.95 2.42
4 4 9 -2.02 2.49
8 -5 -9 2.54 2.94
-8 5 9 -1.55 2.04
7 -5 -9 20.07 4.65
-7 5 9 40.36 5.26
6 -5 -9 -2.98 1.87
-6 5 9 0.34 1.99
5 -5 -9 2.73 2.41
-5 5 9 0.01 2.16
4 -5 -9 -1.92 2.18
-4 5 9 -1.76 2.09
3 -5 -9 43.54 5.37
-3 5 9 48.09 5.45
2 -5 -9 -0.05 2.24
-2 5 9 0.04 2.1
1 -5 -9 10.36 3.41
-1 5 9 6.47 2.74
0 -5 -9 0.61 2.54
0 5 9 -0.26 1.54
-1 -5 -9 30.33 4.95
1 5 9 21.25 4.32
-2 -5 -9 -2.08 2.32
2 5 9 0.53 2.48
-3 -5 -9 7.34 3.42
3 5 9 7.25 3.26
7 -6 -9 -0.53 2.56
-7 6 9 0.81 2.39
6 -6 -9 1.4 2.64
-6 6 9 1.95 2.53
5 -6 -9 0.44 2.68
-5 6 9 -1.11 1.87
4 -6 -9 0.82 2.78
-4 6 9 -1.31 1.92
3 -6 -9 8.04 3.26
-3 6 9 2.35 2.44
2 -6 -9 0.11 2.28
-2 6 9 -0.25 2.39
1 -6 -9 -1.77 2.14
-1 6 9 3.52 2.43
0 -6 -9 -1.25 2.35
0 6 9 0.47 2.32
-1 -6 -9 -2.49 1.92
1 6 9 1.68 2.31
-2 -6 -9 5.86 3.07
2 6 9 0.02 2.47
6 -7 -9 4.27 3.08
-6 7 9 2.39 2.61
5 -7 -9 8.82 3.51
-5 7 9 -1.31 2.44
4 -7 -9 1.82 2.4
-4 7 9 0.71 2.43
3 -7 -9 22.8 4.86
-3 7 9 19.87 4.23
2 -7 -9 2.98 2.96
-2 7 9 -1.04 2.28
1 -7 -9 5.06 3.38
-1 7 9 2.22 2.94
0 -7 -9 0.14 2.37
0 7 9 -2.5 2.21
-1 -7 -9 12.48 4.2
1 7 9 12.03 3.82
4 -8 -9 2.18 3.11
-4 8 9 -3.56 2.28
3 -8 -9 1.23 3.12
-3 8 9 -0.35 2.53
2 -8 -9 3.54 2.88
-2 8 9 5.49 3
1 -8 -9 -0.16 2.82
-1 8 9 -2.78 2.33
4 7 -10 -2.26 2.99
3 7 -10 3.68 3.57
2 7 -10 -4.2 2.56
5 6 -10 10.66 3.43
4 6 -10 -0.36 2.71
3 6 -10 0.38 2.76
2 6 -10 19.93 5.16
1 6 -10 0.03 3.05
0 6 -10 -1.51 2.9
7 5 -10 1.68 2.51
6 5 -10 2.02 2.51
5 5 -10 0.49 2.58
4 5 -10 3.52 3.2
3 5 -10 3.47 2.82
2 5 -10 3.08 3.11
1 5 -10 2.65 3.21
0 5 -10 -0.16 3.01
-1 5 -10 1.71 3.42
8 4 -10 16.9 4.19
7 4 -10 -2.26 1.71
6 4 -10 5.81 2.8
5 4 -10 -3.57 1.97
4 4 -10 23.14 4.13
3 4 -10 -0.56 2.54
2 4 -10 6.27 3.27
1 4 -10 -2.29 2.67
0 4 -10 12.74 3.71
0 -4 10 17.95 4.06
-1 4 -10 -0.91 2.82
1 -4 10 1.33 2.39
-2 4 -10 3.94 3.17
2 -4 10 2.74 2.99
9 3 -10 -2.44 2.73
8 3 -10 -3.94 2.23
7 3 -10 0.96 2.33
6 3 -10 4.6 2.47
5 3 -10 -0.79 2.19
4 3 -10 -0.01 2.18
3 3 -10 -1.1 2.29
1 3 -10 -0.16 2.19
-1 -3 10 1.78 2.01
0 3 -10 1.94 2.48
0 -3 10 1.11 1.93
-1 3 -10 -1.46 2.23
1 -3 10 3.49 2.82
-2 3 -10 2.83 2.9
2 -3 10 1.92 2.5
-3 3 -10 4.66 3.23
3 -3 10 -1.6 2.62
9 2 -10 2.37 2.41
8 2 -10 30.63 5.23
7 2 -10 -1.11 2.06
6 2 -10 4.25 3.02
5 2 -10 -0.5 2.01
4 2 -10 14.73 3.54
3 2 -10 2.02 2.27
2 2 -10 6.55 2.85
-2 -2 10 4.15 2.1
-1 -2 10 -0.89 1.76
0 -2 10 21.19 3.62
-1 2 -10 -1.76 1.96
1 -2 10 -1.98 2.02
-2 2 -10 5.54 2.99
2 -2 10 2.23 2.47
-3 2 -10 -1.3 2.51
3 -2 10 -1.43 2.49
9 1 -10 8.26 3.58
8 1 -10 0.96 2.41
7 1 -10 9.8 3.81
6 1 -10 0.38 2.29
5 1 -10 3.86 2.53
4 1 -10 3.83 2.78
3 1 -10 5.21 2.66
2 1 -10 2.9 2.44
-2 -1 10 0.35 1.84
1 1 -10 11.17 3.1
-1 -1 10 9.72 2.86
0 1 -10 -0.19 2.34
0 -1 10 0.91 1.99
1 -1 10 3.33 2.43
2 -1 10 -0.9 2.08
-3 1 -10 2.37 2.8
3 -1 10 5.9 3.17
9 0 -10 3 2.79
8 0 -10 4.11 2.62
7 0 -10 -0.46 2.4
6 0 -10 53.23 6.38
5 0 -10 6.2 2.96
4 0 -10 -3.01 1.88
3 0 -10 1.16 2.61
-3 0 10 -4.36 1.51
2 0 -10 39.29 4.86
-2 0 10 47.53 4.84
1 0 -10 -2.25 2.18
-1 0 10 0.95 2.11
0 0 -10 8.5 3.14
0 0 10 6.58 2.53
-1 0 -10 -2.69 2.05
1 0 10 -1.59 1.77
2 0 10 16.58 3.59
3 0 10 0.65 2.4
9 -1 -10 5.97 3.37
8 -1 -10 0.31 2.66
7 -1 -10 13.1 3.76
6 -1 -10 -0.38 2.13
5 -1 -10 0.46 2.39
4 -1 -10 -1.62 2.15
-4 1 10 -1.78 1.53
3 -1 -10 4.39 2.57
-3 1 10 -0.07 1.91
2 -1 -10 -1.79 2.19
-2 1 10 1.09 1.99
1 -1 -10 13.47 3.41
-1 1 10 8.53 2.62
0 -1 -10 -1.5 2.45
0 1 10 0.28 1.89
-1 -1 -10 3.39 2.69
1 1 10 -0.88 2.12
-2 -1 -10 -0.62 2.22
2 1 10 1.92 2.37
3 1 10 3.13 2.79
9 -2 -10 0.58 3.11
8 -2 -10 21.88 4.85
7 -2 -10 0.43 2.5
6 -2 -10 2.69 2.57
5 -2 -10 -0.35 2.56
-5 2 10 3.35 2.08
4 -2 -10 14.75 3.57
-4 2 10 21.41 3.58
3 -2 -10 -2.44 1.87
-3 2 10 0.72 1.98
2 -2 -10 7.09 2.88
-2 2 10 0.49 1.89
1 -2 -10 0.84 2.37
-1 2 10 -0.7 1.94
0 -2 -10 24.3 4.36
0 2 10 25.1 4.14
-1 -2 -10 -3.12 1.99
1 2 10 -0.98 1.9
-2 -2 -10 5.41 2.64
2 2 10 0.01 2.3
-3 -2 -10 2.03 2.98
3 2 10 -0.81 2.41
9 -3 -10 2.72 2.9
8 -3 -10 -3.69 2.25
7 -3 -10 1.57 2.69
6 -3 -10 -2.51 2.13
-6 3 10 -1.1 1.85
5 -3 -10 1.38 2.47
-5 3 10 1.58 1.94
4 -3 -10 -1.84 2.04
-4 3 10 -0.26 2
3 -3 -10 -0.02 2.37
-3 3 10 -1.66 1.82
2 -3 -10 0.83 2.58
-2 3 10 -0.33 2.06
1 -3 -10 0.78 2.67
-1 3 10 3.13 2.66
0 -3 -10 0.16 2.49
0 3 10 -2.42 1.79
-1 -3 -10 1.29 2.83
1 3 10 -0.39 2.37
-2 -3 -10 -1.5 2.33
2 3 10 -3.02 2.08
-3 -3 -10 -3.92 2.78
3 3 10 0.42 2.59
8 -4 -10 12.91 4.57
7 -4 -10 -1.92 2.51
-7 4 10 0.67 3.24
6 -4 -10 5.05 3.36
-6 4 10 8.06 2.8
5 -4 -10 0.16 2.52
-5 4 10 1.21 2.17
4 -4 -10 22.01 4.38
-4 4 10 30.58 4.58
3 -4 -10 -0.8 2.43
-3 4 10 -1.04 1.86
2 -4 -10 5.25 3.4
-2 4 10 5.64 2.85
1 -4 -10 -0.1 2.78
-1 4 10 -1.43 2.05
0 -4 -10 22.12 4.62
0 4 10 21.62 4.42
-1 -4 -10 -1.87 2.56
1 4 10 2.93 2.47
-2 -4 -10 2.55 2.89
2 4 10 0.71 2.36
7 -5 -10 2.14 2.88
-7 5 10 2.61 2.84
6 -5 -10 -0.51 2.62
-6 5 10 1.03 2.58
5 -5 -10 4.8 3.04
-5 5 10 0.75 2.24
4 -5 -10 0.59 2.66
-4 5 10 0.96 2.19
3 -5 -10 1.67 2.7
-3 5 10 3.12 2.68
2 -5 -10 5.77 3.34
-2 5 10 -2.58 1.98
1 -5 -10 7.5 3.49
-1 5 10 7.11 2.88
0 -5 -10 -0.76 2.74
0 5 10 -2.35 2.34
-1 -5 -10 2.58 3.13
1 5 10 5.81 3.09
6 -6 -10 23.17 4.94
-6 6 10 33.68 5.35
5 -6 -10 0.37 2.97
-5 6 10 0.25 2.53
4 -6 -10 1.25 2.65
-4 6 10 3.75 2.52
3 -6 -10 -2.25 2.46
-3 6 10 -1.01 2.3
2 -6 -10 21.77 4.67
-2 6 10 18.79 4.34
1 -6 -10 -0.4 2.51
-1 6 10 4.48 2.66
0 -6 -10 0.21 2.68
0 6 10 0.37 2.54
4 -7 -10 -0.62 3.02
-4 7 10 -3.84 2.15
3 -7 -10 0.24 3.13
-3 7 10 7.54 3.56
2 -7 -10 2.9 3.09
-2 7 10 2.88 2.75
7 4 -11 -3.04 2.33
6 4 -11 16.8 4.27
5 4 -11 -1.14 2.09
7 3 -11 27.9 5.23
6 3 -11 -1.88 2.19
5 3 -11 -0.84 2.53
4 3 -11 0.93 2.76
0 -3 11 0.56 2.72
1 -3 11 17.45 4
8 2 -11 11.1 4.04
7 2 -11 -1.68 2.4
6 2 -11 1.39 2.69
5 2 -11 -2.35 2.73
4 2 -11 5.27 2.84
3 2 -11 -0.9 2.6
-1 -2 11 -1 2.13
0 -2 11 -0.32 2.2
1 -2 11 -1.94 2.38
8 1 -11 -5.23 2.4
7 1 -11 11.24 4.05
6 1 -11 -2.04 1.72
5 1 -11 31.53 5.31
4 1 -11 2.96 3.44
3 1 -11 12.65 3.78
2 1 -11 1.56 3.2
-2 -1 11 1.88 2.38
1 1 -11 12.01 3.78
-1 -1 11 13.71 3.19
0 -1 11 -0.88 1.91
1 -1 11 1.66 2.45
2 -1 11 -0.79 2.32
8 0 -11 -0.3 2.88
7 0 -11 -3.49 2.64
6 0 -11 3.08 3.05
5 0 -11 -2.15 2.1
4 0 -11 -0.44 2.75
3 0 -11 -0.33 2.63
2 0 -11 1.42 2.85
-2 0 11 0.8 2.17
1 0 -11 1.28 2.79
-1 0 11 -1.69 1.77
0 0 -11 1.21 2.74
0 0 11 -3.4 1.9
1 0 11 1.42 2.24
2 0 11 0.16 2.35
8 -1 -11 0.05 2.58
7 -1 -11 8.74 4
6 -1 -11 1.17 2.85
5 -1 -11 22.98 4.99
4 -1 -11 0.36 2.89
3 -1 -11 10.09 3.54
-3 1 11 10.26 3.08
2 -1 -11 -1.96 2.62
-2 1 11 0.41 2.16
1 -1 -11 10.26 3.42
-1 1 11 11.84 3.26
0 -1 -11 1 2.75
0 1 11 2.16 2.45
-1 -1 -11 5.25 2.84
1 1 11 2.67 2.46
2 1 11 1.71 2.54
8 -2 -11 2.27 3.41
7 -2 -11 -2.77 2.45
6 -2 -11 2.01 3.08
5 -2 -11 -1.72 2.36
4 -2 -11 2.21 2.99
-4 2 11 3.98 2.42
3 -2 -11 5.15 3.19
-3 2 11 -0.95 2.21
2 -2 -11 0.08 2.63
-2 2 11 2.92 2.62
1 -2 -11 -1.66 2.51
-1 2 11 0.16 2.25
0 -2 -11 -0.66 2.98
0 2 11 -2.11 1.89
-1 -2 -11 -0.56 2.38
1 2 11 1.05 2.41
7 -3 -11 26.55 5.53
6 -3 -11 4.87 3.46
5 -3 -11 0.84 2.74
-5 3 11 0.32 2.37
4 -3 -11 -1.97 2.45
-4 3 11 -2.61 2.02
3 -3 -11 34.62 5.4
-3 3 11 31.05 4.87
2 -3 -11 2.19 2.82
-2 3 11 0.28 2.38
1 -3 -11 0.8 2.79
-1 3 11 1.38 2.58
0 -3 -11 4.01 3.16
0 3 11 1.58 2.65
-1 -3 -11 22.1 4.44
1 3 11 12.44 3.72
7 -4 -11 5.01 3.52
6 -4 -11 7.36 3.59
-6 4 11 6.27 3.25
5 -4 -11 -2.5 2.29
-5 4 11 0.63 2.72
4 -4 -11 4.79 3.25
-4 4 11 0.69 2.44
3 -4 -11 -0.99 2.62
-3 4 11 -0.84 2.43
2 -4 -11 -2.58 2.52
-2 4 11 4.14 2.81
1 -4 -11 0.47 3.34
-1 4 11 0.81 2.59
0 -4 -11 0.71 2.81
0 4 11 0.79 2.87
5 -5 -11 11.99 3.98
-5 5 11 19.14 4.19
4 -5 -11 4.39 3.16
-4 5 11 -1.31 2.33
-3 5 11 7.44 3.47
2 -5 -11 6.46 3.69
-2 5 11 -0.26 2.59
1 -5 -11 8.06 3.94
-1 5 11 3.75 3.19
5 3 -12 -6.53 2.95
6 2 -12 14.42 4.43
5 2 -12 -0.14 2.97
4 2 -12 5.97 4.06
6 1 -12 0.23 3.25
5 1 -12 -2.06 3.16
4 1 -12 -3.08 3.04
3 1 -12 -3.18 3.25
-1 -1 12 1.74 3.64
7 0 -12 0.78 2.98
6 0 -12 4.35 3.65
5 0 -12 -1.99 3.03
4 0 -12 22.71 4.84
3 0 -12 0.96 3.74
2 0 -12 3.22 4.06
1 0 -12 8.65 3.73
-1 0 12 -4.01 2.01
6 -1 -12 1.67 3.79
5 -1 -12 -0.77 3.37
4 -1 -12 4.78 3.4
3 -1 -12 -3.55 3.79
2 -1 -12 7.52 4.05
-2 1 12 0.38 2.48
1 -1 -12 5.73 3.63
-1 1 12 -0.56 2.31
6 -2 -12 15.2 4.83
5 -2 -12 -0.22 3.1
4 -2 -12 0.23 3.27
3 -2 -12 -3.45 3.18
-3 2 12 1.64 2.43
2 -2 -12 14.27 4.58
-2 2 12 13.64 4.13
1 -2 -12 -2.77 3.08
-1 2 12 -0.16 2.48
5 -3 -12 -2.59 3.2
4 -3 -12 3.49 3.83
-4 3 12 0.22 2.68
3 -3 -12 3.15 4.02
-3 3 12 4.17 2.97
2 -3 -12 1.99 3.72
-2 3 12 2.98 3.31
