#------------------------------------------------------------------------------
#$Date: 2022-02-04 21:21:59 +0200 (Fri, 04 Feb 2022) $
#$Revision: 272620 $
#$URL: file:///home/coder/svn-repositories/cod/cif/7/24/41/7244146.cif $
#------------------------------------------------------------------------------
#
# This file is available in the Crystallography Open Database (COD),
# http://www.crystallography.net/
#
# All data on this site have been placed in the public domain by the
# contributors.
#
data_7244146
loop_
_publ_author_name
'Rixson, Daniel'
'G\"unay Sezer, G\"une\,s'
'Alp, Emre'
'Mahon, Mary F.'
'Burrows, Andrew D.'
_publ_section_title
;
 Synthesis, structures and properties of metal--organic frameworks
 prepared using a semi-rigid tricarboxylate linker
;
_journal_issue                   4
_journal_name_full               CrystEngComm
_journal_page_first              863
_journal_page_last               876
_journal_paper_doi               10.1039/D1CE01284C
_journal_volume                  24
_journal_year                    2022
_chemical_absolute_configuration ad
_chemical_formula_moiety         'C10 H11 N O8 Zn'
_chemical_formula_sum            'C10 H11 N O8 Zn'
_chemical_formula_weight         338.57
_space_group_crystal_system      monoclinic
_space_group_IT_number           4
_space_group_name_Hall           'P 2yb'
_space_group_name_H-M_alt        'P 1 21 1'
_atom_sites_solution_hydrogens   mixed
_atom_sites_solution_primary     iterative
_audit_creation_date             2018-08-09
_audit_creation_method
;
Olex2 1.2
(compiled 2018.05.29 svn.r3508 for OlexSys, GUI svn.r5506)
;
_audit_update_record
;
2021-07-19 deposited with the CCDC.	2021-12-20 downloaded from the CCDC.
;
_cell_angle_alpha                90
_cell_angle_beta                 95.584(3)
_cell_angle_gamma                90
_cell_formula_units_Z            2
_cell_length_a                   4.89590(10)
_cell_length_b                   10.0630(3)
_cell_length_c                   11.3009(4)
_cell_measurement_reflns_used    2901
_cell_measurement_temperature    149.9(3)
_cell_measurement_theta_max      73.1370
_cell_measurement_theta_min      3.9660
_cell_volume                     554.12(3)
_computing_cell_refinement       'CrysAlisPro 1.171.39.46 (Rigaku OD, 2018)'
_computing_data_collection       'CrysAlisPro 1.171.39.46 (Rigaku OD, 2018)'
_computing_data_reduction        'CrysAlisPro 1.171.39.46 (Rigaku OD, 2018)'
_computing_molecular_graphics    'Olex2 (Dolomanov et al., 2009)'
_computing_publication_material  'Olex2 (Dolomanov et al., 2009)'
_computing_structure_refinement  'ShelXL (Sheldrick, 2015)'
_computing_structure_solution    'olex2.solve (Bourhis et al., 2015)'
_diffrn_ambient_environment      N~2~
_diffrn_ambient_temperature      149.9(3)
_diffrn_detector                 'CCD plate'
_diffrn_detector_area_resol_mean 8.1150
_diffrn_detector_type            EosS2
_diffrn_measured_fraction_theta_full 1.000
_diffrn_measured_fraction_theta_max 1.000
_diffrn_measurement_device       'four-circle diffractometer'
_diffrn_measurement_device_type  'SuperNova, Dual, Cu at home/near, EosS2'
_diffrn_measurement_method       '\w scans'
_diffrn_radiation_monochromator  mirror
_diffrn_radiation_probe          x-ray
_diffrn_radiation_type           CuK\a
_diffrn_radiation_wavelength     1.54184
_diffrn_reflns_av_R_equivalents  0.0321
_diffrn_reflns_av_unetI/netI     0.0320
_diffrn_reflns_Laue_measured_fraction_full 1.000
_diffrn_reflns_Laue_measured_fraction_max 1.000
_diffrn_reflns_limit_h_max       6
_diffrn_reflns_limit_h_min       -6
_diffrn_reflns_limit_k_max       12
_diffrn_reflns_limit_k_min       -10
_diffrn_reflns_limit_l_max       13
_diffrn_reflns_limit_l_min       -14
_diffrn_reflns_number            4616
_diffrn_reflns_point_group_measured_fraction_full 0.740
_diffrn_reflns_point_group_measured_fraction_max 0.732
_diffrn_reflns_theta_full        67.684
_diffrn_reflns_theta_max         73.411
_diffrn_reflns_theta_min         3.930
_diffrn_source                   'micro-focus sealed X-ray tube'
_diffrn_source_type              'SuperNova (Cu) X-ray Source'
_exptl_absorpt_coefficient_mu    3.538
_exptl_absorpt_correction_T_max  1.00000
_exptl_absorpt_correction_T_min  0.81015
_exptl_absorpt_correction_type   multi-scan
_exptl_absorpt_process_details
;
CrysAlisPro 1.171.39.46 (Rigaku Oxford Diffraction, 2018)
Empirical absorption correction using spherical harmonics,
 implemented in SCALE3 ABSPACK scaling algorithm.
;
_exptl_crystal_colour            yellow
_exptl_crystal_colour_primary    yellow
_exptl_crystal_density_diffrn    2.029
_exptl_crystal_description       needle
_exptl_crystal_F_000             344
_exptl_crystal_size_max          0.141
_exptl_crystal_size_mid          0.041
_exptl_crystal_size_min          0.023
_refine_diff_density_max         0.660
_refine_diff_density_min         -0.490
_refine_diff_density_rms         0.081
_refine_ls_abs_structure_details
;
 Flack x determined using 440 quotients [(I+)-(I-)]/[(I+)+(I-)]
 (Parsons, Flack and Wagner, Acta Cryst. B69 (2013) 249-259).
;
_refine_ls_abs_structure_Flack   -0.09(3)
_refine_ls_extinction_method     none
_refine_ls_goodness_of_fit_ref   1.068
_refine_ls_hydrogen_treatment    mixed
_refine_ls_matrix_type           full
_refine_ls_number_parameters     189
_refine_ls_number_reflns         1628
_refine_ls_number_restraints     2
_refine_ls_restrained_S_all      1.068
_refine_ls_R_factor_all          0.0314
_refine_ls_R_factor_gt           0.0308
_refine_ls_shift/su_max          0.000
_refine_ls_shift/su_mean         0.000
_refine_ls_structure_factor_coef Fsqd
_refine_ls_weighting_details
'w=1/[\s^2^(Fo^2^)+(0.0492P)^2^+0.4235P] where P=(Fo^2^+2Fc^2^)/3'
_refine_ls_weighting_scheme      calc
_refine_ls_wR_factor_gt          0.0803
_refine_ls_wR_factor_ref         0.0810
_reflns_Friedel_coverage         0.382
_reflns_Friedel_fraction_full    0.446
_reflns_Friedel_fraction_max     0.431
_reflns_number_gt                1604
_reflns_number_total             1628
_reflns_threshold_expression     'I > 2\s(I)'
_iucr_refine_instructions_details
;
TITL s18adb20
CELL 1.54184 4.8959 10.063 11.3009 90 95.584 90
ZERR 2 0.0001 0.0003 0.0004 0 0.003 0
LATT -1
SYMM -X,0.5+Y,-Z
SFAC C H N O Zn
UNIT 20 22 2 16 2
EQIV $1 1+X,+Y,+Z
EQIV $2 +X,-1+Y,+Z
EQIV $3 1+X,-1+Y,+Z
EQIV $4 -X,0.5+Y,1-Z
EQIV $5 2-X,-0.5+Y,2-Z
EQIV $6 1-X,-0.5+Y,1-Z
DFIX 0.98 0.005 N1 H1
 
L.S. 8
PLAN  3
HTAB O6 O2_$4
HTAB O8 O1_$1
HTAB O7 O5_$2
HTAB N1 O4_$5
HTAB O8 O5_$3
HTAB O7 O2_$6
HTAB O7 O5_$3
HTAB O6 O1_$4
more -3
fmap 2
acta
REM <olex2.extras>
REM <HklSrc "%.\\s18adb20.hkl">
REM </olex2.extras>
 
WGHT    0.049200    0.423500
FVAR       1.06174
ZN1   5    0.629015    0.249280    0.770517    11.00000    0.01265    0.01309 =
         0.01805    0.00450   -0.00197   -0.00145
O1    4    0.397465    0.291303    0.609528    11.00000    0.01598    0.02145 =
         0.01719    0.00298   -0.00107   -0.00663
O2    4    0.402978    0.404326    0.441709    11.00000    0.02620    0.03097 =
         0.01971    0.00932   -0.00673   -0.01322
O3    4    1.088665    0.714816    1.091732    11.00000    0.01245    0.02802 =
         0.01658   -0.00811    0.00021   -0.00066
O4    4    0.705577    0.807792    1.144647    11.00000    0.01315    0.01756 =
         0.01424   -0.00389    0.00207   -0.00214
O5    4    0.029374    0.902354    0.788037    11.00000    0.03946    0.03064 =
         0.05745   -0.02418   -0.02875    0.02532
O6    4    0.002630    0.758965    0.637700    11.00000    0.01625    0.02314 =
         0.01811    0.00183   -0.00318    0.00752
AFIX 147
H6    2   -0.123027    0.807890    0.611629    11.00000    0.05820
AFIX   0
O7    4    0.518536    0.055083    0.772414    11.00000    0.06850    0.01681 =
         0.11321   -0.00247    0.02244   -0.00063
AFIX   7
H7A   2    0.632855    0.007254    0.737523    11.00000   -1.50000
H7B   2    0.365125    0.043944    0.729284    11.00000   -1.50000
AFIX   0
O8    4    0.914451    0.153446    0.646515    11.00000    0.03577    0.03303 =
         0.04784   -0.00472    0.01012   -0.00223
AFIX   7
H8A   2    1.002262    0.083477    0.680165    11.00000   -1.50000
H8B   2    1.051700    0.207637    0.633214    11.00000   -1.50000
AFIX   0
N1    3    0.797720    0.441819    0.725556    11.00000    0.01163    0.01286 =
         0.01265    0.00009   -0.00107    0.00104
H1    2    0.977233    0.447495    0.771830    11.00000    0.03990
C1    1    0.499115    0.376142    0.544995    11.00000    0.01538    0.01788 =
         0.01569   -0.00133    0.00366   -0.00194
C2    1    0.760042    0.448147    0.594581    11.00000    0.01116    0.01721 =
         0.01537   -0.00035    0.00351   -0.00315
AFIX  23
H2A   2    0.917198    0.408027    0.562482    11.00000   -1.20000
H2B   2    0.750135    0.540389    0.569617    11.00000   -1.20000
AFIX   0
C3    1    0.681966    0.549476    0.786418    11.00000    0.00943    0.01126 =
         0.01308    0.00024    0.00275   -0.00127
C4    1    0.802092    0.586790    0.898548    11.00000    0.00933    0.01302 =
         0.01488    0.00226   -0.00038    0.00154
AFIX  43
H4    2    0.953357    0.540515    0.933569    11.00000   -1.20000
AFIX   0
C5    1    0.695205    0.693741    0.958333    11.00000    0.01238    0.01484 =
         0.01304   -0.00015    0.00181   -0.00404
C6    1    0.839244    0.740210    1.073880    11.00000    0.01407    0.01230 =
         0.01299   -0.00029    0.00012   -0.00465
C7    1    0.468037    0.762682    0.906832    11.00000    0.01407    0.01255 =
         0.01453   -0.00087    0.00386    0.00000
AFIX  43
H7    2    0.396746    0.833605    0.946711    11.00000   -1.20000
AFIX   0
C8    1    0.348022    0.725014    0.795379    11.00000    0.01065    0.01249 =
         0.01643    0.00242    0.00287   -0.00012
C9    1    0.111368    0.804599    0.739449    11.00000    0.01288    0.01588 =
         0.02559    0.00125   -0.00149    0.00035
C10   1    0.451754    0.618366    0.735377    11.00000    0.00984    0.01404 =
         0.01320    0.00055    0.00003   -0.00252
AFIX  43
H10   2    0.368137    0.592918    0.661431    11.00000   -1.20000
AFIX   0
HKLF 4
 
REM  s18adb20
REM R1 =  0.0308 for    1604 Fo > 4sig(Fo)  and  0.0314 for all    1628 data
REM    189 parameters refined using      2 restraints
 
END  
     
WGHT      0.0492      0.4235 

REM Highest difference peak  0.660,  deepest hole -0.490,  1-sigma level  0.081
Q1    1   0.6425  0.0707  0.7305  11.00000  0.05    0.66
Q2    1   0.1333  0.9084  0.7369  11.00000  0.05    0.42
Q3    1   0.4064  0.0742  0.7393  11.00000  0.05    0.35

  REM The information below was added by Olex2.
  REM
  REM R1 = 0.0308 for 1604 Fo > 4sig(Fo) and 0.0314 for all 4631 data
  REM n/a parameters refined using n/a restraints
  REM Highest difference peak 0.66, deepest hole -0.49
  REM Mean Shift 0, Max Shift 0.000.

  REM +++ Tabular Listing of Refinement Information +++
  REM R1_all = 0.0314
  REM R1_gt = 0.0308
  REM wR_ref = 0.0810
  REM GOOF = 1.068
  REM Shift_max = 0.000
  REM Shift_mean = 0
  REM Reflections_all = 4631
  REM Reflections_gt = 1604
  REM Parameters = n/a
  REM Hole = -0.49
  REM Peak = 0.66
  REM Flack = -0.09(3)

  
;
_cod_data_source_file            d1ce01284c2.cif
_cod_data_source_block           s18adb20
_cod_depositor_comments
'Adding full bibliography for 7244143--7244152.cif.'
_cod_database_code               7244146
_shelxl_version_number           2014-3
_chemical_oxdiff_usercomment     'Colourless crystal'
_shelx_space_group_comment
;
The symmetry employed for this shelxl refinement is uniquely defined
by the following loop, which should always be used as a source of
symmetry information in preference to the above space-group names.
They are only intended as comments.
;
_olex2_refinement_description
;
1. Fixed Uiso
 At 1.2 times of:
  All C(H) groups, All C(H,H) groups
 At 1.5 times of:
  All O(H,H) groups
2. Restrained distances
 N1-H1
 0.98 with sigma of 0.005
3.a Rotating group:
 O7(H7A,H7B), O8(H8A,H8B)
3.b Secondary CH2 refined with riding coordinates:
 C2(H2A,H2B)
3.c Aromatic/amide H refined with riding coordinates:
 C4(H4), C7(H7), C10(H10)
3.d Idealised tetrahedral OH refined as rotating group:
 O6(H6)
;
_olex2_submission_special_instructions 'No special instructions were received'
loop_
_space_group_symop_operation_xyz
'x, y, z'
'-x, y+1/2, -z'
loop_
_atom_site_label
_atom_site_type_symbol
_atom_site_fract_x
_atom_site_fract_y
_atom_site_fract_z
_atom_site_U_iso_or_equiv
_atom_site_adp_type
_atom_site_occupancy
_atom_site_site_symmetry_order
_atom_site_calc_flag
_atom_site_refinement_flags_posn
_atom_site_refinement_flags_adp
_atom_site_refinement_flags_occupancy
_atom_site_disorder_assembly
_atom_site_disorder_group
Zn1 Zn 0.62902(9) 0.24928(7) 0.77052(5) 0.01482(17) Uani 1 1 d . . . . .
O1 O 0.3975(6) 0.2913(3) 0.6095(3) 0.0184(7) Uani 1 1 d . . . . .
O2 O 0.4030(7) 0.4043(4) 0.4417(3) 0.0262(8) Uani 1 1 d . . . . .
O3 O 1.0887(6) 0.7148(3) 1.0917(3) 0.0191(8) Uani 1 1 d . . . . .
O4 O 0.7056(6) 0.8078(3) 1.1446(3) 0.0149(6) Uani 1 1 d . . . . .
O5 O 0.0294(9) 0.9024(5) 0.7880(4) 0.0447(13) Uani 1 1 d . . . . .
O6 O 0.0026(6) 0.7590(5) 0.6377(3) 0.0195(7) Uani 1 1 d . . . . .
H6 H -0.1230 0.8079 0.6116 0.06(3) Uiso 1 1 calc GR . . . .
O7 O 0.5185(13) 0.0551(5) 0.7724(7) 0.0653(18) Uani 1 1 d . . . . .
H7A H 0.6329 0.0073 0.7375 0.098 Uiso 1 1 d GR . . . .
H7B H 0.3651 0.0439 0.7293 0.098 Uiso 1 1 d GR . . . .
O8 O 0.9145(9) 0.1534(5) 0.6465(4) 0.0385(10) Uani 1 1 d . . . . .
H8A H 1.0023 0.0835 0.6802 0.058 Uiso 1 1 d GR . . . .
H8B H 1.0517 0.2076 0.6332 0.058 Uiso 1 1 d GR . . . .
N1 N 0.7977(7) 0.4418(4) 0.7256(3) 0.0125(7) Uani 1 1 d D . . . .
H1 H 0.977(7) 0.447(8) 0.772(6) 0.04(2) Uiso 1 1 d D . . . .
C1 C 0.4991(9) 0.3761(5) 0.5450(4) 0.0162(9) Uani 1 1 d . . . . .
C2 C 0.7600(8) 0.4481(5) 0.5946(4) 0.0144(8) Uani 1 1 d . . . . .
H2A H 0.9172 0.4080 0.5625 0.017 Uiso 1 1 calc R . . . .
H2B H 0.7501 0.5404 0.5696 0.017 Uiso 1 1 calc R . . . .
C3 C 0.6820(8) 0.5495(5) 0.7864(4) 0.0111(8) Uani 1 1 d . . . . .
C4 C 0.8021(8) 0.5868(5) 0.8985(4) 0.0125(8) Uani 1 1 d . . . . .
H4 H 0.9534 0.5405 0.9336 0.015 Uiso 1 1 calc R . . . .
C5 C 0.6952(9) 0.6937(5) 0.9583(4) 0.0134(8) Uani 1 1 d . . . . .
C6 C 0.8392(8) 0.7402(6) 1.0739(3) 0.0132(8) Uani 1 1 d . . . . .
C7 C 0.4680(8) 0.7627(6) 0.9068(4) 0.0136(8) Uani 1 1 d . . . . .
H7 H 0.3967 0.8336 0.9467 0.016 Uiso 1 1 calc R . . . .
C8 C 0.3480(8) 0.7250(4) 0.7954(4) 0.0131(10) Uani 1 1 d . . . . .
C9 C 0.1114(9) 0.8046(5) 0.7394(5) 0.0183(9) Uani 1 1 d . . . . .
C10 C 0.4518(9) 0.6184(4) 0.7354(4) 0.0124(8) Uani 1 1 d . . . . .
H10 H 0.3681 0.5929 0.6614 0.015 Uiso 1 1 calc R . . . .
loop_
_atom_site_aniso_label
_atom_site_aniso_U_11
_atom_site_aniso_U_22
_atom_site_aniso_U_33
_atom_site_aniso_U_23
_atom_site_aniso_U_13
_atom_site_aniso_U_12
Zn1 0.0127(3) 0.0131(3) 0.0180(3) 0.0045(3) -0.00197(18) -0.0015(3)
O1 0.0160(14) 0.0214(18) 0.0172(15) 0.0030(13) -0.0011(12) -0.0066(12)
O2 0.0262(17) 0.031(2) 0.0197(18) 0.0093(17) -0.0067(14) -0.0132(16)
O3 0.0125(13) 0.028(2) 0.0166(14) -0.0081(13) 0.0002(12) -0.0007(12)
O4 0.0131(13) 0.0176(16) 0.0142(15) -0.0039(13) 0.0021(12) -0.0021(12)
O5 0.039(2) 0.031(2) 0.057(3) -0.024(2) -0.029(2) 0.025(2)
O6 0.0162(13) 0.0231(17) 0.0181(13) 0.0018(19) -0.0032(10) 0.0075(17)
O7 0.068(4) 0.017(2) 0.113(5) -0.002(3) 0.022(4) -0.001(2)
O8 0.036(2) 0.033(2) 0.048(3) -0.005(2) 0.0101(19) -0.0022(18)
N1 0.0116(15) 0.0129(19) 0.0126(18) 0.0001(15) -0.0011(13) 0.0010(14)
C1 0.0154(19) 0.018(2) 0.016(2) -0.0013(18) 0.0037(17) -0.0019(17)
C2 0.0112(18) 0.017(2) 0.015(2) -0.0003(18) 0.0035(15) -0.0031(17)
C3 0.0094(17) 0.011(2) 0.0131(19) 0.0002(17) 0.0028(15) -0.0013(15)
C4 0.0093(17) 0.013(2) 0.015(2) 0.0023(17) -0.0004(15) 0.0015(16)
C5 0.0124(18) 0.015(2) 0.0130(19) -0.0002(17) 0.0018(16) -0.0040(16)
C6 0.0141(16) 0.012(2) 0.0130(16) 0.000(2) 0.0001(13) -0.005(2)
C7 0.0141(16) 0.013(2) 0.0145(17) -0.001(2) 0.0039(14) 0.000(2)
C8 0.0106(16) 0.012(3) 0.0164(18) 0.0024(17) 0.0029(14) -0.0001(15)
C9 0.0129(19) 0.016(2) 0.026(2) 0.001(2) -0.0015(17) 0.0003(17)
C10 0.0098(19) 0.014(2) 0.013(2) 0.0005(17) 0.0000(15) -0.0025(16)
loop_
_atom_type_symbol
_atom_type_description
_atom_type_scat_dispersion_real
_atom_type_scat_dispersion_imag
_atom_type_scat_source
C C 0.0181 0.0091 'International Tables Vol C Tables 4.2.6.8 and 6.1.1.4'
H H 0.0000 0.0000 'International Tables Vol C Tables 4.2.6.8 and 6.1.1.4'
N N 0.0311 0.0180 'International Tables Vol C Tables 4.2.6.8 and 6.1.1.4'
O O 0.0492 0.0322 'International Tables Vol C Tables 4.2.6.8 and 6.1.1.4'
Zn Zn -1.5491 0.6778 'International Tables Vol C Tables 4.2.6.8 and 6.1.1.4'
loop_
_geom_angle_atom_site_label_1
_geom_angle_atom_site_label_2
_geom_angle_atom_site_label_3
_geom_angle
_geom_angle_site_symmetry_1
_geom_angle_site_symmetry_3
_geom_angle_publ_flag
O1 Zn1 O8 82.18(15) . . ?
O1 Zn1 N1 78.67(13) . . ?
O3 Zn1 O1 169.43(12) 2_747 . ?
O3 Zn1 O4 101.93(13) 2_747 2_647 ?
O3 Zn1 O7 89.4(2) 2_747 . ?
O3 Zn1 O8 89.23(15) 2_747 . ?
O3 Zn1 N1 94.94(14) 2_747 . ?
O4 Zn1 O1 87.64(13) 2_647 . ?
O4 Zn1 O8 164.94(15) 2_647 . ?
O4 Zn1 N1 100.96(14) 2_647 . ?
O7 Zn1 O1 94.7(2) . . ?
O7 Zn1 O4 92.61(19) . 2_647 ?
O7 Zn1 O8 77.3(2) . . ?
O7 Zn1 N1 164.5(2) . . ?
N1 Zn1 O8 87.94(16) . . ?
C1 O1 Zn1 115.5(3) . . ?
C6 O3 Zn1 132.9(3) . 2_757 ?
C6 O4 Zn1 128.1(3) . 2_657 ?
C2 N1 Zn1 105.0(3) . . ?
C3 N1 Zn1 112.6(3) . . ?
C3 N1 C2 115.7(4) . . ?
O1 C1 C2 118.3(4) . . ?
O2 C1 O1 124.2(4) . . ?
O2 C1 C2 117.5(4) . . ?
N1 C2 C1 111.5(4) . . ?
C4 C3 N1 119.3(4) . . ?
C4 C3 C10 119.5(4) . . ?
C10 C3 N1 121.2(4) . . ?
C3 C4 C5 120.1(4) . . ?
C4 C5 C6 119.7(4) . . ?
C7 C5 C4 120.2(4) . . ?
C7 C5 C6 119.9(4) . . ?
O3 C6 O4 124.2(4) . . ?
O3 C6 C5 116.7(4) . . ?
O4 C6 C5 119.1(4) . . ?
C5 C7 C8 119.6(4) . . ?
C7 C8 C9 118.6(4) . . ?
C7 C8 C10 120.7(4) . . ?
C10 C8 C9 120.7(4) . . ?
O5 C9 O6 124.1(5) . . ?
O5 C9 C8 121.3(5) . . ?
O6 C9 C8 114.7(4) . . ?
C8 C10 C3 119.9(4) . . ?
loop_
_geom_bond_atom_site_label_1
_geom_bond_atom_site_label_2
_geom_bond_distance
_geom_bond_site_symmetry_2
_geom_bond_publ_flag
Zn1 O1 2.091(3) . ?
Zn1 O3 2.009(3) 2_747 ?
Zn1 O4 2.063(3) 2_647 ?
Zn1 O7 2.028(5) . ?
Zn1 O8 2.286(4) . ?
Zn1 N1 2.185(4) . ?
O1 C1 1.257(6) . ?
O2 C1 1.248(6) . ?
O3 Zn1 2.009(3) 2_757 ?
O3 C6 1.245(5) . ?
O4 Zn1 2.063(3) 2_657 ?
O4 C6 1.278(6) . ?
O5 C9 1.214(7) . ?
O6 C9 1.303(6) . ?
N1 C2 1.475(5) . ?
N1 C3 1.430(6) . ?
C1 C2 1.527(6) . ?
C3 C4 1.396(6) . ?
C3 C10 1.399(6) . ?
C4 C5 1.399(7) . ?
C5 C6 1.497(6) . ?
C5 C7 1.390(6) . ?
C7 C8 1.390(6) . ?
C8 C9 1.497(6) . ?
C8 C10 1.392(6) . ?
loop_
_geom_hbond_atom_site_label_D
_geom_hbond_atom_site_label_H
_geom_hbond_atom_site_label_A
_geom_hbond_distance_DH
_geom_hbond_distance_HA
_geom_hbond_distance_DA
_geom_hbond_angle_DHA
_geom_hbond_site_symmetry_A
O6 H6 O1 0.82 2.73 3.269(4) 125.3 2_556
O6 H6 O2 0.82 1.74 2.558(5) 176.6 2_556
O7 H7A O2 0.86 2.27 2.913(8) 131.8 2_646
O7 H7A O5 0.86 2.23 2.926(7) 137.2 1_645
O7 H7B O5 0.86 2.32 2.865(8) 121.4 1_545
O8 H8A O5 0.89 2.19 3.014(7) 153.7 1_645
O8 H8B O1 0.89 1.93 2.808(6) 167.7 1_655
N1 H1 O4 0.980(6) 2.23(6) 3.032(5) 138(6) 2_747
loop_
_refln_index_h
_refln_index_k
_refln_index_l
_refln_F_squared_meas
_refln_F_squared_sigma
0 -4 0 3165.03 68.51
0 -4 1 869.98 21.74
0 -4 1 875.48 27.26
0 -4 -1 852.63 27.42
0 -4 -2 1832.76 46.27
0 -4 2 1881.96 40.57
0 -3 1 2378.21 50.05
0 -3 1 2392.48 45.54
0 -3 -2 2058.48 46.02
0 -3 2 2084.95 45.43
0 -3 -3 359.28 16.92
0 -3 -10 563.51 29.87
0 -3 -10 615.06 31.97
0 -3 -11 26.51 6.71
0 -3 -12 479.36 23.28
0 -3 -13 10.01 2.73
0 -2 -1 2832.23 55.53
0 -2 1 2970.5 55.57
0 -2 2 771.61 18.91
0 -2 -2 698.54 18.93
0 -2 -3 570.28 20.22
0 -2 -4 82.33 8.1
0 -2 -6 575.77 23.72
0 -2 -9 266.37 20.39
0 -2 -10 95.76 12.86
0 -2 -10 77.78 12.36
0 -2 -11 207.63 18.38
0 -2 -12 18.17 4.97
0 -2 -13 391.97 18.9
0 -1 0 2.55 0.65
0 -1 1 2020.05 35.93
0 -1 -1 1866.37 35.91
0 -1 2 94.32 4.02
0 -1 -2 102.76 4.32
0 -1 4 492.33 18.3
0 -1 -4 501.34 17.06
0 -1 -5 193.38 11.44
0 -1 -5 217.86 12.68
0 -1 -6 236.36 15.04
0 -1 -6 245.52 14.15
0 -1 -7 884.21 33.87
0 -1 -8 490.52 25.74
0 -1 -9 58.91 9.87
0 -1 -10 284.38 22.07
0 -1 -10 293.82 23.08
0 -1 -11 100.14 13.46
0 -1 -12 974.23 39.39
0 -1 -13 4.06 3.21
0 0 1 90.16 3.73
0 0 2 7504.96 130.98
0 0 -3 591.89 18.34
0 0 3 702.53 19.82
0 0 -4 663.41 22.03
0 0 4 674.73 22.09
0 0 -4 643.97 21.28
0 0 -5 1300.7 37.22
0 0 -5 1318.98 36.73
0 0 -6 5832.56 118.98
0 0 -6 5684.59 116.96
0 0 -7 2053.03 58.3
0 0 -7 2066.82 56.42
0 0 -8 452.73 25.63
0 0 -9 780.51 36.99
0 0 -10 98.27 13.75
0 0 -10 93.22 12.95
0 0 -11 24.85 8.18
0 0 -12 16.5 5.79
0 0 -12 13.85 4.64
0 0 -13 150.58 12.56
0 1 0 1.38 0.47
0 1 0 2.06 0.74
0 1 3 270.03 10.11
0 1 -3 291.11 12.4
0 1 -3 278.14 11.99
0 1 -4 487.1 19.07
0 1 -4 502.66 19.51
0 1 4 522.89 16.28
0 1 -5 206.76 13.36
0 1 5 241.46 10.96
0 1 -5 204.58 13.23
0 1 -6 248.2 16.13
0 1 -6 240.05 15.8
0 1 -7 917.66 36.38
0 1 -7 958.03 36.03
0 1 -8 485.19 26.17
0 1 8 504.51 26.91
0 1 -9 72.63 10.91
0 1 9 71.68 10.69
0 1 9 69.35 10.17
0 1 -9 68.88 11.27
0 1 10 282.37 19.01
0 1 -10 281.82 22.86
0 1 10 258.6 19.61
0 1 -10 262.26 22.31
0 1 -11 77.43 12.09
0 1 11 92.21 11.35
0 1 -12 925.53 38.88
0 1 -12 939.84 38.39
0 1 -13 5.11 3.31
0 1 -13 -0.44 1.66
0 2 0 9999 169.47
0 2 1 3107.72 59.66
0 2 2 675.91 20
0 2 -2 674.29 18.98
0 2 2 651.53 18.69
0 2 -3 602.8 20.37
0 2 -3 594.08 19.99
0 2 -3 527.54 17.22
0 2 3 550.3 19.27
0 2 3 565.41 18
0 2 -4 70.84 5.79
0 2 -4 79.67 7.92
0 2 -4 73.75 7.46
0 2 4 77.06 6.47
0 2 4 72.29 7.13
0 2 5 474.3 21.24
0 2 -5 468.99 22.01
0 2 5 503.32 18.67
0 2 -5 507.1 22.45
0 2 -6 615.34 27.52
0 2 -6 597.62 27.79
0 2 6 638.52 22.88
0 2 6 614.57 26.57
0 2 -7 2607.52 70.29
0 2 7 2470.14 67.74
0 2 -8 528.57 28.61
0 2 8 467.28 26.33
0 2 9 229.97 18.83
0 2 -9 265.61 20.86
0 2 -9 216.29 20.66
0 2 9 226.03 17.65
0 2 -9 257.98 21.38
0 2 -10 96.47 13.28
0 2 10 87.21 11.8
0 2 10 74.36 10.25
0 2 -10 85.81 13.21
0 2 -11 158.39 17.09
0 2 -11 168.86 16.78
0 2 11 161.16 15.23
0 2 12 12.98 3.85
0 2 -12 11.89 4.97
0 2 -12 11.53 4.48
0 2 -13 449.55 21.19
0 2 13 412.04 18.36
0 2 -13 428.79 20.86
0 3 0 2.29 1.42
0 3 -1 2403.84 49.83
0 3 1 2456.3 51.69
0 3 1 2426.03 51.04
0 3 1 2292.63 48.06
0 3 -1 2448.39 50.48
0 3 2 2125.17 48.21
0 3 -2 2126.34 48.89
0 3 2 2157.22 46.95
0 3 2 2231.95 50.03
0 3 -2 2163.45 48.92
0 3 3 356.02 15.66
0 3 -3 351.77 15.42
0 3 -3 390.33 17.26
0 3 3 358.16 14.02
0 3 3 356.49 16.45
0 3 4 1081.93 33.99
0 3 -4 1088.9 34.85
0 3 -4 1005.18 30.59
0 3 4 1127.29 32.14
0 3 5 1284.15 40.41
0 3 -5 1238.66 41.36
0 3 5 1374.16 38.31
0 3 -6 331.02 20.91
0 3 6 355.77 17.99
0 3 6 360.74 20.55
0 3 7 595.06 28.98
0 3 -7 599.78 30.75
0 3 -8 1113.53 45.51
0 3 8 1071.73 42.62
0 3 -9 58.62 10.15
0 3 -9 60.13 10.81
0 3 -9 53.22 10.62
0 3 9 60.2 9.71
0 3 9 68.19 10.29
0 3 9 74.18 10.61
0 3 -10 607.78 32.74
0 3 10 602.86 30.39
0 3 10 597.92 31.48
0 3 -10 622.61 36.28
0 3 -11 41.35 8.96
0 3 -11 37.27 8.75
0 3 11 36.48 7.43
0 3 -11 40.72 8.45
0 3 -12 544.8 28.32
0 3 12 513.14 25.41
0 3 -12 549.93 26.45
0 3 -13 16.12 4.26
0 3 13 14.76 3.57
0 3 -13 13.92 3.77
0 4 0 3587.08 76.96
0 4 0 3655.67 75.36
0 4 -1 946.93 27.81
0 4 -1 968.7 30.19
0 4 -1 910.72 26.96
0 4 1 995.94 29.43
0 4 1 981.72 29.21
0 4 1 908.63 25.16
0 4 2 2113.44 51.28
0 4 -2 2120.31 52.75
0 4 2 2180.08 50.35
0 4 2 2019.13 47.93
0 4 -2 2133.6 50.92
0 4 3 240.52 14.07
0 4 -3 243.73 14.5
0 4 3 233.38 12.78
0 4 3 210.91 12.62
0 4 -3 216.43 13.79
0 4 3 239.8 14.62
0 4 4 294.91 16.39
0 4 4 300.68 17.49
0 4 -4 317.98 18.18
0 4 -4 259.39 15.51
0 4 -5 482.68 25.02
0 4 5 501.63 24.6
0 4 5 517.66 23.23
0 4 6 899.36 36.07
0 4 6 952.44 34.26
0 4 -6 880.66 37.57
0 4 7 1644.05 53.82
0 4 -7 1582.21 56.39
0 4 -8 509.33 31.09
0 4 8 508.05 31.3
0 4 8 485.25 27.55
0 4 -8 487.85 31.6
0 4 8 481.54 26.92
0 4 8 493.26 28.19
0 4 9 215.1 17.79
0 4 9 180.84 16.96
0 4 9 171.16 16.66
0 4 -9 175.5 16.68
0 4 -9 214.96 21.35
0 4 9 178.91 19.04
0 4 -9 183.68 18.96
0 4 10 23.73 6.84
0 4 -10 26.03 7.19
0 4 -10 19.69 5.17
0 4 -10 28.82 8.04
0 4 -11 408.66 26.31
0 4 11 398.05 23.58
0 4 -11 391.17 22.96
0 4 -11 406.41 26.81
0 4 12 14.46 4.04
0 4 -12 8.72 3.35
0 4 -12 6.8 2.82
0 4 13 409.96 17.15
0 4 -13 418.91 18.68
0 5 0 -0.14 2.01
0 5 0 1.61 2.31
0 5 -1 1755.84 48.53
0 5 -1 1672.33 44.51
0 5 1 1653.1 46.37
0 5 1 1621.74 45.57
0 5 -1 1617.09 42.82
0 5 -2 188.05 12.75
0 5 -2 199.3 14.42
0 5 2 236.19 14.71
0 5 2 220.46 14.49
0 5 3 2171.49 57.87
0 5 -3 2199.25 57.89
0 5 3 2218.29 55.89
0 5 -3 2094.64 58.51
0 5 -4 955.55 35.82
0 5 4 1018.32 36.26
0 5 -4 964.21 36.62
0 5 5 2421.47 65.24
0 5 -5 2452.07 68.9
0 5 -5 2334.85 64.23
0 5 -6 525.17 29.91
0 5 6 626.1 28.97
0 5 7 979.69 40.55
0 5 7 974.43 44.03
0 5 7 992.9 39.76
0 5 -7 960.7 43.79
0 5 -7 1024.54 46.26
0 5 7 1041.22 39.7
0 5 -8 108.42 14.73
0 5 8 97.25 11.82
0 5 8 100.98 14.25
0 5 8 93.86 12.29
0 5 -8 82.74 12.7
0 5 9 7.51 4.27
0 5 -9 12.35 5.24
0 5 9 6.14 3.23
0 5 -9 5.43 5.07
0 5 9 -0.45 3.26
0 5 10 318.14 21.61
0 5 -10 295.63 23.06
0 5 -10 331.13 25.09
0 5 -11 100.43 12.46
0 5 -11 89.04 11.77
0 5 11 81.58 9.92
0 5 12 525.01 22.92
0 5 -12 558.53 25
0 6 0 5806.56 122.81
0 6 0 5900.7 126.52
0 6 -1 305.83 17.79
0 6 1 292.49 18.9
0 6 -1 294.3 19.6
0 6 1 290.56 18.2
0 6 -2 1644.78 48.27
0 6 2 1693.68 51.47
0 6 2 1614.48 50.83
0 6 3 782.14 31.82
0 6 -3 727.75 30.99
0 6 -3 750.92 33.83
0 6 3 748.4 32.32
0 6 4 1189.28 43.57
0 6 -4 1256.33 45.9
0 6 -4 1224.98 44.47
0 6 5 358.01 22.68
0 6 -5 303.69 21.36
0 6 -5 292.89 21.55
0 6 6 1472.34 51.77
0 6 -6 1572.61 56.99
0 6 6 1588.49 53.51
0 6 6 1528.6 57.02
0 6 7 1076.34 43.64
0 6 -7 1084.41 45.73
0 6 7 1075.24 44.03
0 6 -7 1149.05 49.23
0 6 7 1148.17 49.57
0 6 -7 1194.83 48.41
0 6 -7 1132.57 49.61
0 6 -8 421.72 29.4
0 6 8 449.23 30.22
0 6 -8 428.85 27.99
0 6 8 430.06 25.95
0 6 8 434.24 26.69
0 6 -8 419.34 29.07
0 6 -9 981.52 45.01
0 6 9 975.09 40.79
0 6 9 942.86 44.19
0 6 -9 978.43 43.15
0 6 9 942.17 39.66
0 6 -10 15.31 5.42
0 6 -10 17.29 6.13
0 6 10 10.99 4.29
0 6 11 18 4.6
0 6 -11 15.93 4.64
0 6 12 39.52 5.42
0 6 -12 44.54 5.76
0 6 12 39.67 5.18
0 7 0 3.42 3.51
0 7 0 -0.02 2.43
0 7 1 71.8 9.8
0 7 1 83.71 11.09
0 7 -1 73.24 10.5
0 7 2 217.47 17.93
0 7 -2 214.96 18.84
0 7 2 211.17 17.63
0 7 3 901.15 38.51
0 7 -3 951.72 41.97
0 7 3 915.43 39.39
0 7 4 90.99 11.94
0 7 -4 63.99 9.83
0 7 -4 58.82 10.15
0 7 -5 1361.87 51.32
0 7 5 1361.91 52.99
0 7 -5 1311.97 52.26
0 7 5 1221.33 45.96
0 7 5 1323.91 50.21
0 7 -5 1273.46 50.68
0 7 -5 1285.81 52.71
0 7 6 529.21 32.19
0 7 -6 527.19 31.67
0 7 6 546.46 29.5
0 7 6 514.15 29.91
0 7 -6 547.48 32.21
0 7 7 29.56 8.1
0 7 7 5.55 3.23
0 7 -7 21.6 5.91
0 7 7 22.56 7.03
0 7 -7 37.11 8.42
0 7 -7 27.03 6.5
0 7 8 381.1 23.47
0 7 8 415.18 25.31
0 7 -8 364.28 24.42
0 7 -8 366.51 25.76
0 7 8 455.46 29.17
0 7 -9 50.55 8.6
0 7 9 43.25 8.02
0 7 9 37.15 8.49
0 7 -9 54.57 9.15
0 7 9 35.82 6.58
0 7 -10 303.7 19.15
0 7 10 325.22 18.64
0 7 -11 129.1 10.11
0 7 11 112.11 9.09
0 7 11 115.41 9.69
0 8 0 389.94 27.23
0 8 0 394.75 28.56
0 8 0 388.25 26.42
0 8 0 407.86 27.57
0 8 1 260.69 22.09
0 8 1 275.53 22.32
0 8 1 255.79 20.46
0 8 1 255.44 23.24
0 8 -1 269.4 22.54
0 8 -1 285.04 23.12
0 8 1 222.32 20.01
0 8 -1 247.56 21.26
0 8 -1 262.52 21.38
0 8 2 270.23 21.09
0 8 2 285.07 25.05
0 8 -2 305.78 24.43
0 8 2 318.26 23.7
0 8 -2 306.25 24.08
0 8 -2 272.01 21.19
0 8 2 276.2 22.65
0 8 2 293.16 22.35
0 8 -2 271.02 22.63
0 8 2 305.62 24.25
0 8 3 56.46 10.02
0 8 -3 52.7 10.44
0 8 3 67.42 12.65
0 8 3 74.65 11.83
0 8 -3 56.62 9.66
0 8 3 61.13 10.57
0 8 3 57.62 10.34
0 8 -3 63.97 11.14
0 8 -3 59.76 11.86
0 8 4 322.04 23.9
0 8 4 267.43 22.24
0 8 -4 257.99 21.09
0 8 -4 303.08 24.58
0 8 -4 323.2 25.29
0 8 4 275.64 23.59
0 8 -4 294.79 24.49
0 8 -5 258.06 21.24
0 8 5 248.86 18.85
0 8 5 249.64 21.1
0 8 5 256.55 21.96
0 8 -5 262.51 22.58
0 8 5 304.9 24.11
0 8 6 168.67 17.8
0 8 -6 161.61 16.72
0 8 6 177.27 18.17
0 8 -6 172.43 17.89
0 8 6 185.64 16.35
0 8 -7 613.11 32.93
0 8 -7 602.76 32.92
0 8 7 620.99 34.13
0 8 7 675.3 35.18
0 8 7 605.64 30.26
0 8 8 3.84 4.14
0 8 8 1.95 2.24
0 8 -8 3.83 3.42
0 8 -8 0.55 2.78
0 8 8 -4.94 3.34
0 8 8 4.9 3.6
0 8 9 465.63 24.26
0 8 -9 412.89 23.33
0 8 9 417.18 20.28
0 8 9 463.13 25.35
0 8 10 42.5 6.07
0 8 -10 40.74 5.76
0 8 10 47.21 5.59
0 9 0 -3.34 3.89
0 9 0 1.3 3.32
0 9 0 -0.03 3.24
0 9 0 -0.97 2.99
0 9 -1 635.72 36.59
0 9 -1 666.03 38.21
0 9 1 640.78 38.39
0 9 1 557.13 31.5
0 9 1 562.42 34.58
0 9 1 597.91 34.42
0 9 1 579.03 34.87
0 9 -1 603.29 36.3
0 9 2 61.54 12
0 9 -2 65.21 11.36
0 9 2 70.17 11.14
0 9 2 66.61 10.69
0 9 -2 61.91 11.71
0 9 2 56.98 10.46
0 9 3 475.64 29.34
0 9 -3 544.54 33.17
0 9 -3 513.83 29.31
0 9 3 461.5 29.99
0 9 4 92.17 12.69
0 9 -4 114.11 13.52
0 9 -4 100.76 13.89
0 9 4 107.86 14.23
0 9 -5 961.11 41.45
0 9 -5 1009.65 45.18
0 9 5 993.02 44.01
0 9 5 1069.14 45.96
0 9 6 173.08 14.34
0 9 6 155.59 16.2
0 9 -6 185.73 17.47
0 9 -6 158.45 15.31
0 9 6 182 17.38
0 9 7 43.71 6.82
0 9 -7 53.26 8.71
0 9 -7 43.55 7.55
0 9 7 53.06 9.46
0 9 7 51.03 8.48
0 9 -8 273.05 17.51
0 9 8 338.39 19.83
0 9 8 335.02 20.31
0 9 9 58 6.93
0 9 -9 60.46 6.64
0 10 0 505.52 31.82
0 10 0 475.92 31.89
0 10 1 21.86 7.59
0 10 -1 13.51 6.18
0 10 -1 15.76 6.27
0 10 1 23.81 6.25
0 10 1 26.82 7.79
0 10 2 639.51 32.7
0 10 -2 705.54 33.88
0 10 -2 735.64 39.24
0 10 -2 721.44 37.87
0 10 2 744.47 37.17
0 10 -3 4.25 2.92
0 10 -3 11.75 5.26
0 10 3 0.85 2.24
0 10 3 4.16 3.74
0 10 4 319.19 21.04
0 10 4 286.03 20.85
0 10 4 328.86 22.86
0 10 -4 334.84 22.1
0 10 -4 327.37 23.53
0 10 -4 330.87 24.61
0 10 5 136.18 13.97
0 10 -5 148.4 14.91
0 10 -6 181.48 14.88
0 10 6 152.38 13.5
0 10 6 158.72 13.83
0 10 7 457.12 21.69
0 10 -7 412.33 20.03
0 10 7 457.33 21.6
0 10 -8 35.4 5.54
0 10 8 44.94 5.42
0 11 0 1.9 3.77
0 11 0 1.36 3.83
0 11 0 -3.14 3.6
0 11 1 562.82 27.08
0 11 -1 647.1 32.34
0 11 -1 552.67 27.82
0 11 1 614.46 31.26
0 11 -1 584.21 32.25
0 11 -2 113 12.68
0 11 -2 88.25 11.83
0 11 2 87.67 11.06
0 11 -2 101.97 12.36
0 11 -3 921.9 38.84
0 11 3 876.02 32.8
0 11 -3 911.99 36.16
0 11 3 927.89 35.59
0 11 -3 900.66 37.26
0 11 -4 239.24 17.03
0 11 -4 210.9 14.5
0 11 4 229.45 14.82
0 11 4 219.44 14.46
0 11 -4 244.31 17.97
0 11 4 261.98 16.92
0 11 5 566.34 24.18
0 11 5 526.83 22.97
0 11 -5 542.32 24.07
0 11 5 497.08 21.34
0 11 -5 571.7 26.23
0 11 -6 144.87 11.36
0 11 6 152.47 9.95
0 11 6 146.13 9.97
0 12 0 106.87 9.39
0 12 0 105.03 10.24
0 12 1 26.87 4.91
0 12 -1 33.6 5.9
0 12 1 35.02 5.54
0 12 -2 130.68 10.66
0 12 2 124.25 10.12
0 12 2 153.46 11.36
0 12 -3 61.88 7.19
0 12 3 78.34 7.66
1 -8 -4 1134.51 45.45
1 -7 -2 686.93 30.26
1 -6 -1 1571.02 45.41
1 -5 0 1278.07 36.44
1 -4 -12 127.09 10.66
1 -4 -11 397.06 22.6
1 -4 -10 54.01 9.42
1 -4 0 1351.11 36.99
1 -4 0 1305.84 34.99
-1 -4 0 1326.47 33.4
-1 -4 -1 1853.09 45.62
1 -4 1 1850.29 47.19
1 -4 1 1916.51 44.87
1 -4 2 1301.12 34.11
1 -3 -13 18.06 4.06
1 -3 -12 142.88 12.82
1 -3 -12 130.38 12.44
1 -3 -11 183.94 16.54
-1 -3 4 405 16.24
1 -3 0 1676.55 39.9
-1 -3 0 1705.86 37
-1 -3 -1 1114.21 29.52
1 -3 1 1184.75 32.1
1 -3 1 1102.82 29.46
-1 -3 -2 628.52 22.49
1 -3 2 668.77 20.86
-1 -3 -8 28.26 6.63
1 -2 -13 121.5 10.7
1 -2 -12 66.52 9.86
1 -2 -12 60.49 9.15
1 -2 -11 343.25 23.76
1 -2 -6 1522.62 45.2
1 -2 -4 1408.33 39.16
-1 -2 3 249.52 7.64
-1 -2 2 6931.55 118.75
-1 -2 0 338.23 10.16
1 -2 0 343.18 13.61
1 -2 0 342.28 12.9
1 -2 1 1233.49 30.74
1 -2 1 1322.3 32.87
1 -2 2 979.74 26.21
-1 -2 -8 201.56 17.86
-1 -2 -9 512.12 29.6
-1 -2 -9 507.03 29.09
-1 -2 -10 531.15 29.67
-1 -2 -11 585.82 29.38
-1 -2 -12 130.96 11.64
-1 -2 -13 122.73 8.6
1 -1 -13 38.99 6.92
1 -1 -12 193.83 16.99
1 -1 -12 174.79 15.76
1 -1 -11 16.03 6.82
1 -1 -10 289.6 22.73
1 -1 -9 1817.02 62.52
1 -1 -8 28.52 6.4
1 -1 -7 1622.83 50.77
1 -1 -6 53.31 7.64
1 -1 -5 591.27 23.84
1 -1 -4 160.81 10
1 -1 -3 3107.21 62.84
-1 -1 2 7816.59 136.07
1 -1 -1 1465.41 31.75
-1 -1 1 1348.17 27.79
1 -1 0 1282.49 29.41
1 -1 1 2339.51 48.07
1 -1 2 1656.22 37.78
-1 -1 -5 107.42 8.49
-1 -1 -7 74.89 10.66
-1 -1 -8 483.03 28.17
-1 -1 -9 44.04 8.96
-1 -1 -9 33.34 7.47
-1 -1 -10 272.76 21.92
-1 -1 -11 83.61 11.5
-1 -1 -12 410.41 22.52
-1 -1 -13 92.06 8.39
1 0 -14 114.9 8.23
1 0 -13 158.06 13.19
1 0 -12 8.27 5.2
1 0 -11 470.81 29.08
-1 0 11 434.51 23.4
1 0 -10 674.52 35.57
-1 0 10 668.42 30.85
-1 0 10 672.37 37.08
1 0 -9 301.99 22.6
-1 0 9 270.88 18.93
1 0 -9 272.4 21.42
1 0 -8 642.98 31.72
1 0 -7 308.48 20.2
1 0 -6 1907.24 54.36
1 0 -5 239.42 15.05
1 0 -4 3385.94 73.26
1 0 -3 595.19 16.8
-1 0 2 251.96 10.17
-1 0 1 3238.23 61.4
1 0 -1 3277.21 61.45
1 0 0 2460.3 48.07
1 0 1 1378.28 31.15
1 0 2 885.64 22.58
-1 0 -3 3060.46 60.67
1 0 3 2998.87 59.34
-1 0 -4 1458.22 36.53
-1 0 -4 1485.91 37.8
1 0 5 5134.05 100.52
-1 0 -5 5146.1 102.01
1 0 6 131.02 10.2
-1 0 -6 125.47 10.65
-1 0 -6 116.06 12.17
-1 0 -7 154.46 14.94
-1 0 -8 368.46 24.59
1 0 9 347.55 22.68
-1 0 -9 356.79 25.5
-1 0 -9 363.44 25.34
-1 0 -10 225.54 20.26
1 0 10 215.56 17.5
1 0 11 239.1 17.58
-1 0 -11 282.87 21.45
-1 0 -12 53.97 8.15
-1 0 -13 182.51 12.5
1 1 -13 20.07 5.04
1 1 -12 186.47 16.34
-1 1 12 164.24 13.16
-1 1 11 3.52 4.07
1 1 -11 15.43 5.41
1 1 -10 292.78 22.99
1 1 -10 261.5 21.71
-1 1 10 279.57 19.91
-1 1 10 267.98 19.78
1 1 -10 288.28 22.65
-1 1 10 277.79 23.34
-1 1 9 1828.49 63.64
-1 1 9 1745.49 55.76
1 1 -9 1767.27 62.09
1 1 -9 1892.45 62.6
1 1 -9 1798.86 61.96
1 1 -8 37.64 7.98
1 1 -7 1802.42 56.83
1 1 -6 42.25 7.42
1 1 -5 562.54 24.63
1 1 -4 173.52 11.91
1 1 -3 2823.66 61.56
-1 1 2 8083.1 145.37
-1 1 1 1555.93 35.12
1 1 0 1496.6 33.01
1 1 0 1462.4 28.51
1 1 1 2324.53 46.33
1 1 1 2321.74 47.82
-1 1 -2 1718.62 39.26
1 1 2 1795.04 39.99
1 1 2 1734.4 38.83
1 1 3 1497.44 37.38
1 1 3 1544.29 39.51
-1 1 -3 1600.87 38.51
-1 1 -3 1568.86 38.87
1 1 4 6827.4 129.43
-1 1 -4 6904.15 131.21
-1 1 -4 6822.05 131.5
-1 1 -5 92.75 9.28
1 1 5 96.21 8.79
-1 1 -5 89.29 9.95
-1 1 -5 76.01 8.12
-1 1 -6 3027.9 77.44
-1 1 -6 2893.43 72.53
-1 1 -7 77.98 10.94
-1 1 -8 513.18 30.19
1 1 9 34.31 7.37
-1 1 -9 30.5 7.61
-1 1 -9 36.4 7.96
-1 1 -9 20.14 6.66
1 1 10 273.08 20.21
-1 1 -10 260.71 21.43
-1 1 -10 301.63 23.2
-1 1 -11 86.87 12.59
1 1 11 96.07 11.41
-1 1 -11 81.86 11.3
1 1 12 410.92 21.25
-1 1 -12 457.85 24.55
-1 1 -13 83.94 8.27
1 2 -13 117.73 10.42
1 2 -13 154.83 12.59
-1 2 12 52.86 7.79
1 2 -12 66.03 9.63
-1 2 12 60.96 8.23
1 2 -12 45.91 7.8
-1 2 11 337.47 22.11
-1 2 11 320.14 21
1 2 -11 347 23.98
1 2 -11 306.24 23.26
1 2 -10 166.9 18.07
1 2 -10 209.37 19.37
-1 2 10 173.06 15.96
1 2 -10 159.81 17.47
-1 2 10 180.74 18.71
1 2 -9 176.87 17.25
1 2 -9 170.33 18.24
-1 2 9 205.35 19.45
1 2 -9 164.34 17.62
-1 2 9 195.03 16.75
1 2 -8 1109.26 45.93
-1 2 8 1080.27 45.26
1 2 -7 16.84 6.08
-1 2 7 12.94 5.04
-1 2 6 1471.61 48.42
1 2 -6 1491.39 49.51
1 2 -5 431.52 22.45
-1 2 5 465.7 23.06
1 2 -4 1180.43 36.14
-1 2 4 1131.5 30.02
-1 2 4 1091.49 27.95
1 2 -4 1117.8 28.91
-1 2 4 1132.51 35.77
-1 2 3 276.48 13.98
1 2 -3 269.88 14.19
-1 2 3 277.93 12
-1 2 3 275.87 14.58
1 2 -3 246.85 11.11
1 2 -3 261.41 12.1
1 2 -2 7027.41 125.66
1 2 -2 6685.35 122.79
1 2 -2 6585.94 125.6
-1 2 2 6563.86 126.61
-1 2 2 7065.96 127.19
1 2 -1 549.7 18.34
1 2 -1 501.09 16.46
-1 2 1 537.29 17.51
-1 2 1 532.92 18.18
1 2 -1 525.63 16.45
-1 2 0 351.72 12.19
1 2 0 322.09 8.12
1 2 0 331.87 11.91
-1 2 -1 1133.56 29.03
-1 2 -1 1110.66 26.57
1 2 1 1120.62 27.91
1 2 1 1115.27 28.7
-1 2 -2 904.35 26.36
-1 2 -2 898.7 24.8
1 2 2 854.83 25.01
-1 2 -2 926.69 26.58
-1 2 -3 2986.11 63.92
-1 2 -3 2872.39 64.56
-1 2 -3 2812.03 59.11
1 2 3 2881.02 57.96
-1 2 -3 3076.06 65.15
1 2 3 2946.75 62.63
1 2 3 2756.73 57.59
-1 2 -4 2486.07 61.34
1 2 4 2537.63 58.31
-1 2 -4 2514.42 61.23
-1 2 -4 2549.21 61.07
1 2 5 1636.82 43.85
-1 2 -5 1544.31 47.25
-1 2 -5 1546.9 46.24
-1 2 -6 13.21 4.13
-1 2 -6 22.21 5.52
1 2 6 16.11 4.45
-1 2 -7 197.92 17.53
-1 2 -7 198.93 16.44
1 2 7 199.89 14.71
-1 2 -8 195.45 17.1
-1 2 -8 196.43 18.76
-1 2 -9 520.75 31.48
-1 2 -9 506.25 30.51
1 2 9 518.86 29.09
1 2 10 483.61 27.99
-1 2 -10 456.73 29.06
-1 2 -10 501.82 30.05
-1 2 -11 530.62 29.83
-1 2 -11 553.08 30.01
1 2 11 600.27 29.41
-1 2 -12 145.02 13.3
1 2 12 125.39 11.5
-1 2 -12 121.74 11.75
-1 2 -13 163.93 11.23
1 2 13 158.15 9.83
-1 3 13 10.84 3.06
1 3 -13 12.16 3.35
1 3 -13 17.58 4.1
-1 3 12 143.94 12.3
1 3 -12 118.75 12.63
1 3 -12 133.37 12.24
-1 3 12 116.01 11.49
-1 3 11 182.57 15.72
1 3 -11 185.78 16.54
1 3 -11 193.73 17.95
-1 3 11 185.98 16.62
1 3 -11 196.9 18.75
1 3 -10 261.6 22.87
-1 3 10 276.01 20.39
-1 3 10 246.26 19.26
1 3 -10 243.07 19.99
-1 3 9 3343.49 86.97
1 3 -9 3170.91 88.51
-1 3 9 3285.03 87.29
-1 3 9 3253.15 93
1 3 -9 3436.87 97.87
-1 3 9 3225.82 93.2
1 3 -9 3474.41 96.37
-1 3 8 99.24 13.39
1 3 -8 105.31 13.92
1 3 -7 1824.77 61
-1 3 7 1886.04 60.76
1 3 -6 63.68 9.53
-1 3 6 46.77 7.99
-1 3 5 381.68 17.92
-1 3 5 403.33 22.59
1 3 -5 411.74 22.39
-1 3 4 448.69 17.41
-1 3 4 493.16 19.99
-1 3 4 507.88 23.65
1 3 -4 504.35 22.94
1 3 -4 476.81 19.71
-1 3 3 3471.85 68.02
1 3 -3 3471.88 75.56
-1 3 3 3361.6 70.1
1 3 -3 3312.12 70.87
-1 3 3 3415.21 76.68
-1 3 3 3396.13 72.51
1 3 -3 3362.07 73.54
-1 3 2 5888.31 107.41
1 3 -2 5613.43 103.12
-1 3 2 5652.28 108.87
-1 3 2 5795.97 112.7
1 3 -2 5688.65 110.14
-1 3 2 5728.6 110.29
1 3 -2 5597.29 111.99
1 3 -2 5657.81 109.16
-1 3 2 5828.98 112.43
1 3 -1 4384.06 85.28
1 3 -1 4538.07 84.51
1 3 -1 4318.13 87.76
-1 3 1 4460.79 88.21
1 3 -1 4514.63 91.07
-1 3 1 4584.18 90.03
-1 3 0 1631.26 39.86
1 3 0 1635.36 41.66
-1 3 0 1635.89 38.15
1 3 0 1634.87 39.54
1 3 0 1525.85 37.48
1 3 1 1262.56 35.11
-1 3 -1 1204.97 33.45
1 3 1 1280.92 33.14
1 3 1 1285.68 33.26
-1 3 -1 1254.86 33.54
-1 3 -2 591.72 22.47
-1 3 -2 558.35 20.35
1 3 2 581.53 20.12
1 3 2 602.58 21.42
-1 3 -2 594.93 22.3
-1 3 -2 635.24 20.58
1 3 2 593.89 22.07
1 3 3 69.37 7.29
1 3 3 89.51 8.24
-1 3 -3 62.26 7.28
-1 3 -3 64.54 6.85
-1 3 -3 64.02 6.32
1 3 4 2273.5 57.35
-1 3 -4 2369.05 60.51
-1 3 -4 2372.33 59.22
-1 3 -5 87.09 8.88
1 3 5 107.6 10.15
-1 3 -5 95.19 10.56
-1 3 -5 109.11 11.22
-1 3 -6 1033.46 40.35
-1 3 -6 1053.79 41.12
1 3 6 1123.21 37.81
-1 3 -7 117.17 13.71
1 3 7 145.58 13.2
-1 3 -7 101.79 12.65
-1 3 -8 40.33 9.04
-1 3 -8 40.17 8.86
-1 3 -8 21.66 7.12
1 3 8 27.65 6.49
-1 3 -8 37.22 8.45
-1 3 -9 189.36 18.01
-1 3 -9 201.23 20.22
-1 3 -9 179.48 18.69
1 3 9 203.71 18.11
-1 3 -10 119.73 14.16
-1 3 -10 110.35 13.96
1 3 10 96.93 12.46
-1 3 -11 3.68 3.84
-1 3 -11 5.07 4.22
1 3 11 6.45 3.73
-1 3 -12 42.52 7.25
-1 3 -12 54.84 7.86
1 3 12 42.51 6.49
1 3 13 230.52 11.64
-1 3 -13 211.19 11.62
1 4 -13 95.34 8.56
-1 4 13 86.95 7.32
1 4 -12 157.16 14.29
1 4 -12 152.47 13.86
-1 4 12 146.87 12.47
-1 4 11 411.46 23.43
1 4 -11 411.31 25.28
1 4 -11 414.45 27.07
-1 4 11 444.35 25.46
-1 4 10 57.82 9.07
1 4 -10 62.31 11.44
-1 4 10 47.03 8.73
1 4 -10 70.65 11.88
-1 4 9 163.84 15.78
-1 4 9 167.87 17.63
-1 4 9 148.77 17.21
1 4 -9 159.78 17.98
-1 4 9 164.24 16.12
1 4 -9 170.36 19.04
1 4 -8 1152.54 50.96
-1 4 8 1158.34 48.55
1 4 -8 1126.15 49.01
-1 4 8 1167.9 43.88
-1 4 8 1147.57 45.07
-1 4 8 1127.16 48.54
-1 4 7 330.78 23.53
1 4 -7 316.45 23.45
-1 4 6 880.11 37.95
1 4 -6 846.19 37.43
-1 4 5 75.42 9
-1 4 5 68.63 9.68
1 4 -5 77.26 10.09
1 4 -4 1077.48 36.95
-1 4 4 1079.62 38.29
-1 4 4 964.06 33.75
1 4 -4 998.23 34.6
-1 4 3 603.4 22
-1 4 3 610.19 24.71
1 4 -3 653.79 25.53
-1 4 3 606.01 26.54
1 4 -3 667.08 26.71
-1 4 2 3406.16 72.09
1 4 -2 3383.38 72.19
-1 4 2 3378 74.97
-1 4 1 765.64 25.46
1 4 -1 716.75 23.14
1 4 -1 722.45 27.64
1 4 -1 681.15 21.9
1 4 0 1461.18 38.6
-1 4 0 1462.68 40.06
1 4 0 1505.94 43.04
-1 4 -1 1881.35 48.68
1 4 1 1873.2 47.16
1 4 1 1903.81 50.24
1 4 2 1387.79 38.99
-1 4 -2 1308.6 39.18
1 4 2 1325.53 39.64
-1 4 -3 3422.84 80.55
1 4 3 3632.74 80.72
-1 4 -3 3608.73 82.77
1 4 3 3689.75 81.1
-1 4 -4 211.51 14.62
-1 4 -4 218.86 16.19
1 4 4 210.26 14.68
1 4 5 2173.46 59.02
-1 4 -5 2171.5 62.67
-1 4 -5 2009.75 56.96
1 4 6 45.01 7.58
-1 4 -6 33.45 7.13
1 4 7 1381.94 47.19
-1 4 -7 1273.33 50.52
-1 4 -8 202.05 17.78
-1 4 -8 238.15 22.07
-1 4 -8 211.54 20.1
-1 4 -8 222.24 20.19
1 4 8 209.26 18.15
-1 4 -9 712.63 38.47
1 4 9 711.89 34.75
-1 4 -9 707.23 35.11
-1 4 -10 779.03 37.91
-1 4 -10 643.24 31.68
-1 4 -10 640.36 32.35
1 4 10 747.24 34.43
1 4 11 482.67 25.26
-1 4 -11 506.14 25.61
-1 4 -11 512.24 28.02
-1 4 -12 137.98 10.88
1 4 12 150.59 11.56
-1 4 -12 153.2 12.42
1 5 -12 55.47 7.96
-1 5 12 59.23 7.33
1 5 -12 58.23 7.95
1 5 -11 315.8 20.27
1 5 -11 325.86 21.84
-1 5 11 327.97 20.61
1 5 -11 316.63 22.24
1 5 -10 209.36 20.16
-1 5 10 231.63 18.84
1 5 -10 217.4 19.33
-1 5 10 233.19 17.92
-1 5 10 238.43 20.69
-1 5 9 711.76 38.69
1 5 -9 702.5 38.52
-1 5 9 738.89 35.67
-1 5 9 653.54 32.32
1 5 -8 35.54 8.79
-1 5 8 27.68 8.08
-1 5 8 20.93 5.91
-1 5 8 32.75 7.56
1 5 -8 24.75 7.54
-1 5 8 50.57 9.79
1 5 -8 30.73 7.85
-1 5 7 526.66 29.09
-1 5 7 467.44 29.25
1 5 -7 461.61 30.14
1 5 -7 504.88 30.68
-1 5 7 474.02 25.87
-1 5 7 531.45 31.8
1 5 -7 459.99 30.86
1 5 -6 73.31 10.94
-1 5 6 80.85 11.43
-1 5 6 70.45 9.68
-1 5 5 481.2 27.4
1 5 -5 444.04 25.48
-1 5 5 470.29 24.47
-1 5 4 597.91 27.53
-1 5 4 641.84 30.27
1 5 -4 588.26 28.43
1 5 -4 631.35 28.47
-1 5 3 2669.62 69.38
-1 5 3 2799.93 65.78
1 5 -3 2681.85 72.17
1 5 -3 2789.85 67.85
-1 5 2 2180.14 58.76
-1 5 2 2305.57 57.19
1 5 -2 2243.19 54.67
-1 5 1 1524.13 43.81
1 5 -1 1466.16 47.16
1 5 -1 1446.44 40.32
1 5 0 1329.46 39
1 5 0 1344.26 44.02
-1 5 0 1295.08 40.65
-1 5 -1 1559.17 46.41
1 5 1 1556.14 44.92
1 5 1 1545.37 47.59
1 5 2 471.72 23.62
1 5 2 520.43 23.88
-1 5 -2 485.26 23.84
1 5 3 574.51 26.21
-1 5 -3 531.8 25.86
1 5 3 608.98 26.88
1 5 4 1461.61 46.71
-1 5 -4 1334.19 45.63
1 5 4 1394.08 44.83
1 5 5 94.92 11.1
-1 5 -5 71.39 9.5
-1 5 -5 62.11 9.63
-1 5 -6 1850.39 63.59
1 5 6 2074.26 62.4
-1 5 -7 125.74 15.79
1 5 7 100.28 12.54
-1 5 -7 115.04 14.34
-1 5 -7 111.46 13.22
1 5 7 118.58 14.42
1 5 7 114.87 13.37
-1 5 -8 502.29 28.98
1 5 8 503.19 28.34
1 5 8 477.96 28.32
-1 5 -8 526.13 32.13
-1 5 -8 539.52 33.36
1 5 8 531.37 31.64
-1 5 -9 85.55 10.78
-1 5 -9 77.66 10.8
1 5 9 87.35 11.57
-1 5 -9 82.99 12.53
-1 5 -10 218.84 16.7
-1 5 -10 235.88 19.73
1 5 10 253.91 18.67
1 5 11 96.31 10.22
-1 5 -11 83.28 10.76
-1 5 -11 77.06 8.53
1 5 12 71.98 7.2
-1 5 -12 89.34 8.57
-1 6 12 96.99 8.09
1 6 -12 77.87 7.24
1 6 -11 52.43 8.57
-1 6 11 68.51 8.57
1 6 -11 51.31 7.54
-1 6 10 423.01 26.62
-1 6 10 449.61 25.17
1 6 -10 464.23 28.51
1 6 -10 432.34 25.36
1 6 -10 466.11 26.62
-1 6 10 491.89 26.11
-1 6 9 96.75 13.72
1 6 -9 88.34 13.43
-1 6 9 115.95 13.48
1 6 -9 79.9 11.58
1 6 -9 99.41 13.2
-1 6 9 101.31 11.4
-1 6 8 290.72 21.94
-1 6 8 278.38 23.74
1 6 -8 265.9 23.69
1 6 -8 274.22 23.34
-1 6 8 254.68 18.99
-1 6 7 92.21 13.86
-1 6 7 84.13 10.63
1 6 -7 95.07 13.95
1 6 -7 87.82 12.81
1 6 -7 100.94 14.21
-1 6 7 76 11.48
-1 6 6 327.94 25.19
-1 6 6 307.69 22.09
1 6 -6 291.03 24.04
-1 6 6 299.09 20.98
1 6 -6 320.72 24.29
1 6 -6 317.07 23.44
-1 6 6 279.63 18.93
-1 6 5 59.46 9.64
1 6 -5 63.47 10.25
1 6 -4 1857.03 56.69
-1 6 4 1792.31 57.38
1 6 -4 1880.83 61.19
-1 6 3 105.79 11.93
1 6 -3 124.79 11.57
-1 6 3 98.41 10.45
-1 6 2 1155.38 39.93
1 6 -2 1073.36 43.45
-1 6 1 1645.13 51.26
1 6 -1 1716.11 48.65
1 6 -1 1772.65 57.24
1 6 0 673.98 28.26
-1 6 0 691.03 30.46
1 6 0 645.78 31.87
1 6 1 799.24 32.63
-1 6 -1 881.11 35.57
1 6 1 862.96 36.5
1 6 2 250.95 17.92
1 6 2 252.93 18.76
1 6 3 1062.44 41.23
-1 6 -3 1078.91 42.31
1 6 3 1187.78 42.66
1 6 4 227.63 18.01
-1 6 -4 202.45 17.4
-1 6 -5 821.27 37.33
1 6 5 911.28 38.98
-1 6 -6 197.44 18.47
1 6 6 232.94 19.23
-1 6 -6 233.08 19.13
1 6 6 199.03 17.09
-1 6 -6 255.5 20.77
1 6 6 209.46 17.58
1 6 6 212.41 18.76
-1 6 -7 511.43 31.59
1 6 7 594.88 31.72
-1 6 -7 585.45 30.81
-1 6 -7 572.66 33.01
1 6 7 575.32 32.42
1 6 7 564.5 30.11
1 6 8 19.88 5.92
-1 6 -8 16.6 6.63
1 6 8 30.29 7.96
1 6 9 665.53 31.21
-1 6 -9 680.15 35.05
-1 6 -10 164.89 15.27
1 6 10 161.56 13.63
1 6 11 85.48 8.68
-1 6 -11 89.75 9.5
1 7 -11 160.13 12.23
-1 7 11 176.9 11.7
1 7 -10 29.25 6.13
-1 7 10 47.19 7.44
-1 7 10 41.07 6.8
1 7 -10 30.55 6.93
1 7 -9 507.41 28.79
1 7 -9 487.57 29.03
-1 7 9 493.42 29.43
-1 7 9 500.49 27.17
-1 7 9 492.24 25.97
-1 7 8 82.23 11.06
-1 7 8 69.11 11.72
-1 7 8 48.78 8.68
1 7 -8 71.29 11.37
1 7 -8 63.77 11.36
-1 7 7 306.76 25.15
1 7 -7 316.91 25.53
1 7 -7 297.06 24.18
-1 7 7 319.72 23.1
1 7 -7 315.84 23.62
1 7 -6 310.8 24.36
1 7 -6 295.25 23.97
1 7 -6 366.89 27.13
1 7 -6 277.04 22.28
-1 7 6 306.24 24.89
-1 7 6 317.99 22.84
1 7 -5 554.59 33.9
1 7 -5 621.43 35.26
1 7 -5 586.58 31.6
-1 7 5 646.08 36.16
-1 7 4 93.62 13.46
1 7 -4 102.32 14.09
1 7 -4 107.39 13.99
1 7 -4 102.51 13.73
-1 7 3 1203.03 44.29
1 7 -3 1205.2 50.5
1 7 -2 805.15 39.83
-1 7 2 762.45 34.46
-1 7 1 899.12 37.89
1 7 -1 789.05 33.23
1 7 -1 893.83 41.65
-1 7 0 567.88 30.12
1 7 0 576.75 28.44
1 7 0 630.94 33.72
-1 7 -1 88.29 11.7
1 7 1 84.46 10.7
1 7 1 94.81 12.65
-1 7 -2 645.03 33.29
1 7 2 629.59 31.49
1 7 2 687.22 34.61
-1 7 -3 35.54 7.48
1 7 3 38.49 7.48
1 7 3 30.69 7.45
1 7 4 1040.18 43.31
-1 7 -4 945.91 43.71
-1 7 -4 952.2 40.35
1 7 4 964.42 44.53
-1 7 -4 991.72 43.56
-1 7 -5 146.84 15.25
1 7 5 165.32 16.92
1 7 5 165.52 16.33
-1 7 -5 168.19 16.91
-1 7 -5 151.6 15.57
1 7 6 862.42 39.72
-1 7 -6 793.35 36.46
-1 7 -6 808.1 38.44
1 7 6 755.46 34.91
1 7 6 789.12 37.66
1 7 7 168.74 16.9
-1 7 -7 147.55 16.12
1 7 7 135.46 13.4
-1 7 -8 603.44 31.83
1 7 8 557.42 27.53
-1 7 -9 24.32 6.52
1 7 9 25.51 5.88
-1 7 -10 307.99 19.73
1 7 10 349.82 20.08
1 7 10 311.49 16.67
-1 7 -11 435.46 18.95
1 7 11 438.83 18.5
-1 8 10 203.28 11.95
1 8 -10 183.35 12.52
-1 8 9 4.95 3.13
-1 8 9 9.25 4.09
1 8 -9 4.49 2.95
-1 8 9 8.66 3.45
-1 8 8 276.86 21.56
1 8 -8 241.1 18.84
-1 8 8 249.35 17.07
-1 8 8 265.59 18.8
-1 8 7 88.56 13.41
1 8 -7 105.82 13.02
-1 8 7 99.48 12.38
1 8 -7 98.44 13.63
1 8 -6 734.96 39.05
-1 8 6 850.79 41.97
1 8 -6 854.16 41.82
-1 8 6 773.98 36.12
1 8 -5 34.45 8.78
-1 8 5 42 8.49
1 8 -5 44.56 9.06
-1 8 5 45.76 10.22
1 8 -4 1348.25 55.67
-1 8 4 1296.58 54.13
1 8 -4 1326.76 52.48
1 8 -4 1224.79 53.77
1 8 -3 105.71 14.14
-1 8 3 76.46 12.46
1 8 -3 91.2 13.85
1 8 -3 90.83 12.26
1 8 -3 73.74 11.21
1 8 -3 89.31 13.66
-1 8 2 622.4 36.28
-1 8 2 734.17 37.72
1 8 -2 664.96 38.22
-1 8 2 614.68 35.24
1 8 -2 603.84 33.8
-1 8 2 689.9 35
1 8 -2 652.2 36.47
1 8 -2 668.72 37.13
1 8 -2 606.73 33.34
1 8 -1 167.89 18.55
1 8 -1 164.75 17.56
-1 8 1 186.97 19.03
-1 8 1 160.57 17.35
-1 8 1 157.42 16.39
-1 8 1 159.69 15.94
1 8 -1 184.6 18.26
1 8 -1 190.23 18.84
-1 8 1 165.63 16.99
-1 8 1 165.31 17.52
1 8 0 358.31 26.87
1 8 0 383.93 26.06
1 8 0 385.29 28.68
-1 8 0 329.75 24.97
1 8 0 369.29 26.2
-1 8 0 349.87 25.43
1 8 0 342.07 25.55
-1 8 0 326.73 23.07
1 8 0 319.25 22.33
-1 8 0 391.15 26.5
-1 8 0 344.13 24.77
-1 8 0 363.27 26.1
1 8 1 215.84 21.42
-1 8 -1 228.39 20.45
-1 8 -1 174.85 17.62
1 8 1 208.29 18.62
1 8 1 217.52 20.53
1 8 1 202.51 19.7
-1 8 -1 214.29 19.86
1 8 1 232.11 20.79
-1 8 -1 188.79 18.67
1 8 2 216.01 20.18
-1 8 -2 227.39 20.59
-1 8 -2 265.89 22.17
1 8 2 232.42 22.81
1 8 2 238.67 20.06
1 8 2 235.04 21.17
-1 8 -2 246.3 20.94
1 8 2 242.58 21.57
1 8 3 955.73 45.05
1 8 3 939.44 42.18
-1 8 -3 939.5 43.84
1 8 3 924.56 42.26
-1 8 -3 940.66 43.88
-1 8 -3 889.46 41.68
1 8 3 850.62 41.12
-1 8 -4 238.53 21.48
-1 8 -4 238.93 21.21
1 8 4 217.06 19.61
1 8 4 195.51 19.92
-1 8 -5 10.71 5.59
1 8 5 18.06 6.57
-1 8 -6 181.33 18.49
1 8 6 195.38 19.07
1 8 6 148.26 15.39
-1 8 -7 233.28 20.35
1 8 7 213.1 17.73
1 8 7 235.85 20.46
-1 8 -8 84.63 11.57
1 8 8 79.79 10.99
-1 8 -9 570.24 27.2
1 8 9 567.15 26.22
-1 8 -10 159.76 11.3
1 8 10 159.73 10.91
1 9 -9 221.63 13.68
-1 9 9 237.3 15.13
-1 9 8 14 4.58
-1 9 8 8.51 3.78
1 9 -8 4.25 2.24
-1 9 7 57.11 9.63
1 9 -7 43.46 8.5
-1 9 7 56.32 8.16
-1 9 6 128.89 15.09
-1 9 6 130.18 13.02
1 9 -6 108.7 13.92
1 9 -5 410.15 28.14
-1 9 5 472.63 29.78
1 9 -5 440.3 29.19
-1 9 5 414.91 24.13
-1 9 4 77.08 12.24
1 9 -4 89.32 14.25
-1 9 4 68.23 9.74
-1 9 4 60.21 9.64
1 9 -4 72.82 12.17
1 9 -4 69.22 11.08
1 9 -3 325.41 23.4
1 9 -3 338.24 25.96
-1 9 3 293.7 22.04
1 9 -3 334.32 23.64
1 9 -3 329.33 25.81
-1 9 3 333.69 25.23
1 9 -3 326.78 25.81
-1 9 2 208.35 20.19
1 9 -2 211.75 20.63
-1 9 2 219.65 20.08
-1 9 2 219.93 21.1
1 9 -2 208.78 19.15
-1 9 2 192.3 17.75
1 9 -2 233.1 20.52
1 9 -2 229.6 22.03
1 9 -2 238.72 21.92
1 9 -2 215.01 20.9
1 9 -1 433.09 29.08
-1 9 1 460.71 29.53
-1 9 1 446.77 29.18
-1 9 1 422.64 29.57
-1 9 1 445.27 29.59
1 9 -1 443.14 30.87
1 9 -1 439.57 29.36
-1 9 1 440.62 27.24
1 9 -1 435.37 28.51
1 9 -1 443.9 30.02
1 9 -1 444.99 31.44
1 9 -1 491.24 32.84
1 9 0 770.22 38.36
-1 9 0 854.45 40.88
-1 9 0 842.49 41.75
1 9 0 816.23 41.37
1 9 0 797.13 42.12
1 9 0 845.54 44.08
-1 9 0 837.45 41.57
1 9 0 841.99 42.25
1 9 0 812.58 43.17
-1 9 0 852.96 42.44
-1 9 0 793.93 40.28
-1 9 -1 125.5 15.36
1 9 1 102.82 14.17
-1 9 -1 94.9 12.91
1 9 1 112.36 14.71
1 9 1 114.39 13.8
-1 9 -1 121.72 15.37
1 9 1 103.83 14.3
-1 9 -1 114.33 14.7
-1 9 -1 132.55 15.99
1 9 1 100.56 14.93
1 9 1 92.41 13.8
-1 9 -2 97.8 13.62
-1 9 -2 88.34 12.43
1 9 2 106.89 15.69
1 9 2 103.09 13.8
1 9 2 102.54 13.98
1 9 2 94.12 13.97
-1 9 -2 112.45 14.4
1 9 3 30.69 7.86
-1 9 -3 39.23 8.87
-1 9 -3 39.03 8.93
1 9 3 25.14 6.92
-1 9 -3 40.06 8.89
-1 9 -4 247.67 21.14
1 9 4 258.62 20.02
1 9 4 226.05 20.64
-1 9 -4 282.16 21.37
1 9 5 114.54 14.22
1 9 5 117.04 13.28
-1 9 -5 123.12 14.59
-1 9 -6 205.56 18.32
1 9 6 166.17 16.31
-1 9 -7 35.92 6.96
1 9 7 30.53 6.49
-1 9 -8 334.4 19.22
1 9 8 310.45 18.25
1 9 9 13.7 3.23
-1 9 -9 17.14 3.67
-1 10 8 58.55 6.84
1 10 -8 52.79 6.92
-1 10 7 14.96 4.74
-1 10 7 9.26 2.63
1 10 -7 10.67 3.72
-1 10 6 599.83 28.57
-1 10 6 519.55 22.69
1 10 -6 546.74 28.08
-1 10 5 3.67 3.54
-1 10 5 0.67 2.13
1 10 -5 5.95 4.47
1 10 -5 1.77 2.54
-1 10 4 1126 45.24
1 10 -4 1033.59 41.86
1 10 -4 1163.44 47.1
1 10 -4 1101.86 46.73
1 10 -3 73.34 11.5
1 10 -3 82.47 10.57
1 10 -3 82.25 11.69
1 10 -3 55.45 10.48
1 10 -3 62.95 9.49
1 10 -3 68.88 11.25
-1 10 3 47.86 8.72
-1 10 3 47.8 8.16
1 10 -2 292.06 24.46
-1 10 2 333.54 23.75
1 10 -2 302.17 21.71
1 10 -2 274.28 21.33
1 10 -2 316.91 24.02
1 10 -2 327.99 23.94
1 10 -2 303.29 23.74
-1 10 1 179.64 17.5
1 10 -1 198.65 18.31
1 10 -1 215.35 18.73
1 10 -1 207.78 19.9
1 10 -1 190.11 19.5
1 10 -1 200.55 18.58
1 10 -1 209.3 19.58
-1 10 1 178.2 17.96
-1 10 0 210.68 18.65
1 10 0 167.28 18.05
-1 10 0 186.84 18.36
1 10 0 172.11 17.08
1 10 0 177.59 19.64
1 10 0 163.19 17.19
1 10 0 176.66 18.37
-1 10 0 203.07 18.48
-1 10 -1 1349.55 52.74
-1 10 -1 1275.7 49.5
1 10 1 1451.92 57.76
1 10 1 1391.95 54.26
1 10 1 1418.04 54.06
-1 10 -1 1271.06 50.18
1 10 1 1378.76 53.9
1 10 1 1460.66 54.11
-1 10 -2 731.7 35.79
1 10 2 752.02 36.88
-1 10 -2 732.13 34.91
1 10 2 691.83 36.09
1 10 2 760.14 37.79
-1 10 -2 726.74 36.53
-1 10 -3 1253.24 48.59
-1 10 -3 1219.7 45.92
1 10 3 1392.46 51.42
1 10 3 1374.65 51.03
-1 10 -3 1239.63 47.21
-1 10 -3 1280.81 48.5
1 10 3 1322.18 48.43
-1 10 -4 29.43 6.02
-1 10 -4 22.24 6.2
1 10 4 20.54 5.84
-1 10 -4 18.22 5.04
1 10 4 20.13 5.23
-1 10 -4 24.49 6.13
1 10 4 16.73 5.64
-1 10 -5 162.69 14.54
-1 10 -5 158.41 13.35
-1 10 -5 168.71 14.62
1 10 5 183.56 14.78
1 10 5 188.92 16.08
-1 10 -6 18.58 4.87
1 10 6 7.95 3.98
-1 10 -6 13.18 4.19
-1 10 -7 516.55 22.32
1 10 7 523.59 22.52
-1 11 6 5.58 2.45
1 11 -6 1.98 1.56
1 11 -6 3.04 1.68
1 11 -5 420.57 22.14
1 11 -5 406.66 21.02
-1 11 5 419.5 20.46
1 11 -4 40.24 7.16
1 11 -4 36.34 5.66
-1 11 4 23.14 4.45
1 11 -4 40.14 6.88
-1 11 4 38.63 6.66
1 11 -3 304.49 19.56
1 11 -3 312.54 20.68
-1 11 3 326.02 19.89
1 11 -3 309.16 21.08
1 11 -2 77.94 9.18
-1 11 2 67.83 9.24
1 11 -2 86.2 10.09
1 11 -2 88.59 11.06
1 11 -2 100.99 12.38
1 11 -2 89.39 10.97
1 11 -1 122.42 12.79
-1 11 1 121.42 12.46
1 11 -1 99.33 12.82
1 11 -1 115.03 11.73
1 11 -1 114.94 12.73
1 11 -1 109.1 12.53
-1 11 0 289.8 19.31
1 11 0 294.62 21.77
1 11 0 312.81 20.19
1 11 0 339.01 22.51
1 11 0 290.16 20.27
-1 11 -1 188.77 14.95
1 11 1 185.7 16.07
-1 11 -1 173.52 15.04
1 11 1 165.98 15.33
1 11 1 171.49 15.15
1 11 2 279.05 18.91
-1 11 -2 278.5 18.05
1 11 2 270.25 18.79
-1 11 -2 233.54 17.04
1 11 2 277.91 19.34
-1 11 -2 230.65 16.17
-1 11 -3 210.47 14.33
-1 11 -3 221.52 15.4
1 11 3 222.91 16.33
1 11 3 214.32 15.1
1 11 3 212.34 16.02
1 11 3 215.24 16.01
-1 11 -3 234.08 16.07
1 11 4 149.19 12.52
-1 11 -4 138.57 11.35
1 11 4 144.84 12.15
1 11 4 137.68 11.65
1 11 5 8.28 2.7
-1 11 -5 7.98 2.75
1 11 5 8.69 2.99
1 11 5 8.08 3.05
1 11 6 143.18 9.52
1 12 -3 29.07 4.87
-1 12 3 13.44 3
-1 12 2 64.83 6.95
1 12 -2 69.88 7.37
-1 12 2 73.7 6.85
-1 12 2 71.75 7.07
-1 12 1 29.53 4.57
1 12 -1 38.93 5.88
-1 12 1 27.75 4.85
-1 12 1 30 4.54
-1 12 0 8.39 2.7
1 12 0 1.65 1.83
-1 12 0 7.29 2.84
1 12 0 5.08 2.6
1 12 0 6.25 3.41
1 12 1 350.14 16.24
1 12 1 361.53 17.84
-1 12 -1 366.49 17.85
1 12 1 361.93 17.77
1 12 2 63.42 6.88
1 12 2 56.66 6.05
-1 12 -2 56.13 6.18
2 -7 -5 183.11 18.14
2 -7 -4 266.33 21.34
2 -7 -2 1025.99 41.45
2 -7 -1 56.7 8.86
2 -6 -6 273.32 22.64
2 -6 -5 260.43 19.47
2 -6 -5 243.74 20.49
2 -6 -4 262.52 20.43
2 -6 -3 589.33 30.03
2 -6 -1 1237.05 43.76
2 -6 0 162.61 14
2 -5 -11 220.86 14.64
2 -5 -10 -0.61 3.11
2 -5 -7 468.32 30.15
2 -5 -5 391.61 25.29
2 -5 -4 83.39 11.15
2 -5 -3 750.33 32.78
2 -5 -2 230.96 16.7
2 -5 -1 24.42 5.66
2 -5 0 1352.77 43.45
2 -5 1 240.4 16.24
2 -5 2 2251.37 60.46
2 -4 -12 315.34 16.49
2 -4 -12 330.08 17.1
2 -4 -11 90.08 10.6
2 -4 -4 269.31 18.61
2 -4 -3 3663.03 86.79
2 -4 -2 31.63 6.17
2 -4 0 127.3 11.07
2 -4 1 1886.45 51.92
2 -4 2 243.08 15.96
2 -4 3 772.12 30.58
2 -3 -13 197.44 11.12
2 -3 -12 15.42 4.43
2 -3 -8 362.12 24.78
2 -3 -7 768.18 35.43
2 -3 -4 1760.99 51.72
2 -3 -3 1259.44 40.08
2 -3 -2 2425.85 60.38
2 -3 -1 91.12 8.95
2 -3 0 2239.88 56.16
2 -3 1 82.08 8.52
2 -3 2 2033.58 53.74
2 -3 3 578.41 25.32
2 -2 -13 8.41 3.19
2 -2 -12 591.79 27.76
2 -2 -8 347.19 24.62
2 -2 -8 272.98 20.72
2 -2 -8 350.88 24.24
2 -2 -7 172.42 16.46
2 -2 -4 429.09 20.95
2 -2 -3 4365.37 93.41
2 -2 -2 512.8 21.51
2 -2 -1 1922.69 48.63
2 -2 0 191.55 12.31
2 -2 1 163.8 11.62
2 -2 2 269.79 15.56
-2 -2 -8 364.31 23.82
-2 -2 -8 385.74 26.93
-2 -2 -9 283.56 20.89
-2 -2 -10 539.7 27.61
-2 -2 -11 14.23 4.11
2 -1 -13 237.51 14.52
2 -1 -12 7.12 4.77
2 -1 -11 185.07 17.41
-2 -1 11 189.22 14.92
2 -1 -10 27.97 8.13
-2 -1 10 36.62 7.61
2 -1 -9 449.66 29.04
-2 -1 9 493.32 27.17
2 -1 -8 0.55 3.18
2 -1 -7 526.71 29.5
2 -1 -6 266.98 17.34
2 -1 -6 311.75 21.06
2 -1 -5 657.81 26.67
2 -1 -4 1928.77 50.44
-2 -1 3 410.45 17.04
2 -1 -3 471.81 19.7
2 -1 -2 2213.22 52.74
2 -1 -1 721 24.93
2 -1 -1 694.24 24.11
2 -1 0 841.55 27.18
2 -1 1 3369.5 73.68
2 -1 2 2162.42 54.14
2 -1 3 652.44 24.57
-2 -1 -6 680.11 29.91
2 -1 7 1552.45 50.75
-2 -1 -8 78.25 11.76
2 -1 8 83.76 11.47
-2 -1 -8 76.46 12.62
-2 -1 -9 751.09 36.97
2 -1 9 818.27 35.93
-2 -1 -10 71.35 10.6
2 -1 10 50.4 8.08
-2 -1 -11 463.3 24.11
-2 -1 -12 4.49 2.81
2 0 -13 71.44 8.08
-2 0 12 371.92 19.52
2 0 -12 407.26 23.29
-2 0 11 805.72 33.93
2 0 -11 810 37.56
-2 0 10 1073.12 42.46
2 0 -10 1095.65 46.38
-2 0 9 8.75 3.83
2 0 -9 15.71 6.54
2 0 -8 586.3 33.55
2 0 -7 195.51 18.04
2 0 -6 790.85 35.2
2 0 -5 2649.84 62.49
2 0 -4 929.02 29.21
2 0 -4 902.23 29.02
2 0 -3 4077.05 83.58
2 0 -2 302.26 14.32
2 0 -1 2419.46 53.76
2 0 -1 2347.45 53.75
2 0 0 455.69 18.13
2 0 0 412.49 17.14
2 0 1 10.98 2.97
2 0 1 10.22 3.21
2 0 1 14.56 3.8
2 0 2 34.14 5.44
2 0 3 2343.44 56.72
2 0 4 926.03 30.55
-2 0 -5 2988.16 74.64
-2 0 -6 471.2 25.29
2 0 6 463.01 24.4
-2 0 -7 287.79 22.64
2 0 7 331.85 21.25
-2 0 -8 411.34 27.28
-2 0 -8 462.71 30.13
2 0 8 456.29 26.88
-2 0 -9 333.28 24.53
2 0 9 366.56 23.82
-2 0 -10 492.43 28.37
2 0 10 440.87 25.06
2 0 11 36.6 6.27
-2 0 -11 26.62 6.15
-2 0 -12 328.63 17.36
-2 1 13 207.56 11.62
2 1 -13 218.56 13.48
2 1 -13 192.24 13.11
-2 1 12 6.77 3.11
-2 1 11 223.65 17.32
2 1 -11 236.78 19.52
-2 1 10 29.94 7
2 1 -10 29.39 7.55
-2 1 9 502.68 28.54
2 1 -9 477.06 29.47
2 1 -9 493.82 30.26
2 1 -9 493.18 31.84
-2 1 9 506.84 32.24
-2 1 8 -1.71 3.58
2 1 -8 1.82 3.33
-2 1 7 480.39 28.83
2 1 -7 499.08 29.85
2 1 -6 294.68 21.06
2 1 -5 722.88 32.14
2 1 -4 1932.8 47.48
2 1 -3 455.41 19.06
-2 1 3 456.19 20.43
2 1 -3 449.4 16.98
-2 1 2 2152.06 50.83
2 1 -2 2201.05 52.51
2 1 -2 2193.26 49.07
2 1 -1 691.03 22.36
2 1 -1 730.56 25.11
2 1 -1 701.82 21.35
-2 1 1 674.59 20.7
2 1 0 709.95 23.27
2 1 0 688.33 18.83
2 1 0 710.27 24.86
2 1 0 675.78 21.65
2 1 1 3402.84 74.6
2 1 1 3419.02 69.07
2 1 1 3381.83 71.4
2 1 2 2027.67 49.67
2 1 2 2077.51 51.51
2 1 3 715.36 26.21
-2 1 -4 2114.35 57.1
2 1 4 2001.33 54.96
-2 1 -5 118.78 12.13
2 1 5 127.55 12.03
-2 1 -6 694.43 32.52
-2 1 -6 622.38 32.87
2 1 6 674.72 30.3
-2 1 -7 1608.44 55.52
-2 1 -7 1732.6 60.12
2 1 7 1641.65 53.16
-2 1 -8 75.2 12.43
-2 1 -8 53.85 9.46
2 1 8 75.01 11.02
-2 1 -9 744.7 37.73
2 1 9 749.12 35.72
-2 1 -10 66.72 10.48
2 1 10 63.32 9.52
2 1 11 497.55 24.45
-2 1 -11 523.83 27.08
2 1 12 1.42 1.66
-2 1 -12 5.85 2.76
-2 2 13 9.85 3.08
2 2 -13 10.46 2.8
2 2 -13 6.7 2.57
2 2 -12 500.21 24.41
-2 2 12 533.59 24.28
-2 2 11 495.8 26.16
2 2 -11 483.68 26.71
2 2 -11 447.37 26.8
2 2 -10 38.93 8.7
2 2 -10 46.64 9.68
-2 2 10 39.01 7.95
-2 2 9 333.3 23.19
-2 2 9 365.55 27.12
2 2 -9 355.78 27.51
2 2 -9 355.96 24.53
2 2 -8 373.65 27.51
-2 2 8 380.49 23.91
2 2 -8 370.6 24.07
-2 2 8 362.64 26.39
2 2 -7 146.67 16.11
-2 2 7 150.22 16.02
-2 2 6 566.6 29.89
2 2 -6 596.29 31.33
-2 2 5 1837.5 56.01
2 2 -5 1836.75 57.29
2 2 -4 424.52 22.47
-2 2 4 425.73 22.34
2 2 -4 413.35 18.89
2 2 -3 4278.78 94.67
-2 2 3 4386.53 93.83
2 2 -2 522.89 21.25
-2 2 2 499.14 20.4
-2 2 1 1983.05 45.75
2 2 -1 2001.93 49.81
2 2 -1 1860.49 44.35
2 2 0 167.85 11.79
2 2 0 172.61 10.64
2 2 1 244.25 13.62
2 2 1 236.93 14.22
-2 2 -2 314.88 17.07
2 2 2 270.74 15.42
-2 2 -3 1147.73 37.8
2 2 3 1024.76 31.97
2 2 3 1105.52 35.95
-2 2 -4 363.07 20.55
-2 2 -4 379.46 22.17
2 2 4 387.5 20.71
-2 2 -5 1124.98 41.79
2 2 5 1119.85 39.84
-2 2 -5 1136.38 42.76
-2 2 -6 98.42 12.26
2 2 6 116.85 12.45
-2 2 -6 99.13 12.71
-2 2 -7 442.19 27.46
-2 2 -7 399.18 26.54
-2 2 -7 451.82 28.66
2 2 7 432.57 26.34
2 2 7 467.53 25.99
-2 2 -8 488.15 29.95
2 2 8 478.43 26.88
-2 2 -8 506.79 30.38
-2 2 -8 537.16 32.73
2 2 8 504.48 29.35
-2 2 -9 262.67 21.19
-2 2 -9 271.99 22.31
2 2 9 294.47 21.82
-2 2 -10 590.66 31.43
-2 2 -10 543.53 28.9
2 2 10 553.63 28.82
2 2 11 9.75 3.77
-2 2 -11 16.22 5.85
2 2 12 144.6 10.21
-2 2 -12 136.07 10.54
2 2 12 128.5 9.4
2 3 -13 205.62 12.55
-2 3 12 13.05 3.75
2 3 -12 6.5 2.78
2 3 -12 4.09 2.79
-2 3 12 13.92 3.96
-2 3 11 216.21 16.77
2 3 -11 222.69 16.38
2 3 -11 207.62 18.26
-2 3 10 57.23 9.55
2 3 -10 44.26 9.79
2 3 -10 38.36 7.47
-2 3 9 470.35 27.66
-2 3 9 468.71 31.09
2 3 -9 506.78 32.65
-2 3 8 374.93 23.82
-2 3 8 336.37 25.75
2 3 -8 346.21 26.71
-2 3 7 830.24 39.75
2 3 -7 788.95 40.12
-2 3 6 472.97 28.01
2 3 -6 473.23 28.37
-2 3 5 1482.81 50.7
2 3 -5 1540.97 51.8
2 3 -4 1738.64 47.61
-2 3 4 1662.9 51.92
2 3 -4 1668.75 51.9
-2 3 3 1188.79 39.25
2 3 -3 1197.96 39.29
2 3 -3 1215.23 37.47
-2 3 2 2577.62 61.55
2 3 -2 2487.88 60.9
2 3 -2 2389.97 59.75
-2 3 1 104.26 8.02
2 3 -1 98.9 7.95
2 3 -1 111.2 9.95
2 3 0 2128.11 52.5
-2 3 0 2293.5 53.78
2 3 0 2164.85 55.05
2 3 1 81.32 8.23
-2 3 -1 74.48 8.16
2 3 1 75.66 7.9
-2 3 -2 1824.2 51.23
2 3 2 1870.33 48.74
-2 3 -2 1825.51 46.33
2 3 2 1833.64 49.95
2 3 3 528.07 24.21
-2 3 -3 523.92 25.58
2 3 3 506.99 21.83
-2 3 -3 528.59 23
-2 3 -4 2109.32 62.9
-2 3 -4 2104.66 59.48
2 3 4 2198.93 60
2 3 5 689.4 30.55
-2 3 -5 642 32.85
-2 3 -5 620.21 30.23
2 3 6 525.19 27.49
-2 3 -6 488.76 28.43
-2 3 -7 624.54 33.01
-2 3 -7 575.62 33.01
-2 3 -7 585 33.33
2 3 7 603.89 32.18
2 3 7 647.58 31.88
2 3 8 243.81 19.16
-2 3 -8 233.86 20.39
-2 3 -8 212.01 19.87
2 3 8 221.9 19.35
-2 3 -8 234.77 21.29
2 3 9 1114.29 44.74
-2 3 -9 1153.37 46.83
-2 3 -9 1093.9 46.75
-2 3 -10 59.55 9.82
-2 3 -10 58.15 9.41
2 3 10 62.1 9.46
-2 3 -11 366.16 20.84
-2 3 -11 363.79 20.86
2 3 11 344.02 19.42
2 3 12 8.73 2.59
2 3 12 10.89 2.98
-2 4 12 314.51 16.73
2 4 -12 310.53 18.11
2 4 -12 338.04 19.01
-2 4 12 328.84 17.14
-2 4 11 110.45 11.36
2 4 -11 103.63 12.72
2 4 -11 110.6 13.2
2 4 -10 91.37 13.24
-2 4 10 93.97 11.58
-2 4 10 89.44 11.12
2 4 -10 113.07 15.26
2 4 -9 309.51 25.93
-2 4 9 307.83 21.63
-2 4 9 334.12 22.76
-2 4 8 807.84 41.11
-2 4 8 811.62 36.26
-2 4 8 815.97 37.49
2 4 -8 841.62 42.8
-2 4 7 97.74 11.62
2 4 -7 122.62 15.7
-2 4 7 120.79 15.02
-2 4 6 529.05 30.69
2 4 -6 535.32 30.86
2 4 -5 1069.17 42.65
-2 4 5 1059.44 42.86
-2 4 4 316.84 20.98
2 4 -4 343.72 21.44
2 4 -4 319.77 18.9
-2 4 3 4050.5 94.05
-2 4 3 3992.43 86.57
2 4 -3 3964.35 91.07
2 4 -3 4107.81 91.2
2 4 -2 25.43 6.29
2 4 -2 28.19 5.76
2 4 -1 1086.57 32.68
2 4 -1 1086.46 40.37
2 4 -1 1128.25 37.58
2 4 0 116.74 9.95
-2 4 0 123.16 10.24
2 4 0 119.99 11.07
-2 4 -1 1790.14 51.74
2 4 1 1868.85 51.96
2 4 1 1904.3 51.2
2 4 2 271.15 16.64
-2 4 -2 219.25 16.29
2 4 2 255.98 16.49
2 4 3 754.44 29.75
-2 4 -3 737.29 33.1
2 4 3 805.92 32.21
-2 4 -4 724.98 30.93
2 4 4 789.64 33.22
2 4 5 270.38 19.38
-2 4 -5 267.83 19.3
-2 4 -5 252.29 18.77
-2 4 -6 531.93 29.27
2 4 6 473.56 27.99
2 4 6 542.41 28.97
-2 4 -6 535.94 31.68
2 4 7 439.2 26.68
-2 4 -7 486 28.72
2 4 7 424.41 26.85
-2 4 -7 439.86 29.39
2 4 8 199.85 18.17
-2 4 -8 191.67 19.16
-2 4 -8 201.43 18.28
2 4 9 342.61 22.66
-2 4 -9 299.78 21.8
-2 4 -9 307.41 22.98
-2 4 -9 293 22.81
-2 4 -10 396 23.58
-2 4 -10 412.81 24.51
-2 4 -10 389.16 23.03
2 4 10 411.14 23.17
2 4 11 13.46 4.09
2 5 -12 0.4 1.95
2 5 -12 1.19 2.75
-2 5 12 -1.81 1.76
-2 5 11 216.89 14.69
2 5 -11 221.66 17.39
2 5 -11 217.58 17.15
-2 5 11 191.27 13.38
-2 5 11 239.79 16.04
-2 5 10 5.07 3
2 5 -10 4.66 4.81
2 5 -10 15.24 6.35
-2 5 10 5.61 3.85
2 5 -9 325.71 25.91
-2 5 9 274.79 21.22
2 5 -9 306.91 24.97
-2 5 9 301.54 20.47
-2 5 9 345.88 22.94
-2 5 8 225.6 17.83
-2 5 8 242.18 20.09
2 5 -8 191.9 20.4
-2 5 8 220.36 19.66
-2 5 7 577.62 28.8
-2 5 7 546.44 31.89
-2 5 7 557.98 33.6
2 5 -7 618.03 36.8
2 5 -7 532.77 32.75
2 5 -6 221.37 19.87
-2 5 6 182.97 17.84
-2 5 6 185.37 15.44
-2 5 6 204.22 19.3
2 5 -6 195.02 18.55
2 5 -6 235.25 21
2 5 -6 232.52 20.11
-2 5 5 349.65 24.44
2 5 -5 364.32 23.95
2 5 -4 92.09 11.09
2 5 -4 111.75 12.86
-2 5 3 795.43 30.98
2 5 -3 766.6 35.77
-2 5 2 222.37 15.73
2 5 -2 210.68 18.05
2 5 -1 24.39 6.73
-2 5 1 33.29 6.24
2 5 0 1387 43.16
-2 5 0 1467.2 47.05
2 5 0 1485.19 51.75
2 5 1 289.84 18.12
2 5 2 2094.08 60.36
-2 5 -2 2215.93 63.53
-2 5 -3 45.33 8.06
2 5 3 42.58 7.29
2 5 4 854.64 36.5
-2 5 -4 830.47 37.19
2 5 5 308.41 21.78
-2 5 -5 273.95 21.44
-2 5 -5 287.45 22.65
-2 5 -5 273.52 20.65
-2 5 -6 303.65 23.15
-2 5 -6 316.22 24.3
2 5 6 311.34 22.18
2 5 6 333.54 23.35
2 5 7 676.73 34.37
-2 5 -7 696.79 34.07
-2 5 -7 659.71 36.47
2 5 7 681.34 34.13
-2 5 -7 669.33 35.94
-2 5 -8 91.22 12.1
-2 5 -8 88.68 13.05
2 5 8 69.27 10.38
-2 5 -9 733.48 34.22
2 5 9 726.46 32.73
-2 5 -9 735.35 35.77
2 5 10 134.02 12.02
-2 5 -10 139.5 12.6
-2 5 -11 227.42 13.63
-2 5 -11 238.09 12.89
2 6 -11 62.49 8.3
2 6 -11 77.15 8.96
-2 6 11 66.24 7.68
-2 6 10 426.85 21.44
2 6 -10 486.5 27.7
2 6 -10 462.08 26.44
-2 6 10 486.64 24.03
-2 6 9 87.19 10.13
2 6 -9 82.55 12.71
2 6 -9 107.17 14.57
-2 6 9 105.96 12.5
-2 6 9 96.57 12.17
-2 6 8 627.16 33.8
2 6 -8 611.69 36.01
-2 6 8 620.44 32.4
2 6 -8 611.92 36.11
-2 6 8 558.12 27.84
-2 6 7 151.69 13.72
2 6 -7 146.91 16.47
-2 6 7 164.45 17.33
2 6 -7 160.54 18.05
2 6 -7 134.93 15.84
2 6 -6 273.96 23.21
-2 6 6 294.52 23.33
2 6 -6 293.09 24.28
2 6 -6 268.89 21.47
2 6 -5 286.29 23.92
-2 6 5 251.84 21.57
2 6 -5 261.46 20.26
2 6 -5 282.93 23.16
2 6 -5 290.51 21.96
2 6 -4 255.21 21.59
2 6 -3 692.63 36.68
-2 6 2 104.81 11.77
2 6 -2 95.42 13.45
-2 6 1 1261.76 45.49
2 6 -1 1211.95 49.68
2 6 0 156.95 13.86
-2 6 0 206.96 17.14
2 6 0 170.96 17.33
2 6 1 1177.11 43.01
-2 6 -1 1231.27 46.16
-2 6 -2 59.36 9.95
2 6 2 77.78 10.41
-2 6 -3 586.03 31.9
2 6 3 627.89 31.66
2 6 4 531.19 29.9
-2 6 -4 494.25 29.31
-2 6 -4 488.2 30.11
-2 6 -4 457.71 28.09
-2 6 -5 543.87 31.18
2 6 5 608.11 32.54
-2 6 -5 571.93 32.08
2 6 6 490.34 29.35
-2 6 -6 439.44 28.58
-2 6 -6 464.19 29.82
-2 6 -7 195.9 18.13
-2 6 -7 179.31 18.19
2 6 7 195.73 16.72
-2 6 -8 339.17 22.73
2 6 8 357.3 22.02
-2 6 -9 102.66 12.16
-2 6 -9 131.07 12.6
2 6 9 117.53 11.3
-2 6 -10 149.12 12.32
-2 6 -10 147.82 11.03
2 6 10 159.04 12.32
2 6 10 144.93 10.86
2 7 -11 135.43 9.83
-2 7 11 140.12 9.14
-2 7 10 20.81 4.74
2 7 -10 10.98 4.41
2 7 -10 23.22 5.59
-2 7 10 25.28 5.04
2 7 -9 123.19 13.78
-2 7 9 126.38 12.75
2 7 -9 126.43 13.99
-2 7 9 129.61 12.55
-2 7 8 478.16 28.35
2 7 -8 519.3 31.07
2 7 -8 509.17 30.69
-2 7 8 530.93 28.58
2 7 -7 371.81 25.94
-2 7 7 389.21 26.62
2 7 -7 398.59 27.9
-2 7 7 363.55 24.69
2 7 -7 412.69 28.22
2 7 -6 1153.73 50.28
2 7 -6 1228.05 51.98
-2 7 6 1118.07 48.91
2 7 -5 173.14 19.04
2 7 -5 212.49 20.52
-2 7 5 201.01 19.68
2 7 -5 189.62 17.37
2 7 -4 331.78 26.35
-2 7 4 323.39 25.15
2 7 -4 332.32 24.63
2 7 -4 352.69 25.61
2 7 -4 326.89 24.03
2 7 -4 358.56 26.22
2 7 -4 333.27 25.94
2 7 -4 314.36 22.67
2 7 -3 15.13 5.09
2 7 -3 21.55 7.08
-2 7 3 25.56 7.47
2 7 -3 21.05 6.65
2 7 -3 22.96 7.42
2 7 -3 17.95 6.51
2 7 -3 11.15 4.75
2 7 -3 12.98 5.3
2 7 -2 1061.18 42.67
2 7 -2 1116.62 49.18
-2 7 2 1177.77 48.61
-2 7 2 1253.62 46.73
-2 7 2 1169.61 49.88
2 7 -2 1123.15 48.01
2 7 -2 1136.5 50.67
2 7 -2 1135.72 49.16
2 7 -2 1166.08 48.09
2 7 -2 1017.8 48.91
2 7 -1 32.3 6.14
2 7 -1 58.56 10.5
-2 7 1 71.63 11.1
-2 7 1 61.57 10.35
2 7 -1 55.99 10.95
-2 7 1 55.68 9.6
2 7 -1 43.2 9.23
2 7 -1 54.02 9.59
2 7 -1 66.98 11.64
2 7 -1 51.98 9.82
2 7 -1 48.34 8.78
2 7 -1 50.09 9.77
2 7 -1 59.57 10.58
2 7 0 2226.85 71.15
-2 7 0 2243.53 69.81
-2 7 0 2291.46 72.93
2 7 0 2147.57 73.82
2 7 0 2310.16 71.25
2 7 0 2233.91 74.43
2 7 0 2182.88 65.74
2 7 0 2300.01 76.13
2 7 1 1234.11 46.16
-2 7 -1 1281.61 50.26
2 7 1 1253.62 46.84
-2 7 -1 1284.06 51.6
2 7 1 1289.13 53.17
2 7 1 1183.37 48.73
2 7 1 1262.04 52.95
2 7 2 1229.08 46.84
2 7 2 1274.95 48.5
-2 7 -2 1357.55 52.3
-2 7 -2 1298.1 52.2
2 7 2 1282.96 51.93
2 7 2 1239.37 50.53
2 7 2 1173.08 50.65
2 7 3 160.71 16.44
-2 7 -3 149.28 16.44
-2 7 -3 161.32 17.59
-2 7 -3 168.61 17.12
2 7 3 160 16.48
2 7 3 155.16 17.17
2 7 3 158.96 17.1
-2 7 -4 576.23 33.13
2 7 4 592.52 32.59
-2 7 -4 572.22 34.06
-2 7 -4 564.29 32.35
2 7 4 541.38 32.44
2 7 4 612.48 32.8
-2 7 -5 238.28 21.29
-2 7 -5 208.95 19.04
2 7 5 228.2 20.73
-2 7 -6 39.94 8.54
-2 7 -6 42.04 8.06
2 7 6 32.81 8.04
-2 7 -7 473.32 28.96
-2 7 -7 465.6 26.59
2 7 7 424.73 26.56
-2 7 -8 59.91 9.5
-2 7 -8 67.89 8.85
2 7 8 55.6 8.71
-2 7 -9 115.34 11.45
2 7 9 118.27 9.31
-2 7 -10 12.34 3.25
2 8 -10 115.99 9.32
-2 8 10 163.64 9.99
-2 8 9 108.32 10.28
2 8 -9 103.73 10.26
-2 8 9 106.85 9.99
-2 8 9 103.67 9.29
-2 8 8 214.98 16.72
2 8 -8 203.83 16.53
2 8 -8 215.82 17.8
-2 8 8 231.77 16.7
2 8 -7 390.06 25.02
-2 8 7 417.17 25.75
2 8 -7 363.58 24.06
2 8 -7 441.34 27.6
-2 8 7 413.71 24.39
2 8 -6 120.69 15.45
-2 8 6 112.97 13.95
2 8 -6 96.48 12.56
-2 8 6 124.53 13.92
2 8 -6 112.31 14.88
2 8 -5 196.69 19.55
-2 8 5 181.58 18.56
2 8 -5 173.05 18.29
2 8 -4 30.76 6.98
-2 8 4 15.7 7.01
2 8 -4 13.04 4.84
2 8 -4 24.41 7.66
2 8 -3 157.48 18.86
2 8 -3 222.01 21.53
-2 8 3 208.83 19.97
2 8 -3 174.16 15.94
2 8 -3 211.78 20.19
2 8 -3 175.12 18.79
2 8 -3 191.07 19.01
2 8 -2 116.6 16.04
-2 8 2 132.28 16.07
-2 8 2 90.08 13.65
2 8 -2 98.44 14.89
-2 8 2 98.01 12.81
2 8 -2 112.81 14.8
2 8 -2 62.65 11.87
2 8 -2 89.04 13.8
2 8 -2 84.64 12.44
2 8 -2 85.61 12.74
2 8 -1 745.53 38.94
-2 8 1 713.36 36.45
-2 8 1 706.6 38.64
2 8 -1 711.06 38.4
2 8 -1 663.7 38.9
2 8 -1 690.66 35.87
2 8 -1 741.74 39.93
2 8 -1 734.28 37.48
2 8 -1 730.86 38.58
-2 8 1 771.14 39.21
2 8 -1 723.8 41.38
2 8 0 598.41 33.85
2 8 0 608.78 35.25
-2 8 0 634.03 34.71
-2 8 0 635.01 35.94
2 8 0 654.15 36.62
2 8 0 601.56 36.5
2 8 0 545.1 32.13
2 8 0 585.49 35.76
-2 8 -1 402.93 27.54
-2 8 -1 395.85 27.78
2 8 1 382.95 28.18
2 8 1 370.96 26.62
2 8 1 373.78 28.1
2 8 1 347.51 26.34
-2 8 -2 143.46 16.4
2 8 2 126.37 14.47
2 8 2 122.89 15.51
2 8 2 129.64 16.33
-2 8 -2 110.91 14.57
2 8 2 133.38 16.14
-2 8 -3 124 15.35
2 8 3 145.97 16.46
2 8 3 115.7 14.46
2 8 3 102.98 13.31
-2 8 -4 288.49 23.69
2 8 4 340.28 25.11
2 8 4 307.25 22.56
-2 8 -5 212.39 19.74
2 8 5 195.92 18.49
-2 8 -6 132.95 14.99
2 8 6 116.21 13.5
-2 8 -7 87.64 11.19
2 8 7 70.07 9.67
-2 8 -8 148.8 13.09
2 8 8 141.04 11.95
-2 8 -9 10.78 3.24
2 8 9 8.45 2.6
-2 9 9 129.26 8.6
-2 9 8 126.12 11
2 9 -8 108.38 10.76
-2 9 8 140.74 10.86
-2 9 7 32.9 6.58
-2 9 7 42.18 6.74
2 9 -7 26.08 6.3
2 9 -6 644.21 32
-2 9 6 600.34 30.33
2 9 -6 616.56 31.7
-2 9 6 612.31 28.42
2 9 -5 83.3 11.82
-2 9 5 67.86 10.58
-2 9 5 104.19 11.64
2 9 -5 94.87 13.1
2 9 -4 125.42 15.17
-2 9 4 85.66 12.47
2 9 -4 100.79 13.06
2 9 -4 81.56 12.62
2 9 -4 116.11 14.19
2 9 -3 307.28 24.18
-2 9 3 313.37 23.76
2 9 -3 284.62 22.51
2 9 -3 296.96 23.81
2 9 -3 295.86 22.88
2 9 -3 282.07 22.57
2 9 -3 284.49 22.89
2 9 -2 487.99 30.57
-2 9 2 487.21 30.12
2 9 -2 447.81 29.28
2 9 -2 463.25 31.1
2 9 -2 460.22 29.83
2 9 -2 470.07 29.22
2 9 -2 448.28 29.43
2 9 -1 170.66 17.84
-2 9 1 177.07 18.02
-2 9 1 173.05 18.23
2 9 -1 176.73 18.67
2 9 -1 151.87 17.62
2 9 -1 184.07 19.26
2 9 -1 162.72 16.77
2 9 -1 131.19 15.82
2 9 0 1406.54 52.2
-2 9 0 1403 54.05
-2 9 0 1400.14 54.74
2 9 0 1476.2 56.51
2 9 0 1320.6 55.72
2 9 0 1290.65 51.34
2 9 0 1264.16 48.64
2 9 0 1369.26 55.8
2 9 0 1316.49 50.49
2 9 0 1262.42 52.46
-2 9 -1 40.61 8.91
-2 9 -1 45.03 8.96
2 9 1 68.6 11.74
2 9 1 50.37 9.92
2 9 1 46.43 9.02
2 9 1 41.02 9.13
2 9 1 33.09 8.41
-2 9 -2 439.35 28.7
2 9 2 474.64 30.19
2 9 2 449.1 28.75
2 9 2 460.22 28.51
2 9 2 458.12 29.44
-2 9 -3 25.55 6.82
2 9 3 28.13 7.18
2 9 3 18.63 6.11
2 9 3 29.27 7.84
-2 9 -4 908.68 40.52
2 9 4 876.95 38.74
2 9 4 842.23 36.7
-2 9 -5 387.56 24.33
-2 9 -5 342.9 19.43
2 9 5 339.69 22.27
-2 9 -6 229.49 17.08
2 9 6 183.23 14.05
2 9 6 187.85 14.79
-2 9 -7 292.4 17.54
-2 9 -7 257.29 14.06
2 9 7 294.6 16.43
-2 9 -8 67.63 6.87
-2 10 7 92.9 8.48
2 10 -7 109.85 9.52
-2 10 7 103.7 7.93
-2 10 6 27.24 5.61
2 10 -6 31.08 5.91
2 10 -6 34.19 5.83
-2 10 6 46.74 6
-2 10 5 200.7 15.77
2 10 -5 184.41 15.43
-2 10 5 172.35 12.58
2 10 -5 179.11 14.98
2 10 -5 203.11 15.61
2 10 -4 6.6 4.23
-2 10 4 13.05 4.52
2 10 -4 6.53 3.3
2 10 -4 7.12 3.57
-2 10 4 9.02 3.32
2 10 -3 261.63 20.01
-2 10 3 213.18 17.95
2 10 -3 229.34 18.57
2 10 -3 200.77 17.16
2 10 -3 235.45 18.66
-2 10 3 236.24 15.41
2 10 -2 53.41 9.79
-2 10 2 53.36 8.86
2 10 -2 57.18 9.39
2 10 -2 61.01 10.7
2 10 -2 71.01 10.78
2 10 -2 59.7 9.34
2 10 -2 40.91 8.03
2 10 -1 224.12 17.93
-2 10 1 224.31 18.71
2 10 -1 227.15 19.89
2 10 -1 282.03 21.6
2 10 -1 236.69 18.48
2 10 -1 228.59 19.3
2 10 -1 236.25 19.35
2 10 0 45.65 8.39
-2 10 0 48.19 8.63
-2 10 0 52.64 9.33
2 10 0 42.24 8.41
2 10 0 42.73 8.64
2 10 0 40.51 8.84
2 10 0 55.71 9.1
2 10 0 51.02 9.22
-2 10 -1 625.34 31.25
-2 10 -1 666.4 32.89
2 10 1 652.53 33.09
2 10 1 592.44 31.83
2 10 1 532.78 27.08
2 10 1 619.04 32.63
-2 10 -2 279 19.76
-2 10 -2 218.45 18.06
2 10 2 240.04 19.03
2 10 2 232.82 18.59
2 10 2 236.7 18.11
2 10 2 243.73 17.7
2 10 2 247.55 19.27
-2 10 -3 198.91 16.12
-2 10 -3 170.84 15.16
2 10 3 167.92 15.38
2 10 3 182.21 15.15
2 10 3 155.27 14.04
2 10 3 167.31 14.78
-2 10 -4 364.12 20.73
-2 10 -4 360.71 21.47
2 10 4 339.65 20.33
2 10 4 296.23 18.54
2 10 4 333.11 19.1
-2 10 -5 33.16 5.49
2 10 5 21.07 4.25
2 10 5 20.06 4.49
2 10 5 25.53 5.05
-2 10 -6 359.81 17.01
-2 10 -6 396.87 18.63
2 10 6 342.76 15.45
2 10 6 362.3 16.62
2 10 6 408.33 18.32
-2 11 5 19.75 3.84
2 11 -5 14.44 3.29
-2 11 4 29.85 5.21
2 11 -4 35.27 5.38
2 11 -4 36.54 5.53
-2 11 3 201.77 14.16
2 11 -3 180.9 13.02
2 11 -3 174.2 12.77
-2 11 2 71.55 8.85
2 11 -2 81.1 8.81
2 11 -2 86.7 9.32
-2 11 1 56.12 7.89
2 11 -1 46.2 7.28
-2 11 0 508.9 24.32
2 11 0 521.2 24.78
2 11 0 551.62 25.94
-2 11 -1 41.97 6.68
2 11 1 47.87 7.25
2 11 1 43.13 7.11
-2 11 -2 198.15 13.69
2 11 2 189.28 13.72
2 11 2 197.17 14.07
-2 11 -3 46.17 6.07
-2 11 -3 51.27 6.66
2 11 3 42.49 6.07
2 11 3 44.93 5.45
-2 11 -4 177.28 11.33
2 11 4 159.74 10.45
3 -10 -2 177.32 12.05
3 -10 -1 79.03 8.46
3 -9 -3 225.11 16.23
3 -8 -5 626.58 29.2
3 -8 -4 89.48 11.4
3 -8 -3 179.22 15.28
3 -8 -2 796.57 34.45
3 -8 -1 149.5 14.2
3 -7 -6 502.26 26.84
3 -7 -5 155.69 15.57
3 -7 -5 145.62 14.75
3 -7 -4 260.61 20.89
3 -7 -4 233.94 18.87
3 -7 -3 278.12 20.72
3 -7 -2 765.76 35.7
3 -6 -10 19.86 4.06
3 -6 -7 582.87 30.12
3 -6 -6 110.26 13.43
3 -6 -5 1748.9 60.83
3 -6 -5 1751.81 59.55
3 -6 -4 273.89 21.36
3 -6 -4 289.91 22.69
3 -6 -4 242.88 20.96
3 -6 -3 444.32 28.14
3 -6 -3 445.31 27.1
3 -6 -2 854.89 39.35
3 -6 -1 335.99 23.57
3 -6 0 250.15 19.68
3 -6 1 403.66 25.15
3 -5 -11 39.35 5.34
3 -5 -8 165.14 15.86
3 -5 -7 165.31 16.69
3 -5 -6 168.49 17.27
3 -5 -6 161.86 17.57
3 -5 -6 179.19 17.29
3 -5 -5 199.4 18.72
3 -5 -5 182.52 18.34
3 -5 -5 186.52 17.64
3 -5 -4 617.81 32.82
3 -5 -4 683.4 35.36
3 -5 -4 640.83 34.41
3 -5 -3 164.41 16.52
3 -5 -3 181.78 16.74
3 -5 -2 702.61 34.62
3 -5 -1 412 25.34
3 -5 0 168.06 15.86
3 -5 1 504.88 28.01
3 -5 2 130.69 14.01
3 -4 -9 375.77 24.34
3 -4 -8 151.6 16.39
3 -4 -7 698.19 36.46
3 -4 -7 678.92 36.07
3 -4 -6 44.13 9.46
3 -4 -6 34.57 8.34
3 -4 -5 1104.8 44.94
3 -4 -5 1084.38 45.85
3 -4 -5 1095.54 46.49
3 -4 -4 377.82 25.25
3 -4 -3 1092.37 43.84
3 -4 -2 65.23 9.66
3 -4 -1 169.25 15.45
3 -4 0 885.47 37.48
3 -4 1 728.44 33.52
3 -4 2 1772.5 57.7
3 -3 -12 198.9 12.19
3 -3 -11 75.69 9.34
-3 -3 9 49.43 8.23
3 -3 -9 40.85 9.03
3 -3 -8 298.2 23.81
3 -3 -7 101.58 14.05
3 -3 -7 67.75 11.19
3 -3 -7 106.7 14.43
3 -3 -6 578.09 33.31
3 -3 -6 479.9 29.79
3 -3 -6 581.29 31.73
3 -3 -5 388.51 25.41
3 -3 -4 1613.74 54.74
3 -3 -3 652.04 31.66
3 -3 -2 419.71 24.14
3 -3 -1 677.05 31.2
3 -3 0 952.16 37.88
3 -3 1 1314.95 46.25
3 -3 2 28.35 6.58
3 -3 5 712.69 33.47
3 -3 6 109.4 12.51
3 -3 7 276.27 19.37
3 -2 -12 282.2 15.73
-3 -2 11 248.74 15.07
3 -2 -11 305.1 19.67
-3 -2 10 56.85 8.65
3 -2 -10 85.46 11.48
-3 -2 9 171.42 15.95
3 -2 -8 47.6 9.93
3 -2 -8 50.75 10.59
3 -2 -7 579.45 34.01
3 -2 -7 666.03 36.35
3 -2 -6 82.94 11.43
3 -2 -6 110.46 14.01
3 -2 -6 85.59 11.84
3 -2 -5 980.57 40.34
3 -2 -4 269.27 19.44
3 -2 -3 497.93 25.88
3 -2 -2 324.83 20.55
3 -2 -1 552.81 26.74
3 -2 0 1491.25 48.49
3 -2 1 1083.64 40.51
3 -2 3 266.31 19.13
3 -2 5 92.46 11.76
3 -2 6 267.67 20.59
3 -2 7 55.74 9.33
3 -2 8 833.25 35.36
3 -2 9 29.69 5.71
-3 -1 12 249.96 13.05
3 -1 -12 290.54 16.19
-3 -1 11 18.01 4.59
3 -1 -10 471.12 27.53
-3 -1 10 491.63 26.19
-3 -1 9 78.81 11.18
3 -1 -9 86.3 12.85
3 -1 -8 255.57 23.1
3 -1 -8 246.38 22.8
3 -1 -7 32.74 8.31
3 -1 -7 39.06 8.94
3 -1 -5 142.99 13.69
3 -1 -4 695.68 31.43
3 -1 -4 715.53 31.22
3 -1 -3 142.5 12.97
3 -1 -2 1921.3 54.96
3 -1 -1 241.55 16.8
3 -1 0 2704.81 69.94
3 -1 1 1949.54 56.6
3 -1 1 1793.02 55.91
3 -1 2 334.32 20.9
3 -1 3 1282.56 45.03
3 -1 5 142.82 14.99
-3 -1 -6 555.38 30.66
3 -1 6 600.94 31.98
3 -1 6 531.56 29.99
3 -1 7 1680.15 57.83
-3 -1 -7 1633.22 62.19
3 -1 7 1714.9 57.82
3 -1 8 32.25 7.04
3 -1 9 547.43 26.79
3 -1 10 60.08 7.26
-3 0 12 340.53 16.54
3 0 -12 335.11 17.44
-3 0 11 1294.83 42.17
3 0 -11 1219.84 42.98
-3 0 10 114.54 12.8
3 0 -10 84.63 11.55
3 0 -10 108.21 12.85
-3 0 9 536.64 29.21
3 0 -9 464.31 29.47
3 0 -8 236.31 22.12
-3 0 8 278.55 22.87
3 0 -8 257.07 23.1
3 0 -7 396.44 28.04
-3 0 7 385.36 26.11
3 0 -7 435.88 29.67
-3 0 6 90.67 11.92
3 0 -6 80.85 12.64
-3 0 5 1790.52 56.44
3 0 -4 0.47 2.12
3 0 -4 3.97 3.46
3 0 -3 363.59 21.62
3 0 -3 399.68 20.92
3 0 -2 331.55 18.92
3 0 -2 307.68 19.64
3 0 -1 154.88 12.7
3 0 -1 154.24 13.73
3 0 0 1054.25 37.18
3 0 0 1037.52 38.82
3 0 1 82.31 10.06
3 0 2 2062.23 59.93
3 0 3 10.97 4.15
3 0 4 684.36 31.26
-3 0 -5 1253.31 47.72
3 0 5 1145.8 45.39
3 0 5 1108.02 45.09
-3 0 -6 3.86 4.14
-3 0 -6 9.9 4.7
3 0 6 1.04 3.49
3 0 6 2.89 4.49
3 0 6 3.23 3
-3 0 -7 669.32 35.46
-3 0 -7 668.96 35.62
3 0 7 723.11 35
-3 0 -7 750.73 39.27
3 0 7 738.29 36.08
3 0 7 747.74 35.96
3 0 8 913.05 38.69
3 0 8 970.38 40.73
3 0 9 94.89 10.89
3 0 10 421.22 20.95
3 0 11 239.04 12.12
-3 1 12 275.78 14.91
-3 1 11 23.33 5.63
3 1 -11 33.61 6.5
-3 1 10 590.22 29.46
3 1 -10 519.01 27.92
-3 1 9 92.91 12.2
3 1 -9 69.96 11.22
-3 1 8 277.39 21.45
-3 1 8 259.14 22.02
3 1 -8 280.93 24.97
3 1 -8 246.79 21.84
3 1 -7 38.37 9.5
-3 1 7 32.1 7.99
3 1 -7 31.95 8.62
-3 1 6 140.15 15.09
3 1 -6 159.56 17.44
-3 1 5 143.41 14.28
3 1 -5 176.84 17.4
3 1 -4 710.2 30.9
3 1 -3 168.58 14.26
3 1 -2 2013.58 54.14
3 1 -2 2011.44 58.31
3 1 -1 187.97 13.71
3 1 -1 187.54 15.28
3 1 0 2590.79 69.46
3 1 1 2019.56 59.12
3 1 2 306.92 20.1
3 1 3 1373.12 47.09
-3 1 -4 68.6 10.72
3 1 4 72.3 10.19
-3 1 -5 122.62 14.47
-3 1 -5 101.54 13.37
3 1 5 123.59 14.4
3 1 5 144.19 15.23
-3 1 -6 539.91 31.43
-3 1 -6 577.17 33.25
-3 1 -6 548.77 32.74
3 1 6 535.54 31
3 1 6 569.5 31.21
-3 1 -7 1685.24 60.7
-3 1 -7 1632.49 60.72
-3 1 -7 1749.54 63.08
3 1 7 1734.18 59.64
3 1 7 1724.53 58.51
3 1 8 23.73 6.31
3 1 8 17.19 6.13
3 1 9 513.2 26.62
3 1 9 519.84 27.15
3 1 10 66.13 7.71
3 1 10 96.5 9.83
-3 1 -11 100.52 9.07
3 1 11 103.84 8.18
-3 2 12 246.96 13.8
3 2 -12 234.27 15.7
-3 2 11 285.67 17.84
-3 2 10 73.7 10.28
3 2 -10 67.36 10.21
-3 2 9 178.21 16.44
3 2 -9 153.36 16.25
-3 2 8 38.52 8.1
-3 2 8 57.79 10.56
3 2 -8 44.61 9.99
3 2 -8 49.57 9.65
-3 2 7 598.73 31.01
3 2 -7 529.59 32.6
-3 2 7 549.47 32.26
3 2 -7 572.36 35
-3 2 6 127.71 14.17
-3 2 6 97.06 12.53
3 2 -6 98.28 13.78
3 2 -6 101.94 13.74
-3 2 5 1078.95 42.74
3 2 -5 1105.5 46.63
3 2 -4 260.5 18.08
3 2 -4 279.8 20.94
3 2 -3 539.98 27.89
3 2 -2 337.54 20.89
3 2 -1 537.41 26.94
3 2 0 1641.15 51.62
3 2 0 1508.85 45.76
3 2 1 999.69 36.38
-3 2 -2 2089.55 62.67
3 2 2 2156.02 61.01
-3 2 -3 231.27 18.81
3 2 3 265.57 17.53
3 2 3 271.01 19.2
-3 2 -4 482.5 28.86
-3 2 -4 441.83 25.56
3 2 4 490.93 27.15
-3 2 -5 114.79 14.36
-3 2 -5 107.5 13.27
3 2 5 98.33 12.4
3 2 5 82.06 12.1
-3 2 -6 231.18 21.21
-3 2 -6 245.92 21.05
3 2 6 227.87 19.72
3 2 6 246.59 20.2
3 2 7 71.25 10.94
3 2 8 824.4 37.54
3 2 9 27.39 6.31
3 2 9 37.33 7.52
-3 2 -10 345.59 20.52
3 2 10 376.6 19.56
3 2 10 386.21 19.94
-3 2 -11 103.78 8.69
3 2 11 99.52 7.81
-3 3 12 216.75 12.12
3 3 -12 216.6 13.99
-3 3 11 70.03 8.25
3 3 -11 49.98 7.59
3 3 -11 83.24 11
-3 3 10 390.35 22.34
3 3 -10 327.58 22.96
-3 3 9 46.42 8.59
-3 3 8 281.35 20.77
3 3 -8 278.54 22.24
3 3 -7 109.76 14.57
-3 3 7 111.98 12.76
-3 3 7 90.68 12.91
3 3 -7 101.55 14.46
-3 3 6 595.26 29.52
-3 3 6 597.77 31.65
3 3 -6 592.57 34.59
-3 3 6 554.04 31.65
3 3 -6 609.77 33.97
3 3 -6 593.06 31.1
3 3 -5 399.79 26.97
-3 3 5 420.82 25.94
3 3 -4 1660.37 52.22
3 3 -4 1524.77 54.2
3 3 -3 678.98 30.93
3 3 -3 679.01 31.66
3 3 -2 500.92 25.95
3 3 -1 689.03 30.82
-3 3 0 907.35 35.13
3 3 0 983.56 37.36
3 3 0 894.35 33.3
-3 3 -1 1307.38 45.47
3 3 1 1377.35 45.86
3 3 1 1330.51 43.88
-3 3 -2 32.78 7.02
3 3 2 26.55 5.47
3 3 2 23.47 5.69
-3 3 -3 1655.73 57.99
3 3 3 1801.51 53.87
3 3 3 1710.04 55.18
-3 3 -4 243.34 20.76
3 3 4 202.32 17.5
-3 3 -5 801.14 40.26
3 3 5 727.71 35.19
3 3 6 90.9 12.11
3 3 6 96.26 12.99
3 3 7 244.65 20.27
-3 3 -8 172.33 17.31
3 3 8 178.04 16.37
-3 3 -9 296.11 20.6
3 3 9 289.34 19.77
3 3 9 268.23 18.52
-3 3 -10 137.57 12.17
3 3 10 129.06 11.03
3 3 10 148.15 11.48
3 3 11 48.92 5
-3 4 11 91.16 8.65
3 4 -11 98.93 10.21
3 4 -11 90.24 10.41
-3 4 10 22.15 5.13
3 4 -10 18.71 6.1
3 4 -10 14.96 6.22
-3 4 9 403.94 23.03
3 4 -9 368.69 26.78
-3 4 8 144.95 14.32
-3 4 8 182.32 15.84
3 4 -8 146.85 15.63
-3 4 7 648.44 35.81
-3 4 7 629.5 30.7
3 4 -7 628.8 36.29
3 4 -7 708.44 36.52
3 4 -6 50.89 9.72
3 4 -6 28.47 7.69
-3 4 6 47.19 8.16
-3 4 6 37.72 8.76
3 4 -6 45.66 8.98
3 4 -6 63.94 10.77
3 4 -5 1093.22 46.29
3 4 -5 1173.5 49.12
-3 4 5 1133.25 44.02
-3 4 5 1088.59 45.46
3 4 -5 1171.78 48.27
3 4 -5 1123.41 44.73
3 4 -4 414.24 24.87
3 4 -3 1125.48 43.36
3 4 -2 62.54 9.35
3 4 -1 136.76 13.73
-3 4 0 860.84 35.2
3 4 0 997.53 39.13
3 4 1 607.61 28.82
-3 4 -1 633.33 31.29
-3 4 -2 1768.5 59.39
3 4 2 1761.76 56
3 4 2 1897.85 57.77
-3 4 -3 434.44 26.55
-3 4 -3 472.92 29.19
3 4 3 420.2 27.42
3 4 3 475.2 25.89
3 4 3 449.99 26.23
-3 4 -4 390.38 25.7
3 4 4 363.73 26.29
3 4 4 429.18 26.03
-3 4 -5 -1.53 2.97
3 4 5 3.41 3.73
3 4 5 3.66 4.67
-3 4 -6 278.97 22.3
3 4 6 227.69 19.48
-3 4 -7 1.22 4.34
3 4 7 5.13 3.54
-3 4 -8 616.91 31.86
3 4 8 641.76 32.61
3 4 8 594.01 29.4
-3 4 -9 112.27 12.03
3 4 9 102.16 11.37
3 4 9 114.71 11.18
-3 4 -10 276.31 15.61
3 4 10 248.08 14.57
3 4 10 256.28 14.18
-3 5 11 28.7 4.15
3 5 -11 25.59 4.94
3 5 -11 30.59 5.52
-3 5 10 180.38 12.5
3 5 -10 178.32 15.48
3 5 -10 170.02 15.21
-3 5 9 168.51 13.38
3 5 -9 159.93 16.65
3 5 -9 132.91 15.24
-3 5 9 153.06 13.1
-3 5 8 210.55 15.88
3 5 -8 215.25 20.07
-3 5 8 227.25 17.78
3 5 -8 201.13 17.3
-3 5 7 157.3 13.91
3 5 -7 156.44 17.69
3 5 -7 173.83 17.06
3 5 -6 164.22 17.96
3 5 -6 178.54 18.83
3 5 -6 214.21 19.6
3 5 -6 189.3 17.95
3 5 -5 234.87 21.68
3 5 -5 219.61 20.05
3 5 -5 239.35 20.86
3 5 -5 227.29 19.58
3 5 -4 742.04 39.19
-3 5 4 646.53 31.18
3 5 -4 723.03 35.44
3 5 -4 729.46 37.05
3 5 -4 709.34 34.73
3 5 -3 142.83 16.44
3 5 -3 130.47 14.77
3 5 -3 139.63 14.89
-3 5 3 146.48 15.46
3 5 -3 129.35 15.91
3 5 -3 153.57 15.45
3 5 -2 873.45 41.15
-3 5 2 768.21 34.97
3 5 -2 812.53 39.31
-3 5 2 798.06 37.01
3 5 -2 814.65 38.59
3 5 -2 823.57 37.87
-3 5 2 810.57 37.47
3 5 -2 896.05 40.12
3 5 -2 861.63 37.8
3 5 -1 533.78 29.62
3 5 0 211.21 18.5
3 5 1 605.27 32.02
3 5 1 535.36 27.86
-3 5 -1 553.68 28.88
-3 5 -1 542.21 29.42
-3 5 -1 541.35 30.02
3 5 1 568.31 32.98
3 5 1 657.63 32.57
3 5 2 107.38 12.18
-3 5 -2 121.49 13.96
3 5 2 104.95 12.95
3 5 3 679.41 33.6
-3 5 -3 660.36 34.1
3 5 3 640.69 34.21
-3 5 -4 48.7 8.97
-3 5 -4 45.73 9.07
3 5 4 44.15 8.79
3 5 4 48.2 9.37
-3 5 -5 416.3 27.67
3 5 5 394.18 27.39
-3 5 -6 55.46 10.28
3 5 6 44.15 9.34
3 5 6 53.46 8.68
-3 5 -7 614.41 32.25
3 5 7 579.92 31.6
3 5 7 563.18 28.54
-3 5 -8 65.86 9.81
3 5 8 81.75 10.4
3 5 8 77.62 9.36
-3 5 -9 495.85 23.37
3 5 9 459.2 22.49
3 5 9 472.68 20.95
-3 5 -10 272.82 13.69
3 5 10 290.53 13.9
-3 6 10 31.32 4.1
3 6 -10 22.99 5.33
3 6 -10 23.77 5.52
-3 6 10 25.81 4.12
-3 6 9 328.25 16.65
3 6 -9 392.12 24.13
3 6 -9 370.03 22.94
-3 6 9 372.83 19.67
3 6 -8 13.91 5.13
-3 6 8 17.14 5.08
3 6 -7 599.62 32.31
3 6 -7 578.45 33.23
3 6 -7 618.84 31.69
3 6 -6 103.83 14.5
3 6 -6 101.04 13.74
3 6 -6 102.47 13.43
3 6 -5 1871.27 67.11
3 6 -5 1768.48 62.25
3 6 -5 1824.92 63.23
3 6 -5 1750.57 60.46
3 6 -4 233.31 21.9
3 6 -4 247.34 19.78
3 6 -4 243.63 20.73
3 6 -4 306.84 23.68
3 6 -4 234.05 19.77
3 6 -3 448.06 30.74
3 6 -3 448.85 28.28
3 6 -3 540.8 31.65
3 6 -3 503.81 29.09
3 6 -2 892.05 43.21
-3 6 2 885.28 39.41
-3 6 2 806.1 39.57
-3 6 2 771.07 36.75
3 6 -2 847.74 41.62
-3 6 2 930.43 40.12
3 6 -2 829.37 40.08
3 6 -2 939.39 42.65
3 6 -2 870.98 39.31
3 6 -1 256.36 22.15
-3 6 1 288.35 21.89
-3 6 1 293.4 22.57
-3 6 1 265.42 21.02
3 6 -1 284.55 23.16
-3 6 1 286.43 21.36
3 6 -1 258.48 20.46
3 6 -1 260.95 21.96
3 6 0 301.99 22.19
3 6 0 308.02 23.61
-3 6 0 283.77 21.94
-3 6 0 252.84 21.08
3 6 0 276.14 22.59
-3 6 0 254.86 20.29
3 6 0 277.75 23.4
3 6 0 259.07 23
-3 6 0 260.57 20.37
3 6 1 354.93 24.69
3 6 1 378.59 25.55
-3 6 -1 401.36 26.39
-3 6 -1 363.43 25.57
3 6 1 418.58 27.64
-3 6 -1 381.76 25.26
3 6 1 357.52 26.84
3 6 1 335.8 25.9
3 6 2 749.84 37.44
3 6 2 707.31 34.58
-3 6 -2 730.59 36.68
-3 6 -2 785.52 38.91
-3 6 -2 776.07 37.37
3 6 2 715.52 36.69
3 6 2 786.91 40.79
3 6 2 674.31 36.26
-3 6 -3 73.89 10.98
-3 6 -3 91.01 12.76
-3 6 -3 78.03 11.91
3 6 3 71.24 10.75
3 6 3 66.79 10.45
-3 6 -4 923.18 41.5
-3 6 -4 972.3 42.81
3 6 4 821.86 39.15
-3 6 -5 61.28 10.12
-3 6 -5 74.58 11.3
3 6 5 50.68 9.76
-3 6 -6 142.33 14.64
-3 6 -6 136.87 14.58
3 6 6 155.01 15.46
-3 6 -7 254.72 18.13
-3 6 -7 283.84 20.09
3 6 7 289.21 19.68
3 6 7 280.34 18.48
-3 6 -8 234.11 16.15
3 6 8 249.87 16.31
3 6 8 227.54 13.67
-3 6 -9 102.06 8.87
3 6 9 108.01 8.77
3 7 -9 30.19 6.07
3 7 -9 26.06 5.51
-3 7 9 34.53 5.35
3 7 -8 302.62 20.66
3 7 -8 276.68 19.47
-3 7 8 282.86 17.71
3 7 -7 21.6 6
3 7 -7 34.02 7.51
-3 7 7 42.8 7.91
3 7 -6 503.56 30.44
3 7 -6 504.09 29.51
3 7 -5 176.06 18.78
-3 7 5 174.03 16.23
3 7 -5 200.71 17.97
3 7 -5 174.44 17.23
3 7 -4 282.82 24.18
-3 7 4 255.67 20.58
3 7 -4 261.38 21.11
3 7 -4 291.26 21.7
3 7 -3 358.92 27.12
-3 7 3 315.62 23.1
3 7 -3 291.11 21.69
3 7 -3 346.48 23.89
3 7 -2 867.9 42.74
-3 7 2 882.77 40.01
3 7 -2 816.66 41.25
3 7 -2 753.1 37.89
3 7 -2 839.38 38.37
3 7 -1 267.81 22.67
-3 7 1 209.45 18.75
-3 7 1 227.79 19.84
-3 7 1 206.11 19.63
3 7 -1 257.66 22.53
-3 7 1 220.14 18.75
3 7 -1 263.63 21.94
3 7 -1 267.34 20.7
3 7 0 264.36 20.91
3 7 0 268.29 22.4
-3 7 0 240.31 20.8
-3 7 0 231.63 20.53
3 7 0 257.72 22.23
-3 7 0 267.42 20.72
3 7 0 257.43 22.16
3 7 1 396.14 25.46
-3 7 -1 365.91 25.7
3 7 1 393.1 27.5
-3 7 -1 361.95 24.28
3 7 1 409.83 28.64
3 7 1 325.82 25.78
3 7 2 79.71 11.15
-3 7 -2 68.89 11.09
-3 7 -2 73.31 10.77
3 7 2 57.25 10.32
3 7 2 64.99 11.19
3 7 2 70.15 11.61
3 7 3 572.72 31.27
-3 7 -3 596.96 32.64
3 7 3 576.34 31.59
-3 7 -3 567.76 30.96
3 7 3 617.37 35.38
3 7 4 75.85 11
-3 7 -4 78.47 11.33
3 7 5 618 30.36
-3 7 -5 610.1 31.2
-3 7 -5 610.9 31.45
3 7 5 600.79 28.71
3 7 5 652.81 33.49
-3 7 -6 185.1 15.43
-3 7 -6 204.54 16.43
3 7 6 172.36 13.97
3 7 6 164.89 15
3 7 7 483.09 22.17
-3 7 -7 443.03 22.19
3 7 7 499.23 22.36
3 7 7 500.8 23.18
3 7 8 3.22 1.65
-3 7 -8 2.7 2.13
3 7 8 2.85 1.43
3 8 -8 36.85 5.87
-3 8 8 29.2 5.07
3 8 -7 368.81 20.9
3 8 -7 333.64 20.07
3 8 -6 19.79 6.02
-3 8 6 40.7 6.98
3 8 -5 652.32 34.03
-3 8 5 619.1 29.88
3 8 -4 117.81 14.78
-3 8 4 83.21 11.13
3 8 -4 79.32 11.06
3 8 -4 126.34 13.3
3 8 -3 169.75 18.05
-3 8 3 188.42 17.16
3 8 -3 157.92 15.18
3 8 -2 879.38 42.02
-3 8 2 915.78 40.2
3 8 -2 918.03 42.99
3 8 -2 869.95 38.52
3 8 -2 926.73 38.7
3 8 -1 158.05 17.07
-3 8 1 197.46 17.81
-3 8 1 161.42 16.68
3 8 -1 188.46 18.71
3 8 -1 145.58 15.48
3 8 -1 160.09 15.29
3 8 0 166.8 16.71
-3 8 0 150.54 15.65
3 8 0 176.2 15.87
-3 8 0 145.25 15.81
3 8 0 178.18 18.38
-3 8 0 130.35 13.27
3 8 0 155.59 16.52
-3 8 -1 420 26.37
-3 8 -1 418.69 26.75
3 8 1 385.31 26.43
-3 8 -1 392.54 23.64
3 8 1 391.39 26.67
3 8 1 346.56 22.68
3 8 2 434.88 24.88
-3 8 -2 437.79 27.26
3 8 2 477.8 28.56
-3 8 -2 409.66 24.37
3 8 2 447.81 28.76
3 8 3 108.26 11.71
-3 8 -3 123.11 13.91
3 8 3 97.08 12.07
-3 8 -3 143.84 13.79
3 8 3 107.87 13.77
3 8 4 365.83 20.9
-3 8 -4 378.19 23.4
-3 8 -4 367.22 21.94
3 8 4 332.08 23.22
3 8 5 12.1 3.64
-3 8 -5 9.86 3.84
-3 8 -5 6.27 3.12
3 8 5 10.06 3.84
3 8 6 330.23 16.66
-3 8 -6 348.69 19.03
-3 8 -6 370.71 19.55
3 8 6 382.75 20.38
-3 8 -7 44.82 5.61
-3 8 -7 43.14 5.66
3 8 7 48.95 5.84
3 9 -7 21.64 4.16
-3 9 7 33 4.74
3 9 -6 263.9 16.81
-3 9 6 240.97 14
3 9 -6 240.87 15.2
-3 9 6 255.99 15.03
3 9 -5 55.56 8.69
-3 9 5 42.15 6.5
3 9 -5 32.49 6.24
-3 9 5 40 6.81
3 9 -4 205.42 17.16
-3 9 4 196.53 15.14
3 9 -4 150.7 13.17
3 9 -3 262.91 20.07
-3 9 3 232.58 17.36
3 9 -3 241.04 16.32
3 9 -2 210.46 17.96
-3 9 2 197.32 16.41
3 9 -2 204.93 15.2
3 9 -1 185.23 16.27
-3 9 1 187.73 16.3
3 9 -1 205.77 18.25
3 9 -1 185.48 15.36
3 9 -1 197.87 14.9
3 9 0 93.66 11.14
-3 9 0 102.61 12.01
3 9 0 100.3 12.75
3 9 0 88.58 11.05
3 9 0 89.33 9.94
3 9 1 21.03 4.84
-3 9 -1 30.85 6.9
-3 9 -1 11.54 4.44
3 9 1 17.45 5.72
3 9 1 21.81 6.14
3 9 2 35.74 6.1
-3 9 -2 42.93 7.56
-3 9 -2 39.35 7.55
-3 9 -2 40.41 6.52
3 9 2 29.03 6.49
3 9 2 41.38 7.64
-3 9 -3 329.43 20.48
-3 9 -3 363.64 21.31
3 9 3 351.96 20.23
-3 9 -3 328.93 18.11
3 9 3 339.28 21.22
3 9 3 308.69 16.85
-3 9 -4 39.2 6.7
-3 9 -4 44.08 6.93
-3 9 -4 39.86 5.86
3 9 4 33.21 5.54
3 9 4 30.28 5.83
-3 9 -5 497.41 22.39
-3 9 -5 497.65 21.83
-3 9 -5 469.08 19.54
3 9 5 511.05 22.83
-3 9 -6 7.53 2.37
3 9 6 17.18 3.4
3 10 -5 173.6 11.85
-3 10 5 199.82 10.85
3 10 -4 85.6 9.06
-3 10 4 71.63 7.44
-3 10 4 75.25 7.12
3 10 -3 318.29 18.26
-3 10 3 329.32 17.66
-3 10 3 320.2 15.78
3 10 -2 220.61 15.03
-3 10 2 189.6 13.84
3 10 -1 79.27 8.79
-3 10 1 91.95 9.77
-3 10 0 52.38 7.67
3 10 0 50.23 6.41
-3 10 -1 224.03 15.1
3 10 1 230.67 15.63
3 10 1 228.21 14.3
-3 10 -2 206.94 14.02
3 10 2 202.92 13.6
3 10 2 204 13.37
-3 10 -3 398.63 18.87
3 10 3 371.06 16.83
3 10 3 406.15 18.49
-3 10 -4 112.27 8.67
3 10 4 134 9.2
4 -9 -3 220.59 12.39
4 -9 -2 62.96 6.95
4 -9 -1 444.8 19.94
4 -9 0 4.15 2.66
4 -9 1 399.49 18.13
4 -9 2 9.46 2.72
4 -8 -5 115.54 9.67
4 -8 -4 96.37 9.69
4 -8 -3 33.93 6.16
4 -8 -3 27.85 5.07
4 -8 -2 385.38 21.8
4 -8 -2 364 19.56
4 -8 -1 85.24 10.42
4 -8 -1 74.85 8.59
4 -8 0 144.96 12.1
4 -8 1 288.92 17.07
4 -8 2 157.7 12.02
4 -7 -7 272.5 14.6
4 -7 -6 276.45 16.81
4 -7 -5 287.23 18.88
4 -7 -4 21.26 5.98
4 -7 -4 11.12 4.42
4 -7 -3 581.83 30.11
4 -7 -3 610.37 29.02
4 -7 -2 67.99 10.61
4 -7 -2 50.67 8.3
4 -7 -1 1045.92 40.52
4 -7 0 187.83 15.92
4 -6 -9 148.67 10.11
4 -6 -8 1.09 1.82
4 -6 -7 32.65 6.39
4 -6 -6 123.8 12.75
4 -6 -5 144.38 14.48
4 -6 -5 122.16 13.59
4 -6 -4 437.76 26.93
4 -6 -4 430.93 25.73
4 -6 -3 155.66 15.55
4 -6 -3 172.65 17.05
4 -6 -2 508.79 30.33
4 -6 -2 457.16 27.39
4 -6 -1 46.1 8.08
4 -5 -9 60.57 7.79
4 -5 -8 291.94 18.51
4 -5 -7 132.84 13.53
4 -5 -6 19.93 6.44
4 -5 -5 140.65 16
4 -5 -5 157.73 16.05
4 -5 -4 28.11 7.23
4 -5 -4 28.54 7.05
4 -5 -3 481.68 30.07
4 -5 -3 463.73 28.33
4 -5 -2 162.78 17.39
4 -5 -2 132.82 14.84
4 -4 -10 27.96 4.76
4 -4 -10 28.54 4.88
-4 -4 9 415.76 18.19
4 -4 -9 387.13 22.12
4 -4 -8 115.64 12.92
4 -4 -7 142.84 15.09
4 -4 -6 340.45 24.81
4 -4 -5 48.01 10
4 -4 -5 35.85 8.3
4 -4 -4 715.3 37.68
4 -4 -4 732.05 36.56
4 -4 -3 1066.09 47.08
4 -4 -3 1040.17 44.32
4 -4 -2 1088.44 46.76
4 -4 -2 1094.96 48.17
4 -4 -2 1157.05 46.89
4 -4 -1 61.98 10.45
4 -4 0 764.92 37.76
4 -4 1 146.6 16.77
-4 -3 10 149.36 9.85
4 -3 -10 147.78 11.96
4 -3 -9 168.93 15.72
-4 -3 9 200.95 13.96
4 -3 -8 272.39 20.95
4 -3 -8 294.24 22.85
4 -3 -7 416.6 27.8
4 -3 -6 65.29 11.09
4 -3 -5 645.72 35.59
4 -3 -5 621.52 33.4
4 -3 -4 21.06 6.67
4 -3 -4 22.2 6.02
4 -3 -4 35.91 7.79
4 -3 -4 22.19 6.45
4 -3 -4 27.54 7.11
4 -3 -3 107.24 13.81
4 -3 -3 121.18 14.86
4 -3 -3 114.6 12.51
4 -3 -3 104.23 14.33
4 -3 -3 124.19 14.36
4 -3 -2 252.53 21.28
4 -3 -2 213.37 19.79
4 -3 -2 248.08 17.89
4 -3 -2 251.08 20.26
4 -3 -1 1044.28 44.77
4 -3 -1 981.34 46.29
4 -3 0 55.45 10.03
4 -3 0 65.62 11.55
4 -3 1 1000.75 45.45
4 -3 2 85.94 12.07
4 -3 2 110.05 12.66
4 -3 3 78.3 10.86
4 -3 4 402.3 24.87
4 -3 5 322.19 20.93
4 -3 6 517.11 25.4
4 -3 7 159 12
4 -2 -11 200.85 11.25
-4 -2 10 66.41 7.48
4 -2 -10 76.38 8.67
4 -2 -10 62.86 8.27
-4 -2 9 237.42 16.21
4 -2 -9 216.78 18.12
4 -2 -8 145.96 16.07
4 -2 -8 142.27 16.27
4 -2 -7 106.72 14.17
4 -2 -7 125.41 15.81
4 -2 -6 740.08 38.7
4 -2 -5 74.62 11.57
4 -2 -5 80.85 12.26
4 -2 -5 97.13 12.07
4 -2 -5 89.38 12.2
-4 -2 4 171.88 15.07
4 -2 -4 181.17 18.24
4 -2 -4 159.86 15.14
4 -2 -4 148.49 16.78
4 -2 -4 147.54 15.67
4 -2 -4 173.96 17.24
4 -2 -3 448.84 28.29
4 -2 -3 496.05 30.3
4 -2 -3 515.67 27.13
4 -2 -3 444.52 29.82
4 -2 -3 463.44 27.87
4 -2 -2 1007.09 43.3
4 -2 -2 998.6 44.09
4 -2 -2 962.23 45.46
4 -2 -2 1051.31 40.21
4 -2 -2 996.13 41.74
4 -2 -1 210.89 18.71
4 -2 -1 233.23 19.97
4 -2 -1 209 20.2
4 -2 -1 217.09 16.84
4 -2 0 1387.1 52.46
4 -2 0 1353.92 54.3
4 -2 0 1374.93 47.01
4 -2 1 373.6 26.34
4 -2 1 340.45 21.35
4 -2 1 386.33 24.31
4 -2 2 765.42 38.13
4 -2 2 794.96 36.83
4 -2 3 74.03 11.12
4 -2 4 1139.31 45.41
4 -2 5 752.37 34.93
4 -2 6 533.08 27.37
4 -2 7 557.7 25.72
4 -2 8 25.22 4.54
-4 -1 11 13.52 2.99
4 -1 -11 13.32 3.2
-4 -1 10 152.39 11.88
4 -1 -10 164.69 12.69
4 -1 -10 163.31 13.49
-4 -1 9 109.24 11.54
4 -1 -9 86.09 11.95
4 -1 -8 529.17 31.89
4 -1 -7 879.38 42.89
4 -1 -7 921.04 45.19
-4 -1 6 391.16 23.92
4 -1 -6 360.53 26.53
4 -1 -6 343.28 27.04
-4 -1 5 195.8 16.73
4 -1 -5 178.07 18.25
4 -1 -5 165.43 15.98
4 -1 -5 181.42 17.21
4 -1 -5 175.78 19.15
4 -1 -4 100.18 12.78
-4 -1 4 113.54 12.84
4 -1 -4 113.2 14.34
4 -1 -4 117.44 12.99
4 -1 -4 110.64 14.03
4 -1 -4 102.2 13.01
4 -1 -4 98.75 13.93
4 -1 -3 198.97 17.81
4 -1 -3 192.74 18.34
4 -1 -3 219.11 17.48
4 -1 -3 186.12 18.47
4 -1 -3 198.22 19.24
4 -1 -3 191.06 17.04
4 -1 -2 34.05 7.08
4 -1 -2 41.04 8.51
4 -1 -2 39.71 7.32
4 -1 -2 51.95 9.68
4 -1 -1 737.26 35.6
4 -1 -1 720.92 32.9
4 -1 -1 745.58 38.25
4 -1 0 64.62 9.51
4 -1 0 50.97 10.15
4 -1 0 60.91 8.96
4 -1 1 1290.66 51.73
4 -1 1 1356.5 49.03
4 -1 2 71.25 11.41
4 -1 2 76.64 11.01
4 -1 3 135.71 15.49
4 -1 3 142.85 15.19
4 -1 4 74.46 11.28
4 -1 5 360.51 24.11
4 -1 6 1015.02 40.99
4 -1 7 114.91 11.89
4 -1 8 381.72 19.41
4 -1 9 31.39 4.28
-4 0 11 114.05 8.55
-4 0 10 -2.24 2.82
4 0 -10 -4.55 3.09
4 0 -10 5.17 3.6
-4 0 9 249.44 17.53
4 0 -9 201.41 17.65
4 0 -8 222.17 20.43
4 0 -7 251.07 22.29
4 0 -7 271.92 23.44
-4 0 6 1087.12 43.63
4 0 -6 1041.57 47.03
4 0 -6 1100.48 42.56
4 0 -6 1030 48.22
-4 0 5 40.43 8.3
4 0 -5 39.51 8.62
4 0 -5 60.25 9.51
4 0 -5 44.79 9.8
4 0 -5 51.37 10.12
-4 0 4 114.73 13.19
4 0 -4 77.44 12.18
4 0 -4 112.21 12.65
4 0 -4 92.56 12.87
4 0 -4 94.34 13.19
4 0 -3 207.92 16.92
4 0 -3 199.64 18.72
4 0 -3 208.55 19.66
4 0 -2 632.67 31.77
-4 0 2 617.95 31.53
4 0 -2 598.2 29.83
4 0 -2 641.32 34.66
-4 0 1 14.48 5.41
4 0 -1 15.62 4.98
4 0 -1 12.36 5.26
-4 0 0 576.79 30.22
4 0 0 546.62 31.99
4 0 0 600.39 29.97
-4 0 -1 22.81 6.06
4 0 1 22.11 6.56
-4 0 -2 550.22 30.2
4 0 2 609.71 33.4
4 0 2 575.16 30.83
4 0 2 585.7 31.67
4 0 3 6.01 3.08
4 0 3 4.51 4.15
-4 0 -4 1216.29 50.55
4 0 4 1213.58 48.16
4 0 4 1209.9 48.37
4 0 4 1218.51 49.11
4 0 5 366.13 24.2
4 0 5 341.05 24.02
4 0 6 63.64 9.69
4 0 6 60.54 9.72
4 0 7 389.44 21.47
4 0 7 387.57 22.82
-4 0 -8 -0.96 1.89
4 0 8 -1.12 2.45
-4 0 -9 153.06 10.31
4 0 9 171.47 10.81
-4 1 11 7.63 2.71
4 1 -11 7.85 2.59
-4 1 10 171.85 12.62
4 1 -10 138.95 11.96
-4 1 9 126.61 12.2
4 1 -9 114.57 12.98
-4 1 8 570.64 28.69
4 1 -8 557.36 32.09
4 1 -7 908.11 43.83
-4 1 6 382.54 25.08
4 1 -6 381.86 23.32
4 1 -6 335.72 26.18
-4 1 5 211.12 18.01
4 1 -5 169.08 17.67
4 1 -5 198.08 16.84
4 1 -5 194.67 20.03
4 1 -5 189.33 19.45
-4 1 4 107.32 12.62
4 1 -4 96.54 11.6
-4 1 4 97.56 12.71
4 1 -4 96.98 14.15
4 1 -4 63.3 11.17
4 1 -3 271.23 19.51
4 1 -3 277.18 21.9
4 1 -3 297.26 22.85
-4 1 2 33.2 7.49
4 1 -2 33.39 7.08
4 1 -2 39.98 8.41
4 1 -2 35.02 7.96
-4 1 1 740.44 35.12
4 1 -1 689.15 32.43
4 1 -1 727.89 37.13
-4 1 0 56.43 9.32
-4 1 0 59.57 9.26
4 1 0 64.98 10.63
4 1 0 63.96 9.22
-4 1 -1 1210.7 47.34
4 1 1 1259.37 46.47
4 1 1 1226.24 46.25
4 1 2 103.6 13.5
4 1 2 114.36 13.24
4 1 2 88.52 11.98
-4 1 -3 156.69 17.12
4 1 3 165.03 17.3
4 1 3 138.62 15.5
4 1 3 148.2 15.8
4 1 4 107.65 13.87
4 1 4 114.74 13.99
4 1 5 292.1 22.28
4 1 5 299.65 22.2
-4 1 -6 953.77 38.53
4 1 6 1002.82 41.35
4 1 6 969.91 40.65
-4 1 -7 90.85 10.54
4 1 7 92.51 10.56
4 1 7 103.03 11.59
-4 1 -8 333.72 18.85
4 1 8 350.66 18.36
4 1 8 382.44 20.02
4 1 9 32.21 4.9
-4 2 11 217.21 11.23
4 2 -11 180.09 11.63
-4 2 10 75.56 8.09
4 2 -10 49.27 7.64
4 2 -10 66.43 7.72
-4 2 9 278.07 17.61
4 2 -9 245.99 18.63
-4 2 8 178.2 14.98
4 2 -8 183.93 17.73
-4 2 7 92.16 11.38
4 2 -7 80.26 12.46
-4 2 6 683.22 34.53
4 2 -6 743.68 32.66
4 2 -6 717.72 38.6
-4 2 5 120.54 14.06
4 2 -5 94.89 11.42
-4 2 5 102.86 12.89
4 2 -5 70.28 11.74
4 2 -5 105.1 14.56
4 2 -5 86.13 11.24
-4 2 4 191.58 17.17
4 2 -4 206.84 16.91
4 2 -4 156.82 15.83
-4 2 4 204.12 18.05
4 2 -4 176.74 18.75
4 2 -3 491.42 26.51
4 2 -3 492.41 28.78
-4 2 3 501.59 28.6
4 2 -3 465.6 29.54
-4 2 2 1053.46 44.26
4 2 -2 1050.38 41.07
4 2 -2 995.96 42.96
4 2 -2 1034.97 43.86
4 2 -1 192.63 16.36
-4 2 1 244.4 19.8
4 2 -1 185.66 16.28
4 2 -1 204.49 19
4 2 0 1303.77 47.23
-4 2 0 1329.08 50.56
-4 2 0 1315.03 49.6
-4 2 0 1371 50.47
4 2 0 1423.75 53.32
4 2 0 1444.2 51.89
4 2 1 342.85 22.76
-4 2 -1 350.11 24.23
-4 2 -1 326.98 23.65
-4 2 -1 351.19 23.74
4 2 1 335.25 24.01
4 2 1 356.31 23.69
4 2 1 312.21 21.12
4 2 1 322.33 21.86
-4 2 -2 707.75 37.08
-4 2 -2 800.22 36.83
4 2 2 814.67 39.44
4 2 2 711.66 35.44
4 2 2 777.53 35.8
4 2 2 746.86 34.98
4 2 2 709.64 34.76
-4 2 -3 44.59 8.67
-4 2 -3 58.56 10.66
4 2 3 53.76 9.19
4 2 3 48.22 9.86
4 2 3 35.34 7.66
4 2 4 1198.78 50.09
4 2 4 1199.6 47.34
-4 2 -5 649.43 31.53
4 2 5 661.19 34.96
4 2 5 605.72 32.12
-4 2 -6 533.83 27.79
4 2 6 524.77 29.39
4 2 6 492.17 27.67
-4 2 -7 489.89 25.22
4 2 7 476.67 25.81
4 2 7 538.38 26.57
4 2 8 27.85 5.48
4 2 8 35.15 5.93
-4 2 -9 84.63 7.44
4 2 9 97.79 7.96
-4 3 10 178.21 11.31
4 3 -10 141.77 11
4 3 -10 136.52 11.66
4 3 -10 145.47 10.69
-4 3 9 185.39 13.35
4 3 -9 162.01 13.92
4 3 -9 165.5 14.77
-4 3 8 356.7 20.14
4 3 -8 287.93 21.09
4 3 -8 315.86 22.11
-4 3 7 465.21 24.42
4 3 -7 385.98 25.57
4 3 -7 467.62 28.9
4 3 -6 69.1 11.06
-4 3 6 64.12 8.95
4 3 -6 71.14 11.62
-4 3 5 647.08 32.89
4 3 -5 673.83 30.5
-4 3 5 680.23 33.65
4 3 -5 650.79 36.22
4 3 -5 600.8 31.12
4 3 -4 19.33 5.44
-4 3 4 18.78 5.64
4 3 -4 19.52 5.3
4 3 -4 23.53 6.99
-4 3 4 32.08 7.8
4 3 -4 21.42 7.63
4 3 -3 62.27 10.04
-4 3 3 82.12 11.41
4 3 -3 97.88 11.44
4 3 -3 71.67 11.01
-4 3 3 84.91 12.89
4 3 -3 53.57 10.12
-4 3 2 225.33 19.59
4 3 -2 251.16 18.66
4 3 -2 292.53 23.44
4 3 -2 237.42 20.05
-4 3 2 255.72 20.99
4 3 -2 251.97 21.09
4 3 -2 259.11 19.65
4 3 -1 1072.4 42.73
-4 3 1 1061.88 44.32
-4 3 1 1053.78 44.5
4 3 -1 1015.61 40.89
4 3 -1 1097.65 47.36
4 3 -1 1069.56 44.47
-4 3 1 1056.77 44.21
4 3 -1 1015.53 42.84
4 3 0 63.98 9.79
-4 3 0 71.66 10.94
-4 3 0 68.48 10.63
4 3 0 77.99 12.1
4 3 0 64.83 10.38
4 3 1 1067.01 43.9
-4 3 -1 1031.62 44.07
-4 3 -1 963.98 43.13
-4 3 -1 1126.79 45.73
4 3 1 1057.56 46.2
4 3 1 1119.45 44.78
4 3 2 103.11 13.05
-4 3 -2 105.21 13.45
-4 3 -2 101.47 13.02
-4 3 -2 92.77 12.99
4 3 2 77.72 10.99
4 3 2 72.04 11.62
4 3 2 94.18 13.33
4 3 2 105.46 12.82
-4 3 -3 116.03 14.08
4 3 3 106.2 14.08
4 3 3 112.18 13.53
4 3 3 126.91 13.63
-4 3 -4 460.89 25.97
-4 3 -4 413.1 26.27
4 3 4 453.82 29.42
4 3 4 421 25.89
-4 3 -5 278.64 20.34
-4 3 -5 295.56 21.05
4 3 5 267.66 21.65
4 3 5 260.35 19.7
-4 3 -6 548.7 27.71
-4 3 -6 469.42 25.41
4 3 6 474.62 27.88
4 3 6 504.62 26.56
-4 3 -7 160.55 13.74
4 3 7 151.76 13.85
4 3 7 167.64 13.78
-4 3 -8 331.14 17.73
4 3 8 348.75 18.29
4 3 8 342.05 17.45
-4 3 -9 120.09 8.75
4 3 9 111.63 7.68
-4 4 10 24.53 3.37
4 4 -10 30.47 4.73
4 4 -10 22.39 4.47
-4 4 9 382.64 17.61
4 4 -9 356.11 20.27
4 4 -9 416.12 20.72
-4 4 8 121.14 10.63
4 4 -8 123.47 12.83
4 4 -8 152.5 14.33
-4 4 7 138.5 11.89
4 4 -7 114.23 12.93
4 4 -7 144.79 15.09
4 4 -6 378.97 25.78
4 4 -6 405.37 26.98
4 4 -5 35.83 7.72
4 4 -5 59.1 11.06
-4 4 5 47.64 8.83
4 4 -5 49.02 10.06
4 4 -4 777.87 40.14
-4 4 4 749.11 35.08
-4 4 4 816.91 37.95
4 4 -4 759.19 38.9
4 4 -4 769.76 36.06
-4 4 3 1050.09 41.56
4 4 -3 1038.02 38.93
4 4 -3 984.26 43.8
-4 4 3 1099.43 45.5
4 4 -3 1086.4 46.3
4 4 -3 1074.17 43.49
-4 4 2 1144.29 43.59
-4 4 2 1191.81 47.65
4 4 -2 1130.65 42.34
4 4 -2 1278.42 51.72
4 4 -2 1152.97 47.56
-4 4 2 1222.69 48.58
4 4 -2 1222.87 48.86
4 4 -2 1222.5 47.12
4 4 -1 73.97 11.09
-4 4 1 52.69 9.22
-4 4 1 75.53 11.37
4 4 -1 64.58 9.45
4 4 -1 65.9 11.93
4 4 -1 56.89 10.2
-4 4 1 63.05 11.12
4 4 -1 73.27 11.02
4 4 0 793.26 37.39
-4 4 0 778.24 37.25
-4 4 0 790 38.21
4 4 0 847.78 41.59
4 4 0 826.99 38.9
-4 4 0 758.49 36.96
4 4 1 139.22 15.39
-4 4 -1 135.05 14.79
-4 4 -1 135.52 15.28
4 4 1 151 17.15
4 4 1 143.18 15.43
-4 4 -1 169.15 16.19
4 4 2 416.5 27.27
-4 4 -2 380 25.48
-4 4 -2 449.9 28.04
4 4 2 421.42 27.59
4 4 2 439.7 28.71
-4 4 -2 449.35 26.34
4 4 3 48.46 9.69
-4 4 -3 57.75 9.64
-4 4 -3 36.82 7.64
-4 4 -3 51.25 9.97
4 4 3 59.17 10.19
4 4 3 65.08 10.48
-4 4 -4 696.27 32.82
-4 4 -4 732.13 35.6
4 4 4 735.02 37.03
4 4 4 651.96 32.74
-4 4 -5 421.5 24.74
-4 4 -5 401.14 25.02
4 4 5 467.57 27.9
4 4 5 421.88 23.49
-4 4 -6 272.76 18.58
-4 4 -6 229.74 17.15
4 4 6 232.81 18.32
4 4 6 242.66 16.64
-4 4 -7 348.61 19.62
-4 4 -7 336.53 18.52
4 4 7 389.29 21.19
4 4 7 330.08 17.72
-4 4 -8 28.84 4.97
-4 4 -8 29.23 4.86
4 4 8 30.09 4.87
4 4 8 29.09 4.3
4 5 -9 77.37 8.78
4 5 -9 53.42 6.77
4 5 -8 282.95 17.77
4 5 -8 306.55 18.78
4 5 -7 142 13.42
4 5 -7 158.21 14.73
4 5 -6 26.21 6.97
4 5 -6 25.17 6.55
4 5 -5 163.95 17.92
4 5 -5 179.54 17.54
4 5 -5 170.36 16.12
4 5 -4 40.45 8.38
4 5 -4 58.78 10.74
-4 5 4 45.15 7.78
4 5 -4 55.33 10.4
4 5 -3 392.67 27.84
-4 5 3 367.23 22.43
-4 5 3 393.6 26.03
4 5 -3 414.69 27.21
4 5 -3 406.22 25.63
4 5 -2 149.32 17.18
4 5 -2 135.64 16.09
-4 5 2 178.09 17.33
4 5 -2 160.12 17
4 5 -2 139.19 15.07
4 5 -1 721.66 37.87
-4 5 1 713.92 34.72
4 5 -1 780.23 39.69
-4 5 1 670.49 34.86
4 5 -1 667.81 34.38
4 5 0 55.07 9.67
4 5 0 40.06 8.99
-4 5 0 40.41 7.74
-4 5 0 48.19 8.96
4 5 0 46.64 9.94
-4 5 0 64.77 10.37
4 5 1 235.76 19.89
4 5 1 237.91 20.21
-4 5 -1 224.25 18.57
-4 5 -1 264.54 21.02
4 5 1 217.92 20.88
-4 5 -1 243.83 19.49
4 5 2 205.37 18.72
-4 5 -2 192.29 17.22
-4 5 -2 207.35 18.6
4 5 2 198.8 19.25
-4 5 -2 198.15 16.69
4 5 3 88.98 12.47
-4 5 -3 81.63 11.28
-4 5 -3 85.08 11.19
-4 5 -3 103.16 12.89
4 5 3 83.7 11.72
4 5 3 84.97 12.11
4 5 4 41.62 8.25
-4 5 -4 36.56 7.34
-4 5 -4 31.65 6.87
-4 5 -4 46.83 8.34
4 5 4 41.05 8.22
4 5 4 48.11 8.81
4 5 5 215.85 17.28
-4 5 -5 204.1 16.23
-4 5 -5 242.52 17.4
-4 5 -5 210.74 17.06
4 5 5 216.39 17.5
4 5 5 215.19 15.96
4 5 6 182.11 14.39
-4 5 -6 186.03 14.39
-4 5 -6 188.08 14.3
-4 5 -6 164.47 13.82
4 5 6 200.26 15.35
4 5 7 93.16 9.02
-4 5 -7 80.8 8.25
-4 5 -7 89.81 8.81
-4 5 -7 92.69 8.9
4 5 7 87.16 8.77
4 5 8 347.17 14.6
4 6 -9 146.33 10.34
4 6 -8 3.22 2.08
4 6 -7 37.12 6.58
-4 6 7 37.32 5.86
4 6 -6 120.61 12.97
4 6 -5 123.46 14.23
4 6 -5 136.99 14.03
4 6 -4 511.44 30.84
4 6 -4 482.82 27.19
4 6 -3 165.85 17.51
4 6 -3 152.91 15.2
4 6 -2 482.58 30.36
4 6 -2 535.15 31.08
4 6 -2 488.88 28.15
4 6 -1 42.93 8.5
4 6 -1 44.87 9.62
4 6 -1 46.41 9.75
4 6 0 204.27 18.73
-4 6 0 243.47 18.18
-4 6 0 257.09 20.14
4 6 0 242.88 21.46
4 6 0 248.99 19.91
4 6 1 94.38 12.4
4 6 1 68.87 10.73
-4 6 -1 87.53 10.73
-4 6 -1 102.43 12.57
4 6 1 99.72 13.93
4 6 2 189.2 16.82
-4 6 -2 181.55 15.48
-4 6 -2 185.47 16.85
4 6 2 151.19 16.48
4 6 3 160.16 15.18
-4 6 -3 153.65 13.71
-4 6 -3 153.83 15.23
4 6 3 140.57 15.21
4 6 4 484.88 25.82
-4 6 -4 423.98 22.41
-4 6 -4 434.34 24.47
4 6 4 402.56 23.98
4 6 5 119.54 11.47
-4 6 -5 94.2 9.52
-4 6 -5 83.91 9.91
4 6 5 105.68 10.6
4 6 5 97.14 10.06
4 6 6 189.57 13.04
-4 6 -6 165.11 11.31
-4 6 -6 167.26 12.57
4 6 7 125.43 8.79
-4 6 -7 112.93 8.5
4 7 -7 292.86 15.6
-4 7 7 324.44 15.2
4 7 -6 306.04 18.84
4 7 -5 339.53 21.83
4 7 -4 22.66 5.69
4 7 -4 24.18 6.16
4 7 -3 614.58 32.34
4 7 -3 622.89 29.76
4 7 -2 53.76 8.62
4 7 -2 70.51 10.86
4 7 -2 55.37 9.51
4 7 -1 1116.15 44.66
4 7 -1 1230.8 46.79
4 7 -1 1139.38 43.24
4 7 0 211.56 17.28
4 7 0 201.52 18.13
4 7 0 227.12 17.62
-4 7 -1 604.36 29.15
4 7 1 546.95 30.47
4 7 1 565.51 28.6
4 7 2 90.27 10.76
-4 7 -2 90.04 10.73
4 7 2 88.81 11.53
4 7 3 179.49 14.59
-4 7 -3 186.88 13.78
-4 7 -3 214.2 16.1
4 7 3 172.75 15.28
4 7 4 77.26 9
-4 7 -4 97.35 10.21
4 7 4 83.7 9.61
4 7 5 255.65 14.59
-4 7 -5 246.44 14.91
4 7 5 233.44 14.02
4 7 6 256.83 12.37
-4 7 -6 226.49 12.44
4 8 -6 9.95 3.38
-4 8 6 14.07 2.94
4 8 -5 142.84 12.08
4 8 -4 95.41 10.73
4 8 -3 32.89 6.05
4 8 -3 22.75 5.76
4 8 -2 391.94 22.46
4 8 -2 417.39 21.67
4 8 -1 83.14 9.98
4 8 -1 106 11.26
4 8 -1 85.49 9.68
4 8 0 142.85 12.22
4 8 0 160.99 13.97
4 8 0 158.52 12.82
4 8 1 271.54 18.55
4 8 1 302.25 17.75
-4 8 -2 167.82 11.78
4 8 2 175.91 14.23
4 8 2 176.92 12.78
-4 8 -3 91.53 8.21
-4 8 -3 118.05 9.88
4 8 3 122.72 10.97
4 8 3 112.29 9.43
-4 8 -4 255.36 13.55
4 8 4 227.27 13.36
4 8 4 232.65 12.32
4 9 -4 11.39 3.22
-4 9 4 24.63 3.63
4 9 -3 204.34 12.74
4 9 -2 34.14 5.21
4 9 -1 380.51 17.11
4 9 -1 437.33 17.93
4 9 0 1.68 1.69
4 9 1 424.99 18.6
4 9 1 432.21 16.77
4 9 2 8.85 2.62
5 -7 -2 22.76 4.12
5 -7 -2 28.76 4.27
5 -7 -1 47.59 5.39
5 -7 0 131.44 9.02
5 -6 -5 28.66 4.77
5 -6 -4 90.58 8.83
5 -6 -3 148.2 11.92
5 -6 -3 152.16 11.68
5 -6 -2 143.66 11.81
5 -6 -2 129.12 11.09
5 -6 -1 191.7 13.46
5 -6 -1 207.58 13.96
5 -6 0 552.88 23.05
5 -6 0 583.29 24.24
5 -6 1 180.54 11.38
5 -6 1 187.15 12.71
5 -6 2 129.27 9.86
5 -6 3 176.84 10.46
5 -5 -6 8.99 3.32
5 -5 -5 318.82 18.43
5 -5 -4 111.04 11.38
5 -5 -3 238.32 16.82
5 -5 -3 230.12 16.16
5 -5 -2 226.4 16.64
5 -5 -2 256.42 17.35
5 -5 -1 249.65 17.14
5 -5 -1 252.4 17.21
5 -5 0 61.17 8.06
5 -5 0 67.1 8.85
5 -5 1 278.98 17.49
5 -5 2 431.27 21.12
5 -5 3 76.51 7.91
5 -5 4 394.39 16.74
5 -4 -7 33.52 5.5
5 -4 -7 43.66 5.92
5 -4 -6 65.25 8.63
5 -4 -6 63.58 8.04
5 -4 -5 18.49 5.79
5 -4 -5 10.94 3.88
5 -4 -4 250.37 18.09
5 -4 -4 256.05 17.61
5 -4 -3 138.62 13.79
5 -4 -3 157.31 14.04
5 -4 -2 251.53 18.39
5 -4 -2 272.67 18.67
5 -4 -1 258.1 18.28
5 -4 -1 313.56 20.26
5 -4 0 122.65 12.54
5 -4 1 39.43 6.93
-5 -3 8 26.06 4
5 -3 -8 29.95 5.15
5 -3 -7 113.81 10.85
5 -3 -6 6.13 3.03
5 -3 -6 11.58 4.58
5 -3 -5 1040.85 39.36
5 -3 -5 828.98 35.05
5 -3 -4 83.44 11.48
5 -3 -4 97.97 11.42
5 -3 -3 155.99 14.95
5 -3 -3 133.54 13.21
5 -3 -2 446.12 25.51
5 -3 -2 481.63 22.89
5 -3 -2 445.37 25.08
5 -3 -1 66.98 9.46
5 -3 0 451.43 25.01
5 -3 1 187.22 15.35
-5 -2 8 99.9 8.28
5 -2 -8 92.83 9.5
5 -2 -7 114.16 11.65
5 -2 -6 90.94 10.99
5 -2 -6 54.58 9.29
5 -2 -5 257.45 19.05
5 -2 -5 244.68 18.65
-5 -2 4 248.14 16.33
5 -2 -4 229.22 18.25
5 -2 -4 212.66 17.44
-5 -2 3 83.71 9.61
5 -2 -3 72.11 10.12
5 -2 -3 82.2 9.83
5 -2 -3 54.65 8.53
5 -2 -2 228.6 16.38
5 -2 -2 200.22 16.24
5 -2 -1 416.76 22.13
5 -2 -1 360.03 22.12
5 -2 0 53.88 8.38
5 -2 0 69.01 8.39
5 -2 1 61.53 7.76
-5 -1 9 114.94 7.66
5 -1 -9 117.96 8.96
-5 -1 8 71.44 7.3
5 -1 -8 59.22 7.98
5 -1 -7 307.36 20.3
5 -1 -6 123.32 13.81
-5 -1 5 1099.04 37.97
5 -1 -5 962.74 40.07
5 -1 -5 1079.22 42.76
-5 -1 4 359.68 21.05
5 -1 -4 297.88 20.88
5 -1 -4 364.86 21.32
-5 -1 4 367.8 20.84
5 -1 -4 312.97 21.58
-5 -1 3 829.49 34.26
5 -1 -3 857.6 34.64
5 -1 -2 321.98 20.38
5 -1 -1 100.2 11.23
5 -1 0 78.64 9.77
5 -1 1 108.56 11.4
5 -1 2 391.7 21.25
5 -1 3 79.9 8.84
-5 0 9 74.55 6.15
5 0 -9 65.81 6.83
-5 0 8 252.1 13.83
5 0 -8 234.99 15.73
-5 0 7 18.05 4.58
5 0 -7 23.85 6.35
5 0 -6 211.52 17.54
-5 0 5 6.84 3.7
5 0 -5 8.04 4.53
5 0 -5 4.08 3.99
-5 0 4 116.77 12.13
5 0 -4 146.79 13.44
-5 0 4 109.93 11.77
5 0 -4 109.04 12.86
-5 0 3 531.11 27.11
5 0 -3 545.22 27.26
-5 0 3 499.78 26.74
5 0 -2 359.18 21.89
5 0 -1 582.67 28.64
5 0 0 92.78 11.02
-5 0 -1 39.13 7.4
5 0 1 47.85 8.06
-5 0 -2 20.65 5.25
5 0 2 23.19 5.26
-5 0 -3 323.66 19.65
5 0 3 297.44 18.48
5 0 3 316.15 20.2
-5 0 -4 4.05 2.42
5 0 4 2.76 2.29
5 0 4 7.2 3.76
-5 0 -5 428.74 19.71
5 0 5 422.98 18.45
5 0 6 22.3 3.9
-5 1 8 58.46 6.28
5 1 -8 52.41 7.31
-5 1 7 374.06 18.32
5 1 -7 363.9 22.16
5 1 -6 129.59 13.7
-5 1 5 1119.11 40.34
5 1 -5 1173.97 39.77
-5 1 5 1052.97 37.48
5 1 -5 1032.18 42.34
-5 1 4 371.86 22.4
5 1 -4 393.4 22.24
-5 1 4 353.01 21.55
5 1 -4 357.56 23.62
-5 1 3 880.39 36.07
5 1 -3 864.8 34.97
-5 1 3 815.47 35.63
5 1 -3 776.51 34.86
5 1 -2 344.36 21.4
-5 1 2 315.72 21.9
5 1 -1 108.29 12.18
-5 1 0 82.24 10.81
5 1 0 69.05 9.76
-5 1 -1 138.71 13.72
5 1 1 110.48 12.13
-5 1 -2 399.55 23.51
5 1 2 401.45 23.12
-5 1 -3 94.08 10.87
5 1 3 97.92 10.77
5 1 3 89.79 10.61
-5 1 -4 320.74 19.39
5 1 4 316.02 18.3
5 1 4 346.83 19.44
-5 1 -4 314.08 17.89
-5 1 -5 4.66 2.21
5 1 5 12.32 3.46
5 1 5 13.54 3.6
-5 1 -6 204.21 12.01
5 1 6 213.06 11.16
5 1 6 231.98 12.8
-5 2 8 96.37 7.32
5 2 -8 116.32 10.21
-5 2 7 118.04 9.17
5 2 -7 119.93 12.24
5 2 -6 70.41 8.83
-5 2 6 92.85 8.72
5 2 -6 92.07 11.26
5 2 -5 216.41 17.28
-5 2 5 245.85 17.32
5 2 -5 280.93 17.23
-5 2 5 233.43 16.15
5 2 -5 256.45 19.48
-5 2 4 226.36 17.05
5 2 -4 292.21 18.43
-5 2 4 255.21 18.17
5 2 -4 267.83 19.91
-5 2 3 83.38 10.65
5 2 -3 89.96 10.33
-5 2 3 83.02 10.9
5 2 -3 82.88 10.79
-5 2 2 253.2 18.24
5 2 -2 233.2 17.33
-5 2 2 238.54 18.77
5 2 -1 435.48 24.35
-5 2 1 407.47 25.22
-5 2 0 86.44 11.22
5 2 0 63.25 9.48
-5 2 0 77.4 10.96
-5 2 -1 43.97 8.03
5 2 1 26.34 5.7
-5 2 -1 47.58 9.3
-5 2 -2 161.74 14.82
5 2 2 158.38 14.27
-5 2 -2 157.75 14.32
-5 2 -3 168.59 14.68
5 2 3 136.39 12.77
5 2 3 139.61 12.15
-5 2 -3 149.16 13.15
-5 2 -4 -1.84 2.45
5 2 4 1.02 2.03
-5 2 -5 566.77 24.24
5 2 5 552.09 22.28
-5 2 -6 15.84 3.53
5 2 6 9.17 2.68
5 2 6 10.75 2.53
5 3 -8 27.46 4.76
5 3 -7 143.66 12.31
5 3 -6 8.9 3.93
5 3 -6 15.65 5
5 3 -5 1100.26 41.25
5 3 -5 1130.8 41.68
5 3 -4 105.47 12.7
-5 3 4 104.7 10.99
5 3 -4 104.18 10.02
-5 3 4 92.13 11.12
5 3 -4 116.01 12.49
-5 3 3 116.3 11.63
5 3 -3 127.68 11.85
-5 3 3 123.75 12.93
5 3 -3 134.59 13.22
-5 3 2 459.93 24.34
5 3 -2 505.24 24.95
-5 3 2 512.98 27.64
-5 3 1 58.07 8.24
5 3 -1 67.07 9.17
-5 3 1 71.39 10.55
-5 3 0 483.99 26.45
5 3 0 457.57 24.6
-5 3 0 455.78 25.82
-5 3 -1 194.16 16.28
5 3 1 200.94 15.85
-5 3 -1 219.22 16.94
5 3 1 187.4 14.27
-5 3 -2 851.9 35.19
5 3 2 836.58 33.7
-5 3 -2 839.83 33.35
5 3 2 790.51 31.08
5 3 3 50.62 6.69
-5 3 -3 46.59 7.29
5 3 3 51.12 7.38
-5 3 -3 46.09 6.51
-5 3 -4 670.13 28.08
-5 3 -5 4.41 2.35
5 3 5 6.72 2.14
-5 3 -6 172.47 10.4
5 3 6 189.31 10.06
5 4 -7 43.63 6.28
5 4 -6 67.68 8.11
5 4 -6 78.4 9.07
5 4 -5 12.75 4.83
5 4 -5 9.09 3.99
5 4 -4 245.54 18.44
5 4 -4 243.38 14.38
5 4 -4 232.29 17.11
5 4 -3 156.03 15.13
-5 4 3 141.73 12.34
5 4 -3 172.51 12.61
-5 4 3 150.86 13.57
5 4 -3 177.12 14.65
5 4 -3 152.92 12.82
5 4 -2 268.83 20.06
-5 4 2 249.7 16.28
5 4 -2 248.34 15.8
-5 4 2 240.12 17.75
5 4 -2 216.63 15.79
5 4 -1 374.44 23.4
-5 4 1 325.48 18.52
5 4 -1 325.29 18.74
-5 4 1 334.27 21.08
5 4 -1 302.7 18.85
5 4 0 149.85 14.2
-5 4 0 134.52 11.29
5 4 0 126.29 11.82
-5 4 0 160.56 14.36
5 4 0 133.39 12.38
5 4 1 61.71 8.31
5 4 1 69.7 9.05
-5 4 -1 47.69 6.55
-5 4 -1 59.34 8.85
5 4 1 47.76 7.29
-5 4 -1 61.95 8.5
-5 4 -2 190.9 14.81
5 4 2 145.21 12.46
-5 4 -2 154.54 12.34
5 4 2 162.33 12.81
-5 4 -3 141.3 12.18
5 4 3 130.78 11.05
5 4 3 129.82 10.92
5 4 4 64.97 6.99
5 4 4 58.48 6.76
-5 4 -5 192.44 11.73
5 4 5 192.94 11.09
5 5 -6 7.87 2.68
5 5 -5 344.51 19.13
5 5 -4 97.14 10.94
5 5 -3 225.76 17.07
5 5 -3 229.21 15.22
-5 5 2 241.01 13.96
5 5 -2 278.21 17.21
5 5 -1 284.73 19.12
5 5 -1 285.46 15.37
5 5 -1 277.1 17.28
5 5 0 71.23 9.22
5 5 0 56.23 6.83
5 5 0 67.9 8.5
5 5 1 280.51 16.83
5 5 1 259.95 15.08
5 5 1 297.57 17.39
-5 5 -2 452.95 21.19
5 5 2 431.27 20.51
-5 5 -3 80.3 7.94
5 5 3 67.8 6.84
5 5 3 72.22 7.5
-5 5 -4 474.54 18.8
5 5 4 431.36 16.93
5 5 4 474.93 18.11
5 6 -5 19.78 3.93
5 6 -4 83.27 8.91
5 6 -3 164.59 13.11
5 6 -3 179.05 12.32
5 6 -2 131.3 11.7
5 6 -2 155.27 11.6
5 6 -1 217.29 14.8
5 6 -1 246.64 14.99
5 6 0 570.05 23.71
5 6 0 662.91 25.33
5 6 1 200.14 12.86
5 6 2 121.94 9.35
5 6 3 209.07 11.18
5 7 -2 23.11 3.86
5 7 -1 66.46 6.49
5 7 0 116.36 8.36
-6 -1 1 75.6 6.44
-6 -1 1 68.34 6.6
-6 -1 0 202.98 10.83
-6 -1 0 212.67 11.8
6 0 -3 375.08 16.63
-6 0 3 359.48 14.9
-6 0 2 3.6 1.42
-6 0 2 5.35 2.34
-6 0 1 743.42 24.02
6 0 -1 719.33 22.98
-6 0 1 744.29 24.8
-6 0 0 29.64 4.31
6 0 0 27.41 3.76
-6 0 0 26.58 4.31
-6 0 -1 197.61 10.6
-6 1 3 2.13 1.66
6 1 -2 307.07 15.67
-6 1 2 298.49 13.84
6 1 -2 301.92 13.71
-6 1 2 279.27 13.7
-6 1 1 75.19 6.7
6 1 -1 71.34 6.46
-6 1 1 67.32 6.76
-6 1 0 237.47 11.93
6 1 0 200.05 10.7
-6 1 0 226.42 12.21
6 2 -2 74.69 7.18
6 2 -1 190.55 10.2
-6 2 1 196.37 10.98
