#------------------------------------------------------------------------------
#$Date: 2022-02-04 21:21:59 +0200 (Fri, 04 Feb 2022) $
#$Revision: 272620 $
#$URL: file:///home/coder/svn-repositories/cod/cif/7/24/41/7244152.cif $
#------------------------------------------------------------------------------
#
# This file is available in the Crystallography Open Database (COD),
# http://www.crystallography.net/
#
# All data on this site have been placed in the public domain by the
# contributors.
#
data_7244152
loop_
_publ_author_name
'Rixson, Daniel'
'G\"unay Sezer, G\"une\,s'
'Alp, Emre'
'Mahon, Mary F.'
'Burrows, Andrew D.'
_publ_section_title
;
 Synthesis, structures and properties of metal--organic frameworks
 prepared using a semi-rigid tricarboxylate linker
;
_journal_issue                   4
_journal_name_full               CrystEngComm
_journal_page_first              863
_journal_page_last               876
_journal_paper_doi               10.1039/D1CE01284C
_journal_volume                  24
_journal_year                    2022
_chemical_formula_moiety         'C20 H20 Cd3 N2 O16, 4(H2 O)'
_chemical_formula_sum            'C20 H28 Cd3 N2 O20'
_chemical_formula_weight         953.64
_space_group_crystal_system      triclinic
_space_group_IT_number           2
_space_group_name_Hall           '-P 1'
_space_group_name_H-M_alt        'P -1'
_atom_sites_solution_hydrogens   mixed
_atom_sites_solution_primary     iterative
_audit_creation_date             2018-08-17
_audit_creation_method
;
Olex2 1.2
(compiled 2018.05.29 svn.r3508 for OlexSys, GUI svn.r5506)
;
_audit_update_record
;
2021-07-19 deposited with the CCDC.	2021-12-20 downloaded from the CCDC.
;
_cell_angle_alpha                67.353(4)
_cell_angle_beta                 75.848(3)
_cell_angle_gamma                70.505(3)
_cell_formula_units_Z            1
_cell_length_a                   7.7777(2)
_cell_length_b                   8.9715(4)
_cell_length_c                   11.4851(4)
_cell_measurement_reflns_used    8998
_cell_measurement_temperature    150.00(10)
_cell_measurement_theta_max      73.3890
_cell_measurement_theta_min      4.1840
_cell_volume                     690.98(5)
_computing_cell_refinement       'CrysAlisPro 1.171.39.46 (Rigaku OD, 2018)'
_computing_data_collection       'CrysAlisPro 1.171.39.46 (Rigaku OD, 2018)'
_computing_data_reduction        'CrysAlisPro 1.171.39.46 (Rigaku OD, 2018)'
_computing_molecular_graphics    'Olex2 (Dolomanov et al., 2009)'
_computing_publication_material  'Olex2 (Dolomanov et al., 2009)'
_computing_structure_refinement  'ShelXL (Sheldrick, 2015)'
_computing_structure_solution    'olex2.solve (Bourhis et al., 2015)'
_diffrn_ambient_environment      N~2~
_diffrn_ambient_temperature      150.00(10)
_diffrn_detector                 'CCD plate'
_diffrn_detector_area_resol_mean 8.1150
_diffrn_detector_type            EosS2
_diffrn_measured_fraction_theta_full 0.999
_diffrn_measured_fraction_theta_max 0.992
_diffrn_measurement_device       'four-circle diffractometer'
_diffrn_measurement_device_type  'SuperNova, Dual, Cu at home/near, EosS2'
_diffrn_measurement_method       '\w scans'
_diffrn_radiation_monochromator  mirror
_diffrn_radiation_probe          x-ray
_diffrn_radiation_type           CuK\a
_diffrn_radiation_wavelength     1.54184
_diffrn_reflns_av_R_equivalents  0.0386
_diffrn_reflns_av_unetI/netI     0.0250
_diffrn_reflns_Laue_measured_fraction_full 0.999
_diffrn_reflns_Laue_measured_fraction_max 0.992
_diffrn_reflns_limit_h_max       9
_diffrn_reflns_limit_h_min       -9
_diffrn_reflns_limit_k_max       11
_diffrn_reflns_limit_k_min       -11
_diffrn_reflns_limit_l_max       14
_diffrn_reflns_limit_l_min       -12
_diffrn_reflns_number            13561
_diffrn_reflns_point_group_measured_fraction_full 0.999
_diffrn_reflns_point_group_measured_fraction_max 0.992
_diffrn_reflns_theta_full        67.684
_diffrn_reflns_theta_max         73.349
_diffrn_reflns_theta_min         4.209
_diffrn_source                   'micro-focus sealed X-ray tube'
_diffrn_source_type              'SuperNova (Cu) X-ray Source'
_exptl_absorpt_coefficient_mu    19.211
_exptl_absorpt_correction_T_max  1.00000
_exptl_absorpt_correction_T_min  0.30382
_exptl_absorpt_correction_type   multi-scan
_exptl_absorpt_process_details
;
CrysAlisPro 1.171.39.46 (Rigaku Oxford Diffraction, 2018)
Empirical absorption correction using spherical harmonics,
 implemented in SCALE3 ABSPACK scaling algorithm.
;
_exptl_crystal_colour            colourless
_exptl_crystal_colour_primary    colourless
_exptl_crystal_density_diffrn    2.292
_exptl_crystal_description       block
_exptl_crystal_F_000             466
_exptl_crystal_size_max          0.038
_exptl_crystal_size_mid          0.028
_exptl_crystal_size_min          0.025
_refine_diff_density_max         0.506
_refine_diff_density_min         -0.619
_refine_diff_density_rms         0.102
_refine_ls_extinction_method     none
_refine_ls_goodness_of_fit_ref   1.026
_refine_ls_hydrogen_treatment    mixed
_refine_ls_matrix_type           full
_refine_ls_number_parameters     241
_refine_ls_number_reflns         2755
_refine_ls_number_restraints     12
_refine_ls_restrained_S_all      1.024
_refine_ls_R_factor_all          0.0216
_refine_ls_R_factor_gt           0.0199
_refine_ls_shift/su_max          0.001
_refine_ls_shift/su_mean         0.000
_refine_ls_structure_factor_coef Fsqd
_refine_ls_weighting_details
'w=1/[\s^2^(Fo^2^)+(0.0263P)^2^+0.6327P] where P=(Fo^2^+2Fc^2^)/3'
_refine_ls_weighting_scheme      calc
_refine_ls_wR_factor_gt          0.0489
_refine_ls_wR_factor_ref         0.0496
_reflns_Friedel_coverage         0.000
_reflns_number_gt                2639
_reflns_number_total             2755
_reflns_threshold_expression     'I > 2\s(I)'
_iucr_refine_instructions_details
;
TITL s18adb28
CELL 1.54184 7.777698 8.971486 11.485065 67.3534 75.8484 70.5052
ZERR 1 0.000233 0.000389 0.000446 0.0039 0.0029 0.0033
LATT 1
SFAC C H Cd N O
UNIT 20 28 3 2 20
EQIV $1 1-X,-Y,1-Z
EQIV $2 +X,-1+Y,+Z
EQIV $3 -X,-Y,2-Z
DFIX 0.98 0.005 O8 H8b O8 H8a O7_$1 H7a_$1 O7_$1 H7b_$1
DFIX 0.98 0.005 N1 H1
DFIX 0.98 0.005 O9 H9b O9 H9a
DFIX 0.98 O10 H10a O10 H10b
DFIX 1.5 0.1 H10b H10a
DFIX 0.98 O10 H10a
DFIX 1.52 0.01 H10a H10b
 
L.S. 10
PLAN  2
HTAB N1 O1
HTAB O8 O9_$2
HTAB O7 O2_$3
HTAB O7 O10_$1
HTAB O8 O7
HTAB O9 O5
HTAB O9 O10
HTAB O10 O4
CONN 7 $Cd
BOND
more -3
fmap 2
acta
OMIT 4 -4 8
OMIT -2 0 12
OMIT 2 2 1
OMIT -1 5 1
OMIT 6 10 2
REM <olex2.extras>
REM <HklSrc "%.\\s18adb28.hkl">
REM </olex2.extras>
 
WGHT    0.026300    0.632700
FVAR       5.33809
CD2   3    0.500000   -0.500000    1.000000    10.50000    0.01384    0.00785 =
         0.01089   -0.00185   -0.00038   -0.00108
CD1   3    0.741067   -0.195380    0.685055    11.00000    0.01313    0.00877 =
         0.00971   -0.00127   -0.00259   -0.00057
O3    5   -0.234353    0.560297    0.874811    11.00000    0.01371    0.01002 =
         0.01420   -0.00190   -0.00141    0.00072
O1    5   -0.054033   -0.135038    1.472370    11.00000    0.02285    0.01446 =
         0.01812    0.00003   -0.00446   -0.00395
O2    5   -0.312670    0.049183    1.509483    11.00000    0.01728    0.02147 =
         0.01219   -0.00032   -0.00112   -0.00443
O5    5    0.481888   -0.032626    0.769855    11.00000    0.01779    0.01512 =
         0.01430   -0.00595   -0.00051   -0.00039
O7    5    0.576106   -0.297787    0.607796    11.00000    0.02005    0.01623 =
         0.01610   -0.00608   -0.00382   -0.00376
O4    5   -0.024315    0.542728    0.711047    11.00000    0.02035    0.01593 =
         0.01150    0.00064    0.00274    0.00169
O8    5    0.414194   -0.498270    0.823582    11.00000    0.02523    0.01510 =
         0.01482   -0.00429   -0.00335   -0.00470
O6    5    0.407609   -0.226076    0.951892    11.00000    0.02871    0.00764 =
         0.02682   -0.00480    0.00367    0.00034
C1    1   -0.164944    0.005426    1.439764    11.00000    0.01781    0.01813 =
         0.00995   -0.00256   -0.00285   -0.00734
C9    1    0.392963   -0.078060    0.879303    11.00000    0.01342    0.01011 =
         0.01536   -0.00441   -0.00429   -0.00127
C10   1    0.218620    0.014193    1.062181    11.00000    0.01484    0.00880 =
         0.01368   -0.00166   -0.00447   -0.00122
AFIX  43
H10   2    0.282180   -0.088328    1.114181    11.00000   -1.20000
AFIX   0
C7    1    0.156996    0.205464    0.851399    11.00000    0.01409    0.01277 =
         0.01048   -0.00263   -0.00103   -0.00307
AFIX  43
H7    2    0.181731    0.232978    0.763350    11.00000   -1.20000
AFIX   0
C2    1   -0.128132    0.135255    1.311399    11.00000    0.01308    0.01328 =
         0.01075   -0.00143   -0.00220   -0.00069
AFIX  23
H2A   2   -0.211023    0.147669    1.255425    11.00000   -1.20000
H2B   2   -0.152150    0.242674    1.322326    11.00000   -1.20000
AFIX   0
C8    1    0.253791    0.053218    0.930497    11.00000    0.01245    0.01044 =
         0.01471   -0.00501   -0.00093   -0.00226
C4    1   -0.010636    0.278183    1.038820    11.00000    0.01204    0.01103 =
         0.01236   -0.00452   -0.00119   -0.00224
AFIX  43
H4    2   -0.098865    0.353531    1.074752    11.00000   -1.20000
AFIX   0
C3    1    0.089306    0.127285    1.116400    11.00000    0.01295    0.01213 =
         0.01019   -0.00208   -0.00145   -0.00501
C5    1    0.021988    0.315891    0.907210    11.00000    0.01239    0.01079 =
         0.01263   -0.00209   -0.00068   -0.00284
C6    1   -0.084981    0.480064    0.825651    11.00000    0.01434    0.01154 =
         0.01262   -0.00383   -0.00216   -0.00297
N1    4    0.064468    0.086160    1.252292    11.00000    0.01374    0.01240 =
         0.01174   -0.00348   -0.00244    0.00042
 
O9    5    0.549272    0.281535    0.684819    11.00000    0.04068    0.02049 =
         0.02552   -0.01038    0.00077   -0.01140
O10   5    0.267738    0.510964    0.526074    11.00000    0.03836    0.03183 =
         0.03379   -0.01710    0.01136   -0.00979
H8A   2    0.463238   -0.418318    0.747886    11.00000    0.05617
H8B   2    0.460400   -0.608466    0.812735    11.00000    0.07016
H7A   2    0.478411   -0.211279    0.560589    11.00000    0.04674
H7B   2    0.657346   -0.377654    0.566077    11.00000    0.05218
H1    2    0.102710   -0.036195    1.287999    11.00000    0.02779
H9A   2    0.524104    0.174267    0.704206    11.00000    0.03717
H9B   2    0.442715    0.340663    0.638414    11.00000    0.10476
H10A  2    0.176847    0.557985    0.468803    11.00000    0.01743
H10B  2    0.189965    0.515708    0.607512    11.00000    0.08638
HKLF 4
 
REM  s18adb28
REM R1 =  0.0199 for    2639 Fo > 4sig(Fo)  and  0.0216 for all    2755 data
REM    241 parameters refined using     12 restraints
 
END  
     
WGHT      0.0263      0.6327 

REM Highest difference peak  0.506,  deepest hole -0.619,  1-sigma level  0.102
Q1    1   0.6690 -0.2158  0.7379  11.00000  0.05    0.51
Q2    1  -0.2928  0.6636  0.8267  11.00000  0.05    0.40

  REM The information below was added by Olex2.
  REM
  REM R1 = 0.0199 for 2639 Fo > 4sig(Fo) and 0.0216 for all 13573 data
  REM n/a parameters refined using n/a restraints
  REM Highest difference peak 0.51, deepest hole -0.62
  REM Mean Shift 0, Max Shift 0.001.

  REM +++ Tabular Listing of Refinement Information +++
  REM R1_all = 0.0216
  REM R1_gt = 0.0199
  REM wR_ref = 0.0496
  REM GOOF = 1.026
  REM Shift_max = 0.001
  REM Shift_mean = 0
  REM Reflections_all = 13573
  REM Reflections_gt = 2639
  REM Parameters = n/a
  REM Hole = -0.62
  REM Peak = 0.51
  REM Flack = n/a

  
;
_cod_data_source_file            d1ce01284c2.cif
_cod_data_source_block           s18adb28
_cod_depositor_comments
'Adding full bibliography for 7244143--7244152.cif.'
_cod_database_code               7244152
_shelxl_version_number           2014-3
_chemical_oxdiff_usercomment     'Colourless Block'
_shelx_space_group_comment
;
The symmetry employed for this shelxl refinement is uniquely defined
by the following loop, which should always be used as a source of
symmetry information in preference to the above space-group names.
They are only intended as comments.
;
_olex2_refinement_description
;
1. Fixed Uiso
 At 1.2 times of:
  All C(H) groups, All C(H,H) groups
2. Restrained distances
 O8-H8B = O8-H8A = O7_$1-H7A_$1 = O7_$1-H7B_$1
 0.98 with sigma of 0.005
 N1-H1
 0.98 with sigma of 0.005
 O9-H9B = O9-H9A
 0.98 with sigma of 0.005
 O10-H10A = O10-H10B
 0.98 with sigma of 0.02
 H10B-H10A
 1.5 with sigma of 0.1
 O10-H10A
 0.98 with sigma of 0.02
 H10A-H10B
 1.52 with sigma of 0.01
3.a Secondary CH2 refined with riding coordinates:
 C2(H2A,H2B)
3.b Aromatic/amide H refined with riding coordinates:
 C10(H10), C7(H7), C4(H4)
;
_olex2_submission_special_instructions 'No special instructions were received'
loop_
_space_group_symop_operation_xyz
'x, y, z'
'-x, -y, -z'
loop_
_atom_site_label
_atom_site_type_symbol
_atom_site_fract_x
_atom_site_fract_y
_atom_site_fract_z
_atom_site_U_iso_or_equiv
_atom_site_adp_type
_atom_site_occupancy
_atom_site_site_symmetry_order
_atom_site_calc_flag
_atom_site_refinement_flags_posn
_atom_site_refinement_flags_adp
_atom_site_refinement_flags_occupancy
_atom_site_disorder_assembly
_atom_site_disorder_group
Cd2 Cd 0.5000 -0.5000 1.0000 0.01199(7) Uani 1 2 d S T P . .
Cd1 Cd 0.74107(2) -0.19538(2) 0.68505(2) 0.01153(6) Uani 1 1 d . . . . .
O3 O -0.2344(2) 0.5603(2) 0.87481(17) 0.0144(4) Uani 1 1 d . . . . .
O1 O -0.0540(3) -0.1350(2) 1.47237(18) 0.0201(4) Uani 1 1 d . . . . .
O2 O -0.3127(3) 0.0492(2) 1.50948(17) 0.0190(4) Uani 1 1 d . . . . .
O5 O 0.4819(3) -0.0326(2) 0.76985(17) 0.0168(4) Uani 1 1 d . . . . .
O7 O 0.5761(3) -0.2978(2) 0.60780(18) 0.0173(4) Uani 1 1 d D . . . .
O4 O -0.0243(3) 0.5427(2) 0.71105(17) 0.0202(4) Uani 1 1 d . . . . .
O8 O 0.4142(3) -0.4983(2) 0.82358(18) 0.0187(4) Uani 1 1 d D . . . .
O6 O 0.4076(3) -0.2261(2) 0.9519(2) 0.0241(4) Uani 1 1 d . . . . .
C1 C -0.1649(4) 0.0054(3) 1.4398(2) 0.0151(5) Uani 1 1 d . . . . .
C9 C 0.3930(3) -0.0781(3) 0.8793(2) 0.0130(5) Uani 1 1 d . . . . .
C10 C 0.2186(3) 0.0142(3) 1.0622(2) 0.0131(5) Uani 1 1 d . . . . .
H10 H 0.2822 -0.0883 1.1142 0.016 Uiso 1 1 calc R . . . .
C7 C 0.1570(3) 0.2055(3) 0.8514(2) 0.0131(5) Uani 1 1 d . . . . .
H7 H 0.1817 0.2330 0.7633 0.016 Uiso 1 1 calc R . . . .
C2 C -0.1281(3) 0.1353(3) 1.3114(2) 0.0138(5) Uani 1 1 d . . . . .
H2A H -0.2110 0.1477 1.2554 0.017 Uiso 1 1 calc R . . . .
H2B H -0.1521 0.2427 1.3223 0.017 Uiso 1 1 calc R . . . .
C8 C 0.2538(3) 0.0532(3) 0.9305(2) 0.0127(5) Uani 1 1 d . . . . .
C4 C -0.0106(3) 0.2782(3) 1.0388(2) 0.0119(5) Uani 1 1 d . . . . .
H4 H -0.0989 0.3535 1.0748 0.014 Uiso 1 1 calc R . . . .
C3 C 0.0893(3) 0.1273(3) 1.1164(2) 0.0118(5) Uani 1 1 d . . . . .
C5 C 0.0220(3) 0.3159(3) 0.9072(2) 0.0128(5) Uani 1 1 d . . . . .
C6 C -0.0850(3) 0.4801(3) 0.8257(2) 0.0130(5) Uani 1 1 d . . . . .
N1 N 0.0645(3) 0.0862(3) 1.2523(2) 0.0137(4) Uani 1 1 d D . . . .
O9 O 0.5493(3) 0.2815(3) 0.6848(2) 0.0282(5) Uani 1 1 d D . . . .
O10 O 0.2677(3) 0.5110(3) 0.5261(2) 0.0357(5) Uani 1 1 d D . . . .
H8A H 0.463(6) -0.418(4) 0.748(3) 0.056(13) Uiso 1 1 d D . . . .
H8B H 0.460(7) -0.608(3) 0.813(5) 0.070(16) Uiso 1 1 d D . . . .
H7A H 0.478(4) -0.211(4) 0.561(4) 0.047(12) Uiso 1 1 d D . . . .
H7B H 0.657(5) -0.378(4) 0.566(4) 0.052(13) Uiso 1 1 d D . . . .
H1 H 0.103(5) -0.0362(8) 1.288(3) 0.028(9) Uiso 1 1 d D . . . .
H9A H 0.524(6) 0.174(3) 0.704(4) 0.037(11) Uiso 1 1 d D . . . .
H9B H 0.443(6) 0.341(7) 0.638(5) 0.10(2) Uiso 1 1 d D . . . .
H10A H 0.177(3) 0.558(4) 0.469(2) 0.017(8) Uiso 1 1 d D . . . .
H10B H 0.190(5) 0.516(7) 0.608(2) 0.086(19) Uiso 1 1 d D . . . .
loop_
_atom_site_aniso_label
_atom_site_aniso_U_11
_atom_site_aniso_U_22
_atom_site_aniso_U_33
_atom_site_aniso_U_23
_atom_site_aniso_U_13
_atom_site_aniso_U_12
Cd2 0.01384(12) 0.00785(11) 0.01089(12) -0.00185(9) -0.00038(9) -0.00108(9)
Cd1 0.01313(10) 0.00877(9) 0.00971(10) -0.00127(6) -0.00259(6) -0.00057(6)
O3 0.0137(8) 0.0100(8) 0.0142(9) -0.0019(7) -0.0014(7) 0.0007(7)
O1 0.0229(10) 0.0145(9) 0.0181(9) 0.0000(7) -0.0045(8) -0.0039(8)
O2 0.0173(9) 0.0215(9) 0.0122(9) -0.0003(7) -0.0011(7) -0.0044(7)
O5 0.0178(9) 0.0151(9) 0.0143(9) -0.0060(7) -0.0005(7) -0.0004(7)
O7 0.0201(9) 0.0162(9) 0.0161(9) -0.0061(7) -0.0038(7) -0.0038(7)
O4 0.0204(9) 0.0159(9) 0.0115(9) 0.0006(7) 0.0027(7) 0.0017(7)
O8 0.0252(10) 0.0151(9) 0.0148(9) -0.0043(7) -0.0033(8) -0.0047(8)
O6 0.0287(11) 0.0076(8) 0.0268(11) -0.0048(8) 0.0037(8) 0.0003(8)
C1 0.0178(12) 0.0181(12) 0.0099(11) -0.0026(9) -0.0028(10) -0.0073(10)
C9 0.0134(11) 0.0101(11) 0.0154(12) -0.0044(9) -0.0043(9) -0.0013(9)
C10 0.0148(12) 0.0088(11) 0.0137(12) -0.0017(9) -0.0045(9) -0.0012(9)
C7 0.0141(11) 0.0128(11) 0.0105(11) -0.0026(9) -0.0010(9) -0.0031(9)
C2 0.0131(12) 0.0133(11) 0.0107(11) -0.0014(9) -0.0022(9) -0.0007(9)
C8 0.0125(11) 0.0104(11) 0.0147(12) -0.0050(9) -0.0009(9) -0.0023(9)
C4 0.0120(11) 0.0110(11) 0.0124(11) -0.0045(9) -0.0012(9) -0.0022(9)
C3 0.0129(11) 0.0121(11) 0.0102(11) -0.0021(9) -0.0015(9) -0.0050(9)
C5 0.0124(11) 0.0108(11) 0.0126(11) -0.0021(9) -0.0007(9) -0.0028(9)
C6 0.0143(12) 0.0115(11) 0.0126(12) -0.0038(9) -0.0022(9) -0.0030(9)
N1 0.0137(10) 0.0124(10) 0.0117(10) -0.0035(8) -0.0024(8) 0.0004(8)
O9 0.0407(13) 0.0205(10) 0.0255(11) -0.0104(8) 0.0008(9) -0.0114(9)
O10 0.0384(13) 0.0318(12) 0.0338(13) -0.0171(10) 0.0114(11) -0.0098(10)
loop_
_atom_type_symbol
_atom_type_description
_atom_type_scat_dispersion_real
_atom_type_scat_dispersion_imag
_atom_type_scat_source
C C 0.0181 0.0091 'International Tables Vol C Tables 4.2.6.8 and 6.1.1.4'
H H 0.0000 0.0000 'International Tables Vol C Tables 4.2.6.8 and 6.1.1.4'
Cd Cd 0.1185 4.6533 'International Tables Vol C Tables 4.2.6.8 and 6.1.1.4'
N N 0.0311 0.0180 'International Tables Vol C Tables 4.2.6.8 and 6.1.1.4'
O O 0.0492 0.0322 'International Tables Vol C Tables 4.2.6.8 and 6.1.1.4'
loop_
_geom_angle_atom_site_label_1
_geom_angle_atom_site_label_2
_geom_angle_atom_site_label_3
_geom_angle
_geom_angle_site_symmetry_1
_geom_angle_site_symmetry_3
_geom_angle_publ_flag
O3 Cd2 O3 180.00(5) 1_645 2_557 ?
O8 Cd2 O3 87.67(7) . 1_645 ?
O8 Cd2 O3 92.33(7) . 2_557 ?
O8 Cd2 O3 87.67(7) 2_647 2_557 ?
O8 Cd2 O3 92.33(7) 2_647 1_645 ?
O8 Cd2 O8 180.0 . 2_647 ?
O6 Cd2 O3 82.04(7) . 1_645 ?
O6 Cd2 O3 82.05(7) 2_647 2_557 ?
O6 Cd2 O3 97.96(7) . 2_557 ?
O6 Cd2 O3 97.95(7) 2_647 1_645 ?
O6 Cd2 O8 85.55(7) 2_647 . ?
O6 Cd2 O8 94.45(7) . . ?
O6 Cd2 O8 94.45(7) 2_647 2_647 ?
O6 Cd2 O8 85.55(7) . 2_647 ?
O6 Cd2 O6 180.0 2_647 . ?
O3 Cd1 O1 131.74(6) 1_645 1_654 ?
O2 Cd1 O3 174.43(6) 1_654 1_645 ?
O2 Cd1 O1 53.60(6) 1_654 1_654 ?
O2 Cd1 O4 131.28(6) 1_654 1_645 ?
O2 Cd1 N1 89.33(7) 1_654 2_657 ?
O5 Cd1 O3 95.37(6) . 1_645 ?
O5 Cd1 O1 132.75(6) . 1_654 ?
O5 Cd1 O2 79.44(7) . 1_654 ?
O5 Cd1 O4 149.28(6) . 1_645 ?
O5 Cd1 N1 90.64(7) . 2_657 ?
O7 Cd1 O3 90.34(6) . 1_645 ?
O7 Cd1 O1 89.95(6) . 1_654 ?
O7 Cd1 O2 88.02(7) . 1_654 ?
O7 Cd1 O5 93.67(7) . . ?
O7 Cd1 O4 87.85(7) . 1_645 ?
O7 Cd1 N1 174.45(7) . 2_657 ?
O4 Cd1 O3 53.92(6) 1_645 1_645 ?
O4 Cd1 O1 77.87(6) 1_645 1_654 ?
O4 Cd1 N1 90.23(7) 1_645 2_657 ?
N1 Cd1 O3 92.75(7) 2_657 1_645 ?
N1 Cd1 O1 84.55(7) 2_657 1_654 ?
Cd2 O3 Cd1 118.97(7) 1_465 1_465 ?
C6 O3 Cd2 136.30(16) . 1_465 ?
C6 O3 Cd1 92.59(14) . 1_465 ?
C1 O1 Cd1 87.14(15) . 1_456 ?
C1 O2 Cd1 96.07(15) . 1_456 ?
C9 O5 Cd1 126.48(16) . . ?
C6 O4 Cd1 93.37(15) . 1_465 ?
C9 O6 Cd2 154.66(18) . . ?
O1 C1 O2 123.0(2) . . ?
O1 C1 C2 120.6(2) . . ?
O2 C1 C2 116.4(2) . . ?
O5 C9 C8 119.2(2) . . ?
O6 C9 O5 125.7(2) . . ?
O6 C9 C8 115.1(2) . . ?
C3 C10 C8 120.5(2) . . ?
C8 C7 C5 118.7(2) . . ?
N1 C2 C1 111.3(2) . . ?
C10 C8 C9 117.2(2) . . ?
C10 C8 C7 120.4(2) . . ?
C7 C8 C9 122.4(2) . . ?
C3 C4 C5 119.8(2) . . ?
C10 C3 C4 119.8(2) . . ?
C10 C3 N1 118.7(2) . . ?
C4 C3 N1 121.5(2) . . ?
C7 C5 C6 120.3(2) . . ?
C4 C5 C7 120.9(2) . . ?
C4 C5 C6 118.8(2) . . ?
O3 C6 C5 119.5(2) . . ?
O4 C6 O3 119.8(2) . . ?
O4 C6 C5 120.6(2) . . ?
C2 N1 Cd1 110.43(15) . 2_657 ?
C3 N1 Cd1 111.11(15) . 2_657 ?
C3 N1 C2 115.2(2) . . ?
loop_
_geom_bond_atom_site_label_1
_geom_bond_atom_site_label_2
_geom_bond_distance
_geom_bond_site_symmetry_2
_geom_bond_publ_flag
Cd2 O3 2.3072(17) 2_557 ?
Cd2 O3 2.3072(17) 1_645 ?
Cd2 O8 2.2762(19) . ?
Cd2 O8 2.2762(19) 2_647 ?
Cd2 O6 2.1979(18) . ?
Cd2 O6 2.1979(18) 2_647 ?
Cd1 O3 2.4158(17) 1_645 ?
Cd1 O1 2.5404(19) 1_654 ?
Cd1 O2 2.3340(18) 1_654 ?
Cd1 O5 2.3054(18) . ?
Cd1 O7 2.2910(18) . ?
Cd1 O4 2.4091(18) 1_645 ?
Cd1 N1 2.415(2) 2_657 ?
O3 Cd2 2.3072(17) 1_465 ?
O3 Cd1 2.4158(17) 1_465 ?
O3 C6 1.273(3) . ?
O1 Cd1 2.5404(19) 1_456 ?
O1 C1 1.242(3) . ?
O2 Cd1 2.3341(18) 1_456 ?
O2 C1 1.267(3) . ?
O5 C9 1.262(3) . ?
O4 Cd1 2.4091(18) 1_465 ?
O4 C6 1.255(3) . ?
O6 C9 1.251(3) . ?
C1 C2 1.519(3) . ?
C9 C8 1.509(3) . ?
C10 C8 1.392(4) . ?
C10 C3 1.389(3) . ?
C7 C8 1.396(3) . ?
C7 C5 1.400(3) . ?
C2 N1 1.480(3) . ?
C4 C3 1.392(3) . ?
C4 C5 1.393(3) . ?
C3 N1 1.437(3) . ?
C5 C6 1.497(3) . ?
N1 Cd1 2.414(2) 2_657 ?
loop_
_geom_hbond_atom_site_label_D
_geom_hbond_atom_site_label_H
_geom_hbond_atom_site_label_A
_geom_hbond_distance_DH
_geom_hbond_distance_HA
_geom_hbond_distance_DA
_geom_hbond_angle_DHA
_geom_hbond_site_symmetry_A
O8 H8A O7 0.978(5) 1.770(9) 2.742(3) 172(4) .
O8 H8B O9 0.979(5) 1.94(3) 2.787(3) 143(4) 1_545
O7 H7A O2 0.978(5) 1.667(8) 2.641(3) 173(4) 2_557
O7 H7B O10 0.978(5) 1.760(17) 2.701(3) 160(4) 2_656
N1 H1 O1 0.978(5) 2.18(3) 2.719(3) 113(2) .
O9 H9A O5 0.976(5) 1.825(9) 2.791(3) 170(4) .
O9 H9B O10 0.978(5) 1.95(2) 2.900(4) 163(6) .
O10 H10B O4 0.990(19) 1.80(3) 2.726(3) 155(3) .
loop_
_refln_index_h
_refln_index_k
_refln_index_l
_refln_F_squared_meas
_refln_F_squared_sigma
_refln_scale_group_code
0 0 1 19214.1 1049.9 40
0 0 -1 18286.2 1020.68 40
0 0 -2 219.977 278.538 1
0 0 -2 300.444 398.398 40
0 0 2 530.234 324.769 40
0 0 3 177425 5337.21 10
0 0 3 190858 5699.51 4
0 0 3 178192 5403.55 11
0 0 3 186730 7147.56 40
0 0 3 183336 5407.16 5
0 0 -3 183711 7013 40
0 0 -3 179354 6960.34 1
0 0 -3 174253 5518.21 45
0 0 -4 58195.7 3920.22 2
0 0 -4 54987.8 3648.61 1
0 0 -4 54130.3 3526.25 40
0 0 4 52866.9 2362.86 4
0 0 4 52025.7 2082.99 11
0 0 4 53173.5 2091.36 5
0 0 4 53005.2 2026.18 10
0 0 -4 52198.7 2232.42 45
0 0 4 49505.7 3511.32 40
0 0 -5 164790 5459.85 45
0 0 -5 157076 7601.3 40
0 0 5 159283 5133.36 10
0 0 5 159128 5248.24 11
0 0 -6 197561 6593.95 45
0 0 6 185719 6292.38 11
0 0 6 180590 6121.42 10
0 0 7 55650 2805.38 11
0 0 -7 62182 3098.8 45
0 0 7 55216.1 2648.62 10
0 0 -8 27035.2 2100.55 45
0 0 8 23398.8 1823.49 11
0 0 -9 44653.3 2934.14 45
0 0 9 39204 2311.76 14
0 0 9 40415.7 2441.58 34
0 0 9 41839.7 2668.8 11
0 0 -9 35893.3 2870.96 42
0 0 9 38763.6 2392.11 26
0 0 9 40715.1 2548.02 17
0 0 10 58280.5 3099.24 34
0 0 10 63576.8 3118.24 14
0 0 10 68164.4 3300.4 26
0 0 10 61098 3316.8 17
0 0 11 22789.5 1680.81 26
0 0 11 21789.4 1515.98 18
0 0 11 23853.4 1653.76 34
0 0 11 25981.4 1716.51 14
0 0 11 25255 1824.09 17
0 0 12 12062.1 1000.89 14
0 0 12 13340.3 1141.8 17
0 0 12 11111.8 981.686 26
0 0 13 61934.9 2349.33 17
0 -1 12 51090.2 1609.3 26
0 -1 12 48491.3 1752.01 17
0 -1 12 51486 1721.53 14
0 -1 11 23926.1 1587.42 14
0 -1 11 25822.1 1732.24 17
0 -1 11 24115 1519.7 18
0 -1 11 23180.7 1563.84 26
0 -1 11 23182 1626.22 34
0 -1 10 10496.4 1120.54 26
0 -1 10 11476.4 1120.39 18
0 -1 10 11479 1286.2 17
0 -1 10 10647 1108.94 14
0 -1 10 10461.5 1190.71 34
0 -1 9 40234.6 2600.5 11
0 1 -9 43437.7 3172.19 42
0 -1 9 41570.3 2427.23 26
0 -1 9 40094.9 2553.77 34
0 -1 9 44429.7 2432.2 14
0 -1 9 43883.1 2626.78 17
0 -1 8 19165.8 1501.21 26
0 -1 8 20726.2 1678.31 34
0 1 -8 21266.7 2025.03 42
0 -1 8 18438.6 1616.75 11
0 -1 8 23404.5 1805.77 38
0 -1 8 20047.5 1496.04 14
0 -1 8 19532.9 1656.15 17
0 -1 7 854.381 439.92 10
0 1 -7 143.005 438.236 42
0 -1 7 884.183 376.416 11
0 1 -6 83067.1 3681.01 45
0 -1 6 92522.1 3646.4 11
0 -1 6 87631.3 3527.79 10
0 -1 5 187988 6044.66 10
0 -1 5 190745 6151.69 5
0 1 -5 178489 6163.88 45
0 -1 5 184787 6103.63 11
0 -1 4 137334 4482.57 5
0 -1 4 132521 4371.52 10
0 1 -4 127849 4449.07 45
0 1 -4 122844 5763.7 40
0 -1 4 136414 4452.3 11
0 1 -3 17534.4 1504.04 40
0 -1 3 15328.2 1449.64 40
0 1 -3 16150.7 1698.63 1
0 -1 3 19132.3 988.272 11
0 -1 3 15656.9 899.792 10
0 1 -3 18395.5 1856.65 2
0 -1 3 15933.3 1748.02 2
0 1 -3 15039.1 904.499 45
0 -1 3 18567.8 989.613 5
0 -1 2 258450 7734.38 10
0 -1 2 273725 7786.05 11
0 1 -2 259211 9186.32 2
0 1 -2 278177 8514.58 40
0 -1 2 276145 7794.11 5
0 -1 2 274370 9276.92 2
0 1 -1 36105.2 1571.96 40
0 1 -1 40657.7 2092.81 2
0 -1 1 41251.7 2106.34 2
0 -1 0 4255.92 505.52 2
0 -1 0 3329.27 480.95 41
0 1 0 4627.91 538.448 2
0 -1 -1 679264 20224 41
0 1 1 625209 19469.4 40
0 -1 -2 11089.7 1337.33 1
0 1 2 10950.3 1316.31 40
0 1 3 354.15 175.039 46
0 1 3 -253.327 323.548 4
0 1 3 -15.1734 189.447 44
0 -1 -3 -31.1822 408.224 40
0 -1 -3 527.787 572.716 1
0 1 3 -55.7032 531.503 40
0 -1 -4 314856 11292.2 2
0 -1 -4 285200 8223.91 45
0 1 4 269244 7925.26 10
0 1 4 270471 8079.57 46
0 1 4 267360 8281.37 7
0 1 4 290887 8636.11 4
0 1 4 267221 10130.7 1
0 1 4 305836 11296.4 40
0 -1 -4 269119 10554.5 1
0 -1 -4 282317 10661.2 40
0 -1 -4 239491 7845.5 43
0 -1 -5 98870.4 3640.06 45
0 1 5 100123 4024.59 4
0 -1 -5 94279.6 5729.28 40
0 1 5 89603.3 3307.25 10
0 1 5 93886.8 3471.08 11
0 -1 -5 93454.4 3260.85 43
0 1 6 15135.5 1172.32 11
0 1 6 14042.5 1460.8 4
0 1 6 14631.5 1057.56 10
0 -1 -6 16021.3 1293.32 45
0 1 7 207465 7042.12 10
0 -1 -7 228481 7629.75 45
0 1 7 210333 7343.11 11
0 -1 -8 65643.3 3453.81 45
0 1 8 61013.2 3221.61 11
0 1 9 25168.7 2062.36 11
0 -1 -9 29263.1 2307.28 45
0 1 9 30260.1 1938.73 14
0 1 9 29008.5 2060.31 26
0 1 9 28927.6 2025.84 17
0 1 10 115113 5370.94 11
0 -1 -10 139205 6005.8 42
0 -1 -10 131138 5794.39 45
0 1 10 119908 5142.23 26
0 1 10 116725 5076.36 17
0 1 10 123894 4981.3 14
0 1 11 97731.9 4348.27 26
0 1 11 98887.3 4155.33 14
0 1 11 105967 4433.87 17
0 1 12 12424.4 1157.81 17
0 1 12 12040.4 1044.14 14
0 1 12 11558.1 1112.85 26
0 1 13 10771.4 769.174 14
0 1 13 9074.97 748.246 26
0 1 13 10136.9 844.435 17
0 -2 11 79591.1 3169.67 17
0 -2 11 79700 3074.24 26
0 -2 11 85757.2 3253.95 14
0 -2 11 82043.2 3412.11 34
0 -2 11 77260.1 3142.77 18
0 -2 10 29188.7 2004.04 34
0 -2 10 30274.7 1900.69 17
0 -2 10 28928.3 1826.04 18
0 -2 10 30088 1849.63 14
0 -2 10 29060.3 1778.52 26
0 -2 10 27780.7 1730.05 28
0 -2 9 18480.4 1665.68 34
0 -2 9 17695.2 1460.52 28
0 -2 9 19879.7 1616.04 17
0 -2 9 19919.7 1516.98 26
0 -2 9 18989.7 1500.59 18
0 -2 9 20688.7 1558.25 14
0 -2 8 88501.9 3750.84 18
0 -2 8 75940.9 3820.08 11
0 2 -8 86694.9 4568.13 42
0 -2 8 82208.9 3607.01 14
0 -2 8 78708.8 3916.17 34
0 -2 8 86340.2 3578.35 31
0 -2 8 82572 3630.37 26
0 -2 8 80663.1 3760.63 17
0 2 -7 39440.1 2698.64 42
0 -2 7 40092.1 2383.15 11
0 -2 6 18825.7 1432.71 11
0 2 -6 19520 1650.1 42
0 -2 6 16692 1404.87 5
0 -2 6 18127.3 1407.94 10
0 -2 5 54851.6 2609.46 5
0 -2 5 56700.3 2601.78 10
0 -2 5 54470.1 2561.26 11
0 2 -5 57508.7 2789.56 42
0 2 -4 391248 11747.9 42
0 -2 4 380546 11565.1 10
0 -2 4 389755 11607.9 11
0 -2 4 395530 11657.9 5
0 -2 3 328551 9853.69 10
0 2 -3 328646 9890.05 42
0 -2 3 341749 9881.46 11
0 2 -3 317531 12286.9 2
0 -2 3 332864 9890.24 5
0 -2 2 56217.1 2214.78 10
0 2 -2 55788.9 3682.81 41
0 2 -2 59712.2 2427.71 40
0 -2 2 57174.7 3546.98 2
0 2 -2 58162.7 2202.06 42
0 2 -2 53770.8 3432.83 2
0 -2 2 60945.8 2261.16 5
0 -2 2 59851.6 2235.81 11
0 2 -1 415697 11895.5 42
0 -2 1 421650 13655.9 2
0 2 -1 416108 13581.2 2
0 -2 1 422734 11989.6 5
0 -2 1 392167 13812 41
0 2 -1 419976 11995.1 48
0 -2 1 445579 12081.6 3
0 -2 0 24006.6 1772.71 2
0 -2 0 24427.4 1082.28 5
0 -2 0 23981.6 1908.62 41
0 2 0 25085.2 1086.63 48
0 2 0 23609.1 1558.94 40
0 -2 0 21935.9 1062.65 8
0 -2 0 24708.2 1080.85 3
0 2 1 6738.19 1250.61 41
0 2 1 5394.95 985.42 1
0 2 1 5652.57 574.798 46
0 -2 -1 5053.18 425.133 8
0 2 1 4356.48 874.876 40
0 -2 -1 5916.47 1003.48 41
0 -2 -1 5006.03 482.856 43
0 2 2 303701 12037.2 41
0 2 2 299036 11897.9 1
0 -2 -2 350093 12154.9 41
0 2 2 310359 9436.6 46
0 -2 -2 334351 11750.3 1
0 -2 -2 334303 11064.3 40
0 2 2 284496 10931.5 40
0 2 2 302942 9449.36 48
0 -2 -3 68873.9 2491.22 43
0 2 3 66348.4 4304.87 40
0 -2 -3 66215.2 2403.94 45
0 2 3 63384.6 2607.81 46
0 2 3 66761.2 4373.44 1
0 2 3 66758.5 2721.62 44
0 2 3 60497 2721.67 4
0 2 3 70121.4 2714.7 48
0 2 4 530.576 351.388 44
0 2 4 -53.7177 395.293 1
0 -2 -4 32.3628 222.31 45
0 -2 -4 424.595 699.74 40
0 2 4 411.188 745.779 40
0 2 4 648.039 467.245 4
0 -2 -4 380.324 609.78 1
0 -2 -4 206.716 695.927 41
0 -2 -4 35.1766 218.879 43
0 2 4 1279.64 472.813 7
0 2 4 -32.7721 222.762 46
0 2 5 237031 8209.5 7
0 2 5 238320 7718.16 10
0 2 5 242877 7890.16 46
0 2 5 257869 8596.48 4
0 -2 -5 269288 7785.59 43
0 -2 -5 264075 7940.37 45
0 2 5 236894 7899.56 44
0 2 6 9175.45 959.209 46
0 -2 -6 9123.7 858.49 43
0 2 6 8841.72 964.074 11
0 2 6 9307.89 858.246 10
0 -2 -6 9848.98 1014.86 45
0 2 6 9566.76 1294.15 4
0 2 7 4359.84 652.657 10
0 2 7 4451.45 736.778 11
0 2 7 4213.42 915.044 4
0 -2 -7 4522.88 776.05 45
0 2 8 197948 7315.38 11
0 2 8 186436 8160.87 4
0 -2 -8 204913 7365.19 45
0 2 9 43326.5 2787.21 11
0 -2 -9 41926.6 2750.61 45
0 2 9 40438.6 2435.13 17
0 2 9 40605.5 2319.39 14
0 2 10 34789.7 2256.35 17
0 -2 -10 38525.7 2691.07 45
0 2 10 33338.6 2105.14 14
0 2 10 31567 1990.92 20
0 2 10 32012.2 2453.37 11
0 2 11 103057 4264.27 14
0 2 11 101064 4548.08 26
0 2 11 107190 4453.59 17
0 2 12 34924.1 2030.24 17
0 2 12 32287.2 2058.06 26
0 2 12 35881.9 1942.91 14
0 2 13 16316.1 1094.78 17
0 2 13 13886.7 1046.48 26
0 2 13 15715 992.723 14
0 -3 11 971.434 303.858 14
0 -3 11 556.778 251.962 18
0 -3 11 938.559 332.34 34
0 -3 10 50181.5 2321.79 14
0 -3 10 50297.8 2589.21 34
0 -3 10 49398.5 2358.19 18
0 -3 10 44464.2 2201.99 28
0 -3 9 6578.91 841.007 14
0 -3 9 7573.94 851.449 26
0 -3 9 6079.46 961.498 34
0 -3 9 6139.66 894.077 18
0 -3 9 7314.35 886.953 28
0 -3 8 7846.18 1048.03 34
0 -3 8 7949.75 981.15 28
0 -3 8 9628.6 984.197 31
0 -3 8 9331.9 1071.45 18
0 -3 8 8493.92 935.527 26
0 -3 8 9393.55 998.751 14
0 -3 7 240485 7846.47 31
0 -3 7 232430 8284.92 11
0 -3 7 232306 7969.66 28
0 -3 7 232638 7844.06 14
0 3 -7 242267 8871.12 48
0 -3 7 235669 8352.86 34
0 -3 7 226989 7816.54 26
0 3 -7 242694 8868.09 42
0 -3 7 237998 8038.21 18
0 -3 6 236426 8398.84 5
0 3 -6 252178 8728.38 42
0 -3 6 237416 8314.4 11
0 3 -6 250889 8724.95 48
0 3 -5 15700 1383.38 48
0 -3 5 15095.4 1307.83 10
0 -3 5 15263.8 1349.48 5
0 -3 5 15839 1316.3 11
0 3 -5 16447.2 1399.6 42
0 -3 4 85366.1 3491.22 11
0 -3 4 81485.4 3456.74 10
0 -3 4 83750.1 3516.11 5
0 3 -4 83671.2 3545.82 48
0 3 -4 83659.5 3490.6 42
0 -3 3 167151 5620.81 5
0 3 -3 160094 5491.65 42
0 3 -3 161761 5603.57 48
0 -3 3 161470 5600.38 10
0 -3 3 170440 5611.17 11
0 -3 2 98899.2 3568.73 11
0 -3 2 98878.4 3595.69 5
0 3 -2 93630.3 3545.77 48
0 3 -2 96015.3 3445.44 42
0 3 -1 3010.46 482.884 48
0 3 -1 1991.41 328.568 42
0 -3 1 2523.32 428.37 5
0 -3 1 2207.37 381.756 43
0 3 -1 2701.47 962.777 2
0 -3 1 2916.47 481.206 3
0 -3 1 2246.17 368.139 11
0 -3 1 2555.82 730.065 2
0 3 0 403693 11503.9 48
0 3 0 394167 11236.2 42
0 3 0 359843 12641.5 40
0 -3 0 388184 11502.5 43
0 3 0 435681 14533.3 41
0 -3 0 365787 13842.8 41
0 -3 0 392142 11453.8 3
0 -3 0 402869 13589.5 2
0 -3 0 394935 11462.1 8
0 -3 0 399122 11485.2 5
0 -3 -1 12154.3 1595.65 2
0 -3 -1 11601.2 809.873 8
0 -3 -1 11915.8 878.264 43
0 3 1 12796.8 1756.29 1
0 3 1 13981.4 1017.85 44
0 3 1 12850.3 940.174 48
0 3 1 12380.2 1879.16 41
0 3 1 12139.7 1523.53 40
0 -3 -1 11794.4 797.328 3
0 -3 -1 10372.2 1571.32 41
0 3 1 12448.4 950.262 46
0 3 2 9542.97 1546.58 40
0 -3 -2 9478.02 638.822 9
0 -3 -2 11117.9 866.957 43
0 3 2 7437.17 914.753 44
0 -3 -2 10118.2 711.057 8
0 3 2 8460.51 1696.02 1
0 3 3 66808.9 3073.86 44
0 -3 -3 63351 2365.86 9
0 3 3 66189.1 2945.77 48
0 3 3 67329.7 5072.71 1
0 -3 -3 64130.9 2595.97 43
0 -3 -3 62157.3 2323.97 45
0 3 3 65603.8 2972.15 46
0 -3 -3 65325.1 4890.21 41
0 3 3 65005.7 4650.25 40
0 -3 -3 55471.3 2180.4 8
0 3 4 595.185 668.447 4
0 -3 -4 518.842 399.619 43
0 -3 -4 559.915 198.97 8
0 3 4 1769.4 618.39 46
0 3 4 867.071 352.07 48
0 -3 -4 1296.89 422.742 9
0 3 4 700.143 490.839 44
0 -3 -4 210.904 294.37 45
0 3 5 31820.8 1955.84 44
0 -3 -5 37216.7 1871.88 45
0 3 5 30207.2 2211.56 4
0 -3 -5 34693 1863.78 43
0 3 5 31266.5 2218.83 7
0 3 5 29680 1859.8 46
0 -3 -6 250098 7745.71 45
0 3 6 222665 7590.88 10
0 3 6 212053 7770.39 44
0 3 6 206605 8143.61 7
0 -3 -6 250884 7669.82 43
0 3 6 246772 8772.84 4
0 3 6 223275 7795.33 46
0 -3 -7 4713.49 767.377 45
0 3 7 3707.97 738.626 46
0 -3 -7 4334.25 685.725 43
0 3 7 4207.1 688.32 10
0 3 7 4733.29 1067.27 4
0 3 8 12506.9 1403.64 11
0 3 8 11031.3 1696.55 4
0 -3 -8 12757.3 1354.7 45
0 3 9 106153 4360.39 17
0 3 9 101154 4398.72 27
0 3 9 99916.8 4849.26 11
0 3 9 106937 4355.92 32
0 -3 -9 112332 4931.9 45
0 3 9 105347 4273.93 36
0 3 9 108024 5937.2 4
0 3 10 49054.1 2584.71 36
0 3 10 44112.1 3034.08 11
0 3 10 53492.3 2746.28 32
0 3 10 50438.7 2652.37 14
0 -3 -10 53299.8 3214.59 45
0 3 10 51795.4 2742.42 17
0 3 11 4410.8 719.396 20
0 3 11 3108.76 661.7 17
0 3 11 3622.6 689.821 32
0 3 11 2961.31 645.865 14
0 3 12 49964.8 2454.72 17
0 3 12 50193.3 2371.79 14
0 3 12 46159.9 2261.88 20
0 3 12 50432.4 2661.77 26
0 3 13 19367.8 1277.67 26
0 3 13 18236.2 1077.31 14
0 3 13 18554.2 1161.65 17
0 -4 10 3392.87 484.409 14
0 -4 10 2813.7 439.598 18
0 -4 10 2742.74 507.8 34
0 -4 9 79670.7 3309.03 18
0 -4 9 76880.2 3222.33 28
0 -4 9 79580.3 3199.03 14
0 -4 9 80185.6 3533.87 34
0 -4 8 3074.6 636.382 28
0 -4 8 1260.31 488.957 34
0 -4 8 1322.65 413.509 14
0 -4 8 2808.76 615.808 18
0 -4 7 21627 1774.14 34
0 -4 7 20087.2 1554.33 23
0 -4 7 20397.2 1533.55 14
0 -4 7 23384.1 1707.79 28
0 -4 7 24568.8 1683.6 18
0 -4 7 26961.2 1700.29 31
0 -4 7 21117.4 1512.07 26
0 -4 6 166861 6173.83 23
0 -4 6 177774 6222.82 16
0 -4 6 168953 6538.68 11
0 -4 6 163989 6593.29 5
0 -4 6 165962 6244.26 12
0 -4 6 181545 6270.92 18
0 4 -6 171710 6736.45 42
0 -4 6 183995 6186.87 31
0 4 -6 177642 6916.06 48
0 -4 6 169354 6242.38 28
0 -4 6 171104 6084.34 14
0 -4 6 167252 6449.88 34
0 -4 6 172718 6080.97 26
0 -4 5 68580.4 3503.19 5
0 -4 5 70467 3399.95 34
0 -4 5 71816.8 3140.2 14
0 4 -5 75611.9 3710.59 48
0 -4 5 72258.9 3287.48 28
0 4 -5 71921.5 3525.27 42
0 -4 5 73777.6 3247.18 18
0 -4 5 76935.3 3586.13 11
0 -4 4 58010.9 2901.08 11
0 4 -4 57529.1 2958.23 48
0 4 -4 54562.3 2776.32 42
0 -4 4 54078 2889.01 5
0 -4 3 87840.9 3648.05 11
0 -4 3 82632 3624.43 5
0 4 -3 79476.6 3580.24 48
0 4 -3 80999.5 3413.77 42
0 -4 2 148064 5234.66 5
0 4 -2 136702 4874.02 42
0 4 -2 138612 5126.71 48
0 4 -1 17907.6 1320.79 48
0 -4 1 18972.2 1363.42 3
0 4 -1 16866.3 1135.25 42
0 -4 1 17452.9 1299.86 5
0 -4 0 252214 8090.65 3
0 -4 0 261043 8188.72 5
0 4 0 266247 8428.11 44
0 -4 0 244219 8140.58 43
0 4 0 263987 8259.31 48
0 4 1 324905 9882.33 44
0 -4 -1 289112 9246.39 3
0 4 1 339301 9888.06 46
0 -4 -1 294445 9496.54 43
0 -4 -1 269123 11775.3 2
0 -4 -1 302000 9445.13 5
0 4 1 316260 9686.82 48
0 4 2 8335.72 1666.3 40
0 4 2 5547.06 924.774 44
0 -4 -2 7575.88 727.489 3
0 -4 -2 7271.98 809.97 43
0 -4 -2 7900.46 762.641 8
0 -4 -3 32775.6 1869.25 43
0 -4 -3 30370.5 1538.67 8
0 4 3 30311.3 2034.89 48
0 -4 -3 29015.1 1410.72 9
0 4 3 31566.6 2162.64 46
0 4 3 32376.5 2165.22 44
0 4 4 643300 18193.7 46
0 -4 -4 586822 17249.5 45
0 4 4 559682 18291.6 4
0 4 4 617434 18137.2 48
0 4 4 641861 18456.4 44
0 -4 -4 595745 17767.2 43
0 4 5 3152.09 900.02 4
0 4 5 3217.41 752.926 46
0 -4 -5 2935.93 632.887 43
0 4 5 3254.66 1097.06 7
0 -4 -5 2896.42 545.762 45
0 4 5 2873.37 784.194 44
0 -4 -6 3551.96 679.704 43
0 4 6 4434.97 1036.23 4
0 4 6 4324.19 748.458 46
0 4 6 4181.26 766.448 44
0 4 6 3756.23 936.116 7
0 -4 -6 4824.94 716.859 45
0 4 7 234535 9369.54 4
0 -4 -7 242638 8128.61 45
0 4 7 225785 8287.08 46
0 -4 -7 238451 8121.24 43
0 4 7 230393 8426.68 44
0 4 8 12986.1 1827.12 4
0 4 8 9590.72 1246.4 46
0 -4 -8 10886.1 1272.41 45
0 -4 -9 47006.4 2453.85 35
0 4 9 50168.9 2648.32 32
0 4 9 49800.9 2680.68 27
0 4 9 47253.6 3047.46 11
0 4 9 48251.1 3832.85 4
0 4 9 48237.6 2570.64 36
0 -4 -9 48155.3 2582.95 39
0 -4 -9 51715.1 3040.95 45
0 -4 -10 77071 4009.89 45
0 -4 -10 80991 3571.86 39
0 4 10 74759 3436.19 36
0 4 10 75838.4 3493.21 32
0 4 10 75079.3 3564.36 27
0 4 10 71575.7 3975.15 11
0 4 11 16305.4 1307.2 14
0 4 11 17772.7 1368.69 17
0 4 11 17744.9 1428.59 32
0 4 12 4256.6 599.276 14
0 4 12 4855.25 795.407 26
0 4 12 5609.1 715.875 32
0 4 12 5314.27 691.612 20
0 4 12 4582.68 642.163 17
0 4 13 43437.4 1368.79 14
0 4 13 46569.6 1801.36 26
0 -5 9 8202.68 699.061 18
0 -5 9 6848.66 628.425 28
0 -5 9 8697.43 692.984 14
0 -5 8 98916.1 3838.72 28
0 -5 8 98679.7 3707.74 14
0 -5 8 102371 4026.07 34
0 -5 8 97843.4 3802.51 18
0 -5 7 10303.2 1013.54 14
0 -5 7 11276 1146.03 28
0 -5 7 11358.8 1079.7 23
0 -5 7 11066 1065.44 18
0 -5 7 11904.1 1193.82 34
0 -5 6 2828.37 663.171 28
0 -5 6 2292.54 600.588 34
0 -5 6 2635.12 607.625 23
0 -5 6 2337.4 580.922 12
0 -5 6 3473.42 663.639 18
0 -5 6 3076.59 647.044 14
0 -5 5 57918.9 2949.2 28
0 -5 5 56505.9 2758.65 14
0 -5 5 57297.8 2985.7 34
0 5 -5 58688.8 3371.31 48
0 -5 5 56098.8 2888.85 23
0 -5 5 56117.4 2872.43 16
0 -5 5 55441.1 3196.61 5
0 -5 5 58361.4 2871.52 18
0 -5 4 28849.3 1872.05 18
0 -5 4 30493.7 1972.93 23
0 5 -4 28093 2164.8 48
0 -5 4 31286.6 2020.06 34
0 -5 4 29111.1 1892.98 16
0 -5 4 29661.4 2188.46 5
0 -5 4 31998.4 1888.17 14
0 -5 4 26964.1 1891.89 28
0 -5 3 31820.8 2211.76 5
0 5 -3 31408.1 2204.77 48
0 -5 2 66065.1 3373.02 5
0 5 -2 69042.4 3418.87 48
0 5 -1 53056.3 2961.4 44
0 5 -1 47369.6 2693.71 48
0 -5 1 46201.9 2626.64 5
0 -5 1 45480 2585.37 3
0 5 0 612.095 461.933 48
0 -5 0 478.249 341.701 5
0 5 0 1376.84 569.938 44
0 5 0 303.59 472.833 46
0 -5 0 491.058 293.883 3
0 -5 0 521.418 353.323 43
0 -5 -1 73620.9 3398.88 5
0 -5 -1 74131.6 3235.98 3
0 5 1 77029.8 3698.13 48
0 5 1 82608.6 3919.23 44
0 -5 -1 67768.7 3341.5 43
0 5 1 82520.7 3849.49 46
0 -5 -2 181652 6006.3 3
0 -5 -2 191535 6483.26 43
0 -5 -2 177918 6288.81 5
0 5 3 14244.5 1501.1 48
0 -5 -3 18482.7 1503.82 43
0 5 3 15507.9 1651.94 44
0 -5 -3 16963.6 1215.62 3
0 5 3 16160.1 1569.51 4
0 5 3 16864.7 1639.35 46
0 5 4 11072.3 1345.37 46
0 -5 -4 12307.4 1234.13 43
0 -5 -4 10919.9 971.203 3
0 5 4 11262.3 1270.67 48
0 5 4 14236 1549.64 44
0 5 4 10939.3 1405.63 4
0 5 5 256873 9294.93 48
0 5 5 296780 9624.19 46
0 5 5 265697 10023.9 4
0 -5 -5 276403 9382.91 43
0 5 5 293324 9839.11 44
0 5 6 -78.6845 400.664 46
0 5 6 364.399 636.084 7
0 -5 -6 165.628 420.053 43
0 5 6 136.071 439.332 44
0 5 6 -73.8763 691.087 4
0 -5 -7 880.738 387.385 45
0 5 7 390.42 397.82 46
0 -5 -7 -288.373 339.615 43
0 5 7 67.0574 357.72 44
0 -5 -8 178553 6311.07 35
0 5 8 180699 6409.85 32
0 5 8 189927 8364.22 4
0 5 8 174977 7082.19 44
0 5 8 176966 6426.2 27
0 5 8 182344 6430.28 36
0 -5 -8 179960 6792.81 45
0 -5 -8 182979 6335.5 39
0 -5 -8 172397 6834.48 43
0 5 8 173504 6990.2 46
0 5 9 5902.25 843.289 32
0 5 9 6678.14 1095.5 11
0 5 9 4937.48 793.214 36
0 -5 -9 5851.02 982.358 45
0 5 9 6372.07 1482.8 4
0 5 9 6333.19 893.52 27
0 -5 -9 6424.3 853.073 35
0 -5 -9 5897.89 811.877 39
0 5 9 6025.8 1039.81 46
0 5 10 3103.97 645.903 27
0 5 10 3634.61 698.356 32
0 5 10 2576.6 593.267 36
0 -5 -10 2815.78 585.864 35
0 -5 -10 3527.47 643.313 39
0 5 11 129614 5034.24 27
0 -5 -11 140117 4998.79 39
0 5 11 133252 5019.31 32
0 5 11 129114 4728.08 14
0 5 12 12859.6 1026.32 20
0 5 12 12264.7 914.915 14
0 5 12 12322.7 1040.78 32
0 5 13 11736.7 918.133 26
0 5 13 11692.8 823.514 32
0 5 13 12109 800.687 20
0 -6 8 16390.8 948.616 18
0 -6 7 95503 2538.65 18
0 -6 7 99469.4 2680.4 28
0 -6 7 98337.5 2412.59 14
0 -6 6 16533.8 1324.22 28
0 -6 6 15180.8 1242.59 12
0 -6 6 16863.7 1236.94 14
0 -6 6 14751 1208.63 18
0 -6 6 15102.4 1216.74 23
0 -6 6 16591.2 1321.96 34
0 -6 5 210.393 341.96 12
0 -6 5 543.983 537.165 14
0 -6 5 488.728 392.468 28
0 -6 5 310.675 390.704 34
0 -6 5 691.103 403.38 23
0 -6 5 0.58013 323.69 18
0 -6 4 96891.4 3960.31 18
0 -6 4 92172.9 3884.32 14
0 -6 4 91980.1 4062.62 23
0 -6 4 90548.2 4083.76 28
0 -6 4 94336.9 4013.78 34
0 -6 3 9055.52 1241.22 5
0 -6 3 8195.29 965.381 18
0 -6 3 8173.21 1037.37 28
0 -6 3 8840.45 1082.63 23
0 6 -3 8888.1 1308.48 48
0 6 -3 9721.7 1445.83 44
0 -6 3 8741.81 1022.28 14
0 -6 3 8246.11 948.356 22
0 6 -3 8554.06 1393.31 46
0 6 -2 12512.1 1651.77 44
0 6 -2 13553.3 1640.79 46
0 -6 2 12492.4 1409.95 15
0 -6 2 12052.6 1145.22 22
0 -6 2 12894.5 1169.05 18
0 -6 2 12323 1261.42 28
0 -6 2 12955.7 1484.09 5
0 -6 2 12362.2 1192.05 14
0 -6 2 10641.2 1168.34 33
0 -6 2 12148.1 1276.06 23
0 6 -2 11734.8 1470.26 48
0 6 -1 58167.8 3646.4 44
0 6 -1 57530.2 3452.36 48
0 -6 1 51261.3 3177.91 5
0 6 0 108723 5289.64 44
0 -6 0 95420.6 4619.16 5
0 6 0 104045 5008.64 48
0 6 0 116816 5343.5 46
0 -6 0 102535 4503.64 3
0 -6 -1 26195.2 2033.93 43
0 6 1 23388.5 2151.56 48
0 -6 -1 27295.6 2047.66 5
0 -6 -1 27406.9 1876.49 3
0 6 1 23984.5 2218.81 46
0 6 1 24654 2285.14 44
0 6 2 50974.7 3505.46 46
0 -6 -2 72493.6 3591.94 43
0 -6 -2 76745.1 3276.04 3
0 6 2 57774.4 3742.33 44
0 -6 -2 70174.7 3476.17 5
0 6 2 53090.3 3512.19 48
0 6 3 118030 5402.26 46
0 6 3 109084 5379.16 44
0 -6 -3 119457 5075.7 43
0 -6 -3 110637 4404.48 3
0 -6 -3 115050 4858.79 5
0 6 3 106595 5140.43 48
0 6 4 12183.8 1460.15 46
0 -6 -4 10480.6 1270.91 43
0 6 4 9578.7 1334.64 44
0 6 4 11119.3 1354.15 48
0 6 4 11341.3 1494.11 4
0 6 5 16460.9 1740.24 44
0 6 5 14684.6 1825.7 4
0 6 5 18320.6 1761.4 46
0 -6 -5 17319.1 1672.93 43
0 6 6 129800 6439.59 4
0 6 6 138083 5766.72 46
0 6 6 139612 5959.26 44
0 6 6 131499 6641.43 7
0 -6 -6 140135 5871.37 43
0 6 7 15552.3 1569.15 46
0 -6 -7 16312.6 1325 39
0 6 7 17409.3 1379.81 32
0 6 7 15724.5 1308.21 36
0 6 7 17971.2 2227.6 4
0 -6 -7 15787.2 1636.49 43
0 -6 -7 15853.3 1326.72 35
0 6 7 15583.7 1369.06 27
0 6 7 14764.9 1608.36 44
0 -6 -7 13981.1 1227.53 21
0 6 8 1489.64 475.354 27
0 6 8 985.801 414.091 46
0 -6 -8 951.03 595.864 43
0 -6 -8 1238.38 412.826 21
0 6 8 776.316 349.736 32
0 6 8 1286.33 833.945 4
0 -6 -8 922.089 358.479 39
0 6 8 854.9 540.459 44
0 6 8 1548.74 518.611 36
0 -6 -8 1486.31 535.744 35
0 6 9 111508 4627.74 27
0 -6 -9 113592 4589.34 35
0 6 9 122086 4719.29 32
0 -6 -9 114944 4589.3 39
0 6 9 123550 4737.75 36
0 6 10 1020.45 366.512 32
0 6 10 1332.26 459.878 36
0 -6 -10 639.836 407.504 35
0 -6 -10 135.917 301.841 39
0 6 10 1.20749 344.512 27
0 -6 -11 6715.84 769.465 39
0 6 11 6540.83 796.432 27
0 6 11 7322.89 826.187 32
0 -6 -11 5771.31 700.84 35
0 6 12 84372.4 3221.61 32
0 -6 -12 79571.8 3055.17 39
0 6 13 7317.08 591.83 32
0 6 13 7225.88 556.128 20
0 6 13 6410.51 607.948 26
0 -7 6 89811.1 3135.96 12
0 -7 6 85475.3 2995.29 14
0 -7 6 93241 3255.14 28
0 -7 6 89882.5 3045.15 18
0 -7 5 5050.82 690.801 12
0 -7 5 4607.84 607.04 18
0 -7 5 4829.29 614.679 14
0 -7 5 4888.7 687.685 28
0 -7 5 4994.48 670.43 23
0 -7 4 49.7054 311.634 12
0 -7 4 404.238 319.513 23
0 -7 4 954.371 433.154 18
0 -7 4 826.94 428.249 28
0 -7 4 730.506 372.13 14
0 -7 3 80320.2 3677.11 23
0 -7 3 81917.3 3504.98 14
0 -7 3 80738 3511.42 18
0 -7 3 79390.9 3698.64 28
0 -7 3 89566.2 3776.48 12
0 -7 2 32298.8 2123.38 23
0 -7 2 34459.2 2205.53 28
0 -7 2 28371.1 1973.19 33
0 -7 2 30428.2 2235.42 15
0 -7 2 30648.2 1946.82 14
0 -7 2 29116.5 2322.5 30
0 -7 2 30484.4 1896.52 22
0 -7 1 4724.85 950.016 15
0 -7 1 4672.47 911.365 5
0 7 -1 4512.28 1144.7 44
0 -7 1 5611.43 800.466 22
0 -7 1 4078.51 768.637 23
0 -7 1 4956.69 861.634 28
0 -7 1 5502.25 848.574 33
0 -7 1 5112.33 768.128 14
0 7 -1 4872.86 1194.51 46
0 -7 0 75114.7 3424.95 14
0 -7 0 76523.1 3661.84 23
0 -7 0 76828.8 3425.96 22
0 -7 0 77853.9 3687.74 28
0 -7 0 75018.9 3956.42 15
0 -7 0 80754.9 3727.7 33
0 -7 0 72581.6 4056.41 5
0 -7 -1 84930.8 3946.12 23
0 -7 -1 87227 4416.87 5
0 7 1 75094.5 4846.57 44
0 -7 -1 90492.8 4365.17 15
0 -7 -1 89672.4 3996.78 28
0 -7 -1 86702.2 3731.13 22
0 -7 -1 86974.1 3962.65 33
0 -7 -2 42500.1 2448.5 28
0 -7 -2 41057.7 2249.01 21
0 -7 -2 43577.4 2502.25 23
0 -7 -2 40810.1 2752.19 5
0 7 2 38674.2 3189.58 44
0 -7 -2 41582.5 2463.55 33
0 -7 -2 41881 2698.97 15
0 -7 -2 38205.3 2200.01 22
0 7 2 37065.8 3034.23 46
0 7 2 42859.1 2574.11 27
0 7 3 13299.3 1682.45 46
0 -7 -3 11255.7 1120.35 21
0 -7 -3 10324.2 1378.54 43
0 -7 -3 12202.3 1368.98 15
0 7 3 12793.7 1305.61 27
0 -7 -3 11779.1 1177.66 28
0 -7 -3 12531.3 1234.44 33
0 -7 -3 12812.8 1447.41 5
0 7 3 9785.89 1532.84 44
0 -7 -3 11839.7 1218.3 23
0 -7 -4 97456.4 4432.65 15
0 -7 -4 96024 4734.73 43
0 7 4 99916.5 4895.89 46
0 -7 -4 93161.7 4074.54 33
0 7 4 102039 5148.63 44
0 -7 -4 90861.5 3945.13 21
0 -7 -4 94396.2 3977.33 28
0 -7 -4 93585.2 4463.21 5
0 -7 -4 96230.2 4076.04 23
0 7 4 95383 4195.66 27
0 -7 -5 3003.35 723.588 5
0 -7 -5 3084.85 637.482 21
0 7 5 3885.69 989.994 44
0 -7 -5 2706.52 564.138 28
0 -7 -5 4135.99 677.06 35
0 -7 -5 2480.6 580.641 33
0 -7 -5 3098.12 766.432 15
0 7 5 3562.98 695.403 27
0 -7 -5 3766.54 630.029 39
0 7 5 3879.28 855.494 46
0 -7 -5 3820.47 700.186 23
0 -7 -5 3482.52 839.399 43
0 -7 -6 27180.1 1808.21 21
0 7 6 26472.4 2245.07 44
0 -7 -6 27892.6 1808.23 35
0 7 6 26277.7 2575.75 4
0 7 6 25882.8 1850.56 27
0 -7 -6 26384.5 1697.95 39
0 -7 -6 27005.8 2264.67 43
0 7 6 26237.5 2739.25 7
0 -7 -6 22016.9 1562.99 28
0 7 6 27642.9 2196.53 46
0 -7 -6 24018.1 1687.23 23
0 7 6 25685.4 1669.6 32
0 -7 -7 85988.8 3647.59 21
0 7 7 81181.5 3633.63 27
0 7 7 77012.7 3407.44 36
0 -7 -7 83972.1 3574.32 39
0 7 7 87026 4344.01 44
0 -7 -7 84750.7 3652.43 35
0 -7 -7 86080.3 4433.56 43
0 7 7 77713.4 4031.02 46
0 -7 -7 74674.8 3413.99 23
0 7 7 85199.2 5035.55 4
0 7 7 85316.6 3612.14 32
0 7 8 2764.29 589.672 27
0 -7 -8 2678.65 574.275 35
0 7 8 1642.68 454.583 36
0 -7 -8 2198.05 531.458 39
0 7 8 2269.61 541.336 32
0 -7 -8 2174.5 501.145 21
0 7 9 183.344 331.589 27
0 7 9 505.981 318.867 36
0 -7 -9 161.677 341.289 35
0 7 9 385.623 344.386 32
0 -7 -9 204.92 263.51 21
0 -7 -9 -33.1073 271.118 39
0 -7 -10 72269 3182.82 35
0 7 10 74560.8 3199.77 27
0 -7 -10 73614 3160.04 39
0 7 10 79130.4 3266.48 32
0 7 11 4773.2 638.013 32
0 -7 -11 5162.16 620.223 35
0 -7 -11 5032.54 626.523 39
0 7 11 4224.69 597.395 27
0 -7 -12 411.926 221.072 35
0 7 12 627.648 279.053 32
0 -7 -12 565.157 205.72 39
0 -8 4 686.932 269.482 12
0 -8 4 438.827 288.727 28
0 -8 4 1227.65 344.528 23
0 -8 3 2627.88 608.902 23
0 -8 3 1345.95 433.767 28
0 -8 3 1884.7 463.041 12
0 -8 2 107243 4538.23 15
0 -8 2 117431 4383.3 12
0 -8 2 113209 4474.7 28
0 -8 2 116272 4479.17 23
0 -8 1 6805.43 884.763 33
0 -8 1 5960.91 956.603 15
0 -8 1 8382.71 1036.93 23
0 -8 1 7340.69 903.171 12
0 -8 1 7218.09 967.498 28
0 -8 1 8090.48 1094.22 30
0 -8 0 8604.51 1030.21 33
0 -8 0 7631.72 925.342 12
0 -8 0 7492.19 1079.44 15
0 -8 0 9422.63 1082.79 23
0 -8 0 8088.29 1025.29 28
0 -8 -1 71872.3 3201.72 12
0 -8 -1 71925.6 3472.31 28
0 -8 -1 76433.7 3580.67 23
0 -8 -1 68754.5 3433.92 33
0 -8 -1 74059.1 3821.52 15
0 -8 -2 38615.5 2162.12 21
0 -8 -2 42128.5 2738.7 15
0 -8 -2 45185.5 2530.03 28
0 -8 -2 43216.3 2532.1 23
0 -8 -2 40437 2444.53 33
0 -8 -3 23223.7 1677.48 28
0 -8 -3 18714 1438.86 21
0 8 3 20064.7 1595.02 27
0 -8 -3 18629 1755.79 15
0 -8 -3 18203.2 1566.17 33
0 -8 -3 20826.5 1651.15 23
0 -8 -4 106173 4778.79 15
0 8 4 109265 4449.1 27
0 -8 -4 107980 4310.41 28
0 -8 -4 105425 4387.65 23
0 -8 -4 105112 4449.16 33
0 -8 -4 99512.3 4229.65 21
0 -8 -5 101817 4256.02 21
0 8 5 108699 4374.68 27
0 -8 -5 109120 4738.92 15
0 -8 -5 106220 4374.37 33
0 -8 -5 100574 4108.52 28
0 -8 -5 105372 4283.42 23
0 -8 -6 12848.9 1094.95 39
0 -8 -6 13154 1197.96 33
0 -8 -6 14199.2 1430.89 15
0 -8 -6 11283.7 1093.48 35
0 8 6 14977.9 1296.08 27
0 -8 -6 13817.5 1205.86 23
0 -8 -6 12886 1224.8 21
0 -8 -7 22278.1 1568.6 35
0 8 7 24221 1613.05 27
0 -8 -7 21541.7 1566.34 21
0 -8 -7 24449 1807.93 15
0 -8 -7 22419.5 1505.28 39
0 -8 -7 19051 1408.64 23
0 -8 -8 35824 1993.04 21
0 8 8 36454.1 2002.28 27
0 -8 -8 32578.4 2033.45 15
0 -8 -8 35099.5 1958.6 39
0 8 8 37002 1960.55 32
0 -8 -8 35850.1 2037.34 35
0 8 9 1503.41 439.475 27
0 8 9 2201.51 458.445 32
0 -8 -9 2352.45 471.607 39
0 -8 -9 2860.08 564.717 35
0 -8 -9 2475.14 471.833 21
0 8 10 233.111 262.48 32
0 -8 -10 -108.152 234.777 39
0 8 10 -15.5883 205.292 27
0 -8 -10 170.584 268.169 35
0 -8 -11 90002.9 3259.05 39
0 -8 -11 93073.1 3310.35 35
0 8 11 90974 3255.61 27
0 8 11 94376.1 3294.05 32
0 -9 2 2573.84 397.308 12
0 -9 2 2450.24 396.022 23
0 -9 2 2681.64 423.888 28
0 -9 1 57733.7 2366.96 12
0 -9 1 54275 2385.87 33
0 -9 1 60325.7 2495.61 28
0 -9 1 55965.1 2525.97 15
0 -9 1 59411.5 2504.94 23
0 -9 0 8642.63 977.725 15
0 -9 0 9251.4 932.628 23
0 -9 0 8794.46 882.501 33
0 -9 0 8167.26 978.072 30
0 -9 0 8342.82 778.798 12
0 -9 0 8438.31 854.353 28
0 -9 -1 8717.82 904.262 28
0 -9 -1 8447.48 921.212 33
0 -9 -1 9229.74 991.087 23
0 -9 -1 8280.29 765.066 12
0 -9 -1 8439.23 1021.4 15
0 -9 -1 8918.03 1132.74 30
0 -9 -2 85633.8 3578.99 23
0 -9 -2 82188.5 3780.56 15
0 -9 -2 78404.1 3497.24 33
0 -9 -2 85205.9 3488.35 28
0 -9 -3 24191.1 1820.68 15
0 -9 -3 24299.8 1555.16 28
0 -9 -3 21995.6 1589.38 33
0 -9 -3 24457.7 1635.27 23
0 -9 -3 21338.8 1386.99 21
0 9 4 425.12 248.732 27
0 -9 -4 614.61 395.644 15
0 -9 -4 1120.62 414.06 21
0 -9 -4 786.516 391.811 33
0 -9 -4 1265.78 404.481 28
0 -9 -4 756.2 397.615 23
0 -9 -5 68052.1 3239.03 15
0 -9 -5 64598.2 2934.62 33
0 9 5 65997.9 2799.95 27
0 -9 -5 60469.9 2673.54 28
0 -9 -5 62855 2831.02 23
0 -9 -5 61143.9 2815.77 21
0 9 6 70545.5 2909.14 27
0 -9 -6 67443.6 2944.86 33
0 -9 -6 64981.9 2852.58 23
0 -9 -6 70603.1 3022.42 21
0 -9 -6 68957.2 3239.14 15
0 -9 -7 11830.6 907.537 39
0 -9 -7 11914.9 959.809 35
0 -9 -7 11513.1 1107.11 15
0 9 7 13726.1 1034.68 27
0 -9 -7 12134 1045.12 21
0 -9 -8 9714.36 854.905 35
0 -9 -8 9653 892.894 15
0 -9 -8 9772.13 815.221 39
0 -9 -8 10088.8 884.727 21
0 9 8 10741.2 864.518 27
0 9 9 30100.5 1246.22 27
0 -9 -9 31153.8 1277.17 39
0 -9 -9 29684.3 1315.09 35
0 -9 -9 29894.8 1270.75 21
0 9 10 300.358 202.972 27
0 -9 -10 140.085 165.47 35
0 -9 -10 102.065 163.125 39
0 9 10 144.09 161.723 32
0 -9 -10 170.822 152.521 21
0 -10 -1 3104.67 396.085 23
0 -10 -1 3118.19 393.105 33
0 -10 -1 3122.98 431.056 15
0 -10 -1 3218.32 365.1 28
0 -10 -2 6182.36 712.658 30
0 -10 -2 6345.86 682.929 15
0 -10 -2 5877.4 579.325 23
0 -10 -2 5880.28 526.232 28
0 -10 -2 6733.48 638.178 33
0 -10 -3 51375.1 2258.8 33
0 -10 -3 56083 2241.61 23
0 -10 -3 57607.8 2591.74 30
0 -10 -3 54903.3 2418.08 15
0 -10 -3 52982.3 2079.33 28
0 -10 -4 7685.69 785.724 15
0 -10 -4 7330.63 635.421 23
0 -10 -4 7068.3 662.889 33
0 -10 -5 416.312 243.255 21
0 -10 -5 678.918 271.39 33
0 -10 -5 713.89 249.827 23
0 -10 -6 30447.9 1448.6 21
0 -10 -6 27454.4 1372.06 33
0 -10 -6 30019.5 1574.57 15
0 -10 -7 33294.7 1571.5 15
0 -10 -7 32837.9 1522.96 21
0 -10 -8 9293.61 655.782 21
1 -10 -5 2668.93 419.039 30
1 -10 -4 20098 1193.94 30
1 -10 -4 20326 1097.02 15
1 -10 -3 70901.5 2509.5 33
1 -10 -3 69799.7 2456.93 23
1 -10 -3 72797.7 2734.59 30
1 -10 -3 69855.7 2577.24 15
1 -9 -9 4021.08 437.034 35
1 -9 -9 4685.61 448.624 21
1 -9 -8 58503.9 1730.9 21
-1 9 8 61128.1 1607.95 19
1 -9 -7 4715.81 588.61 21
1 -9 -7 4137.93 499.048 35
1 -9 -6 1487.25 399.155 21
1 -9 -6 1445.61 386.943 15
1 -9 -5 81344.3 3317.79 15
1 -9 -5 75362.9 3049.74 33
1 -9 -5 73421.3 3010.65 21
1 -9 -5 71547.1 3006.19 23
1 -9 -4 4389 627.82 23
1 -9 -4 4198.86 558.483 21
1 -9 -4 4884.44 626.301 28
1 -9 -4 4064.66 685.75 15
1 -9 -4 4622.21 667.503 33
1 -9 -3 17499.9 1135.44 21
1 -9 -3 21110.5 1511.46 15
1 -9 -3 19928.5 1347.01 23
1 -9 -3 19222.6 1278.07 28
1 -9 -3 16594.9 1269.01 33
1 -9 -2 71082.8 2894.5 28
1 -9 -2 66640.3 3093.1 15
1 -9 -2 65337.8 2913.47 33
1 -9 -2 69940 3361.23 30
1 -9 -2 68825.4 2915.67 23
1 -9 -1 35359.8 1835.32 23
1 -9 -1 36419.5 2158.29 30
1 -9 -1 36180.1 2018.77 15
1 -9 -1 36230.2 1823.92 28
1 -9 -1 33092.1 1813.95 33
1 -9 0 5007.64 522.676 12
1 -9 0 4852.31 600.281 23
1 -9 0 5417.11 742.51 30
1 -9 0 5596.35 637.61 28
1 -9 0 5080.43 670.595 15
1 -9 0 3941.99 547.843 33
1 -9 1 22246.4 1210.37 33
1 -9 1 25361.9 1369.62 15
1 -9 1 24634.3 1259.55 23
1 -9 1 24752.4 1264.63 28
1 -9 1 23350.5 1387.62 30
1 -9 1 22071.2 1136.97 12
1 -8 -11 13295.2 779.764 35
1 -8 -11 13252.4 770.752 39
1 -8 -10 76645.5 2894.4 35
-1 8 10 76266.7 2772.11 27
-1 8 10 78724.3 2796.1 32
1 -8 -10 75489.4 2829.13 39
1 -8 -9 664.231 332.476 35
-1 8 9 251.482 199.095 19
1 -8 -9 276.075 217.368 21
1 -8 -9 270.964 197.855 39
-1 8 9 493.57 237.418 32
-1 8 9 234.317 234.572 27
1 -8 -8 767.336 324.79 21
1 -8 -8 532.847 342.278 35
1 -8 -8 1539.09 398.754 39
-1 8 8 618.381 286.833 27
-1 8 7 191826 6337.24 27
1 -8 -7 190253 6339.79 39
1 -8 -7 194167 6539.39 21
1 -8 -7 189450 6497.04 35
1 -8 -6 -69.2957 279.1 23
1 -8 -6 102.799 307.417 35
-1 8 6 708.431 338.552 27
1 -8 -6 1019.8 446.98 21
1 -8 -6 557.156 464.607 15
1 -8 -6 416.917 249.99 39
1 -8 -5 5893.31 880.598 15
1 -8 -5 5638.55 739.393 28
1 -8 -5 4908.28 700.646 35
1 -8 -5 5052.47 725.233 33
1 -8 -5 5330.89 790.524 23
1 -8 -5 5050.74 772.35 21
1 -8 -4 109095 4459.44 21
1 -8 -4 118292 4959.24 15
1 -8 -4 116963 4547.78 28
1 -8 -4 122337 4708 33
1 -8 -4 114157 4605.73 23
1 -8 -3 32370.1 2044.21 23
1 -8 -3 33155.9 2260.95 15
1 -8 -3 31200 1974.62 28
1 -8 -3 29708.6 1837.37 21
1 -8 -3 32109.4 2049.22 33
1 -8 -2 27243.8 1859.71 23
1 -8 -2 28039.1 2079.96 15
1 -8 -2 21478.7 1671.67 33
1 -8 -2 26973.3 1827.58 28
1 -8 -2 23064.4 1538.62 21
1 -8 -1 88365.4 3602.4 12
1 -8 -1 96143.3 4009.85 28
1 -8 -1 90639.7 3986.69 33
1 -8 -1 91993.1 4296.96 15
1 -8 -1 94785.1 4001.91 23
1 -8 0 25000.6 1743.97 33
1 -8 0 23087.4 1509.99 12
1 -8 0 25411.1 1735.54 23
1 -8 0 25414.7 1752.24 28
1 -8 0 22283.4 1966.43 30
1 -8 0 24653.9 1905.32 15
1 -8 1 11886.7 1257.33 15
1 -8 1 12381.7 1165.3 33
1 -8 1 12181.7 1159.51 28
1 -8 1 11220.2 1007.89 12
1 -8 1 12317.8 1382.86 30
1 -8 1 12235.4 1130.77 23
1 -8 2 20653.3 1353.02 12
1 -8 2 20459.4 1379.1 23
1 -8 2 20724.8 1423.28 28
1 -8 2 20982.9 1525.87 15
1 -8 2 18095.5 1303.84 33
1 -8 2 19445.9 1589.56 30
1 -8 3 35538.6 1560.19 12
1 -8 3 36835.8 1629.79 28
1 -8 3 35941.6 1545.31 23
1 -8 4 4345.33 495.247 28
1 -8 4 4970.45 510.989 12
-1 7 12 12440.1 711.147 20
-1 7 12 12323.9 748.321 32
-1 7 11 7216.34 673.303 32
1 -7 -11 6766.69 649.243 35
1 -7 -11 6739.35 636.728 39
-1 7 10 5566.31 653.432 27
1 -7 -10 6365.25 740.393 35
1 -7 -10 5828.73 694.288 39
-1 7 9 93788.3 3711.31 27
1 -7 -9 95805 3827.69 35
-1 7 9 90926.3 3498.7 19
1 -7 -9 90698.3 3614.07 21
1 -7 -9 94391.5 3750.28 39
-1 7 9 101787 3833.52 32
1 -7 -8 11876.9 1150.16 35
1 -7 -8 10244 1019.42 39
-1 7 8 10586.4 1015.61 32
1 -7 -8 11400.8 1070.17 21
-1 7 8 9139.93 957.934 27
-1 7 7 204.034 326.367 27
-1 7 7 388.74 275.718 32
1 -7 -7 660.833 388.709 35
1 -7 -7 421.121 370.063 21
1 -7 -7 502.638 274.799 39
1 -7 -6 144603 5387.04 21
-1 7 6 142531 5264.7 27
1 -7 -6 143256 5347.54 35
1 -7 -6 142030 5564.18 15
1 -7 -6 139091 5175.5 39
1 -7 -6 140335 6272.18 43
1 -7 -6 136646 5305.43 23
1 -7 -5 2575.45 653.444 15
-1 7 5 3217.28 602.337 27
1 -7 -5 2674.2 572.461 33
-1 7 5 2837.17 768.031 44
1 -7 -5 2158.63 464.378 39
1 -7 -5 2133.31 480.386 35
1 -7 -5 2730.72 597.45 21
1 -7 -5 2701.24 624.525 23
1 -7 -5 4425.86 847.572 5
-1 7 5 1197.42 661.415 4
-1 7 5 3469.7 872.257 46
1 -7 -5 2852.02 610.832 28
1 -7 -4 5720.42 834.237 21
-1 7 4 4235.74 999.857 44
1 -7 -4 4835.69 800.99 23
1 -7 -4 6261.25 884.037 33
1 -7 -4 4756.58 916.48 15
1 -7 -4 5426.47 983.55 5
-1 7 4 4918.38 956.08 46
1 -7 -4 4535.73 717.461 28
-1 7 3 206969 8447.68 44
1 -7 -3 197573 7143.42 23
1 -7 -3 193117 6960.95 21
1 -7 -3 201352 7720.45 5
1 -7 -3 196552 7162.4 33
1 -7 -3 194262 7065.77 28
-1 7 3 222415 8546.61 46
1 -7 -3 210862 7650.41 15
1 -7 -2 84106.3 3941.3 33
1 -7 -2 83923.1 3696.77 21
-1 7 2 89475.5 5006.26 46
-1 7 2 87660.5 5018.08 44
1 -7 -2 91886.4 3996.64 28
1 -7 -2 91077 4010.89 23
1 -7 -2 85752.9 4381.81 5
1 -7 -2 91998.8 4345.72 15
1 -7 -1 8578.8 1097.06 23
-1 7 1 6900.86 1390.95 46
1 -7 -1 9330.01 1122.11 28
1 -7 -1 9774.47 1332.24 5
-1 7 1 9943.33 1623.83 44
1 -7 -1 9925.84 1151.76 33
1 -7 -1 7810.81 908.209 12
1 -7 -1 10304.6 1312.96 15
1 -7 0 149358 5814.62 28
1 -7 0 154814 5556.23 12
-1 7 0 138351 7006.1 44
1 -7 0 149699 5838.63 33
1 -7 0 158259 6305.46 15
1 -7 0 158385 5858.15 23
1 -7 0 146051 6350.96 5
1 -7 1 36382.2 2315.96 28
1 -7 1 32914.5 2022.04 18
1 -7 1 32430.8 2615.03 30
1 -7 1 35380.1 2280.44 33
1 -7 1 35176.7 2124.03 12
1 -7 1 37058.6 2282.23 23
1 -7 1 37670.6 2561.8 15
1 -7 2 22533.5 1741.93 28
1 -7 2 21222.7 1642.81 33
1 -7 2 22642.3 1695.1 23
1 -7 2 18067 1429.57 18
1 -7 2 22716.5 1885.49 15
1 -7 2 22608.3 1626.58 12
1 -7 2 19709.2 1902.56 30
1 -7 3 34301.6 2099.64 28
1 -7 3 29080.9 2091.32 15
1 -7 3 35440.8 2064.94 23
1 -7 3 32651.9 1913.04 18
1 -7 3 34944.4 2044.26 12
1 -7 3 31134.3 2272.06 30
1 -7 4 41623.5 2220.85 28
1 -7 4 41582.8 2270.35 15
1 -7 4 39282.9 2046.36 18
1 -7 4 42759.4 2172.47 23
1 -7 4 44066.5 2254.41 12
1 -7 5 11262.9 968.075 28
1 -7 5 13412.6 1026.16 12
1 -7 5 12779.7 925.555 23
1 -7 5 9908.54 833.087 18
1 -7 6 9126.81 688.933 28
1 -7 6 8895.42 674.758 12
-1 6 12 25722.5 1286.58 20
1 -6 -12 24572.5 1243.2 39
-1 6 12 25460.1 1344.5 32
1 -6 -11 55212.8 2437.51 39
-1 6 11 56966.7 2529.21 32
1 -6 -11 54145.9 2371.65 35
1 -6 -10 26957.8 1663.35 39
-1 6 10 24749.9 1642.82 32
-1 6 10 24079.9 1594.04 27
1 -6 -10 23906.5 1565.1 35
1 -6 -9 15573.8 1302.01 39
-1 6 9 16915.7 1349.26 27
-1 6 9 16233.7 1358.89 32
1 -6 -9 17017.9 1371.43 35
1 -6 -8 132335 5015.23 21
1 -6 -8 131879 5125.63 35
1 -6 -8 134627 5093.28 39
-1 6 8 136306 5136.8 27
1 -6 -8 128684 5772.84 43
-1 6 8 139812 5190.5 32
-1 6 7 3969.31 683.034 27
-1 6 7 3668.34 888.692 44
1 -6 -7 3288.55 667.919 21
1 -6 -7 4363.72 719.941 39
1 -6 -7 4360.02 717.169 35
1 -6 -7 4580.85 968.588 43
-1 6 7 4490.77 727.05 32
-1 6 7 4104.59 871.899 46
-1 6 7 4259.54 1247.5 4
-1 6 6 412.147 310.004 32
-1 6 6 24.7537 347.133 46
-1 6 6 326.627 304.088 27
-1 6 6 568.152 550.077 44
-1 6 6 -121.366 778.495 4
1 -6 -6 426.606 351.38 23
1 -6 -6 572.522 460.381 43
1 -6 -6 459.941 382.431 35
1 -6 -6 371.591 302.13 21
1 -6 -6 579.519 381.863 39
1 -6 -5 193025 6841.2 23
1 -6 -5 196923 6760.26 35
1 -6 -5 201648 7731.99 43
-1 6 5 203993 7731.96 46
-1 6 5 199359 7760.4 44
1 -6 -5 191505 6747.13 28
1 -6 -5 188390 6738.84 21
-1 6 5 197882 8375.3 4
1 -6 -5 185027 6552.52 39
-1 6 4 14553.3 1696.14 44
-1 6 4 15470.3 1720.85 46
1 -6 -4 15749.3 1679.41 43
-1 6 4 16381 1919.34 4
-1 6 3 748.761 663.598 44
1 -6 -3 232.867 457.23 43
1 -6 -3 593.851 531.552 5
-1 6 3 1380.19 801.832 46
1 -6 -2 109884 4965.79 5
-1 6 2 114968 5657.6 46
-1 6 2 116052 5677.31 44
-1 6 1 18.6702 714.812 44
1 -6 -1 526.639 426.194 5
1 -6 0 11262.7 1171.33 28
-1 6 0 8086.6 1509.22 44
1 -6 0 7724.75 1137.72 15
-1 6 0 9722.03 1561.54 46
1 -6 0 9060.88 1245.93 5
1 -6 0 9880.69 1096.66 23
1 -6 0 10238.8 1146 33
1 -6 1 141346 5553.89 33
1 -6 1 140751 5461.56 23
-1 6 -1 126489 6438.13 44
1 -6 1 138607 5497.9 28
1 -6 1 138588 5883.3 15
1 -6 1 138380 5979.85 5
1 -6 1 134179 5296.8 18
1 -6 2 47485.1 3041.22 5
-1 6 -2 57548.3 3728.34 46
-1 6 -2 45003.5 3398.66 44
1 -6 2 47626.1 2971.44 15
1 -6 2 49539.3 2716.95 23
1 -6 2 46226.1 2577.62 12
1 -6 2 50384 2667.35 18
1 -6 2 48113.8 3205.38 30
1 -6 2 42910 2607.89 33
1 -6 2 46931.3 2706.92 28
1 -6 3 35739.9 2561.43 5
1 -6 3 35057.3 2261.46 28
1 -6 3 31715.8 2331.35 15
-1 6 -3 39912.1 3011.71 44
1 -6 3 35438.4 2220.52 12
1 -6 3 33605.1 2172.39 23
1 -6 3 35249.7 2179.8 18
-1 6 -3 42365.3 3133.04 46
1 -6 3 32547.7 2536.79 30
1 -6 4 156029 6130.5 15
1 -6 4 156721 5585.35 14
1 -6 4 157028 5854.03 18
1 -6 4 154732 5825.73 23
1 -6 4 156672 5959.54 28
1 -6 4 162519 5964.92 12
1 -6 5 73221.8 3072.38 14
1 -6 5 78310.5 3422.96 12
1 -6 5 74607.4 3304.69 18
1 -6 5 74653.2 3362.79 28
1 -6 5 69374.9 3199.06 23
1 -6 6 6786.64 822.652 18
1 -6 6 6895.84 821.291 28
1 -6 6 7755.32 857.769 12
1 -6 6 8059.71 766.867 14
1 -6 7 22376.3 1176.66 28
1 -6 7 23426.2 1216.51 18
-1 5 13 29711.8 1372.89 26
-1 5 13 34273.8 1356.08 20
-1 5 12 14300.8 991.122 20
1 -5 -12 14065.7 941.444 39
-1 5 12 12933.6 1005.57 32
1 -5 -11 34604.3 1912.75 39
-1 5 11 35249.7 1980.88 32
1 -5 -10 79632.8 3384.45 35
-1 5 10 81232.3 3563.5 32
1 -5 -10 77201.2 3441.94 39
-1 5 10 77850.7 3488.48 27
1 -5 -9 11434.9 1127.79 39
1 -5 -9 11108.3 1117.34 35
-1 5 9 9922.06 1103.32 27
-1 5 9 11165.9 1387.9 11
-1 5 9 11678 1184.79 32
1 -5 -8 2876.57 732.766 45
1 -5 -8 3347.25 649.725 39
-1 5 8 3996.99 878.793 46
-1 5 8 2896.42 719.057 44
1 -5 -8 3082.58 579.722 35
-1 5 8 2687.85 568.974 36
-1 5 8 3569.85 696.541 27
-1 5 8 2180.48 908.637 4
-1 5 8 3879.42 701.687 32
-1 5 7 176565 6430.2 27
1 -5 -7 180810 6437.56 35
-1 5 7 177382 6435.66 36
1 -5 -7 183877 7097.77 43
-1 5 7 188464 7319.96 44
-1 5 7 195542 8425.86 4
-1 5 7 186917 6500.24 32
-1 5 7 180987 7191.59 46
1 -5 -7 183416 6408.54 39
-1 5 6 1354.99 766.332 4
-1 5 6 2947.98 819.639 44
-1 5 6 1255.13 570.134 46
1 -5 -6 838.559 451.599 43
-1 5 5 9011.63 1275.09 44
1 -5 -5 7616.4 1077.54 43
-1 5 5 9215.29 1250.56 46
-1 5 5 7835.15 1449.31 4
1 -5 -4 83065 3467.41 8
1 -5 -4 84626.3 4047.34 43
-1 5 4 83078.4 4229.15 44
-1 5 4 88937.1 4281.46 46
1 -5 -3 3986.49 638.685 8
-1 5 3 2987 890.489 46
-1 5 3 3912.55 890.429 44
1 -5 -3 3152.63 701.57 43
1 -5 -2 -247.709 438.089 43
-1 5 2 551.831 653.948 44
1 -5 -2 -175.756 368.933 5
-1 5 2 874.009 724.321 46
1 -5 -2 241.841 362.659 8
-1 5 1 168717 7407.74 46
-1 5 1 174053 7500.72 44
-1 5 0 2509.31 671.326 44
1 -5 0 2018.54 659.769 5
-1 5 -1 6791.24 1155.47 44
-1 5 -1 6645.08 1095.5 46
1 -5 1 4826.43 814.007 5
-1 5 -2 82828.1 4167.19 46
-1 5 -2 71933.1 4005.52 44
1 -5 2 71545.5 3661.47 5
-1 5 -3 44869.7 3013 44
1 -5 3 44653.7 2493.27 28
1 -5 3 45255.8 2767.1 5
1 -5 3 45678.6 2485.51 26
1 -5 3 43826.4 2446.63 23
1 -5 3 43759.6 2398.77 18
1 -5 3 44590.5 2914.11 30
-1 5 -3 43417.3 2660.13 48
1 -5 3 47041.4 2784.63 15
1 -5 4 54765.3 2860.54 23
1 -5 4 60050.5 3215.13 15
1 -5 4 62351.1 2998.54 26
1 -5 4 56047.4 2961.12 12
1 -5 4 59478.9 2757.21 14
1 -5 4 56156 3344.29 30
1 -5 4 55650.8 3197.82 5
-1 5 -4 58663.9 3546.3 44
1 -5 4 59641.9 2906.14 18
1 -5 4 53914.6 2943.47 34
1 -5 4 52652.4 2859.15 28
1 -5 5 107230 4393.61 18
1 -5 5 110763 4531.18 12
1 -5 5 105247 4367.07 23
-1 5 -5 96624 4996.86 44
1 -5 5 109468 4395.4 26
1 -5 5 105474 4437.34 28
1 -5 5 106502 4553 34
1 -5 5 105513 4157.49 14
1 -5 6 36853.7 2188.26 28
1 -5 6 37289.9 2146.23 26
1 -5 6 38165.1 2228.71 18
1 -5 6 37463.8 2312.67 34
1 -5 6 37550.2 2205.61 12
1 -5 6 32762.7 2029.77 23
1 -5 6 38005.6 2029.72 14
1 -5 7 5198.18 720.795 26
1 -5 7 2424.34 585.8 18
1 -5 7 3425.26 683.091 34
1 -5 7 3708.95 642.391 28
1 -5 7 4918.71 708.06 12
1 -5 7 3670.32 647.366 14
1 -5 8 27622.7 1605.27 18
1 -5 8 25133 1391.86 14
1 -5 8 26053.2 1502.85 28
1 -5 9 56153.6 2224.84 18
-1 4 13 46969.3 1774.04 20
-1 4 13 42001.9 1829.26 26
-1 4 12 27798.6 1672.64 26
-1 4 12 27067.5 1507.4 20
-1 4 12 24915.3 1513.7 32
-1 4 11 48384.6 2539.14 32
-1 4 11 48801.8 2461.64 20
1 -4 -11 53821.6 2572.89 39
-1 4 10 61897 3119.19 32
1 -4 -10 67521.8 3182.55 39
-1 4 9 168470 8118.46 4
1 -4 -9 166523 6859.48 45
-1 4 9 167887 6262.45 32
1 -4 -9 176198 6159.56 35
-1 4 9 164731 6266.65 27
-1 4 9 172424 6992.83 11
1 -4 -9 181178 6355.83 39
-1 4 9 166833 6208.31 36
-1 4 8 1421.7 662.274 11
-1 4 8 952.82 781.457 4
-1 4 8 942.416 415.893 27
1 -4 -8 908.428 420.653 39
-1 4 8 1259.85 552.345 46
-1 4 8 1270.72 473.27 32
1 -4 -8 842.031 485.709 45
-1 4 8 619.21 298.675 36
1 -4 -8 1124.23 421.917 35
-1 4 7 94662.7 4475.2 44
1 -4 -7 82420.2 3804.4 9
-1 4 7 94042.4 4447.11 46
1 -4 -7 91872.8 4156.38 45
-1 4 7 92341.2 5194.22 4
1 -4 -7 89910.6 4090.38 43
-1 4 6 248946 9587.19 4
-1 4 6 248147 8742.44 46
1 -4 -6 251655 8346.06 45
1 -4 -6 244480 8444.26 43
1 -4 -6 227447 7994.56 9
-1 4 6 253980 8805.33 44
-1 4 5 21834.7 2116.76 4
1 -4 -5 20268.8 1487.36 45
1 -4 -5 22060.3 1686.28 43
-1 4 5 21948.8 1828.22 46
-1 4 5 23944.9 1889.86 44
1 -4 -5 21980.1 1478.24 9
1 -4 -4 930.298 338.866 45
-1 4 4 1364.56 550.105 46
-1 4 4 1910.8 702.198 44
1 -4 -4 1153.06 407.088 9
1 -4 -4 1597.26 522.535 43
1 -4 -4 1498.91 371.015 8
1 -4 -3 176086 6370.68 43
1 -4 -3 177168 5943.32 9
-1 4 3 178998 6786.59 44
-1 4 3 186971 6847.39 46
1 -4 -3 175854 5900.15 8
1 -4 -2 183.143 298.454 8
1 -4 -2 582.958 444.051 43
-1 4 2 376.435 580.44 44
-1 4 2 1106.06 754.79 46
-1 4 1 5534.24 768.783 48
1 -4 -1 5903.09 829.945 43
1 -4 -1 6489.53 828.457 5
1 -4 -1 6584.67 653.906 3
-1 4 1 5615.74 958.964 44
1 -4 -1 6569.07 754.281 8
-1 4 1 6075.3 1026.36 46
-1 4 0 535430 15601.6 48
-1 4 0 544348 16229.5 44
-1 4 0 577739 16306.9 46
1 -4 0 533468 15658.7 8
1 -4 0 498061 15649.8 5
1 -4 0 507414 15389.5 3
1 -4 1 5168.06 723.625 8
-1 4 -1 3064.62 620.502 46
-1 4 -1 3865.69 768.924 44
-1 4 -1 4201.91 617.08 48
1 -4 1 4567.3 687.584 5
1 -4 2 26280.5 1757.39 5
-1 4 -2 27041.1 1697.83 48
-1 4 -3 91747.8 3872.67 48
1 -4 3 92286.7 3984.54 5
1 -4 4 48746 2735.33 5
-1 4 -4 52449.4 2761.07 48
1 -4 5 55202.1 2959.62 34
1 -4 5 58241.9 2815.95 26
-1 4 -5 55747.6 3043.18 48
1 -4 5 57886 2775.37 31
1 -4 5 56196.8 2656.89 14
1 -4 5 55531.9 2883.57 12
1 -4 5 57264.9 2834.44 28
1 -4 5 55181.4 2769.47 23
1 -4 5 57893.3 2821.24 18
1 -4 5 57666.9 3077.6 5
1 -4 6 115642 4761.4 12
1 -4 6 118788 4680.09 26
1 -4 6 120518 4537.87 14
1 -4 6 117339 4954.98 34
1 -4 6 110855 4938.82 5
1 -4 6 118098 4729.57 18
-1 4 -6 119160 5153.73 48
1 -4 6 116434 4688.79 28
1 -4 6 124879 4694.43 31
1 -4 7 22890.7 1544.96 14
1 -4 7 23090.8 1634.53 31
1 -4 7 26277.6 1940.18 34
1 -4 7 22744.4 1721.94 18
1 -4 7 23403.5 1693.15 28
1 -4 7 24651.3 1669.09 26
1 -4 8 3134.58 569.815 18
1 -4 8 3798.69 609.004 26
1 -4 8 2669.25 530.624 28
1 -4 8 2702.69 521.175 14
1 -4 8 4192.78 805.315 34
1 -4 9 26404.9 1514.95 26
1 -4 9 24561.1 1474.18 28
1 -4 9 27584.1 1638.01 18
1 -4 9 25932 1476.62 14
1 -4 9 25901.2 1736.45 34
1 -4 10 56737.9 2298.03 18
1 -4 10 57916.2 2184.78 14
-1 3 13 6201.18 547.932 26
-1 3 13 173.723 99.1371 20
-1 3 12 30457.8 1853.72 26
-1 3 12 33391.9 1744.88 17
-1 3 12 32515 1761.59 32
-1 3 12 33676.9 1758.2 20
-1 3 11 48888.4 2614.48 32
-1 3 11 56677.9 2675.82 20
-1 3 11 53944.5 2631.23 17
-1 3 10 36899.9 2262.17 32
-1 3 10 37237.5 2204.51 17
-1 3 9 79811.8 4338.42 11
1 -3 -9 91965.1 4490.34 45
-1 3 9 87781.3 3894.65 32
-1 3 9 81673.6 5175.53 4
-1 3 9 85601.9 3922.69 27
1 -3 -9 95925 4073.76 39
-1 3 8 25440.1 2193.36 46
-1 3 8 23997 2048.13 11
1 -3 -8 25256.1 2027.63 45
-1 3 8 26418.2 2611.32 4
-1 3 7 1142.51 563.548 11
-1 3 7 2018.15 961.355 4
-1 3 7 424.38 395.986 46
1 -3 -7 1024.21 457.819 45
-1 3 6 23090.4 2198.15 4
1 -3 -6 25576.5 1757.01 45
1 -3 -6 19333.4 1529.23 9
1 -3 -6 24763.6 1644.79 43
-1 3 6 22602.3 1797.68 46
-1 3 6 22986.6 1808.43 44
-1 3 5 221151 8255.06 4
1 -3 -5 225325 7337.03 45
1 -3 -5 227825 7388.41 43
-1 3 5 218610 7677.07 46
-1 3 5 222610 7719.91 44
1 -3 -5 205337 7207.4 9
1 -3 -4 57985.4 2622.79 9
1 -3 -4 58648.1 2576.37 45
1 -3 -4 56324.4 2672.22 43
1 -3 -4 59469.3 2313.88 8
-1 3 4 61277.1 3022.93 44
-1 3 4 60892.2 2990.82 46
1 -3 -3 40950.5 2101.15 43
1 -3 -3 47267.5 2145.23 9
-1 3 3 46219.9 2517.31 44
-1 3 3 42586.3 2034.28 48
-1 3 3 41336 3759.39 1
-1 3 3 50343.9 2585.69 46
-1 3 3 45155.1 2209.87 49
1 -3 -3 38447.5 1905.2 45
1 -3 -3 41586.5 1862.25 8
1 -3 -2 428271 11866.9 8
1 -3 -2 395887 11726.8 45
-1 3 2 395549 12067.9 48
1 -3 -2 413029 12174 43
1 -3 -2 402499 11928.8 9
-1 3 2 422085 12679.4 44
-1 3 2 371713 12474 46
1 -3 -2 397093 11464.8 3
-1 3 2 442501 15770.5 1
-1 3 1 47298.5 2157.39 48
1 -3 -1 51652.4 1945.49 3
-1 3 1 58456.9 3995.37 40
-1 3 1 53481.2 2594.23 46
-1 3 1 39404.8 2337.17 44
-1 3 1 43135.3 3595.82 1
1 -3 -1 52537.5 2359.82 43
1 -3 -1 51945.7 2191.1 8
1 -3 -1 51946.7 3099.1 2
1 -3 -1 46514.3 2062.92 9
-1 3 0 12295.7 1069.23 44
1 -3 0 10672 873.845 8
-1 3 0 10664.3 1566.88 40
1 -3 0 10471.1 1285.93 2
1 -3 0 10394.2 776.648 3
1 -3 0 10282.5 926.857 43
-1 3 0 12590.2 1047.82 46
-1 3 0 11677.7 844.132 48
1 -3 0 11040.9 896.228 5
-1 3 -1 735025 20609.3 48
1 -3 1 742021 20844.2 8
1 -3 1 716200 20754 5
1 -3 2 42669.4 2071.58 10
-1 3 -2 38027.9 1863.41 48
1 -3 2 37790 1960.6 8
1 -3 2 41692.3 1984.1 5
1 -3 3 1240.7 442.836 10
-1 3 -3 78.4707 270.189 48
1 -3 3 222.632 279.525 5
-1 3 -3 302.164 223.417 42
1 -3 3 935.793 358.612 11
1 -3 4 202281 6922.68 5
-1 3 -4 204048 6928.14 48
1 -3 4 208931 6887.55 11
-1 3 -4 200604 6737.8 42
1 -3 4 207948 7065.94 10
-1 3 -5 30070.2 1967.24 48
1 -3 5 31496.1 2035.17 10
-1 3 -5 30398.5 1906.29 42
1 -3 5 31449 1962.4 5
1 -3 5 29731.4 1875.19 11
1 -3 6 44686.1 2574.36 34
1 -3 6 45440.7 2395.45 26
-1 3 -6 44240.7 2651.66 48
1 -3 6 42109.5 2209.89 14
1 -3 6 43116 2477.41 11
1 -3 6 46453.7 2361.89 31
1 -3 6 43121.9 2530.37 5
1 -3 6 48924.6 2634.37 38
1 -3 6 44688.9 2382.38 18
1 -3 6 46375.1 2693.59 10
-1 3 -6 45317.8 2611.74 42
1 -3 7 37980.9 2161.05 31
1 -3 7 37671.7 2429.21 34
1 -3 7 38749.8 2213.11 18
1 -3 7 38149 2103.57 14
1 -3 7 43233.6 2562.21 38
1 -3 7 35877.9 2151.5 26
-1 3 -7 38059.7 2554.75 48
1 -3 7 34002.5 2093.16 28
1 -3 7 35533.4 2345.72 5
1 -3 7 35567.9 2277.56 11
1 -3 8 30773.3 1907.71 31
1 -3 8 32237.4 1998.5 18
1 -3 8 29013.7 2117.55 34
1 -3 8 28421.7 1867.23 26
1 -3 8 28627.2 1880.51 28
1 -3 8 30964 1864.44 14
1 -3 9 15966.9 1280.84 26
1 -3 9 17267 1547.01 34
1 -3 9 14685.7 1324.15 18
1 -3 9 13394.7 1156.04 14
1 -3 9 15884.8 1246.4 28
1 -3 9 17312.9 1309.09 31
1 -3 10 21501.2 1370.83 26
1 -3 10 21948.9 1581.01 34
1 -3 10 20004.1 1312.8 14
1 -3 10 22019.9 1425.27 18
1 -3 11 52868.7 2070.25 14
-1 2 13 7596.59 632.245 17
-1 2 12 1243.57 415.042 17
-1 2 12 874.512 306.11 20
-1 2 12 1820.6 455.437 26
-1 2 12 1001.52 316.294 14
-1 2 11 51968.2 2636.74 32
-1 2 11 54058.3 2530.38 14
-1 2 11 55690.3 2781.39 17
-1 2 11 51966.3 2600.07 20
-1 2 11 54417 2873.72 26
-1 2 10 28611.2 1795.06 14
-1 2 10 28139.7 1979.06 17
-1 2 10 28747.3 1860.64 20
-1 2 10 24560.9 1819.23 32
-1 2 9 14770.1 1415.75 17
-1 2 9 16509.3 1417.65 32
-1 2 9 16026.9 1324.69 14
1 -2 -9 16286.8 1515.28 42
1 -2 -9 17332.9 1773.02 45
-1 2 9 15212.6 1689.08 11
-1 2 8 115773 6030.79 4
1 -2 -8 128888 5384.98 45
-1 2 8 121801 5361.29 11
-1 2 7 35077.5 2381.32 46
1 -2 -7 37291.8 2321.77 45
-1 2 7 35862.4 2328.2 11
-1 2 7 35293.8 2826.62 4
-1 2 6 10775.1 1153.79 11
-1 2 6 9622.13 1339.02 4
1 -2 -6 9306.28 1079.28 45
-1 2 6 11155.5 1203.79 46
-1 2 5 72544.9 3290.58 44
1 -2 -5 76961.1 3058.71 43
-1 2 5 74748.1 3761.44 4
1 -2 -5 83123.8 3312.28 45
-1 2 5 72598.3 3320.23 46
-1 2 4 139880 5243.9 46
1 -2 -4 132697 4595.63 8
-1 2 4 149684 4767.11 49
1 -2 -4 166706 5186.04 45
-1 2 4 158090 5353.72 44
1 -2 -4 160932 5066.2 43
1 -2 -4 149056 7271.13 2
-1 2 4 154665 5738.87 4
1 -2 -3 103912 3862.71 9
1 -2 -3 102289 3573.71 8
-1 2 3 113360 4186.12 44
-1 2 3 106734 3805.16 49
1 -2 -3 114709 3875.12 43
-1 2 3 113585 6380.38 40
-1 2 3 116239 4232.31 46
1 -2 -3 118251 3844.33 45
-1 2 3 119169 5851.29 1
1 -2 -3 111814 6837.51 41
1 -2 -2 3168.38 462.823 43
1 -2 -2 3541.04 1061.52 41
-1 2 2 5041.48 679.567 44
1 -2 -2 3797.31 510.957 9
-1 2 2 4093.94 1082.42 40
-1 2 2 3467.35 633.894 46
-1 2 2 2531.89 822.829 1
1 -2 -2 3629.88 430.089 45
1 -2 -2 5424.71 1230.59 1
-1 2 2 2191.08 1012.88 41
1 -2 -2 3192.77 422.286 8
1 -2 -1 456876 12963.4 9
1 -2 -1 456270 12895.9 8
-1 2 1 442962 15265.2 1
1 -2 -1 486554 16106.5 41
1 -2 0 7006.86 614.002 8
1 -2 0 7217.06 502.752 3
1 -2 0 7505.29 821.786 2
1 -2 0 6566.03 1155.51 41
-1 2 0 7350.76 643.676 46
-1 2 0 7507.84 1304.87 41
-1 2 0 7526.83 672.928 44
1 -2 0 6839.42 626.825 43
1 -2 1 18454.6 1040.24 10
1 -2 1 19342.9 1998.78 41
1 -2 1 19927 1503.68 2
1 -2 1 18913.3 991.428 5
1 -2 1 18138.3 1059.8 8
-1 2 -1 19057.8 1515.87 2
-1 2 -1 17846 916.438 48
-1 2 -1 18363.3 1990.85 41
1 -2 2 570209 17548.6 2
1 -2 2 569103 15901.2 5
1 -2 2 558207 15971.5 8
-1 2 -2 492053 17847.3 40
1 -2 2 567729 16025.1 10
-1 2 -2 572216 18885.6 41
-1 2 -2 565675 17561.3 2
1 -2 2 559078 15824.4 11
1 -2 3 19151.7 1251.39 10
1 -2 3 19929.8 1171.52 8
-1 2 -3 21356.3 2138.53 2
1 -2 3 20351.5 1163.35 11
1 -2 3 22054.4 1224.19 5
1 -2 4 1049.02 339.473 5
1 -2 4 1167.06 356.862 11
1 -2 4 635.358 380.412 10
1 -2 5 250420 7895.23 10
1 -2 5 235252 7627.34 11
1 -2 5 227432 7662.09 5
1 -2 6 23060.2 1586.77 11
1 -2 6 24791 1763.15 10
-1 2 -6 25211.6 1837.6 42
1 -2 6 22973.1 1624.92 5
1 -2 7 9308.62 958.233 14
1 -2 7 6977.55 945.478 34
1 -2 7 9642.65 1051.31 11
1 -2 7 8861.64 1118.81 38
1 -2 7 7332.36 871.886 18
1 -2 7 7615.78 1027.74 10
-1 2 -7 8726.43 1152.92 42
1 -2 8 170542 6049.23 18
1 -2 8 165054 5906.66 14
1 -2 8 160526 6367.03 34
-1 2 -8 179909 7117.06 42
1 -2 8 156672 5862.82 28
1 -2 8 170394 6480.79 38
1 -2 8 166294 6519.55 10
1 -2 8 154064 6109.25 11
1 -2 8 158879 5993.15 26
1 -2 8 171967 6031.79 31
1 -2 9 82015.3 3583.5 14
1 -2 9 82662.3 3980.97 34
1 -2 9 80699.9 3653.71 18
1 -2 9 85333.5 3661.48 31
1 -2 9 86567.2 3746.51 26
1 -2 10 5852.44 894.353 34
1 -2 10 6746.13 807.628 31
1 -2 10 7267.67 892.032 14
1 -2 10 6620.11 833.348 26
1 -2 10 7255.24 849.092 18
1 -2 11 27718.5 1575.81 18
1 -2 11 32304.7 1608.13 31
1 -2 11 29525.5 1652.49 26
1 -2 11 31566.2 1851.9 34
1 -2 11 30031 1633.51 14
-1 1 13 97515 3322.42 17
-1 1 12 2189.78 393.107 14
-1 1 12 2848.66 579.921 17
-1 1 12 2377.1 463.371 26
-1 1 11 809.132 558.127 17
-1 1 11 1155.57 387.01 20
-1 1 11 950.325 383.616 14
-1 1 11 798.747 398.078 26
-1 1 10 30663.2 2133.59 26
-1 1 10 32746.2 1996.04 20
-1 1 10 32816.2 1996.11 14
-1 1 10 32246.7 2178.16 17
-1 1 9 39181.4 2259.03 14
-1 1 9 41468.3 2821.69 11
-1 1 9 41397.1 2531.62 17
1 -1 -9 45871.2 2865.64 42
-1 1 9 38813.4 2256.68 20
1 -1 -9 44984.8 2971.8 45
-1 1 8 22715.6 1907.13 11
1 -1 -8 22556.6 1848.63 42
1 -1 -8 22649.9 1946.76 45
1 -1 -7 156466 5959.23 45
-1 1 7 145485 6405.02 4
-1 1 7 152282 5860.35 11
-1 1 6 156084 5817.36 11
1 -1 -6 170575 6008.6 45
-1 1 6 164997 6529.7 4
-1 1 5 1313.19 481.343 46
1 -1 -5 1601.99 518.036 45
-1 1 5 1186.05 514.06 4
-1 1 5 818.23 379.868 11
1 -1 -4 3277.15 1072.93 1
-1 1 4 3657.07 566.569 46
-1 1 4 3822.66 460.926 49
1 -1 -4 3543.18 432.922 43
1 -1 -4 2535.5 877.334 2
-1 1 4 5051.5 1263.63 40
-1 1 4 3647.8 510.187 44
-1 1 4 2114.85 805.486 1
-1 1 4 3222.47 691.283 4
1 -1 -4 3654.89 563.678 45
1 -1 -3 283205 10027.4 2
1 -1 -3 260724 7923.29 43
1 -1 -3 267373 7796.36 8
1 -1 -3 286194 8176.25 45
-1 1 3 269822 8164.95 44
-1 1 3 255788 10602.3 40
-1 1 3 261395 9694.04 1
1 -1 -3 266026 10874.4 41
-1 1 3 273057 8206.63 46
-1 1 3 274796 7943.94 49
1 -1 -3 268557 10132.7 1
-1 1 2 14746.3 1405.36 1
1 -1 -2 14196.4 1527.83 1
1 -1 -2 14062.3 835.973 45
1 -1 -2 13572.6 795.204 43
-1 1 2 15397.2 925.989 44
-1 1 2 16395.8 1775.75 40
1 -1 -1 2926.29 977.795 41
1 -1 -1 3656.79 480.046 9
1 -1 -1 3529.44 816.284 1
-1 1 1 3437.59 1089.6 41
-1 1 1 3805.84 732.142 1
1 -1 0 502040 15848 41
-1 1 0 566933 15248.9 1
-1 1 0 571367 16406.4 41
1 -1 0 491414 14266.6 2
1 -1 1 3320.78 445.065 2
1 -1 1 3791.05 363.488 10
-1 1 -1 3151.1 439.762 2
1 -1 1 2968.87 352.581 8
1 -1 1 2337.36 583.679 41
-1 1 -1 3244.02 651.065 41
-1 1 -2 5336.56 942.185 40
-1 1 -2 5674.44 781.815 2
1 -1 2 6272.56 444.635 11
1 -1 2 5631.45 475.419 8
-1 1 -2 6406.29 1035.46 41
1 -1 2 6756.4 482.117 5
-1 1 -3 156774 6961.45 41
-1 1 -3 146195 6257.48 1
1 -1 3 155380 4884.87 11
-1 1 -3 149981 6359.72 2
1 -1 3 165235 4943.52 5
1 -1 3 155719 4836.72 8
-1 1 -3 165214 6859.07 40
1 -1 3 165641 5071.52 10
1 -1 4 2918.71 406.557 11
1 -1 4 2679.48 451.956 10
-1 1 -4 1953.19 727.999 2
-1 1 -4 2511.99 791.294 40
1 -1 4 2293.35 401.122 5
1 -1 5 6186.84 669.177 5
1 -1 5 5440.9 630.874 11
1 -1 5 5600.46 681.376 10
1 -1 6 141238 4979.42 5
1 -1 6 137174 5051.96 10
-1 1 -6 139646 5291.71 45
1 -1 6 130373 4854.06 11
1 -1 7 25717.8 1811.84 10
1 -1 7 24013.8 1637.02 11
1 -1 8 3345.54 714.574 17
1 -1 8 1938.18 465.268 18
1 -1 8 2985.86 704.695 34
1 -1 8 1922.53 560.017 10
1 -1 8 2144.28 580.385 26
1 -1 8 1595.85 408.314 14
1 -1 8 1612.34 448.863 31
1 -1 8 1281.28 443.78 11
1 -1 8 2254.53 666.149 38
1 -1 9 80134.2 3679.92 26
-1 1 -9 86665.1 4751 42
1 -1 9 75270.7 3788.02 34
1 -1 9 80287.4 3797.11 17
1 -1 9 77862.3 3542.92 14
1 -1 9 86540.1 4026.73 38
1 -1 9 77257.8 3509.8 18
1 -1 9 82348.7 3631.99 31
1 -1 10 46007.2 2636.52 17
1 -1 10 48092.2 2492.44 31
1 -1 10 40777.4 2311.65 18
1 -1 10 42529 2400.3 14
1 -1 10 41993.4 2571.84 34
1 -1 10 49317.2 2595.62 26
1 -1 11 7057.64 872.344 26
1 -1 11 7831.22 839.126 31
1 -1 11 7396.08 888.844 14
1 -1 11 6814.36 781.84 18
1 -1 11 5728.77 804.937 17
1 -1 11 6768.66 907.136 34
1 -1 12 52920.5 2268.06 14
1 -1 12 49029.7 2204.53 17
1 -1 12 53518.2 2303.8 26
-1 0 12 83144.6 2448.51 17
-1 0 12 81834.2 2077.86 14
-1 0 11 1766.38 451.052 14
-1 0 11 919.452 362.788 26
-1 0 11 1721.83 543.114 17
-1 0 11 1623.41 403.624 34
-1 0 10 4088.38 906.28 17
-1 0 10 3676.16 692.824 26
-1 0 10 2832.83 582.268 14
-1 0 10 2703.55 585.967 34
-1 0 9 112414 4395.94 20
-1 0 9 119123 4589.34 14
-1 0 9 110075 4815.2 17
1 0 -9 121482 5501.17 45
-1 0 9 111320 4690.11 26
1 0 -9 113358 5350.86 42
-1 0 9 107472 5063.99 11
-1 0 9 108818 4728.81 34
-1 0 8 20684.4 1791.25 11
-1 0 8 19509 1636.61 17
1 0 -8 23884.5 2027.69 45
1 0 -8 19788.8 1861.36 42
-1 0 7 14373.8 1362.46 11
1 0 -7 13438.6 1367.14 42
1 0 -7 15467.5 1477.88 45
-1 0 6 178704 6235.84 11
1 0 -6 175556 6346.53 45
-1 0 5 314791 9846 4
-1 0 5 299400 9274.63 49
1 0 -5 301590 9563.71 45
-1 0 5 308327 9414.92 11
-1 0 4 80362.7 3028.45 11
-1 0 4 85633.1 3354.2 4
1 0 -4 81232.3 3149.24 45
-1 0 4 79568.5 2692.66 10
-1 0 4 83669.4 2993.11 49
-1 0 3 186401 5767.89 11
1 0 -3 189811 5922.5 45
-1 0 3 188809 7834.58 40
1 0 -3 188263 7557.92 1
-1 0 3 185794 5836.08 46
1 0 -3 201708 7838.52 2
-1 0 3 185416 6049.43 4
-1 0 3 198632 5784.97 49
-1 0 2 230897 8482.24 40
-1 0 2 237064 6912.91 46
1 0 -2 241609 7016.79 45
1 0 -2 224208 8059.58 1
-1 0 2 235569 6859.56 11
1 0 -2 250353 8370.94 2
1 0 -1 57307.1 2452.17 1
1 0 -1 62789.6 2620.53 2
-1 0 1 60471.8 2537.85 2
-1 0 0 34827.2 1300.17 2
1 0 0 33211.8 1318.4 2
-1 0 0 32149.7 1933.75 41
1 0 1 314472 9576.62 41
-1 0 -1 326599 9594.32 41
-1 0 -1 327852 9222.81 1
-1 0 -2 26983.2 1672.89 2
-1 0 -2 25771.6 1543.92 1
-1 0 -2 25818.9 1697.83 41
-1 0 -2 28004.2 2083.53 40
-1 0 -3 4143.69 882.965 40
1 0 3 5779 430.361 5
1 0 3 3865.97 860.645 40
-1 0 -3 6308.06 919.579 1
1 0 3 6403.99 450.854 11
-1 0 -3 6108.66 980.046 2
1 0 4 364448 10207.5 11
1 0 4 349311 10176.4 5
1 0 4 348841 10332.8 10
-1 0 -4 345404 12447.1 1
-1 0 -4 375826 12928.7 2
-1 0 -4 388718 13220.7 40
1 0 5 6015.57 1385.11 40
1 0 5 7255.25 670.961 11
1 0 5 7640.9 737.854 10
-1 0 -5 8863.46 1748.7 40
1 0 5 8109.64 731.963 5
1 0 6 316.836 258.7 10
-1 0 -6 -277.323 375.927 45
1 0 6 132.454 217.439 11
1 0 7 78938 3494.62 10
-1 0 -7 85124.5 3831.69 45
1 0 7 76825.5 3340.53 11
-1 0 -8 15940 1586.93 45
1 0 8 12591.8 1275.73 10
1 0 8 12419.8 1216.33 11
1 0 9 7759.37 1007.29 11
1 0 9 6785.81 1048.56 17
1 0 9 6722.97 933.166 26
1 0 9 7447.6 986.099 34
1 0 9 6647.34 861.558 31
1 0 9 6665.97 872.76 14
1 0 9 7883.99 1070.95 38
1 0 9 6299.3 827.566 18
1 0 10 116818 4686.28 31
1 0 10 112297 4753.41 26
1 0 10 110591 4720.6 34
1 0 10 115514 4695.6 14
1 0 10 107419 4396.74 18
1 0 10 127368 4958.93 38
1 0 10 113803 4912.71 17
1 0 11 14133.3 1268.38 34
1 0 11 14370 1319.33 26
1 0 11 12688.1 1229.29 14
1 0 11 13154.7 1189.2 31
1 0 11 13860.1 1366.54 17
1 0 12 7509.04 856.463 26
1 0 12 6109.12 810.726 17
1 0 12 7347.38 838.718 14
1 0 13 45916.6 1881.23 14
1 0 13 44879.1 1892.85 26
1 0 13 45384.3 1912.96 17
-1 -1 12 667.812 294.185 17
-1 -1 12 214.997 200.611 14
-1 -1 12 395.969 204.48 18
-1 -1 11 100532 3656.57 14
-1 -1 11 92846.4 3767.48 34
-1 -1 11 92772.9 3825.25 17
-1 -1 10 613.105 358.14 14
-1 -1 10 360.971 430.718 34
-1 -1 10 400.547 421.049 17
-1 -1 9 2598.24 731.702 11
1 1 -9 3253.06 958.111 42
-1 -1 9 3183.76 654.684 26
-1 -1 9 2341.71 641.346 34
-1 -1 9 2156.11 536.766 14
-1 -1 9 4010.31 859.95 17
1 1 -8 87974.6 4607.43 42
-1 -1 8 90440.7 3887.5 26
-1 -1 8 93860.5 3880.19 14
-1 -1 8 92973.6 4199.85 17
-1 -1 8 93293.3 4333.41 11
-1 -1 8 92922.2 4226.41 34
1 1 -7 39815.1 2539.02 45
1 1 -7 41675.8 2693.9 42
-1 -1 7 44406.7 2548.49 11
1 1 -6 6284.57 909.535 42
1 1 -6 6565.69 880.297 45
-1 -1 6 6903.66 864.78 11
1 1 -5 197516 6794.81 45
-1 -1 5 208939 6766.24 11
1 1 -5 206753 6987.56 42
-1 -1 4 211695 6487.78 5
1 1 -4 196942 6465.52 45
-1 -1 4 198837 6136.92 10
-1 -1 4 200458 6412.49 11
-1 -1 4 200896 6481.27 49
1 1 -4 206300 6597.55 42
-1 -1 3 125287 4226.11 47
-1 -1 3 140489 5456.97 40
-1 -1 3 138200 6360.1 2
-1 -1 3 127491 4043.35 10
1 1 -3 129610 4312.14 45
-1 -1 3 133447 4359.39 49
1 1 -3 134483 6331.16 2
-1 -1 3 136614 4310.73 11
1 1 -3 132950 4405.22 42
1 1 -3 130106 6102.63 1
-1 -1 3 137126 4335.07 5
-1 -1 2 141102 4500.75 47
-1 -1 2 149719 4516.13 11
-1 -1 2 148966 4521.05 5
-1 -1 2 150085 6135.93 2
-1 -1 2 156563 5340.38 40
-1 -1 2 147165 4560.15 49
1 1 -2 140610 4491.29 45
1 1 -1 132104 5168.79 2
-1 -1 1 129168 5134.99 2
1 1 0 56193.6 2631.64 2
-1 -1 0 55551.3 2583.71 2
-1 -1 -1 42344 2330.6 40
1 1 1 37096.6 2214.5 40
1 1 2 602988 18754.1 40
-1 -1 -2 547528 18655.9 1
-1 -1 -3 36481.2 2717.56 40
1 1 3 36386.6 1701.42 4
-1 -1 -3 41940.4 2783.87 1
1 1 3 34026.9 2694.27 40
1 1 3 31341.1 2219.46 1
1 1 3 34261.3 1711.85 7
1 1 4 2060.75 501.956 7
1 1 4 1370.08 603.563 1
1 1 4 2988.91 566.347 4
1 1 4 2471.8 893.52 40
1 1 4 2383.76 363.697 10
-1 -1 -4 2014.69 703.532 40
-1 -1 -4 2523.47 817.192 1
1 1 4 2290.27 316.393 11
-1 -1 -4 2499.18 391.464 43
-1 -1 -5 304866 12202.2 40
1 1 5 306063 8760.99 11
1 1 5 278878 8856.05 10
-1 -1 -5 290040 8840.63 43
1 1 6 2686.05 469.321 11
1 1 6 2884.68 510.386 10
-1 -1 -6 1864.84 514.377 45
1 1 7 14533.8 1180.53 11
-1 -1 -7 15753.6 1420.04 45
1 1 7 15296.8 1305.26 10
1 1 8 142220 5480.32 11
1 1 8 145631 5632.26 10
-1 -1 -8 153290 5989.47 45
1 1 9 5357.77 834.008 14
1 1 9 5132.05 820.411 11
1 1 9 6255.98 894.44 26
1 1 9 4442.69 735.223 31
1 1 9 4954.09 824.21 10
1 1 9 5408.52 932.036 17
-1 -1 -9 5596.74 1014.56 45
1 1 9 4762.04 790.648 38
1 1 10 4980.86 815.449 31
1 1 10 7424.57 961.381 38
1 1 10 7642.7 1143.72 17
-1 -1 -10 7379.76 1180.27 45
1 1 10 6948.37 967.59 14
1 1 10 6802.97 1023.3 26
1 1 11 101563 4373.66 17
1 1 11 96007.5 4296.76 26
1 1 11 96683.4 4176.5 14
1 1 11 94840.6 4053.24 31
1 1 12 17888.8 1430.41 26
1 1 12 15861.7 1295.64 14
1 1 12 16182 1211.58 31
1 1 12 18429 1470.21 17
1 1 13 17412.5 1165.79 17
1 1 13 15863.8 1055.85 14
-1 -2 11 2196.02 444.272 18
-1 -2 11 2288.8 417.294 14
-1 -2 11 3097.57 549.487 34
-1 -2 11 3396.76 569.961 17
-1 -2 11 2014.56 402.932 28
-1 -2 10 73066.7 3293.74 17
-1 -2 10 72505.2 3198.43 18
-1 -2 10 67337.8 3347.1 34
-1 -2 10 75907.7 3185.85 14
-1 -2 10 66459 3107.54 28
-1 -2 9 3586.45 749.998 17
-1 -2 9 2672.73 605.474 14
-1 -2 8 3322.69 639.698 14
1 2 -8 3150.81 820.717 48
-1 -2 8 2505.72 664.219 11
-1 -2 8 3191.55 730.177 34
1 2 -8 3747.15 983.781 42
-1 -2 8 3808.3 802.678 17
-1 -2 7 154115 5632.52 14
1 2 -7 159631 6625.14 42
-1 -2 7 160877 6135.37 34
-1 -2 7 159697 5955.81 17
-1 -2 7 157361 6103.91 11
-1 -2 6 11257.1 1180.67 5
1 2 -6 11443.4 1338 42
-1 -2 6 11201.3 1148.77 11
-1 -2 5 1429.89 476.648 5
1 2 -5 1420.82 488.518 42
-1 -2 5 1385.1 384.981 11
-1 -2 4 172422 5766.6 11
-1 -2 4 169653 5565.21 10
-1 -2 4 175842 5850.34 5
1 2 -4 172109 5941.6 42
1 2 -3 15528.2 927.046 45
-1 -2 3 15015.3 1032.26 5
-1 -2 3 15201.2 1033.73 11
1 2 -3 14992.2 1081.01 42
-1 -2 3 14840.6 1066.41 47
-1 -2 3 15031.4 938.917 10
1 2 -2 93771.8 5122.75 2
1 2 -2 95819.6 3436.99 42
-1 -2 2 103075 3419.59 11
-1 -2 2 97031.5 3458 49
-1 -2 2 91779.4 3479.67 47
-1 -2 2 107930 3486.05 3
-1 -2 2 100284 3416.45 5
-1 -2 2 108917 5371.39 2
1 2 -2 87305.4 4873.19 41
1 2 -1 287590 10444.9 41
1 2 -1 305470 8992.43 42
-1 -2 1 313566 8998.84 3
-1 -2 1 313989 10927.2 2
-1 -2 1 314505 8943.78 5
-1 -2 1 295560 9058.08 47
-1 -2 1 316747 8939.36 11
-1 -2 0 156432 4655.22 5
-1 -2 0 155523 4763.18 3
-1 -2 0 151700 4918.4 40
-1 -2 0 158247 4654.52 11
1 2 0 155211 4782.92 42
-1 -2 0 147296 6122.4 2
1 2 0 149575 5691.11 41
-1 -2 0 158520 4706.58 49
1 2 1 871.232 419.166 40
1 2 1 418.142 325.128 41
-1 -2 -1 864.994 435.122 40
-1 -2 -1 744.465 290.279 41
-1 -2 -1 739.877 571.757 2
-1 -2 -2 305784 9778.95 41
1 2 2 265155 8458.37 42
-1 -2 -2 293533 9922.59 40
1 2 2 249838 10665.9 1
1 2 2 295530 9958.78 41
1 2 2 280080 9948.52 40
1 2 3 128050 6468.33 1
1 2 3 112480 4020.99 4
-1 -2 -3 115317 3834.69 43
1 2 3 111956 3841.7 44
1 2 3 117810 4317.27 7
-1 -2 -3 117780 6163.11 1
1 2 3 107614 5662.26 40
1 2 4 2841.71 1077.95 40
-1 -2 -4 2248.36 925.128 41
-1 -2 -4 2168.81 428.125 43
1 2 4 2717.85 384.399 46
-1 -2 -4 1927.1 794.769 40
1 2 4 2277.97 390.838 44
1 2 4 2405.04 556.618 4
1 2 4 2349.64 571.816 7
1 2 4 1805.89 636.094 1
-1 -2 -4 1693.08 885.698 1
1 2 5 18246.9 1210.33 10
1 2 5 17071.4 1466.14 7
1 2 5 17442.4 1464.36 4
1 2 5 15886.4 1042.3 44
1 2 5 15826 1035 46
-1 -2 -5 16053.9 1159.66 43
1 2 6 296327 9874.86 7
-1 -2 -6 280311 9126.51 45
1 2 6 319578 10036.2 4
-1 -2 -6 258359 8861.3 43
1 2 6 294088 9106.82 10
1 2 6 300010 8963.85 11
1 2 7 65503.7 3067.92 10
1 2 7 67215.5 2997.57 11
-1 -2 -7 67061 3189.63 45
1 2 8 6383.34 887.271 10
-1 -2 -8 5745.05 901.026 45
1 2 8 5922.73 844.929 11
-1 -2 -9 217001 7794.12 45
1 2 9 196467 7383.17 11
1 2 9 197535 7408.31 10
1 2 10 334.86 523.643 17
1 2 10 -55.0855 352.517 11
1 2 10 359.578 465.485 14
-1 -2 -10 -35.932 427.824 45
1 2 10 576.844 418.09 31
1 2 10 105.848 361.887 26
1 2 11 4026.26 797.218 26
1 2 11 3007.68 663.154 14
1 2 11 3572.71 744.744 17
1 2 11 2897.9 613.157 31
1 2 12 97438.4 4261.6 26
1 2 12 108129 4293.39 17
1 2 12 104678 4174.65 14
1 2 12 98036.7 3947.27 31
1 2 13 16300.9 1202.18 17
1 2 13 16089.3 1204.67 26
1 2 13 17531.5 1187.35 14
-1 -3 11 141.551 202.051 34
-1 -3 11 -2.36094 184.815 14
-1 -3 11 39.1083 197.188 18
-1 -3 10 704.871 410.065 34
-1 -3 10 1158.4 389.485 14
-1 -3 10 1071.51 384.32 18
-1 -3 10 959.312 353.202 28
-1 -3 9 98787.3 4129.81 28
-1 -3 9 101559 4107.46 17
-1 -3 9 101062 4024.56 23
-1 -3 9 103528 4082.5 14
-1 -3 9 100136 4437.98 34
-1 -3 9 103776 4181.37 18
-1 -3 8 1791.94 574.148 14
-1 -3 8 338.674 388.071 34
-1 -3 8 1216.72 489.739 17
-1 -3 8 684.645 420.262 18
-1 -3 7 2231.69 603.525 17
-1 -3 7 2112.53 591.905 11
1 3 -7 1361.23 520.968 48
-1 -3 7 2332.14 624.514 34
-1 -3 7 2662.6 635.287 14
1 3 -6 200100 7321.68 48
1 3 -6 193707 7342.13 42
-1 -3 6 179531 6892.72 5
-1 -3 6 185270 6883.81 11
1 3 -5 41439.1 2475.66 48
1 3 -5 43301.2 2562.89 42
-1 -3 5 39512.1 2332 5
-1 -3 5 44178.3 2397.28 11
-1 -3 4 9183.46 977.678 5
1 3 -4 8599.57 965.951 48
1 3 -4 8260.5 964.425 42
-1 -3 4 9277.43 955.644 11
-1 -3 3 197782 6425.79 11
1 3 -3 191242 6459.82 48
1 3 -3 193693 6492.18 42
-1 -3 3 190550 6414.11 5
1 3 -2 110420 4051.22 42
1 3 -2 106098 4035.8 48
-1 -3 2 116978 4058.39 11
-1 -3 2 116593 4297.54 47
-1 -3 2 120210 4175.92 3
-1 -3 2 112499 4033.33 5
1 3 -1 8283.26 1534.24 2
1 3 -1 6270.03 1195.16 41
1 3 -1 6740.83 687.574 42
-1 -3 1 7808.56 686.148 5
-1 -3 1 7297.15 683.96 11
-1 -3 1 7081.89 720.63 3
-1 -3 1 6366.87 725.495 47
1 3 -1 7943.4 741.465 48
-1 -3 0 59744.1 2438.22 47
-1 -3 0 61052.9 2391.58 3
-1 -3 0 56923.2 3532.84 41
1 3 0 63984.7 3730.44 41
1 3 0 58507.5 2330.18 42
-1 -3 0 59736.8 3897.57 2
-1 -3 0 60679.6 2245.87 43
-1 -3 0 59696 2260.97 5
1 3 0 63770.9 2447.45 48
1 3 0 51729.9 2294.01 40
-1 -3 0 59666.7 2268.25 11
1 3 1 120555 4149.64 42
-1 -3 -1 114087 5303.61 41
-1 -3 -1 119972 3971.96 5
-1 -3 -1 116904 4086.77 47
1 3 1 128619 4350.24 48
1 3 1 119766 5154.29 40
-1 -3 -1 132659 5171.33 40
1 3 1 133406 5889.84 41
-1 -3 -1 132863 4137.34 43
-1 -3 -1 123912 6050.67 2
-1 -3 -2 1128.91 434.37 41
1 3 2 1533.65 467.804 44
-1 -3 -2 843.859 301.379 43
-1 -3 -2 1041.14 272.722 47
1 3 2 817.368 359.366 4
-1 -3 -2 991.533 461.126 40
1 3 2 774.534 568.871 40
1 3 2 899.725 354.121 42
1 3 2 1172.58 734.792 1
1 3 3 33756.4 2124.62 48
-1 -3 -3 30662.9 2766.75 40
1 3 3 32367.1 1796.75 4
1 3 3 35367.8 3725.29 1
1 3 3 36806.8 3202.83 40
1 3 3 39242.8 2058.66 44
-1 -3 -3 30383.4 1645.36 43
-1 -3 -3 37998.7 3074.29 41
1 3 3 39098.1 1796.95 46
-1 -3 -3 32303.5 1417.68 47
1 3 4 243934 8154.77 7
1 3 4 250342 7972.35 48
1 3 4 241926 7532.97 44
1 3 4 225580 7131.61 46
-1 -3 -4 219752 9930.86 40
1 3 4 229924 7673.4 4
-1 -3 -4 200913 7178.75 43
-1 -3 -4 256502 10508.8 41
1 3 5 15448.2 1187.53 44
1 3 5 15652.3 1544.25 7
1 3 5 14382 1051.81 46
-1 -3 -5 13533.8 1127.8 43
1 3 5 15010.7 1465.83 4
-1 -3 -6 24967.6 1666.11 43
1 3 6 30994.9 2281.31 4
1 3 6 24937.4 1577.65 46
-1 -3 -6 29159.1 1739.5 45
1 3 6 30212.7 1860.53 10
1 3 6 27627 1699.81 44
1 3 6 29778.3 2280.9 7
1 3 7 155282 6930.76 7
1 3 7 175574 7231.39 4
-1 -3 -7 181196 6222.27 43
1 3 7 161797 6231.26 10
1 3 7 171543 6214.1 11
1 3 7 176295 6212.13 46
-1 -3 -7 190207 6418.51 45
1 3 8 18699.3 1584.11 11
1 3 8 18012.7 1574.76 10
1 3 8 20178 2130.32 4
-1 -3 -8 20787.9 1710.76 45
1 3 9 426.627 278.162 10
-1 -3 -9 451.191 410.414 45
1 3 9 630.17 350.988 11
1 3 10 193174 7507.53 11
1 3 10 184281 7062.96 31
1 3 10 204159 6924.51 36
-1 -3 -10 207173 7770.39 45
1 3 10 203473 7176.1 17
1 3 11 3650.44 704.966 31
1 3 11 4384.59 792.324 14
1 3 11 4224.67 811.133 26
1 3 11 3879.3 801.845 17
1 3 12 2845.16 649.809 17
1 3 12 2730.86 625.775 26
1 3 12 2780.37 592.483 14
1 3 12 2440.91 531.951 31
1 3 13 43109.1 2246.93 26
1 3 13 45185.5 2158.32 17
1 3 13 47538.8 2156.86 14
1 3 14 9734.57 704.242 26
-1 -4 10 1196.59 303.794 28
-1 -4 10 708.407 220.094 18
-1 -4 10 1362.82 382.95 34
-1 -4 9 490.327 327.681 18
-1 -4 9 738.168 327.547 23
-1 -4 9 729.892 320.714 28
-1 -4 9 1102.98 461.543 34
-1 -4 9 92.5294 325.755 14
-1 -4 8 71786.6 3219.53 23
-1 -4 8 72104.9 3157.24 14
-1 -4 8 69895.3 3231.74 28
-1 -4 8 69383.6 3447.87 34
-1 -4 8 72859.2 3274.7 18
-1 -4 7 21591.2 1579.08 16
-1 -4 7 22026.5 1797.91 34
-1 -4 7 22491.7 1591.22 14
-1 -4 7 21486.5 1652.35 28
-1 -4 7 25091.2 1687.34 18
-1 -4 6 8485.07 942.052 14
1 4 -6 10176.5 1334.87 42
-1 -4 6 9818.34 1062.45 16
-1 -4 6 8875.79 1102.54 34
-1 -4 6 9585.81 1209.96 5
1 4 -6 9567.93 1310.92 48
-1 -4 6 8865.49 1006 28
-1 -4 6 9530.41 1022.3 18
-1 -4 6 10073.3 1198.77 11
-1 -4 5 191057 6586.09 16
-1 -4 5 189513 6786.38 34
-1 -4 5 186248 6455.73 14
1 4 -5 191733 7224.63 48
-1 -4 5 181841 6936.23 5
-1 -4 5 188452 6923.43 11
1 4 -5 188861 7180.62 42
-1 -4 5 194382 6621.35 28
-1 -4 5 182200 6487.07 18
-1 -4 4 8185.82 978.361 11
1 4 -4 7636.55 1005.88 42
1 4 -4 8458.88 1064.64 48
-1 -4 4 8477.35 1022.96 5
1 4 -3 179.201 289.029 42
-1 -4 3 558.803 342.596 11
1 4 -3 744.52 395.36 48
-1 -4 3 158.541 287.358 5
-1 -4 2 221459 7354.09 5
1 4 -2 208978 7272.09 42
-1 -4 2 232146 7608.11 3
1 4 -2 219727 7448.3 48
-1 -4 2 228544 7381.98 11
1 4 -1 71984.4 3102.97 42
-1 -4 1 74882.3 3114.68 5
1 4 -1 76411.6 3259.67 48
-1 -4 1 79539.6 3160.35 11
-1 -4 1 80435.9 3304.21 3
-1 -4 0 2602.74 469.061 5
-1 -4 0 2611.97 450.97 43
1 4 0 2011.3 490.593 42
-1 -4 0 1853.35 453.34 47
1 4 0 2714.43 570.742 48
-1 -4 0 2766.51 572.556 3
1 4 1 135612 4585.66 46
1 4 1 127023 4753.79 48
1 4 1 121978 4441.91 42
-1 -4 -1 122211 4338.22 5
1 4 1 135452 7129.52 41
-1 -4 -1 115428 4397.69 3
-1 -4 -1 128364 4445.83 43
-1 -4 -1 124660 4515.41 47
1 4 1 129646 4582.73 44
-1 -4 -2 127384 4366.17 5
-1 -4 -2 126915 4421.15 47
1 4 2 118854 4897.97 48
1 4 2 139499 4826.5 44
1 4 2 116471 7085.05 41
1 4 2 125661 6476.31 40
1 4 2 117176 4606.18 46
-1 -4 -2 109058 6156.16 41
-1 -4 -2 136374 4571.61 43
1 4 2 120027 4442.98 4
1 4 2 128150 4584.04 42
1 4 3 24097.4 1630.1 4
1 4 3 27061.8 1709.71 46
1 4 3 24660.5 2889.79 40
-1 -4 -3 24369.8 2637.48 41
1 4 3 21202.1 1810.26 48
1 4 3 18141.6 1394.75 42
-1 -4 -3 24962.8 1345.9 47
-1 -4 -3 25716.2 1552.36 43
-1 -4 -3 26700.1 2735.42 40
1 4 3 19049.7 2796.28 41
1 4 3 22529.5 1723.84 44
1 4 4 264167 8732.29 48
1 4 4 265413 8497.87 44
-1 -4 -4 245960 7946.07 43
1 4 4 224050 8200.97 4
1 4 4 256881 8041.6 46
-1 -4 -4 229670 7440.04 45
1 4 5 241002 8065.53 44
1 4 5 232462 8818.52 7
1 4 5 218336 8283 4
1 4 5 248526 8387.91 48
-1 -4 -5 224908 7417.7 45
1 4 5 233066 7668.79 46
-1 -4 -5 243457 7833.27 43
1 4 6 26953.6 2372.31 7
1 4 6 24934.1 1679.37 46
1 4 6 30045.2 2370.09 4
-1 -4 -6 29901.3 1782.55 45
-1 -4 -6 31979.7 1958.3 43
1 4 6 26249.2 1842.66 44
1 4 7 17778.3 1455.49 46
1 4 7 18173.5 1531.54 44
-1 -4 -7 20041.2 1615.9 43
1 4 7 17800.1 1974.95 7
1 4 7 18784 1618.47 10
1 4 7 18834.8 2002.5 4
-1 -4 -7 19087.4 1502.25 45
1 4 8 115890 6053.07 7
1 4 8 127304 5399.83 10
1 4 8 126691 5263.73 46
-1 -4 -8 144619 5478.2 45
1 4 8 133584 6456.12 4
-1 -4 -8 139477 5356.04 43
1 4 9 4108.51 691.652 32
1 4 9 3924.77 697.487 27
1 4 9 3335.87 752.259 11
1 4 9 5160.98 759.78 36
-1 -4 -9 5155.75 927.442 45
1 4 10 -19.7073 313.442 27
-1 -4 -10 455.436 349.934 45
1 4 10 500.143 347.658 17
1 4 10 852.063 442.349 32
1 4 10 450.888 421.038 31
1 4 10 66.8312 365.396 11
1 4 10 1014.53 428.493 36
1 4 11 94417.7 3929.26 17
1 4 11 89351.5 3784.31 36
1 4 11 90000.9 3908.03 14
1 4 11 94743.1 3891.29 32
1 4 11 84944.4 3869.76 31
1 4 12 60.0465 333.65 17
1 4 12 355.179 314.688 26
1 4 12 457.695 279.795 20
1 4 12 410.653 266.403 31
1 4 12 -39.3634 317.115 14
1 4 13 2751.25 486.24 14
1 4 13 3072.22 513.322 17
1 4 13 2380.38 508.637 26
1 4 14 24686.7 1232.66 26
-1 -5 9 5019.69 591.258 34
-1 -5 9 5230.8 578.956 28
-1 -5 9 5381.26 562.212 14
-1 -5 9 4434.92 524.911 18
-1 -5 8 1932.94 463.844 23
-1 -5 8 2685.77 551.482 28
-1 -5 8 1947.76 464.639 18
-1 -5 8 2488.35 545.351 34
-1 -5 8 2841.14 569.328 14
-1 -5 7 134581 5147.27 23
-1 -5 7 139364 5219.71 28
-1 -5 7 144044 5130.69 14
-1 -5 7 136768 5353.97 34
-1 -5 7 141273 5146.24 18
-1 -5 6 -77.2801 300.293 28
-1 -5 6 608.91 399.286 16
-1 -5 6 -186.739 362.274 34
-1 -5 6 343.719 407.787 14
-1 -5 6 357.049 330.162 23
-1 -5 6 505.433 400.004 18
1 5 -5 4163.8 963.375 48
-1 -5 5 4195.21 694.184 14
-1 -5 5 4683.2 770.929 23
1 5 -5 4303.82 859.194 42
-1 -5 5 4498.82 729.518 18
-1 -5 5 3682.23 669.447 28
-1 -5 5 3407.32 678.644 34
-1 -5 5 3290.56 652.04 16
-1 -5 5 4101.54 842.593 5
-1 -5 4 176473 6219.13 28
-1 -5 4 171726 6122.93 16
-1 -5 4 167198 6152.86 23
-1 -5 4 174357 6007.69 18
-1 -5 4 170532 6049.87 14
1 5 -4 174978 6840.21 48
1 5 -4 167663 6585.3 42
-1 -5 4 169917 6596.9 5
-1 -5 4 158680 6109.13 34
1 5 -3 487.769 411.727 42
1 5 -3 880.86 515.342 48
-1 -5 3 532.011 301.683 5
1 5 -2 6840.05 1028.06 48
-1 -5 2 8116.33 1015.19 5
1 5 -2 7300.01 951.831 42
1 5 -1 81454 3730.49 48
1 5 -1 70601.7 3341.56 42
-1 -5 1 74920 3558.24 3
-1 -5 1 77415 3488.86 5
-1 -5 0 30597.6 1973.94 3
1 5 0 31959.9 1938 42
-1 -5 0 30983.4 1938.47 5
1 5 0 35463.9 2241.43 48
-1 -5 -1 79031.1 3527.48 43
1 5 1 100666 4005.61 46
-1 -5 -1 84384.6 3581.23 5
1 5 1 98040.9 4061.94 44
1 5 1 91514.8 4065.03 48
-1 -5 -1 78443.2 3569.4 3
1 5 1 82590.5 3604.82 42
-1 -5 -2 237176 7897.41 3
-1 -5 -2 258657 8056.07 43
1 5 2 267922 8584.27 44
1 5 2 207438 8063.62 46
1 5 2 252387 8052.46 42
1 5 2 210966 8394.96 48
-1 -5 -2 241586 7875.67 5
1 5 3 50250.9 2702.63 4
-1 -5 -3 49613.3 2451.8 5
1 5 3 47281 2717.33 46
-1 -5 -3 51632.8 2484.14 3
1 5 3 43136 2903.65 48
1 5 3 39551.1 2664.26 44
-1 -5 -3 56559.1 2672.91 43
1 5 4 83475.4 3704.4 46
1 5 4 72469.3 3716.57 4
1 5 4 80026.7 3907.18 44
1 5 4 78638.2 4041.16 48
-1 -5 -4 77437.6 3501.55 43
1 5 5 71180.7 3937 4
-1 -5 -5 80220.8 3671.28 43
1 5 5 81368.6 3903.58 44
1 5 5 76835.9 3540.23 46
1 5 5 82654.6 4051.41 48
1 5 5 80929.2 4539.51 7
1 5 6 358382 12997.6 7
1 5 6 346758 12414.9 4
1 5 6 373517 11894.2 44
-1 -5 -6 380319 11786.5 43
1 5 6 347058 11418.9 46
-1 -5 -6 356636 11128.6 45
-1 -5 -7 36920 2200.12 45
1 5 7 37034 2988.89 4
1 5 7 35684.6 2256.29 46
-1 -5 -7 38744.7 2456.14 43
1 5 7 36097.7 3015.25 7
1 5 7 34321.3 2347.61 44
1 5 8 29940.4 2785.52 7
1 5 8 37784.7 3145.51 4
-1 -5 -8 36752.8 2311 45
1 5 8 32095.7 2322.22 10
1 5 8 35844.5 2431.48 44
1 5 8 34412.8 2287.01 46
-1 -5 -8 37194.7 2452.44 43
1 5 9 112415 4515.61 32
1 5 9 111417 6149.46 4
-1 -5 -9 117328 5025.57 45
1 5 9 109878 4570.27 27
1 5 9 106023 4953.77 11
-1 -5 -9 117396 4519.18 39
1 5 9 114119 4555.98 36
-1 -5 -9 106054 4861.92 43
-1 -5 -9 112603 4418.3 35
1 5 10 3506.81 805.325 11
-1 -5 -10 5892.15 837.259 39
1 5 10 5240.19 814.499 27
1 5 10 5019.37 753.06 36
-1 -5 -10 4792.44 958.645 45
-1 -5 -10 4692.34 720.67 35
1 5 10 5659.36 840.98 32
1 5 11 301.715 327.071 27
1 5 11 -40.0755 369.425 36
1 5 11 672.199 415.513 32
1 5 11 381.39 324.16 31
1 5 12 87854.2 3583.22 36
1 5 12 91550 3624.75 14
1 5 12 86392.7 3575.29 31
1 5 12 96134.5 3982.98 26
1 5 12 99794.3 3737.01 32
1 5 13 645.872 281.569 14
1 5 13 1016.87 340.386 26
1 5 13 -26.4116 123.019 20
1 5 13 -22.5924 119.329 32
1 5 14 212.322 153.841 26
-1 -6 8 5672.5 578.955 28
-1 -6 8 7057.25 613.809 14
-1 -6 7 8900.32 857.627 28
-1 -6 7 7859.35 761.587 18
-1 -6 7 9122.6 838.676 14
-1 -6 7 7822.14 795.155 23
-1 -6 7 7791.42 808.299 34
-1 -6 6 62692 2939.72 28
-1 -6 6 62643.1 2772.06 18
-1 -6 6 66065.8 2874.47 14
-1 -6 6 60620.7 2879.82 34
-1 -6 6 63906.7 2904.31 12
-1 -6 6 62768 2918.56 23
-1 -6 5 1756.4 570.591 16
-1 -6 5 2388.77 630.343 14
-1 -6 5 1505.14 477.322 23
-1 -6 5 769.087 337.513 34
-1 -6 5 2046.61 566.631 28
-1 -6 5 1831.13 447.813 18
-1 -6 4 5473.5 867.157 28
-1 -6 4 4161.57 749 16
-1 -6 4 3344.46 715.682 23
-1 -6 4 4307.67 704.806 18
-1 -6 4 4301.61 766.926 14
-1 -6 3 129502 5028.73 16
-1 -6 3 130051 5155.04 28
-1 -6 3 123546 4917.76 22
-1 -6 3 131928 5046.3 14
-1 -6 3 132952 5643.66 5
1 6 -3 132545 5892.42 48
-1 -6 3 128768 5138.66 23
-1 -6 3 128988 4886.34 18
-1 -6 2 2198.21 589.196 28
-1 -6 2 1829.9 530.422 16
-1 -6 2 1186.92 516.199 23
1 6 -2 1398.35 664.217 44
-1 -6 2 2419.42 703.886 14
1 6 -2 1390.11 675.378 48
-1 -6 2 1257.18 534.376 5
-1 -6 2 1392.14 471.299 22
1 6 -1 4288.75 881.423 44
1 6 -1 4482.9 1011.17 48
-1 -6 1 2908.26 741.313 3
1 6 -1 4066.98 865.508 46
-1 -6 1 3954.21 833.482 5
1 6 0 148957 6373.86 48
1 6 0 161158 6457.93 44
-1 -6 0 139802 5799.95 5
1 6 0 155549 6253.83 46
-1 -6 0 138785 5814.45 3
1 6 1 4367.06 916.541 44
-1 -6 -1 3593.8 743.594 3
-1 -6 -1 3757.05 765.88 5
1 6 1 2440.1 827.085 48
1 6 1 4536.28 907.312 46
1 6 2 48986 3262.54 44
-1 -6 -2 55188.1 2886.45 3
-1 -6 -2 57100.2 2974.76 5
-1 -6 -2 59790 3076.76 43
-1 -6 -3 261084 8406.54 43
1 6 3 233034 8589.34 46
-1 -6 -3 238409 8118.1 5
1 6 3 204264 8615.56 44
1 6 3 204767 8737.7 48
-1 -6 -3 243372 8033.94 3
-1 -6 -4 66797.6 3189.87 3
1 6 4 70405.5 3901.38 44
1 6 4 70513.3 4000.95 48
-1 -6 -4 68607.6 3336.55 5
-1 -6 -4 72734.9 3568.51 43
1 6 4 72544 3658.62 46
1 6 5 7773.82 1171.52 44
1 6 5 8068.69 1269.48 48
1 6 5 8601.77 1283.28 4
1 6 5 9125.45 1160.06 46
-1 -6 -5 7589.21 911.58 3
-1 -6 -5 7662.81 1065.47 43
1 6 6 140420 5957.84 44
1 6 6 136687 6413.22 4
-1 -6 -6 144924 5893.96 43
1 6 6 143574 6999.89 7
1 6 6 141120 5632.58 46
1 6 7 72288.9 4426 4
1 6 7 72284.6 4638.94 7
-1 -6 -7 75153.8 3863.7 43
1 6 7 69907.1 3756.96 44
1 6 8 30581.9 2287.78 44
1 6 8 30198.6 1991.41 27
1 6 8 30102.8 1935.63 36
1 6 8 30155.9 1957.32 32
1 6 8 31861.7 2931.26 4
-1 -6 -8 33021.5 2409.62 43
-1 -6 -8 28417 1774.3 21
1 6 8 27891.7 2196.31 10
1 6 8 29941.2 2846.81 7
-1 -6 -9 4352.68 877.393 43
1 6 9 5881.45 863.789 27
1 6 9 4210.38 1226.91 4
-1 -6 -9 4420.97 720.081 39
1 6 9 6445.08 871.147 36
-1 -6 -9 5731.66 837.782 35
1 6 9 5250.93 815.323 32
1 6 10 24591.8 1721.75 36
-1 -6 -10 23997.2 1657.38 39
-1 -6 -10 24483.7 1689.67 35
1 6 10 26211.9 1771.1 32
1 6 10 24060.9 1720.65 27
1 6 11 4083.16 687.505 27
-1 -6 -11 3710.67 604.615 39
1 6 11 4799.41 706.579 36
-1 -6 -11 3560.76 595.248 35
1 6 11 4044.91 658.909 32
1 6 12 9920.74 900.376 32
1 6 12 9386.63 821.441 14
1 6 12 7588.65 772.244 31
-1 -6 -12 8944.59 796.535 39
1 6 13 92265 3564.3 26
1 6 13 97757.9 3325.97 14
1 6 13 98490 3347.8 20
1 6 13 106331 3494.67 32
-1 -7 6 8991.07 792.803 28
-1 -7 6 9260.71 743.899 14
-1 -7 6 9059.33 760.602 23
-1 -7 6 8298.77 655.973 18
-1 -7 5 63398.2 2755.47 14
-1 -7 5 68165.1 2936.64 23
-1 -7 5 67694.2 2942.68 12
-1 -7 5 65329.8 2906.99 28
-1 -7 5 60736 2626.93 18
-1 -7 4 2984.64 542.299 18
-1 -7 4 3516.41 660.939 23
-1 -7 4 4275.29 728.761 28
-1 -7 4 3335.27 629.894 14
-1 -7 3 470.717 504.933 14
-1 -7 3 600.95 441.124 23
-1 -7 3 -37.6564 389.01 28
-1 -7 3 751.742 338.327 22
-1 -7 2 232254 8062.4 23
-1 -7 2 221151 7714.79 22
-1 -7 2 233453 7917.87 14
-1 -7 2 230984 8049.06 28
1 7 -1 1034.01 797.655 48
-1 -7 1 741.077 522.074 15
-1 -7 1 568.026 469.504 23
-1 -7 1 -243.263 274.58 22
1 7 -1 316.617 495.091 46
1 7 -1 1047.43 637.921 44
-1 -7 1 275.148 410.73 28
-1 -7 1 299.82 381.885 5
-1 -7 1 -303.573 423.686 14
-1 -7 1 583.366 406.744 33
1 7 0 921.226 540.935 46
-1 -7 0 33.2819 373.171 28
1 7 0 270.71 485.462 27
-1 -7 0 999.854 539.112 5
-1 -7 0 -213.717 393.961 33
-1 -7 0 206.119 398.181 3
-1 -7 0 539.413 461.624 14
-1 -7 0 -1.87142 506.833 15
-1 -7 0 98.844 297.034 22
1 7 0 15.0591 634.331 44
-1 -7 0 35.4348 473.783 23
1 7 0 1813.6 895.556 48
-1 -7 -1 129474 5559.78 15
-1 -7 -1 138006 5245.68 28
1 7 1 118206 5321.03 27
-1 -7 -1 128213 4958.42 22
1 7 1 114972 6109.72 44
-1 -7 -1 131708 5225.84 23
-1 -7 -1 134741 5721.62 5
-1 -7 -1 123995 5011.86 14
-1 -7 -1 136660 5255.18 33
-1 -7 -1 136401 5608.98 3
-1 -7 -2 28493.7 2144.34 15
-1 -7 -2 28032.4 1915.37 23
-1 -7 -2 28531.7 2155.86 5
1 7 2 23710.7 2429.07 44
1 7 2 21717.8 2382.46 48
-1 -7 -2 27518.5 1771.74 22
1 7 2 23506.8 2272.3 46
-1 -7 -2 28252.7 2074.11 3
-1 -7 -2 28413.2 1910.63 33
1 7 2 22981.9 1930.79 27
1 7 3 73820.2 4569.39 48
-1 -7 -3 84835.8 4075.24 5
1 7 3 85552.1 4469.48 46
-1 -7 -3 82404.6 4137.55 43
-1 -7 -3 81570.2 3679.48 33
1 7 3 78140.2 4617.79 44
-1 -7 -3 82360 3873.93 3
1 7 4 131110 5410.63 27
1 7 4 129140 6177.33 48
-1 -7 -4 129635 5663.68 43
1 7 4 143919 5930 46
-1 -7 -4 129783 5001.86 21
-1 -7 -4 126963 5205.68 3
-1 -7 -4 130228 5102.73 33
-1 -7 -4 128870 5426.73 5
1 7 4 142579 6340.7 44
1 7 5 36324.7 2738.11 44
1 7 5 39358.7 2436.68 27
1 7 5 38532.8 2836.46 48
-1 -7 -5 39554.8 2663.05 43
-1 -7 -5 34263.8 2206.7 3
-1 -7 -5 37142.2 2175.6 21
-1 -7 -5 37990.6 2108.9 35
-1 -7 -5 37108.1 2423.15 5
-1 -7 -5 36996.9 2187.68 33
-1 -7 -6 1092.22 433.454 33
1 7 6 1365.54 541.988 27
1 7 6 1892.93 522.586 32
-1 -7 -6 1845.95 591.977 43
1 7 6 2114.07 702.482 44
-1 -7 -6 1346.17 550.009 5
-1 -7 -6 1651.94 485.735 21
-1 -7 -6 1702.81 525.271 35
1 7 6 3149.02 1126.72 7
-1 -7 -7 40386.3 2274.85 35
-1 -7 -7 36366.5 2162.43 21
1 7 7 40052.6 2188.61 36
1 7 7 38354.6 2319.48 27
1 7 7 40355.6 3499.63 7
-1 -7 -7 35268.1 2649.23 43
1 7 7 34935.2 3051.21 4
1 7 7 37606.9 2643.15 44
1 7 7 42653.4 2320.58 32
1 7 8 48454.1 3670.92 4
1 7 8 46212.3 2598.98 27
-1 -7 -8 44823.6 3041.13 43
1 7 8 51727.4 2607.01 36
-1 -7 -8 50176.5 2562.53 39
-1 -7 -8 49519.9 2530.67 21
-1 -7 -8 53678.8 2690.44 35
1 7 8 50828.7 2633.13 32
1 7 8 43673.2 2871.69 44
1 7 9 13837.8 1246.37 32
1 7 9 11734.3 1142.11 36
-1 -7 -9 14018.7 1259 35
-1 -7 -9 12344.8 1165.41 39
1 7 9 12216.6 1190.27 27
-1 -7 -9 11026.1 1033.34 21
-1 -7 -10 26374.2 1691.57 39
1 7 10 27802.2 1767.94 27
-1 -7 -10 28251.8 1779.94 35
1 7 10 28927.2 1803.44 32
1 7 10 29142.1 1818.87 36
1 7 11 66663.4 2857.65 27
1 7 11 67143.4 2853.48 32
-1 -7 -11 61285 2733.13 35
-1 -7 -11 60752.8 2710.94 39
1 7 11 60920.5 2785.7 36
1 7 12 3673.14 463.155 31
1 7 12 3524.91 458.66 14
1 7 12 4283.84 579.388 27
-1 -7 -12 3913.98 499.556 39
-1 -7 -12 4460.5 531.964 35
1 7 12 4417.09 560.139 32
1 7 13 2621.64 356.94 32
1 7 13 2645.61 325.089 20
-1 -8 5 18499.1 1044.87 28
-1 -8 5 18107.1 1022.1 23
-1 -8 4 43320.2 2066.15 28
-1 -8 4 41281.5 1924.55 14
-1 -8 4 44923.1 2095.91 23
-1 -8 4 47185.7 2128.09 12
-1 -8 3 6287.37 789.801 12
-1 -8 3 5916.53 704.985 14
-1 -8 3 7074.98 838.033 23
-1 -8 3 6922.11 811.579 28
-1 -8 2 2198.79 581.862 23
-1 -8 2 1265.09 419.145 28
-1 -8 1 181910 6411.12 28
-1 -8 1 188580 6511.59 23
-1 -8 1 173989 6101.05 22
-1 -8 1 172490 6300.7 33
-1 -8 1 174101 6187.45 14
-1 -8 0 764.61 552.018 28
1 8 0 1080.54 657.513 27
-1 -8 0 -158.554 392.51 23
-1 -8 0 303.6 505.432 15
-1 -8 0 81.3033 353.106 33
-1 -8 0 675.223 427.397 22
-1 -8 -1 771.165 452.403 23
-1 -8 -1 405.185 418.043 28
1 8 1 469.242 475.42 27
-1 -8 -1 217.352 349.485 33
-1 -8 -1 459.641 440.936 15
-1 -8 -1 797.337 449.666 22
1 8 2 198087 7537.76 27
-1 -8 -2 216823 7459.55 23
1 8 2 183917 8543.11 48
-1 -8 -2 209707 7818.22 15
-1 -8 -2 198919 6911.08 21
-1 -8 -2 198968 7046.99 22
-1 -8 -2 207134 7257.77 28
-1 -8 -2 207147 7352.12 33
-1 -8 -2 210268 7969.62 5
-1 -8 -2 205294 7609.59 3
1 8 2 193236 8665.76 44
1 8 3 31716.5 2257.73 27
-1 -8 -3 31777 2106.35 33
1 8 3 27074.3 2651.32 48
-1 -8 -3 29968.6 2285.75 15
-1 -8 -3 31076.5 1979.92 28
-1 -8 -3 36430.9 2215.13 23
-1 -8 -3 27485.5 1825.98 22
-1 -8 -3 31837.6 2373.63 5
1 8 3 32787.6 2843.5 44
-1 -8 -3 30043.1 1898.8 21
-1 -8 -4 900.766 600.152 43
1 8 4 486.677 402.888 27
-1 -8 -4 582.644 406.113 5
-1 -8 -4 403.138 388.07 23
-1 -8 -4 814.568 574.878 15
1 8 4 1.31488 620.138 44
-1 -8 -4 333.197 375.253 33
-1 -8 -4 252.077 389.238 21
1 8 5 88359.1 3958.34 27
1 8 5 84793.6 4570.64 44
1 8 5 90505.2 5608.99 7
-1 -8 -5 76546.1 4223.91 43
-1 -8 -5 82899 4035.01 15
-1 -8 -5 82285.4 4060.03 5
-1 -8 -5 80023.3 3698.32 33
-1 -8 -5 81744.5 3573.31 23
-1 -8 -5 83711.9 3694.68 21
-1 -8 -6 37064.9 2063.93 39
-1 -8 -6 34413.9 2131.03 33
1 8 6 37305.9 2300.66 27
-1 -8 -6 36348.9 2185.98 21
-1 -8 -6 34775.4 2056.48 35
1 8 6 39061.4 2099.09 32
1 8 7 6618.7 926.939 27
-1 -8 -7 5831.87 778.222 39
-1 -8 -7 6564.17 869.94 21
1 8 7 5300.69 753.581 32
-1 -8 -7 6106.32 842.313 35
1 8 8 49829.1 2571.09 27
1 8 8 48696.2 2361.03 36
1 8 8 49288.2 2490.79 32
-1 -8 -8 45380 2406.26 39
-1 -8 -8 48527.6 2484.55 21
-1 -8 -8 51356.4 2571.38 35
1 8 9 18597.2 1392.3 27
1 8 9 17520.4 1283.33 36
-1 -8 -9 18437.8 1371.29 39
-1 -8 -9 17755.7 1364.45 35
-1 -8 -9 16586.3 1262.18 21
1 8 9 20934.9 1433.46 32
1 8 10 7530.56 824.258 27
-1 -8 -10 8322.91 882.832 35
1 8 10 7812.34 791.08 36
-1 -8 -10 8035.41 833.011 39
1 8 10 7803.81 847.38 32
1 8 11 19611.8 1215.86 27
1 8 11 19066.2 1212.62 32
-1 -8 -11 18179.4 1196.83 35
-1 -8 -11 17181 1141.28 39
-1 -8 -12 53824 2142.78 35
1 8 12 60133.8 2246.54 32
-1 -8 -12 55646.5 2142.73 39
-1 -9 3 74241.4 2711.38 28
-1 -9 3 80696.1 2808.5 23
-1 -9 3 81747.4 2800.33 12
-1 -9 2 2775.33 496.658 23
-1 -9 2 2422.36 410.729 12
-1 -9 2 2495.51 445.125 28
-1 -9 1 478.336 309.094 28
-1 -9 1 645.638 326.305 12
-1 -9 1 427.591 333.39 23
-1 -9 0 167155 5655.08 28
-1 -9 0 167693 5772.69 23
-1 -9 0 154507 5614.65 33
-1 -9 0 155570 5815.22 15
-1 -9 0 155143 5445.17 12
-1 -9 -1 5789.12 840.653 23
1 9 1 6255.78 817.1 27
-1 -9 -1 4870.77 886.516 15
-1 -9 -1 5797.89 791.6 33
-1 -9 -1 6055.48 812.452 28
-1 -9 -1 5131.79 662.305 12
1 9 2 17365.3 1415.46 27
-1 -9 -2 14113.4 1458.11 15
-1 -9 -2 17391.8 1325.52 28
-1 -9 -2 18314 1452.42 23
-1 -9 -2 14607.7 1327.16 33
-1 -9 -3 42776.6 2209.95 28
1 9 3 45787.9 2470.15 27
-1 -9 -3 41591.6 2364.32 33
-1 -9 -3 38785.5 2524.12 15
-1 -9 -3 46684 2432.67 23
-1 -9 -3 38243 2084.37 21
-1 -9 -4 668.979 382.481 23
-1 -9 -4 751.187 586.271 15
-1 -9 -4 580.152 447.437 33
-1 -9 -4 -185.348 240.445 21
1 9 4 278.1 319.069 27
1 9 5 2294.43 519.775 27
-1 -9 -5 2116.85 507.501 23
-1 -9 -5 3159.51 576.662 21
-1 -9 -5 1955.02 612.178 15
-1 -9 -5 3597.63 643.966 33
1 9 6 128676 4763.59 27
-1 -9 -6 124441 4670.19 21
-1 -9 -6 116071 4303.53 39
-1 -9 -6 118482 4646.26 33
-1 -9 -6 125359 5034.21 15
-1 -9 -7 52309.5 2360.64 39
1 9 7 53116 2549.84 27
-1 -9 -7 49290.9 2422.9 33
-1 -9 -7 52697.4 2552.24 21
-1 -9 -7 47199.1 2676.29 15
-1 -9 -7 52035 2407.85 35
1 9 8 8339.72 784.969 32
1 9 8 8254.56 851.793 27
-1 -9 -8 8149.91 959.617 15
-1 -9 -8 7686.21 785.621 39
-1 -9 -8 8040.62 855.45 21
-1 -9 -8 7069.74 787.163 35
-1 -9 -9 55505.6 2608.12 15
-1 -9 -9 58133 2500.22 21
-1 -9 -9 57757.7 2489.96 39
-1 -9 -9 61298.8 2577.33 35
1 9 9 60329.8 2462.21 32
1 9 9 56632.7 2501.53 27
1 9 10 51377.2 2084.12 32
-1 -9 -10 51062.4 2119.43 39
-1 -9 -10 45615 1957.08 21
-1 -9 -10 48375.9 2138.55 35
1 9 10 47009.5 2061.67 27
1 9 11 12903 806.112 27
-1 -9 -11 12671 811.559 39
-1 -9 -11 12680.2 834.513 35
1 9 11 12690 794.479 32
-1 -10 0 8759.16 669.133 23
-1 -10 -1 58005.8 2107.39 28
-1 -10 -1 62582.6 2321.21 23
-1 -10 -1 56063.8 2268.17 33
-1 -10 -2 209.211 169.775 28
-1 -10 -2 1085.9 371.644 15
-1 -10 -2 268.873 216.418 33
-1 -10 -2 387.573 306.859 23
-1 -10 -2 197.785 299.298 30
-1 -10 -3 484.032 295.224 23
1 10 3 253.42 204.342 27
-1 -10 -3 502.822 314.133 33
-1 -10 -3 952.287 392.771 15
1 10 4 65055.2 2555.18 27
-1 -10 -4 66315.9 2613.41 23
-1 -10 -4 65239.1 2900.84 15
-1 -10 -4 60375.8 2684.71 33
-1 -10 -4 59247.3 2454.01 21
-1 -10 -5 695.262 286.572 21
-1 -10 -5 319.491 304.436 15
-1 -10 -5 177.818 203.727 23
1 10 5 537.172 222.753 27
-1 -10 -5 946.843 355.279 33
1 10 6 -32.1603 192.525 27
-1 -10 -6 133.865 314.559 15
-1 -10 -6 608.473 290.358 33
-1 -10 -6 359.981 220.474 21
-1 -10 -7 63467.8 2518.74 21
-1 -10 -7 57136.3 2373.13 33
-1 -10 -7 61539.9 2676.2 15
1 10 7 60449.1 2414.79 27
1 10 8 14923.7 845.313 27
-1 -10 -8 14035.4 944.448 15
-1 -10 -8 13513.3 853.914 21
1 10 9 17862.1 956.925 27
-1 -10 -9 19580.4 1018.28 21
-1 -10 -9 16725.9 917.066 35
-2 9 7 95697.4 3147.29 19
2 -9 -6 489.769 213.625 21
2 -9 -6 491.518 229.91 24
-2 9 6 216.885 201.788 19
2 -9 -5 175.589 158.919 29
2 -9 -5 661.437 265.031 21
2 -9 -5 504.191 264.072 15
2 -9 -4 48106.3 2299.87 30
2 -9 -4 43878.3 1994.74 23
2 -9 -4 47973.8 2022.36 33
2 -9 -4 48276.5 2104.43 15
2 -9 -4 47954.8 1958.16 21
2 -9 -3 94.0062 261.118 30
2 -9 -3 263.746 207.939 33
2 -9 -3 239.932 237.551 15
2 -9 -3 100.945 229.784 23
2 -9 -2 4021.35 515.248 33
2 -9 -2 3718.34 588.67 30
2 -9 -2 4201.43 497.543 23
2 -9 -2 4863.03 596.117 15
2 -9 -2 3963.72 471.138 28
2 -9 -1 105302 3886.66 30
2 -9 -1 106661 3614.62 33
2 -9 -1 92965.8 3400.89 24
2 -9 -1 102931 3492.87 23
2 -9 -1 106719 3709.63 15
2 -9 -1 106743 3509.24 28
2 -9 0 12551 862.356 15
2 -9 0 11976.3 904.456 30
2 -9 0 11685.8 725.791 23
2 -9 0 12395.9 752.655 28
2 -8 -9 41215.7 1728.03 39
2 -8 -9 45807.2 1871.08 35
-2 8 9 42411.7 1670.06 19
2 -8 -8 1630.18 350.643 21
2 -8 -8 921.984 252.875 39
-2 8 8 1422.26 314.185 19
2 -8 -8 1217.26 327.726 35
2 -8 -7 8484.9 718.734 39
2 -8 -7 8892.75 835.321 21
-2 8 7 9560.15 818.703 19
2 -8 -7 8279.56 803.61 35
2 -8 -6 125733 4505.09 21
2 -8 -6 119692 4372.16 35
2 -8 -5 6859.85 849.395 15
2 -8 -5 7197.2 828.441 23
2 -8 -5 5736.66 711.517 33
2 -8 -5 6759.24 717.659 35
2 -8 -5 6466.89 763.332 21
2 -8 -4 2734.53 506.106 28
2 -8 -4 2591.65 522.504 33
2 -8 -4 2312.13 485.067 23
2 -8 -4 2607.86 548.953 21
2 -8 -4 2223.86 572.202 15
2 -8 -3 74843.8 3391.56 15
2 -8 -3 68921.6 3141.54 33
2 -8 -3 68613.2 2983.3 21
2 -8 -3 70450.2 3131.39 23
2 -8 -3 72858.3 3115.25 28
2 -8 -2 2486.66 570.037 28
2 -8 -2 2599.73 595.124 15
2 -8 -2 2247.43 509.578 23
2 -8 -2 1921.51 416.363 21
2 -8 -2 2574.67 565.023 33
2 -8 -2 2144.69 606.763 30
2 -8 -1 300.976 419.914 30
2 -8 -1 264.907 331.615 33
2 -8 -1 -33.685 353.388 28
2 -8 -1 345.072 427.118 15
2 -8 -1 188.138 330.027 23
2 -8 0 88794.7 3721.32 15
2 -8 0 83982.4 3379.86 28
2 -8 0 82586.2 3338.77 23
2 -8 0 82494.2 3886.09 30
2 -8 0 78731.6 3404.11 33
2 -8 0 77359.9 3092.41 12
2 -8 1 3397.17 550.826 28
2 -8 1 2781.52 494.678 23
2 -8 1 3390.56 582.533 15
2 -8 1 2897.41 659.501 30
2 -8 1 2296.62 476.642 33
2 -8 1 2587.62 428.312 12
2 -8 2 6094.56 801.159 30
2 -8 2 7101.75 691.079 28
2 -8 2 5231.53 573.309 23
2 -8 2 6002.29 609.621 12
2 -8 2 7451.68 606.741 18
2 -8 2 7032.19 749.354 15
2 -8 3 37353.2 1716.29 15
2 -8 3 37578.3 1620.18 12
2 -8 3 37903.6 1618.52 28
2 -7 -11 32663.7 1365.88 39
2 -7 -10 17312.5 1049.99 39
-2 7 10 16479 1009.86 32
-2 7 10 17149.3 969.463 20
2 -7 -10 16290.9 1044.29 35
2 -7 -9 27721.1 1523.18 39
-2 7 9 25323.4 1360.91 19
-2 7 9 26611.8 1462.64 32
2 -7 -9 25397.9 1521.99 35
2 -7 -8 63650.6 2776.96 21
-2 7 8 61870.6 2647.95 27
-2 7 8 61726.9 2674.71 32
2 -7 -8 66847.5 2930.68 35
-2 7 8 67152.7 2754.72 19
2 -7 -8 65446.9 2807.97 39
2 -7 -7 169.746 254.571 39
2 -7 -7 523.663 361.605 21
2 -7 -7 333.817 279.028 35
2 -7 -6 10395.5 1090.43 21
2 -7 -6 11365.5 1019.21 39
2 -7 -6 11562 1126.25 35
2 -7 -5 172748 6176.54 15
2 -7 -5 165170 5973.24 21
2 -7 -5 159270 5911.23 23
2 -7 -5 156028 5841.1 35
2 -7 -4 16719.8 1393.9 21
2 -7 -4 14476.6 1310.66 23
2 -7 -4 14670.3 1247.48 35
2 -7 -4 15819.8 1344.56 33
2 -7 -4 16946.8 1526.55 15
2 -7 -4 16893.4 1382.92 28
2 -7 -3 326.317 393.508 21
2 -7 -3 420.93 416.605 28
2 -7 -3 -20.216 453.789 15
2 -7 -3 -52.7661 375.684 23
2 -7 -3 762.174 426.817 33
2 -7 -2 66508.2 3173.01 28
2 -7 -2 72985.3 3596.34 15
2 -7 -2 62975 3206.18 33
2 -7 -2 62160.4 2998.9 21
2 -7 -2 64579.3 3166.17 23
2 -7 -1 19046.2 1565.54 28
2 -7 -1 19396.5 1745.17 15
2 -7 -1 17031.8 1469.61 23
2 -7 -1 17627.5 1543.65 33
2 -7 -1 20794.5 1448.61 18
2 -7 0 951.719 450.219 23
2 -7 0 2041.63 656.304 28
2 -7 0 899.137 409.44 33
2 -7 0 1281.2 584.021 15
2 -7 0 889.356 481.703 30
2 -7 0 1496.41 570.045 18
2 -7 0 1535.9 447.863 12
2 -7 1 111198 5164.56 30
2 -7 1 107407 4429.22 28
2 -7 1 100752 4422.1 33
2 -7 1 107565 4784.33 15
2 -7 1 107554 4243.6 12
2 -7 1 107834 4358.25 23
2 -7 1 110471 4268.9 18
2 -7 2 9263.73 1283.71 30
2 -7 2 10127.8 1010.77 18
2 -7 2 10082.4 1057.92 28
2 -7 2 10167.8 1034.42 23
2 -7 2 9577.66 1072.75 33
2 -7 2 9523.2 1173.99 15
2 -7 2 10297.8 1050.46 12
2 -7 3 3590.1 641.358 28
2 -7 3 3111.23 651.724 15
2 -7 3 3366.01 767.461 30
2 -7 3 4322.86 617.42 23
2 -7 3 3673.81 597.629 18
2 -7 3 3493.08 593.673 12
2 -7 3 3579.27 611.921 33
2 -7 4 57564 2855.77 30
2 -7 4 58990.1 2564.29 28
2 -7 4 62943 2646.43 12
2 -7 4 63612.7 2803.04 15
2 -7 4 57426.8 2493.03 18
2 -7 5 18008.8 1047.59 28
2 -7 5 18665.4 1108.43 12
2 -7 5 17847.3 1046.19 18
-2 6 11 46481.5 1980.27 32
2 -6 -11 41984.2 1801.14 35
-2 6 11 44640.3 1852.31 20
2 -6 -11 43326 1883.96 39
2 -6 -10 20747.2 1332.79 39
-2 6 10 21124.5 1272.97 20
2 -6 -10 18933.4 1278.37 35
-2 6 10 21041.6 1359.59 32
-2 6 9 35345.4 1909.56 27
2 -6 -9 33379.3 1917.27 39
2 -6 -9 33261.4 1944.63 35
-2 6 9 34561.4 1802.97 19
-2 6 9 37549.5 2034.1 32
2 -6 -8 87745.5 3624.36 21
-2 6 8 87272.6 3592.83 27
-2 6 8 85842.4 3525.74 19
2 -6 -8 84524.5 3638.35 39
2 -6 -8 86989.7 3733.73 35
-2 6 8 91079.1 3711.54 32
-2 6 7 69260.8 3078.9 27
2 -6 -7 66581.3 3221.34 35
2 -6 -7 72007.4 3236.49 21
-2 6 7 68086.6 3103.5 32
2 -6 -7 70956.5 3180.31 39
-2 6 6 2051.88 665.157 46
2 -6 -6 992.721 453.901 35
-2 6 6 1637.11 595.38 44
2 -6 -6 1147.16 409.782 23
2 -6 -6 1465.92 484.496 39
2 -6 -6 1339.22 521.158 21
-2 6 6 938.577 962.298 4
-2 6 5 25430.8 2650.62 4
2 -6 -5 21801.6 1676.95 23
2 -6 -5 24665.1 1720.27 35
-2 6 5 22308 2050.32 46
2 -6 -5 21511.8 1516.38 39
-2 6 5 23504.2 2093.36 44
2 -6 -5 21890 1630.55 28
2 -6 -5 21393.8 1631.31 21
2 -6 -4 91893 3911.79 28
-2 6 4 90937.1 4616.26 44
2 -6 -4 92055 4345.96 5
2 -6 -4 86899.8 3894.13 23
2 -6 -4 85078.3 4029.58 15
2 -6 -4 89169.4 3860.95 21
-2 6 4 87333.8 5068.44 4
-2 6 4 98383.9 4788.05 46
2 -6 -4 87975.5 3809.23 35
2 -6 -4 83685.8 3770.49 33
-2 6 3 30203.3 2509.12 44
2 -6 -3 28381.6 1897.5 28
2 -6 -3 28524.4 1930.9 23
2 -6 -3 27073 2036.17 15
2 -6 -3 29355 2201.7 5
-2 6 3 31878.8 2596.79 46
2 -6 -3 24021.4 1751.65 21
2 -6 -3 27706.4 1904.46 33
-2 6 2 953.79 649.405 46
2 -6 -2 604.478 352.08 21
2 -6 -2 1485.73 579.858 23
2 -6 -2 601.026 449.086 5
2 -6 -2 742.912 582.877 15
2 -6 -2 911.262 476.755 33
-2 6 2 612.254 651.616 44
2 -6 -2 1586.45 506.494 18
2 -6 -2 984.151 467.194 28
2 -6 -1 128552 5096.09 21
2 -6 -1 133933 5358.26 28
2 -6 -1 142502 5820.12 15
-2 6 1 153660 6742.39 44
2 -6 -1 139947 5401.64 23
-2 6 1 134625 6583.25 46
2 -6 -1 144106 5212.27 18
2 -6 -1 138852 5503.86 33
2 -6 -1 139963 5893.31 5
2 -6 0 82.1539 418.836 5
-2 6 0 2285.39 949.562 44
2 -6 0 93.3351 447.803 15
-2 6 0 1237.67 845.888 46
2 -6 0 1599.16 564.009 23
2 -6 0 1488.6 568.346 28
2 -6 0 497.722 361.907 33
2 -6 0 485.18 403.75 18
2 -6 0 561.013 365.877 12
2 -6 1 4229.33 889.038 15
2 -6 1 4582.63 744.849 12
2 -6 1 3908.52 731.042 23
-2 6 -1 4471.91 1103.4 44
2 -6 1 4187.95 680.31 18
2 -6 1 4315.44 806.57 33
2 -6 1 3939.22 985.762 30
2 -6 1 3508.69 808.425 5
2 -6 1 4404.52 824.127 28
2 -6 2 152129 6501.85 30
2 -6 2 149334 6104.95 15
2 -6 2 143873 5623.31 28
2 -6 2 146082 5724.49 33
2 -6 2 148980 5581.39 23
2 -6 2 141941 5511.45 18
2 -6 2 154409 5611.42 12
2 -6 3 5233.63 865.742 28
2 -6 3 5126.13 977.595 15
2 -6 3 4910.73 783.118 33
2 -6 3 5943.6 837.234 23
2 -6 3 5052.74 822.537 18
2 -6 3 4639.25 954.261 30
2 -6 3 6397.2 908.979 12
2 -6 4 11902.3 1404.33 30
2 -6 4 11667.6 1178.93 28
2 -6 4 11866.6 1293.86 15
2 -6 4 13341.3 1231.71 12
2 -6 4 13193.3 1163.08 23
2 -6 4 12058.8 1169.41 18
2 -6 5 128511 4902.95 15
2 -6 5 120741 4616.44 28
2 -6 5 119000 5020.9 30
2 -6 5 131907 4769.69 12
2 -6 5 118847 4618.35 18
2 -6 6 8115.22 791.831 18
2 -6 6 10990 935.168 12
2 -6 6 10997 898.223 28
2 -6 7 13876.7 898.279 18
-2 5 12 11828.2 747.423 20
-2 5 12 12467.4 816.559 32
-2 5 11 3026.95 524.915 32
-2 5 11 2966.13 482.296 20
2 -5 -11 3450.75 510.528 39
-2 5 10 50253.3 2372.94 20
2 -5 -10 49128.8 2436.31 39
2 -5 -10 48132.4 2351.46 35
-2 5 10 51619 2529.96 32
-2 5 9 34253.3 2020.71 27
2 -5 -9 33815.4 2013.51 35
2 -5 -9 35659.5 2089.3 39
-2 5 9 34963.2 2115.96 32
-2 5 9 36019.9 1931.62 19
-2 5 8 16821.9 1370.46 27
2 -5 -8 15705.7 1366.58 35
-2 5 8 16818.5 1341.54 19
-2 5 8 16221.3 1396.34 32
2 -5 -8 14542.3 1303.74 39
-2 5 7 91408.4 5340.25 4
-2 5 7 84010.2 3662.87 27
2 -5 -7 88307.8 3776.57 39
-2 5 7 87553.9 4430.92 46
2 -5 -7 89878.9 3845.01 35
2 -5 -7 86826.9 3742.06 21
-2 5 7 81587.6 4300.75 44
-2 5 7 87275.6 3777.36 32
-2 5 6 55960.7 2751.38 27
-2 5 6 58173.2 4095.98 4
2 -5 -6 61932.5 2937.84 21
2 -5 -6 60458.9 2874.87 39
-2 5 6 56291 3405.3 44
-2 5 6 60518.9 3479.93 46
2 -5 -6 60733.8 2968.39 35
-2 5 6 58512.5 2820.75 32
-2 5 5 1982.74 1033.16 4
2 -5 -5 1632.09 431.098 9
-2 5 5 1885.45 699.081 46
-2 5 5 1504.54 625.406 44
2 -5 -4 2680.55 543.341 9
-2 5 4 4215.19 910.866 44
-2 5 4 4023.73 936.444 46
2 -5 -4 2077.55 491.237 8
-2 5 3 102533 4902.44 44
-2 5 3 105286 5006.81 46
2 -5 -3 98878.5 4219.59 8
-2 5 2 624.446 620.461 46
2 -5 -2 2167.69 626.554 5
-2 5 2 948.426 655.625 44
2 -5 -2 1088.74 420.007 8
2 -5 -1 44727.7 2673.1 5
-2 5 1 38826.3 3002.69 46
-2 5 1 44658.8 3112.69 44
2 -5 -1 46206.5 2576.55 8
2 -5 0 217955 7858.63 5
2 -5 0 228969 7756.2 8
-2 5 -1 8877.11 1404.33 46
-2 5 -1 6334.04 1209.79 44
2 -5 1 9183.12 1139.91 5
2 -5 2 1098.13 669.774 30
2 -5 2 1061.02 528.539 15
2 -5 2 2374.76 546.774 28
2 -5 2 1797.68 548.904 23
-2 5 -2 2511.21 924.103 46
2 -5 2 2401.74 575.963 12
-2 5 -2 2397.58 785.636 44
2 -5 2 2499.25 614.149 33
2 -5 2 1914.23 574.824 5
2 -5 2 1532.79 491.211 18
2 -5 3 173148 7226.38 30
2 -5 3 170464 6812.62 15
-2 5 -3 196340 7832.63 46
2 -5 3 190775 6628.79 26
2 -5 3 184833 6861.93 5
2 -5 3 162927 6396.56 33
2 -5 3 167970 6279.19 23
-2 5 -3 176957 7511.42 44
2 -5 3 163369 6341.92 28
2 -5 3 176222 6431.88 12
2 -5 3 170010 6373.96 18
2 -5 4 2072.02 653.623 30
2 -5 4 1476.52 536.218 28
2 -5 4 2082.34 658.023 15
2 -5 4 1999.09 673.396 26
-2 5 -4 1155.22 726.426 46
2 -5 4 933.589 485.338 18
2 -5 4 1197.26 513.556 12
2 -5 5 7708.81 1165.47 30
2 -5 5 12197 1278.38 26
2 -5 5 8679.77 1029.04 28
2 -5 5 8877.02 1145.6 15
2 -5 5 10277.2 1136.56 12
2 -5 5 10649.3 1141.93 18
2 -5 6 99202.3 4175.3 28
2 -5 6 114338 4351.18 26
2 -5 6 104435 4391.65 15
2 -5 6 106225 4305.48 12
2 -5 6 107463 4336.81 18
2 -5 7 11475.4 1019.51 28
2 -5 7 12482.4 1038.53 12
2 -5 7 11288.6 1068.98 18
2 -5 8 10636.8 893.263 18
-2 4 12 87486.8 2983.77 20
-2 4 12 83481 3044.82 32
-2 4 11 2584.55 473.897 32
-2 4 11 2697.24 499.264 20
2 -4 -11 2766.43 495.902 39
2 -4 -10 13488.7 1224.7 39
-2 4 10 12394.2 1138.45 20
-2 4 10 11907 1210.54 32
2 -4 -9 56295.9 2877.42 39
2 -4 -9 55752.1 2761.03 35
-2 4 9 53424.1 2840.74 32
-2 4 8 33669.6 2023.56 19
-2 4 8 33474.7 2477.37 11
-2 4 8 31892.3 2051.05 27
-2 4 8 33236.1 3126.01 4
-2 4 8 34618.6 2647.26 46
2 -4 -8 35957.4 2141.97 35
2 -4 -8 35925.6 2372.05 9
2 -4 -8 37470.4 2223.8 39
2 -4 -8 35894.3 2602 45
-2 4 8 35338.4 2192.17 32
-2 4 7 1065.52 470.195 19
-2 4 7 539.723 305.959 27
2 -4 -7 1090.02 455.224 39
-2 4 7 602.506 400.96 32
-2 4 7 1651.88 664.26 46
2 -4 -7 1200.63 591.049 45
-2 4 7 409.061 660.598 4
-2 4 7 970.39 490.089 44
2 -4 -7 91.2903 380.752 9
2 -4 -7 770.685 413.147 35
2 -4 -6 114807 4950.42 45
-2 4 6 110538 5081.59 44
2 -4 -6 114086 4693.88 9
-2 4 6 114512 5162.24 46
-2 4 6 112252 5855.26 4
2 -4 -6 108793 4919.5 43
2 -4 -5 94368.8 4099.03 9
2 -4 -5 101028 4521.98 43
-2 4 5 92497.8 5085.15 4
2 -4 -5 98923.8 4333.17 45
-2 4 5 105689 4710.89 46
-2 4 5 97998.7 4576.38 44
-2 4 4 2713.21 801.053 46
-2 4 4 3156.2 777.897 44
2 -4 -4 2523.55 563.148 43
2 -4 -4 3466.65 628.877 9
2 -4 -4 2737.49 530.267 8
-2 4 3 65781.1 3530.72 46
-2 4 3 62613.1 3363.22 44
-2 4 3 57098.4 3070.4 49
2 -4 -3 60539.7 2883.55 9
2 -4 -3 59032.3 3200 43
2 -4 -3 59114.1 2767.99 8
-2 4 2 75555.9 3924.45 46
-2 4 2 72505.5 3754.23 44
2 -4 -2 73602.7 3237.33 8
-2 4 1 5033.81 1050.8 46
-2 4 1 6145.78 1086.11 44
2 -4 -1 6477.74 856.771 5
2 -4 -1 7672.53 889.279 8
2 -4 0 17496.9 1409.71 5
2 -4 0 18528.2 1454.59 8
-2 4 0 17670.5 1732.27 46
-2 4 0 14137 1560.51 44
2 -4 1 274886 9232.78 5
-2 4 -1 257575 9758.26 44
2 -4 1 284563 9334.2 8
-2 4 -2 36760 2518.47 46
-2 4 -2 33444.4 2391.23 44
2 -4 2 30739.9 2058.68 8
2 -4 2 31291.1 2017.46 5
-2 4 -3 12036.3 1413.01 44
-2 4 -3 12550.5 1476.46 46
2 -4 3 11740.1 1198 5
2 -4 4 151204 6066.58 15
2 -4 4 144725 5612.9 28
2 -4 4 167084 5850.23 26
2 -4 4 150944 5874.48 5
2 -4 4 148601 5846.99 34
2 -4 4 143141 6297.43 30
2 -4 4 146350 5722.74 12
-2 4 -4 162996 6475.76 44
2 -4 4 153663 5696.14 18
2 -4 4 167602 5731.09 31
2 -4 5 2165.53 712.254 30
2 -4 5 2903.06 618.603 28
2 -4 5 2290.66 613.098 15
2 -4 5 3165.22 669.125 31
2 -4 5 2924.64 733.75 34
2 -4 5 3196.26 671.341 26
2 -4 5 2389.13 591.018 12
2 -4 5 2893.94 575.386 18
2 -4 6 1122.93 583.505 30
2 -4 6 1414.95 508.856 28
2 -4 6 2088.07 598.498 34
2 -4 6 1502.86 478.051 12
2 -4 6 1266.57 481.633 26
2 -4 6 2749.68 692.489 15
2 -4 6 2232.96 595.547 31
2 -4 6 1839.81 567.154 18
2 -4 7 49037.5 2538.47 28
2 -4 7 52417.7 2616.65 26
2 -4 7 47337.6 2295.02 14
2 -4 7 55441.2 2634.81 31
2 -4 7 47700.8 2539.32 12
2 -4 7 48083.5 2627.78 18
2 -4 8 4903.36 619.057 14
2 -4 8 4569.35 705.155 26
2 -4 8 3934.22 721.041 18
2 -4 9 859.459 380.296 18
2 -4 9 1066.03 404.755 26
2 -4 9 79.2653 90.1256 14
-2 3 12 1426.5 359.83 32
-2 3 12 1167.97 272.951 26
-2 3 12 1314.68 347.912 20
-2 3 11 93142.2 3888.42 26
-2 3 11 102131 3850.66 20
-2 3 11 96782.6 3921.54 32
-2 3 10 950.907 466.077 20
-2 3 10 502.954 364.126 32
2 -3 -10 757.676 406.44 39
2 -3 -9 41065.2 2899.46 45
2 -3 -9 39082.3 2750.03 9
-2 3 9 45371.4 2995.83 11
2 -3 -9 50695.6 2700.12 39
-2 3 9 46852.1 3679.16 4
-2 3 9 45305.4 2582.4 32
-2 3 8 29010.9 2273.58 11
-2 3 8 29045.5 1954.96 27
2 -3 -8 31378.6 2410.4 45
-2 3 8 29882.3 2910.26 4
-2 3 8 30848 2026.38 32
2 -3 -8 28107.9 2196.91 9
2 -3 -8 31036.1 2032.26 39
-2 3 8 27984 1804.52 19
-2 3 8 26965.7 2371.61 46
-2 3 7 31805.1 2884.01 4
2 -3 -7 30809.4 2225.51 9
-2 3 7 29700.2 2237.26 11
2 -3 -7 32602.8 2380.44 45
-2 3 7 32549.4 2444.99 46
2 -3 -6 7228.77 1043.93 45
-2 3 6 7661.32 1445.59 4
-2 3 6 6079.56 1009.18 44
-2 3 6 8281.58 1191.42 46
2 -3 -6 5720.18 877.334 9
2 -3 -5 159735 5942.07 43
-2 3 5 151699 6692.24 4
-2 3 5 156877 6196.77 46
2 -3 -5 165989 6034.09 45
2 -3 -5 154809 5838.47 9
-2 3 5 152538 6098.05 44
-2 3 4 120639 4999.64 44
-2 3 4 137676 5292.13 46
2 -3 -4 119778 4791.15 45
2 -3 -4 128004 4840.29 9
2 -3 -4 123754 4914.44 43
-2 3 4 128390 4733.31 49
2 -3 -4 120075 4448.49 8
2 -3 -3 26577.3 1795.87 43
-2 3 3 31291.6 2045.81 44
-2 3 3 28826.1 2013.51 46
2 -3 -3 24389.7 1543.7 8
-2 3 3 26255 1816.6 49
2 -3 -3 27937.7 1748.87 9
2 -3 -3 25160 1671.31 45
-2 3 2 97386.6 4152.7 46
2 -3 -2 88202.9 3792.14 43
2 -3 -2 84716.8 3525.55 45
2 -3 -2 86872.3 3490.89 8
2 -3 -2 87406.8 3608.22 9
-2 3 2 100554 4148.88 44
-2 3 1 418023 12244.3 44
2 -3 -1 418547 11589 8
2 -3 0 46680.8 2264.37 8
-2 3 0 47843.6 2612 46
2 -3 0 43923.5 2141.58 5
-2 3 -1 9067.16 1039.72 44
-2 3 -1 9280.23 1055.11 46
2 -3 1 7755.02 876.352 8
2 -3 1 8149.89 825.072 5
2 -3 2 300928 9333.03 10
-2 3 -2 300120 9565.61 44
2 -3 2 284037 9075.09 5
2 -3 2 282923 9297.24 8
-2 3 -3 1419.85 451.026 44
2 -3 3 1458.09 464.239 10
2 -3 3 1150.24 361.69 5
2 -3 3 801.73 409.702 8
-2 3 -4 4284.56 633.989 48
2 -3 4 5652.33 830.723 10
2 -3 4 4172.65 668.375 5
2 -3 5 171071 6416.47 10
-2 3 -5 167187 6121.82 48
2 -3 6 5302.02 912.692 30
2 -3 6 4674.77 830.473 10
2 -3 6 5390.67 722.227 14
2 -3 6 6071.44 826.455 18
2 -3 6 5162.66 851.855 15
-2 3 -6 4989.14 789.691 48
2 -3 6 5575.98 837.419 26
2 -3 6 5538.66 846.761 38
2 -3 6 6523.06 973.93 34
2 -3 6 4630.37 770.441 12
2 -3 6 5545.05 749.928 31
2 -3 7 1014.8 588.09 38
2 -3 7 1140.32 426.14 26
2 -3 7 235.305 345.493 14
2 -3 7 180.467 398.735 34
2 -3 7 510.375 396.047 12
2 -3 7 -48.1017 422.87 18
2 -3 7 -183.307 392.241 31
2 -3 8 49472.4 2495.84 31
2 -3 8 43204.9 2235.37 14
2 -3 8 44521 2458.05 26
2 -3 8 48758.6 2827.06 34
2 -3 8 48808.3 2568.89 18
2 -3 9 4142.43 579.98 14
2 -3 9 5343.6 732.751 26
2 -3 9 6566.78 962.027 34
2 -3 9 5891.27 803.534 18
2 -3 9 5454.41 733.986 31
2 -3 10 5394.62 650.095 26
2 -3 10 4360.87 523.937 14
2 -3 10 4360.59 630.142 18
-2 2 12 684.337 303.142 17
-2 2 12 785.344 277.257 20
-2 2 11 2872.96 545.914 32
-2 2 11 3133.04 569.153 20
-2 2 11 2378.01 511.442 17
-2 2 11 2782.84 574.68 26
-2 2 10 62452.3 3080.42 32
-2 2 10 58753.6 2917.58 20
-2 2 10 63930.6 3035.12 17
-2 2 9 705.96 491.231 17
-2 2 9 1114.29 504.867 11
-2 2 9 2148.31 567.875 20
2 -2 -9 2486.29 760.931 45
-2 2 9 1289.4 522.318 32
-2 2 8 7705.92 982.157 17
-2 2 8 7867 1161.16 11
-2 2 8 7955.23 1017.49 32
-2 2 8 8839.7 1612.48 4
2 -2 -8 9441.58 1297.56 45
2 -2 -8 6166.1 885.325 39
-2 2 7 237775 8435.46 11
-2 2 7 215869 8535.08 46
-2 2 7 228369 9375.12 4
2 -2 -7 245664 8633.34 45
-2 2 6 20489.4 2076.77 4
-2 2 6 22442.9 1716.75 11
-2 2 6 19899.2 1761.33 46
2 -2 -6 21245 1755 45
-2 2 5 13316.4 1613.16 4
2 -2 -5 13306.4 1275.53 45
-2 2 5 12368.5 1235.78 44
-2 2 5 12155.7 1248.91 46
2 -2 -4 134612 4805.09 8
2 -2 -4 152821 5284.41 45
2 -2 -4 139220 5072.63 43
-2 2 4 141747 5017.69 49
-2 2 4 140685 5366.86 46
-2 2 4 143185 5292.3 44
2 -2 -4 141205 5232.73 9
2 -2 -3 13856.5 1135.92 43
-2 2 3 15145.9 1242.49 44
-2 2 3 17899.2 1458.99 46
-2 2 3 17762.3 1297.34 49
2 -2 -3 17310.6 1311.19 9
-2 2 3 12692.8 1692.25 1
2 -2 -3 15264.4 1193.84 45
2 -2 -3 13921 1046.38 8
2 -2 -3 15243.8 2188.46 1
2 -2 -2 296017 8959.82 9
-2 2 2 313584 9364.81 46
-2 2 2 287700 9014.99 44
-2 2 2 298885 9166.22 49
-2 2 2 268431 10088 1
2 -2 -2 264567 8552.51 8
2 -2 -2 268058 8714.54 45
2 -2 -2 271602 8804.62 43
2 -2 -1 220520 7258.9 8
-2 2 1 254142 7802.04 44
2 -2 -1 237717 7464.04 9
2 -2 -1 232773 7358.61 45
-2 2 1 217261 7749.3 46
2 -2 -1 239311 10603.3 41
-2 2 1 252545 8759.23 1
-2 2 1 205560 10933.7 41
-2 2 0 201540 7668.66 1
-2 2 0 216797 6699.42 46
2 -2 0 199764 6231.65 45
2 -2 0 189757 6197.6 9
-2 2 0 205915 9771.23 41
2 -2 0 196028 6270.75 8
2 -2 0 200142 8870.87 41
2 -2 1 73094.9 2789.31 5
2 -2 1 80979.8 2940.69 10
2 -2 1 72090.8 3046.67 8
-2 2 -1 81239.8 3165.96 44
-2 2 -1 81488.6 3188.09 46
2 -2 2 5769.58 573.545 5
2 -2 2 5166.29 628.216 10
-2 2 -2 4377.44 434.085 48
2 -2 2 6722.71 772.158 8
-2 2 -2 5275.45 634.206 44
2 -2 3 201889 6476.12 10
2 -2 3 188042 6372.16 8
2 -2 3 193042 6178.57 5
2 -2 4 276.254 240.229 11
2 -2 4 514.215 318.387 10
2 -2 4 250.384 277.611 8
2 -2 4 61.4337 188.481 5
2 -2 5 50504.4 2564.78 10
2 -2 5 43806.8 2227.79 5
2 -2 6 171957 6544.62 10
-2 2 -6 185691 6548.68 42
2 -2 7 131.728 281.766 14
2 -2 7 256.948 347.194 26
2 -2 7 -262.766 336.515 10
2 -2 7 392.504 410.523 38
2 -2 7 513.409 372.388 34
2 -2 7 340.742 424.284 18
2 -2 7 752.495 400.871 31
2 -2 8 -113.381 346.101 26
2 -2 8 316.496 410.82 34
2 -2 8 -510.504 387.988 14
2 -2 8 891.507 572.684 38
2 -2 8 618.987 443.497 10
2 -2 8 707.587 414.443 18
2 -2 8 246.883 315.777 31
2 -2 9 129946 5011.59 26
2 -2 9 135727 5420.48 38
2 -2 9 120161 4674.64 14
2 -2 9 122264 4894.08 18
2 -2 9 125355 5277.44 34
2 -2 9 132115 4957.5 31
2 -2 10 13430.5 1175.84 26
2 -2 10 12715 1067.87 14
2 -2 10 10710.9 1038.46 18
2 -2 10 14078.2 1344.34 34
2 -2 10 11654 1088.04 31
2 -2 11 4884.63 608.366 31
2 -2 11 4100.84 579.558 26
2 -2 11 4049.1 500.839 14
-2 1 12 82660.5 1926.85 20
-2 1 12 89342.7 2266.3 17
-2 1 11 -291.051 394.134 17
-2 1 11 837.93 333.213 20
-2 1 10 416.525 481.322 17
-2 1 10 610.344 416.506 20
-2 1 10 913.585 416.082 32
-2 1 9 67853.6 3825.05 11
2 -1 -9 71049.9 4010.51 45
-2 1 9 68421.7 3241.8 20
-2 1 9 67268.3 3306.21 32
-2 1 9 69435.6 3417.97 17
-2 1 8 564.298 612.141 17
-2 1 8 352.017 357.553 11
2 -1 -8 515.325 403.921 45
-2 1 8 359.268 368.588 20
-2 1 8 273.827 411.576 32
2 -1 -7 1494.8 626.043 45
-2 1 7 1938.78 545.152 11
2 -1 -7 2086.55 521.689 42
-2 1 6 246854 8251.2 11
-2 1 6 222620 8870.94 4
2 -1 -6 238181 7900.64 42
2 -1 -6 251080 8503.75 45
-2 1 5 73728.5 3802.36 4
-2 1 5 71182.8 3195.79 11
-2 1 5 70017.2 3318.68 46
2 -1 -5 77312.3 3451.39 45
2 -1 -5 75143.3 2995.46 42
-2 1 5 74027.2 3087.54 49
-2 1 4 122347 4258.31 11
-2 1 4 116167 4418.4 46
2 -1 -4 113927 4427.73 45
2 -1 -4 113352 3937.93 42
2 -1 -4 119121 4057.04 8
-2 1 4 111874 4176.13 49
2 -1 -3 429697 12153.2 42
2 -1 -3 448219 15354.6 1
-2 1 3 391699 12579.6 49
-2 1 3 412841 12381.4 47
-2 1 3 430823 12741.1 46
2 -1 -3 452446 12479.9 8
-2 1 3 424497 12624.8 44
2 -1 -3 438799 12781.7 45
2 -1 -3 443233 14578.7 2
2 -1 -2 102850 3877.8 9
-2 1 2 109460 3897.57 46
2 -1 -2 92980.2 5004.31 1
-2 1 2 103601 3673.21 44
2 -1 -2 104610 3597.83 8
2 -1 -2 102787 6401.59 41
2 -1 -2 104484 4471.7 2
2 -1 -2 103673 3776.86 45
-2 1 2 97014.3 4424.85 1
-2 1 2 102383 3859.88 49
-2 1 1 40619.7 2063.45 49
-2 1 1 43327.3 2072.15 46
-2 1 1 42573.3 1847.61 44
2 -1 -1 41353.9 1954.7 9
2 -1 -1 49402.5 3759.55 41
2 -1 -1 38041.9 1816.71 45
2 -1 -1 36660.1 1720.24 8
-2 1 1 35759.8 1957 1
2 -1 -1 46418.8 2670.37 1
2 -1 -1 39344.9 1811.13 2
2 -1 0 73680.2 2817.25 8
2 -1 0 78123.3 2530.15 10
-2 1 0 80503.2 2962.07 44
-2 1 0 76570.9 2728.39 1
2 -1 0 76921.2 2875.42 9
2 -1 0 80859.7 4389.18 41
2 -1 0 74617.2 2864.81 45
2 -1 1 141633 4446.26 10
2 -1 1 136572 4659.72 8
-2 1 -1 153617 4684.26 46
-2 1 -1 137901 4597.8 44
-2 1 -1 152833 6683.16 41
2 -1 1 128656 5892.77 41
-2 1 -1 155340 4891.79 1
2 -1 1 135460 4277.04 5
2 -1 2 36563.8 2824.96 41
2 -1 2 44998.1 1832.72 10
-2 1 -2 38056.3 2030.86 1
-2 1 -2 43000.6 1993.14 2
2 -1 2 41979.4 1592.09 5
-2 1 -2 43590.2 3116.05 41
2 -1 2 41560.6 1897.35 8
2 -1 3 183164 5737.56 10
2 -1 3 182703 5708.15 8
-2 1 -3 173507 7852.17 41
2 -1 3 186321 5437.13 5
2 -1 3 173175 5328.11 11
-2 1 -3 168589 6568.83 2
-2 1 -3 159930 8287.16 40
-2 1 -3 158191 6513.59 1
2 -1 4 318884 9283.19 10
2 -1 4 298611 8883.99 5
2 -1 4 301349 8955.82 8
2 -1 4 285966 8779.93 11
2 -1 5 3591.54 470.338 11
2 -1 5 2751.07 529.91 10
2 -1 5 3332.22 482.851 5
2 -1 6 2016.51 500.812 10
2 -1 7 98019.2 4311.25 10
2 -1 8 51455.2 2646.14 31
2 -1 8 50407.1 2738 17
2 -1 8 51985.4 3010.99 10
2 -1 8 52046.7 2942.03 38
2 -1 8 48770.9 2495.22 14
2 -1 8 53960.6 2646.51 18
2 -1 8 50915.4 2872.47 34
2 -1 8 47637.6 2619.84 26
2 -1 9 19258.4 1577.48 17
2 -1 9 17773.4 1719.19 10
2 -1 9 17059.4 1500.61 26
-2 1 -9 19058.3 2020 42
2 -1 9 18773.4 1453.41 18
2 -1 9 18176.4 1628.75 34
2 -1 9 20049.2 1797.63 38
2 -1 9 19101.5 1460.06 14
2 -1 9 18300.4 1505.92 31
2 -1 10 178199 6398.75 14
2 -1 10 177911 6602.54 17
2 -1 10 193821 6715.14 26
2 -1 10 180025 6826.1 34
2 -1 10 202057 7119.54 38
2 -1 10 176242 6363.57 18
2 -1 10 196731 6675.67 31
2 -1 11 9594.06 988.108 26
2 -1 11 9964.1 945.833 14
2 -1 11 10869.9 1007.38 31
2 -1 11 9284.58 952.139 17
2 -1 12 82.9291 252.326 14
2 -1 12 -13.6809 227.768 26
2 -1 12 705.525 307.774 31
-2 0 12 3541.37 395.323 18
-2 0 11 73572.8 3097.11 34
-2 0 11 73099.4 2980.34 20
-2 0 11 82555.2 3370.45 17
-2 0 10 1461.59 633.226 17
-2 0 10 640.618 344.849 34
-2 0 10 634.837 395.737 20
2 0 -9 777.97 509.543 45
-2 0 9 2295.83 711.734 17
-2 0 9 1584.3 513.295 20
-2 0 9 1921.72 561.415 34
-2 0 8 155321 6268.52 11
-2 0 8 140730 5524.96 32
2 0 -8 147762 6103.85 42
-2 0 8 154069 5555.96 20
2 0 -8 150884 6486.07 45
-2 0 8 152263 5902.21 34
-2 0 8 143684 5799.41 17
-2 0 7 1519.96 514.253 11
2 0 -7 732.07 431.056 42
2 0 -7 681.896 508.836 45
-2 0 6 1500.39 485.264 11
2 0 -6 2462.49 663.812 45
2 0 -6 2155.94 546.509 42
-2 0 6 2321.6 516.189 49
2 0 -5 305377 9895.99 45
2 0 -5 297763 9577.98 42
-2 0 5 306865 9648.96 49
-2 0 5 311809 9661.36 11
-2 0 4 58759 2468.86 11
-2 0 4 53655.9 2781.88 4
2 0 -4 55681.1 2434.67 42
-2 0 4 58534.9 2540.78 49
-2 0 4 56718 2545.86 46
2 0 -4 55489.9 2669.42 45
-2 0 3 5374.08 567.065 11
2 0 -3 4404.8 984.159 2
2 0 -3 5024.79 560.525 6
-2 0 3 5085.61 592.14 46
2 0 -3 5173.16 698.537 45
2 0 -3 4484.42 539.276 42
-2 0 3 4277.64 1183.9 40
-2 0 3 5089.6 565.76 47
2 0 -3 4950.76 1097.99 1
-2 0 3 6294.14 679.439 49
-2 0 2 313873 9166.4 11
2 0 -2 304445 9298.56 6
-2 0 2 326472 9507.45 49
-2 0 2 310028 9290.86 46
2 0 -2 322823 9193.43 42
2 0 -2 312130 12073.9 41
2 0 -2 314355 9539.3 45
2 0 -2 325164 10946.1 2
2 0 -2 318122 10762.5 1
-2 0 2 354619 12061.8 40
-2 0 2 323173 9361.62 47
-2 0 1 196179 6480.9 2
-2 0 1 193265 5725.64 46
2 0 -1 191205 5875.95 6
-2 0 1 193951 5916.14 47
2 0 -1 197193 6665.61 2
-2 0 1 179766 5585.95 44
2 0 -1 186524 6397.75 1
-2 0 0 394.471 186.728 2
2 0 0 647.473 251.381 6
2 0 0 1036.45 304.666 9
2 0 0 259.753 395.616 41
2 0 0 545.196 245.382 8
-2 0 -1 156290 4831.09 2
2 0 1 161027 4902.8 9
2 0 1 165981 5029.1 8
2 0 1 153022 5617.46 41
-2 0 -2 15095.9 1086.01 2
-2 0 -2 16411.1 1187.09 1
2 0 2 16575.1 953.277 8
-2 0 -2 16071.8 1406.06 41
-2 0 -2 12278.3 1737.66 40
2 0 2 16845.2 875.68 10
2 0 3 816.498 264.448 10
-2 0 -3 888.091 404.329 2
2 0 3 1154.31 276.166 8
-2 0 -3 1272.19 827.582 40
-2 0 -3 304.639 282.859 41
-2 0 -3 762.19 348.832 1
2 0 4 97852.3 3423.08 10
-2 0 -4 87621.4 4857.81 41
-2 0 -4 91541.3 5778.34 40
2 0 4 91016.2 3015.77 11
2 0 4 90527.4 3007.22 5
-2 0 -4 93808.5 4826.04 1
-2 0 -4 104267 4980.78 2
2 0 5 280370 8439.79 11
2 0 5 292809 8887.49 10
2 0 6 41884.8 2229.54 10
2 0 7 20394.6 1598.25 10
2 0 8 140571 5869.63 10
-2 0 -8 162907 6501.95 45
2 0 9 2918.68 940.918 29
2 0 9 2144.36 600.181 17
2 0 9 3278.87 687.324 14
2 0 9 2063.23 611.775 26
2 0 9 3125.14 702.613 38
2 0 9 1951.66 579.913 34
2 0 9 2177.94 586.312 10
2 0 9 2395.16 566.405 31
2 0 10 1653.19 581.985 17
2 0 10 436.861 328.007 14
2 0 10 1175.24 488.174 34
2 0 10 1430.51 431.17 26
2 0 10 884.93 593.023 38
2 0 10 941.662 449.538 31
2 0 11 113144 4832.21 17
2 0 11 120785 4843.77 26
2 0 11 120355 4695.94 14
2 0 11 120981 4750.43 31
2 0 12 1209.86 444.935 17
2 0 12 1164.06 368.267 14
2 0 12 1319.39 437.09 26
2 0 12 847.68 281.699 31
2 0 13 953.497 224.781 14
2 0 13 2163.06 358.99 26
-2 -1 11 11317 977.548 34
-2 -1 11 9544.17 888.227 18
-2 -1 11 12663.1 1064.13 17
-2 -1 10 58429.3 2638.68 20
-2 -1 10 62136.7 2701.11 14
-2 -1 10 59693 3009.33 34
-2 -1 10 56533.3 2953.69 17
-2 -1 9 32205.5 1903.24 14
-2 -1 9 32768.7 1933.76 20
-2 -1 9 30767.5 2178.99 34
-2 -1 9 30218 2152.75 17
-2 -1 8 8203.36 1104.57 17
2 1 -8 9128.14 1305.54 42
-2 -1 8 9020.22 1205.34 11
-2 -1 8 9127.45 979.955 20
-2 -1 8 8392.13 1127.28 34
-2 -1 8 8858.45 938.08 14
2 1 -7 263786 9904.06 45
2 1 -7 283803 9979.85 42
-2 -1 6 5350.42 798.596 11
2 1 -6 6088.17 942.577 45
-2 -1 6 4435.85 759.416 49
2 1 -6 6057.59 928.643 42
-2 -1 5 51656.1 2522.69 11
2 1 -5 49287 2632.8 45
2 1 -5 51093.1 2649.37 42
-2 -1 5 52274.7 2653.14 49
2 1 -4 156542 5461.52 42
-2 -1 4 159532 5500.6 49
-2 -1 4 156063 5286.29 11
2 1 -4 152331 5480.82 45
-2 -1 3 22621.5 1247.53 11
-2 -1 3 22770 1379.02 49
-2 -1 3 23211.3 1314.31 47
2 1 -3 22155.8 1333.03 42
2 1 -3 21906.5 1399.11 45
-2 -1 3 22350.6 2282.78 40
-2 -1 2 26495.7 1321.88 47
-2 -1 2 25171.7 1214.99 11
2 1 -2 25659 1318.75 42
2 1 -2 23848.6 2083.42 1
2 1 -2 26018.4 2308.73 2
-2 -1 2 24213.8 1319.02 49
-2 -1 2 24276 2148.89 40
2 1 -2 24941.5 1371.56 45
-2 -1 2 26012.7 2252.42 2
-2 -1 2 24270.9 1212.83 5
-2 -1 1 619420 16720.5 11
2 1 -1 603336 18627.8 2
2 1 -1 600431 16926.5 42
-2 -1 1 617419 18624 2
-2 -1 1 605994 16978.6 47
2 1 -1 590347 17041 45
-2 -1 1 587909 16700.3 5
2 1 0 300512 9009.08 6
-2 -1 0 301264 8808.79 49
2 1 0 316792 8915.86 42
-2 -1 0 309129 9872.94 2
2 1 0 292319 8904.22 45
2 1 0 304431 10028.2 2
2 1 1 2530.45 551.319 1
-2 -1 -1 2879.35 563.357 2
2 1 1 2256.15 438.11 6
-2 -1 -1 2666.97 362.856 49
2 1 1 2572.79 424.069 42
2 1 2 365425 10843.2 7
-2 -1 -2 367442 10543.2 41
2 1 2 400585 11486.1 1
2 1 2 365027 10414.8 10
2 1 2 382259 10946.3 6
-2 -1 -2 347241 10534.8 47
2 1 3 262546 8224.53 7
2 1 3 258404 7678.92 10
-2 -1 -3 260303 8394.35 41
-2 -1 -3 286728 10833.7 40
2 1 3 271152 8722.92 1
2 1 4 5143.92 397.793 11
2 1 4 4662.37 764.456 7
2 1 4 4913.19 546.404 10
-2 -1 -4 4146.37 810.412 41
-2 -1 -4 4460.13 1206.36 40
2 1 4 4094.95 813.787 1
-2 -1 -4 4572.64 1145.83 1
2 1 5 62003.9 2228.96 11
-2 -1 -5 55806.6 4364.14 1
-2 -1 -5 51676.1 3677.32 41
2 1 5 60659.1 2572.31 10
2 1 6 394869 11697.9 11
-2 -1 -6 396341 12190.8 43
2 1 6 416165 12246.3 10
2 1 7 94875.2 4018.51 10
-2 -1 -8 3281.28 681.158 45
2 1 8 3484.78 720.828 10
2 1 9 114342 5064.41 17
2 1 9 122127 5362.72 10
2 1 9 121493 4949.78 26
-2 -1 -9 140837 5841.95 45
2 1 9 122935 4824.97 14
2 1 9 123558 5054.38 38
2 1 9 125842 5083.91 25
2 1 9 120907 4909.8 31
2 1 10 95.0579 456.512 17
-2 -1 -10 524.078 513.287 45
2 1 10 -164.441 380.602 14
2 1 10 277.367 401.352 38
2 1 10 451.907 361.2 26
2 1 10 134.045 408.509 10
2 1 10 -188.789 322.44 31
2 1 11 740.621 446.47 17
2 1 11 459.027 373.339 26
2 1 11 876.704 481.416 14
2 1 11 155.409 311.158 31
2 1 11 766.536 452.086 38
2 1 12 97513.8 3991.06 26
2 1 12 89923.7 3782.41 31
2 1 12 101357 4075.91 17
2 1 12 91847.1 3819.29 14
2 1 13 902.016 358.058 17
2 1 13 761.101 325.237 14
2 1 13 718.021 302.163 26
2 1 13 1067.12 296.13 31
-2 -2 11 2201.93 405.242 28
-2 -2 11 3488.35 402.295 14
-2 -2 11 2739.07 445.612 18
-2 -2 11 3821.25 512.731 34
-2 -2 10 17972.3 1213.04 14
-2 -2 10 18210.1 1399.73 17
-2 -2 10 14456.2 1236.31 18
-2 -2 10 16798.4 1408.56 34
-2 -2 9 105060 4086.7 14
-2 -2 9 100011 3883.57 20
-2 -2 9 97252.8 4469.66 34
-2 -2 9 103008 4383.05 17
-2 -2 8 13717.9 1239.28 14
-2 -2 8 12647.9 1328.05 17
-2 -2 8 12557.7 1103.8 20
2 2 -8 11226.9 1529.11 42
-2 -2 8 11195.6 1370.05 34
-2 -2 8 13137.2 1413.76 11
2 2 -7 6487.92 1113.5 42
-2 -2 7 3504.84 755.502 17
-2 -2 7 4406.21 857.98 11
2 2 -7 2765.43 707.416 48
-2 -2 7 4464.7 686.918 14
-2 -2 7 4687.97 690.195 20
-2 -2 7 5121.88 854.743 34
-2 -2 6 159934 6183.39 11
2 2 -6 172342 6464.08 48
2 2 -6 170669 6658.88 42
-2 -2 5 192.075 297.619 11
2 2 -5 448.142 423.902 42
-2 -2 4 245.53 321.237 11
2 2 -4 -114.303 281.991 45
2 2 -4 217.238 382.603 42
-2 -2 4 142.032 320.533 5
-2 -2 4 -54.1721 336.047 49
-2 -2 3 388068 11649.1 49
2 2 -3 378136 11457.3 48
2 2 -3 380068 11455.7 45
2 2 -3 385996 11640.4 42
-2 -2 3 396795 11475.1 5
-2 -2 3 388423 11417.7 11
-2 -2 3 370092 11568 47
2 2 -2 6411.26 636.646 48
2 2 -2 6763.3 652.508 45
-2 -2 2 6649.62 637.189 5
2 2 -2 7035.72 720.102 42
-2 -2 2 6087.51 677.169 49
-2 -2 2 6429.38 624.702 11
-2 -2 2 7032.86 730.939 47
-2 -2 2 8132.13 673.363 3
-2 -2 1 41204.9 1657.38 11
-2 -2 1 39714 1751.02 49
2 2 -1 40349.1 1711.91 48
2 2 -1 38618.1 2576.21 41
2 2 -1 38138.6 1707.09 45
2 2 -1 39666.7 3032.03 2
2 2 -1 40074.8 1818.09 42
-2 -2 1 34571.2 2162.82 40
-2 -2 1 39652.1 2955.01 2
-2 -2 1 42033.9 1842.22 47
-2 -2 1 40157.4 1645.32 5
-2 -2 1 40984.6 1661.41 3
2 2 0 29647.1 1334.86 48
2 2 0 25061.2 1656.27 41
-2 -2 0 25445.8 1216.33 3
-2 -2 0 28028.3 2235.75 2
-2 -2 0 28235.5 1142.04 5
-2 -2 0 27053.2 1243.58 49
2 2 0 24121 1228.73 45
-2 -2 0 26316.4 1967.65 40
2 2 0 26629 2317.99 2
-2 -2 0 25421.6 1102.28 11
-2 -2 -1 11650.1 1388.86 2
-2 -2 -1 11885.3 1414.58 40
2 2 1 11097.2 793.185 41
-2 -2 -1 11000.6 658.878 49
2 2 1 12518.3 932.309 48
2 2 1 12746.7 977.082 7
2 2 2 913559 25193.6 6
2 2 2 862801 25518.6 48
-2 -2 -2 910813 24774 47
2 2 2 917944 25337.3 7
2 2 3 376559 13453.2 1
2 2 3 356841 10704.7 6
2 2 3 360785 10913.6 48
-2 -2 -3 305043 10992.4 41
-2 -2 -3 380991 13419 40
2 2 3 310293 12877.6 40
-2 -2 -3 362105 10169.1 47
2 2 3 369285 10982.1 7
-2 -2 -4 235266 6914.69 47
2 2 4 236939 7317.9 10
-2 -2 -4 240784 7465.33 43
-2 -2 -4 249583 10522.6 40
2 2 4 226450 9515.81 1
-2 -2 -4 239573 10285.6 1
2 2 4 231520 7896.94 7
2 2 5 15263.4 898.858 11
2 2 5 14324.5 1104.4 10
2 2 5 14547.6 1443.34 7
-2 -2 -5 15956.6 1228.88 43
2 2 6 130011 5502.14 7
2 2 6 123617 4706.94 10
2 2 6 128063 4298.09 11
-2 -2 -6 127986 4804.62 43
2 2 7 315485 10251.9 10
-2 -2 -7 315819 10132.4 43
-2 -2 -8 33866.8 2327.11 45
2 2 8 36080.5 2334.63 10
2 2 9 26996.9 1940.22 17
2 2 9 25349.7 1828.56 26
2 2 9 24851.7 2020.24 10
-2 -2 -9 28809.8 2227.55 45
2 2 9 26744.9 1868.51 31
2 2 10 130883 5353.98 17
-2 -2 -10 143920 5973.92 45
2 2 10 122495 5089.42 14
2 2 10 118895 5545.18 10
2 2 10 128182 5271.06 26
2 2 10 137091 5239.33 25
2 2 10 130447 5061.69 38
2 2 10 122025 5185.63 31
2 2 11 713.127 565.824 17
2 2 11 120.515 408.432 14
2 2 11 225.237 302.88 26
2 2 11 160.889 303.676 31
2 2 11 10.3251 330.407 38
2 2 12 3242.31 640.596 26
2 2 12 4668.41 803.914 17
2 2 12 3492.26 684.851 14
2 2 12 3401.8 622.633 31
2 2 13 76206.7 3098.68 17
2 2 13 71784 3046.4 26
2 2 13 68933.7 2927.91 14
2 2 13 73003.8 2896.94 31
-2 -3 10 6143.26 708.463 28
-2 -3 10 6232.88 652.296 14
-2 -3 10 4261.12 534.359 23
-2 -3 10 6853.73 811.16 34
-2 -3 10 6568.06 722.089 18
-2 -3 9 12957.3 1174.81 28
-2 -3 9 12977.1 1081.85 14
-2 -3 9 14168.9 1373.78 34
-2 -3 9 11388.6 1123.27 18
-2 -3 9 13377.2 1204.98 17
-2 -3 8 153452 5514.11 14
-2 -3 8 151252 6038.21 34
-2 -3 8 146762 5693.25 17
-2 -3 7 1892.16 671.697 17
-2 -3 7 2269.01 560.314 16
-2 -3 7 1438.99 449.427 14
2 3 -7 1152.35 610.984 48
-2 -3 7 1143.47 367.424 20
-2 -3 7 1553.73 579.806 11
-2 -3 7 1817.64 586.093 34
2 3 -7 1207.67 585.128 42
-2 -3 6 11092.6 1107.24 16
-2 -3 6 11786.1 1080.34 14
-2 -3 6 11560 1277.63 34
2 3 -6 8483.22 1243.09 42
-2 -3 6 10406 952.332 20
2 3 -6 12409.2 1411.22 48
-2 -3 6 9999.89 1144.83 11
-2 -3 6 9950.23 1140.15 17
2 3 -5 120680 5171.7 42
2 3 -5 124685 5091.8 48
-2 -3 5 117084 4852.06 5
-2 -3 5 120035 4809.31 11
-2 -3 4 7504.51 945.881 47
2 3 -4 8015.73 951.761 48
-2 -3 4 7549.88 912.195 5
2 3 -4 7128.82 945.432 42
-2 -3 4 7968.95 905.631 11
-2 -3 3 5711.58 755.414 49
-2 -3 3 5769.49 707.3 11
-2 -3 3 7246.81 920.242 47
2 3 -3 5550.95 788.607 42
2 3 -3 5997.96 787.5 48
-2 -3 3 5230.15 703.107 5
2 3 -2 439706 13095.9 48
-2 -3 2 435411 13134.6 49
-2 -3 2 439872 12950 5
2 3 -2 426209 13157.9 42
-2 -3 2 431381 13268.3 47
-2 -3 2 447881 13049 3
-2 -3 2 449375 12947.3 11
-2 -3 1 3057.03 515.008 47
-2 -3 1 2713.88 435.848 11
-2 -3 1 2950.63 488.701 3
-2 -3 1 3214.64 503.064 49
2 3 -1 1836.09 595.564 41
2 3 -1 2736.52 564.762 48
2 3 -1 2788.87 536.048 42
-2 -3 1 2641.9 433.609 5
-2 -3 0 3685.89 510.261 3
-2 -3 0 3739 464.359 11
-2 -3 0 3500.83 472.078 49
2 3 0 4312.5 603.292 48
-2 -3 0 3398.61 435.858 43
2 3 0 3411.28 769.351 41
-2 -3 0 3689.91 554.18 40
2 3 0 4176.41 631.02 42
-2 -3 0 3823.16 435.925 5
-2 -3 0 4449.54 584.603 47
-2 -3 -1 246256 8702.39 40
-2 -3 -1 229128 9641.63 2
-2 -3 -1 239051 7376.43 47
2 3 1 246905 7677.12 42
2 3 1 271938 8708.33 41
2 3 1 261496 7809.04 48
-2 -3 -1 232007 7137.54 49
-2 -3 -1 237809 7074.72 5
-2 -3 -1 226942 7273.8 43
-2 -3 -2 54592.8 1934.71 49
2 3 2 65558.7 4461.77 1
2 3 2 61592.7 2273.29 44
-2 -3 -2 50767.2 2542.02 41
-2 -3 -2 53828.7 2172.38 47
-2 -3 -2 49820.6 3399.71 40
2 3 2 46021.3 3434.28 40
2 3 2 55631.3 2595.47 42
-2 -3 -2 53148.9 2258.14 43
-2 -3 -2 50332.2 3787.2 2
-2 -3 -2 49114.7 1895.77 5
2 3 3 314090 9928.43 6
2 3 3 351697 10829.4 48
-2 -3 -3 332938 9902.37 43
2 3 3 274730 10182.6 42
2 3 3 355995 10025.9 44
-2 -3 -3 306011 10403.4 41
2 3 3 283392 12303.8 40
2 3 3 314591 13838.1 1
2 3 3 333849 9938.62 4
-2 -3 -3 349635 12683.1 40
-2 -3 -3 331248 9547.81 47
2 3 3 336348 10619 7
2 3 4 485628 17934.3 1
2 3 4 441133 13749.4 48
-2 -3 -4 428830 12463.2 47
2 3 4 422800 13014.6 6
-2 -3 -4 443769 13094.1 43
2 3 4 433329 13267.4 4
-2 -3 -4 499976 15134.9 41
2 3 4 430788 12688 44
2 3 4 440406 13831.5 7
2 3 5 113982 4573.66 4
2 3 5 106423 4805.83 7
-2 -3 -5 112346 4235.34 43
2 3 5 101207 3668.8 44
2 3 6 67447.2 3772.45 7
-2 -3 -6 62971.7 3081.35 43
2 3 6 71016.2 3191.71 10
2 3 7 45919.7 2261.35 11
2 3 7 43524.2 3117.29 7
-2 -3 -7 46162.9 2570.77 43
2 3 7 47255.5 2632.01 10
2 3 8 97286.3 5264.29 7
2 3 8 97196 4362.97 10
-2 -3 -8 97137.4 4324.83 45
-2 -3 -8 88506 4089.56 43
-2 -3 -9 40391.5 2632.68 45
2 3 9 36411.5 2549.78 10
2 3 10 24816.2 1865.71 17
-2 -3 -10 28770.9 2274.37 45
2 3 10 24394.4 2073.62 10
2 3 10 24731.7 1859.7 26
2 3 10 22195.9 1801.74 31
2 3 11 112107 4608.72 17
2 3 11 113475 4714.23 26
2 3 11 100926 4445.77 14
2 3 11 99660.1 4487.2 31
2 3 12 12372.8 1210.37 17
2 3 12 11238.4 1198.01 26
2 3 12 11849.1 1186.91 14
2 3 12 12571.2 1223.05 31
2 3 13 746.924 338.543 17
2 3 13 1575.84 437.712 14
2 3 13 1181.23 403.224 26
2 3 13 1277.49 361.509 31
2 3 14 79699.9 2934.47 26
2 3 14 81863.6 2874.04 14
2 3 14 86368 2951.41 17
-2 -4 9 8963.75 874.558 28
-2 -4 9 10156.3 896.523 14
-2 -4 9 8224.1 824.182 23
-2 -4 9 8509.39 820.45 18
-2 -4 9 9661.9 988.464 34
-2 -4 8 11414.6 1130.87 28
-2 -4 8 12554.2 1124.51 14
-2 -4 8 12025.3 1252.1 34
-2 -4 8 11561.6 1100.45 18
-2 -4 7 152744 5738.62 28
-2 -4 7 147614 5657.22 16
-2 -4 7 156120 5657.86 14
-2 -4 7 161981 5757.15 18
-2 -4 7 156901 6081.27 34
-2 -4 7 153575 5648 17
-2 -4 6 531.88 390.929 17
2 4 -6 705.69 641.487 42
-2 -4 6 297.166 375.061 11
-2 -4 6 933.272 436.145 16
2 4 -6 579.37 500.694 48
-2 -4 6 167.282 355.84 14
-2 -4 6 59.0005 331.843 34
-2 -4 5 54044.1 2738.6 16
-2 -4 5 54742.2 2903.16 34
-2 -4 5 53596.6 2640.95 14
2 4 -5 54292.9 3277.85 42
2 4 -5 58507.1 3303.59 48
-2 -4 5 52949.7 2994.35 5
-2 -4 5 54183.4 2948.51 11
2 4 -4 107453 4667.56 48
2 4 -4 105106 4693.41 42
-2 -4 4 100440 4372.18 5
-2 -4 4 105295 4386.72 11
2 4 -3 7567.53 1012.28 42
2 4 -3 9186.31 1109.43 48
-2 -4 3 10147.2 1210.57 47
-2 -4 3 8877.91 994.387 5
-2 -4 3 9492.27 1013.63 11
2 4 -2 476.136 409.492 48
-2 -4 2 27.0202 289.993 47
2 4 -2 573.521 377.124 42
-2 -4 2 273.326 338.265 11
-2 -4 2 170.912 280.7 5
-2 -4 2 42.4968 297.605 3
-2 -4 1 459573 14272.5 47
2 4 -1 460234 14183.4 48
-2 -4 1 473286 13875.4 5
-2 -4 1 474382 14122 3
2 4 -1 456087 14162 42
-2 -4 1 483028 13914.9 11
-2 -4 0 2161.65 521.447 3
2 4 0 2630.55 693.237 48
-2 -4 0 3051.77 594.956 47
-2 -4 0 2732.62 482.981 5
2 4 0 3167.43 666.444 42
-2 -4 -1 4844.42 706.458 3
-2 -4 -1 5360.92 691.327 47
-2 -4 -1 5394.17 600.304 5
2 4 1 4264.8 999.326 41
-2 -4 -1 5892.14 683.994 43
2 4 1 6032.67 841.22 42
2 4 1 5996.45 933.798 48
2 4 2 94366.6 3429.9 44
-2 -4 -2 84609.8 2987.86 5
2 4 2 81123 3802.54 48
2 4 2 71086.4 4845.27 41
-2 -4 -2 80047.3 4291.63 41
-2 -4 -2 72584.8 4377.25 40
2 4 2 70243.9 4619.45 40
-2 -4 -2 70277.4 3119.59 43
2 4 2 90670.2 3670.25 42
-2 -4 -2 80301.4 3186.05 47
2 4 3 98630.7 4226.46 42
2 4 3 96867 4583.73 48
-2 -4 -3 107678 3732.19 47
2 4 3 85886.8 3925.46 44
-2 -4 -3 97887.2 3896.85 43
-2 -4 -3 103986 5840.87 40
2 4 3 109321 3940.37 4
2 4 3 93463.4 6023.62 40
-2 -4 -3 103644 3545.78 5
2 4 4 21845.8 1622.88 4
2 4 4 21954.7 1495.58 6
2 4 4 25293.1 1690.56 44
-2 -4 -4 21148.8 1252.76 47
2 4 4 26360.8 2135.05 48
-2 -4 -4 21885.9 1565.42 43
2 4 4 25443.1 2184.96 7
2 4 5 298273 9764.1 48
2 4 5 280625 8740.91 44
2 4 5 271789 9311.66 4
2 4 5 276461 9940.2 7
-2 -4 -6 27730.7 1956.43 43
2 4 6 31716.9 2360.36 4
2 4 6 33424.4 2687.96 7
-2 -4 -7 25301.7 1806.67 45
2 4 7 27609.6 2024.76 10
-2 -4 -7 24857.6 1911.21 43
2 4 7 29089.1 2606.77 7
2 4 8 40171.4 3267.59 7
2 4 8 42143.7 2381.08 11
-2 -4 -8 47396 2679.71 45
-2 -4 -8 41405.8 2568.68 43
2 4 8 39737.4 2633.04 10
2 4 9 34190.2 3115.1 7
-2 -4 -9 38162.4 2473.23 43
2 4 9 33885 2496.62 10
-2 -4 -9 40294.2 2606.82 45
2 4 9 38824.2 2180.64 36
2 4 10 3016.27 691.109 17
2 4 10 3150.71 805.066 10
-2 -4 -10 4685.91 917.028 45
2 4 10 3570.06 727.888 36
2 4 10 2931.62 609.314 32
2 4 10 2833.02 716.078 31
2 4 11 10170.5 1174.47 26
2 4 11 8855.29 1067.34 17
2 4 11 11183.5 1093.81 36
2 4 11 10550.1 1214.63 31
2 4 12 89965.1 3723.77 17
2 4 12 90581.7 3776.27 14
2 4 12 87306.9 3853.62 26
2 4 12 83385.6 3440.18 36
2 4 12 84169.9 3746.5 31
2 4 13 6695.67 753.765 17
2 4 13 5440.52 721.54 14
2 4 13 5934.23 746.859 26
2 4 13 5851.22 696.896 31
2 4 14 3714.39 456.256 17
2 4 14 2994.77 411.149 26
2 4 14 3729.99 428.482 14
-2 -5 9 30115.4 1450.82 28
-2 -5 9 29690.3 1482.38 34
-2 -5 8 8146.2 860.384 28
-2 -5 8 8671.97 851.724 23
-2 -5 8 10397.4 911.77 14
-2 -5 8 8685.13 908.982 34
-2 -5 8 8659.49 821.117 18
-2 -5 7 26301.6 1688.32 16
-2 -5 7 27408.6 1755.26 28
-2 -5 7 28427.8 1686.42 18
-2 -5 7 27879 1707.85 14
-2 -5 7 26630 1749.53 23
-2 -5 7 25411.1 1791.08 34
-2 -5 6 53830.8 2711.87 28
-2 -5 6 48608.1 2609.98 16
-2 -5 6 53646.9 2638.28 14
-2 -5 6 50899.3 2693.86 23
-2 -5 6 50445.2 2543.46 18
-2 -5 6 51222.3 2774.75 34
-2 -5 5 66315.2 3232.69 28
-2 -5 5 71252 3330.36 16
-2 -5 5 74054.3 3301.03 14
-2 -5 5 70381.4 3604.95 11
2 5 -5 72101.4 3993.84 42
2 5 -5 78335.3 4143.52 48
-2 -5 5 67790.2 3349.76 34
-2 -5 5 68460.9 3634.93 5
-2 -5 5 72777.9 3169.55 18
-2 -5 4 722.247 463.539 11
-2 -5 4 403.653 347.579 28
-2 -5 4 843.453 425.739 16
2 5 -4 484.662 529.397 48
-2 -5 4 882.021 446.644 14
2 5 -4 420.32 523.505 42
-2 -5 4 106.775 288.806 34
-2 -5 4 264.063 237.815 18
-2 -5 4 616.255 426.163 5
2 5 -3 209304 7771.15 48
2 5 -3 197915 7629.42 42
-2 -5 3 205045 7395.7 5
-2 -5 3 205756 7382.66 11
-2 -5 2 795.327 489.574 3
2 5 -2 590.419 553.41 48
2 5 -2 868.433 478.596 42
-2 -5 2 1299.61 513.884 11
-2 -5 2 480.423 361.435 5
-2 -5 1 5216.83 840.212 3
2 5 -1 6208.73 979.725 48
-2 -5 1 5822.21 907.922 47
2 5 -1 7009.85 985.684 42
-2 -5 1 5434.29 791.837 5
-2 -5 0 545229 16265.7 5
-2 -5 0 552521 16715.8 47
-2 -5 0 526324 16546.8 3
2 5 0 527280 16651.7 42
-2 -5 -1 15853.3 1359.12 47
2 5 1 19381.7 1392.82 46
2 5 1 16021 1374.22 44
-2 -5 -1 16801.1 1281.28 43
2 5 1 15106.6 1413.19 42
-2 -5 -1 16418.9 1231.33 5
2 5 1 17345.6 1599.72 48
-2 -5 -1 13288.1 1238.93 3
-2 -5 -2 57552.1 2777.91 47
-2 -5 -2 58803.9 2723.3 43
2 5 2 49412.9 3149.02 48
-2 -5 -2 53624.8 2500.42 5
2 5 2 64067.2 3021.35 44
2 5 2 54160.8 2933.29 42
-2 -5 -2 55069.7 2769.36 3
-2 -5 -3 288667 8750.06 5
2 5 3 233548 9130.8 44
-2 -5 -3 316093 9220.08 43
2 5 3 262375 9343.97 42
-2 -5 -3 299902 8979.51 47
2 5 3 243742 9738.03 48
2 5 4 75573.6 3637.44 4
2 5 4 83249.3 4335.94 48
-2 -5 -4 77240.3 3231.45 47
-2 -5 -4 77228.5 3213.33 5
2 5 4 85714.5 3899.52 44
-2 -5 -4 86020.5 3666.29 43
2 5 5 -207.829 755.586 7
2 5 5 1038.74 498.586 4
2 5 5 531.915 355.482 44
-2 -5 -5 -100.289 391.395 43
2 5 5 113.237 512.782 48
2 5 6 271172 9514.75 48
2 5 6 242559 9281.53 4
2 5 6 251925 8589.09 44
-2 -5 -6 266324 8908.48 43
-2 -5 -6 249246 8310.36 45
2 5 6 246637 10007.1 7
2 5 7 70114.3 4545.51 7
-2 -5 -7 75800.6 3510.83 45
-2 -5 -7 80649 3892.71 43
2 5 7 76974.7 4392.34 4
2 5 8 35022.4 2545.05 10
-2 -5 -8 39474 2439.1 45
-2 -5 -8 40507.2 2627.53 43
2 5 8 36715.3 3229.32 7
2 5 9 31242 3001.32 7
2 5 9 35149.6 2159.41 27
2 5 9 32237.6 2446.06 10
-2 -5 -9 35958 2438.63 45
2 5 9 35358.9 2126.72 37
2 5 9 35380.8 2116.59 36
2 5 9 34460 2099.94 32
-2 -5 -9 36798 2522.37 43
2 5 10 49825.1 2641.52 17
2 5 10 50388.7 2702.24 27
2 5 10 48459.7 3081.39 10
-2 -5 -10 56733.3 2737.18 39
2 5 10 52058.3 2708.1 36
2 5 10 56117.3 2781.63 32
-2 -5 -10 55311.4 3208.21 45
2 5 11 12039.7 1151.67 17
2 5 11 12631.4 1169.2 27
2 5 11 11858.7 1151.79 36
2 5 11 12434.4 1148.52 32
2 5 11 12509.5 1273.05 31
2 5 12 3344.3 558.64 17
2 5 12 2963.87 608.2 26
2 5 12 3273.31 621.128 14
2 5 12 2566.83 560.673 31
2 5 12 2853.87 552.837 36
2 5 12 2592.89 468.947 32
2 5 13 59206.9 2456.42 17
2 5 13 59878.2 2642.47 26
2 5 13 59587.4 2546.85 14
2 5 13 58126.1 2516.14 31
2 5 14 4356.22 460.827 26
2 5 14 4066.2 432.021 14
-2 -6 7 2328.86 467.994 28
-2 -6 7 2476.4 474.331 23
-2 -6 7 2377.28 498.98 14
-2 -6 7 2116.32 441.799 34
-2 -6 7 1633.25 344.308 18
-2 -6 6 29339.6 1779.81 16
-2 -6 6 27269.9 1739.41 28
-2 -6 6 31363.5 1800.7 14
-2 -6 6 29171.8 1805.01 23
-2 -6 6 27358.8 1589.93 18
-2 -6 6 26905.9 1700.89 34
-2 -6 5 46542.2 2474.82 28
-2 -6 5 50841.9 2500.89 14
-2 -6 5 46683.3 2446.94 16
-2 -6 5 43451.4 2434.79 23
-2 -6 5 42109 2343.91 34
-2 -6 5 45537.6 2281.03 18
-2 -6 4 32616.3 2063.93 28
-2 -6 4 31899.1 2027.06 16
-2 -6 4 33044.9 2047.99 14
-2 -6 4 34969.1 2154.93 23
-2 -6 4 33726.1 1916.38 18
-2 -6 3 4800.81 790.94 28
-2 -6 3 5321.69 809.889 16
-2 -6 3 4387.81 815.826 14
2 6 -3 3707.65 892.044 48
-2 -6 3 4277.94 787.45 23
2 6 -3 6163.43 1064.71 42
-2 -6 3 4196.22 671.941 22
-2 -6 3 5405.93 961.159 5
-2 -6 2 174904 6194.91 28
-2 -6 2 166427 6034.61 16
-2 -6 2 171953 6149.74 14
-2 -6 2 169466 6204.62 23
2 6 -2 160949 6759.11 42
-2 -6 2 166894 6564.69 5
2 6 -2 181111 7258.77 48
-2 -6 2 165297 6045.99 22
-2 -6 1 92.1342 376.044 3
2 6 -1 1193.19 713.477 42
2 6 -1 187.079 525.778 48
-2 -6 1 234.165 313.67 5
-2 -6 0 262.005 373.199 3
2 6 0 -234.242 556.72 48
2 6 0 718.691 387.965 46
2 6 0 409.59 433.829 44
2 6 0 1377.51 607.132 42
-2 -6 0 452.401 407.996 5
2 6 1 197037 7849.1 48
2 6 1 205708 7457.63 44
-2 -6 -1 186141 6804.29 5
-2 -6 -1 174807 6948.08 3
2 6 1 186483 7262.33 42
-2 -6 -2 8002.03 1047.39 3
-2 -6 -2 9297.33 1077.52 43
2 6 2 8851.02 1208.43 42
-2 -6 -2 9901.31 1071.88 5
-2 -6 -3 6966.66 878.601 5
2 6 3 3855.28 1057.47 48
-2 -6 -3 7480.68 992.936 3
2 6 3 5896.56 1064.13 44
-2 -6 -3 6503.99 943.127 43
2 6 3 5478.54 981.582 42
2 6 4 188210 7964.63 48
2 6 4 189932 7516.99 44
-2 -6 -4 206345 7169.63 43
-2 -6 -4 189683 6927.33 3
-2 -6 -4 188495 6711.11 5
2 6 5 14782.2 2044.71 7
-2 -6 -5 12147 1160.03 5
-2 -6 -5 13477.6 1426.52 43
2 6 5 11536.7 1578.83 48
2 6 5 12384.7 1404.82 44
2 6 6 11213.8 1860.25 7
2 6 6 13221.6 1603.92 48
2 6 6 13734.2 1422.18 44
-2 -6 -6 13299.4 1469.67 43
2 6 6 9069.91 1366.19 4
2 6 7 72662.3 4363.52 4
-2 -6 -7 81651.7 4076.63 43
2 6 7 71940.9 4832.66 7
2 6 8 88156.4 3937.76 27
2 6 8 86154.8 4453.04 10
2 6 8 94173.8 4023.1 37
2 6 8 91849.9 3904.33 36
-2 -6 -8 94799.5 4569.67 43
2 6 8 89949.9 3893.74 32
2 6 8 85894.4 5381.26 7
2 6 9 1070.53 721.578 7
2 6 9 2882.6 628.241 27
2 6 9 2341.94 689.327 10
-2 -6 -9 1059.44 577.351 43
2 6 9 592.598 423.09 36
2 6 9 1714.61 537.27 32
2 6 10 105578 4364.06 27
2 6 10 111539 4428.6 36
-2 -6 -10 105706 4248.4 39
2 6 10 105342 4335.45 32
2 6 11 87941.4 3748.48 27
2 6 11 95614.2 3850.03 36
-2 -6 -11 89312.9 3647.35 35
-2 -6 -11 91262.9 3676.56 39
2 6 11 90509 3768.73 32
2 6 12 2414.57 477.251 27
2 6 12 2446.06 541.761 26
2 6 12 2317.31 483.354 36
2 6 12 2661.59 493.214 32
2 6 12 1664 493.711 31
2 6 13 3869.92 507.478 14
2 6 13 3476.19 441.51 32
2 6 13 3378.29 504.735 26
2 6 13 3814.39 497.791 31
-2 -7 6 10024 835.518 28
-2 -7 6 9199.91 794.801 14
-2 -7 6 9684.86 825.657 23
-2 -7 5 37058 1942.95 14
-2 -7 5 37442 1984.56 28
-2 -7 5 37722.1 2022.51 23
-2 -7 5 35593 1978.37 12
-2 -7 4 64924.9 2949.88 16
-2 -7 4 59218.3 2858.82 28
-2 -7 4 61826.2 2768.23 22
-2 -7 4 62136.5 2881.76 14
-2 -7 4 60253.1 2955.24 23
-2 -7 3 2766.4 633.107 28
-2 -7 3 2678.98 577.011 16
-2 -7 3 2330.93 627.761 23
-2 -7 3 3353.63 749.054 14
-2 -7 3 2435.67 541.85 22
-2 -7 2 11436.2 1195.41 28
-2 -7 2 11969.1 1192.98 16
-2 -7 2 11879.7 1239.58 23
-2 -7 2 12016.3 1156.57 22
-2 -7 2 13302.3 1307.84 14
-2 -7 1 206776 7276.15 28
-2 -7 1 203989 7075.48 16
-2 -7 1 194599 7684.25 5
2 7 -1 213975 8712.57 48
2 7 -1 214686 8407.55 44
-2 -7 1 191852 7016.63 22
-2 -7 1 199720 7188.56 14
-2 -7 1 210738 7353.4 23
-2 -7 0 15295.2 1333.96 22
-2 -7 0 15961.4 1716.9 3
-2 -7 0 16778 1429.82 28
-2 -7 0 16849 1363.5 16
2 7 0 19873.7 2048.13 44
-2 -7 0 16114.3 1459.71 23
-2 -7 0 17063.2 1646.68 5
-2 -7 0 12326.8 1192.73 20
2 7 0 16994.7 2090.09 48
-2 -7 0 16387.4 1478.14 33
-2 -7 0 14537.2 1381.22 14
-2 -7 -1 2639.36 568.316 16
-2 -7 -1 1715.3 698.86 3
-2 -7 -1 1507.08 439.939 20
-2 -7 -1 1804.25 684.403 15
-2 -7 -1 1339.71 515.314 14
2 7 1 1843.17 852.346 44
-2 -7 -1 2647.68 631.483 33
-2 -7 -1 1669.84 478.219 22
-2 -7 -1 1397.58 460.998 23
2 7 1 2616.55 1041.23 48
-2 -7 -1 441.598 420.418 5
-2 -7 -2 112896 4895.73 5
-2 -7 -2 116953 5095.76 3
-2 -7 -2 120727 4678.18 33
-2 -7 -3 9294.76 1128.99 5
2 7 3 9896.2 1658.13 48
-2 -7 -3 9846.26 1233.62 3
2 7 3 8997.21 1473.49 44
-2 -7 -3 9326.8 1147.85 43
-2 -7 -4 2699.21 704.213 3
2 7 4 2171.46 737.695 44
-2 -7 -4 3830.2 777.869 43
2 7 4 2751.29 959.76 48
-2 -7 -4 2755.67 634.816 5
2 7 5 152944 6208.2 27
2 7 5 155428 7122.78 48
2 7 5 175031 6908.38 44
-2 -7 -5 153640 6015.84 5
-2 -7 -5 167405 6577.42 43
-2 -7 -5 149514 6072.57 3
-2 -7 -5 161755 5853.14 21
2 7 5 172674 8122.6 7
2 7 6 7697.38 1124.06 44
2 7 6 8236.14 1754.5 7
2 7 6 7515.88 936.537 32
2 7 6 9398.91 1153.5 27
-2 -7 -6 6537.82 1088.58 43
-2 -7 -6 8287.48 1086.54 3
2 7 6 5657.63 1091.79 48
-2 -7 -6 7045.3 900.591 33
-2 -7 -6 7113.2 932.321 5
-2 -7 -6 8093.63 954.708 21
2 7 7 13956.6 2154.49 7
2 7 7 14256.3 1387.07 27
2 7 7 13679.2 1232.56 36
-2 -7 -7 15152.6 1304.71 21
-2 -7 -7 17822.9 1793.16 43
2 7 7 15724.5 1357.03 32
2 7 8 87485.3 5448.63 7
2 7 8 88788.6 3972.3 27
-2 -7 -8 96594.1 4732.62 43
-2 -7 -8 84769.5 3716.28 21
2 7 8 91693.2 3854.76 36
2 7 8 91329 3920.28 32
2 7 9 31944.9 2011.43 36
2 7 9 31613.4 2008.54 27
-2 -7 -9 30558.5 1840.55 21
2 7 9 34922.6 2094.11 32
2 7 10 12900.4 1196.99 27
-2 -7 -10 13195.4 1186.59 39
2 7 10 14081.7 1248.21 36
-2 -7 -10 15690.9 1323.64 35
2 7 10 15172.6 1278.5 32
2 7 11 48955 2407.61 27
-2 -7 -11 51186.7 2393 39
-2 -7 -11 49691 2403.04 35
2 7 11 49857.4 2451.68 32
2 7 11 51221.7 2486.93 36
2 7 12 25838.4 1451.89 27
2 7 12 19673.9 1371.33 26
2 7 12 28772.3 1547.46 36
-2 -7 -12 24413.1 1381.79 35
-2 -7 -12 23896.2 1347.01 39
2 7 12 27870.6 1509.2 32
2 7 12 22551.3 1419.18 31
2 7 13 19624.5 919.959 14
2 7 13 22198.8 998.017 32
2 7 13 19362 914.494 31
-2 -8 5 12807.3 828.383 28
-2 -8 5 13167.1 866.235 23
-2 -8 4 14710.3 1048.22 28
-2 -8 4 12383.1 971.144 14
-2 -8 4 15498.6 1107.82 23
-2 -8 4 15500 1102.02 12
-2 -8 3 59170.1 2689.94 28
2 8 -3 56681 2803.09 27
-2 -8 3 58610.9 2663.43 14
-2 -8 3 61103 2780.17 23
-2 -8 3 61120.3 2620.13 22
-2 -8 2 478.994 333.953 28
2 8 -2 717.004 397.664 27
-2 -8 2 852.665 439.202 23
-2 -8 2 1356.07 398.682 22
-2 -8 2 504.294 371.044 14
-2 -8 1 33771.2 2091.36 28
2 8 -1 34408.2 2292.95 27
-2 -8 1 36219.2 2204.4 23
-2 -8 1 33374.2 2084.17 14
-2 -8 1 34786.1 2045.77 22
-2 -8 0 142910 5291.67 28
2 8 0 122764 5430.1 27
-2 -8 0 123142 5118.96 14
-2 -8 0 140177 5384.39 23
-2 -8 0 134263 5098.56 22
-2 -8 0 130980 5249.58 33
-2 -8 -1 432.738 408.924 28
2 8 1 -119.466 475.371 27
-2 -8 -1 15.6474 375.518 23
-2 -8 -1 414.598 354.33 22
-2 -8 -1 486.183 416.826 33
-2 -8 -1 -46.905 502.399 15
-2 -8 -2 535.623 440.72 5
-2 -8 -2 69.1533 360.169 23
2 8 2 266.526 565.17 27
2 8 2 572.049 635.868 48
-2 -8 -2 122.283 504.94 15
2 8 2 1290.14 822.947 44
-2 -8 -2 622.347 364.043 22
-2 -8 -2 31.1175 268.279 21
-2 -8 -2 782.767 483.931 3
-2 -8 -2 129.525 329.392 33
2 8 3 76698.6 4076.71 27
-2 -8 -3 83366.2 3629.47 21
-2 -8 -3 86107.4 4186.74 3
-2 -8 -3 82296.8 3603.35 22
-2 -8 -3 89915.4 3823.58 23
2 8 3 86626.7 4905.02 44
-2 -8 -3 80188.2 4076.11 5
-2 -8 -3 80106.5 4065.62 15
2 8 3 80049.3 5020.23 48
-2 -8 -3 82556.5 3809.11 33
-2 -8 -4 622.064 540.43 43
-2 -8 -4 338.151 399.828 3
2 8 4 295.903 471.161 27
2 8 4 424.865 561.525 44
-2 -8 -4 149.391 266.736 22
-2 -8 -4 695.236 520.782 21
-2 -8 -4 361.994 294.543 33
-2 -8 -4 6.98599 399.279 5
2 8 4 126.79 499.187 48
2 8 5 1918.22 1016.21 7
-2 -8 -5 21.5173 298.89 5
-2 -8 -5 197.818 302.406 3
2 8 5 889.003 567.294 27
-2 -8 -5 518.645 401.91 21
2 8 5 308.513 444.113 44
2 8 5 644.544 653.793 48
-2 -8 -5 136.664 341.525 43
-2 -8 -5 42.3731 326.746 33
2 8 5 132.693 265.422 32
2 8 6 72258.3 3562.17 27
-2 -8 -6 66668.5 3791.16 43
2 8 6 65536.6 4005.37 48
-2 -8 -6 67888.9 3259.79 21
-2 -8 -6 63750.1 3370.18 3
-2 -8 -6 68750.7 3134.77 35
-2 -8 -6 71121.8 3322.66 33
2 8 6 64057.1 4728.01 7
2 8 6 71636.6 3254.46 32
2 8 7 12088.3 1256.88 27
-2 -8 -7 12266.3 1208.8 21
2 8 7 11929.2 1179.54 32
-2 -8 -7 12298 1189.92 35
-2 -8 -7 11532.6 1146.97 33
2 8 8 1245.83 432.339 27
-2 -8 -8 1378.67 451.923 21
-2 -8 -8 1889.08 560.777 35
2 8 8 1239.89 491.076 32
2 8 8 2507.6 530.769 36
-2 -8 -9 61944.5 2894.56 39
2 8 9 57630.2 2869.46 27
2 8 9 65330.2 2886.88 36
-2 -8 -9 59432.2 2806.78 21
-2 -8 -9 66889.7 3014.92 35
2 8 9 65657.8 2996.48 32
-2 -8 -10 15412.9 1202.79 39
2 8 10 16475.6 1254.22 27
-2 -8 -10 14787.3 1247.05 35
2 8 10 16873.1 1248.08 36
2 8 10 16892.2 1278.15 32
-2 -8 -11 17019.9 1174.69 39
2 8 11 17664.2 1208.54 27
-2 -8 -11 18356.8 1250.65 35
2 8 11 18120.5 1230.42 36
2 8 11 20585 1307.34 32
2 8 12 29574.9 1444.04 27
-2 -8 -12 30041.2 1429.12 39
-2 -8 -12 30066.5 1468.54 35
2 8 12 32189.8 1529.65 32
2 8 12 26820.4 1401.36 31
-2 -9 3 37992.9 1666.58 23
-2 -9 3 37705.1 1648.5 12
-2 -9 2 46206.1 2058.98 28
2 9 -2 47432.9 2155.64 27
-2 -9 2 52390.2 2244.88 23
-2 -9 2 49391.5 2187.04 12
-2 -9 1 8199.04 795.277 28
2 9 -1 7331.52 841.747 27
-2 -9 1 8367.46 857.415 23
-2 -9 1 7450.08 761.126 22
-2 -9 0 19586.2 1336.62 28
2 9 0 16793 1402.19 27
-2 -9 0 20494.2 1481.47 23
-2 -9 0 18151.4 1296.76 22
-2 -9 0 18793.8 1376.81 33
2 9 1 74368.7 3635.64 27
-2 -9 -1 90473 3692.95 23
-2 -9 -1 80602.2 3733.68 15
-2 -9 -1 80006.5 3399.82 22
-2 -9 -1 80730.8 3562.9 33
-2 -9 -2 2888.69 571.459 22
2 9 2 2964.54 695.348 27
-2 -9 -2 3042.58 695.447 23
-2 -9 -2 2336.06 661.155 15
-2 -9 -2 1781.65 513.006 33
2 9 3 4903 885.499 27
-2 -9 -3 4413.77 814.544 15
-2 -9 -3 6331.36 839.083 23
-2 -9 -3 4910.86 701.316 21
-2 -9 -3 6272.21 828.865 22
-2 -9 -3 5465.79 823.42 33
-2 -9 -4 152249 5587.09 21
-2 -9 -4 152991 6139.5 15
-2 -9 -4 152996 5547.96 22
-2 -9 -4 152532 5815.95 33
2 9 5 3708.63 786.057 27
-2 -9 -5 2837.27 766.336 15
-2 -9 -5 3131.26 613.948 21
-2 -9 -5 3404.3 645.612 33
2 9 6 835.138 462.842 27
-2 -9 -6 512.534 490.147 15
-2 -9 -6 274.336 351.804 21
-2 -9 -6 230.562 299.811 33
2 9 7 72254.2 3282.83 27
-2 -9 -7 71808.9 3207.55 21
-2 -9 -7 70181 3048.51 39
-2 -9 -7 67303 2986.74 35
-2 -9 -7 68953.2 3147.57 33
2 9 7 75800.9 3102.07 32
2 9 8 1014.8 384.941 27
-2 -9 -8 1267.15 439.426 21
-2 -9 -8 1600.31 442.169 35
2 9 8 991.083 341.573 32
-2 -9 -8 794.113 374.439 39
2 9 9 3778.71 631.632 27
-2 -9 -9 4015.77 601.874 35
-2 -9 -9 4066.14 696.435 15
-2 -9 -9 4521.98 634.252 39
-2 -9 -9 4027.56 589.904 21
2 9 9 3926.02 571.555 32
-2 -9 -10 96223.6 3500.05 35
2 9 10 90058.2 3385.03 27
2 9 10 96234.7 3433.9 32
-2 -9 -10 93695.1 3425.98 39
-2 -9 -10 80530 3446.72 15
-2 -9 -10 84429.6 3221.24 21
2 9 11 8965.77 717.364 27
-2 -9 -11 10124 766.491 39
-2 -9 -11 9904.17 786.693 35
2 9 11 10872.5 792.545 32
-2 -10 0 7973.12 655.789 23
-2 -10 0 6379.34 561.321 12
2 10 1 18500.5 1119.82 27
-2 -10 -1 19061.3 1140.28 23
-2 -10 -1 16568.9 1090.8 33
-2 -10 -1 17567.1 1037.37 12
2 10 2 50500 2271.9 27
-2 -10 -2 54030.3 2254.96 23
-2 -10 -2 49402.8 2340.34 15
-2 -10 -2 45440.7 2220.45 33
2 10 3 1094.04 394.994 27
-2 -10 -3 402.222 324.035 15
-2 -10 -3 737.196 343.426 23
-2 -10 -3 449.558 297.789 33
2 10 4 6579.58 764.468 27
-2 -10 -4 5522.34 780.89 15
-2 -10 -4 6041.88 635.013 21
-2 -10 -4 5330.46 706.817 33
2 10 5 83473.8 3272.41 27
-2 -10 -5 74336.6 3029.28 21
-2 -10 -5 75138.7 3361.35 15
-2 -10 -5 73998.1 3180.33 33
2 10 6 1003.65 339.027 27
-2 -10 -6 1161.02 465.101 15
-2 -10 -6 1362.21 377.164 21
-2 -10 -6 1525.49 418.966 33
2 10 7 724.157 283.144 27
-2 -10 -7 -0.61081 128.752 39
-2 -10 -7 84.8071 327.571 15
-2 -10 -7 664.721 323.992 33
-2 -10 -7 644.743 321.787 21
2 10 8 101073 2933.31 27
-2 -10 -8 90466.2 3098.22 15
-2 -10 -8 97300 2925.71 21
-2 -10 -8 88839.4 2651.54 39
2 10 9 2976.14 408.898 27
-2 -10 -9 2031.69 436.438 15
-2 -10 -9 3004.28 398.531 39
-2 -10 -9 2991.03 440.451 21
-2 -10 -9 2586.83 389.666 35
2 10 9 3034.49 378.355 32
2 10 10 278.797 200.79 27
-2 -10 -10 20.6715 151.855 35
-2 -10 -10 162.583 165.605 39
-2 -11 -4 7922.98 605.45 33
-2 -11 -5 3671.36 440.053 15
-2 -11 -5 3452.69 408.456 33
-2 -11 -6 40751.9 1743.02 15
3 -8 -7 1974.87 317.49 35
-3 8 7 1933.73 295.981 19
3 -8 -6 44309.1 1800.82 24
-3 8 6 47234.8 1868.04 19
3 -8 -5 34688.1 1709.49 24
-3 8 5 37230.8 1697.46 19
3 -8 -4 497.497 322.447 30
3 -8 -4 787.49 411.597 29
3 -8 -3 28468.2 1770.89 30
3 -8 -3 28476 1818.36 29
3 -8 -3 28767.3 1552.96 23
3 -8 -3 31403.2 1647.67 15
3 -8 -3 28826.5 1572.69 33
3 -8 -2 40872.6 2029.14 15
3 -8 -2 39348.5 2143.88 29
3 -8 -2 43421 1945.25 28
3 -8 -2 38464.9 1874.83 23
3 -8 -2 42764.3 2271.55 30
3 -8 -2 40560.6 1978.65 33
3 -8 -1 11676.3 1089.92 30
3 -8 -1 10273.8 909.409 15
3 -8 -1 10762.4 834.553 28
3 -8 -1 9302.35 812.819 24
3 -8 -1 10214.7 813.036 23
3 -8 0 6831.38 832.811 30
3 -8 0 7657.72 667.918 28
3 -8 0 7442.25 640.078 23
3 -8 0 6831.59 627.597 24
3 -8 0 7624.84 777.479 15
3 -8 1 94230.4 3660.33 30
3 -8 1 94459 3226.03 28
3 -8 1 96852.1 3489.94 15
3 -8 2 305.007 196.328 15
3 -7 -9 11597.8 769.555 39
-3 7 9 11663.1 722.562 19
3 -7 -9 12348.6 828.04 35
3 -7 -8 57381.7 2351.32 39
3 -7 -8 60042.3 2487.63 35
-3 7 8 60965 2371.54 19
3 -7 -7 16684 1193.38 35
3 -7 -7 16618.3 1095.1 39
-3 7 7 16616.9 1127.4 19
3 -7 -6 260.771 267.882 24
3 -7 -6 782.965 337.519 21
3 -7 -6 252.38 266.27 35
-3 7 6 680.213 351.986 19
3 -7 -5 48967.8 2409.41 21
3 -7 -5 45441.6 2291.34 35
3 -7 -4 57776.6 2974.66 30
3 -7 -4 51524.9 2589.44 23
3 -7 -4 53495.4 2548.5 33
3 -7 -4 54695.8 2624.95 21
3 -7 -4 52747.4 2498.51 35
3 -7 -3 2669.95 660.667 30
3 -7 -3 2024.64 510.331 28
3 -7 -3 1805.59 468.592 23
3 -7 -3 2043.41 531.811 15
3 -7 -3 2311.63 536.835 21
3 -7 -3 2743.06 575.833 33
3 -7 -3 1845.85 398.577 18
3 -7 -2 38412.5 2546.2 30
3 -7 -2 38582.9 2136.9 28
3 -7 -2 40544.8 2127.3 21
3 -7 -2 43979 2441.87 15
3 -7 -2 38083 2223.04 33
3 -7 -2 40256.9 2026.93 18
3 -7 -2 40964.8 2204.83 23
3 -7 -1 95577 4434.65 30
3 -7 -1 92513.8 4409.82 29
3 -7 -1 91249.3 3752.64 28
3 -7 -1 87689 3704.71 23
3 -7 -1 94504.9 4095.4 15
3 -7 -1 90230.5 3909.83 33
3 -7 -1 95678.3 3634.06 18
3 -7 0 13162.5 1386.17 29
3 -7 0 13412.5 1164.24 28
3 -7 0 14286 1353.56 15
3 -7 0 14299.4 1157.54 23
3 -7 0 14793.7 1554.06 30
3 -7 0 14776.5 1102.99 12
3 -7 0 14883.3 1313.19 33
3 -7 0 15835.8 1191.42 18
3 -7 1 3534.68 801.806 30
3 -7 1 3066.14 526.207 12
3 -7 1 2494.25 491.169 23
3 -7 1 2857.77 553.75 28
3 -7 1 2375.27 601.188 15
3 -7 1 3120.19 604.756 33
3 -7 1 2846.62 609.968 18
3 -7 2 91833.6 4117.82 30
3 -7 2 93426.4 3532.59 28
3 -7 2 94374.4 3894.37 15
3 -7 2 87214.3 3349.49 23
3 -7 2 88448.7 3470.31 12
3 -7 2 96048.2 3505.76 18
3 -7 3 795.213 305.491 28
3 -7 3 1063.43 402.656 30
3 -7 3 1209.52 394.497 15
3 -7 3 335.141 236.794 12
3 -7 3 1107.03 418.337 18
3 -7 4 307.98 300.312 30
3 -7 4 172.73 120.539 28
3 -7 4 43.6747 217.565 15
3 -7 4 788.568 294.947 12
3 -7 4 847.039 286.17 18
-3 6 10 36481.3 1299.53 32
-3 6 10 38147.3 1165.96 20
3 -6 -10 39107.1 1356.14 39
3 -6 -10 39519.9 1329 35
3 -6 -9 130.556 232.424 39
-3 6 9 204.047 177.071 20
3 -6 -9 365.4 298.166 35
-3 6 9 235.937 187.753 19
-3 6 9 924.731 331.822 32
3 -6 -8 4600.17 633.074 39
3 -6 -8 4684.52 688.712 35
-3 6 8 3910.31 560.355 19
-3 6 8 4352.91 607.553 32
3 -6 -7 51041.3 2524.02 39
3 -6 -7 56127.1 2700.73 35
-3 6 7 54841.1 2549.74 19
3 -6 -7 54522.2 2609.75 21
3 -6 -6 7378.92 842.214 39
3 -6 -6 7198.08 867.057 21
3 -6 -6 6788.91 858.285 35
3 -6 -5 14409.8 1163.31 39
3 -6 -5 13456.2 1249.41 35
3 -6 -5 16152.3 1362.88 21
3 -6 -4 73519.2 3421.14 23
3 -6 -4 79524.1 3493.36 21
3 -6 -4 79273 3455.26 35
3 -6 -4 67078.2 3038.45 18
3 -6 -3 67663.2 3177.73 28
3 -6 -3 71864.3 3429.08 15
3 -6 -3 68731.9 3243.04 21
3 -6 -3 66877 3141.83 35
3 -6 -3 69662.7 3271.17 33
3 -6 -3 67332.4 2988.27 18
3 -6 -3 66623 3213.08 23
3 -6 -2 2164.91 593.926 28
-3 6 2 2001.27 671.36 46
-3 6 2 2523.42 820.153 44
3 -6 -2 2456.71 649.217 23
3 -6 -2 2569.17 535.614 21
3 -6 -2 2414.77 670.339 15
3 -6 -2 2615.04 649.179 33
3 -6 -2 3376.14 668.992 18
3 -6 -1 36834.3 2668.31 30
3 -6 -1 38557.7 2244.45 28
3 -6 -1 39872 2505.19 15
3 -6 -1 34641.4 2134.43 23
3 -6 -1 33959.2 2057 21
3 -6 -1 36022.9 2289.32 33
3 -6 -1 36590.6 2120.3 18
3 -6 0 177633 6990.03 30
3 -6 0 153092 6780.02 29
3 -6 0 163870 5990.36 28
3 -6 0 158841 5900.81 23
3 -6 0 173846 6501.52 15
3 -6 0 155995 5729.01 12
3 -6 0 157434 6130.79 33
3 -6 0 157555 5841.81 18
3 -6 1 7435.64 1207 30
3 -6 1 5725.22 1073.82 29
3 -6 1 7698.67 1105.98 15
3 -6 1 6362.88 885.329 28
3 -6 1 7304.05 912.818 23
3 -6 1 5097.98 854.085 33
3 -6 1 6513.93 870.806 12
3 -6 1 5319.9 817.4 18
3 -6 2 19417.7 1880.91 30
3 -6 2 16026.3 1674.35 29
3 -6 2 16668.5 1383.89 28
3 -6 2 18094 1366.66 23
3 -6 2 19391 1719.6 15
3 -6 2 17672.2 1389.84 12
3 -6 2 17416.2 1521.36 33
3 -6 2 18594.3 1453.11 18
3 -6 3 113025 5148.22 30
3 -6 3 112544 4387.87 28
3 -6 3 117275 4871.43 15
3 -6 3 113709 4449.3 12
3 -6 3 109993 4396.03 18
3 -6 4 317.848 461.524 30
3 -6 4 964.899 353.048 28
3 -6 4 -130.819 328.843 12
3 -6 4 -409.37 424.031 18
3 -6 4 115.162 359.9 15
3 -6 5 1477.42 430.183 30
3 -6 5 33.1179 136.084 28
3 -6 5 1183.32 387.692 12
3 -6 5 1148.28 419.024 15
3 -6 5 1768.01 443.95 18
3 -6 6 51372.3 2157.04 18
3 -6 6 55967.4 2221.21 12
-3 5 11 392.793 220.934 32
3 -5 -11 126.4 173.425 39
-3 5 11 301.373 172.592 20
-3 5 10 3589.68 486.085 20
3 -5 -10 4095.38 540.29 39
3 -5 -10 4479.05 524.177 35
-3 5 10 3707.83 529.293 32
3 -5 -9 73957.6 3122.83 39
-3 5 9 71494.4 2925.14 19
-3 5 9 75955.4 2988.17 20
3 -5 -9 71928.5 3074.3 35
-3 5 9 68365.7 3092.62 32
3 -5 -8 1147.68 495.953 39
-3 5 8 1072.17 372.563 20
3 -5 -8 575.287 437.138 35
-3 5 8 705.551 290.527 19
-3 5 8 388.362 369.927 32
3 -5 -7 7507.91 919.912 39
3 -5 -7 7464.1 897.03 21
3 -5 -7 6478.64 920.772 35
-3 5 7 7468.91 875.831 19
-3 5 7 5979.24 782.807 32
-3 5 6 148123 7164.11 4
-3 5 6 140319 6030.53 46
-3 5 6 140779 5977.14 44
3 -5 -6 151013 5461.47 21
3 -5 -6 145467 5355.24 39
3 -5 -6 148655 5519.14 35
-3 5 5 22652.5 2522.38 4
-3 5 5 23366.6 2019.34 46
-3 5 5 19850.7 1844.46 44
3 -5 -5 18305.7 1540.13 9
3 -5 -5 23037.9 1597.64 39
3 -5 -5 23815 1704.25 21
3 -5 -5 22514.8 1702.8 35
3 -5 -5 17395.7 1350.61 18
3 -5 -4 24896.3 1762.26 28
-3 5 4 28084.1 2273.37 46
3 -5 -4 24297.1 1759.48 21
3 -5 -4 24642.6 1812.54 23
-3 5 4 22391.1 1995.56 44
3 -5 -4 23850.3 1623.46 39
3 -5 -4 26247.5 1814.1 35
3 -5 -4 29078.4 1967.07 8
3 -5 -4 22827.1 1542.74 18
3 -5 -3 119184 4749.6 23
3 -5 -3 117877 4685.36 28
-3 5 3 121244 5554.39 46
3 -5 -3 114094 4680.18 21
3 -5 -3 111200 4961.72 5
-3 5 3 121574 5384.29 44
3 -5 -3 115172 4662.23 35
3 -5 -3 121974 4966.03 8
3 -5 -3 117566 4688.28 33
3 -5 -3 113691 4438.17 18
-3 5 2 57048.4 3434.32 49
3 -5 -2 55927.5 2790.14 28
3 -5 -2 52520.9 2932.15 15
-3 5 2 57931.5 3561.41 46
3 -5 -2 55698.7 2797.01 21
3 -5 -2 53808.6 3024.05 5
3 -5 -2 52427.5 2744.1 23
-3 5 2 51436.1 3262.55 44
3 -5 -2 50700.4 2668 35
3 -5 -2 57950.9 3045.82 8
3 -5 -2 51029.5 2777.64 33
3 -5 -2 54814.8 2625.63 18
3 -5 -1 116009 4584.55 28
3 -5 -1 111817 4853.25 15
3 -5 -1 108412 4454.08 21
3 -5 -1 111045 4526.77 23
-3 5 1 114744 5376.19 44
3 -5 -1 116128 4470.65 18
3 -5 -1 108579 4826.76 5
-3 5 1 115797 5660.33 46
-3 5 1 113170 5585.59 49
3 -5 -1 117555 4899.16 8
3 -5 -1 108646 4657.13 33
3 -5 0 2821.89 809.896 30
3 -5 0 1855.41 553.556 28
3 -5 0 2091.9 684.518 15
-3 5 0 2619.59 939.841 46
3 -5 0 2965.77 668.155 23
3 -5 0 2414.1 673.921 33
3 -5 0 2718.4 693.062 8
3 -5 0 2135.94 526.271 12
3 -5 0 3116.83 688.66 18
3 -5 1 90653.2 4590.02 30
3 -5 1 81613.8 4521.05 29
3 -5 1 84108.7 3792.52 28
-3 5 -1 75861.6 4753 46
3 -5 1 90822 3809.47 23
3 -5 1 86440.4 4202.1 15
3 -5 1 88984.2 4185.85 8
3 -5 1 88768.6 3785.55 12
3 -5 1 85194.9 3984.26 33
3 -5 1 83549 3764.72 18
3 -5 2 39329.4 2819 30
3 -5 2 37839.7 2802.82 29
3 -5 2 35845.7 2183.76 28
3 -5 2 37865.7 2560.96 15
3 -5 2 36571.1 2344.55 33
3 -5 2 37758.5 2224.92 12
3 -5 2 29998.8 2053.96 18
3 -5 3 41500.8 2924.96 30
3 -5 3 39175.6 2799.85 29
3 -5 3 38623.9 2284.6 28
3 -5 3 42444.1 2709.78 15
3 -5 3 42441.2 2426.99 12
3 -5 3 38949.7 2427.63 33
3 -5 3 35342.8 2242.59 18
3 -5 4 186035 7504.13 30
3 -5 4 181052 6538.86 28
3 -5 4 193907 7178 15
3 -5 4 195752 6778.64 12
3 -5 4 174486 6618.45 18
3 -5 5 275.707 566.129 30
3 -5 5 410.628 503.824 15
3 -5 5 164.669 304.595 28
3 -5 5 541.149 414.875 12
3 -5 5 -889.984 632.014 18
3 -5 6 2912.22 671.919 30
3 -5 6 3513.4 741.85 15
3 -5 6 3157.38 588.861 12
3 -5 6 1361.99 397.526 18
3 -5 7 94259.8 3401.91 12
3 -5 7 83524.4 3384.13 18
3 -5 8 2035.6 344.177 18
3 -4 -11 55509.2 2205.52 39
-3 4 11 54921.9 2200.2 20
-3 4 11 53456.7 2302.41 32
3 -4 -10 433.957 377.395 39
-3 4 10 586.094 303.99 20
-3 4 10 225.697 299.582 32
-3 4 9 4995.32 701.152 20
3 -4 -9 4307.19 691.06 39
3 -4 -9 4305.51 674.374 35
-3 4 9 4662.46 647.567 19
-3 4 9 4677.27 786.088 32
3 -4 -8 108420 4425.25 39
-3 4 8 106886 4203.03 20
3 -4 -8 108362 4378.99 35
-3 4 8 103221 4193.33 19
-3 4 8 106392 4439.73 32
-3 4 7 -141.472 343.794 11
-3 4 7 641.215 391.563 27
3 -4 -7 242.32 373.735 45
-3 4 7 241.221 681.96 4
3 -4 -7 513.971 372.338 9
-3 4 7 172.65 363.937 46
3 -4 -7 933.53 445.16 39
3 -4 -7 502.458 434.703 35
-3 4 7 170.5 286.503 19
3 -4 -7 1547.86 450.48 21
-3 4 7 692.619 407.335 32
3 -4 -6 319.887 433.528 45
-3 4 6 599.995 434.801 44
-3 4 6 1411.19 974.372 4
3 -4 -6 270.891 326.327 9
3 -4 -6 258.375 392.493 39
3 -4 -6 101.213 348.061 21
-3 4 6 114.578 396.629 46
3 -4 -6 441.854 391.927 35
-3 4 6 1092.15 461.929 19
-3 4 6 493.645 416.728 32
-3 4 5 110500 5082.92 44
3 -4 -5 115846 4856.29 9
3 -4 -5 122072 4703.39 21
3 -4 -5 119056 4589.39 39
3 -4 -5 112074 5104.65 45
-3 4 5 122810 5349.14 46
3 -4 -5 116269 4678.5 35
3 -4 -5 105001 4353.65 18
3 -4 -4 43244.2 2585.23 9
-3 4 4 46060.7 2879.3 44
3 -4 -4 54271.6 2738.41 8
-3 4 4 50049 3038.34 46
3 -4 -3 20943.4 1640.53 8
-3 4 3 20953.3 1822.17 44
3 -4 -3 19842.7 1611.7 9
-3 4 3 25234.6 2115.69 46
-3 4 3 22044.6 1860.83 49
-3 4 2 177685 7113.43 49
-3 4 2 191333 7322.44 46
-3 4 2 173803 6899.04 44
3 -4 -2 176922 6526.88 8
3 -4 -1 47456.3 2639.84 5
-3 4 1 52950.7 3100 44
-3 4 1 49117.7 3229.23 46
3 -4 -1 49866.9 2727.22 8
-3 4 0 20902.9 1911.99 44
3 -4 0 22437.2 1645.45 5
3 -4 0 21287.3 1701.38 8
-3 4 0 17614.2 1933.25 46
3 -4 1 78252.4 3752.28 8
-3 4 -2 74405.3 4256.14 46
3 -4 2 69330.4 3552.63 8
3 -4 3 21517.1 2017.11 30
3 -4 3 23708.6 2096.2 29
3 -4 3 21854.2 1630.31 28
3 -4 3 25133.8 1847.45 26
3 -4 3 23915.3 1952.97 15
3 -4 3 24112 1932.87 8
-3 4 -3 23949.4 2298.34 46
3 -4 3 24314.3 1766.15 12
3 -4 3 22827.3 1755.3 33
3 -4 3 20525.5 1646.06 18
3 -4 4 15146.1 1716.48 30
3 -4 4 13850.2 1620.68 29
3 -4 4 14610.3 1328.37 28
-3 4 -4 17931.4 1988.65 46
3 -4 4 19681.1 1587.72 26
3 -4 4 16008.5 1588.96 15
3 -4 4 16603 1469.21 12
3 -4 4 15276.5 1426.25 33
3 -4 4 14797.1 1424.47 18
3 -4 4 19779.9 1481.44 31
3 -4 5 102703 5176.31 30
3 -4 5 102874 5070.4 29
3 -4 5 127790 4866.03 26
3 -4 5 109893 4968.06 15
-3 4 -5 117465 5699.15 46
3 -4 5 115367 4743.44 12
3 -4 5 109221 4693.93 18
3 -4 5 125244 4652.99 31
3 -4 6 20377.6 1895.58 30
3 -4 6 23346.6 1691.22 26
3 -4 6 20311.9 1703.07 15
3 -4 6 19089.7 1540.61 12
3 -4 6 19898.1 1627.93 18
3 -4 7 2237.16 646.893 30
3 -4 7 2670.57 601.75 26
3 -4 7 2177.2 505.952 12
3 -4 7 2451.23 630.633 18
3 -4 8 65456.7 2648.59 26
3 -4 8 56308 2561.29 18
3 -4 9 -14.4852 284.648 18
-3 3 12 7886.62 554.626 20
-3 3 11 3013.68 464.321 20
-3 3 11 3048.76 497.527 32
-3 3 10 99953 4200.45 32
-3 3 10 109968 4133.16 20
3 -3 -10 113533 4273.75 39
-3 3 9 1396.23 434.762 20
3 -3 -9 959.334 412.189 39
-3 3 9 2052.54 527.005 19
-3 3 9 1061.24 507.311 32
-3 3 8 981.715 472.458 11
3 -3 -8 3143.61 697.277 39
-3 3 8 2270.29 581.151 20
3 -3 -8 1509.21 439.388 35
-3 3 8 2400.9 550.683 19
-3 3 8 2268.4 593.712 32
-3 3 7 168411 6218.58 19
-3 3 7 166315 6787.65 11
-3 3 7 179272 8083.86 4
3 -3 -7 184555 7329.69 45
3 -3 -7 172456 6868.45 9
3 -3 -7 184190 6542.75 39
3 -3 -7 181193 6435.74 35
-3 3 7 170298 7141.94 46
-3 3 7 169032 6404.96 32
-3 3 6 20989.8 1761.51 11
3 -3 -6 22666.9 2029.66 45
-3 3 6 20956.5 1910.84 46
3 -3 -6 20807.4 1779.08 9
3 -3 -6 20869.2 1576.47 39
3 -3 -6 21484.7 1604.81 35
-3 3 6 15779.6 2080.81 4
-3 3 6 20971.1 1541.44 19
-3 3 6 20765 1581.28 32
-3 3 5 22132.3 1879.51 46
3 -3 -5 21250.5 1908.5 45
-3 3 5 20122.9 1774.01 44
3 -3 -5 21458.2 1749.61 9
3 -3 -4 229920 8259.82 45
-3 3 4 237258 8383.72 46
-3 3 4 221677 8121.27 44
3 -3 -4 230557 8031.27 9
3 -3 -4 227472 7756.13 8
-3 3 4 227879 7970.21 49
3 -3 -3 53846.4 2958.37 45
-3 3 3 55529.5 2976.54 44
3 -3 -3 56311.3 2897.17 9
-3 3 3 55259.2 3015.51 49
3 -3 -3 52548.4 2729.43 8
-3 3 3 58997.1 3182.24 46
3 -3 -2 12769.5 1225.81 9
-3 3 2 12630.8 1388.68 49
-3 3 2 15482.4 1528.04 46
3 -3 -2 12708.2 1267.96 45
-3 3 2 12250.1 1297 44
3 -3 -2 10714.5 1104.37 8
3 -3 -1 195553 7069.07 8
-3 3 1 220306 7930.68 49
-3 3 1 223801 7552.72 44
3 -3 -1 187979 7048.95 9
-3 3 1 214711 7797.31 46
3 -3 0 70786.4 3026.63 5
-3 3 0 72611.4 3523.91 44
3 -3 0 71257.3 3240.26 8
-3 3 -1 40707.3 2772.32 46
3 -3 1 53991.5 2715.88 8
3 -3 2 118134 4914.97 8
-3 3 -2 131104 5487.18 46
-3 3 -3 118013 5104.26 46
3 -3 3 102004 4515.03 8
3 -3 4 3919.91 761.384 10
-3 3 -4 3309.45 816.593 46
3 -3 4 3447.88 686.714 8
3 -3 5 16496.5 1736.14 30
3 -3 5 15611 1658.32 29
3 -3 5 18590.5 1657.13 10
3 -3 5 17222.4 1425.91 26
3 -3 5 15626.5 1543.83 15
-3 3 -5 16621.9 1727.94 46
3 -3 5 16133.5 1440.6 12
3 -3 5 17266.2 1452.39 18
3 -3 5 19952.7 1442.32 31
3 -3 6 132892 5906.12 30
3 -3 6 129312 5802.28 29
3 -3 6 134689 5225.93 38
3 -3 6 142276 5379.79 26
3 -3 6 134097 5603.39 15
3 -3 6 134191 5332.28 12
3 -3 6 136421 5377.89 18
3 -3 6 151071 5287.66 31
3 -3 7 22266.3 1655.65 26
3 -3 7 23758.3 1862.77 15
3 -3 7 24473.1 1750.44 38
3 -3 7 19972.7 1563.13 12
3 -3 7 23739.7 1736.99 18
3 -3 7 24218.7 1649.91 31
3 -3 7 22743.8 1984.86 30
3 -3 8 2181.43 556.382 30
3 -3 8 3726.11 673.891 26
3 -3 8 3125.08 629.881 18
3 -3 8 4471.88 744.699 31
3 -3 9 72953 3083.58 26
3 -3 9 67342.4 3039.85 18
3 -3 9 74887.6 3048 31
3 -3 10 1163.77 335.312 26
3 -3 10 -36.8323 262.902 18
-3 2 12 50375.9 1873.74 20
-3 2 11 6245.06 693.029 20
-3 2 11 5567.93 670.134 32
-3 2 10 12468.6 1104.25 20
-3 2 10 11967.9 1152.3 32
-3 2 9 102216 4249.15 20
-3 2 9 97883.2 4384.09 32
-3 2 8 12328.6 1435.49 11
3 -2 -8 10569.3 1369.7 9
-3 2 8 9890.7 1051.45 19
3 -2 -8 9495 1147.06 39
-3 2 8 9353.62 1059.39 20
3 -2 -8 10465.8 1494.89 45
-3 2 8 10440.5 1181.25 32
-3 2 7 19923.1 1801.26 11
3 -2 -7 20295.2 1864.43 9
3 -2 -7 19268.9 1926.26 45
3 -2 -7 19213.9 1591.28 39
-3 2 7 21376.5 1543.5 20
-3 2 7 20083.2 1521.46 19
-3 2 7 18874 1567.32 32
-3 2 6 102759 5420.02 4
-3 2 6 106544 4564.94 11
-3 2 6 99346.4 4764.83 46
3 -2 -6 105174 4898.35 45
3 -2 -6 95740.3 4613.53 9
-3 2 5 -47.1427 294.184 11
-3 2 5 485.782 419.268 46
3 -2 -5 457.222 431.31 45
3 -2 -5 782.778 481.52 9
-3 2 5 1736.44 945.208 4
-3 2 4 20986.4 1689.71 46
3 -2 -4 24342.8 1843.78 45
-3 2 4 19951.3 1596.41 44
3 -2 -4 22586.2 1744.27 9
-3 2 4 20698.2 1615.21 49
3 -2 -4 20355.1 1506.45 8
-3 2 3 392537 12170.1 49
3 -2 -3 362649 11724.9 8
-3 2 3 393391 12195.4 46
3 -2 -3 374721 12141.3 45
-3 2 3 366534 11855.3 44
3 -2 -3 406878 12181.9 9
3 -2 -2 73606.2 3355.31 8
-3 2 2 83299 3808.23 49
-3 2 2 90677.3 3858.7 46
3 -2 -2 79566.2 3633.75 45
-3 2 2 82682.2 3485.17 44
3 -2 -2 87061 3679.14 9
-3 2 1 758.946 411.716 44
3 -2 -1 894.266 482.852 9
-3 2 1 1396.41 653.35 49
-3 2 1 426.447 495.783 46
3 -2 -1 209.626 318.485 45
3 -2 -1 925.438 434.379 8
-3 2 0 140061 5743.56 46
3 -2 0 147081 5400.21 9
3 -2 0 146188 5418.27 8
3 -2 1 135852 4529.89 10
3 -2 1 129444 4852.8 8
3 -2 2 36336.5 1916.24 10
-3 2 -2 35802.9 2167.55 46
3 -2 2 33716.4 2053.3 8
3 -2 3 153587 5507.25 10
-3 2 -3 159217 5816.7 46
3 -2 3 146296 5578.63 8
3 -2 4 137779 5186.86 10
3 -2 4 132543 5107.05 8
3 -2 5 8902.73 1060.05 10
3 -2 6 3484.89 827.358 30
3 -2 6 6214.88 1020.08 29
3 -2 6 6157.02 961.469 15
3 -2 6 5270.76 874.176 10
3 -2 6 4900.14 806.585 38
3 -2 6 6715.13 852.464 26
3 -2 6 6200.67 917.51 34
3 -2 6 5103.27 797.354 12
3 -2 6 6676.59 822.393 31
3 -2 6 4820.08 747.376 18
3 -2 7 147464 6211.72 29
3 -2 7 146200 6036.07 10
3 -2 7 162164 5744.28 26
3 -2 7 152872 5942.82 15
3 -2 7 154697 5900.3 38
3 -2 7 152473 6077.3 34
3 -2 7 140048 5510.01 12
3 -2 7 151366 5653.88 18
3 -2 7 146952 5485.17 31
3 -2 7 142366 6165.13 30
3 -2 8 27134.6 2180.73 29
3 -2 8 32146.3 2027 26
3 -2 8 29951.2 2116.42 38
3 -2 8 27866.9 1905.54 18
3 -2 8 28991 1864.33 31
3 -2 8 30355.5 2256.23 30
3 -2 9 9043.75 971.824 26
3 -2 9 9548.08 1169.28 38
3 -2 9 8662.68 1001.04 18
3 -2 9 8764.99 968.841 31
3 -2 10 63284.3 2831.47 26
3 -2 10 69682.4 2864.47 31
3 -2 11 568.823 246.247 26
3 -2 11 1186.45 366.64 31
-3 1 11 58894 2367.03 20
-3 1 11 48388.4 2232.93 32
-3 1 10 1736.9 525.599 17
-3 1 10 2073.3 498.943 20
-3 1 10 2132.78 542.093 32
-3 1 9 3560.8 745.867 17
-3 1 9 2812.12 639.338 20
-3 1 9 1994.8 543.511 34
-3 1 9 3232.73 690.96 32
-3 1 8 188397 7231.79 11
3 -1 -8 191057 7673.51 45
-3 1 8 192515 6563.09 20
-3 1 8 171021 6357.93 19
-3 1 8 189838 6711.31 34
-3 1 8 189525 6781.48 32
-3 1 8 176516 6583.56 17
-3 1 7 33480.3 2368.01 11
3 -1 -7 35527.5 2653.65 45
3 -1 -7 31002.9 2143.53 39
-3 1 7 34120.8 2052.01 20
-3 1 7 33253.2 2017.98 19
-3 1 7 35300.7 2205.96 34
-3 1 7 36185.9 2217.31 32
-3 1 7 32250.5 2075.25 17
-3 1 6 4842.87 823.172 11
3 -1 -6 5793.5 1023.86 45
-3 1 5 178768 7429.39 4
-3 1 5 191288 6612.35 11
3 -1 -5 190831 7104.27 45
-3 1 5 181997 6646.75 49
-3 1 5 177913 6777.62 46
-3 1 4 387.717 297.953 11
-3 1 4 1044.26 472.346 46
-3 1 4 49.7419 320.211 49
3 -1 -4 117.69 441.698 45
3 -1 -4 567.337 646.832 9
3 -1 -4 264.719 283.658 8
-3 1 3 36580.9 1832.78 11
3 -1 -3 37632.3 2005.61 8
-3 1 3 35795.5 1967.19 47
-3 1 3 33973 1992.47 46
3 -1 -3 36799.1 2222.61 45
-3 1 3 34279.9 1908.79 44
3 -1 -3 39983.9 2286.61 9
-3 1 3 34601.2 2104.93 49
-3 1 2 512956 15597 47
-3 1 2 538135 15553.6 46
-3 1 2 499345 15195.8 44
3 -1 -2 522224 15427.6 8
-3 1 2 521905 15782.3 49
3 -1 -2 511294 15735.3 45
3 -1 -1 2855.34 612.451 45
-3 1 1 978.404 545.092 49
-3 1 1 -282.646 461.052 46
-3 1 1 1303.92 337.788 44
3 -1 -1 2112.91 578.962 9
3 -1 -1 515.57 400.958 8
3 -1 0 53032.6 2463.12 9
-3 1 0 58237.1 2672.55 46
-3 1 0 55958.2 2261.8 44
-3 1 0 54253.6 4660.75 41
3 -1 0 46035.6 3662.7 41
-3 1 0 54667.2 2828.76 49
3 -1 0 49898.2 2415.38 8
3 -1 0 52697.8 2568.27 45
3 -1 1 115553 4410.54 8
3 -1 1 110398 4200.95 9
3 -1 1 108718 5850.91 41
3 -1 2 85222.5 3120.5 10
-3 1 -2 88211.7 3379.5 46
-3 1 -2 89826.1 5699.16 41
3 -1 2 70733 4628.81 41
3 -1 2 72227.5 3284.78 8
3 -1 3 120240 4255.1 10
3 -1 3 113236 4401.19 8
3 -1 4 116519 4369.06 10
3 -1 4 114978 4339.62 8
3 -1 5 134464 5095.94 10
3 -1 6 14113.2 1346.97 10
3 -1 7 60912.9 3459.32 29
3 -1 7 67373.8 3419.32 10
3 -1 7 63233.7 3030.39 26
3 -1 7 65662.5 3343.05 38
3 -1 7 67385.4 3365.34 34
3 -1 7 63511.2 2963.41 31
3 -1 7 58240.9 3383.99 30
3 -1 8 258110 9428.32 29
3 -1 8 251052 9268.92 10
3 -1 8 261971 8776.8 26
3 -1 8 272811 9292.32 38
3 -1 8 257707 9143.57 34
3 -1 8 257686 8650.51 18
3 -1 8 271299 8744.41 31
3 -1 8 260494 9367.67 30
3 -1 9 9395.7 1224.59 30
3 -1 9 8378.53 1231.44 29
3 -1 9 8537.37 1049.94 26
3 -1 9 8760.11 913.648 14
3 -1 9 8703 1168.48 38
3 -1 9 10250.4 1235.92 34
3 -1 9 8924.61 1001.15 18
3 -1 9 9997.37 1094.63 31
3 -1 10 11625.4 1129.91 26
3 -1 10 11206.2 978.657 14
3 -1 10 12585.7 1339.1 38
3 -1 10 12570.3 1160.51 31
3 -1 11 109970 4120.13 26
3 -1 11 102089 3754.82 14
3 -1 11 111912 4088.8 31
3 -1 12 2061.83 406.073 26
3 -1 12 2057.64 383.814 31
-3 0 11 17536.1 980.756 20
-3 0 11 17.6139 113.432 34
-3 0 10 54168 2535.84 20
-3 0 10 52923.7 2584.95 34
-3 0 10 48399.8 2444.54 32
-3 0 10 56351.1 2706.39 17
-3 0 9 370.573 489.361 17
-3 0 9 332.912 419.794 20
-3 0 9 56.1695 372.463 34
-3 0 9 -125.453 278.588 32
-3 0 8 7075.73 1017.09 17
-3 0 8 6556.74 1024.04 11
3 0 -8 8151.61 1301.93 45
-3 0 8 7379.9 936.164 20
-3 0 8 6995.84 997.776 34
-3 0 8 6041.35 932.521 32
-3 0 7 202869 7479.99 11
3 0 -7 197961 7921.29 45
-3 0 7 203145 6875.2 20
-3 0 7 187336 6765.97 19
-3 0 7 216035 7397.93 34
-3 0 7 190702 6996.55 32
-3 0 7 183055 6993.14 17
-3 0 6 6007.64 903.243 11
-3 0 6 5924.24 913.581 49
3 0 -6 7141.63 1160.91 45
3 0 -6 7820.51 964.238 42
-3 0 5 19904.5 1495.75 11
3 0 -5 21257.8 1793.21 45
3 0 -5 17753.9 1381.75 42
-3 0 5 18240.3 1543.04 49
-3 0 4 167802 5691.98 11
-3 0 4 159353 5808.01 46
-3 0 4 157332 5935.18 49
3 0 -4 159342 6187.79 45
3 0 -4 163416 5620.38 42
3 0 -4 175502 5837.66 8
-3 0 3 12635.3 934.961 11
-3 0 3 11867.8 999.616 46
3 0 -3 12015.4 1214.3 45
3 0 -3 12335.4 1061.4 8
-3 0 3 12110.7 1153.34 49
-3 0 3 12143.3 1040.08 47
3 0 -3 12027.2 932.52 42
3 0 -2 273.078 399.439 45
-3 0 2 97.8561 188.93 11
3 0 -2 4.3323 310.57 6
-3 0 2 142.232 262.333 46
3 0 -2 578.87 329.225 42
-3 0 2 671.073 484.487 47
-3 0 2 420.205 473.403 49
3 0 -2 574.606 392.777 8
-3 0 1 308325 9155.89 11
3 0 -1 310211 9988.75 45
3 0 -1 325441 9814.38 6
-3 0 1 320305 9910.55 47
-3 0 1 313942 9450.03 46
3 0 -1 342878 10031.9 9
3 0 -1 322663 9528.3 42
-3 0 1 314619 9956.13 49
3 0 -1 323156 9726.35 8
3 0 0 15295 1201.4 45
3 0 0 16107.6 1178.97 6
3 0 0 16531.3 1147.92 8
-3 0 0 17520.7 1294.97 49
-3 0 0 16337.7 1003.04 46
3 0 0 17427.1 1191.02 9
3 0 0 19195.9 1985.32 41
3 0 1 10896.9 839.398 9
3 0 1 11958.4 714.143 10
3 0 1 12084.7 1304.65 41
-3 0 -1 11913.1 1717.77 41
-3 0 -1 10227.5 841.886 46
3 0 1 10971.7 921.572 8
-3 0 -1 12814.9 1100.78 49
3 0 2 28474.4 1359.65 10
-3 0 -2 31193.9 2678.84 41
3 0 2 27674.7 1581.34 8
3 0 3 35564.5 1688.06 10
3 0 3 33530.3 1827.9 8
3 0 4 68232.1 2754.97 10
3 0 4 60799 2692.6 8
3 0 5 212071 7063.58 10
3 0 6 91061.9 3865.64 10
3 0 7 30519.9 2090.61 10
3 0 8 35303.9 2296.51 17
3 0 8 36589.8 2568.43 29
3 0 8 37457.8 2502.2 10
3 0 8 32947.7 2076.49 26
3 0 8 36398.2 1977.58 14
3 0 8 37779 2468.32 38
3 0 8 35763.2 2304.11 34
3 0 8 38146.9 2354.44 25
3 0 8 36870.3 2130.91 31
3 0 8 33964.3 2439.72 30
3 0 9 108514 4799.1 17
3 0 9 115864 5280.6 29
3 0 9 114676 5219.29 10
3 0 9 113161 4677.71 26
3 0 9 114642 4433.57 14
3 0 9 114543 5041.02 38
3 0 9 118071 4944 34
3 0 9 113961 4640.53 31
3 0 9 120305 5201.35 30
3 0 10 24947.2 1910.04 17
3 0 10 28144.9 1919.96 26
3 0 10 27957.7 1742.24 14
3 0 10 28312.3 2090.31 38
3 0 10 28787.4 1908.79 31
3 0 11 1093.54 484.249 17
3 0 11 1427.32 512.796 26
3 0 11 1881.71 656.755 38
3 0 11 2413.24 500.917 14
3 0 11 2261.5 540.639 31
3 0 12 82448.9 2613.64 26
3 0 12 79948.3 2321.95 14
3 0 12 84938.1 2604.91 31
-3 -1 11 15724.9 912.504 18
-3 -1 11 27815.9 1171.83 34
-3 -1 10 47449 2233.92 20
-3 -1 10 47717.8 2437.57 34
-3 -1 10 47356.1 2437.87 17
-3 -1 9 65611.2 2982.03 20
-3 -1 9 65039.3 3285.17 34
-3 -1 9 61400.8 3184.14 17
-3 -1 8 1867.02 688.696 17
-3 -1 8 1603.84 472.476 20
-3 -1 8 2324.67 633.081 34
-3 -1 8 1844.64 512.781 32
-3 -1 7 7077.12 1042.89 17
-3 -1 7 7772.78 1109.4 11
3 1 -7 7013.78 1188.96 45
3 1 -7 7075.17 1085.61 42
-3 -1 7 8884.06 993.645 20
-3 -1 7 7335.57 917.047 19
-3 -1 7 9219.62 1168.32 34
-3 -1 7 7267.29 929.121 32
-3 -1 6 243853 8259.01 11
-3 -1 6 233317 8486.92 49
3 1 -6 228232 8648.56 45
3 1 -6 226397 8295.13 42
-3 -1 5 39969.9 2241.9 11
3 1 -5 38766.1 2530.39 45
3 1 -5 38956.8 2343.51 42
-3 -1 5 41619.7 2524.21 49
-3 -1 4 11829.5 1038.96 11
3 1 -4 14024.4 1369.73 45
3 1 -4 11660.8 1112.84 42
-3 -1 4 13192.2 1252.76 49
-3 -1 3 239210 7447.28 11
3 1 -3 232533 7748.94 6
3 1 -3 235236 7985.61 45
-3 -1 3 239272 7719.05 47
3 1 -3 240422 7695.83 42
-3 -1 3 239830 7906 49
-3 -1 2 39693.6 1725.01 11
3 1 -2 41450.6 3003.11 1
3 1 -2 36285.7 2021.67 6
3 1 -2 37721 2093.44 45
3 1 -2 35812.5 3110.44 2
-3 -1 2 40485.4 2037.56 47
3 1 -2 39079.3 1931.51 42
3 1 -2 39142.8 3540.96 41
-3 -1 2 42137.5 2117.67 49
-3 -1 1 13753.2 779.87 11
-3 -1 1 14970.9 1091.46 47
3 1 -1 12518.1 1102.05 45
3 1 -1 13799.5 1127.89 6
-3 -1 1 13120.3 776.324 46
3 1 -1 12025.5 1570.01 2
3 1 -1 15180.1 1466.05 1
3 1 -1 12743.5 1895.13 41
-3 -1 1 13835.8 1074.96 49
3 1 -1 13658.7 1039.27 42
-3 -1 1 16338.6 1693.65 2
3 1 0 270248 8073.3 42
3 1 0 253969 8151.15 6
-3 -1 0 254892 7949.79 47
3 1 0 259190 7907.49 9
3 1 0 291325 9686.8 41
3 1 0 232148 8035.13 1
-3 -1 0 251020 7883.3 49
3 1 0 242572 8041.47 45
-3 -1 0 266602 8937.43 2
3 1 1 26510.8 1664.03 6
3 1 1 31701.5 1836.54 42
3 1 1 27043.7 1130.23 10
3 1 1 28740.5 1532.81 1
3 1 1 27541.5 1340.67 9
3 1 1 24873.2 1336.96 41
-3 -1 -1 29098.8 1877.97 2
-3 -1 -1 26357.2 1453.95 49
-3 -1 -1 27581.8 1525.25 47
3 1 2 46853.7 2277.95 6
-3 -1 -2 39706.5 1918.58 47
-3 -1 -2 39665.5 2350.47 2
-3 -1 -2 40954.5 3744.67 40
3 1 2 43875.3 1893.15 8
3 1 2 42683.7 1645.45 10
3 1 2 34742.8 1370.07 1
-3 -1 -2 41464.5 1890.31 49
-3 -1 -3 339992 10679.6 47
3 1 3 366672 10455.4 10
3 1 3 369918 10666 8
-3 -1 -3 344447 10599.7 49
3 1 4 25189.9 1456.34 8
-3 -1 -4 25964.2 1472.52 49
3 1 4 28441.8 1507.89 10
3 1 5 27593.1 1624.58 10
3 1 6 193814 6717.08 10
3 1 7 85447.7 3823.28 10
-3 -1 -7 81251.8 3797.17 43
3 1 8 61893.4 3335.06 10
3 1 9 31919.8 2285.85 17
3 1 9 32876.5 2518.72 29
3 1 9 31827.2 2395.68 10
3 1 9 29633.2 1999.61 26
3 1 9 36423.3 2340.82 25
-3 -1 -9 37984.1 2776.69 45
3 1 9 32905.5 1964.96 14
3 1 9 30726.9 2228.56 38
3 1 9 29668.2 2011.77 31
3 1 9 32651.8 2431.07 30
3 1 10 53852.3 3092.93 17
3 1 10 55975.6 2919.7 26
3 1 10 57328.1 3120.6 38
3 1 10 60167.8 3165.29 25
3 1 10 54017.4 2752.83 14
3 1 10 54253.8 2909.37 31
3 1 11 8272.97 1113.78 17
3 1 11 8270.48 1009.89 26
3 1 11 6765.85 842.421 14
3 1 11 8937.21 1084.45 38
3 1 11 9338.59 1072.87 31
3 1 12 4194.31 721.862 17
3 1 12 4035.95 599.421 14
3 1 12 4218.38 658.509 26
3 1 12 6383.5 884.949 38
3 1 12 3952.75 659.77 31
3 1 13 51935.9 2190.33 17
3 1 13 50906 2179.41 26
3 1 13 49116.1 2034.29 14
3 1 13 53513.2 2173.85 31
-3 -2 10 12832.3 905.73 20
-3 -2 10 14590.5 1170.84 34
-3 -2 10 12910.8 1054.56 18
-3 -2 9 59797.4 2689.39 20
-3 -2 9 60300.3 3114.19 34
-3 -2 9 60636.8 3006.43 17
-3 -2 8 70331 3178.96 20
-3 -2 8 71414.4 3688.03 34
-3 -2 8 74981.2 3591.35 17
-3 -2 7 12466.6 1372.96 11
-3 -2 7 14681.6 1237.04 20
-3 -2 7 13614.9 1290.63 16
3 2 -7 11976 1515.62 42
-3 -2 7 13740.7 1503.5 34
-3 -2 7 13351.5 1390.83 17
-3 -2 6 11878.1 1253.19 11
-3 -2 6 13694.6 1440.27 34
-3 -2 6 12026.9 1181.9 16
3 2 -6 10576.6 1358.73 42
-3 -2 6 13049 1143.33 20
-3 -2 6 11166 1059.38 19
-3 -2 6 10087.6 1035.93 32
-3 -2 6 13577.6 1361.61 17
-3 -2 5 142262 5336.68 11
-3 -2 5 144194 5831.33 49
3 2 -5 132909 5618.43 42
3 2 -5 137333 5348.59 48
-3 -2 4 12333.2 1091.02 11
3 2 -4 12105.9 1237.37 45
3 2 -4 11167.1 1221.69 42
-3 -2 4 11260.5 1229.01 49
3 2 -4 12254.7 1094.83 48
3 2 -3 337.093 225.063 48
-3 -2 3 529.099 279.208 11
3 2 -3 568.604 404.571 45
-3 -2 3 547.186 406.197 47
3 2 -3 693.412 409.747 42
-3 -2 3 1201.33 463.66 49
-3 -2 2 228912 7040.93 11
3 2 -2 225414 7140.52 48
-3 -2 2 231965 7505.63 47
3 2 -2 222782 7448.7 42
-3 -2 2 235710 7474.02 49
3 2 -2 215326 7415.27 45
-3 -2 2 229206 7101.32 5
-3 -2 1 21383.2 1119.76 11
3 2 -1 19195.4 1478.13 6
-3 -2 1 22134.3 1110.72 3
-3 -2 1 20309.2 1319.87 49
-3 -2 1 22940.1 1436.35 47
3 2 -1 19965.7 1398.56 45
3 2 -1 22091.5 1446.58 42
3 2 -1 21999.8 1248.02 48
-3 -2 1 21428.8 1125.83 5
-3 -2 0 973.585 244.012 5
3 2 0 1192.66 449.98 42
-3 -2 0 895.878 307.202 3
-3 -2 0 1033.78 202.823 11
-3 -2 0 1587.89 676.249 2
-3 -2 0 1601.35 415.219 49
3 2 0 996.923 341.646 41
3 2 0 1126.63 441.275 48
-3 -2 0 709.611 513.552 40
3 2 0 922.792 538.668 6
3 2 0 455.05 280.851 45
3 2 1 349257 10530.1 6
-3 -2 -1 321222 9837.83 49
3 2 1 336291 9678.37 9
-3 -2 -1 332399 11729 2
-3 -2 -1 323639 12890.4 40
-3 -2 -1 333539 10079.7 47
3 2 1 363659 10619.9 42
3 2 1 330983 10093.3 7
3 2 2 69655.6 3077.52 6
3 2 2 55007.4 3962.86 1
-3 -2 -2 62001.2 2550.36 47
3 2 2 63644.8 2362.17 10
-3 -2 -2 59384.9 3651.87 2
-3 -2 -2 61774 2349.29 49
3 2 2 69358.4 3213.67 42
-3 -2 -2 61940.6 4636.87 40
3 2 2 70946.5 2929.76 48
3 2 2 59786.7 2740.12 7
-3 -2 -3 33705.7 1465.3 49
3 2 3 34739.1 1844.85 48
3 2 3 33975.6 1602.88 10
-3 -2 -3 32402.5 1660.82 47
3 2 3 35557.7 2138.22 6
3 2 3 40943.9 2860.13 1
3 2 3 32726.9 2002.79 7
3 2 4 372181 11836.7 7
3 2 4 375208 11066.4 10
-3 -2 -4 381317 11029.6 47
3 2 4 359466 10908 8
3 2 4 362604 12730.2 1
3 2 5 105286 4682.77 7
3 2 5 95920.6 3871.09 10
-3 -2 -5 108400 3757.73 47
-3 -2 -6 48549.5 2652.4 43
3 2 6 45099.1 2407 10
3 2 7 105161 4454.54 10
-3 -2 -7 107245 4599.52 43
-3 -2 -8 83591.7 3963.26 43
3 2 8 85996.8 4068.74 10
3 2 9 1320.79 694.566 29
3 2 9 2150.96 726.976 17
3 2 9 795.65 459.32 25
3 2 9 1497.81 584.49 38
3 2 9 744.187 413.899 10
-3 -2 -9 557.209 416.852 45
3 2 9 331.707 326.522 14
3 2 9 1177.09 414.348 26
3 2 9 1266.41 577.031 13
3 2 9 915.268 456.823 31
3 2 10 11238.3 1305.25 17
3 2 10 12782 1518.08 10
3 2 10 12242.3 1248.48 26
3 2 10 10626.9 1156.32 14
-3 -2 -10 12615.2 1537.29 45
3 2 10 12882.6 1342.6 25
3 2 10 12216.2 1304.36 38
3 2 10 11067 1240.06 31
3 2 11 44866.4 2729.83 17
3 2 11 46313.4 2578.2 26
3 2 11 52599.1 2785.57 25
3 2 11 40837.3 2416.46 14
3 2 11 48414.8 2577.84 38
3 2 11 43880.3 2581.07 31
3 2 12 5099.61 861.518 17
3 2 12 4033.75 692.798 26
3 2 12 3573.18 630.858 14
3 2 12 3778.77 638.09 38
3 2 12 3486.96 634.412 31
3 2 13 5041.54 669.514 17
3 2 13 4363.36 566.503 14
3 2 13 3997.39 577.231 26
3 2 13 5023.5 624.425 31
-3 -3 10 19777.6 1188.88 28
-3 -3 10 19573.6 1132.17 23
-3 -3 10 17856 1118.81 18
-3 -3 9 17139.9 1118.2 20
-3 -3 9 16954.4 1418.98 34
-3 -3 9 16381.5 1245.69 18
-3 -3 8 83628 3995.51 34
-3 -3 8 88496.2 3472.07 14
-3 -3 8 81373.3 3398.37 20
-3 -3 7 51465.9 2722.2 16
-3 -3 7 53952.3 3083.52 34
-3 -3 7 55047.2 2598.22 14
-3 -3 7 50021.8 2527.04 20
-3 -3 7 52692.1 2884.16 17
-3 -3 6 10358.5 1137.61 16
-3 -3 6 10073.1 972.274 14
3 3 -6 8752.85 1325.67 42
-3 -3 6 10479.6 1037.06 20
-3 -3 6 10675.6 1034.94 19
-3 -3 6 12654.5 1412.42 34
3 3 -6 10002.5 1288.47 48
-3 -3 6 11927.2 1323.61 17
-3 -3 6 9449.3 1184.25 11
3 3 -5 25902.8 1980.23 48
3 3 -5 26197.4 2176.81 42
-3 -3 5 24683.1 1804.37 11
-3 -3 4 45707.6 2749.79 49
3 3 -4 44700.4 2547.67 48
3 3 -4 47721.1 2821.56 42
-3 -3 4 44233.8 2390.54 11
3 3 -3 33248.7 1991.97 48
-3 -3 3 29369.6 2053.74 47
3 3 -3 32500.6 2131.49 42
-3 -3 3 27849.2 1785.25 5
-3 -3 3 34259.8 2133.57 49
-3 -3 3 31899.1 1821.15 11
-3 -3 2 6575.74 730.303 3
3 3 -2 7504.58 885.952 48
-3 -3 2 7938.15 958.134 47
3 3 -2 7281.08 971.23 42
-3 -3 2 8689.72 982.511 49
-3 -3 2 7972.05 808.897 5
-3 -3 2 7247.56 753.491 11
-3 -3 1 402003 12438.6 49
3 3 -1 433075 12562.8 48
3 3 -1 391007 12299.2 45
3 3 -1 422451 12799.9 42
-3 -3 1 419122 12683.7 47
-3 -3 1 420406 12154.1 5
-3 -3 1 423656 12254.1 3
-3 -3 1 411419 12104.1 11
3 3 0 19282.7 1368.74 48
-3 -3 0 19460.4 1365.2 47
3 3 0 17320.3 1408.19 42
-3 -3 0 16911.1 1150.91 3
-3 -3 0 17343 999.703 5
-3 -3 0 17182.2 1164.61 49
-3 -3 0 18731.3 1021.3 11
3 3 1 34572.5 2056.98 48
3 3 1 34654.3 2041.82 6
-3 -3 -1 31702.6 1634.79 43
-3 -3 -1 31562.7 2812.12 40
-3 -3 -1 32209.9 1579.4 49
3 3 1 33276.3 2038.07 42
-3 -3 -1 32698.8 1746.36 47
3 3 1 32505.2 1912.8 7
3 3 2 487532 14381.6 6
-3 -3 -2 471518 13887.7 43
-3 -3 -2 511417 17284.2 40
-3 -3 -2 465839 13460.3 49
-3 -3 -2 473967 13824.4 47
3 3 2 523426 14811.6 42
3 3 2 479912 14407.2 7
3 3 2 553919 18077 1
3 3 3 -206.239 472.308 7
-3 -3 -3 365.147 313.36 47
3 3 3 1441.41 567.539 48
-3 -3 -3 -207.755 409.974 43
3 3 3 -596.716 682.502 42
3 3 3 880.388 1081.73 1
3 3 3 -81.2946 523.783 6
-3 -3 -4 106802 4247.13 43
3 3 4 106639 4496.08 6
3 3 4 113595 4641.34 48
-3 -3 -4 104659 3827.94 47
3 3 4 113604 4769.58 7
3 3 4 107247 6769.86 1
3 3 5 322263 10444.1 10
-3 -3 -5 353988 10848.4 43
3 3 5 334485 11417.5 7
3 3 6 29203.2 2441.32 7
3 3 6 28634.7 1884.02 10
-3 -3 -6 31186.9 2107.94 43
3 3 7 6671.74 1303.15 7
3 3 7 8026.28 1024.48 10
-3 -3 -7 7808.98 1085.02 43
-3 -3 -8 121664 5159.49 43
3 3 8 112736 5037.87 10
3 3 9 69732 3357.53 17
3 3 9 69841.1 3208.19 26
3 3 9 62399.8 2960.9 36
3 3 9 65791.7 3658.81 10
-3 -3 -9 60325.6 3513.73 45
3 3 9 63780.7 3280.22 25
3 3 9 62049 3114.24 38
3 3 9 61843.1 3151.44 31
3 3 10 1774.18 624.281 17
3 3 10 2555.67 651.161 25
3 3 10 1844.14 643.958 10
3 3 10 2189.66 568.602 26
-3 -3 -10 3010.7 811.09 45
3 3 10 2126.93 499.51 38
3 3 10 1978.72 545.896 31
3 3 11 35893.8 2317.49 17
3 3 11 32411.7 2118.36 26
3 3 11 39449.9 2294.47 25
3 3 11 33087.5 2129.86 14
3 3 11 31861 2185.04 31
3 3 12 51284 2641.46 17
3 3 12 44725.8 2450.3 26
3 3 12 45205.7 2417.57 14
3 3 12 45140.1 2510.36 31
3 3 13 11054.4 992.957 17
3 3 13 8698.17 858.36 26
3 3 13 10565.3 935.783 14
3 3 13 9635.33 896.198 31
3 3 14 12469.6 820.892 17
3 3 14 11500.9 737.243 14
-3 -4 9 18962.7 1203.1 28
-3 -4 9 18924 1213.45 23
-3 -4 9 18680.1 1285.66 34
-3 -4 9 18677.2 1160.56 18
-3 -4 8 1737.5 453.59 28
-3 -4 8 2561.6 523.64 14
-3 -4 8 1524.14 400.26 16
-3 -4 8 1747.28 547.161 34
-3 -4 8 2425.84 505.349 18
-3 -4 7 38136.2 2258.6 16
-3 -4 7 46320.2 2297.36 14
-3 -4 7 41348.3 2127.06 20
-3 -4 7 44443.1 2626.72 34
-3 -4 6 59544.1 2975.62 16
-3 -4 6 59425.5 2788.37 14
-3 -4 6 56340.5 2661.5 20
-3 -4 6 55595 2676.24 19
-3 -4 6 57698.6 3147.87 34
-3 -4 5 1964.36 573.829 11
-3 -4 5 1692.37 499.208 16
-3 -4 5 1201.01 419.909 14
3 4 -5 1508.24 676.176 42
-3 -4 5 1864.29 496.765 20
-3 -4 5 1294.26 534.53 34
-3 -4 5 1729.67 514.32 19
3 4 -5 2108.1 688.481 48
3 4 -4 38758.2 2570.56 48
3 4 -4 36159.5 2621.49 42
-3 -4 4 36543.2 2305.16 5
-3 -4 4 36882.8 2261.99 11
3 4 -3 97353.7 4286.4 48
-3 -4 3 99825.6 4529.99 47
3 4 -3 90953.8 4367.52 42
-3 -4 3 86334.7 3870.05 5
-3 -4 3 90422.8 3874.32 11
-3 -4 2 195.625 223.269 11
3 4 -2 341.607 386.892 48
3 4 -2 772.477 484.671 42
-3 -4 2 -17.3689 251.917 3
-3 -4 2 445.707 316.455 49
-3 -4 2 697.168 465.996 47
-3 -4 2 688.145 338.959 5
-3 -4 1 30400.8 2044.26 47
3 4 -1 33753.8 2102.84 48
-3 -4 1 32517.6 1781.84 5
-3 -4 1 32793.8 1953.99 49
3 4 -1 34279.3 2189.26 42
-3 -4 1 32178.1 1929.4 3
-3 -4 1 33439.5 1799.94 11
-3 -4 0 331209 10737.4 47
-3 -4 0 331164 10442 49
3 4 0 339732 11034 42
3 4 0 360125 11058.3 48
-3 -4 0 339368 10211.6 5
-3 -4 0 338310 10553.4 3
-3 -4 0 342187 10209.5 11
3 4 1 28417.1 2004.1 48
-3 -4 -1 28980.7 1749.92 47
-3 -4 -1 25262.5 1546.7 43
3 4 1 30218 2068.7 42
-3 -4 -1 25577.9 1662.63 3
-3 -4 -1 28305.7 1425.47 5
-3 -4 -1 29717.5 1579.31 49
3 4 2 19510.5 1611.5 6
-3 -4 -2 21934.5 1240.7 49
-3 -4 -2 21151.4 1457.52 47
-3 -4 -2 19758.1 1401.34 43
3 4 2 22317 1779.91 42
3 4 2 20835.1 1833.7 7
3 4 3 202825 7457.43 42
3 4 3 193261 7005.55 6
-3 -4 -3 197381 6523.51 47
3 4 3 194893 7566.4 48
-3 -4 -3 196603 6712.95 43
3 4 3 195521 7446.06 7
3 4 4 1949.27 774.726 7
3 4 4 1094.26 726.053 48
-3 -4 -4 2936.8 743.696 43
3 4 4 1313.92 501.113 6
-3 -4 -4 1267.31 391.334 47
3 4 5 1236.79 609.962 48
-3 -4 -5 669.052 469.841 43
3 4 6 96800.8 4264.4 10
-3 -4 -6 97841.4 4401.71 43
3 4 6 99325.4 5138.11 7
3 4 7 42150.1 2628.91 10
-3 -4 -7 44253.8 2747.25 43
3 4 7 43101.4 3314.17 7
3 4 8 5423.75 1274.51 7
3 4 8 4706.32 892.641 10
-3 -4 -8 4319.73 940.99 43
-3 -4 -9 95969 4887.42 43
3 4 9 116948 4685.33 17
3 4 9 109301 5191.6 10
-3 -4 -9 117865 5188.34 45
3 4 9 115025 4473.09 37
3 4 9 112991 4466.44 36
3 4 9 117117 4786.78 25
3 4 10 26888.3 1914.31 17
-3 -4 -10 23493.9 2081.53 45
3 4 10 26347.8 1856.85 25
3 4 10 24521.3 1802.16 26
3 4 10 28849.3 1831.27 36
3 4 10 21268.7 2012.41 10
3 4 10 23585.4 1863.74 31
3 4 11 3967.27 758.962 17
3 4 11 4692.82 773.134 26
3 4 11 5522.06 813.104 25
3 4 11 3572.15 637.438 36
3 4 11 4884.77 831.451 31
3 4 12 46514.7 2470.44 17
3 4 12 42360.6 2347.07 26
3 4 12 45288.2 2408.4 14
3 4 12 42677.5 2440 31
3 4 13 54226.6 2436.74 17
3 4 13 49439.7 2344.68 26
3 4 13 50028.6 2354.74 14
3 4 13 51028 2402.24 31
3 4 14 12576.6 831.861 17
3 4 14 12493.5 796.802 26
3 4 14 12507.5 804.45 14
3 4 14 11659.4 769.383 31
-3 -5 8 14654.7 1054.8 28
-3 -5 8 14617.8 957.376 14
-3 -5 8 12717.1 1015.4 23
-3 -5 8 13174.6 1054.18 34
-3 -5 8 13670.4 930.923 18
-3 -5 7 5446.35 707.85 28
-3 -5 7 4975.58 701.986 16
-3 -5 7 7106.32 794.023 14
-3 -5 7 5364.45 744.805 23
-3 -5 7 5597.1 764.008 34
-3 -5 7 4770.18 616.316 18
-3 -5 6 44440.4 2396.6 28
-3 -5 6 48580.1 2542.03 16
-3 -5 6 51008.1 2471.82 14
-3 -5 6 45804.8 2241.94 20
-3 -5 6 46080.8 2571.24 34
-3 -5 6 44032.1 2281.76 18
-3 -5 5 27150.7 1804.04 28
-3 -5 5 28114.1 1913.44 16
-3 -5 5 27972.5 1739.26 19
-3 -5 5 31003.6 1884.82 14
-3 -5 5 27710.8 1714.29 20
-3 -5 5 27733.6 1929.63 34
-3 -5 5 27701 1720.34 18
-3 -5 4 24363.1 1667 28
-3 -5 4 26057.3 1763.89 16
-3 -5 4 24607.9 1692.49 14
3 5 -4 26863.2 2321.95 42
-3 -5 4 23668.2 1657.12 22
3 5 -4 26710 2257.19 48
-3 -5 4 20823.3 1498.34 20
-3 -5 4 22282.7 1557.45 19
-3 -5 4 21831.1 1650.41 34
-3 -5 4 23131.9 1866.48 5
-3 -5 4 21461.6 1798.23 11
-3 -5 3 44966.2 2413.53 28
-3 -5 3 50024.5 2540.46 16
3 5 -3 52114.8 3207.07 48
3 5 -3 51112.4 3217.56 42
-3 -5 3 49579 2489.56 14
-3 -5 3 45473.5 2472.08 22
-3 -5 3 50981.2 2470.68 20
-3 -5 3 48101.2 2422.96 19
-3 -5 3 50560.8 2788.54 5
-3 -5 3 50876.9 2776.11 11
3 5 -2 149092 6069.43 48
-3 -5 2 145644 5723.99 3
-3 -5 2 146403 6116.7 47
3 5 -2 136971 5970.03 42
-3 -5 2 132656 5346.54 5
-3 -5 2 140713 5428.68 11
-3 -5 1 9608.11 1209.47 47
3 5 -1 9492.35 1291.04 48
3 5 -1 9664.26 1283.68 42
-3 -5 1 9315.77 1004.37 5
-3 -5 1 11565.6 1228.1 3
3 5 0 33882.8 2412.36 48
3 5 0 32158.4 2282.03 42
-3 -5 0 28772.8 1772.54 5
-3 -5 0 30492.3 2032.5 3
-3 -5 0 30558.1 2149.33 47
-3 -5 -1 322324 10698.1 47
-3 -5 -1 333065 10176 5
3 5 1 339624 11230.4 42
-3 -5 -1 303853 10563.4 3
-3 -5 -2 5672.73 892.169 3
-3 -5 -2 5824.53 805.498 47
3 5 2 7652.88 929.199 44
3 5 2 7227.43 1078.09 42
-3 -5 -2 7156.35 725.747 5
-3 -5 -2 5870.73 821.88 43
3 5 3 15032.8 1493.28 6
-3 -5 -3 12629.8 1229.7 43
3 5 3 14096.8 1547.15 42
-3 -5 -3 15427.2 1281.45 47
3 5 3 17637.8 1910.65 7
3 5 3 13385.5 1715.16 48
3 5 4 122483 4961.5 6
3 5 4 100918 5048.92 42
-3 -5 -4 107263 4632.14 43
3 5 4 124977 5769.95 48
-3 -5 -4 122203 4522.81 47
3 5 4 115324 5627.24 7
3 5 5 1754.78 940.378 7
3 5 5 2965.98 971.454 48
-3 -5 -5 1323.26 563.854 43
3 5 6 1748.57 893.899 7
3 5 6 4957.24 1017.09 48
-3 -5 -6 3759.46 854.063 43
3 5 7 104439 4719.71 10
-3 -5 -7 92801.4 4575.27 43
3 5 7 97863.5 5539.36 7
3 5 8 2936.39 1073.75 7
3 5 8 3463.06 768.979 10
-3 -5 -8 2293.03 659.037 45
-3 -5 -8 3346.68 806.346 43
3 5 9 1728.71 595.155 17
3 5 9 1703.94 819.842 7
-3 -5 -9 1523.23 587.587 43
3 5 9 860.908 416.801 25
3 5 9 1211.68 524.9 10
-3 -5 -9 1245.4 641.164 45
3 5 9 1459.1 490.414 37
3 5 9 1543.56 563.64 36
3 5 9 762.693 431.165 32
3 5 10 105097 4467.8 17
3 5 10 106580 4437.12 25
3 5 10 104974 5122.82 10
-3 -5 -10 114480 5136.93 45
-3 -5 -10 105302 5021.23 43
3 5 10 115600 4527.08 37
3 5 10 108839 4443.76 36
3 5 10 119282 4536.92 32
3 5 11 10435.5 1103.13 17
3 5 11 8652.47 993.708 26
3 5 11 9696.04 1021.1 36
3 5 11 8620.87 1072.54 31
3 5 12 32048.9 1890.5 17
3 5 12 28914.9 1827.86 26
3 5 12 32407.2 1928.59 14
3 5 12 31617.4 1779.65 36
3 5 12 29820.8 1935.81 31
3 5 13 34431.9 1726.56 17
3 5 13 32265.8 1692.46 26
3 5 13 34414.8 1756.47 14
3 5 13 33937.6 1780.87 31
3 5 14 15569.6 871.276 17
3 5 14 15307.2 897.08 14
3 5 14 15194.6 884.271 31
-3 -6 7 25267.3 1393.2 28
-3 -6 7 24805.7 1430.04 23
-3 -6 7 26905.7 1369.57 14
-3 -6 7 24039.7 1331.13 34
-3 -6 7 22704.4 1183.64 18
-3 -6 6 636.237 382.632 28
-3 -6 6 408.039 398.794 16
-3 -6 6 408.885 307.93 23
-3 -6 6 495.719 381.372 14
-3 -6 6 594.98 351.022 34
-3 -6 6 472.304 271.87 18
-3 -6 5 114010 4438.84 28
-3 -6 5 116787 4556.14 16
-3 -6 5 119979 4499.58 14
-3 -6 5 118146 4571.08 23
-3 -6 5 111490 4405.39 34
-3 -6 5 113323 4166.74 18
-3 -6 4 57009.6 2818.48 28
-3 -6 4 59149.8 2903.52 16
-3 -6 4 59444.4 2883 14
-3 -6 4 57495.8 2890.39 23
-3 -6 4 57693 2701.85 20
-3 -6 4 57764.9 2818.44 22
-3 -6 3 40151.3 2244.01 28
-3 -6 3 38651.1 2238.89 16
3 6 -3 45127 3190.66 48
3 6 -3 38228.6 2941.27 42
-3 -6 3 41441.3 2336.11 14
-3 -6 3 37781.6 2257.76 23
-3 -6 3 37835.9 2240.87 22
-3 -6 3 40120.9 2192.98 20
-3 -6 3 39311.9 2545.3 5
-3 -6 2 21979.8 1571.47 28
-3 -6 2 20264.4 1523.68 16
-3 -6 2 22334.4 1634.72 14
-3 -6 2 22077.8 1626.13 23
3 6 -2 21522.1 2088.42 42
3 6 -2 23768.3 2238.03 48
-3 -6 2 22138.9 1584.41 20
-3 -6 2 19967 1535.25 22
-3 -6 2 19744.4 1703.61 5
-3 -6 1 127182 5445.54 3
-3 -6 1 115284 4552.32 16
3 6 -1 130493 5966.91 48
-3 -6 1 113780 4623.66 14
-3 -6 1 115337 4607.39 22
3 6 -1 119890 5621.07 42
-3 -6 1 124069 4709.23 20
-3 -6 1 130164 5680.04 47
-3 -6 1 120190 4965.65 5
3 6 0 26173.5 2267.56 42
3 6 0 29416.5 2551.59 48
3 6 0 28778.7 2140.7 44
-3 -6 0 26468.3 1862.54 5
-3 -6 0 28205.3 2219.46 47
-3 -6 0 27616.7 2143.43 3
-3 -6 -1 13841.9 1457.18 47
3 6 1 16985.3 1598.24 44
-3 -6 -1 14371.4 1283.46 5
3 6 1 15845.8 1966.45 48
-3 -6 -1 12776.8 1434.84 3
3 6 1 13977.5 1694.11 42
3 6 2 146816 6411.83 42
-3 -6 -2 149508 5447.67 5
-3 -6 -2 144400 5849.15 47
-3 -6 -2 134210 5787.58 3
3 6 3 1930.35 949.376 7
-3 -6 -3 1893.12 653.226 3
-3 -6 -3 1507.54 525.844 47
3 6 3 1822.58 694.501 6
3 6 3 913.519 778.937 48
-3 -6 -3 1970.92 582.769 43
3 6 3 404.751 469.095 42
3 6 4 2139.58 1119.74 7
-3 -6 -4 1616.32 472.639 47
-3 -6 -4 506.428 407.97 43
3 6 4 923.722 450.82 42
3 6 4 -41.0252 652.636 48
-3 -6 -5 120374 5193.95 43
3 6 5 112679 6189.23 7
3 6 6 -279.293 786.096 7
3 6 6 393.81 524.752 48
-3 -6 -6 759.706 469.166 43
3 6 7 284.297 705.395 7
-3 -6 -7 -143.127 434.197 43
3 6 8 124520 4885.89 27
3 6 8 108755 4801.91 25
3 6 8 112737 5395.66 10
-3 -6 -8 127907 5623.99 43
3 6 8 133035 4996.55 37
3 6 8 114100 4704.11 36
3 6 8 120628 4809.29 32
3 6 8 120140 6632.19 7
3 6 9 19674.1 1921.18 10
3 6 9 19671.9 2423.85 7
3 6 9 19125.7 1502.58 27
-3 -6 -9 21099.8 1796.81 45
-3 -6 -9 20308 1981.03 43
3 6 9 21853.7 1686.39 37
3 6 9 21167.1 1609.18 36
3 6 9 19331.7 1557.39 32
3 6 10 4793.93 726.589 27
3 6 10 4980.39 824.951 37
3 6 10 4869.51 800.533 36
3 6 10 5895.89 824.675 32
3 6 11 87274.1 3528.8 17
-3 -6 -11 85133.8 3411.73 39
3 6 11 83798.9 3567.42 36
3 6 11 87578.3 3567.79 32
3 6 12 22230.1 1399.32 17
3 6 12 18722.8 1345.78 26
3 6 12 23013.6 1465.86 36
3 6 12 22493.9 1395.13 32
3 6 12 21335.7 1522.49 31
3 6 13 15195 982.831 36
3 6 13 13742.6 984.85 14
3 6 13 14011.7 1047.6 31
3 6 14 26290.5 1184.63 14
-3 -7 6 7358.68 651.005 28
-3 -7 6 6496.34 650.609 23
-3 -7 6 6231.8 595.954 14
-3 -7 5 16971.8 1197.57 16
-3 -7 5 14213.4 1073.21 28
-3 -7 5 15068.1 1108.94 14
-3 -7 5 14733.8 1154.46 23
-3 -7 4 63621.7 2876.93 28
-3 -7 4 65511.9 2942.15 16
-3 -7 4 66623.8 3009.94 23
-3 -7 4 65827.5 2857.92 22
-3 -7 4 64883.8 2929 14
-3 -7 3 19315.6 1433.52 28
-3 -7 3 17598.8 1381.4 16
-3 -7 3 18689.9 1460.1 23
-3 -7 3 17652.4 1390.74 22
-3 -7 3 17086.2 1395.69 14
-3 -7 3 14902.8 1215.04 20
-3 -7 2 26110.8 1748.05 28
-3 -7 2 24243 1692.18 16
-3 -7 2 24948.7 1789.96 23
-3 -7 2 25181.5 1725.96 22
-3 -7 2 23348.9 1638.56 20
-3 -7 2 23480.1 1738.54 14
-3 -7 1 93851.6 3885.78 16
3 7 -1 90667.8 4867.09 42
3 7 -1 103084 5466.88 48
-3 -7 1 88068.2 3951.24 14
3 7 -1 100665 4887.66 44
-3 -7 1 98120.4 4103.39 23
-3 -7 1 91802.2 3932.7 22
-3 -7 1 85276 3846.73 20
-3 -7 1 88794.9 4280.79 5
-3 -7 0 64303.3 3765.34 3
-3 -7 0 63827.9 3016.38 16
-3 -7 0 63807 3153.48 14
3 7 0 67750 3934.81 44
-3 -7 0 71350.6 3293.66 23
3 7 0 67249.9 4050.58 42
-3 -7 0 66104.1 3129.3 22
3 7 0 64445.3 4309.93 48
-3 -7 0 60163.2 3088.32 20
-3 -7 0 65808.5 3444.07 5
-3 -7 0 69826.5 3317.2 33
-3 -7 -1 1518.88 433.847 16
-3 -7 -1 1506.33 641.456 3
3 7 1 2964.36 1136.64 48
3 7 1 1634.39 659.429 44
-3 -7 -1 2450.09 653.562 23
-3 -7 -1 764.263 443.687 14
3 7 1 1588.06 707.212 42
-3 -7 -1 1894.89 529.095 22
-3 -7 -1 1187.45 409.204 20
-3 -7 -1 1066.98 496.864 33
-3 -7 -1 2021.73 612.851 5
3 7 2 31336.6 2607.83 44
3 7 2 38052.9 2948.82 42
-3 -7 -2 37097.6 2115.08 22
-3 -7 -2 36707.4 2296.78 5
-3 -7 -2 35610.6 2049.91 21
-3 -7 -2 30999.7 2095.26 20
3 7 2 28003.1 2894.57 48
-3 -7 -2 36874.1 2587.84 3
-3 -7 -2 37837.4 2229.43 33
3 7 3 97612 4835.8 6
3 7 3 96504.2 4587.74 27
3 7 3 99072.3 5710.09 48
3 7 3 87020.6 4952.54 42
-3 -7 -3 99361 4697.77 3
-3 -7 -3 111661 4351.85 33
3 7 3 115888 6158.83 7
3 7 4 15382.3 2141.64 7
3 7 4 10361.8 1291.88 27
3 7 4 11451.5 1781.27 48
-3 -7 -4 13524.6 1441.99 43
-3 -7 -4 14037.5 1262 21
-3 -7 -4 12235.8 1417.58 3
-3 -7 -4 13813.2 1258.89 33
3 7 5 53314.3 3137.34 27
3 7 5 56295.7 3920.1 48
-3 -7 -5 57199.1 2873.52 21
-3 -7 -5 58420.3 3304.43 43
-3 -7 -5 56198.8 3190.04 3
-3 -7 -5 59613 2920.16 33
3 7 5 59614.5 4361.96 7
3 7 6 149889 5880.33 27
-3 -7 -6 150352 6204.46 43
3 7 6 138291 5865.39 25
-3 -7 -6 144718 5484.59 21
3 7 6 146873 5454.39 37
3 7 6 142235 6743.47 48
3 7 6 133615 5180.35 36
-3 -7 -6 151671 5540.98 33
3 7 6 144641 7466.43 7
3 7 7 1578.45 553.898 27
3 7 7 840.14 470.923 25
-3 -7 -7 2389.69 715.619 43
-3 -7 -7 1617.8 513.949 21
3 7 7 1910.73 564.684 37
3 7 7 2367.36 579.894 36
-3 -7 -7 1558.51 485.11 33
3 7 8 7168.51 1651.26 7
3 7 8 7032.26 945.001 27
3 7 8 5929.49 1118.24 10
-3 -7 -8 7194.67 1178.29 43
-3 -7 -8 7203.08 892.34 21
3 7 8 8545.06 1067.24 37
3 7 8 7599.45 951.759 36
3 7 8 7292.5 1000.43 32
3 7 9 132080 5167.79 27
3 7 9 136760 5220.36 36
3 7 9 145616 5433.85 37
3 7 9 131100 5217.53 32
3 7 10 417.293 279.602 27
3 7 10 533.878 394.578 36
3 7 10 771.72 353.808 32
3 7 11 5348.79 681.534 27
-3 -7 -11 4821.91 656.149 39
3 7 11 5522.4 754.648 36
-3 -7 -11 5946.17 781.028 35
3 7 11 5907.06 757.134 32
3 7 12 54848.2 2390.43 36
-3 -7 -12 47767.2 2120.47 39
-3 -7 -12 50690.8 2221.84 35
3 7 12 56684 2350.53 32
3 7 12 47830.7 2353.56 31
3 7 13 9276.39 694.225 14
3 7 13 11295.7 754.317 36
3 7 13 10237.9 747.007 31
-3 -8 4 8523.53 721.561 28
3 8 -4 9913.24 967.981 27
-3 -8 4 8575.3 799.331 23
-3 -8 4 8282.77 783.35 12
-3 -8 3 43442 2068.03 28
-3 -8 3 40146.8 2079.19 14
-3 -8 3 42903.3 2157.2 23
-3 -8 3 43346 2071.52 22
-3 -8 2 25618.2 1609.09 28
-3 -8 2 26341.7 1644.44 16
-3 -8 2 27202 1673.3 22
-3 -8 2 23291.7 1618.73 14
-3 -8 2 28782.1 1782.37 23
-3 -8 1 2399.36 540.832 16
-3 -8 1 2640.86 665.833 23
-3 -8 1 808.688 449.037 14
-3 -8 1 2165.54 534.902 22
-3 -8 0 70075.7 3189.16 16
-3 -8 0 69807.2 3244.67 22
-3 -8 0 74901 3444.73 23
-3 -8 0 74015.6 3427.99 33
-3 -8 -1 39629.1 2163.33 16
3 8 1 36542 2573.36 27
-3 -8 -1 41480.3 2372.79 23
-3 -8 -1 38675.6 2243.37 22
-3 -8 -1 38336.8 2330.02 33
3 8 2 1935.51 1092.69 7
3 8 2 902.459 645.423 27
-3 -8 -2 1027.48 603.582 3
-3 -8 -2 861.96 577.321 15
-3 -8 -2 849.458 462.494 22
-3 -8 -2 381.754 278.985 21
3 8 2 1739.85 1000.36 48
-3 -8 -2 542.853 394.368 33
3 8 3 28734 2321.69 27
3 8 3 33192.9 3130.32 48
-3 -8 -3 35210.5 2084.12 22
-3 -8 -3 31484.4 1975.06 21
-3 -8 -3 34320.3 2495.88 3
-3 -8 -3 32736.3 2132.24 33
3 8 3 30832.6 3203.55 7
3 8 4 81451.5 4170.19 27
-3 -8 -4 87402.6 3766.35 21
3 8 4 83513.8 5147.97 48
-3 -8 -4 80513.9 4143.39 3
-3 -8 -4 81380.6 3568.76 22
-3 -8 -4 87024.7 3862.02 33
3 8 4 84969.2 5479.69 7
3 8 5 22791.3 1953.59 27
-3 -8 -5 24001.5 2021.46 43
3 8 5 25374.6 2542.84 48
-3 -8 -5 23570 1717.22 21
-3 -8 -5 20741 1841.49 3
-3 -8 -5 23184.8 1759.04 33
3 8 5 22302.4 2751.34 7
3 8 6 174.181 681.67 7
-3 -8 -6 1462.38 569.66 3
3 8 6 -661.06 693.584 48
3 8 6 1927.65 686.078 27
3 8 6 787.591 415.185 25
-3 -8 -6 996.849 597.029 43
-3 -8 -6 666.523 420.668 21
-3 -8 -6 1692.01 553.968 33
3 8 7 88004.5 4047.03 27
-3 -8 -7 91723.7 3932.1 21
-3 -8 -7 86861.9 3857.27 33
3 8 7 89350.1 3921.77 32
3 8 8 2979.89 627.777 27
-3 -8 -8 4154.87 694.022 21
3 8 8 2678.98 552.147 36
-3 -8 -8 3271.41 618.459 33
3 8 8 2305.8 611.319 32
3 8 9 738.513 460.632 27
-3 -8 -9 515.389 330.02 21
3 8 9 504.187 273.459 36
3 8 9 258.828 353.146 32
3 8 10 159488 5707.27 27
3 8 10 170418 5824.27 36
-3 -8 -10 165095 5759.37 39
-3 -8 -10 171722 5930.48 35
3 8 10 163200 5812.5 32
3 8 11 8085.42 775.712 27
-3 -8 -11 8505.71 811.587 39
-3 -8 -11 8790.2 864.35 35
3 8 11 10535.1 924.454 32
3 8 11 9649.71 882.827 36
3 8 12 151.205 125.977 27
-3 -8 -12 585.643 225.109 39
3 8 12 1076.66 313.51 36
-3 -8 -12 48.9645 175.23 35
3 8 12 1227.89 344.566 32
3 8 12 340.218 243.87 31
3 8 13 34197.4 1350.19 14
3 8 13 28566.3 1309.23 31
-3 -9 3 1654.96 294.173 23
-3 -9 3 1409.42 292.402 12
3 9 -2 23797.6 1514.73 27
-3 -9 2 26382.8 1374.44 22
3 9 -1 9189.99 993.299 27
-3 -9 1 10248.2 934.192 23
-3 -9 1 10775 919.681 22
3 9 0 8144.63 1008.2 27
-3 -9 0 9397.91 939.635 23
-3 -9 0 9759.65 937.197 22
-3 -9 -1 92283.7 3712.11 23
-3 -9 -1 87202.2 3598.82 22
-3 -9 -1 90874.2 3751.9 33
3 9 2 18860.7 1674.24 27
-3 -9 -2 20540.3 1481.5 23
-3 -9 -2 18639.9 1411.44 22
-3 -9 -2 20506.6 1539.82 33
3 9 3 454.426 605.04 27
-3 -9 -3 908.802 399.55 21
-3 -9 -3 265.524 413.452 15
-3 -9 -3 582.99 376.701 22
-3 -9 -3 460.829 362.672 33
3 9 4 41293 2588.07 27
-3 -9 -4 38144.6 2142.03 21
-3 -9 -4 40718.6 2157.69 22
-3 -9 -4 36639.7 2418.31 15
-3 -9 -4 39081.5 2307.63 33
3 9 5 142515 5449.26 27
3 9 5 115215 5106.18 25
-3 -9 -5 131755 4957.59 21
-3 -9 -5 126741 5000.68 33
3 9 5 127277 4741.16 32
3 9 6 15821.9 1485.46 27
-3 -9 -6 16104.7 1342.74 21
-3 -9 -6 16882.4 1403.36 33
3 9 6 14401.6 1226.57 32
3 9 7 11928.3 1198.34 27
-3 -9 -7 11164 1101.11 21
-3 -9 -7 9638.57 968.972 35
-3 -9 -7 11830.7 1151.15 33
3 9 7 10851.1 1066.26 32
3 9 8 51233.5 2598.56 27
-3 -9 -8 55074.2 2636.22 21
-3 -9 -8 52013.5 2508.36 35
-3 -9 -8 52328 2554.98 33
3 9 8 56477.6 2623.24 32
3 9 9 3289 569.139 27
-3 -9 -9 2465.24 523.648 39
-3 -9 -9 2195.91 451.613 21
3 9 9 2222.17 435.526 36
-3 -9 -9 2390.2 495.329 35
3 9 9 3086.9 567.279 32
3 9 10 3989.01 563.379 27
-3 -9 -10 3919.39 561.462 39
-3 -9 -10 3136.6 476.971 21
3 9 10 4074.36 528.487 36
-3 -9 -10 2941.63 526.012 35
3 9 10 4169.72 600.882 32
3 9 11 65413.4 2478.8 27
-3 -9 -11 64679.8 2531.36 39
3 9 11 61361.5 2434.83 36
-3 -9 -11 66155.7 2599.05 35
3 9 11 67797.5 2581 32
-3 -9 -12 532.18 184.411 39
-3 -9 -12 70.2409 151.432 35
3 9 12 606.575 201.001 32
3 9 12 130.868 134.318 31
3 10 0 21299.6 1194.1 27
-3 -10 0 19122.4 1027.08 23
-3 -10 0 20791.3 1099.85 12
3 10 1 20319.6 1196.47 27
-3 -10 -1 18661.9 960.25 23
3 10 2 34303.1 1867.59 27
-3 -10 -2 31975.9 1638.72 22
-3 -10 -2 31197.7 1691.48 33
3 10 3 17472.8 1318 27
-3 -10 -3 14300.5 1180.28 15
-3 -10 -3 15131.8 1166.9 33
-3 -10 -4 27113.4 1759.93 15
-3 -10 -4 27488.6 1525.7 21
-3 -10 -4 29845.5 1736.93 33
3 10 5 11118 1056.88 27
-3 -10 -5 10773.2 1060.12 15
-3 -10 -5 10775.1 925.892 21
-3 -10 -5 10563.6 1007.76 33
-3 -10 -6 68496.5 3200.54 15
-3 -10 -6 74588.4 3028.76 21
-3 -10 -6 69846.6 3063.75 33
3 10 7 5863.41 700.821 27
-3 -10 -7 3872.43 677.382 15
-3 -10 -7 4769.99 561.596 39
-3 -10 -7 4558.85 618.519 21
-3 -10 -7 3786.62 560.77 33
3 10 7 4170.63 513.931 32
3 10 8 8348.67 796.746 27
-3 -10 -8 7018.17 830.706 15
-3 -10 -8 8957.39 808.466 21
-3 -10 -8 7509.86 692.538 39
-3 -10 -8 6842.42 631.921 35
-3 -10 -8 7728.85 740.395 33
3 10 8 8146.59 705.855 32
3 10 9 77875 2882.79 27
-3 -10 -9 71490.7 3043.31 15
-3 -10 -9 77047.2 2892.04 21
-3 -10 -9 79251.5 2869 39
-3 -10 -9 72651.3 2774.84 35
3 10 9 79384.8 2820.42 32
3 10 10 605.508 214.994 27
-3 -10 -10 -39.6145 234.185 15
-3 -10 -10 57.3925 164.159 39
-3 -10 -10 121.446 152.342 21
-3 -10 -10 48.4815 146.21 35
3 10 10 532.145 192.112 32
3 11 4 35313.9 1453.73 27
-3 -11 -4 31747.3 1451.21 33
3 11 5 1628.59 297.504 27
-3 -11 -5 1282.59 279.844 33
3 11 6 29832.5 1312.51 27
-3 -11 -6 26297.4 1340.15 15
-3 -11 -6 28407.3 1243.98 21
-3 -11 -6 26072.1 1292.45 33
3 11 7 18759.2 957.274 27
-3 -11 -7 17045.3 1020.03 15
-3 -11 -7 18483.4 951.972 21
4 -8 -3 9744.67 657.936 24
4 -7 -7 71367.3 2609.92 35
-4 7 7 74529.8 2580.89 19
4 -7 -6 3668.06 469.83 35
-4 7 6 4401.24 491.945 19
4 -7 -5 5498.93 588.4 24
-4 7 5 5107.95 550.706 19
4 -7 -5 5479.84 583.443 35
4 -7 -4 67550.5 2097.56 24
-4 7 4 69335.1 1936.21 19
4 -7 -3 15607.5 1367.39 29
4 -7 -3 12998.1 1032.46 24
-4 7 3 13209.1 908.471 19
4 -7 -2 1872.6 464.384 30
4 -7 -2 2910.7 667.179 29
4 -7 -2 1807.43 449.713 24
4 -7 -2 2447.15 436.006 15
4 -7 -2 921.226 282.02 18
4 -7 -1 63560.8 2978.55 30
4 -7 -1 64838.8 3096.07 29
4 -7 -1 63918.1 2726.47 15
4 -7 -1 64796.2 2723.57 24
4 -7 -1 57295.6 2477.65 23
4 -7 -1 67547 2545.05 18
4 -7 0 36805.1 1874.13 30
4 -7 0 35407.6 1854.88 29
4 -7 0 33807.6 1358.56 28
4 -7 0 36843.6 1649.62 15
4 -7 0 34696.6 1503.33 24
4 -7 0 36717.8 1389.7 18
4 -7 1 63839.7 2846.95 30
4 -7 1 50571.1 2550.11 29
4 -7 1 60650.1 2315.99 28
4 -7 1 66430.1 2674.86 15
4 -7 1 55824.2 2336.56 24
4 -7 1 63032.7 2316.72 12
4 -7 1 66598.5 2399.86 18
4 -7 2 18749.8 1299.97 30
4 -7 2 18962.3 1187.57 15
4 -7 2 17641.7 987.56 12
4 -7 2 19556.9 1021.93 18
4 -7 3 55808.6 2348.17 30
4 -7 3 59835.7 2266.51 15
4 -6 -9 53583.4 2017.28 35
4 -6 -9 56746.3 2028.74 39
4 -6 -8 2879.89 415.63 39
-4 6 8 3253.43 432.04 19
4 -6 -8 3671.9 481.982 35
4 -6 -7 300.719 208.677 39
4 -6 -7 469.154 314.324 35
-4 6 7 356.754 267.03 19
4 -6 -6 59451.9 2530.64 39
4 -6 -6 62377.9 2755.14 35
-4 6 6 60651.4 2633.22 19
4 -6 -5 7001.33 812.243 24
4 -6 -5 8214.48 880.481 35
-4 6 5 7214.24 804.776 19
4 -6 -4 5841.47 767.974 24
4 -6 -4 5910.84 780.353 35
-4 6 4 7061.73 799.436 19
4 -6 -4 5043.36 655.37 18
4 -6 -3 106350 4122.1 35
4 -6 -3 104032 3963.33 18
4 -6 -2 27910.3 2016.12 30
4 -6 -2 26492.7 1672.3 28
4 -6 -2 25346.8 1666.15 23
4 -6 -2 30525.3 1879.19 33
4 -6 -2 30865.2 1724.88 18
4 -6 -1 7403.41 1076.49 30
4 -6 -1 8742.77 1291.69 29
4 -6 -1 5198.3 697.852 28
4 -6 -1 6540.92 788.583 23
4 -6 -1 7851.34 955.07 15
4 -6 -1 8107.06 987.162 33
4 -6 -1 7265.34 846.666 18
4 -6 0 52548.7 3016.92 30
4 -6 0 52663.6 3133.89 29
4 -6 0 48818.7 2396.4 28
4 -6 0 51113.9 2713.84 15
4 -6 0 51026.9 2601.29 24
4 -6 0 43378.7 2264.4 23
4 -6 0 53847.7 2488.15 18
4 -6 1 57843.5 3220.56 30
4 -6 1 54774 3204.55 29
4 -6 1 60059 2625.97 28
4 -6 1 54996.6 2681.76 24
4 -6 1 56496.9 2909.14 15
4 -6 1 55818.6 2583.22 12
4 -6 1 58996 2674.06 18
4 -6 2 11764.9 1311.27 30
4 -6 2 11700.7 1302 29
4 -6 2 12515.2 1000.77 28
4 -6 2 12980.7 1238.15 15
4 -6 2 13777.2 1082.22 24
4 -6 2 12366.3 1036.84 12
4 -6 2 14037.6 1124.08 18
4 -6 3 34900.9 2248.15 30
4 -6 3 32063.2 2070.21 29
4 -6 3 38625.5 2135.46 15
4 -6 3 36588.2 1892.16 12
4 -6 3 37609.3 1891.74 18
4 -6 4 56281.6 2836.59 30
4 -6 4 62584.1 2729.93 15
4 -6 4 56934.1 2451.86 12
4 -6 4 61915.4 2468.81 18
4 -6 5 799.978 334.388 30
4 -6 5 776.084 283.153 12
4 -6 5 1229.38 329.322 18
4 -5 -10 2612.21 316.308 39
4 -5 -9 3491.95 473.914 39
4 -5 -9 2772.31 415.852 35
-4 5 9 2630.57 382.954 19
-4 5 9 3015.79 437.011 32
4 -5 -8 88908.9 3406.72 39
4 -5 -8 90046.8 3449.75 35
-4 5 8 90922.2 3333.32 19
4 -5 -7 2767.63 532.693 39
4 -5 -7 3262.04 596.842 35
-4 5 7 2804.63 531.919 19
4 -5 -6 143.462 261.622 39
-4 5 6 37.6854 325.199 19
4 -5 -6 544.071 363.889 35
4 -5 -5 71577.5 3211.24 24
4 -5 -5 71272.8 3146.46 39
4 -5 -5 70608.4 3329.66 35
-4 5 5 69496.4 3157.23 19
4 -5 -4 4384.94 736.73 21
4 -5 -4 4216.51 750.529 35
-4 5 4 4523.39 704.521 19
4 -5 -4 2625.01 539.087 18
4 -5 -3 29547.1 1920.8 23
4 -5 -3 31439.9 2011.82 21
4 -5 -3 31880.7 2021.71 35
4 -5 -3 27563.7 1758.9 18
4 -5 -2 244975 8288.7 28
-4 5 2 258139 9412.76 46
4 -5 -2 234927 8284.04 23
4 -5 -2 260025 8572.82 33
4 -5 -2 260740 8546.73 21
4 -5 -2 247512 8395.53 35
4 -5 -2 250705 8229.65 18
4 -5 -1 29674.1 2258.19 30
4 -5 -1 28132.9 1809.47 28
4 -5 -1 28705 2003.7 15
-4 5 1 26876.7 2350.26 46
4 -5 -1 27976 1949.19 33
4 -5 -1 28947.6 1815.15 18
4 -5 -1 25070 1726.72 23
4 -5 0 8677.67 1283.3 30
4 -5 0 7403.62 1283.17 29
4 -5 0 7447.76 906.65 28
4 -5 0 8039.46 901.409 23
4 -5 0 7877.01 1066.01 15
4 -5 0 6933.14 974.929 33
4 -5 0 6752.38 842.595 12
4 -5 0 7504.24 968.301 18
4 -5 1 36253.5 2653.91 30
4 -5 1 33910.7 2687.61 29
4 -5 1 36656.5 2099.11 28
4 -5 1 36981.3 2422.08 15
4 -5 1 35857.9 2116.35 12
4 -5 1 37698.4 2371.18 33
4 -5 1 37820.5 2201.91 18
4 -5 2 54275 3395.78 30
4 -5 2 53555 3423 29
4 -5 2 59648.2 2771.3 28
4 -5 2 53790.3 2796.29 24
4 -5 2 58787.7 3176.66 15
4 -5 2 60222 2913.3 12
4 -5 2 58110.5 2863.56 18
4 -5 3 8529.26 1242.54 30
4 -5 3 8965.88 1280.87 29
4 -5 3 9771.49 1158.24 15
4 -5 3 9632.99 1048.04 12
4 -5 3 9645.54 1026.19 18
4 -5 4 42483.4 2784.42 30
4 -5 4 44467.3 2802.37 29
4 -5 4 46247.4 2653.85 15
4 -5 4 47172.1 2433.87 12
4 -5 4 46448.7 2402.78 18
4 -5 5 51291.6 2891.99 30
4 -5 5 47871 2698.97 29
4 -5 5 55333.1 2756.39 15
4 -5 5 54978.1 2548.84 12
4 -5 5 51001.5 2457.33 18
4 -5 6 1336.4 482.609 30
4 -5 6 1694.18 409.793 12
4 -5 6 1219.08 374.438 18
4 -5 7 9184.2 673.1 12
4 -5 7 10403.7 737.816 18
4 -4 -10 30166.1 1198.39 39
-4 4 10 27750.9 1060.97 20
4 -4 -9 361.128 242.62 39
-4 4 9 -98.16 185.982 20
4 -4 -9 115.631 249.059 35
-4 4 9 722.261 294.147 19
-4 4 9 401.936 296.848 32
4 -4 -8 12299.8 1124.31 39
-4 4 8 12715.3 1001.41 20
4 -4 -8 11822.4 1075.22 35
-4 4 8 12083.4 1039.05 19
-4 4 8 10984 1047.69 32
4 -4 -7 120545 4654.04 39
4 -4 -7 119320 4693.29 35
-4 4 7 117309 4521.75 19
-4 4 7 113903 4575.67 32
4 -4 -6 15203.6 1348.54 39
4 -4 -6 16330 1407.48 35
-4 4 6 15221.4 1304.97 19
-4 4 6 14553 1254.14 32
-4 4 5 7442.84 1538.53 4
-4 4 5 4807.72 862.39 46
4 -4 -5 4096.2 730.692 9
4 -4 -5 6182.6 818.173 39
4 -4 -5 4589.5 754.325 35
-4 4 5 6098.01 827.383 19
-4 4 4 100343 4770.45 46
4 -4 -4 104737 4356.72 24
4 -4 -4 93459.2 4387.09 9
4 -4 -4 111609 4445.79 21
4 -4 -4 99617.3 4147.17 39
4 -4 -4 108702 4604.79 8
4 -4 -4 105041 4408.03 35
-4 4 4 95663.3 4092.48 19
4 -4 -4 98718.3 4109.27 18
-4 4 3 8866.93 1215.81 49
-4 4 3 8568.4 1260.37 46
4 -4 -3 7656.27 957.012 23
4 -4 -3 8679.27 1046.92 21
4 -4 -3 8518.49 1103.36 8
4 -4 -3 8115.31 1046.91 35
4 -4 -3 8561.68 965.748 18
4 -4 -2 4887.79 749.328 28
-4 4 2 3446.31 851.201 49
-4 4 2 5910.89 1086.61 46
4 -4 -2 4723.29 778.065 23
4 -4 -2 5251.24 797.575 21
4 -4 -2 4567.53 734.402 35
4 -4 -2 3860.3 771.244 8
4 -4 -2 4554.82 768.158 33
4 -4 -2 4881.48 768.942 18
4 -4 -1 256709 9174.9 30
4 -4 -1 255522 8457.02 28
-4 4 1 277752 9683.8 46
4 -4 -1 248857 8549.34 21
-4 4 1 273344 9848.86 49
4 -4 -1 248509 8435.25 23
4 -4 -1 253553 8959.52 8
4 -4 -1 241550 8455.75 35
4 -4 -1 253762 8704.06 33
4 -4 -1 255416 8468.48 18
4 -4 0 36156.3 2527.37 30
4 -4 0 30627.6 1928.02 28
-4 4 0 35613.3 2708.18 46
-4 4 0 32802.8 2730.51 49
4 -4 0 29053.2 2167.4 8
4 -4 0 30842.3 1922.47 12
4 -4 0 29018.9 2061.33 33
4 -4 0 33566.3 2239.83 15
4 -4 0 31354.6 1999.59 18
4 -4 1 14602.2 1622 30
4 -4 1 13591.5 1668.32 29
4 -4 1 14550.5 1260.08 28
4 -4 1 14252.2 1463.91 15
-4 4 -1 12390.7 1694.66 46
-4 4 -1 15980.2 1990.8 49
4 -4 1 16684.3 1573.99 8
4 -4 1 14332.9 1285.06 12
4 -4 1 13150.4 1339.62 33
4 -4 1 14013.6 1297.88 18
4 -4 2 41361.5 2846.12 30
4 -4 2 36945.4 2820.13 29
-4 4 -2 32318.1 2833.65 46
4 -4 2 38700.1 2530.08 15
4 -4 2 43004.1 2666.89 8
4 -4 2 36900.3 2249.01 12
4 -4 2 38690.1 2428.85 33
4 -4 2 34139.7 2154.25 18
4 -4 3 28158.5 2343 30
4 -4 3 26289.5 2336.76 29
4 -4 3 26879.1 2065.56 15
4 -4 3 27574.1 2119.86 8
4 -4 3 26322.1 1886.3 12
4 -4 3 23355.1 1776.11 18
4 -4 4 4491.41 975.573 30
4 -4 4 6985.24 1165.72 29
4 -4 4 7255.1 1088.65 15
4 -4 4 5778.63 821.238 12
4 -4 4 6058.39 877.456 18
4 -4 5 37862.7 2706.81 30
4 -4 5 36832.7 2628.51 29
4 -4 5 39864.2 2531.93 15
4 -4 5 38181.3 2281.07 12
4 -4 5 33775.7 2114.7 18
4 -4 6 78042.6 3838.67 30
4 -4 6 74043.1 3703.38 29
4 -4 6 69976.7 3438.05 15
4 -4 6 73271 3271.49 12
4 -4 6 66293.4 3148.64 18
4 -4 7 13223.1 1066.04 12
4 -4 7 11544 1016.58 18
4 -4 7 11721.2 1229.94 30
4 -4 8 -78.7812 165.055 30
4 -4 8 107.78 139.939 12
4 -3 -10 25768.6 1212.14 39
-4 3 10 23661.6 1118.53 20
4 -3 -9 41268.9 2128.87 39
-4 3 9 37709 1933.53 20
-4 3 9 38309.6 1947.06 19
-4 3 9 38320.4 2122.18 32
4 -3 -8 699.322 313.704 39
-4 3 8 635.54 329.11 20
4 -3 -8 424.179 328.418 35
-4 3 8 1155.9 416.365 19
-4 3 8 985.352 398.485 32
4 -3 -7 10454.3 1142.84 39
-4 3 7 8875.26 923.041 20
4 -3 -7 11055.9 1213.25 35
-4 3 7 9723.15 1036.62 19
-4 3 7 9395.42 1074.43 32
-4 3 6 190993 8308.36 4
-4 3 6 180431 7252.68 46
4 -3 -6 188866 7618.39 45
4 -3 -6 191902 6755.38 39
-4 3 6 175882 6238.65 20
4 -3 -6 194850 6778.01 35
4 -3 -6 179963 7043.99 9
-4 3 6 179232 6505.15 19
-4 3 6 174599 6545.82 32
-4 3 5 20678.8 2322.32 4
-4 3 5 19034 1791.49 46
4 -3 -5 20421.6 1959.92 45
4 -3 -5 18696.5 1505.79 39
4 -3 -5 17499.5 1530.85 35
4 -3 -5 19698.8 1750.03 9
-4 3 5 17943.1 1432.77 19
-4 3 5 16619.3 1381.16 32
-4 3 4 7287.1 1119.78 46
4 -3 -4 9853.52 1150.2 24
4 -3 -4 8613.27 1243.64 45
-4 3 4 8755.44 1117.75 44
4 -3 -4 10086.6 1215.07 9
4 -3 -4 9050.77 998.333 39
-4 3 4 7640.6 1120.59 49
4 -3 -4 8232.55 1021.69 21
4 -3 -4 9157.19 1106.14 8
4 -3 -4 8673.93 1024.14 35
-4 3 4 8902.01 975.171 19
4 -3 -4 6082.06 916.268 18
-4 3 3 160283 6323.05 49
-4 3 3 153420 6224.87 46
4 -3 -3 159887 6485.33 45
4 -3 -3 143980 5932.78 9
4 -3 -3 150404 5959.53 8
4 -3 -2 19666 1798.34 45
-4 3 2 23663.8 2050.43 49
-4 3 2 23358.6 1928.52 46
4 -3 -2 20620.7 1717.65 9
4 -3 -2 18437.3 1633.6 8
-4 3 1 1226.11 614.679 46
-4 3 1 1658.01 798.993 49
4 -3 -1 1580.9 574.846 8
-4 3 0 116667 5543.15 49
-4 3 0 109342 5166.07 46
4 -3 0 115342 4843.67 8
-4 3 -1 6574.35 1178.14 46
4 -3 1 7993.96 1046.89 8
-4 3 -1 5944.35 1188.84 49
-4 3 -2 5855.69 1145.06 46
4 -3 2 6575.64 966.339 8
4 -3 3 130558 5869.88 30
4 -3 3 135420 6051.66 29
4 -3 3 133116 5553.14 15
4 -3 3 140526 5731.98 8
4 -3 3 133566 5295.99 12
4 -3 3 120433 5093.92 18
4 -3 4 26389 2276.95 30
4 -3 4 26624.4 2315.25 29
4 -3 4 32405.3 2037.59 26
4 -3 4 30862.7 2229.31 15
4 -3 4 28558.1 1977.11 12
4 -3 4 24210.5 1808.96 18
4 -3 4 31635.1 1860.06 31
4 -3 5 13053.5 1618.46 30
4 -3 5 12982.6 1597.81 29
4 -3 5 17144.9 1456.01 26
4 -3 5 12824.5 1462.7 15
4 -3 5 12666.5 1301.69 12
4 -3 5 12650 1258.92 18
4 -3 5 14769.3 1241.28 31
4 -3 6 57148.8 3488.65 30
4 -3 6 57399.2 3482.67 29
4 -3 6 62238.4 3032.65 26
4 -3 6 61485 3318.63 15
4 -3 6 59224.5 3027.88 12
4 -3 6 56110.5 2942.92 18
4 -3 6 61938 2851.79 31
4 -3 7 65230.9 3584.65 29
4 -3 7 74194.7 3256.01 26
4 -3 7 63937.8 3089.03 12
4 -3 7 69791.2 3026.21 38
4 -3 7 61286.5 3065.78 18
4 -3 7 69422.6 3026.92 31
4 -3 7 71449.2 3735.13 30
4 -3 8 27266.4 1967.53 29
4 -3 8 31408.8 1805.89 26
4 -3 8 25600.4 1568.14 12
4 -3 8 25875.1 1629.01 18
4 -3 8 27227.7 1963.84 30
4 -3 9 191.553 246.287 30
4 -3 9 27817.3 1251.86 18
-4 2 11 28461.6 1266.57 20
4 -2 -10 14244 994.142 39
-4 2 10 12607.9 951.248 20
-4 2 10 13004.3 1043.04 32
4 -2 -9 24450.4 1638.57 39
-4 2 9 22392.5 1476.7 20
-4 2 9 23021.9 1461.9 19
-4 2 9 20555.4 1556.07 32
-4 2 8 108328 4297.77 20
4 -2 -8 119804 4687.57 39
-4 2 8 106645 4325.15 19
-4 2 8 104676 4527.34 32
4 -2 -7 9291.57 1106.92 39
-4 2 7 11058.3 1063.69 20
4 -2 -7 9199.66 1058.96 35
-4 2 7 10152.2 1081.45 19
-4 2 7 9461.88 1118.55 32
-4 2 6 744.561 396.756 20
-4 2 6 340.131 406.966 46
4 -2 -6 792.338 621.757 45
4 -2 -6 -33.914 439.356 9
4 -2 -6 721.092 461.536 39
4 -2 -6 657.633 530.106 35
-4 2 6 599.798 446.526 19
-4 2 6 431.245 329.566 32
-4 2 5 107883 5513.43 4
-4 2 5 92678.8 4520.49 46
4 -2 -5 110187 5127.54 45
4 -2 -5 104325 4692.5 9
4 -2 -5 95359.8 4177.25 39
4 -2 -5 95716.3 4180.27 35
-4 2 5 102704 4112.64 19
-4 2 5 91845.5 4079.6 32
-4 2 4 4415.15 831.716 46
4 -2 -4 3904.38 921.444 45
-4 2 4 1869.21 602.084 49
4 -2 -4 3023.94 730.184 9
4 -2 -4 1883.06 556.173 8
-4 2 3 1136.16 487.143 49
-4 2 3 1690.93 602.871 46
4 -2 -3 751.959 530.895 45
4 -2 -3 1043.79 504.944 9
4 -2 -3 563.125 418.861 8
-4 2 2 172210 6901.7 47
-4 2 2 187467 6784.35 46
4 -2 -2 175314 7036.09 45
4 -2 -2 192450 6854.16 9
4 -2 -2 176055 6669.48 8
-4 2 2 191195 7133.04 49
-4 2 1 29538.1 2236.45 49
4 -2 -1 26950.8 2090.03 45
-4 2 1 29378.4 2034.42 46
4 -2 -1 28744 1965.4 9
4 -2 -1 28901.6 1978.56 8
-4 2 0 20937.3 1964.01 49
4 -2 0 16483.4 1482.77 8
-4 2 0 20717.3 1715.92 46
-4 2 -1 96450.9 4783.48 49
4 -2 1 94561.1 4185.26 8
4 -2 2 17144.8 1516.88 8
4 -2 3 17365.3 1414.6 10
4 -2 3 16076 1505.69 8
4 -2 4 172451 6263.67 10
4 -2 4 158655 6297.3 8
4 -2 5 31208 2440.09 30
4 -2 5 29621.9 2376.75 29
4 -2 5 32361.1 2188.66 10
4 -2 5 31942.7 1975.91 26
4 -2 5 32262.3 2261.8 15
4 -2 5 31356.7 2079.44 12
4 -2 5 28726.2 1948.87 18
4 -2 5 35144.5 1936.25 31
4 -2 6 16331 1770.17 30
4 -2 6 12949.5 1570.79 29
4 -2 6 16622.9 1562.2 10
4 -2 6 18004.6 1450.78 26
4 -2 6 14478 1574.59 15
4 -2 6 17423.6 1476.22 38
4 -2 6 15471.3 1411.03 12
4 -2 6 15174.2 1413.07 18
4 -2 6 15848.9 1274.36 31
4 -2 7 49198.4 3132.11 29
4 -2 7 48953.5 2619.57 26
4 -2 7 49747 2726.2 38
4 -2 7 46204.8 2582.89 12
4 -2 7 48504.5 2642.12 18
4 -2 7 52182.1 2552.89 31
4 -2 7 49762.5 3157.4 30
4 -2 8 63574.3 3595.14 29
4 -2 8 69843.7 3184.7 26
4 -2 8 70956.5 3316.38 38
4 -2 8 63639.6 2996.49 12
4 -2 8 62117.9 3077.32 18
4 -2 8 71793.7 3090.32 31
4 -2 8 70781.6 3695.01 30
4 -2 9 7535.13 1009.96 30
4 -2 9 9817.21 1166.67 29
4 -2 9 8453.06 898.227 26
4 -2 9 9310.54 1029.42 38
4 -2 9 8771.64 885.103 31
4 -2 9 6413.62 752.082 18
4 -2 10 13816.3 1056.06 26
4 -2 10 14088.2 1020.87 31
-4 1 11 28547.9 1278.04 20
-4 1 10 22246.2 1309.87 20
-4 1 10 18723.1 1286.27 32
4 -1 -9 11633.4 1094.5 39
-4 1 9 11100.8 1023.32 20
-4 1 9 11694.9 1031.73 19
-4 1 9 9315.53 956.801 34
-4 1 9 10386.1 1086.83 32
4 -1 -8 101756 4528.55 39
-4 1 8 116326 4431.6 20
-4 1 8 107877 4371.03 19
-4 1 8 111478 4513.44 34
-4 1 8 110282 4633.77 32
-4 1 7 184449 7033.06 11
4 -1 -7 175620 7277.25 9
4 -1 -7 167843 6682.17 39
4 -1 -7 190727 7821.17 45
-4 1 7 191741 6544.91 20
-4 1 7 186735 6613.11 19
-4 1 7 183308 6779.72 32
-4 1 6 1077.17 511.859 11
-4 1 6 487.222 324.673 16
4 -1 -6 1114.5 645.414 45
4 -1 -6 1765.96 731.854 9
4 -1 -6 1171.97 431.495 39
-4 1 6 1399.93 479.861 20
-4 1 6 1220.46 393.504 19
-4 1 6 742.381 396.023 32
-4 1 5 9815.96 1233.12 46
4 -1 -5 7641.74 1281.91 45
4 -1 -5 10465.1 1361.79 9
-4 1 5 9462.46 1209.77 49
-4 1 4 74692.3 3703.23 49
-4 1 4 71351 3493.23 46
4 -1 -4 71772.8 3913.13 45
4 -1 -4 73165.5 3721.76 9
4 -1 -4 73146.4 3537.97 8
-4 1 3 39157.6 2469.42 49
-4 1 3 35074.9 2151.54 46
4 -1 -3 36154.1 2530.85 45
4 -1 -3 39890.7 2440.66 9
4 -1 -3 37586 2320.22 8
-4 1 2 20971.7 1785.11 49
-4 1 2 23627.3 1754.8 47
-4 1 2 19294.8 1453.89 46
4 -1 -2 19046.8 1744.23 45
4 -1 -2 25940.1 1849.27 9
4 -1 -2 22374.4 1692.81 8
-4 1 1 135006 5446.74 47
4 -1 -1 141141 5301.51 9
-4 1 1 136139 5547.16 49
4 -1 -1 132937 5520.51 45
4 -1 -1 131055 5190.84 8
-4 1 0 51.0659 455.014 49
4 -1 0 371.989 271.297 9
4 -1 0 14.0926 343.464 8
-4 1 -1 492.574 553.969 49
4 -1 1 1200.18 499.453 8
-4 1 -2 227584 8371.14 49
4 -1 2 222432 7796.13 8
4 -1 3 18187.3 1317.19 10
4 -1 3 17313.2 1492.2 8
4 -1 4 25276.3 1679.37 10
4 -1 4 20853.5 1646.65 8
4 -1 5 159241 5968.07 10
4 -1 6 18863.8 1815.9 30
4 -1 6 17540.7 1787.77 29
4 -1 6 20214.2 1686.7 10
4 -1 6 21854.4 1555.87 26
4 -1 6 21246.8 1816.43 15
4 -1 6 22571.6 1563.11 25
4 -1 6 20116.8 1683.7 13
4 -1 6 20478.2 1649.45 38
4 -1 6 18892.8 1500.02 12
4 -1 6 20052.7 1423.19 31
4 -1 7 13364.2 1604.32 29
4 -1 7 14612.8 1463.57 10
4 -1 7 11629.7 1168.67 26
4 -1 7 11926.1 1298.62 38
4 -1 7 13620.6 1247.11 12
4 -1 7 15116 1259.39 31
4 -1 7 13665.6 1609.41 30
4 -1 8 67094.9 3797.82 29
4 -1 8 73270.7 3323.44 26
4 -1 8 69398 3584.91 38
4 -1 8 69365.3 3173.87 31
4 -1 8 68770 3826.47 30
4 -1 9 48327.2 3061.39 29
4 -1 9 52853 2650.95 26
4 -1 9 51056.8 2873.1 38
4 -1 9 51352.4 2554.73 31
4 -1 9 49335 3004.82 30
4 -1 10 1697.92 681.662 30
4 -1 10 824.444 377.147 26
4 -1 10 1225.4 560.912 38
4 -1 10 455.569 341.012 31
4 -1 11 23486 1392 26
4 -1 11 25456.9 1411.29 31
-4 0 10 61500.5 2485.39 20
-4 0 10 56165.9 2419.21 34
-4 0 9 35618.7 1958.99 20
-4 0 9 34248.5 2012.27 34
-4 0 9 30699.6 1924.72 32
-4 0 8 2593.18 574.283 20
-4 0 8 3132.75 675.641 34
-4 0 8 2405.57 536.752 19
-4 0 8 2839.7 622.523 32
-4 0 7 28642.2 2141.89 11
-4 0 7 29699.9 1949.39 16
4 0 -7 33276.6 2738.61 45
4 0 -7 29148.2 2392.34 9
4 0 -7 30164 2102.66 39
-4 0 7 33430.6 2018.72 20
-4 0 7 31835.8 2019.13 19
-4 0 7 33118.2 2258.42 34
-4 0 7 30063.7 2067.14 32
-4 0 7 29609.4 2039.15 17
-4 0 6 46511.3 2704.31 11
-4 0 6 43179 2514.95 16
4 0 -6 44352.9 3164.79 45
4 0 -6 42897.7 2981.93 9
4 0 -6 47323.9 2698.57 39
-4 0 6 49817.4 2518.18 20
-4 0 6 52300.7 2612.82 19
-4 0 6 46440.5 2632.81 32
-4 0 6 43060.6 2507.83 17
-4 0 5 36268.9 2159.87 11
4 0 -5 35614.9 2641.17 45
4 0 -5 30782.3 2360.15 9
-4 0 5 30854.2 2305.18 49
4 0 -4 45379.1 3010.82 45
4 0 -4 46536.2 2856.4 9
4 0 -4 50790.8 2773.19 8
-4 0 4 47062.1 2812.48 49
-4 0 3 113106 4835.67 49
-4 0 3 109418 4341.96 46
4 0 -3 113527 5050.97 45
4 0 -3 115414 4859.09 9
4 0 -3 120663 4714.67 8
4 0 -2 881.252 424.613 6
4 0 -2 1805.76 611.042 45
4 0 -2 1616.81 485.639 9
-4 0 2 1609.1 610.919 49
-4 0 2 1532.9 561.163 47
4 0 -2 1875.25 526.227 8
4 0 -1 54288.3 2997.3 45
-4 0 1 61135.7 3002.47 47
4 0 -1 58323.4 2837.94 9
4 0 -1 54703.5 2742.42 8
-4 0 1 55231.1 2942.56 49
4 0 0 336763 11282.8 45
4 0 0 346523 10846.3 9
4 0 0 358081 10984.5 8
-4 0 0 343113 11163.1 47
-4 0 0 358248 11254.9 49
-4 0 -1 16694.3 1453.8 49
-4 0 -1 13759.7 1321.58 47
4 0 1 14709.7 1134.9 9
4 0 1 16422 1347.67 8
-4 0 -2 9484.61 1102.61 49
4 0 2 6777.71 903.016 8
4 0 3 397059 11664.7 10
-4 0 -3 389411 12448.1 49
4 0 3 376374 12149.5 8
4 0 4 54558.4 2537.16 10
-4 0 -4 53441.1 2938.42 49
4 0 4 49525.6 2674.4 8
4 0 5 29412.7 1836.29 10
-4 0 -5 25786.5 1942.99 49
4 0 6 113055 4680.48 10
4 0 7 6679.72 1126.44 30
4 0 7 5701.61 1008.52 29
4 0 7 6752.88 851.723 26
4 0 7 7461.06 931.096 25
4 0 7 6800.19 972.072 10
4 0 7 7311.62 1036.87 38
4 0 7 6799.89 1060.57 13
4 0 7 7402.74 848.952 31
4 0 8 21597.5 2029.59 29
4 0 8 22341.4 1919.61 10
4 0 8 21164.3 1618.71 26
4 0 8 25099.8 1827.57 25
4 0 8 20997.8 1909.74 13
4 0 8 20363.7 1837.75 38
4 0 8 22158.2 1589.38 31
4 0 8 22716.1 2058.05 30
4 0 9 68483.7 3750.77 29
4 0 9 63305.7 3043.81 26
4 0 9 56579.9 3326.92 38
4 0 9 64757.9 3054.85 31
4 0 9 62226.7 3588.14 30
4 0 10 32458.1 2388.96 29
4 0 10 29629 1872.78 26
4 0 10 29052.5 2086.97 38
4 0 10 30795.2 1888.96 31
4 0 10 31537 2276.42 30
4 0 11 6029.31 745.906 26
4 0 11 5416.17 837.228 38
4 0 11 5858.48 716.697 31
4 0 12 9350.36 773.735 26
4 0 12 10205.1 808.98 31
-4 -1 10 9170.33 753.055 20
-4 -1 10 8566.07 775.604 34
-4 -1 9 59310.2 2659.4 20
-4 -1 9 58820.2 2874.94 34
-4 -1 8 32123.5 1918 20
-4 -1 8 29639.6 1827.7 19
-4 -1 8 27404 1884.53 32
-4 -1 7 659.697 542.061 17
-4 -1 7 652.13 340.951 16
-4 -1 7 258.621 335.693 20
-4 -1 7 1183.01 545.803 34
-4 -1 7 182.201 300.186 19
-4 -1 7 1084.2 400.275 32
-4 -1 6 88351.7 4033.19 11
-4 -1 6 82257.1 3837.03 16
4 1 -6 82374.1 4552.29 45
4 1 -6 89564.9 3920.41 39
-4 -1 6 89882.4 4498.12 49
-4 -1 6 88827.5 3717.04 20
-4 -1 6 88784.9 3785.22 19
-4 -1 6 98107.1 4359.01 34
-4 -1 6 80493.5 3811.9 32
-4 -1 6 78056.2 3842.01 17
-4 -1 5 7021.63 906.469 11
-4 -1 5 7237.18 1110.02 49
4 1 -5 6400.45 1129.88 45
-4 -1 4 4947.45 915.34 49
-4 -1 4 5646.42 747.741 11
4 1 -4 4968.27 942.593 45
4 1 -4 5978.03 881.956 42
4 1 -4 5568.65 908.324 8
-4 -1 3 69385.4 3463.78 49
4 1 -3 69059.9 3611.29 45
4 1 -3 71274.3 3285.71 42
4 1 -3 77534 3420.98 8
-4 -1 3 63761.6 3250.19 47
4 1 -2 184756 6761.81 6
-4 -1 2 190805 6830.21 49
4 1 -2 191822 7053.7 45
4 1 -2 185231 6779.94 9
4 1 -2 193919 6639.76 42
-4 -1 2 191986 6792.11 47
4 1 -1 20546.9 1621.35 6
-4 -1 1 20298.6 1544.77 49
4 1 -1 23188.2 1602.24 9
4 1 -1 21838.3 1548.51 42
4 1 -1 20256.9 1681.31 45
-4 -1 1 22457.2 1644.64 47
4 1 0 78596.9 3587.24 6
-4 -1 0 74845.2 3384.79 49
4 1 0 74462.9 3558.79 45
4 1 0 83849.6 3351.64 9
4 1 0 86925.4 3652.93 42
4 1 0 78802.8 3391.84 8
-4 -1 0 80202 3497.02 47
4 1 1 227588 8049.94 42
-4 -1 -1 235855 7717.33 49
4 1 1 246481 8142.69 6
-4 -1 -1 239456 7869.69 47
4 1 1 231653 7370.4 9
4 1 1 229677 7694.37 8
-4 -1 -2 2133.32 591.172 47
4 1 2 2881.09 604.782 8
4 1 3 646.897 280.334 10
-4 -1 -3 264.698 343.803 49
-4 -1 -3 61.0805 379.89 47
4 1 3 818.491 404.675 8
4 1 4 210429 6700.44 10
-4 -1 -4 206325 6852.59 49
-4 -1 -4 202819 7067.43 47
4 1 4 191003 6930.97 8
4 1 5 20331.9 1438.6 10
-4 -1 -5 19422.9 1531.71 47
4 1 6 8799.15 1002.26 10
4 1 7 170657 6471.58 10
4 1 8 17503.7 1782.73 29
4 1 8 15404.8 1534.56 17
4 1 8 19373.1 1731.64 10
4 1 8 18024.6 1425.49 26
4 1 8 17880.6 1752.4 13
4 1 8 21739.8 1727.62 25
4 1 8 17922.2 1756.31 38
4 1 8 18474.9 1434.97 31
4 1 8 20434 1929.35 30
4 1 9 9294.17 1383.03 30
4 1 9 8617.45 1316.09 29
4 1 9 8217.15 1103.79 17
4 1 9 6742.35 871.896 26
4 1 9 9485.42 1186.11 25
4 1 9 8234.2 1173.95 10
4 1 9 8548.15 1193.11 38
4 1 9 8028.01 1212.24 13
4 1 9 7958.43 940.268 31
4 1 10 121069 5371.97 17
4 1 10 137000 6045.6 29
4 1 10 131494 5206.02 26
4 1 10 147301 5701.17 25
4 1 10 145839 5801.24 38
4 1 10 142615 5349.17 31
4 1 10 150245 6047.53 30
4 1 11 22199 1695.3 17
4 1 11 24952.9 1647.52 26
4 1 11 26687.6 1533.71 14
4 1 11 29489.1 1963.71 38
4 1 11 25765 1711.7 31
4 1 12 24885.8 1558.04 17
4 1 12 25324.5 1519.84 26
4 1 12 31387.5 1786.23 38
4 1 12 32327.6 1716.08 31
4 1 13 11493.1 772.308 31
-4 -2 10 846.098 264.176 28
-4 -2 10 2090.18 318.494 20
-4 -2 10 1963.33 358.984 34
-4 -2 10 863.118 265.958 18
-4 -2 9 16537 1147.29 20
-4 -2 9 15840.8 1296.1 34
-4 -2 8 73360 3117.39 20
-4 -2 8 63912.5 2912.72 19
-4 -2 8 71919.7 3516.26 34
-4 -2 7 13847.7 1300.97 16
-4 -2 7 14479.7 1267.56 20
-4 -2 7 14371.5 1264.33 19
-4 -2 7 15280.7 1556.49 34
-4 -2 6 5571.31 976.571 17
-4 -2 6 6047.84 934.512 11
-4 -2 6 5036.49 795.357 16
-4 -2 6 4735.07 966.971 49
4 2 -6 6665.9 1144.11 42
-4 -2 6 4748.47 735.591 20
-4 -2 6 5372.21 918.142 34
-4 -2 6 6434.42 861.639 19
-4 -2 6 5925.37 824.658 32
-4 -2 5 55447 2826.34 11
-4 -2 5 54401.9 2800.87 16
-4 -2 5 51338.4 3256.21 49
4 2 -5 52653.4 3162.87 42
4 2 -5 50236 3180.18 45
-4 -2 5 51231.5 2544.84 20
-4 -2 5 53548.1 2627.05 19
-4 -2 5 54334.1 3051.38 34
-4 -2 5 48193 2641.56 32
-4 -2 5 51443.8 2812.07 17
-4 -2 4 46693.2 2413.34 11
-4 -2 4 48340.3 2939.09 49
4 2 -4 45285.4 2884.89 45
4 2 -4 44542.5 2775.08 42
4 2 -3 35947.4 2380.52 6
4 2 -3 38538.8 2462.66 45
4 2 -3 37494.4 2407.89 42
-4 -2 3 38247.1 2441.13 49
-4 -2 3 36701.6 2352.73 47
4 2 -2 25467.8 1904.81 6
-4 -2 2 21889.2 1729.43 47
-4 -2 2 23387.3 1737.51 49
4 2 -2 23969.2 1826.99 45
4 2 -2 23387.7 1765.75 42
4 2 -1 237401 8282.58 6
-4 -2 1 246365 7982.86 49
-4 -2 1 248605 8112.86 47
4 2 -1 235178 8173.77 45
4 2 -1 217859 7760.06 9
4 2 -1 249194 8217.34 42
4 2 0 16287.6 1503.59 6
-4 -2 0 14687.3 1195.08 49
-4 -2 0 17407.2 1380.51 47
4 2 0 16839.9 1190.82 9
4 2 0 16042.1 1439.4 42
-4 -2 -1 6222.8 750.701 49
4 2 1 5923.9 972.678 6
-4 -2 -1 6478.43 847.747 47
4 2 1 7843.97 1058.11 42
4 2 2 393001 11919.7 7
-4 -2 -2 382990 11752.7 47
4 2 2 405484 12476.3 6
-4 -2 -2 370871 11421.5 49
4 2 2 371698 12545.3 42
4 2 3 4976.25 869.987 7
-4 -2 -3 4522.59 581.121 49
-4 -2 -3 4671.84 707.506 47
4 2 3 3697.13 791.715 6
4 2 3 3667.97 501.402 10
4 2 3 5123.28 726.014 8
4 2 4 42549.1 2084.19 10
-4 -2 -4 41768 2243.26 47
4 2 4 47708 2343.61 8
4 2 5 154269 5626.16 10
-4 -2 -5 168900 5787.27 47
4 2 6 354.857 307.053 10
4 2 7 7146.22 996.045 10
-4 -2 -7 6236.41 1046.43 43
4 2 8 139856 5887.1 29
4 2 8 135035 5516.45 17
4 2 8 135231 5623.12 10
4 2 8 132861 5408.61 25
-4 -2 -8 138025 5848.38 43
4 2 8 128037 5485.19 13
4 2 8 131251 5558.04 38
4 2 8 130181 5032.57 31
4 2 8 137433 5900.19 30
4 2 9 13657.9 1635.98 29
4 2 9 11964.2 1387.06 17
4 2 9 11062 1127.19 26
4 2 9 10350.8 1345.77 10
4 2 9 11464.8 1396.05 13
4 2 9 13326.4 1416.81 25
4 2 9 11958.6 1334.89 38
4 2 9 11997.7 1197.13 31
4 2 9 13467.2 1697.55 30
4 2 10 3662.46 1040.11 29
4 2 10 3089.66 796.515 17
4 2 10 1982.29 531.288 26
4 2 10 2814.6 766.215 25
4 2 10 2056.73 492.977 14
4 2 10 2265.73 735.504 38
4 2 10 1659.98 533.542 31
4 2 11 56410.9 3033.61 17
4 2 11 52144.7 2667.29 26
4 2 11 59990 3050.32 25
4 2 11 52164.3 2577.46 14
4 2 11 59366.4 2985.36 38
4 2 11 55579.2 2839.01 31
4 2 12 15443.2 1308.97 17
4 2 12 15390 1170.37 26
4 2 12 13873.9 1047.57 14
4 2 12 17366.4 1290.49 38
4 2 12 13881.5 1190.15 31
4 2 13 13348.3 919.02 17
4 2 13 10735.9 750.366 26
4 2 13 11756.7 822.236 31
-4 -3 9 856.862 264.011 28
-4 -3 9 1512.43 341.427 20
-4 -3 9 725.829 319.897 34
-4 -3 9 793.552 278.578 18
-4 -3 8 5335.05 685.879 16
-4 -3 8 4967.6 677.725 20
-4 -3 8 3719.8 671.861 34
-4 -3 7 118862 4836.11 16
-4 -3 7 131374 4770.42 20
-4 -3 7 121343 4667.01 19
-4 -3 7 131239 5371.18 34
-4 -3 6 18294 1556.88 16
-4 -3 6 18740.5 1446.53 20
-4 -3 6 19186.4 1448.03 19
-4 -3 6 18842.1 1720.69 34
-4 -3 5 26670.9 1878.26 16
-4 -3 5 26604.2 2329.58 49
4 3 -5 26986.9 2332.46 42
-4 -3 5 26735.2 1720.57 20
-4 -3 5 24881.6 1690.47 19
-4 -3 5 27884.5 2102.41 34
-4 -3 5 23208.2 1792.04 11
-4 -3 4 148598 5523.83 16
-4 -3 4 155559 6352.26 49
4 3 -4 145852 6254.57 42
-4 -3 4 146207 5290.05 20
-4 -3 4 148313 5319.59 19
-4 -3 4 141593 5464.56 11
4 3 -3 80740.6 4170.67 6
-4 -3 3 96269.7 4334.7 49
4 3 -3 86564.2 4277.23 42
-4 -3 3 87750.9 4234.01 47
-4 -3 3 87129.3 3593.4 11
-4 -3 2 5997.27 887.767 49
-4 -3 2 6247.62 984.484 47
4 3 -2 6115.4 876.454 45
4 3 -2 6091.56 969.922 42
4 3 -2 4037.98 891.625 6
4 3 -1 34209.4 2384.49 6
-4 -3 1 37662.3 2306.43 47
-4 -3 1 35663.2 2114.74 49
4 3 -1 36585.4 2389.55 42
4 3 0 119389 5174.1 6
-4 -3 0 122940 4614.3 49
-4 -3 0 127110 4902.88 47
4 3 0 129090 5265.64 42
4 3 1 152775 6029.52 6
-4 -3 -1 148484 5197.64 49
4 3 1 169070 6233.51 42
-4 -3 -1 145962 5283.05 43
-4 -3 -1 147949 5101.24 3
-4 -3 -1 155008 5527.04 47
-4 -3 -2 2982.86 609.977 47
4 3 2 2679.02 677.015 7
4 3 2 2153.59 628.011 48
4 3 2 3056.73 926.488 6
4 3 2 4924.26 1001.28 42
-4 -3 -2 2989.6 487.674 49
4 3 3 154515 5915.46 6
4 3 3 148528 5453.67 48
-4 -3 -3 144827 5070.33 47
4 3 3 139887 4775.18 10
-4 -3 -3 132613 4585.26 49
4 3 3 134632 5469.6 7
4 3 4 16092.8 1618.67 7
4 3 4 16602.1 1227.32 10
-4 -3 -4 18438.6 1331.64 47
4 3 4 15585.2 1593.75 6
4 3 5 33475.1 2521.75 7
-4 -3 -5 33226.6 1887.61 47
4 3 5 34660.5 1993.77 10
-4 -3 -5 36801.7 2384.31 43
4 3 6 96941.5 5038.29 7
4 3 6 95178.1 4131.01 10
-4 -3 -6 106822 4700.32 43
4 3 7 10353.8 1183.03 10
-4 -3 -7 9433.43 1307.88 43
-4 -3 -8 810.891 727.482 43
4 3 8 245.566 361.001 10
4 3 9 214968 7929.39 29
4 3 9 194894 7154.66 17
4 3 9 190674 7519.78 10
-4 -3 -9 180616 7422.88 43
4 3 9 192051 7040.07 13
4 3 9 193105 7090.4 38
4 3 9 180053 6535.07 36
4 3 9 180807 7062.28 25
4 3 9 189622 6830.53 31
4 3 10 6635.61 1054.5 17
4 3 10 6600.36 863.774 26
4 3 10 8086.85 1080.53 25
4 3 10 7456.51 1176.66 10
-4 -3 -10 6345.86 1161.3 45
4 3 10 6397.94 841.406 14
4 3 10 8209.5 1028.06 38
4 3 10 7508.73 1050.06 13
4 3 10 6166.68 890.178 31
4 3 11 733.904 532.571 17
4 3 11 1317.64 398.52 26
4 3 11 1507.85 592.845 25
4 3 11 525.485 387.075 14
4 3 11 139.42 401.024 38
4 3 11 1012.71 465.224 31
4 3 12 39050.7 2085.24 26
4 3 12 38556.4 2052.98 14
4 3 12 41712.6 2127.63 38
4 3 12 42186.9 2264.45 31
4 3 13 11045 952.13 17
4 3 13 8527.42 748.125 26
4 3 13 8415.42 735.446 14
4 3 13 10708 906.046 31
-4 -4 8 2863.12 468.533 28
-4 -4 8 2700.16 424.895 20
-4 -4 8 3080.03 564.582 34
-4 -4 8 2628.31 429.783 18
-4 -4 7 1025.05 475.787 16
-4 -4 7 266.007 314.19 20
-4 -4 7 -188.868 235.172 19
-4 -4 7 85.3247 391.625 34
-4 -4 6 139057 5339.62 16
-4 -4 6 138984 5065.78 20
-4 -4 6 134355 5056.87 19
-4 -4 6 140375 5598.45 34
-4 -4 5 18353.6 1536.61 16
4 4 -5 17741 2007.19 42
-4 -4 5 18891.3 1435.47 20
-4 -4 5 18440.9 1425.36 19
-4 -4 5 19759.2 1679.8 34
-4 -4 5 18312.7 1596.85 11
4 4 -4 16558.6 1831.91 6
-4 -4 4 18089.7 1480.25 16
4 4 -4 18807 1963.99 42
-4 -4 4 19217.4 1483.78 22
-4 -4 4 18327.8 1387.99 20
-4 -4 4 16709.7 1346.45 19
-4 -4 4 19325.9 1615.89 34
-4 -4 4 17221.6 1480.28 11
4 4 -3 94212.6 4790.4 6
-4 -4 3 100345 4703.12 49
4 4 -3 104225 4698.96 48
-4 -4 3 95232.8 4804.6 47
4 4 -3 102864 4984 42
-4 -4 3 97048.6 4100.82 11
4 4 -2 82086.8 4411.07 6
-4 -4 2 93440.3 4259.44 49
4 4 -2 100071 4468.75 48
-4 -4 2 93465 4499.07 47
4 4 -2 94200.4 4610.22 42
-4 -4 2 90116.3 3797.5 5
4 4 -1 69959.8 3874.31 6
-4 -4 1 76518.9 3549.19 49
4 4 -1 82757.3 3911.48 48
4 4 -1 81618.2 4072.7 42
-4 -4 1 75912.4 3794.54 47
-4 -4 1 75693.9 3297.29 3
4 4 0 113949 5314.21 6
-4 -4 0 129284 5147.92 47
4 4 0 133643 5465.05 48
4 4 0 132189 5598.93 42
-4 -4 0 119704 4755.26 49
-4 -4 0 129531 4734.5 3
4 4 1 121469 5368.17 6
-4 -4 -1 127870 4629.81 49
-4 -4 -1 132847 5026.36 47
4 4 1 134764 5639.59 42
-4 -4 -1 125520 4696.27 3
4 4 2 522.496 475.415 7
-4 -4 -2 274.082 261.335 49
4 4 2 1445.51 702.407 48
4 4 2 775.913 699.339 6
-4 -4 -2 402.229 439.481 43
4 4 2 641.081 604.153 42
-4 -4 -2 733.287 502.718 47
4 4 3 120680 5322.94 6
4 4 3 134135 5683.29 48
-4 -4 -3 118585 4769.26 43
4 4 3 117058 5576.52 42
-4 -4 -3 119787 4638.96 47
4 4 3 121516 5261.89 7
4 4 4 430318 14076.4 6
4 4 4 453744 14210.2 48
-4 -4 -4 424859 13077.9 47
-4 -4 -4 427604 13522.7 43
4 4 4 417417 14099.2 7
4 4 5 66694.1 3616.39 6
4 4 5 65048.1 3134.22 10
-4 -4 -5 68579.6 3476.62 43
-4 -4 -5 64029.7 2950.05 47
4 4 5 65196.8 3857.54 7
4 4 6 3288.59 936.061 7
4 4 6 3956.88 741.978 10
-4 -4 -6 3122.27 816.064 43
4 4 7 43580.8 3419.22 7
4 4 7 42716.2 2675.27 10
-4 -4 -7 48799.1 3060.79 43
4 4 8 259.701 755.806 7
4 4 8 73.4816 323.698 10
-4 -4 -8 20.323 535.777 43
4 4 9 7581.53 1044.45 17
4 4 9 9268.73 1171.97 25
4 4 9 8402.6 1245.83 10
-4 -4 -9 7790.64 1252.95 43
4 4 9 7108.1 957.75 38
4 4 9 6532.9 925.187 13
4 4 9 6126.61 848.945 37
4 4 9 6381.61 858.372 36
4 4 9 8197.16 1007.87 31
4 4 10 174005 6488.67 17
4 4 10 163866 6954.3 10
-4 -4 -10 163719 6881.2 45
4 4 10 172319 6218.4 38
4 4 10 169914 6039.98 37
4 4 10 169798 6091.23 36
4 4 10 173913 6538.83 25
4 4 10 162069 6297.92 31
4 4 11 840.832 513.592 17
4 4 11 1093.29 407.92 25
4 4 11 1146.67 435.77 14
4 4 11 1051.9 378.63 26
4 4 11 1051.43 385.518 36
4 4 11 980.479 353.895 31
4 4 12 18855.8 1469.6 17
4 4 12 16280.3 1236.29 26
4 4 12 19405.9 1405.28 25
4 4 12 16487.4 1279.13 14
4 4 12 19160.2 1456.93 31
4 4 13 54862.9 2249.36 17
4 4 13 48063.2 2004.68 14
4 4 13 50274.6 2151.4 31
-4 -5 8 54425.3 2181.22 23
-4 -5 7 1142.31 326.693 28
-4 -5 7 844.742 348.891 16
-4 -5 7 1148.73 395.69 23
-4 -5 7 975.544 342.228 20
-4 -5 7 1620.99 428.695 34
-4 -5 7 1044.57 279.698 18
-4 -5 6 831.86 331.478 28
-4 -5 6 1150.17 424.373 16
-4 -5 6 950.692 364.813 20
-4 -5 6 1100.95 404.899 34
-4 -5 6 663.695 309.441 18
-4 -5 5 85376.6 3620.08 28
-4 -5 5 91467.9 3876.32 16
-4 -5 5 87655 3623.94 20
-4 -5 5 89871.3 3659.5 19
-4 -5 5 86151.2 3874.24 34
-4 -5 4 23701.5 1700.33 16
-4 -5 4 21617.1 1621.03 22
-4 -5 4 22231.8 1554.09 20
-4 -5 4 21789 1552.48 19
-4 -5 4 21392.7 1640.78 34
-4 -5 4 21953.9 1774.51 11
-4 -5 3 1056.25 482.421 11
-4 -5 3 1128.1 409.889 16
4 5 -3 2318.74 969.435 6
4 5 -3 1166.51 566.379 48
-4 -5 3 1213.64 714.519 47
4 5 -3 2223.18 921.792 42
-4 -5 3 1783.27 540.406 22
-4 -5 3 1611.17 449.253 20
-4 -5 3 573.517 343.262 19
-4 -5 3 1130.02 406.524 34
-4 -5 2 140704 5246.93 16
4 5 -2 154957 6459.73 48
-4 -5 2 140786 6277.54 47
4 5 -2 141828 6432.17 42
-4 -5 2 136240 5258.23 22
-4 -5 2 144397 5245.82 20
-4 -5 2 141833 5186.03 19
4 5 -1 32258.8 2517.6 48
4 5 -1 25349.9 2331.02 42
-4 -5 1 27876.9 2246.38 47
-4 -5 1 26619.1 1900.6 3
4 5 0 27526.7 2375.36 6
-4 -5 0 31524.4 2038.98 49
4 5 0 32711.9 2521.7 48
4 5 0 31208.8 2511.45 42
-4 -5 0 30883.8 2241.1 47
-4 -5 0 28923.9 2009.73 3
4 5 1 136140 6073.37 6
4 5 1 130396 6220.29 48
-4 -5 -1 144466 5726.31 47
4 5 1 156014 6523.67 42
-4 -5 -1 142759 5302.55 49
-4 -5 -1 141238 5514.92 3
4 5 2 60155.3 3623.27 42
4 5 2 51459.9 3252.35 6
-4 -5 -2 56041.5 2601.3 49
-4 -5 -2 54222.2 2884.14 3
-4 -5 -2 56294 2946.94 47
4 5 2 54039.4 3308.81 7
4 5 3 2526.94 847.165 7
4 5 3 1264.92 649.749 48
4 5 3 1963.83 729.35 6
-4 -5 -3 2818.76 664.519 47
-4 -5 -3 1472.99 536.857 43
4 5 3 1871.91 811.65 42
4 5 4 62158.6 3552.53 6
4 5 4 67324.9 3992.56 48
-4 -5 -4 56358.4 3090.42 43
-4 -5 -4 61465.5 3001.94 47
4 5 4 64835.7 3846.01 7
4 5 5 187705 7376.02 6
-4 -5 -5 179170 7091.21 43
-4 -5 -5 184336 6624.86 47
4 5 5 188590 8011.39 7
-4 -5 -6 40997.6 2749.57 43
4 5 6 38288.2 2511.32 10
4 5 6 42948.7 3314.04 7
4 5 7 14442.1 2004.38 7
4 5 7 15251.4 1551.06 10
-4 -5 -7 13598.4 1626.81 43
4 5 8 80548.3 5170.33 7
4 5 8 76410.5 3666.94 17
4 5 8 83788.6 4060.42 25
4 5 8 79815 4181.02 10
-4 -5 -8 83206.4 4474.58 43
4 5 8 94144.7 3854.12 37
4 5 8 85262.2 3670.81 36
4 5 9 1045.07 463.333 17
4 5 9 21.9752 862.922 7
4 5 9 160.749 349.238 25
4 5 9 230.703 370.712 10
-4 -5 -9 310.675 624.896 43
4 5 9 151.739 354.754 37
4 5 9 202.046 365.387 36
4 5 9 512.746 407.775 32
4 5 10 1112 615.004 17
4 5 10 398.01 377.617 25
4 5 10 269.138 343.798 37
4 5 10 -119.31 303.284 36
4 5 10 -161.845 423.457 31
4 5 11 136697 5312.95 17
4 5 11 134444 5065.99 37
4 5 11 143697 5197.92 36
4 5 11 144169 5359.34 25
4 5 11 137300 5391.92 31
4 5 12 996.577 407.319 17
4 5 12 940.576 383.202 25
4 5 12 411.884 269.016 14
4 5 12 689.969 332.593 36
4 5 12 373.589 292.518 31
4 5 13 2282.61 500.749 17
4 5 13 2271.8 437.489 14
4 5 13 1997.41 395.685 31
4 5 14 71457.8 2519.01 31
-4 -6 7 61518.5 2372.57 23
-4 -6 6 724.225 286.506 28
-4 -6 6 244.781 244.174 16
-4 -6 6 100.894 256.536 23
-4 -6 6 216.805 224.566 14
-4 -6 6 484.745 257.208 20
-4 -6 6 282.373 229.198 34
-4 -6 5 37246.9 1969.52 28
-4 -6 5 41477.2 2177.17 16
-4 -6 5 40335.6 2040.53 14
-4 -6 5 41033.6 2144.12 23
-4 -6 5 40984 2028.11 20
-4 -6 5 36002.2 1979.2 34
-4 -6 4 79436.2 3372.87 28
-4 -6 4 84967.3 3611.08 16
-4 -6 4 83723.2 3492.53 14
-4 -6 4 80672.8 3525.13 23
-4 -6 4 80173.2 3504.6 22
-4 -6 4 81768.1 3434.69 20
-4 -6 3 1442.95 402.309 28
-4 -6 3 1781.41 570.132 14
-4 -6 3 614.468 360.324 16
-4 -6 3 1078.71 433.154 22
-4 -6 3 2019.14 529.421 20
-4 -6 3 1627.21 520.097 19
-4 -6 2 5727.8 810.7 16
4 6 -2 4740.34 1150.4 48
-4 -6 2 7672.72 1252.82 47
-4 -6 2 4643.76 735.549 14
4 6 -2 7056.15 1358.86 42
-4 -6 2 5752.57 823.151 22
-4 -6 2 6122 814.106 20
-4 -6 2 5313.55 748.845 19
-4 -6 1 92295.8 4480.19 3
-4 -6 1 93260.8 3863.94 16
4 6 -1 106755 5425.93 48
-4 -6 1 102570 4974.15 47
-4 -6 1 92536.1 3876.48 14
4 6 -1 100557 5242.56 42
-4 -6 1 88007.7 3890.71 22
-4 -6 1 96859.7 4003.78 20
-4 -6 1 89810.7 3859.16 19
-4 -6 0 62334.3 2844.76 16
4 6 0 64288.7 4150.42 48
-4 -6 0 63330.5 3658.09 47
4 6 0 64934.3 4040.96 42
-4 -6 0 57306.4 2870.6 22
-4 -6 0 64918 3047.32 20
-4 -6 0 62082.8 2905.84 19
-4 -6 0 64863.3 3504.42 3
4 6 1 36703.7 2883.2 6
-4 -6 -1 35902.8 2561.21 47
4 6 1 39600.9 3096.23 42
-4 -6 -1 37669.4 2549.12 3
4 6 2 113218 5498.03 6
-4 -6 -2 118032 5109.17 47
4 6 2 131068 6103.3 42
-4 -6 -2 108467 4948.39 3
4 6 2 127733 5908.4 7
4 6 3 100873 5006.35 6
4 6 3 95234.3 5437.91 48
-4 -6 -3 99126.2 4470.63 47
4 6 3 92839.6 5161.62 42
-4 -6 -3 97327.6 4515.86 3
4 6 3 102929 5383.43 7
4 6 4 1600.71 713.786 7
4 6 4 1714.85 791.061 48
4 6 4 625.202 496.193 6
-4 -6 -4 354.848 341.446 47
4 6 4 -121.117 621.646 42
-4 -6 -4 754.153 480.875 43
4 6 5 15025.1 2031.49 7
-4 -6 -5 14427.8 1545.4 43
4 6 6 161613 6840.96 48
4 6 6 143701 7101.19 7
4 6 7 20959.5 1875.73 25
-4 -6 -7 21624.6 2099.21 43
-4 -6 -7 19422.5 1516.54 21
4 6 7 23824.8 1698.66 37
4 6 7 23736.2 2034.89 10
4 6 7 22432 1617.29 36
4 6 7 20630.7 2550.7 7
4 6 8 16974.5 1441.6 17
4 6 8 17289 1786.22 10
4 6 8 15582.8 2230.37 7
4 6 8 16015 1573.96 25
-4 -6 -8 17692.8 1916.28 43
4 6 8 19496.6 1593.47 37
4 6 8 16620.3 1412.34 36
4 6 9 177972 8493.79 7
4 6 9 156450 6049.58 17
4 6 9 161630 6335.2 25
4 6 9 160727 6874.06 10
-4 -6 -9 160905 6663.42 45
-4 -6 -9 174714 7222.41 43
4 6 9 186865 6426.12 37
4 6 9 168449 6167.98 36
4 6 9 172537 6223.94 32
4 6 10 3209.9 694.242 17
4 6 10 2766.49 573.485 25
4 6 10 3118.35 665.389 37
4 6 10 3522.81 706.025 36
4 6 10 2547.12 593.174 32
4 6 11 -7.45528 383.003 17
4 6 11 -42.6715 255.098 25
4 6 11 323.103 374.366 37
4 6 11 84.6734 304.497 36
4 6 11 -16.9888 244.383 32
4 6 11 76.5857 343.209 31
4 6 12 78371.8 3197.99 17
4 6 12 78485.1 3175.74 36
4 6 12 76273.2 3329.65 31
4 6 13 627.884 272.972 17
4 6 13 213.66 226.322 14
4 6 13 196.871 190.319 36
4 6 13 236.945 197.292 31
-4 -7 5 -279.482 238.338 28
-4 -7 5 225.741 255.728 16
-4 -7 5 394.967 268.86 23
-4 -7 5 -88.466 223.655 14
-4 -7 4 231.581 288.657 28
-4 -7 4 495.322 317.497 16
-4 -7 4 710.74 413.613 23
-4 -7 4 48.3729 283.623 14
-4 -7 4 209.788 282.387 22
-4 -7 4 115.302 216.104 20
-4 -7 3 155167 5441.33 16
-4 -7 3 148673 5392.21 14
-4 -7 3 150871 5455.58 23
-4 -7 3 156339 5514.73 22
-4 -7 3 143944 5326.17 20
-4 -7 2 5304.72 713.84 16
-4 -7 2 6307.7 838.466 23
-4 -7 2 5758 815.715 14
-4 -7 2 5631.38 794.931 22
-4 -7 2 5534.51 805.468 20
-4 -7 1 15047.4 1273.43 16
-4 -7 1 14853.6 1320.66 14
-4 -7 1 15465.1 1324.03 23
-4 -7 1 14048.1 1278.21 22
-4 -7 1 12653.4 1219.71 20
-4 -7 0 40165.3 2794.97 3
4 7 0 41185.6 3238.57 6
-4 -7 0 40446 2198.04 16
4 7 0 31506.9 3056.69 48
-4 -7 0 39879.8 2275.2 14
4 7 0 44248.8 3356.07 42
-4 -7 0 38201.2 2259.29 22
-4 -7 0 39561 2359.47 20
-4 -7 -1 4691.89 964.623 3
-4 -7 -1 4913.51 989.372 47
4 7 1 6494.16 1385.86 42
-4 -7 -1 5508.73 775.816 22
4 7 1 5235.76 1199.71 6
-4 -7 -1 4728.21 841.015 20
-4 -7 -1 5247.84 834.524 33
4 7 2 26557.6 2469.92 6
4 7 2 20442.5 2472.08 48
4 7 2 25619.8 2580.03 42
-4 -7 -2 24033.8 1703.38 22
-4 -7 -2 24080.9 1690.27 21
-4 -7 -2 23421.1 1800.03 20
-4 -7 -2 22950.3 2047.87 3
-4 -7 -2 27145.4 1869.45 33
4 7 3 68473.8 4106.09 6
4 7 3 71570.5 3719.76 27
4 7 3 73111.2 4807.65 48
4 7 3 60196.2 4179.87 42
-4 -7 -3 68627.8 3135.52 22
-4 -7 -3 65867.4 3184.19 21
-4 -7 -3 57253.6 3154.15 20
-4 -7 -3 67718.8 3757.22 3
-4 -7 -3 74565.1 3851.59 47
-4 -7 -3 79281.1 3449.36 33
4 7 3 66918.5 4526.84 7
4 7 4 64512.4 3597.44 27
4 7 4 75225.1 4770.01 48
-4 -7 -4 75271 3809.2 47
-4 -7 -4 65864.6 3715.25 3
-4 -7 -4 69740.9 3309.71 21
-4 -7 -4 73777.6 3383.08 33
4 7 4 67440.8 4623.57 7
4 7 5 12390.8 1926.93 7
4 7 5 8532.5 1207.8 27
-4 -7 -5 10242.7 1321.21 43
-4 -7 -5 9084.11 1257.55 3
-4 -7 -5 10851 1161.8 21
4 7 5 8817.11 1495.78 48
4 7 5 10404.7 1078.73 37
-4 -7 -5 11212.4 1180.2 33
4 7 6 5520.6 1405.03 7
4 7 6 9031.92 1184.72 27
4 7 6 7851.47 1413.81 48
4 7 6 7637.85 1214.8 25
-4 -7 -6 7781.06 1184.36 43
-4 -7 -6 8987.73 1059.94 21
4 7 6 7551.27 936.73 37
4 7 6 7955.6 908.625 36
-4 -7 -6 8422.47 1042.01 33
4 7 7 75827.3 3558.47 27
4 7 7 71098.4 3731.39 25
-4 -7 -7 75554.9 4098.5 43
-4 -7 -7 73627.1 3403.98 21
4 7 7 75082.2 3450.3 37
4 7 7 67476.5 3230.82 36
-4 -7 -7 74529.5 3440.69 33
4 7 7 66671.9 4814.83 7
4 7 8 23915 1707.51 27
4 7 8 20170.1 1751.51 25
-4 -7 -8 23698.2 2159.6 43
-4 -7 -8 25107.9 1705.35 21
4 7 8 25724.4 1826.97 37
4 7 8 24304.4 1721.45 36
4 7 8 22650 2086.46 10
-4 -7 -8 22621.3 1657.36 33
4 7 8 19459.9 2548.57 7
4 7 9 20873.4 1653.11 25
4 7 9 23933.3 1767.54 37
4 7 9 23564.6 1689.82 36
4 7 9 23393.7 1721.45 32
4 7 10 164609 5775.56 37
4 7 10 158069 5636.24 36
4 7 10 150044 5525.51 32
-4 -7 -11 820.348 346.44 39
4 7 11 709.803 387.951 36
4 7 11 273.913 278.481 32
4 7 11 1013.37 438.257 31
4 7 12 2855.14 510.89 36
-4 -7 -12 1832.96 398.052 35
4 7 12 2463.96 427.577 32
4 7 12 2980.82 520.065 31
4 7 13 50465.4 2041.97 14
4 7 13 51346.9 2036.81 36
4 7 13 49599.9 2092.86 31
4 8 -4 1360.79 397.048 27
-4 -8 4 1243.45 280.639 23
-4 -8 3 2730.05 480.077 16
-4 -8 3 1924.85 424.511 23
-4 -8 3 2327.74 416.223 22
-4 -8 2 142661 4819.11 16
-4 -8 2 140868 4888 23
-4 -8 2 148369 4950.53 22
-4 -8 1 3022.25 541.063 16
-4 -8 1 3627.81 627.964 23
-4 -8 1 2226.7 503.891 22
-4 -8 1 2605.74 536.358 20
-4 -8 0 11029.6 1030.19 16
-4 -8 0 12379.3 1127.72 23
-4 -8 0 11524.1 1112.77 22
-4 -8 0 9860.73 1070.48 20
4 8 1 74396.6 3683.91 27
-4 -8 -1 63682.8 3030.82 22
-4 -8 -1 68230.1 3198.76 33
4 8 2 19189.3 1823.92 27
-4 -8 -2 19205.7 1492.65 22
-4 -8 -2 19919.1 1468.69 21
-4 -8 -2 19058.7 1573.7 33
4 8 3 12345.6 1521.52 27
-4 -8 -3 15319.6 1299.66 22
4 8 3 10956.7 1719.8 42
-4 -8 -3 14695.6 1295.54 21
4 8 3 12968.6 2067.03 48
-4 -8 -3 14059.8 1349.31 33
4 8 4 84453.6 4329.77 27
4 8 4 98487.9 5583.86 48
-4 -8 -4 93874.6 3842.17 22
-4 -8 -4 92995.1 3973.07 21
-4 -8 -4 89341.1 4481.66 3
-4 -8 -4 88721.5 3973.97 33
4 8 4 86625.4 5463.31 7
4 8 5 64399.9 3502.26 27
4 8 5 69263.9 4447.22 48
4 8 5 64546.6 3717.29 25
-4 -8 -5 71049.1 3282.36 21
-4 -8 -5 61500.3 3542.01 3
-4 -8 -5 67199.2 3262.73 33
4 8 5 59312.5 4489.4 7
4 8 6 55052.3 3035.71 27
4 8 6 51468.4 3121.86 25
-4 -8 -6 55554.5 2851.65 21
4 8 6 49825.4 2634.48 37
-4 -8 -6 50468.7 2780.51 33
4 8 7 38347.2 2352.97 27
4 8 7 34190.7 2349.83 25
-4 -8 -7 39969.3 2317.13 21
4 8 7 35310.6 2147.62 37
4 8 7 35649.8 2023.66 36
-4 -8 -7 38459.4 2280.52 33
4 8 8 94609.3 4041.83 27
4 8 8 86062.1 4052.28 25
-4 -8 -8 98230.3 4066.56 21
4 8 8 99125.9 4099.05 37
4 8 8 97515.8 3917.4 36
-4 -8 -8 102002 4093.57 33
4 8 8 96027.9 4113.96 32
4 8 9 16684.7 1293.1 27
4 8 9 16204.1 1308.62 25
-4 -8 -9 15783.8 1256.45 21
4 8 9 17345.4 1334.74 36
4 8 9 18282.9 1437.58 32
4 8 10 475.728 259.547 27
4 8 10 417.621 358.426 36
4 8 10 992.641 452.678 32
-4 -8 -11 56600.4 2454.74 39
4 8 11 59475.4 2586.63 36
-4 -8 -11 59492.6 2603.99 35
4 8 11 60708.4 2582.49 32
-4 -8 -12 9270.67 679.239 39
4 8 12 10139.7 815.433 36
-4 -8 -12 10474.8 778.148 35
4 8 12 10345.8 773.617 32
4 8 12 9768.2 800.163 31
4 8 13 138.242 149.494 14
4 8 13 -20.4215 122.413 36
4 8 13 46.9784 150.338 31
4 9 -2 2998.24 525.449 27
-4 -9 2 4557.07 498.939 23
-4 -9 2 4343.21 477.883 22
4 9 -1 43404.2 2355.28 27
-4 -9 1 50761.8 2145.15 23
-4 -9 1 48516.2 2154.35 22
4 9 0 5329.08 801.652 27
-4 -9 0 6701.76 710.386 23
-4 -9 0 5729.69 687.345 22
4 9 1 1517.28 621.798 27
-4 -9 -1 1622.58 430.664 22
-4 -9 -1 2507.57 535.242 33
4 9 2 84012.9 4097.38 27
-4 -9 -2 94250.2 3756.61 22
-4 -9 -2 93258.4 3850.24 33
4 9 3 19922.3 1756.79 27
-4 -9 -3 20222.7 1462.11 22
-4 -9 -3 20497 1413.74 21
-4 -9 -3 21795.7 1576.3 33
4 9 4 2246.23 727.666 27
-4 -9 -4 2031.36 577.912 15
-4 -9 -4 2363.97 521.084 22
-4 -9 -4 1911.62 509.272 21
-4 -9 -4 2469.82 575.235 33
4 9 5 98897.8 4318.12 27
4 9 5 89843.9 4289.98 25
-4 -9 -5 92813.3 3889.4 21
-4 -9 -5 92227.8 3942.41 33
4 9 6 37990.5 2300.3 27
4 9 6 32498.5 2194.39 25
-4 -9 -6 36356.5 2119.88 21
-4 -9 -6 33485.1 2061.59 33
4 9 7 16240 1365.13 27
4 9 7 15450.7 1359.65 25
-4 -9 -7 18104.2 1403.07 21
-4 -9 -7 17581.1 1418.9 33
4 9 7 17209.8 1359.31 32
4 9 8 26838.5 1676.78 27
-4 -9 -8 27077.4 1694.87 21
-4 -9 -8 26246.4 1666.46 33
4 9 8 26773.2 1697.12 32
4 9 9 50107 2319.42 27
-4 -9 -9 49786.9 2349.52 21
4 9 9 49854.1 2215.87 36
-4 -9 -9 46081.4 2242.79 33
4 9 10 5745.16 601.928 27
-4 -9 -10 5861.74 606.927 21
-4 -9 -10 6272.27 684.88 39
4 9 10 5900.51 630.988 36
-4 -9 -10 6345.08 705.876 35
4 9 10 6584.6 714.9 32
-4 -9 -11 3957.05 471.755 39
4 9 11 3008.22 411.339 36
-4 -9 -11 4723.02 543.828 35
4 9 11 4301.46 519.374 32
4 9 12 26993.2 1177.82 36
-4 -9 -12 26130.5 1196.38 35
4 9 12 28836 1216.52 32
4 10 0 45352.4 1905.01 27
-4 -10 0 38223 1632.61 22
4 10 1 112.504 256.747 27
-4 -10 -1 66.6243 198.463 22
4 10 2 8398.28 891.675 27
-4 -10 -2 8475.89 750.647 22
-4 -10 -2 7852.1 738.669 33
4 10 3 105519 4293.77 25
-4 -10 -3 106816 3894.23 22
-4 -10 -3 110172 4046.05 33
4 10 4 33704.1 1924.33 27
4 10 4 26615.9 1761.79 25
-4 -10 -4 29266.6 1530.28 22
-4 -10 -4 28513.9 1519.86 21
-4 -10 -4 29762 1694.58 33
4 10 5 6211.14 784.204 27
4 10 5 5016.48 680.824 25
-4 -10 -5 4893.56 718.78 15
-4 -10 -5 3998.56 574.985 21
-4 -10 -5 5281.1 709.369 33
4 10 6 69957.1 2902.52 27
4 10 6 55181.7 2620.58 25
-4 -10 -6 56988.4 2753.89 15
-4 -10 -6 66954.2 2723.93 21
-4 -10 -6 63243.1 2760.22 33
4 10 6 62557 2523.86 32
4 10 7 31700.8 1726.32 27
-4 -10 -7 31929.5 1699.93 21
-4 -10 -7 30823.8 1705.19 33
4 10 7 31178.3 1584.28 32
4 10 8 7027.04 692.894 27
-4 -10 -8 5675.39 701.561 15
-4 -10 -8 7803.16 750.364 21
-4 -10 -8 6400.26 591.373 35
-4 -10 -8 5932.5 659.766 33
4 10 8 7438.07 693.469 32
4 10 9 21134.4 1174.46 27
-4 -10 -9 19571.1 1325.71 15
-4 -10 -9 21547.3 1228.28 21
-4 -10 -9 24186.9 1267.18 39
-4 -10 -9 21935.2 1182.39 35
4 10 9 22157.7 1214.24 32
4 10 10 27162.3 1228.49 27
-4 -10 -10 26486 1444.29 15
-4 -10 -10 27289.2 1245.32 21
-4 -10 -10 29991.8 1365.18 39
-4 -10 -10 28986.3 1331.02 35
4 10 10 30639.7 1360.36 32
4 11 4 53538.6 2024 27
4 11 5 8892.05 648.211 27
-4 -11 -5 7761.16 624.98 33
4 11 6 10149.3 685.466 27
-4 -11 -6 8999.06 612.342 21
-4 -11 -6 9306.57 689.29 33
4 11 7 26699.8 1186.29 27
-4 -11 -7 25216.9 1171.57 21
5 -7 -3 109201 3738.14 29
5 -7 -3 102434 3402.15 24
5 -7 -2 7109.49 668.208 29
5 -7 -2 6706.61 545 24
5 -6 -6 1311.28 365.513 29
5 -6 -6 1434.79 285.019 35
-5 6 6 1413.14 285.056 19
5 -6 -5 63971.4 2870.91 29
5 -6 -5 60926.6 2356.9 24
5 -6 -5 64575.2 2513.64 35
-5 6 5 66236.7 2448.86 19
5 -6 -4 1066.96 460.902 29
5 -6 -4 575.223 257.14 24
5 -6 -4 976.207 286.234 35
-5 6 4 841.167 274.35 19
5 -6 -3 -197.233 362.709 29
5 -6 -3 -126.026 234.437 24
5 -6 -3 12.1248 177.412 35
-5 6 3 465.121 224.133 19
5 -6 -2 91222.7 3920.98 29
5 -6 -2 86651.8 3393.69 24
5 -6 -2 82865.7 3152.09 18
5 -6 -1 2085.12 573.711 29
5 -6 -1 2005.54 467.368 24
5 -6 -1 1119.88 309.763 18
5 -6 0 182.58 268.364 30
5 -6 0 398.566 377.869 29
5 -6 0 506.384 245.438 15
5 -6 0 363.781 237.228 24
5 -6 0 88.6819 248.431 18
5 -6 1 79257.1 3364.16 30
5 -6 1 83635.2 3569.52 29
5 -6 1 84651.8 3191.24 15
5 -6 1 77111.2 3044.05 24
5 -6 1 82879.8 3016.98 18
5 -6 2 2044.58 428.686 30
5 -6 2 2767.03 463.602 15
5 -6 2 2765.66 539.006 29
5 -6 2 1684.36 320.234 12
5 -6 2 1792.06 353.217 18
5 -6 3 11700.3 753.798 12
5 -6 3 12765 778.528 18
5 -6 3 11802.9 951.525 30
5 -5 -8 9778.32 657.511 39
5 -5 -8 9776.17 663.897 35
-5 5 8 9071.06 636.909 19
5 -5 -7 62404.5 2446.38 39
5 -5 -7 63073.7 2544.95 35
-5 5 7 65514.7 2505.43 19
5 -5 -6 8354.2 737.605 39
5 -5 -6 8814.29 850.163 35
-5 5 6 8125.32 759.904 19
5 -5 -5 5040.35 612.69 24
5 -5 -5 4717.01 574.174 39
5 -5 -5 5080.34 705.866 35
-5 5 5 5085.73 631.651 19
5 -5 -4 49394.5 2406.94 24
5 -5 -4 50026.6 2471.02 35
-5 5 4 48769 2302.34 19
5 -5 -3 1398.47 422.073 24
5 -5 -3 1852.9 454.892 35
-5 5 3 1570.47 389.856 19
5 -5 -3 1630.03 415.343 18
5 -5 -2 1585.99 830.166 29
5 -5 -2 1398.52 456.624 24
5 -5 -2 2611.21 512.922 35
-5 5 2 1079.45 332.401 19
5 -5 -2 1849.82 458.249 18
5 -5 -1 82733.9 4207.05 29
5 -5 -1 80939.2 3633.51 24
5 -5 -1 85291.6 3423.83 18
5 -5 0 226.982 349.316 30
5 -5 0 287.467 480.216 29
5 -5 0 818.134 414.842 15
5 -5 0 624.062 398.818 24
5 -5 0 -82.8683 348.163 18
5 -5 1 2323.35 642.514 30
5 -5 1 3178.58 831.73 29
5 -5 1 2424.13 558.841 24
5 -5 1 2394.22 550.031 15
5 -5 1 2545.36 535.087 12
5 -5 1 2197.41 575.717 18
5 -5 2 98107.2 4400.93 30
5 -5 2 97505.2 4551.58 29
5 -5 2 99444.1 4112.81 15
5 -5 2 96204.5 3875.2 24
5 -5 2 102965 3897.68 12
5 -5 2 106030 3917.54 18
5 -5 3 6698.4 958.034 30
5 -5 3 5950.96 904.879 29
5 -5 3 8109.47 837.9 12
5 -5 3 7303.09 881.029 15
5 -5 3 8986.04 898.991 18
5 -5 4 1329.25 500.561 30
5 -5 4 866.667 456.708 29
5 -5 4 231.94 293.202 15
5 -5 4 528.285 268.259 12
5 -5 5 35385.6 1917.29 29
5 -5 5 42422.6 1844.33 12
5 -5 5 40829.1 1756.66 18
5 -5 5 40691 2132.43 30
5 -4 -9 62777.5 2214.78 39
-5 4 9 58500.1 2114.61 19
5 -4 -8 3962.91 516.184 39
5 -4 -8 4717.89 529.256 35
-5 4 8 3609.56 479.51 19
-5 4 8 3949.99 494.217 32
5 -4 -7 31325.9 1713.95 39
5 -4 -7 34669.5 1805.36 35
-5 4 7 34286.8 1754.05 19
5 -4 -6 90669.5 3646.61 39
5 -4 -6 93915.5 3784.82 35
-5 4 6 87990.4 3594.63 19
5 -4 -5 10651.5 1030.77 39
5 -4 -5 10604.8 1086.32 35
-5 4 5 11271 1050.8 19
5 -4 -4 19457.5 1548.12 35
5 -4 -4 17919 1430.57 24
5 -4 -4 18053.6 1361.8 39
-5 4 4 17839.1 1369.34 19
5 -4 -3 98461.6 4126.95 24
5 -4 -3 98967.3 4146.85 35
-5 4 3 91319.6 3789.45 19
5 -4 -3 91651.7 3836.13 18
5 -4 -2 11859 1246.66 24
5 -4 -2 10858 1173.83 35
-5 4 2 9504.57 951.476 19
5 -4 -2 10712.8 1074.8 18
5 -4 -1 1341.88 546.462 24
5 -4 -1 1856.5 496.629 35
5 -4 -1 1252.66 514.866 18
5 -4 0 63064 3479.8 30
5 -4 0 65515.8 3880.59 29
5 -4 0 65283.1 3287 24
5 -4 0 71061.8 3146.91 18
5 -4 1 782.948 569.665 30
5 -4 1 940.553 596.789 29
5 -4 1 247.634 376.565 24
5 -4 1 902.49 406.589 15
5 -4 1 815.321 422.999 12
5 -4 1 1630.65 545.241 18
5 -4 2 6277.36 1012.11 30
5 -4 2 6260.88 1122.26 29
5 -4 2 5716.67 858.197 24
5 -4 2 5179.45 875.919 15
5 -4 2 5929.56 852.308 12
5 -4 2 6550.94 914.354 18
5 -4 3 82706.3 4237.48 30
5 -4 3 88841 4485.62 29
5 -4 3 89067 3993.08 15
5 -4 3 78996 3564.55 24
5 -4 3 87772.8 3767.55 12
5 -4 3 90438.1 3728.49 18
5 -4 4 7746.97 1121.58 30
5 -4 4 9352.26 1256.25 29
5 -4 4 8602.79 975.259 18
5 -4 4 8946.75 1133.06 15
5 -4 4 8027.19 979.751 12
5 -4 5 6159.81 1008.49 30
5 -4 5 4914.06 937.825 29
5 -4 5 6221.36 913.446 15
5 -4 5 5090.47 764.015 12
5 -4 5 5673.75 801.989 18
5 -4 6 71671.8 3389.03 29
5 -4 6 73564.9 3005.18 12
5 -4 6 76274.1 2953.06 18
5 -4 6 69379.5 3374.98 30
5 -4 7 21159.1 1053.04 12
5 -4 7 20730.8 982.791 18
5 -4 7 21647 1344.88 30
5 -3 -9 60288.4 2248.66 39
-5 3 9 53108.5 1989.67 20
-5 3 9 58082.1 2137.94 19
5 -3 -8 22328.4 1389.47 39
-5 3 8 21233.3 1185.85 20
5 -3 -8 21394.9 1289.86 35
-5 3 8 22744.7 1349.67 19
-5 3 8 21708.7 1400.51 32
5 -3 -7 1172.43 452.579 39
5 -3 -7 1454.63 450.018 35
-5 3 7 786.583 400.859 19
-5 3 7 1452.11 424.616 32
-5 3 6 59407.9 2724.8 16
5 -3 -6 64850.2 2983.83 39
5 -3 -6 62417.1 2991.3 35
-5 3 6 60875.1 2846.52 19
-5 3 6 53611.7 2749.11 32
5 -3 -5 64483.4 3104.84 39
5 -3 -5 63430.1 3167.16 35
-5 3 5 63110.9 2990.79 19
5 -3 -4 27400.3 1847.79 24
5 -3 -4 25597.8 1759.63 39
5 -3 -4 20897.5 1710.98 35
-5 3 4 23058.8 1632.91 19
-5 3 3 31534.2 2367.03 49
5 -3 -3 30278.6 2055.03 24
5 -3 -3 31739.4 2218.72 9
5 -3 -3 31228.6 1953.25 39
5 -3 -3 34951 2376.69 8
5 -3 -3 34746 2200.84 35
-5 3 3 30732 1904.28 19
5 -3 -3 31026 1987.08 18
-5 3 2 91815.3 4601.33 49
5 -3 -2 90304.8 4094.13 24
5 -3 -2 99907 4487.4 8
5 -3 -2 88044.1 4023.94 35
-5 3 2 85797.6 3664.68 19
5 -3 -2 96136.6 3964.15 18
-5 3 1 4966.48 1052.81 49
-5 3 1 4527 906.106 47
5 -3 -1 4327.11 789.326 24
5 -3 -1 4317.13 732.447 35
5 -3 -1 5275.06 925.624 8
5 -3 -1 6335.58 857.74 18
5 -3 0 35185.3 2678.12 29
-5 3 0 33750.5 2738.87 49
5 -3 0 33193.4 2219.8 24
5 -3 0 35817.7 2468.06 8
5 -3 0 32383.2 2100.96 35
5 -3 0 37900.3 2171.17 12
5 -3 0 36648.2 2174.03 18
5 -3 1 174704 7064.78 30
5 -3 1 182104 7497.21 29
5 -3 1 172062 6633.83 15
-5 3 -1 199585 8004.47 49
5 -3 1 169568 6609.55 24
5 -3 1 196079 7202.32 8
5 -3 1 180736 6549.06 12
5 -3 1 185090 6531.29 18
5 -3 2 8878.48 1275.92 30
5 -3 2 10967.8 1510.43 29
5 -3 2 11399.6 1297.09 15
-5 3 -2 13590.4 1842.84 49
5 -3 2 8787.78 1058.22 24
5 -3 2 11393.2 1369.23 8
5 -3 2 11335.9 1219.45 12
5 -3 2 11083.4 1196.97 18
5 -3 3 887.768 591.162 30
5 -3 3 1705.54 717.583 29
-5 3 -3 1093.88 574.657 49
5 -3 3 1273.43 542.73 15
5 -3 3 1477.68 525.187 24
5 -3 3 1502.26 598.124 8
5 -3 3 1684.75 648.857 12
5 -3 3 1493.39 597.279 18
5 -3 4 106582 5142.17 30
5 -3 4 108117 5257.11 29
5 -3 4 113161 4873.24 15
5 -3 4 109828 4604.89 12
5 -3 4 107862 4452.19 18
5 -3 5 6244.63 1090.89 30
5 -3 5 6401.12 1106 29
5 -3 5 6843.07 1051.91 15
5 -3 5 6756.59 940.335 12
5 -3 5 6154.5 855.839 18
5 -3 6 24889.4 2034.71 29
5 -3 6 23016.1 1651.25 12
5 -3 6 21932.9 1551.87 18
5 -3 6 24546 2021.3 30
5 -3 7 70718.2 3470.18 29
5 -3 7 66298.3 2920.55 12
5 -3 7 68135.6 2875.77 18
5 -3 7 68017.3 3449.66 30
5 -3 8 12125.2 1081.39 29
5 -3 8 10009.2 753.041 12
5 -3 8 12549 1132.18 30
5 -2 -9 8804.41 754.617 39
-5 2 9 7573.38 649.048 20
-5 2 9 7555.59 656.194 19
-5 2 9 6374.61 698.771 32
5 -2 -8 62403.1 2753.36 39
-5 2 8 60049 2511.5 20
-5 2 8 61146.2 2642.02 19
-5 2 7 26319.3 1602.2 16
5 -2 -7 31834.4 1953.11 39
-5 2 7 27755.4 1627 20
5 -2 -7 28903.4 1796.74 35
-5 2 7 27640.3 1749.02 19
-5 2 7 27528.3 1696.36 34
-5 2 7 25778.8 1787.48 32
-5 2 6 12031.2 1127.28 16
5 -2 -6 11774.1 1204.07 39
5 -2 -6 10789.3 1131.12 35
-5 2 6 10410.4 1101.75 19
-5 2 6 8407.43 1038.43 32
5 -2 -5 73982.7 4221.92 45
5 -2 -5 68947.9 3341.48 39
5 -2 -5 68486.1 3358.45 35
-5 2 5 72940.3 3286.63 19
-5 2 5 63855.9 3176.54 32
-5 2 4 58754.8 3332.59 49
5 -2 -4 59865.1 3720.45 45
5 -2 -4 60291.1 3302.08 9
5 -2 -4 59955.6 3002.49 39
5 -2 -4 62249.7 3345.53 8
5 -2 -4 57022.7 3012.1 35
-5 2 4 59400.6 2877.06 19
-5 2 4 48160.7 2655.97 32
5 -2 -3 8965.05 1098.18 24
5 -2 -3 10011.6 1409.84 45
5 -2 -3 11968.6 1328.66 9
5 -2 -3 9428.69 1056.85 39
5 -2 -3 11416.2 1361.85 8
-5 2 3 11009.7 1360.6 49
5 -2 -3 11343.2 1214.36 35
-5 2 3 10272 1031.37 19
5 -2 -3 11767.1 1211.23 18
-5 2 2 33450.7 2537.31 49
-5 2 2 32495.7 2430.48 47
5 -2 -2 30193.1 2090.41 24
5 -2 -2 30633.4 2200.37 9
5 -2 -2 31564.7 1975.95 39
5 -2 -2 31838.6 2329.22 8
5 -2 -2 34099.3 2160.33 35
-5 2 2 32760.1 1891.15 19
5 -2 -2 37564.2 2223.66 18
-5 2 1 129975 5757.46 49
-5 2 1 125535 5712.22 47
5 -2 -1 112068 4923.02 24
5 -2 -1 121272 5172.58 9
5 -2 -1 115558 5264.74 8
5 -2 -1 124320 4993.26 35
-5 2 0 5435.4 1060.99 49
5 -2 0 4611.99 788.089 24
5 -2 0 4157.86 818.836 8
-5 2 0 3738.82 879.984 47
5 -2 0 5742.34 901.529 18
5 -2 1 19955.2 1923.48 29
-5 2 -1 21625.9 2108.58 49
5 -2 1 20150.6 1625.99 24
5 -2 1 21802.6 1859.22 8
5 -2 1 25455.2 1746.5 18
5 -2 2 165590 6764.95 30
5 -2 2 175884 7101.23 29
5 -2 2 172843 6477.22 15
-5 2 -2 173712 7435.4 49
5 -2 2 163566 6283.13 24
5 -2 2 178376 6878.25 8
5 -2 2 165274 6298.61 12
5 -2 2 180280 6310.16 18
5 -2 3 1440.64 646.921 30
5 -2 3 1191.71 535.773 29
-5 2 -3 1923.73 917.16 49
5 -2 3 1436.24 600.687 15
5 -2 3 1688.6 477.713 24
5 -2 3 1425.42 593.573 8
5 -2 3 1654.79 543.038 12
5 -2 3 2338.82 661.826 18
5 -2 4 -174.67 500.101 30
5 -2 4 505.115 550.853 29
-5 2 -4 -74.9176 687.966 49
5 -2 4 326.227 436.346 15
5 -2 4 176.041 409.203 12
5 -2 4 69.1631 385.447 18
5 -2 5 170219 7273.08 30
5 -2 5 183900 7435.17 29
5 -2 5 197651 6567.94 26
5 -2 5 187272 7032.18 15
-5 2 -5 165044 7348.83 49
5 -2 5 179682 6679.13 12
5 -2 5 172326 6454.15 18
5 -2 6 -29.1931 580.414 30
5 -2 6 343.376 592.044 29
5 -2 6 829.02 473.829 26
5 -2 6 1014.9 633.119 12
5 -2 6 -479.072 420.617 18
5 -2 7 15615.7 1714.74 29
5 -2 7 17091.2 1357.73 26
5 -2 7 15751.9 1250.02 38
5 -2 7 13894.5 1275.12 12
5 -2 7 13407.9 1192.44 18
5 -2 7 16861 1212.61 31
5 -2 7 14416.4 1629.77 30
5 -2 8 132060 5490.22 29
5 -2 8 146463 4945.25 26
5 -2 8 129494 4772.02 38
5 -2 8 120671 4699.32 12
5 -2 8 137370 4682.75 31
5 -2 8 134302 5516.9 30
5 -2 9 9284.68 1092.39 29
5 -2 9 8693.19 1024.54 30
5 -1 -9 4873.71 548.531 39
-5 1 9 4387.08 527.268 20
-5 1 9 3848.62 482.106 19
5 -1 -8 15079 1238.23 39
-5 1 8 15980.7 1162.02 20
-5 1 8 17020.8 1246.55 19
-5 1 8 16219 1211.37 34
-5 1 8 13091.2 1197.83 32
-5 1 7 56671 2700.8 16
5 -1 -7 57597.4 2927.24 39
-5 1 7 57796.4 2683.08 20
-5 1 7 62057.6 2893.55 19
-5 1 7 61073.9 2921.98 34
-5 1 7 52420.3 2856.17 32
-5 1 6 8989.57 1020.71 16
5 -1 -6 6617.77 960.431 39
-5 1 6 6585.39 813.569 20
-5 1 6 8397.53 980.166 19
-5 1 6 7232.55 969.679 32
-5 1 5 16121.7 1408.05 16
-5 1 5 13675 1497.73 49
5 -1 -5 17964.7 1963.43 45
5 -1 -5 18308.4 1741.19 9
5 -1 -5 14765.5 1404.36 39
-5 1 5 14976.3 1192.77 20
5 -1 -5 13409.6 1310.11 35
-5 1 5 15627 1339.39 19
-5 1 5 13979.6 1339.59 32
-5 1 4 39296.2 2659.75 49
5 -1 -4 36366 2509.68 9
5 -1 -4 31421.4 2126.6 39
5 -1 -4 36845.1 2837.19 45
5 -1 -4 36369 2492.15 8
5 -1 -4 34050.2 2185.06 35
-5 1 4 34039.5 2052.2 19
-5 1 4 33494.1 2113.87 32
-5 1 3 63590.7 3524.05 49
5 -1 -3 60477.4 3711.46 45
5 -1 -3 64059.3 3388.78 9
5 -1 -3 54920.9 2881.48 39
5 -1 -3 60070.9 3341.63 8
5 -1 -3 53743.1 2913.84 35
-5 1 3 59532.5 2792.86 19
-5 1 2 3838.17 913.584 49
-5 1 2 3916.63 836.69 47
5 -1 -2 4091.4 934.783 45
5 -1 -2 3931.32 788.998 9
5 -1 -2 4446.04 822.519 8
-5 1 1 31721.6 2374.59 49
5 -1 -1 28465.7 2035.24 9
5 -1 -1 27766.7 2105.41 8
-5 1 1 29554.4 2294.45 47
-5 1 0 115812 5164.76 49
-5 1 0 113984 5202.43 47
5 -1 0 105534 4557.96 9
5 -1 0 107353 4801.87 8
-5 1 -1 10501.5 1410.74 49
-5 1 -1 8904.24 1277.22 47
5 -1 1 7845.97 1128.52 8
-5 1 -2 32404.2 2509.56 49
5 -1 2 33838.4 2345.46 8
-5 1 -3 214995 8327.71 49
5 -1 3 207808 7845.72 8
5 -1 4 3307.8 844.554 30
5 -1 4 3172.97 776.646 29
5 -1 4 2748.55 754.333 15
-5 1 -4 3523.88 847.188 49
5 -1 4 2563.65 676.27 8
5 -1 4 2486.76 620.771 12
5 -1 5 127.258 571.452 30
5 -1 5 711.202 609.058 29
-5 1 -5 1245.24 666.786 49
5 -1 5 1308.02 645.949 15
5 -1 5 489.76 362.841 10
5 -1 5 1143.79 580.764 13
5 -1 5 1121.64 600.399 12
5 -1 6 124205 5753.98 29
5 -1 6 133630 5341.85 10
5 -1 6 138428 4957.47 26
-5 1 -6 111883 5402.83 47
5 -1 6 128609 5207.24 13
5 -1 6 129196 5136.15 38
5 -1 6 121989 5065.16 12
5 -1 6 123213 5721.41 30
5 -1 7 2531.54 798.236 30
5 -1 7 2256.62 774.375 29
5 -1 7 1657.88 481.11 26
5 -1 7 1442.01 520.627 12
5 -1 7 1448.43 355.843 31
5 -1 8 406.423 515.302 30
5 -1 8 1467.56 743.791 29
5 -1 8 1619.97 479.13 38
5 -1 8 1340.45 445.173 26
5 -1 8 1189.61 375.652 12
5 -1 8 834.806 277.964 31
5 -1 9 106017 4717.53 29
5 -1 9 103795 4037.5 26
5 -1 9 108651 4323.97 38
5 -1 9 107500 3963.6 31
5 -1 9 105636 4695.93 30
5 -1 10 5773.54 869.804 30
5 -1 10 5164.8 899.466 29
5 -1 10 5053 603.438 26
5 -1 10 5212.39 726.637 38
5 -1 10 4393.95 555.287 31
-5 0 9 101826 3523.54 20
-5 0 9 94285.8 3363.7 19
-5 0 9 92587.4 3498.88 34
5 0 -8 1127.36 374.222 39
-5 0 8 2009.5 463.606 20
-5 0 8 2221.5 535.463 34
-5 0 8 1430.04 440.014 19
-5 0 8 1919.3 518.885 32
-5 0 7 5229.84 764.655 16
5 0 -7 4084.91 725.394 39
-5 0 7 3677.07 638.962 20
-5 0 7 5164.52 837.37 34
-5 0 7 4702.7 740.005 19
-5 0 7 4126.54 737.637 32
-5 0 6 145528 5647.14 16
5 0 -6 138257 5691.76 39
-5 0 6 157564 5508.93 20
-5 0 6 161856 5734.29 19
-5 0 6 142368 5729.22 32
-5 0 5 46765.8 2645.13 16
-5 0 5 52490.9 3202.63 49
5 0 -5 48019.7 3417.85 45
5 0 -5 46512 3038.18 9
5 0 -5 47871.1 2718.44 39
-5 0 5 50254.9 2476.3 20
-5 0 5 50548.7 2634.09 19
-5 0 5 47275.3 2692 32
-5 0 4 5893.42 848.067 16
5 0 -4 6386.73 1194.71 45
5 0 -4 6859.37 1066.6 9
5 0 -4 5353.2 849.936 39
-5 0 4 7830.48 1198.08 49
-5 0 4 6275.9 750.148 20
5 0 -4 4641.93 756.645 35
5 0 -4 5947.81 1001.23 8
-5 0 4 6368.6 855.706 19
-5 0 4 5679.47 844.923 32
-5 0 3 65478.9 3632.46 49
5 0 -3 62921.5 3814.07 45
5 0 -3 64175.9 3493.48 9
5 0 -3 66160.4 3519.48 8
-5 0 2 78865.6 3941.05 49
5 0 -2 67613.5 3963.51 45
5 0 -2 73826.9 3678.8 9
5 0 -2 75024.9 3763.42 8
-5 0 2 75279.2 3807.87 47
-5 0 1 126313 5395.82 49
-5 0 1 127792 5413.76 47
5 0 -1 121357 5025.38 9
5 0 -1 124039 5234.97 8
-5 0 0 29501.4 2188.72 49
-5 0 0 33099.6 2329.66 47
5 0 0 29784 1951.96 9
5 0 0 29559.9 2123.85 8
-5 0 -1 148819 5985.27 49
-5 0 -1 149788 6114.44 47
5 0 1 143183 5796.45 8
-5 0 -2 40436.7 2580.29 49
-5 0 -2 36212.3 2548.57 47
5 0 2 38009.2 2454.01 8
-5 0 -3 1471.86 594.228 49
-5 0 -3 1106.54 630.451 47
5 0 3 1094.18 496.442 8
-5 0 -4 267037 9416.44 49
-5 0 -4 283158 9673.98 47
5 0 4 251191 9210.23 8
5 0 5 28300.5 1874.41 10
-5 0 -5 23098.2 2009.06 47
5 0 6 21.2402 517.181 30
5 0 6 254.228 604.576 29
5 0 6 223.083 290.088 25
-5 0 -6 594.577 485.517 47
5 0 6 9.19751 289.205 10
5 0 6 -146.214 399.626 38
5 0 6 501.51 542.517 13
5 0 6 377.201 517.741 12
5 0 7 82600 4312.4 29
5 0 7 78694.6 3888.94 10
5 0 7 89230.7 3709.88 25
5 0 7 80247.8 4029.17 13
5 0 7 81697.9 3987.33 38
5 0 7 77944.8 3612.04 12
5 0 7 76816.3 3354.37 31
5 0 7 85233 4380.71 30
5 0 8 20237.1 1921.66 29
5 0 8 19157.4 1435.17 26
5 0 8 23868.3 1695.7 25
5 0 8 19551.4 1821.54 13
5 0 8 20047.9 1740.05 38
5 0 8 18653.8 1389.93 31
5 0 8 18262.1 1888.6 30
5 0 9 910.297 688.315 30
5 0 9 836.503 550.904 29
5 0 9 744.041 327.619 26
5 0 9 1446.44 594.215 38
5 0 9 811.029 248.106 31
5 0 10 141885 5608.89 29
5 0 10 124536 4659.9 26
5 0 10 129836 5106.95 38
5 0 10 128879 4660.71 31
5 0 10 139009 5461.44 30
5 0 11 2914.73 440.259 26
5 0 11 3628.72 509.403 31
-5 -1 9 113.956 196.475 20
-5 -1 9 341.619 230.863 34
-5 -1 8 68674.1 2898.44 16
-5 -1 8 75134.9 3060.26 20
-5 -1 8 70831.4 3001.59 19
-5 -1 8 76165.9 3329.3 34
-5 -1 7 12326.4 1193.1 16
5 1 -7 13646.6 1259.84 39
-5 -1 7 14230.7 1203.31 20
-5 -1 7 12861.8 1185.86 19
-5 -1 7 14471.9 1411.54 34
-5 -1 6 398.364 421.946 16
5 1 -6 594.893 421.094 39
-5 -1 6 335.153 338.948 20
-5 -1 6 247.835 502.911 34
-5 -1 6 716.581 516.235 19
-5 -1 6 -202.101 345.325 32
-5 -1 5 168464 6258.93 16
-5 -1 5 166258 6992.18 49
5 1 -5 166445 7247.57 45
5 1 -5 154907 6715.12 9
5 1 -5 165741 6210.76 39
-5 -1 5 171913 5945.78 20
-5 -1 5 178289 6155.99 19
-5 -1 5 148865 6082.42 32
-5 -1 4 16631.3 1423.72 16
-5 -1 4 16793.8 1733.74 49
5 1 -4 15917.5 1822.96 45
5 1 -4 16885.5 1696.08 9
5 1 -4 15721.9 1393.06 39
5 1 -4 15823.8 1608.67 8
-5 -1 4 16326.7 1256.83 20
-5 -1 4 15325.3 1320.68 19
-5 -1 4 14305.8 1334.82 32
-5 -1 3 3402.53 820.433 49
5 1 -3 3595.41 850.415 45
5 1 -3 1981.37 571.089 9
5 1 -3 2301.05 671.02 8
-5 -1 2 110845 4918.31 49
5 1 -2 106530 4751.48 6
-5 -1 2 111145 4895.55 47
5 1 -2 105035 5114.97 45
5 1 -2 110889 4747.98 9
5 1 -2 109417 4803.87 8
-5 -1 1 105309 4618.85 49
5 1 -1 101161 4603.63 6
-5 -1 1 107174 4706.37 47
5 1 -1 100407 4852.33 45
5 1 -1 104314 4394.08 9
5 1 -1 100558 4514.67 8
-5 -1 0 98281.3 4290.64 49
5 1 0 90935.8 4311.62 6
5 1 0 90180.2 3876.04 9
5 1 0 93938.6 4228.75 8
-5 -1 0 101044 4432.86 47
-5 -1 -1 105618 4466.02 49
-5 -1 -1 113075 4736.61 47
5 1 1 98213.3 3981.89 9
5 1 1 107074 4514.27 8
-5 -1 -2 174686 6608.88 49
-5 -1 -2 192659 7001.56 47
5 1 2 184250 6801.13 8
-5 -1 -3 21534.3 1674.65 49
-5 -1 -3 19162.5 1696.7 47
5 1 3 21524.5 1737.91 8
-5 -1 -4 13770.2 1299.85 49
5 1 4 14628.2 1427.61 8
-5 -1 -4 11553.2 1316.56 47
5 1 5 174215 6204.22 10
-5 -1 -5 171716 6647.04 47
-5 -1 -6 7643.02 1073.97 47
5 1 6 7320.37 927.954 10
5 1 7 -232.409 577.217 30
5 1 7 1972.94 860.031 29
5 1 7 602.86 499.278 17
5 1 7 257.236 324.506 25
5 1 7 210.595 315.405 10
5 1 7 482.689 391.03 38
5 1 7 214.4 518.109 13
5 1 7 490.263 437.183 12
5 1 8 54013.3 3322.63 29
5 1 8 44843.8 2750.13 17
5 1 8 53126.6 3060.74 10
-5 -1 -8 49095.5 3173.98 43
5 1 8 47177.6 3010.89 13
5 1 8 49664.4 3061.21 38
5 1 8 55333.2 2868.31 25
5 1 8 51804.1 2558.12 31
5 1 8 53162.6 3347.87 30
5 1 9 1554.46 836.627 30
5 1 9 200.197 678.193 29
5 1 9 -198.791 451.889 17
5 1 9 1118.4 529.626 26
5 1 9 1067.25 540.969 25
5 1 9 62.0318 526.2 38
5 1 9 518.327 580.482 13
5 1 9 585.963 370.358 31
5 1 10 12913.2 1223.98 17
5 1 10 15425.9 1694.56 29
5 1 10 12901.3 1096.89 26
5 1 10 14234.5 1434.51 38
5 1 10 13901.5 1165.11 31
5 1 10 15990.4 1695.3 30
5 1 11 78993.2 3336.85 17
5 1 11 84600.4 3294.68 26
5 1 11 88455.7 3721.3 38
5 1 11 91705.8 3425.83 31
5 1 12 2156.32 472.986 38
5 1 12 1503.21 319.504 31
-5 -2 9 1041.81 279.755 20
-5 -2 9 873.135 274.281 34
-5 -2 8 225.151 214.544 16
-5 -2 8 253.195 280.344 20
-5 -2 8 333.66 328.416 34
-5 -2 8 822.693 290.006 19
-5 -2 7 52659.9 2733.82 16
-5 -2 7 63569 2827.14 20
-5 -2 7 61202.6 2806.79 19
-5 -2 7 61188.9 3173.97 34
-5 -2 6 5217.87 787.687 16
-5 -2 6 5108.8 748.494 20
-5 -2 6 6377.53 984.907 34
-5 -2 6 5933.01 823.778 19
-5 -2 5 11633.2 1255.37 16
-5 -2 5 13021.6 1601.09 49
5 2 -5 12619.6 1516.88 9
5 2 -5 12855.6 1244.41 39
-5 -2 5 12461.6 1145.22 20
-5 -2 5 12717 1207.33 19
-5 -2 5 12834.7 1478.25 34
-5 -2 4 185516 6686.97 16
-5 -2 4 192077 7584.71 49
5 2 -4 176517 7483.93 45
5 2 -4 179083 7169.75 9
-5 -2 4 186635 6568.23 22
5 2 -4 186739 6584.17 39
5 2 -4 187595 7054.3 8
-5 -2 4 189335 6370.87 20
-5 -2 4 184142 6452.85 19
-5 -2 4 158853 6443.27 32
5 2 -3 9675.63 1369.26 45
5 2 -3 8045.49 1157.28 9
5 2 -3 9996.18 1251.22 8
-5 -2 3 9540.4 1287.26 49
5 2 -2 10992.1 1389.02 6
-5 -2 2 9768.65 1247.67 47
5 2 -2 9589.18 1311.21 45
5 2 -2 8516.72 1100.37 9
-5 -2 2 8312.63 1138.66 49
5 2 -1 127354 5598.97 6
-5 -2 1 131845 5365.35 49
-5 -2 1 132594 5503.03 47
5 2 -1 132044 5642.93 42
5 2 0 151753 6311.59 6
-5 -2 0 147113 5830.71 49
5 2 0 161402 6453.14 42
-5 -2 0 166022 6201.69 47
-5 -2 -1 87629.7 3804.84 49
5 2 1 91371.9 4404.13 6
-5 -2 -1 90376 4063.76 47
5 2 1 85217.5 4366.49 42
5 2 1 86445.2 3921.38 8
-5 -2 -2 170610 6040.32 49
5 2 2 176274 6896.73 6
-5 -2 -2 174455 6409.68 47
5 2 2 177144 6349.04 8
-5 -2 -3 166395 6006.95 49
-5 -2 -3 174766 6435.32 47
5 2 3 176070 6434.81 8
-5 -2 -4 2152.6 629.014 47
5 2 4 1894.7 564.501 8
5 2 5 38968.8 2182.52 10
-5 -2 -5 41120.2 2449.61 47
5 2 6 130412 5137.87 10
5 2 7 34400.2 2460.41 29
5 2 7 31379.3 2252.62 17
5 2 7 30709.5 2155.67 10
5 2 7 35894.4 2204.97 25
-5 -2 -7 33302.3 2546.18 43
5 2 7 32186.2 2367.53 13
5 2 7 30687.4 2375.68 38
5 2 7 30715.6 1931.36 37
5 2 7 33157 2492.72 30
5 2 8 3695.77 931.144 30
5 2 8 1442.04 569.109 29
5 2 8 1908.11 730.998 17
5 2 8 2392.41 571.957 25
5 2 8 2595.43 671.214 10
-5 -2 -8 2393.19 784.089 43
5 2 8 3213.97 820.826 38
5 2 8 2665 814.163 13
5 2 8 1818.72 477.427 31
5 2 9 105374 5069.95 29
5 2 9 94455.4 4458.9 17
5 2 9 104301 4525.37 25
5 2 9 101236 4690.14 13
5 2 9 96997.6 4653.84 38
5 2 9 96359.8 4057.7 31
5 2 9 107615 5164.32 30
5 2 10 1518.13 693.155 29
5 2 10 1642.22 628.941 17
5 2 10 1095.39 495.136 25
5 2 10 1705.07 617.264 38
5 2 10 1732.06 700.637 13
5 2 10 1271.09 432.238 31
5 2 11 5934.37 871.976 17
5 2 11 6005.1 682.075 26
5 2 11 7617.54 953.05 38
5 2 11 4869.4 670.759 31
5 2 12 123667 2966.41 17
5 2 12 123912 2779.84 31
-5 -3 8 -42.4219 97.7246 16
-5 -3 8 4599.46 535.637 20
-5 -3 8 4184.4 598.708 34
-5 -3 8 164.892 129.301 19
-5 -3 7 629.164 365.424 16
-5 -3 7 688.05 358.644 20
-5 -3 7 26.8532 384.688 34
-5 -3 7 439.071 253.962 19
-5 -3 6 52463.3 2769.48 16
-5 -3 6 55026.7 2628.14 20
-5 -3 6 54448.3 2659.21 19
-5 -3 6 49234.9 2915.49 34
-5 -3 5 7571.85 990.018 16
-5 -3 5 9291.77 1038.83 20
-5 -3 5 9618.55 1030.61 19
-5 -3 5 9626.1 1217.31 34
-5 -3 4 28172.8 1953.21 16
-5 -3 4 32345.4 2564.07 49
5 3 -4 33072.9 2669.03 42
-5 -3 4 27415.9 1899.59 22
5 3 -4 30028.6 1897.29 39
-5 -3 4 27460.5 1780.44 20
-5 -3 4 28759 1849.23 19
-5 -3 4 30545 2208.55 34
-5 -3 3 169591 6190.27 16
5 3 -3 161266 6927.38 6
-5 -3 3 179846 7108.03 49
5 3 -3 175138 7253.99 42
-5 -3 3 173526 6186.67 22
5 3 -3 164939 6028.75 39
-5 -3 3 172242 5964.54 20
-5 -3 3 169439 6017.18 19
5 3 -2 21111.1 2028.97 6
-5 -3 2 20526.1 1828.1 49
-5 -3 2 18380.9 1803.5 47
5 3 -2 19932.4 1939.29 42
5 3 -1 32875.8 2550.8 6
-5 -3 1 34238 2259.53 49
5 3 -1 33291.9 2557.87 42
-5 -3 1 31775.1 2337.85 47
5 3 0 54375.6 3403.22 6
-5 -3 0 57445.2 2965.07 49
-5 -3 0 59383.9 3220.63 47
5 3 0 61896.4 3610.11 42
5 3 1 66980.1 3821.63 6
-5 -3 -1 67072.5 3147.16 49
-5 -3 -1 68066.5 3427.05 47
5 3 1 78084.2 4155.59 42
5 3 2 1261.99 712.432 6
-5 -3 -2 675.245 470.774 47
5 3 2 801.764 553.632 42
-5 -3 -2 929.9 397.358 49
-5 -3 -3 72977.2 3094.28 49
5 3 3 73210.6 4054.8 6
-5 -3 -3 73694.7 3489.31 47
5 3 4 121706 5581.75 6
5 3 4 110914 4726.85 8
-5 -3 -4 119328 4787.9 47
-5 -3 -5 1783.86 530.543 47
5 3 5 1871.82 464.916 10
5 3 6 38488.9 2318.56 10
-5 -3 -6 42166.8 2866.07 43
5 3 7 81257.7 3913.42 10
5 3 7 86078.5 3944.11 25
-5 -3 -7 88511.8 4565.07 43
5 3 7 79275.9 4033.09 13
5 3 7 77361.4 4084.08 38
5 3 7 91810.4 4415.45 30
5 3 8 5926.3 1131.25 29
5 3 8 5300.5 979.015 17
5 3 8 5587.63 930.349 25
5 3 8 4613.4 873.453 10
-5 -3 -8 3998.49 893.159 43
5 3 8 4644.05 926.477 38
5 3 8 3367.85 785.997 13
5 3 8 4875.36 782.838 37
5 3 8 3905.5 656.368 36
5 3 8 4131.13 647.281 31
5 3 9 6937.38 1244.36 29
5 3 9 6348.17 1082.81 17
5 3 9 6400.67 1010.06 25
5 3 9 5386.81 954.79 10
-5 -3 -9 6402.46 1138.21 43
5 3 9 5979 960.881 38
5 3 9 5753.86 1027.84 13
5 3 9 5893.15 816.433 37
5 3 9 6733.29 852.165 31
5 3 10 157810 6112.1 17
5 3 10 157278 6095.64 25
5 3 10 152729 6011.72 13
5 3 10 156966 6085.81 38
5 3 10 147199 5615.9 31
5 3 11 293.802 382.411 17
5 3 11 424.141 486.333 25
5 3 11 30.3617 316.288 38
5 3 11 -331.29 336.49 31
5 3 12 1054.51 473.64 17
5 3 12 387.928 312.51 38
5 3 12 880.847 331.776 31
5 3 13 70650 2664.71 17
5 3 13 69216.4 2483.61 38
5 3 13 64867.6 2520.46 31
-5 -4 8 72919.5 2752.04 23
-5 -4 8 79718 2711.83 20
-5 -4 8 75270.7 2852.35 34
-5 -4 7 9894.11 834.27 28
-5 -4 7 9819.81 878.256 16
-5 -4 7 11972.7 944.393 20
-5 -4 7 10503.3 846.044 19
-5 -4 7 10064.1 994.542 34
-5 -4 6 857.445 375.652 16
-5 -4 6 941.052 385.237 20
-5 -4 6 847.242 385.102 34
-5 -4 6 1506.57 446.559 19
-5 -4 5 129417 5112.31 16
-5 -4 5 135325 4938.35 20
-5 -4 5 127238 4896.86 19
-5 -4 5 132015 5327.11 34
-5 -4 4 4269.19 827.257 16
-5 -4 4 3538.22 709.481 22
-5 -4 4 3169.3 597.658 20
-5 -4 4 4644.22 831.815 34
-5 -4 4 1973.21 525.478 19
-5 -4 3 29948 1995.36 16
5 4 -3 32804 2647.8 6
-5 -4 3 31371.3 2474.56 49
5 4 -3 31616.3 2719.79 42
-5 -4 3 35172.2 2116.1 22
-5 -4 3 31309.5 1933.91 20
-5 -4 3 32330 1952.66 19
-5 -4 3 33200.2 2172.77 34
-5 -4 2 195048 6854.9 16
5 4 -2 193598 8077 6
-5 -4 2 196939 7645.17 49
-5 -4 2 199124 7958.42 47
5 4 -2 214641 8424.44 42
-5 -4 2 201392 6934.33 22
-5 -4 2 200854 6786.84 20
-5 -4 2 193785 6743.46 19
-5 -4 1 10653.8 1258.39 49
5 4 -1 10946.3 1540.49 6
5 4 -1 11196.5 1610.5 42
-5 -4 1 12276.3 1468.06 47
5 4 0 26419.5 2343.34 6
-5 -4 0 24188.9 1797.83 49
5 4 0 24730.3 2324.33 42
-5 -4 0 25347.5 2066.79 47
5 4 1 80843.5 4460.68 6
-5 -4 -1 79392.4 3624.2 49
-5 -4 -1 87007.9 4074.58 47
5 4 1 92736.8 4798.38 42
5 4 2 30647.1 2530.03 6
-5 -4 -2 28618.8 1783.83 49
-5 -4 -2 28545.6 2054.95 47
-5 -4 -2 27219.5 1918.02 43
5 4 2 29857.5 2634.97 42
5 4 3 17227.7 1866.73 6
-5 -4 -3 13642.4 1332.05 47
-5 -4 -3 15087 1431.9 43
5 4 3 13166.5 1810.72 42
5 4 4 70361.8 3932.09 7
5 4 4 71761 4156.37 6
-5 -4 -4 71508.1 3452.3 47
-5 -4 -4 74589.4 3738.08 43
5 4 5 101002 5074.11 7
5 4 5 91631.7 4861.63 6
-5 -4 -5 94757.1 4160.57 47
5 4 5 93855.9 4029.54 10
-5 -4 -5 104146 4770.73 43
5 4 6 35298.8 2999.58 7
5 4 6 36705.6 2308.85 10
5 4 7 23978.9 1902.84 10
5 4 7 22194.2 1845.55 25
-5 -4 -7 27909.7 2380.22 43
5 4 7 24029.3 1954.83 13
5 4 7 23313 1981.15 38
5 4 7 26697.3 1789.85 37
5 4 7 23327.2 1631.4 36
5 4 8 149151 6004.33 17
5 4 8 156754 6255.7 10
5 4 8 149898 6091.8 25
-5 -4 -8 163428 6848.76 43
5 4 8 155548 6066.12 13
5 4 8 148014 6091.94 38
5 4 8 157177 5763.51 37
5 4 8 145925 5549.25 36
5 4 8 142560 5459.36 31
5 4 9 11112 1296.56 17
5 4 9 10230.7 1311.74 10
5 4 9 9456.4 1209.78 25
-5 -4 -9 12695.1 1642.74 43
5 4 9 10812.1 1219.98 38
5 4 9 9112.9 1144.13 13
5 4 9 10576.3 1130.04 37
5 4 9 11082.9 1116.24 36
5 4 9 10856.7 1100.05 31
5 4 10 4305.79 892.302 17
5 4 10 2953.44 740.313 25
5 4 10 2547.44 591.321 38
5 4 10 2408.02 631.554 13
5 4 10 1909.13 510.301 37
5 4 10 2772.38 586.667 36
5 4 10 2551.26 598.027 31
5 4 11 117746 4735.77 17
5 4 11 103554 4139.63 14
5 4 11 115802 4513.5 38
5 4 11 112294 4470.54 31
5 4 12 515.261 436.604 17
5 4 12 424.601 347.154 25
5 4 12 650.158 255.557 14
5 4 12 16.0773 285.747 38
5 4 12 -251.157 247.728 31
5 4 13 337.498 302.706 17
5 4 13 243.883 210.538 31
-5 -5 7 83976.8 3003.33 16
-5 -5 7 82348 3041.42 23
-5 -5 7 86099.4 2980.72 20
-5 -5 7 83523 3061.15 34
-5 -5 6 3253.07 471.557 28
-5 -5 6 3058.53 538.061 16
-5 -5 6 3294.62 519.396 20
-5 -5 6 3261.99 508.973 19
-5 -5 6 3570.9 588.058 34
-5 -5 5 1251.18 338.673 28
-5 -5 5 457.836 350.488 16
-5 -5 5 1112.43 456.533 20
-5 -5 5 1945.05 491.17 34
-5 -5 5 1239.16 418.541 19
-5 -5 4 135527 5152.71 16
-5 -5 4 128523 5050.79 22
-5 -5 4 136291 5001.82 20
-5 -5 4 135695 5001.39 19
-5 -5 4 130982 5134.81 34
-5 -5 3 14983.1 1333.68 16
-5 -5 3 14774.1 1340.19 22
-5 -5 3 13690.5 1234.42 20
-5 -5 3 13548.4 1205.57 19
-5 -5 3 15528.2 1345.5 34
-5 -5 2 7456.92 927.693 16
5 5 -2 6707 1290.37 6
5 5 -2 5808.51 1250.26 42
-5 -5 2 7581.86 929.148 22
-5 -5 2 6442.66 877.276 20
-5 -5 2 6511.99 845.003 19
-5 -5 2 6574.45 1183.66 47
-5 -5 1 127864 4876.8 16
5 5 -1 121371 6170.32 6
-5 -5 1 127915 5522.5 49
-5 -5 1 134208 6022.04 47
5 5 -1 146168 6661.87 42
-5 -5 1 126254 4949.88 22
-5 -5 1 138108 5028.65 20
-5 -5 1 130247 4907.38 19
-5 -5 0 10710.9 1218.19 49
5 5 0 11828.4 1692.75 6
-5 -5 0 9347.28 1315.34 47
5 5 0 10026.3 1543.11 42
-5 -5 0 9472.52 973.581 22
-5 -5 0 10455.1 1036.97 20
5 5 1 26652.3 2456.13 6
-5 -5 -1 23790.2 1765.33 49
5 5 1 27263.3 2599.85 42
-5 -5 -1 24220.3 2032.81 47
5 5 2 77210 4380.21 6
5 5 2 74834.6 4542.47 42
-5 -5 -2 71418 3435.75 3
-5 -5 -2 66979.8 3607.21 47
-5 -5 -3 2785.13 657.095 3
5 5 3 1943.88 723.051 48
5 5 3 2515.64 927.495 6
-5 -5 -3 2175.46 665.24 47
-5 -5 -3 2176.99 676.308 43
5 5 3 1332.81 761.718 42
5 5 4 11023.9 1519.1 7
5 5 4 10267.9 1394.82 48
-5 -5 -4 11860.6 1270.94 47
5 5 4 11017.2 1570.33 6
-5 -5 -4 9758.04 1229.52 43
5 5 5 61009.9 3819.69 6
-5 -5 -5 69679.6 3362.97 47
-5 -5 -5 65376.3 3597.68 43
5 5 5 60343.4 3141.21 10
5 5 5 58729 3905.78 7
5 5 6 146595 7035.17 7
5 5 6 146208 5880.91 10
-5 -5 -6 150858 6441.2 43
5 5 7 44887.1 3603.45 7
5 5 7 44781.9 2829.96 25
5 5 7 44703.1 2783.85 10
-5 -5 -7 47199.6 3191.83 43
5 5 7 46336.1 2685.36 13
5 5 7 38522.9 2618.38 38
5 5 7 45276.3 2508.69 37
5 5 7 44973.8 2430.23 36
5 5 8 15165.1 1462.57 17
5 5 8 16699.7 2267.29 7
5 5 8 14410 1511.16 25
5 5 8 14320.3 1547.07 10
-5 -5 -8 16924.5 1930.14 43
5 5 8 14594.9 1416.19 13
5 5 8 15750.8 1511.26 38
5 5 8 16926.1 1451.6 37
5 5 8 15789.1 1384.71 36
5 5 9 88385.1 4050.32 17
5 5 9 83861.9 4357.19 10
5 5 9 91496.2 4240.96 25
-5 -5 -9 83611.8 4642.48 43
5 5 9 89408.1 3920 13
5 5 9 85860.9 3933.52 38
5 5 9 99380 4050.96 37
5 5 9 87931.3 3831.08 36
5 5 9 84204 3752.93 31
5 5 10 9777.1 1157.29 17
5 5 10 10656.4 1203.47 25
5 5 10 8520.91 980.016 38
5 5 10 8322.43 971.28 37
5 5 10 8607.66 1007.41 36
5 5 10 9035.53 1023.69 31
5 5 11 2806.78 647.416 17
5 5 11 3100.44 641.94 25
5 5 11 1925.64 519.938 37
5 5 11 1435.05 450.275 36
5 5 11 2370.34 504.194 31
5 5 12 62118.3 2801.01 17
5 5 12 68889.6 2843.42 25
5 5 12 58104.8 2501.82 14
5 5 12 60063.5 2537.1 36
5 5 12 58709.1 2685.98 31
5 5 13 747.773 344.952 17
5 5 13 -90.3017 89.0943 14
5 5 13 724.068 258.332 31
-5 -6 6 65775 2473.74 16
-5 -6 6 62478.7 2423.17 23
-5 -6 6 60670.3 2346.41 20
-5 -6 5 3415.29 574.411 16
-5 -6 5 4165.54 584.703 23
-5 -6 5 3525.53 533.434 20
-5 -6 4 1337.06 462.353 16
-5 -6 4 416.258 273.584 23
-5 -6 4 880.596 371.459 22
-5 -6 4 1252.04 429.739 20
-5 -6 4 1517.9 442.798 19
-5 -6 3 79150.2 3451.48 16
-5 -6 3 78824 3501.54 22
-5 -6 3 82187.8 3477.38 20
-5 -6 3 79107.6 3386.35 19
-5 -6 2 109.796 295.05 16
-5 -6 2 920.046 446.413 22
-5 -6 2 271.12 359.218 20
-5 -6 2 756.478 420.424 19
-5 -6 1 4560.65 734.86 16
5 6 -1 3352.17 939.771 6
-5 -6 1 4243.11 962.083 47
5 6 -1 3917.14 1122.56 42
-5 -6 1 4577.02 735.441 22
-5 -6 1 5039.8 781.146 20
-5 -6 1 4204.01 701.545 19
-5 -6 0 89505.9 3764.08 16
5 6 0 86233.2 5114.92 6
-5 -6 0 95628 4856.54 47
5 6 0 101311 5532.38 42
-5 -6 0 91594 3939.74 22
-5 -6 0 102198 4122.38 20
-5 -6 0 93307.5 3902.65 19
-5 -6 -1 2721.71 725.287 3
5 6 1 2140.69 921.13 48
5 6 1 -394.353 783.646 6
-5 -6 -1 1629.74 582.933 47
5 6 1 2134.93 922.097 42
-5 -6 -1 1723.96 544.863 22
-5 -6 -1 2025.67 546.038 20
-5 -6 -1 1935.31 525.49 19
-5 -6 -1 2827.66 625.129 33
-5 -6 -2 1620.75 487.834 3
5 6 2 1286.36 806.44 48
5 6 2 1816.83 891.723 6
-5 -6 -2 1494.63 523.347 47
5 6 2 1932.82 534.289 24
5 6 2 740.306 676.222 42
-5 -6 -2 2563.46 547.086 22
-5 -6 -2 2133.98 556.797 20
-5 -6 -2 2171.68 531.699 19
-5 -6 -2 1748.14 531.365 33
5 6 3 202347 8373.52 6
5 6 3 215802 8731.38 48
5 6 3 214724 6942.49 24
-5 -6 -3 192720 7416.99 47
5 6 3 176987 8392.85 42
-5 -6 -3 194422 6638.98 22
-5 -6 -3 191948 7329.87 3
5 6 3 181402 7599.39 13
-5 -6 -3 175526 6661.76 20
5 6 4 60348.1 3825.2 6
5 6 4 58478.4 3835.06 48
-5 -6 -4 54705.5 3119.71 47
5 6 4 61489 2855.35 24
-5 -6 -4 49768.7 3031.19 43
5 6 4 45262 3627.33 42
-5 -6 -4 57688 3225.06 3
-5 -6 -4 43085.1 2509.27 20
5 6 4 58012.1 3793.38 7
5 6 5 13381.5 1818.34 7
5 6 5 15519.9 1853.04 48
5 6 5 12581.8 1534.41 25
-5 -6 -5 11999.8 1363.21 47
5 6 5 15525.3 1320.85 24
5 6 5 11268.9 1567.58 6
-5 -6 -5 12461.1 1480.81 43
5 6 5 12524.6 1178.8 37
5 6 5 13119.7 1370.6 10
5 6 5 11967.1 1442.55 13
5 6 5 12256.5 1138.61 36
5 6 6 96407 4631.36 25
5 6 6 87376.3 4316.88 10
5 6 6 97145.1 4000.71 37
5 6 6 97508.5 3939.61 36
5 6 6 93944 5450.13 7
5 6 7 52818 4044.35 7
5 6 7 52269.7 3199.25 25
5 6 7 49578.6 3114.1 10
-5 -6 -7 51308.1 3425.68 43
5 6 7 59044.6 2933.42 37
5 6 7 57118.2 2814.51 36
5 6 8 23756 2737.28 7
5 6 8 23513 1812.84 17
5 6 8 24874.8 2056.06 25
5 6 8 25454.5 2127.46 10
-5 -6 -8 23306.2 2245.77 43
-5 -6 -8 26571.7 1727.34 21
5 6 8 28789.1 1946.76 37
5 6 8 28454.2 1876.95 36
5 6 9 19175.2 1589.93 17
5 6 9 18846.4 1664.51 25
5 6 9 21004.4 1633.25 37
5 6 9 18769 1511 36
5 6 9 18079.2 1447.66 32
5 6 10 52355.9 2763.46 17
5 6 10 57499.7 2965.77 25
5 6 10 58036.1 2841.67 37
5 6 10 55634.4 2766.2 36
5 6 10 57996.3 2685.24 32
5 6 10 50371.5 2662.61 31
5 6 11 16247.9 1296.79 17
5 6 11 15873.8 1294.85 25
5 6 11 15976.1 1264.12 37
5 6 11 16507.4 1276.5 36
5 6 11 15233 1254.44 31
5 6 12 5949.23 713.07 17
5 6 12 4931.12 621.589 25
5 6 12 4731.16 576.44 14
5 6 12 5796.39 666.084 36
5 6 12 5270.48 659.944 31
5 6 13 29073.2 1205.27 17
5 6 13 28636.1 1064.2 25
5 6 13 25312 1021.87 14
5 6 13 26290.2 1158.11 31
-5 -7 5 60028.2 2290.45 16
-5 -7 4 598.922 272.482 16
-5 -7 4 652.433 273.375 23
-5 -7 4 -253.246 143.419 22
-5 -7 4 323.836 304.496 20
-5 -7 3 5416.1 669.863 16
-5 -7 3 4836.54 643.196 23
-5 -7 3 5619.4 705.923 22
-5 -7 3 4543.94 645.519 20
-5 -7 2 72663.8 3087.24 16
-5 -7 2 70717.3 3030.66 23
-5 -7 2 69870.7 3155.27 22
-5 -7 2 69182.8 3131.45 20
-5 -7 1 402.369 326.767 16
-5 -7 1 705.822 469.886 22
-5 -7 1 611.173 411.119 20
-5 -7 0 72.8823 257.255 16
-5 -7 0 320.978 366.243 22
-5 -7 0 344.713 348.717 20
5 7 1 52386.5 3784.29 6
5 7 1 48539.8 3902.52 48
-5 -7 -1 53654.9 3368.59 47
5 7 1 55150.5 3994.59 42
-5 -7 -1 49054.4 2613.81 22
-5 -7 -1 50128.2 2773.72 20
-5 -7 -1 57473.4 2847.23 33
-5 -7 -1 50443.4 3112.42 3
5 7 2 9911.77 1747.75 48
-5 -7 -2 9038.21 1310.66 47
-5 -7 -2 9081.88 1017.39 22
5 7 2 9377.92 1612.09 42
-5 -7 -2 9528.6 1105.11 20
5 7 2 8230.45 1505.46 6
-5 -7 -2 11352 1383.36 3
-5 -7 -2 9604.65 1107.54 33
5 7 3 14798.3 1574.21 27
5 7 3 17820.1 2086.71 6
5 7 3 12825.1 1902.61 48
-5 -7 -3 16463.4 1718.89 47
-5 -7 -3 17929 1402.08 22
5 7 3 13972.2 2051.08 42
-5 -7 -3 14338.7 1375.63 20
-5 -7 -3 16534 1692.93 3
-5 -7 -3 17982.1 1498.06 33
5 7 4 111948 5077.23 27
5 7 4 114581 5849.2 6
-5 -7 -4 110606 5198.14 47
-5 -7 -4 117302 4539.04 22
-5 -7 -4 120168 5339.99 3
-5 -7 -4 120807 4803.01 33
5 7 5 45569.5 3382.29 48
5 7 5 41662.6 2926.54 25
-5 -7 -5 41477.4 2727.56 43
-5 -7 -5 41135.7 2753.82 3
5 7 5 43105.9 2324.77 37
5 7 5 40811 2200.95 36
-5 -7 -5 42425.7 2441.32 33
5 7 5 34059.2 3158.05 7
5 7 6 5777.36 1466.27 7
-5 -7 -6 3961.41 848.687 3
5 7 6 4017.45 996.346 48
5 7 6 3644.4 842.496 25
5 7 6 2895.64 707.761 10
-5 -7 -6 3680 836.307 43
-5 -7 -6 4096.7 732.055 21
5 7 6 3525.18 673.167 37
5 7 6 3381.9 626.745 36
-5 -7 -6 4714.34 832.475 33
5 7 7 45703.8 2889.2 25
5 7 7 39769.5 2787.46 10
-5 -7 -7 49945.9 3186.4 43
-5 -7 -7 47672.6 2576.69 21
5 7 7 49552.5 2593.1 37
5 7 7 46124.6 2479.56 36
-5 -7 -7 42994.3 2517.14 33
5 7 7 40140.3 3543.62 7
5 7 8 32299.8 2058.46 17
5 7 8 36374.4 2416.36 25
-5 -7 -8 37791.9 2152.91 21
5 7 8 35530.4 2191.05 37
5 7 8 34169.5 2105.79 36
-5 -7 -8 36802.1 2186.59 33
5 7 9 3263.39 634.959 17
5 7 9 2350.12 631.485 25
5 7 9 2898.34 688.625 37
5 7 9 2183.65 544.85 36
-5 -7 -9 2302.96 534.988 33
5 7 9 2434.45 578.967 32
5 7 10 23322.5 1553.12 17
5 7 10 21496.2 1602.86 25
5 7 10 22897.4 1632.36 37
5 7 10 21780.1 1559.09 36
5 7 10 23643.4 1550.48 32
5 7 10 19624.2 1453.3 31
5 7 11 36437.4 1891 17
5 7 11 33625.6 1885.58 25
5 7 11 38002.1 2010.87 37
5 7 11 37392.2 1971.74 36
5 7 11 36792.7 1844.13 32
5 7 11 34500.8 1917.11 31
5 7 12 2467.88 426.264 17
5 7 12 1655.18 358.663 25
5 7 12 2240.66 414.772 36
5 7 12 2343.06 441.575 31
5 7 13 12958.4 772.349 36
5 7 13 11900.5 779.434 31
-5 -8 3 13846.8 868.152 23
-5 -8 3 14145.1 908.578 22
-5 -8 3 12162.6 856.111 20
-5 -8 2 12831.9 942.344 16
-5 -8 2 13064.4 949.497 23
-5 -8 2 14446.6 1053.53 22
-5 -8 2 11026.9 926.697 20
-5 -8 1 99527.6 3680.95 16
-5 -8 1 106659 3919.63 22
-5 -8 0 383.488 296.434 16
-5 -8 0 908.941 395.996 22
-5 -8 0 763.081 444.426 20
5 8 1 741.49 443.599 27
-5 -8 -1 314.63 315.165 22
-5 -8 -1 613.195 415.238 20
5 8 2 103719 4771.95 27
-5 -8 -2 106991 4284.79 22
-5 -8 -2 109432 4236.84 21
-5 -8 -2 98152.3 4373.18 20
-5 -8 -2 115646 4502.1 33
5 8 3 1037.7 596.926 27
-5 -8 -3 1254.39 452.003 22
-5 -8 -3 1205.91 403.111 21
-5 -8 -3 851.518 364.015 33
5 8 4 7046.99 1090.25 27
-5 -8 -4 8178.66 897.352 22
-5 -8 -4 8285.65 1004.9 21
-5 -8 -4 7726.69 978.705 33
5 8 5 109888 4722.73 27
5 8 5 99979.9 4927.6 25
-5 -8 -5 105497 4401.49 21
-5 -8 -5 105338 4417.1 33
5 8 6 23200.8 1802.65 27
5 8 6 22583.3 1973.33 25
-5 -8 -6 24382.6 1761.7 21
5 8 6 22415.1 1585.08 37
-5 -8 -6 22125.5 1688.21 33
5 8 7 3517.65 732.764 25
-5 -8 -7 3069.02 603.856 21
5 8 7 3467.01 678.038 37
5 8 7 3196.12 586.232 36
-5 -8 -7 3735.53 702.896 33
5 8 8 65445.3 3293.98 25
-5 -8 -8 67763.1 3102.95 21
5 8 8 66372.8 3087.15 37
5 8 8 62998.1 2934.6 36
-5 -8 -8 68292.2 3129.95 33
5 8 9 14086.3 1277.69 25
-5 -8 -9 14754.8 1176.52 21
5 8 9 16579.2 1336.21 37
5 8 9 15630.1 1246.66 36
-5 -8 -9 14530.7 1191.91 33
5 8 9 16010 1314.09 32
5 8 10 4749.85 655.238 25
5 8 10 5400.67 741.169 37
5 8 10 5342.85 708.598 36
5 8 10 5303.18 676.785 32
5 8 11 15461.6 1020.17 25
5 8 11 16418.4 1127.89 36
5 8 11 17111.6 1103.1 32
5 8 11 13919.8 1025.96 31
5 8 12 26428.3 1133.86 36
-5 -8 -12 24755.8 1036.58 35
5 9 -1 8784.21 893.296 27
-5 -9 1 9152.26 729.323 22
5 9 0 66753.8 3207.22 27
-5 -9 0 83949.3 3059.76 22
5 9 1 841.32 451.805 27
-5 -9 -1 2462.67 452.141 22
5 9 2 610.537 501.703 27
-5 -9 -2 194.011 248.592 22
-5 -9 -2 683.723 343.228 33
5 9 3 64082.5 3239.58 27
-5 -9 -3 65152.8 2821.63 22
-5 -9 -3 62630.2 2756.65 21
-5 -9 -3 62866.5 2918.72 33
5 9 4 3395.13 727.365 27
5 9 4 3095.45 752.174 25
-5 -9 -4 3087.83 522.119 22
-5 -9 -4 3358.16 602.488 21
-5 -9 -4 2615.39 579.232 33
5 9 5 5771.53 892.569 27
5 9 5 6274.59 980.1 25
-5 -9 -5 6216.65 789.138 21
-5 -9 -5 6100.1 819.314 33
5 9 6 59836.2 2857.86 27
5 9 6 53597.8 2961.87 25
-5 -9 -6 57558.2 2755.95 21
-5 -9 -6 53916 2705.96 33
5 9 7 157.796 256.074 27
5 9 7 200.606 317.091 25
-5 -9 -7 734.071 400.543 21
-5 -9 -7 869.263 410.687 33
5 9 8 3736.46 549.674 27
5 9 8 2981.21 545.226 25
-5 -9 -8 3471.49 590.405 21
-5 -9 -8 4188.64 675.935 33
5 9 8 3657.43 627.603 32
5 9 9 41856.3 2108.11 25
-5 -9 -9 44319.2 2105.97 21
5 9 9 44642.6 2015.02 36
-5 -9 -9 46523.2 2153.17 33
5 9 9 48532.8 2252.28 32
5 9 10 31615.3 1565.43 25
-5 -9 -10 34509.5 1567.05 21
5 9 10 35423.7 1651.52 36
5 9 10 37054 1771.59 32
-5 -9 -11 854.845 255.332 39
5 9 11 408.672 215.024 36
-5 -9 -11 516.035 220.705 35
5 9 11 936.52 264.223 32
5 9 11 587.635 208.325 31
5 10 1 35820.8 1864.21 25
-5 -10 -1 40363.5 1663.67 22
5 10 2 3508.41 532.122 27
5 10 2 2599.99 531.011 25
-5 -10 -2 4271.51 471.755 22
5 10 3 3611.26 568.129 27
5 10 3 3614 606.422 25
-5 -10 -3 2854.59 420.484 22
-5 -10 -3 3349.54 485.586 33
5 10 4 61389.3 2822.33 25
-5 -10 -4 59451.8 2375.49 22
-5 -10 -4 57305.8 2388.52 21
-5 -10 -4 62728.1 2599.07 33
5 10 5 503.342 326.935 27
5 10 5 287.795 274.442 25
-5 -10 -5 140.874 204.447 21
-5 -10 -5 981.712 338.266 33
5 10 5 105.669 190.638 32
5 10 6 1653.59 399.44 27
5 10 6 1018.97 315.898 25
-5 -10 -6 1218.78 345.376 15
-5 -10 -6 1287.65 380.844 21
-5 -10 -6 1591.48 375.712 33
5 10 6 1999.45 383.431 32
5 10 7 85597.8 3092.69 27
5 10 7 74966.5 3094.86 25
-5 -10 -7 86993.1 3173.06 21
-5 -10 -7 83555.2 3180.94 33
5 10 7 88111.4 3124.82 32
5 10 8 2285.2 367.437 27
5 10 8 2708.28 396.029 25
-5 -10 -8 2980.36 442.453 21
-5 -10 -8 2341.32 404.587 33
5 10 8 3223.21 460.185 32
-5 -10 -9 170.262 166.475 21
-5 -10 -9 294.997 164.99 35
-5 -10 -9 742.336 225.541 33
5 10 9 486.424 222.699 32
-5 -10 -10 29641.4 1282.73 39
5 10 10 30949.1 1305.08 32
6 -5 -5 6583.82 563.142 35
-6 5 5 6328.6 516.947 19
6 -5 -4 30112.4 1638.28 29
6 -5 -4 27936.5 1333.75 24
6 -5 -4 30110.6 1442.02 35
-6 5 4 27969.7 1292.35 19
6 -5 -3 57192 2644.83 29
6 -5 -3 55171.6 2292.89 24
6 -5 -3 55924.7 2261.16 35
6 -5 -2 2984.98 549.654 29
6 -5 -2 2966.57 489.655 24
6 -5 -1 21372.5 1541.29 29
6 -5 -1 19432.1 1258.4 24
6 -5 -1 20103.9 1154.15 18
6 -5 0 38195 2142.59 29
6 -5 0 35660.8 1785.96 24
6 -5 0 31773.9 1648.15 37
6 -5 0 37021.2 1667.69 18
6 -5 1 -385.611 359.784 29
6 -5 1 311.51 240.877 24
6 -5 1 375.893 267.397 18
6 -5 2 15091.2 1203.01 29
6 -5 2 13675.4 892.186 24
6 -5 2 16002.1 915.675 12
6 -5 2 15312.8 924.193 18
6 -5 2 15410.8 1079.64 30
6 -5 3 145615 4978.21 29
6 -5 3 138584 4498.14 12
6 -5 3 148761 4515.82 18
6 -5 3 146339 4821.44 30
-6 4 7 11205.9 699.136 19
6 -4 -6 24622.5 1038.27 39
6 -4 -6 28014.1 1206.28 35
-6 4 6 27442.7 1151.62 19
-6 4 5 22101.5 1253.67 16
6 -4 -5 21999.1 1226.81 39
6 -4 -5 23641.7 1404.4 35
-6 4 5 24273.3 1331.78 19
6 -4 -4 8550.43 955.276 29
6 -4 -4 7595.89 743.853 24
6 -4 -4 7681.13 818.051 35
-6 4 4 7822.47 745.264 19
6 -4 -3 39035.3 2311.5 29
6 -4 -3 35273.9 1907.33 24
6 -4 -3 35560.2 1939.07 35
-6 4 3 31503.4 1672.14 19
6 -4 -2 43598.7 2603.1 29
6 -4 -2 44483.9 2272.39 24
6 -4 -2 43406.7 2204.36 35
6 -4 -2 37473.1 2008.87 18
6 -4 -1 12940.5 1416.14 29
6 -4 -1 12342.8 1148.75 24
6 -4 -1 12263.4 1046.24 35
6 -4 -1 12025.2 1006.4 18
6 -4 0 21952.2 1834.48 29
6 -4 0 20948 1521.55 24
6 -4 0 21268.7 1376.72 18
6 -4 1 65932.8 3472.04 29
6 -4 1 67391.6 3018.5 24
6 -4 1 64322.6 2770.79 12
6 -4 1 67455.2 2845.58 18
6 -4 2 1818.22 545.244 30
6 -4 2 2333.31 666.266 29
6 -4 2 1917.59 471.029 15
6 -4 2 2180.69 471.937 24
6 -4 2 2023.91 404.391 37
6 -4 2 1784.92 466.792 12
6 -4 2 2288.57 505.759 18
6 -4 3 2469.96 580.853 30
6 -4 3 1785.69 521.937 29
6 -4 3 1892 398.181 24
6 -4 3 1329.55 404.063 12
6 -4 3 1878.66 464.161 18
6 -4 4 128240 4996.56 29
6 -4 4 124758 4448.51 12
6 -4 4 131474 4335.39 18
6 -4 4 124465 4834.54 30
6 -4 5 2956.91 540.542 30
6 -4 5 3386.76 635.86 29
6 -4 5 3119.51 451.836 12
6 -4 5 3245.49 423.509 18
6 -3 -7 14094.8 938.64 39
6 -3 -7 15089.4 921.948 35
-6 3 7 13415.8 907.735 19
-6 3 6 6413.17 644.346 16
6 -3 -6 7770.76 756.517 39
6 -3 -6 7603.52 771.143 35
-6 3 6 8476.83 796.463 19
-6 3 5 60761.3 2663.09 16
6 -3 -5 60998.6 2708.27 39
6 -3 -5 66664.6 2892.25 35
-6 3 5 60650.3 2687.11 19
6 -3 -4 13916 1132.7 24
6 -3 -4 11953.3 1060.91 39
6 -3 -4 14156.3 1250.47 35
-6 3 4 13858.6 1121.15 19
6 -3 -3 943.719 422.629 29
6 -3 -3 1801.78 517.544 24
6 -3 -3 955.195 328.412 39
6 -3 -3 865.213 473.613 35
-6 3 3 1098.5 335.993 19
6 -3 -2 31023.6 2250.07 29
6 -3 -2 27777.8 1872.37 24
6 -3 -2 25745.2 1796.72 35
-6 3 2 24410.1 1518.11 19
6 -3 -2 25841.9 1705.78 18
6 -3 -1 74118 3879.37 29
6 -3 -1 73041.8 3429.55 24
6 -3 -1 69442.9 3292.1 35
6 -3 -1 70440.1 3157.44 18
6 -3 0 51456.1 3216.95 29
6 -3 0 51678.6 2829.22 24
6 -3 0 53022.3 2696.55 35
6 -3 0 56326.8 2662.67 18
6 -3 1 19709.2 1867.84 29
6 -3 1 15477.4 1423.59 24
6 -3 1 17846.5 1396.9 12
6 -3 1 18510.8 1378.98 18
6 -3 2 86411.1 4129.31 30
6 -3 2 90926.4 4510.85 29
6 -3 2 90863.2 3905.22 15
6 -3 2 85210.2 3847.24 24
6 -3 2 94968.4 3887.13 12
6 -3 2 92706.4 3726.69 18
6 -3 3 178.461 470.342 30
6 -3 3 467.841 572.72 29
6 -3 3 699.157 441.63 15
6 -3 3 87.3227 282.82 24
6 -3 3 16.237 279.773 37
6 -3 3 -171.583 443.628 12
6 -3 3 630.749 466.107 18
6 -3 4 526.783 480.599 30
6 -3 4 518.002 512.029 29
6 -3 4 183.325 368.428 12
6 -3 4 1184.77 462.629 18
6 -3 5 95508.8 4388.49 29
6 -3 5 95745 3881.7 12
6 -3 5 101463 3701.71 18
6 -3 5 97456.3 4318.08 30
6 -3 6 1437.41 434.614 30
6 -3 6 2884.4 714.505 29
6 -3 6 1377.9 376.467 12
6 -3 6 3340.87 487.977 18
6 -3 7 212.941 321.634 30
6 -3 7 311.535 332.624 29
6 -3 7 394.785 267.429 12
6 -2 -8 213.513 175.778 39
-6 2 8 -4.62709 150.388 19
6 -2 -7 65337.6 2042.28 39
-6 2 7 64900 1985.77 19
-6 2 6 1234.94 375.895 16
6 -2 -6 1512.3 441.437 39
6 -2 -6 1882.05 446.926 35
-6 2 6 1848.48 463.53 19
-6 2 5 516.687 385.469 16
6 -2 -5 9.15489 315.316 39
6 -2 -5 111.542 267.16 35
-6 2 5 366.203 363.295 19
-6 2 5 344.776 299.581 32
6 -2 -4 170134 6102.45 39
6 -2 -4 171355 6246.04 35
-6 2 4 168795 5999.73 19
6 -2 -3 37522.9 2239.82 24
6 -2 -3 34791.5 2092.7 39
6 -2 -3 33831.1 2205.15 35
-6 2 3 36101.7 2031.58 19
6 -2 -2 4786.91 830.112 24
6 -2 -2 5272.74 747.986 39
6 -2 -2 5180.62 827.132 35
-6 2 2 5849.04 736.493 19
6 -2 -2 5328.48 758.182 18
6 -2 -1 33123.8 2442.68 29
6 -2 -1 33619.1 2215.86 24
6 -2 -1 33745.9 2190.6 35
6 -2 -1 33985.3 2115.63 18
6 -2 0 46874.7 3013.61 29
-6 2 0 48648.5 3203.29 49
-6 2 0 44615.6 3131.93 47
6 -2 0 40219.8 2541.72 24
6 -2 0 43163.9 2852.93 8
6 -2 0 45643.9 2572.19 35
6 -2 0 47112.5 2506.94 12
6 -2 0 49561.5 2521.48 18
6 -2 1 100841 4944.21 29
-6 2 -1 99662.8 5109.95 49
-6 2 -1 97463.9 5164.4 47
6 -2 1 98620.8 4423.17 24
6 -2 1 109133 4925.95 8
6 -2 1 99428.4 4269.66 35
6 -2 1 110236 4440.84 12
6 -2 1 108511 4272.04 18
6 -2 2 27904.9 2339.04 29
6 -2 2 26159.6 1920.95 24
6 -2 2 28610.8 1983.95 12
6 -2 2 31391.8 1936.95 18
6 -2 3 123260 5391.67 30
6 -2 3 128062 5715.1 29
6 -2 3 127628 5113.36 15
6 -2 3 120330 4898.89 24
6 -2 3 123490 4997.53 12
6 -2 3 134163 4838.64 18
6 -2 4 2033.81 625.701 30
6 -2 4 1785.12 682.364 29
6 -2 4 1526.08 468.776 24
6 -2 4 1690.71 506.469 37
6 -2 4 1645.13 560.808 12
6 -2 4 2535.73 620.497 18
6 -2 5 4648.8 912.792 30
6 -2 5 4470.92 923.613 29
6 -2 5 3582.06 667.341 12
6 -2 5 4958.51 748.009 18
6 -2 6 87618.6 4222.75 29
6 -2 6 82652.9 3620.42 12
6 -2 6 84988.9 3372.1 18
6 -2 6 88918.8 4208.54 30
6 -2 7 4725.42 828.229 30
6 -2 7 6308.84 952.464 29
6 -2 7 5016.62 685.198 12
6 -2 8 364.801 346.76 30
6 -2 8 35.607 319.015 29
6 -2 8 146.246 216.585 12
6 -1 -8 246.408 174.251 39
-6 1 8 -26.4864 167.728 20
-6 1 8 74.2802 121.558 34
-6 1 8 121.21 194.228 19
-6 1 7 1892.47 396.7 16
6 -1 -7 2087.98 458.367 39
-6 1 7 1605.13 391.537 34
-6 1 7 1159.2 383.951 19
-6 1 6 32853.2 1862.47 16
6 -1 -6 34580.1 1984.14 39
-6 1 6 31855.8 1869.27 19
-6 1 5 5090.69 776.762 16
6 -1 -5 4752.11 751.142 39
6 -1 -5 5212.22 783.099 35
-6 1 5 6389.86 827.885 19
-6 1 5 4195.51 693.967 32
-6 1 4 11662.2 1195.92 16
6 -1 -4 9024.7 1061.54 39
6 -1 -4 9805.09 1119.17 35
-6 1 4 10118.2 1048.9 19
-6 1 4 9062.19 1005.92 32
6 -1 -3 115338 4930.86 24
6 -1 -3 124673 4951.48 39
6 -1 -3 120026 5014.37 35
-6 1 3 134967 4866.13 19
-6 1 2 19443 1906.72 49
6 -1 -2 16778.7 1520.81 24
6 -1 -2 17215 1600.54 9
6 -1 -2 19721 1534.83 39
6 -1 -2 20581 1908.73 8
6 -1 -2 19206.9 1617.52 35
-6 1 2 20704.1 1452.76 19
-6 1 1 7029.21 1189.07 49
-6 1 1 6412.26 1119.02 47
6 -1 -1 5787.59 906.26 24
6 -1 -1 5181.92 754.034 39
6 -1 -1 6830.09 963.102 35
6 -1 -1 6242.19 1092.38 8
6 -1 -1 6124.74 891.378 18
-6 1 0 32721.2 2558.21 49
-6 1 0 33182.9 2641.82 47
6 -1 0 30845.3 2144.31 24
6 -1 0 29275.5 2373.7 8
6 -1 0 33312.2 2167.64 35
6 -1 0 38315.4 2294.19 12
6 -1 0 35957 2156.39 18
6 -1 1 126419 5621.17 29
-6 1 -1 133392 5984.62 49
-6 1 -1 138377 6195.24 47
6 -1 1 119922 5174.15 24
6 -1 1 122956 5629.21 8
6 -1 1 127933 5142.35 35
6 -1 1 132826 5300.15 12
6 -1 1 140651 5123.8 18
6 -1 2 4339.31 985.82 29
-6 1 -2 5263.04 1052.55 49
-6 1 -2 4800.37 1045.48 47
6 -1 2 4536.23 800.504 24
6 -1 2 3908.11 843.551 8
6 -1 2 3846.89 749.735 12
6 -1 2 5260.52 826.732 18
6 -1 3 88598.3 4477.29 29
-6 1 -3 87566.4 4533.44 49
-6 1 -3 85426.4 4676.28 47
6 -1 3 82071.8 3829.94 24
6 -1 3 75238.4 3761.26 37
6 -1 3 90630.7 4392.3 8
6 -1 3 80170.4 3891.48 12
6 -1 3 93659.2 3785.99 18
6 -1 3 87686.4 4287.68 30
6 -1 4 73514.6 4041.1 29
-6 1 -4 76387.6 4093.86 49
-6 1 -4 75398.8 4232.98 47
6 -1 4 77497.7 3485.17 24
6 -1 4 70099.3 3438.32 37
6 -1 4 71649.6 3561.5 12
6 -1 4 73438.8 3932.98 30
6 -1 5 14110.5 1628.4 29
6 -1 5 11088.7 1147.92 37
6 -1 5 10692.9 1211.18 12
6 -1 5 14027 1603.56 30
6 -1 6 6886.23 1111.79 30
6 -1 6 7553.17 1235.4 29
6 -1 6 6553.07 933.309 12
6 -1 7 57432.4 3281.49 29
6 -1 7 55480 2628.62 38
6 -1 7 51861.8 2673.75 12
6 -1 7 54873 3235.8 30
6 -1 8 1153.83 592.257 30
6 -1 8 601.919 542.505 29
6 -1 8 -195.01 323.918 38
6 -1 8 176.245 294.581 12
6 -1 9 395.686 487.861 30
6 -1 9 461.907 465.078 29
6 -1 9 513.415 279.556 38
6 0 -8 77957.2 2702.19 39
-6 0 8 70334.1 2588.59 20
-6 0 8 71764.4 2677.74 19
-6 0 8 67597.9 2688.47 34
-6 0 7 241.356 268.432 16
6 0 -7 556.108 284.536 39
-6 0 7 150.385 204.964 20
-6 0 7 -127.651 257.523 34
-6 0 7 -38.3661 278.867 19
-6 0 6 369.487 314.661 16
6 0 -6 -6.59369 293.259 39
-6 0 6 402.426 252.699 20
-6 0 6 378.041 405.338 34
-6 0 6 382.634 419.801 19
-6 0 5 106863 4375.63 16
6 0 -5 101106 4357.67 39
-6 0 5 112214 4354.44 19
-6 0 4 14583.1 1344.22 16
6 0 -4 13452.9 1319.2 39
6 0 -4 14042.3 1305.51 35
-6 0 4 15293.4 1296.65 19
-6 0 4 11847.8 1209.33 32
6 0 -3 7727.88 1085.48 9
6 0 -3 6734.17 955.675 39
-6 0 3 7508.28 1170.85 49
6 0 -3 6501.74 937.869 35
-6 0 3 7242.85 899.028 19
6 0 -3 7452.92 1145.78 8
-6 0 2 102441 4964.38 49
6 0 -2 94917.3 4381.5 24
6 0 -2 103143 4588.93 9
6 0 -2 103861 4302.48 39
6 0 -2 101850 4911.23 8
6 0 -2 100498 4357.5 35
-6 0 2 103834 4072.32 19
-6 0 1 18439.5 1824.09 49
-6 0 1 18049.9 1845.8 47
6 0 -1 16333.9 1507.86 24
6 0 -1 15448.2 1457.57 9
6 0 -1 16158.1 1378.01 39
6 0 -1 14416.8 1630.44 8
6 0 -1 16700.2 1481.56 35
-6 0 1 15780.2 1223.52 19
-6 0 0 39978.3 2770.04 49
-6 0 0 43418.3 2950.06 47
6 0 0 33939.2 2238.63 24
6 0 0 38485.3 2183.96 39
6 0 0 41623.4 2815.73 8
6 0 0 37911 2314.45 35
6 0 0 41523.2 2527.36 12
6 0 0 35005.7 2176.33 18
-6 0 -1 44955.1 2944.78 49
-6 0 -1 46418.8 3102.5 47
6 0 1 40515.1 2454.75 24
6 0 1 39846.3 2779.83 8
6 0 1 44568.7 2479.3 35
6 0 1 39176.1 2532.67 12
-6 0 -2 53651.8 3206.48 49
-6 0 -2 55412.1 3416.38 47
6 0 2 45657.2 2637.17 24
6 0 2 50844.1 3148.99 8
6 0 2 43522.5 2726.22 12
6 0 3 2705.78 760.053 29
-6 0 -3 2041.01 643.877 49
-6 0 -3 2376.19 817.096 47
6 0 3 1534.97 471.58 24
6 0 3 1610.06 511.836 37
6 0 3 2073.88 660.592 8
6 0 3 1845.99 622.964 12
6 0 4 68243.8 3814.97 29
-6 0 -4 75761.1 3885.5 49
-6 0 -4 76607.7 4149.54 47
6 0 4 68821.6 3310.78 24
6 0 4 69977.3 3427.04 37
6 0 4 70560.7 3513.14 12
6 0 4 67953 3767.84 30
6 0 5 65632.7 3718.01 29
-6 0 -5 68355.6 3793.7 47
6 0 5 71356.3 3417.19 13
6 0 5 64691.5 3233.84 38
6 0 5 61000.9 3128.56 37
6 0 5 59406.9 3209.2 12
6 0 5 66660.5 3716.35 30
6 0 6 11702.1 1481.84 30
6 0 6 10603.3 1403.29 29
6 0 6 10727.1 1231.78 13
6 0 6 12109.2 1230.28 38
6 0 6 12732.5 1200.42 37
6 0 6 10159.6 1177.85 12
6 0 7 19934 1916.56 29
6 0 7 17375.6 1569.63 13
6 0 7 19394.1 1609.54 38
6 0 7 18964.1 1536.51 12
6 0 7 19103.1 1923.18 30
6 0 8 67084.8 3649.58 29
6 0 8 66159.4 3206.96 38
6 0 8 63412.8 2950.69 12
6 0 8 70439.8 3732.78 30
6 0 9 795.866 584.245 30
6 0 9 1573.58 745.105 29
6 0 9 248.661 425.181 38
6 0 10 1812.25 669.238 29
6 0 10 40.8787 260.518 38
-6 -1 8 3078.78 404.851 20
-6 -1 8 3660.31 484.04 34
-6 -1 8 2583.12 381.919 19
-6 -1 7 51528.6 2304.48 16
-6 -1 7 52600.4 2259.55 20
-6 -1 7 53415.6 2369.17 19
-6 -1 7 55831.4 2572.16 34
-6 -1 6 20105.5 1491.83 16
6 1 -6 18230 1437.35 39
-6 -1 6 20487.6 1351.68 20
-6 -1 6 19061.8 1427.6 19
-6 -1 6 22363.2 1656.81 34
-6 -1 5 16063.8 1399.92 16
-6 -1 5 16573.6 1318.85 22
6 1 -5 13921 1321.91 39
-6 -1 5 15672 1210.77 20
-6 -1 5 16116 1349.17 19
-6 -1 4 109164 4472.95 16
6 1 -4 95754.7 4309.93 39
-6 -1 4 103893 4018.76 20
-6 -1 4 108174 4306.24 19
-6 -1 3 40507.2 2387.67 16
-6 -1 3 42156.3 2924.93 49
6 1 -3 39347.7 2580.92 9
6 1 -3 36970 2310.24 39
6 1 -3 40875.7 2771.1 8
6 1 -3 41406.6 2375.09 35
-6 -1 3 41085.8 2257.53 19
-6 -1 2 1440.26 528.983 16
-6 -1 2 2942.16 813.749 47
6 1 -2 2440.22 673.603 24
6 1 -2 1255.79 502.777 9
6 1 -2 2184.36 571.933 39
6 1 -2 1538.14 519.005 35
6 1 -2 2092.88 705.13 8
-6 -1 2 1290.81 427.197 19
-6 -1 2 1365.61 598.317 49
-6 -1 1 164951 6691.77 49
-6 -1 1 163028 6733.57 47
6 1 -1 158540 6093.24 24
6 1 -1 154663 5853.58 39
6 1 -1 165008 6671.65 8
6 1 -1 155859 5932.05 35
-6 -1 1 162587 5610.16 19
-6 -1 0 19018.8 1785.64 49
-6 -1 0 17101.5 1754.42 47
6 1 0 15797.1 1443.35 24
6 1 0 16705.7 1357.96 39
6 1 0 15920.3 1710.23 8
6 1 0 17444.2 1443.01 35
-6 -1 -1 18910.7 1739.46 49
6 1 1 16758.4 1727.92 8
-6 -1 -2 76384.8 3853.15 49
-6 -1 -2 81411.1 4179.19 47
6 1 2 73559.2 3955.05 8
-6 -1 -3 57496.3 3142.75 49
-6 -1 -3 60325.6 3477.38 47
6 1 3 54121.5 2811.96 24
6 1 3 56866.4 3338.16 8
6 1 3 50488.4 2776.86 37
6 1 3 56593.8 3065.74 12
6 1 4 5397.19 995.331 29
-6 -1 -4 4955.72 986.318 47
6 1 4 4482.25 724.768 24
6 1 4 4149.89 829.25 38
6 1 4 4621.09 951.518 13
6 1 4 4978.32 806.065 37
6 1 4 6367.74 1078.94 8
6 1 4 4786.4 837.927 12
6 1 5 24899 2069.09 29
-6 -1 -5 24252.4 2111.6 47
6 1 5 24513.3 1689.14 24
6 1 5 26233.7 2069.05 13
6 1 5 26643 2042.96 38
6 1 5 22439.3 1741.32 37
6 1 5 24362 1874.99 12
6 1 5 25992 2159.02 30
6 1 6 88753.6 4427.37 29
-6 -1 -6 82585.4 4173.39 47
6 1 6 83071.4 4141.08 13
6 1 6 88440.7 4181.9 38
6 1 6 79761 3720.21 37
6 1 6 87539.6 3897.03 12
6 1 6 92924.7 4524.35 30
6 1 7 5737.25 1119.67 30
6 1 7 5918.41 1130.02 29
6 1 7 7238.14 860.982 25
6 1 7 5157.29 929.24 38
6 1 7 5632.99 982.008 13
6 1 7 5394.07 758.325 37
6 1 7 5798.57 878.388 12
6 1 8 12521.4 1545.95 29
6 1 8 15740.6 1295.6 25
6 1 8 12798.6 1445.21 13
6 1 8 13318.5 1431.78 38
6 1 8 12251.6 1178.36 12
6 1 8 14726.1 1683.88 30
6 1 9 64981.2 3540.47 29
6 1 9 59991.8 3193.86 13
6 1 9 61621.4 3201.47 38
6 1 9 65712.3 3654.6 30
6 1 10 1246.79 504.614 38
6 1 10 1003.82 275.693 31
6 1 11 1030.44 402.86 38
6 1 11 -11.3641 97.3221 31
-6 -2 8 5663.33 510.172 20
-6 -2 8 5380.57 559.809 34
-6 -2 7 8941.78 809.661 16
-6 -2 7 10379.5 853.935 20
-6 -2 7 9818.91 846.324 19
-6 -2 7 8992.9 909.988 34
-6 -2 6 66396.7 3032.06 16
-6 -2 6 67230.1 2876.25 20
-6 -2 6 65580 2946.36 19
-6 -2 6 70318.6 3310.66 34
-6 -2 5 684.642 447.056 16
-6 -2 5 409.416 289.978 22
6 2 -5 556.215 404.591 39
-6 -2 5 308.705 378.952 20
-6 -2 5 310.295 383.772 34
-6 -2 5 604.25 368.347 19
-6 -2 4 1894.8 579.165 16
-6 -2 4 2783.51 620.008 22
6 2 -4 1660.84 509.931 39
-6 -2 4 2306.34 553.255 20
-6 -2 4 2282.8 547.998 19
-6 -2 3 186459 6694.98 16
-6 -2 3 189666 7615.68 49
6 2 -3 177193 6607.22 39
6 2 -3 180827 7256.77 8
-6 -2 3 185815 6293.82 20
-6 -2 3 185161 6484.22 19
-6 -2 2 323.048 394.906 16
-6 -2 2 385.14 486.484 49
-6 -2 2 391.634 445.065 47
6 2 -2 171.678 313.571 39
6 2 -2 641.581 396.37 8
-6 -2 2 281.794 386.732 19
-6 -2 1 1729.34 731.4 47
-6 -2 1 960.074 437.011 16
-6 -2 1 1534.99 595.073 49
6 2 -1 400.389 502.094 6
6 2 -1 1345.32 528.265 24
6 2 -1 1040.81 440.39 39
6 2 -1 1414.35 593.711 13
6 2 -1 757.341 430.836 8
-6 -2 1 1285.24 439.06 19
6 2 -1 820.74 624.895 12
-6 -2 0 104878 4694.72 49
6 2 0 100865 4943.63 6
-6 -2 0 102571 4866.98 47
6 2 0 91306.1 3987.43 39
6 2 0 100864 4755.21 8
-6 -2 -1 127.266 509.83 47
-6 -2 -1 1272.36 549.574 49
6 2 1 445.807 464.456 8
-6 -2 -2 6271.23 928.294 49
-6 -2 -2 5587.81 1010.94 47
6 2 2 5759.68 974.709 8
-6 -2 -3 127980 5165.53 49
-6 -2 -3 132413 5631.14 47
6 2 3 128309 5614.72 8
-6 -2 -4 21940.7 1894.54 47
6 2 4 20181.6 1855.89 8
6 2 4 17705.9 1489.6 37
6 2 4 19414.1 1638.93 12
-6 -2 -5 38751.6 2569.02 47
6 2 5 35139.8 2068.74 24
6 2 5 40220.4 2665.01 13
6 2 5 36412.8 2585.98 38
6 2 5 32121.8 2096.65 37
6 2 5 35676.9 2244.34 12
6 2 5 34102.8 2536.77 30
6 2 6 22968.8 1969.34 29
6 2 6 23483.1 1637.6 25
-6 -2 -6 21078.2 1838.31 47
6 2 6 24509.3 2060.85 13
6 2 6 20433.8 1903.3 38
6 2 6 20901.9 1627.29 37
6 2 6 19870.3 1491.67 36
6 2 6 22626.6 1715.51 12
6 2 6 23170.1 2077.51 30
6 2 7 75562.3 3955.69 29
6 2 7 70481.4 3623.7 17
6 2 7 69721.3 3332.31 25
-6 -2 -7 67628.2 4041.06 43
6 2 7 76563.8 3923.45 13
6 2 7 73524 3897.51 38
6 2 7 70976 3364.35 37
6 2 7 69380.1 3299.32 12
6 2 7 78000.8 4117.97 30
6 2 8 4090.46 1102.17 30
6 2 8 3131.89 799.29 29
6 2 8 3783.99 825.337 17
6 2 8 4115.36 720.208 25
6 2 8 3778.49 811.476 38
6 2 8 4169.56 893.544 13
6 2 8 3880.18 699.005 37
6 2 9 45585.8 2956.47 29
6 2 9 46280.3 2619.65 17
6 2 9 43546.1 2457.2 25
6 2 9 43133.5 2744.46 13
6 2 9 44565.1 2747.04 38
6 2 10 113591 4837.07 29
6 2 10 91149.7 4007.48 17
6 2 10 113030 4242.94 25
6 2 10 100859 4323.1 38
6 2 10 97745.4 3719.72 31
6 2 11 7160.36 751.064 17
6 2 11 6885.36 791.948 38
6 2 11 6719.5 641.121 31
6 2 12 3987.4 488.624 38
-6 -3 7 6164.78 615.893 16
-6 -3 7 7042.37 666.21 20
-6 -3 7 6463.1 629.11 19
-6 -3 7 6285.71 715.564 34
-6 -3 6 48.743 336.82 16
-6 -3 6 511.002 277.578 20
-6 -3 6 171.816 327.753 34
-6 -3 6 494.156 363.434 19
-6 -3 5 60251.8 2949.92 16
-6 -3 5 57922.7 2745.32 22
-6 -3 5 58217.3 2717.3 20
-6 -3 5 61002 2831.11 19
-6 -3 5 63035 3182.74 34
-6 -3 4 480.64 395.178 16
-6 -3 4 -17.4029 312.983 22
-6 -3 4 -124.038 282.17 20
-6 -3 4 949.705 621.067 34
-6 -3 4 -80.0594 330.759 19
-6 -3 3 10184.5 1140.54 16
-6 -3 3 9777.67 1110.24 22
6 3 -3 11130.8 1158.61 39
-6 -3 3 11137 1058.59 20
-6 -3 3 10324.3 1090.93 19
-6 -3 2 107502 4430.81 16
-6 -3 2 113934 5239.1 49
6 3 -2 102802 5192.32 6
-6 -3 2 102519 5157.93 47
-6 -3 2 113009 4492.65 22
6 3 -2 108382 4434.36 39
6 3 -2 106059 5023.11 8
-6 -3 2 108538 4191.54 20
-6 -3 2 112359 4336.41 19
-6 -3 1 -27.2154 292.334 16
-6 -3 1 -31.7987 450.202 49
-6 -3 1 830.619 708.924 47
6 3 -1 -793.448 710.417 6
6 3 -1 -127.176 376.71 24
6 3 -1 69.6682 293.577 39
6 3 -1 -425.769 456.152 8
-6 -3 1 110.792 264.508 19
-6 -3 0 2824.19 515.715 16
-6 -3 0 3386.33 822.77 49
-6 -3 0 2884.6 756.316 47
6 3 0 2511.18 797.678 6
6 3 0 3382.88 677.013 24
6 3 0 3221.8 632.501 39
6 3 0 2752.29 853.312 8
-6 -3 0 2574.63 506.258 19
6 3 0 3194.88 897.52 12
-6 -3 -1 106119 4672.61 49
6 3 1 108893 5400.96 6
-6 -3 -1 112636 5102.94 47
6 3 1 109344 4976.5 8
-6 -3 -2 5589.9 841.756 49
-6 -3 -2 5876.93 1018.28 47
6 3 2 6980.82 1314.99 6
6 3 2 6696.58 1071.21 8
-6 -3 -3 -20.7283 428.815 47
6 3 3 -173.549 480.919 8
-6 -3 -4 99571.3 4659.94 47
6 3 4 107568 4818.1 8
6 3 5 52068.7 2738.38 25
-6 -3 -5 54085.4 3064.75 47
6 3 5 50330.9 2608.39 24
6 3 5 56445.1 3358.29 13
6 3 5 50110.9 2702.37 37
6 3 5 54051.6 2808.21 12
6 3 6 4973.75 1100.45 30
6 3 6 2990.57 648.419 25
6 3 6 3846.93 671.856 24
-6 -3 -6 3197.48 898.428 43
6 3 6 4460.77 918.457 38
6 3 6 5400.42 1053.27 13
6 3 6 3900 704.152 37
6 3 6 3129.2 638.623 36
6 3 6 2887.08 690.013 12
6 3 7 71703 3730.35 29
6 3 7 70830.1 3413.89 25
-6 -3 -7 72469.4 4187.7 43
6 3 7 68287.1 3806.09 13
6 3 7 65774.2 3751.97 38
6 3 7 69815.6 3328.61 37
6 3 7 70464.3 3208.63 36
6 3 7 65312.1 3150.94 12
6 3 8 67013.4 3657.21 29
6 3 8 63888.7 3445.03 17
6 3 8 65928.8 3282.72 25
6 3 8 64305.8 3561.8 13
6 3 8 59182.7 3491.71 38
6 3 8 62081.4 3103.02 37
6 3 8 64023.5 2999.77 36
6 3 9 40625.8 2813.64 29
6 3 9 38126.4 2453.31 17
6 3 9 43818.3 2498.8 25
6 3 9 39861.4 2590.82 13
6 3 9 39671.1 2590.9 38
6 3 9 36985.2 2160.81 37
6 3 10 7019.25 965.426 17
6 3 10 5499.92 791.473 25
6 3 10 6628.23 966.879 38
6 3 10 6937.19 1001.95 13
6 3 10 5227.53 654.143 31
6 3 11 20379.9 1482.17 17
6 3 11 24302 1593.69 25
6 3 11 24634.6 1611.36 38
6 3 11 19751.6 1252.77 31
6 3 12 13159.5 960.044 17
6 3 12 13755.7 976.954 38
6 3 12 11469.5 780.929 31
-6 -4 7 75857.5 2626.15 20
-6 -4 7 69649.7 2663.62 34
-6 -4 6 10784 927.717 16
-6 -4 6 11771.8 920.376 20
-6 -4 6 13715.8 983.374 19
-6 -4 6 11292 994.525 34
-6 -4 5 13496.6 1187.38 16
-6 -4 5 13998.7 1114.06 20
-6 -4 5 13931 1131.75 19
-6 -4 5 14170.5 1272.43 34
-6 -4 4 69387.7 3232.7 16
-6 -4 4 67198.8 3162.72 22
-6 -4 4 70073.9 3084.71 20
-6 -4 4 68004.6 3078.21 19
-6 -4 4 74596 3438.09 34
-6 -4 3 445.542 449.5 16
-6 -4 3 170.202 415.188 22
-6 -4 3 -124.051 273.657 20
-6 -4 3 865.938 446.568 19
-6 -4 3 342.576 403.122 34
-6 -4 2 17135.9 1404.74 16
6 4 -2 14751.5 1807.21 6
-6 -4 2 15356.9 1677.97 49
-6 -4 2 17561.3 1948.3 47
6 4 -2 18594.5 2137.28 42
-6 -4 2 16733.1 1431.44 22
-6 -4 2 16526.1 1320.24 20
-6 -4 2 16146.9 1321.65 19
-6 -4 1 103791 4341.64 16
6 4 -1 110176 5613.54 6
-6 -4 1 115035 5143.01 49
-6 -4 1 109327 5395.98 47
6 4 -1 123203 6088.94 42
-6 -4 1 109286 4466.34 22
-6 -4 1 117770 4370.91 20
-6 -4 1 110744 4333.25 19
-6 -4 0 -228.413 339.451 16
-6 -4 0 -322.474 453.182 49
-6 -4 0 144.998 392.398 47
6 4 0 379.626 491.155 6
6 4 0 436.742 469.802 24
6 4 0 291.727 634.511 42
-6 -4 0 209.604 269.12 22
-6 -4 0 221.384 306.914 20
-6 -4 0 109.748 274.296 19
-6 -4 -1 957.464 433.398 49
-6 -4 -1 3315.93 898.116 47
6 4 1 182.639 650.964 6
6 4 1 1240.99 460.514 24
6 4 1 908.006 768.072 42
-6 -4 -1 1242.96 421.964 22
6 4 1 3399.27 1029.97 13
6 4 1 116.646 588.11 12
-6 -4 -2 82522.7 3767.04 49
6 4 2 86179.1 4839.66 6
-6 -4 -2 87781.8 4289.92 47
6 4 2 82646.5 3683.29 24
6 4 2 74748.9 4798.66 42
-6 -4 -2 82210 3477.42 22
6 4 2 80982.2 4598.44 13
6 4 2 95755.3 4305.27 12
-6 -4 -3 858.644 489.218 47
6 4 3 1681.33 793.56 6
6 4 3 1185.96 295.221 24
-6 -4 -3 1046.78 563.486 43
6 4 3 1269.68 747.34 13
6 4 3 774.122 565.709 8
6 4 3 1484.41 681.988 12
-6 -4 -4 7613.26 1112.48 47
6 4 4 9032.31 1457.06 6
6 4 4 7519.93 922.674 24
-6 -4 -4 8987.13 1277.89 43
6 4 4 7067.61 904.779 37
6 4 4 7411.8 1246.45 13
6 4 4 7931.02 1133.5 8
6 4 4 7405.73 1045.44 12
6 4 5 58782 3157.1 25
-6 -4 -5 62437.6 3365.87 47
6 4 5 61891.7 2950.78 24
-6 -4 -5 61833.8 3657.88 43
6 4 5 62652.1 3667.48 13
6 4 5 59919.9 2999.36 37
6 4 5 58126.9 2861.82 36
6 4 5 62381 3064.73 12
6 4 6 13169.9 1375.9 25
6 4 6 13767.8 1222.3 24
-6 -4 -6 15711.8 1803.58 43
6 4 6 15668.5 1687.71 13
6 4 6 13688.7 1333.3 37
6 4 6 13964.1 1275.8 36
6 4 6 12427 1218.45 12
6 4 7 5095.55 886.244 25
-6 -4 -7 5718.61 1132.33 43
6 4 7 5169.12 942.791 38
6 4 7 5632.6 1050.74 13
6 4 7 5810.04 865.4 37
6 4 7 4426.07 743.267 36
6 4 8 112037 4905.77 17
6 4 8 110938 4780.92 25
6 4 8 110094 4931.03 13
6 4 8 108739 4990.88 38
6 4 8 112430 4585.56 37
6 4 8 108618 4441.82 36
6 4 9 48613.1 2855.37 17
6 4 9 46329.5 2725.03 25
6 4 9 49725.1 2863.95 13
6 4 9 49717 2895.92 38
6 4 9 50616.7 2619.98 37
6 4 9 47752.1 2510.65 36
6 4 10 16529 1483.11 17
6 4 10 17038.3 1478.35 25
6 4 10 15477.1 1437.74 13
6 4 10 15010.8 1409.33 38
6 4 10 16910.6 1285.7 37
6 4 10 15761.6 1243.59 36
6 4 10 14285.6 1130.75 31
6 4 11 22140.8 1566.55 17
6 4 11 23063.9 1574.02 25
6 4 11 20473.8 1465.48 38
6 4 11 19110.7 1267.14 31
6 4 12 29077.9 1588.51 17
6 4 12 31012.4 1619.15 25
6 4 12 27314.1 1449.92 38
-6 -5 6 26772.2 1326.16 16
-6 -5 6 27451.5 1318.07 20
-6 -5 5 12647.3 1029.74 16
-6 -5 5 12785.4 990.599 20
-6 -5 5 12053.6 948.182 19
-6 -5 5 11776.7 979.696 34
-6 -5 4 16864.1 1309.87 16
-6 -5 4 16468.2 1256.31 22
-6 -5 4 17822.4 1291.74 20
-6 -5 4 17343.4 1259.5 19
-6 -5 4 15519.1 1235.95 34
-6 -5 3 99456.9 4035.13 16
-6 -5 3 96038.6 4031.57 22
-6 -5 3 97355.3 3937.4 20
-6 -5 3 99847.2 3945.95 19
-6 -5 3 97267.1 3979.66 34
-6 -5 2 10740.9 1088.71 16
-6 -5 2 9233.04 1048.35 22
-6 -5 2 10337 1059.18 20
-6 -5 2 9860.29 1019.66 19
-6 -5 1 3556.04 643.775 16
-6 -5 1 3064.78 721.71 49
-6 -5 1 2873.3 635.345 22
-6 -5 1 3914.21 687.992 20
-6 -5 1 2343.21 555.135 19
-6 -5 0 69745.1 3158.84 16
6 5 0 73521 4538.65 6
-6 -5 0 72970.9 3755.2 49
-6 -5 0 69860.3 4078.35 47
6 5 0 84920.2 3716.64 24
6 5 0 83146.2 4992.41 42
-6 -5 0 69421.9 3279.08 22
-6 -5 0 75345.2 3301.64 20
-6 -5 0 71881.7 3205.76 19
-6 -5 -1 7192.54 1010.27 49
6 5 1 8608.75 1514.6 6
-6 -5 -1 6741.61 1131.83 47
6 5 1 8142.94 1038.56 24
6 5 1 8362.83 1595.76 42
-6 -5 -1 6529.38 833.376 22
-6 -5 -1 6161.5 810.287 20
-6 -5 -1 6435.89 805.966 19
6 5 2 3505.38 802.979 25
-6 -5 -2 2744.91 855.866 47
6 5 2 1463.03 844.449 6
6 5 2 1753.14 537.671 24
6 5 2 1019.74 719.219 42
-6 -5 -2 1895.73 463.256 22
6 5 2 2481.12 955.825 13
6 5 3 227652 9297.21 6
6 5 3 222277 8203.56 25
-6 -5 -3 220509 8297.96 47
6 5 3 221581 7632.01 24
-6 -5 -3 224438 7423.17 22
6 5 3 217860 8775.97 13
6 5 3 240575 8104.62 12
6 5 4 23460.4 2383.01 6
6 5 4 21656.1 1873.92 25
6 5 4 21170.1 1594.24 24
-6 -5 -4 21042.7 1936.89 43
6 5 4 20390.3 2081.34 13
6 5 4 18903.4 1481.72 37
-6 -5 -4 21917.2 1905.02 47
6 5 4 21970.2 1735.61 12
6 5 4 20522.9 1527.37 36
6 5 5 14585.7 1512.15 25
6 5 5 15463.2 1897.17 6
-6 -5 -5 15576.7 1594.41 47
6 5 5 12393.8 1205.52 24
-6 -5 -5 13540 1603.28 43
6 5 5 15222.6 1726.29 13
6 5 5 15328.8 1336.2 37
6 5 5 14354.1 1311.19 12
6 5 5 12900.8 1193.13 36
6 5 6 101481 4624.58 25
6 5 6 105213 4171.93 24
-6 -5 -6 102132 5080.24 43
6 5 6 93876.4 4696.59 13
6 5 6 101269 4227.63 37
6 5 6 100027 4162.48 36
6 5 6 92135 4023.67 12
6 5 7 8293.67 1130.94 25
6 5 7 7690.23 896.147 24
-6 -5 -7 7044.23 1276.95 43
6 5 7 6906.36 1096.07 38
6 5 7 7874.93 1164.77 13
6 5 7 7298.08 998.321 37
6 5 7 7608.59 987.246 36
6 5 8 10840.5 1275.11 25
6 5 8 10001.5 1255.61 13
6 5 8 11291.3 1315.28 38
6 5 8 13321.8 1304.98 37
6 5 8 11779.5 1161.86 36
6 5 9 31553.5 2164.09 17
6 5 9 33036.7 2229.21 25
6 5 9 30109.8 2062.47 13
6 5 9 30378.1 2121.61 38
6 5 9 32579 2042.25 37
6 5 9 31541.5 1966.33 36
6 5 10 35851.5 2242.6 17
6 5 10 39959.8 2334.15 25
6 5 10 38252.2 2168.64 13
6 5 10 35509.6 2145.16 38
6 5 10 36496.9 2073.97 37
6 5 10 35600.6 2031.09 36
6 5 10 34297.2 1886.81 31
6 5 11 19347.3 1439.95 17
6 5 11 21374.8 1497.57 25
6 5 11 19236.9 1328.42 13
6 5 11 19180.5 1335.58 38
6 5 11 19046.9 1283.8 37
6 5 11 19226.9 1272.75 36
6 5 11 16481.6 1170.09 31
6 5 12 17788.5 1212.24 17
6 5 12 18687.4 1204.97 25
6 5 12 17028.5 1028.06 38
6 5 12 14619.5 971.561 31
6 5 13 22589 1140.39 17
-6 -6 5 15479.7 958.59 16
-6 -6 5 14490 925.78 20
-6 -6 4 10193.9 879.899 16
-6 -6 4 7994.08 708.065 23
-6 -6 4 10389.3 852.594 22
-6 -6 4 10370.3 891.66 20
-6 -6 3 37606.8 2018.71 16
-6 -6 3 37684.2 2052.87 22
-6 -6 3 39252.4 2050.95 20
-6 -6 3 42796.6 2074.7 19
-6 -6 2 60206.8 2761.7 16
-6 -6 2 61344.8 2893.89 22
-6 -6 2 60404.5 2824.53 20
-6 -6 2 58958.1 2745.44 19
-6 -6 1 2205.04 492.524 16
-6 -6 1 3255.71 672.02 22
-6 -6 1 2285.96 521.432 20
-6 -6 1 2907.98 582.837 19
-6 -6 0 15987 1246.75 16
-6 -6 0 16317.3 1373.55 22
-6 -6 0 18011.6 1443.45 20
-6 -6 0 15910.2 1304.83 19
6 6 1 109187 5800.43 6
-6 -6 -1 96861.2 5014.47 47
6 6 1 108132 6068.79 42
-6 -6 -1 102719 4212.36 22
-6 -6 -1 100315 4227.14 20
-6 -6 -1 109916 4186.69 19
6 6 2 4068.11 1277.32 6
-6 -6 -2 2207.71 617.592 47
6 6 2 2506.44 659.465 24
6 6 2 889.421 845.504 42
-6 -6 -2 2655.33 562.725 22
6 6 2 3106.8 1052.22 13
-6 -6 -2 1963.46 569.815 20
-6 -6 -2 2676.97 540.109 19
6 6 3 -200.057 407.197 25
-6 -6 -3 669.959 453.593 47
6 6 3 -139.98 693.759 6
6 6 3 123.791 351.92 24
6 6 3 383.747 840.206 42
-6 -6 -3 -311.587 341.554 22
6 6 3 78.7842 622.177 13
-6 -6 -3 101.075 325.082 20
6 6 3 242.831 309.084 36
6 6 4 87924.2 5085.16 6
6 6 4 93645.9 4566.73 25
-6 -6 -4 89671.3 4449.99 47
6 6 4 96560 3995.38 24
6 6 4 85288.8 4553.71 13
6 6 4 91907.3 3783.36 37
6 6 4 86331.8 3719.42 36
-6 -6 -5 3561.64 789.909 3
6 6 5 3002.12 800.755 25
-6 -6 -5 2609.72 686.389 47
6 6 5 2148.66 904.923 6
6 6 5 3483.83 681.454 24
-6 -6 -5 3131.16 826.441 43
6 6 5 4309.19 763.888 37
6 6 5 4478.43 974.198 13
6 6 5 3693.16 671.037 36
6 6 6 9869.06 1635.72 7
6 6 6 11648.5 1410.85 25
6 6 6 11640.7 1177.7 24
-6 -6 -6 9479.14 1406.34 43
6 6 6 13569.1 1253.38 37
6 6 6 11481.7 1361.4 13
6 6 6 13536.4 1253.47 36
6 6 7 178682 6925.22 25
6 6 7 175139 6734.45 13
6 6 7 161992 6750.33 38
6 6 7 190413 6596.09 37
6 6 7 185758 6485.28 36
6 6 8 21209.5 1793.74 25
6 6 8 20689.2 1646.72 13
-6 -6 -8 21140.1 1483.49 21
6 6 8 20878.4 1736.06 38
6 6 8 22247.6 1690.05 37
6 6 8 21044.9 1591.94 36
6 6 9 -137.768 378.065 17
6 6 9 403.974 448.352 25
6 6 9 988.548 470.523 38
6 6 9 1010.46 506.471 13
6 6 9 668.68 400.824 37
6 6 9 744.959 418.275 36
6 6 10 34625.4 2049.45 17
6 6 10 34690.1 2107.12 25
6 6 10 29286.5 1795.65 38
6 6 10 37953 2085.46 37
6 6 10 34136.9 1932.87 36
6 6 10 28694.6 1684.99 31
6 6 11 15205.3 1197.82 17
6 6 11 15616.6 1219.22 25
6 6 11 14889.6 1133.41 37
6 6 11 15231.9 1133.22 36
6 6 11 13002 996.151 31
6 6 12 8752.37 801.283 17
6 6 12 9808.88 807.161 25
6 6 12 7683.31 673.685 36
6 6 12 7591.2 639.42 31
-6 -7 4 15305.6 880.142 16
6 7 -4 13254 1180.04 13
-6 -7 4 12875.2 841.865 20
-6 -7 3 7096.66 679.237 16
-6 -7 3 6482.34 652.138 22
-6 -7 3 5989.94 661.616 20
-6 -7 2 9388.43 850.522 16
-6 -7 2 11241.8 975.58 22
-6 -7 2 10964.2 996.931 20
-6 -7 1 43216.8 2101.26 16
-6 -7 1 44342.3 2265.59 22
-6 -7 1 41545.2 2239.43 20
-6 -7 0 4771.85 637.664 16
-6 -7 0 4907.65 748.212 22
-6 -7 0 4133.38 722.447 20
-6 -7 -1 10471.9 1064.52 22
-6 -7 -1 9446.44 1057.78 20
6 7 1 12522.8 1614.86 13
-6 -7 -2 122937 4677.52 22
6 7 2 115399 5524.08 13
-6 -7 -2 111341 4711.03 20
-6 -7 -2 130159 4862.04 33
6 7 3 5052.95 1006.61 25
-6 -7 -3 5985.86 805.578 22
6 7 3 4904.19 1024.51 13
-6 -7 -3 5027 784.548 20
-6 -7 -3 6821.85 907.818 33
6 7 4 366.033 445.465 25
-6 -7 -4 123.947 376.327 22
6 7 4 54.3379 465.658 13
-6 -7 -4 160.348 424.314 33
6 7 5 72267.1 3886.81 25
6 7 5 69784.5 3624.59 13
6 7 5 70770.6 3191.24 37
6 7 5 73410.9 3170.58 36
-6 -7 -5 66434.8 3264.49 33
6 7 6 577 418.719 25
6 7 6 1072.31 437.897 37
6 7 6 -276.272 298.17 36
-6 -7 -6 1500.3 581.543 33
6 7 7 4310.25 865.457 25
-6 -7 -7 3535.61 659.479 21
6 7 7 4054.98 731.373 38
6 7 7 4636.58 756.879 37
6 7 7 4356.66 697.267 36
-6 -7 -7 5006.04 822.804 33
6 7 8 132627 5187.01 17
6 7 8 134112 5495.82 25
-6 -7 -8 136069 5050.94 21
6 7 8 140998 5219.61 37
6 7 8 138676 5149.61 36
-6 -7 -8 131724 5138.67 33
6 7 9 4700.48 728.249 17
6 7 9 5568.72 857.235 25
6 7 9 5614.55 775.395 37
6 7 9 5680.76 785.324 36
-6 -7 -9 4910.56 698.567 33
6 7 9 5199.8 721.001 32
6 7 10 424.131 391.925 17
6 7 10 350.111 279.191 25
6 7 10 670.044 426.764 37
6 7 10 455.83 386.129 36
6 7 10 -136.383 238.859 32
6 7 11 22721.1 1349.28 17
6 7 11 23737.6 1414.36 25
6 7 11 23227.9 1402.08 37
6 7 11 23345.3 1372.74 36
6 7 12 12649.8 771.144 17
6 7 12 15290.8 854.39 25
6 7 12 14133.5 821.138 36
-6 -8 2 3334.78 403.118 16
6 8 -2 2727.62 542.731 27
-6 -8 2 4194.33 467.921 22
6 8 -2 3444.77 639.395 13
-6 -8 2 2367.51 403.66 20
-6 -8 1 24109.3 1281.95 16
6 8 -1 26441.4 1665.18 27
-6 -8 1 27124.5 1468.96 22
6 8 -1 24099.3 1713.33 13
-6 -8 1 22281.2 1395.83 20
6 8 0 30409.1 1907.1 27
-6 -8 0 29434.7 1658.59 22
6 8 0 29020.8 2014.7 13
-6 -8 0 25000.2 1619.8 20
6 8 1 12088.1 1225.04 27
-6 -8 -1 11415.4 996.811 22
-6 -8 -1 8336.93 937.827 20
6 8 1 10661.7 1231.54 13
6 8 2 4077.98 770.448 27
6 8 2 4137.78 820.621 25
-6 -8 -2 4666.34 660.733 22
-6 -8 -2 3806.71 592.779 21
6 8 2 2730.04 703.075 13
-6 -8 -2 4588.41 688.65 33
6 8 3 79292.8 3823.05 27
6 8 3 88426.7 4297.17 25
-6 -8 -3 83870.8 3508.15 22
-6 -8 -3 87712.1 3599.39 21
-6 -8 -3 89695.3 3709.29 33
6 8 4 10848.2 1387.96 25
-6 -8 -4 10959.9 1003.3 22
-6 -8 -4 11254.5 1092.81 21
-6 -8 -4 10302.3 1068.66 33
6 8 5 750.212 563.512 25
-6 -8 -5 399.346 426.403 21
-6 -8 -5 451.19 370 33
6 8 6 40075.8 2591.6 25
-6 -8 -6 43785.5 2368.1 21
6 8 6 41091 2153 37
6 8 6 40241.6 2063.33 36
-6 -8 -6 43960.6 2354.71 33
6 8 7 931.88 468.777 25
-6 -8 -7 761.372 400.496 21
6 8 7 1100.17 405.588 37
6 8 7 718.12 299.922 36
-6 -8 -7 599.592 397.95 33
6 8 8 196.349 371.956 25
-6 -8 -8 801.709 315.562 21
6 8 8 884.932 389.957 37
6 8 8 342.162 343.772 36
-6 -8 -8 -231.081 293.076 33
6 8 9 64095.6 3006.25 25
-6 -8 -9 64486.6 2740.29 21
6 8 9 66673.1 2919.84 37
6 8 9 65577.1 2841.64 36
-6 -8 -9 70643.4 2920.78 33
6 8 9 68616 2933.98 32
6 8 10 3.17944 234.03 25
6 8 10 296.266 322.28 37
6 8 10 388.186 321.533 36
6 8 10 -21.814 224.233 32
6 8 11 1097.88 277.832 25
-6 -8 -11 1835.67 290.695 39
6 8 11 1632.16 364.578 36
6 8 12 39693.2 1590.17 36
6 9 0 26650.2 1497.34 27
6 9 0 23420.9 1466.71 25
-6 -9 0 28358.4 1348.78 22
6 9 1 72414.5 3109.39 27
6 9 1 73974 3272.37 25
-6 -9 -1 78801.2 2910.87 22
6 9 2 865.118 410.129 27
6 9 2 1630.56 493.689 25
-6 -9 -2 1955.84 388.255 22
6 9 3 10980.4 1062.5 27
6 9 3 12243.2 1241.55 25
-6 -9 -3 10945.5 902.114 22
-6 -9 -3 11534.7 909.116 21
-6 -9 -3 10112.4 921.29 33
6 9 4 84765.6 3427.6 27
6 9 4 78292.4 3661 25
-6 -9 -4 74517.7 3006.27 22
-6 -9 -4 83108.2 3222.07 21
-6 -9 -4 76842.4 3231.72 33
6 9 5 10406.7 952.939 27
6 9 5 7522.83 998.158 25
-6 -9 -5 8753.94 876.38 21
-6 -9 -5 7397.61 840.022 33
6 9 6 1307.59 430.45 25
-6 -9 -6 1192.04 398.885 21
-6 -9 -6 1141.57 396.86 33
6 9 7 54270 2726.97 25
-6 -9 -7 60305.6 2628.99 21
-6 -9 -7 56038.8 2594.84 33
6 9 8 5154.5 702.063 25
-6 -9 -8 5896.87 682.544 21
6 9 8 4911.25 546.603 36
-6 -9 -8 5165.83 657.403 33
6 9 8 6168.93 716.534 32
6 9 9 -25.6734 220.87 25
-6 -9 -9 181.406 222.914 21
6 9 9 300.211 221.589 36
-6 -9 -9 447.615 264.118 33
6 9 9 512.054 287.407 32
6 9 10 51449 2157.31 25
6 9 10 55330.8 2134.87 36
-6 -9 -11 1012.53 232.529 35
6 10 2 37914.7 1714.9 25
6 10 3 810.25 250.107 27
6 10 3 344.744 271.361 25
-6 -10 -3 856.662 211.106 22
6 10 4 19708.5 1225.7 25
-6 -10 -4 18333.2 938.981 21
-6 -10 -4 18900 1034.62 33
6 10 5 30565.1 1447.02 25
-6 -10 -5 31438.8 1226.27 21
-6 -10 -5 30853.8 1293.05 33
6 10 5 31894.2 1221.41 32
6 10 6 1874.83 374.519 25
-6 -10 -6 2314.83 404.914 21
-6 -10 -6 1842.82 383.674 33
6 10 6 1819.97 347.607 32
6 10 7 5822.84 612.066 25
-6 -10 -7 5946.91 570.977 21
-6 -10 -7 6204.32 622.247 33
6 10 7 6596.46 598.493 32
-6 -10 -8 60285.7 2294.07 21
-6 -10 -8 61470.1 2336.63 33
6 10 8 65572.8 2352.51 32
6 10 9 671.537 211.654 32
-7 4 3 257.537 174.174 16
7 -4 -3 158.384 179.143 37
7 -4 -2 43148.4 1885.88 29
7 -4 -2 42934.7 1789.5 24
7 -4 -2 40959.4 1823.14 37
7 -4 -1 11760.5 929.019 29
7 -4 -1 11080.6 819.385 24
7 -4 -1 11190.5 837.843 37
7 -4 0 7472.6 765.141 29
7 -4 0 7622.07 669.069 24
7 -4 0 7231.1 642.142 37
7 -4 1 38657.8 1902.24 29
7 -4 1 37197.2 1646.62 24
7 -4 1 33711.1 1541.75 37
7 -4 1 36131.6 1516.61 18
7 -4 2 28422 1540.77 29
7 -4 2 25729.5 1239.55 24
7 -4 2 28375.6 1212.5 18
7 -4 3 5837.38 606.153 29
-7 3 5 130.621 145.906 16
-7 3 5 182.283 159.789 19
7 -3 -4 57912.7 1713.61 37
-7 3 4 57309.2 1524.09 19
7 -3 -3 9687.84 781.321 24
7 -3 -2 281.864 246.426 24
7 -3 -1 48993.3 2473.72 29
7 -3 -1 45932.3 2257.57 24
7 -3 0 14402 1290.95 29
7 -3 0 15105.9 1166.44 24
7 -3 0 12574.9 1090.04 37
7 -3 0 13012.6 951 18
7 -3 1 16746.3 1400.49 29
7 -3 1 17292.6 1250.26 24
7 -3 1 16163 1224.67 37
7 -3 1 17818 1118.18 12
7 -3 1 17949.7 1108.55 18
7 -3 2 28760.6 1888.91 29
7 -3 2 29779.9 1646.6 24
7 -3 2 26406.3 1563.62 37
7 -3 2 31032.8 1582.45 12
7 -3 2 29967.3 1495.17 18
7 -3 3 26993.1 1670.11 29
7 -3 3 27004.8 1305.02 24
7 -3 3 29879 1385.35 12
7 -3 3 29582.5 1236.57 18
7 -3 4 11108.5 1035.47 29
7 -3 4 11667.5 888.446 12
7 -3 4 11301.3 728.608 18
7 -3 4 11139.3 936.936 30
7 -3 5 21601.8 1396.02 29
7 -3 5 21709.8 1164.34 12
7 -3 5 22541.6 1294.78 30
7 -2 -6 44767.3 1765.18 39
-7 2 6 43307.2 1743.1 19
-7 2 5 -38.1368 193.589 16
7 -2 -5 471.667 242.674 39
-7 2 5 96.1502 195.574 19
-7 2 4 -45.1189 235.269 16
7 -2 -4 -56.5926 186.364 39
7 -2 -4 -76.7945 251.998 37
-7 2 4 43.8716 194.246 19
7 -2 -3 95484.9 3528.91 24
7 -2 -3 90764.7 3410.17 39
7 -2 -3 94761.5 3661.5 35
7 -2 -2 541.346 306.769 24
7 -2 -2 785.31 421.057 35
7 -2 -1 158.46 313.147 24
7 -2 0 107579 4619.89 29
7 -2 0 110437 4419.12 24
7 -2 0 109635 4114.31 18
7 -2 1 36667.1 2391.15 29
7 -2 1 35796.3 2157.77 24
7 -2 1 37121.7 2191.6 37
7 -2 1 40091.2 2081.38 12
7 -2 1 40680.9 1993.97 18
7 -2 2 5366.4 907.023 29
7 -2 2 4384.79 723.927 24
7 -2 2 4293 691.256 37
7 -2 2 6254.96 819.565 12
7 -2 2 5540.55 666.677 18
7 -2 3 59286.3 3224.59 29
7 -2 3 62452.5 2861.46 24
7 -2 3 59122.1 2832 37
7 -2 3 65705.1 2928.51 12
7 -2 3 67302.1 2680.72 18
7 -2 4 28806.7 2001.44 29
7 -2 4 25369.4 1533.04 24
7 -2 4 25880.4 1571.66 37
7 -2 4 30103.3 1757.54 12
7 -2 4 28558.6 1474.96 18
7 -2 4 28646.5 1882.22 30
7 -2 5 7398.39 904.951 30
7 -2 5 6001.61 860.541 29
7 -2 5 6383.32 778.372 12
7 -2 6 15647.8 1307.02 29
7 -2 6 16342 1124.98 12
7 -2 6 18539.7 1354.77 30
7 -2 7 21157.3 1349.34 29
7 -2 7 18998 1051.37 12
7 -2 7 21222.1 1314.27 30
-7 1 6 4359.9 477.791 16
7 -1 -6 4743.53 527.868 39
-7 1 6 3552.63 450.222 34
-7 1 6 3816.52 457.145 19
-7 1 5 46394.2 2109.67 16
-7 1 5 43363.7 1944.41 22
7 -1 -5 46499.9 2139.23 39
-7 1 5 45600.3 2069.65 19
-7 1 4 1692.39 499.813 16
7 -1 -4 1613.27 436.324 39
-7 1 4 2006.82 419.409 19
-7 1 3 99.8531 338.739 16
7 -1 -3 417.762 302.398 24
7 -1 -3 716.001 354.816 39
7 -1 -3 185.142 292.789 35
-7 1 3 194.048 257.875 19
7 -1 -2 151755 5594.69 24
7 -1 -2 147082 5377.75 39
7 -1 -2 155563 5665.25 35
-7 1 2 151200 5213.15 19
7 -1 -1 2360.5 613.17 24
7 -1 -1 2303.41 495.366 39
7 -1 0 4761.48 809.031 24
7 -1 1 82590.2 3823.43 24
7 -1 1 77996.6 3774.43 37
7 -1 1 90876.5 3830.61 12
7 -1 1 90711.9 3588.36 18
7 -1 2 1824.89 578.096 29
7 -1 2 2155.26 573.723 24
7 -1 2 2545.1 602.183 37
7 -1 2 2243.84 631.297 12
7 -1 2 2330.82 477.23 18
7 -1 3 13506.3 1483.61 29
7 -1 3 13835.5 1275.7 24
7 -1 3 14834.2 1340.64 37
7 -1 3 16291.3 1414.6 12
7 -1 4 36420.7 2468.78 29
7 -1 4 36457.6 2057.99 24
7 -1 4 30137 1948.24 37
7 -1 4 34932.5 2136.72 12
7 -1 4 35071.6 2279.15 30
7 -1 5 40974.5 2569.35 29
7 -1 5 36071.5 2036.72 37
7 -1 5 40326.1 2261.47 12
7 -1 5 42441.8 2530.71 30
7 -1 6 2640.44 689.014 30
7 -1 6 2410.16 666.837 29
7 -1 6 2541.96 591.819 12
7 -1 7 65635 3140.47 29
7 -1 7 60330.7 2644.89 12
7 -1 7 68953.8 3177.35 30
7 -1 8 45520.9 2271.1 29
7 -1 8 49644.7 2334.29 30
-7 0 7 25439.4 1154.94 19
-7 0 6 7338.79 669.9 16
7 0 -6 8393.4 727.002 39
-7 0 6 8399.24 715.627 19
-7 0 6 7793.68 736.338 34
-7 0 5 3716.34 584.246 16
-7 0 5 4054.51 542.575 22
7 0 -5 4658.68 632.035 39
-7 0 5 4780.28 622.491 19
-7 0 4 57240.2 2715.11 16
7 0 -4 55770.6 2693.98 39
-7 0 4 58900.9 2625.39 19
-7 0 3 1980.88 519.722 16
7 0 -3 1784.27 501.292 39
-7 0 3 1618.3 410.498 19
-7 0 2 706.17 382.579 16
7 0 -2 128.837 341.463 24
7 0 -2 790.582 417.094 39
7 0 -2 1036.36 414.972 37
-7 0 2 570.305 347.425 19
7 0 -1 105794 4486.71 24
7 0 -1 106642 4257.77 39
7 0 -1 100906 4352.81 37
7 0 0 300.694 428.251 24
7 0 0 215.192 374.194 39
7 0 0 292.173 416.375 37
7 0 0 893.016 510.677 12
7 0 1 215.729 439.809 24
7 0 1 606.761 386.174 37
7 0 1 -43.9047 384.36 12
7 0 2 63422.2 3229.09 24
7 0 2 62869.3 3227.76 37
7 0 2 65341.6 3307.9 12
7 0 3 1174.98 606.538 29
7 0 3 1146.69 497.583 24
7 0 3 625.823 452.335 37
7 0 3 2514.9 719.557 12
7 0 4 336.219 423.057 29
7 0 4 228.994 367.164 24
7 0 4 816.79 471.153 37
7 0 4 -47.2949 438.336 12
7 0 5 72817.8 3676.63 29
7 0 5 63856.7 2993.68 24
7 0 5 60726.1 3054.19 37
7 0 5 66267.2 3252.84 12
7 0 5 70379.3 3606.56 30
7 0 6 15679.3 1582.18 29
7 0 6 14497.9 1210.6 13
7 0 6 13734.6 1192.08 37
7 0 6 12207.9 1219.8 12
7 0 6 16204.2 1591.56 30
7 0 7 8180.33 1084.6 29
7 0 7 8211.37 842.088 38
7 0 7 9785.19 1005.12 12
7 0 8 57391.1 2959.03 29
7 0 8 57298.6 2431.06 38
7 0 8 56015.4 2444.92 12
7 0 8 60197.8 3055.71 30
7 0 9 41053.1 1881.16 29
7 0 9 47.6933 137.499 38
-7 -1 6 83418.2 3141.64 16
-7 -1 6 84613.4 3142.66 19
-7 -1 6 89220.1 3317.06 34
-7 -1 5 5347.02 691.823 16
-7 -1 5 4056.77 549.023 22
7 1 -5 3300.9 562.352 39
-7 -1 5 4683.59 700.564 34
-7 -1 5 4249.8 582.571 19
-7 -1 4 8548.1 949.905 16
-7 -1 4 10222.1 990.984 22
7 1 -4 9692.99 1010.77 39
-7 -1 4 10115.3 979.911 19
-7 -1 3 120689 4702.45 16
7 1 -3 115218 4652.39 39
-7 -1 3 121242 4510.38 19
-7 -1 2 2630.28 611.318 16
7 1 -2 1381.1 484.442 24
7 1 -2 726.535 409.013 39
-7 -1 2 1928.05 489.452 19
-7 -1 1 272.391 539.212 16
7 1 -1 335.448 476.227 24
7 1 -1 200.194 356.871 39
7 1 -1 161.758 350.371 37
-7 -1 0 69476.1 3181.7 16
7 1 0 68058.2 3421.8 24
7 1 0 70083.1 3242.11 39
7 1 0 65519.6 3285.24 37
7 1 0 76919.5 3686.65 12
-7 -1 -1 1019.65 565.497 49
-7 -1 -1 677.898 623.395 47
7 1 1 746.67 485.275 24
7 1 1 -195.85 343.633 37
7 1 1 1207.32 622.621 8
7 1 1 -433.148 473.151 12
-7 -1 -2 163.624 390.782 49
-7 -1 -2 1359.74 595.079 47
7 1 2 876.299 508.864 24
7 1 2 258.372 346.058 37
7 1 2 393.078 467.688 8
7 1 2 1262.04 607.565 12
-7 -1 -3 69367.7 3694.41 49
-7 -1 -3 76240.8 4149.6 47
7 1 3 73358.6 3476.59 24
7 1 3 71744.4 3489.15 13
7 1 3 68155.1 3423.15 37
7 1 3 72213.2 3652.29 12
7 1 4 229.564 381.399 24
7 1 4 297.687 370.99 38
7 1 4 539.64 433.415 13
7 1 4 539.8 482.967 37
7 1 4 241.658 617.728 12
7 1 5 8116.04 1181.46 30
7 1 5 6399.86 1019.68 29
7 1 5 5742.49 798.719 24
7 1 5 4537.64 761.734 38
7 1 5 5742.36 936.348 13
7 1 5 5732.77 877.966 37
7 1 5 4855 945.946 12
7 1 6 76883.4 3767.19 29
7 1 6 69976.1 3403.96 13
7 1 6 64710.7 3256.09 38
7 1 6 64151.7 3153.64 37
7 1 6 67554.1 3319.32 12
7 1 6 73136.3 3804.9 30
7 1 7 25355.3 1999.46 29
7 1 7 25496.7 1833.69 13
7 1 7 23853.4 1720.59 38
7 1 7 22231.5 1554.07 37
7 1 7 22635.3 1650.05 12
7 1 7 24867.9 2061.88 30
7 1 8 17069.9 1622.22 29
7 1 8 16354.6 1375.32 13
7 1 8 17965.5 1399.51 38
7 1 8 17354.5 1273.01 12
7 1 8 18427.7 1718.99 30
7 1 9 42880.1 2487.92 29
7 1 9 44689.8 2184.7 38
7 1 10 42309.2 1879.49 38
-7 -2 6 34030.2 1622.31 16
-7 -2 6 32452.9 1462.64 20
-7 -2 6 34297.7 1606.46 19
-7 -2 6 33394.1 1719.17 34
-7 -2 5 59773.5 2635.66 16
-7 -2 5 53561.4 2391.66 22
-7 -2 5 60019.3 2388.59 20
-7 -2 5 60061.9 2567.75 19
-7 -2 5 61861.1 2797.95 34
-7 -2 4 17983.5 1407.9 16
-7 -2 4 18672.3 1353.11 22
-7 -2 4 19834.9 1373.82 19
-7 -2 3 14824 1301.69 16
-7 -2 3 15220.8 1277.17 22
7 2 -3 13494.6 1261.47 39
-7 -2 3 14338.3 1182.66 19
-7 -2 2 73289.7 3327.39 16
7 2 -2 70019.2 3328.31 39
-7 -2 2 73819 3172.15 19
-7 -2 1 273.805 337.544 16
7 2 -1 946.424 467.81 24
7 2 -1 867.39 513.68 39
-7 -2 1 -46.4296 277.13 19
7 2 -1 1395.36 619.052 12
-7 -2 0 14420.9 1246.51 16
-7 -2 0 15636.1 1645.78 49
-7 -2 0 18293.6 1879.41 47
7 2 0 14109.6 1401.23 24
7 2 0 12675.2 1462.68 13
7 2 0 12362.7 1206.49 37
7 2 0 15873.5 1653.06 12
-7 -2 -1 132788 4943.64 16
-7 -2 -1 140236 5817.95 49
-7 -2 -1 147440 6242.63 47
7 2 1 132650 5353.47 24
7 2 1 131884 5646.85 13
7 2 1 139395 6044.73 8
7 2 1 130134 5203.1 37
7 2 1 125982 5640.92 12
-7 -2 -2 772.569 514.663 49
-7 -2 -2 835.267 596.989 47
7 2 2 557.897 440.026 24
7 2 2 584.38 510.341 13
7 2 2 587.685 379.183 37
7 2 2 228.041 492.466 8
7 2 2 373.534 515.181 12
-7 -2 -3 1562.5 730.899 47
7 2 3 2346.49 629.863 24
7 2 3 1544.88 672.587 13
7 2 3 1112.89 427.591 37
7 2 3 968.381 514.923 8
7 2 3 2546.8 831.253 12
-7 -2 -4 97717.8 4754.35 47
7 2 4 93655.8 4068.88 24
7 2 4 103127 4607.71 13
7 2 4 88645.5 4360.33 38
7 2 4 94411.7 4151.16 37
7 2 4 92170.9 4298.9 12
7 2 5 3948.64 719.305 24
7 2 5 4300.65 804.678 38
7 2 5 6438.55 1092.47 13
7 2 5 5050.94 826.349 37
7 2 5 6258.14 1008.24 12
7 2 6 14789.1 1248.84 24
7 2 6 16219.5 1587.29 13
7 2 6 16415.9 1581.65 38
7 2 6 16251.1 1428.66 37
7 2 6 14625.7 1238.54 36
7 2 6 14558.5 1384.14 12
7 2 6 18700.5 1844.31 30
7 2 7 110152 4775.27 29
7 2 7 99620.9 4266.61 17
7 2 7 101432 4551.11 13
7 2 7 108482 4633.68 38
7 2 7 101460 4226.11 37
7 2 7 95096 4147.23 12
7 2 7 110928 4963.49 30
7 2 8 16161.7 1585.66 29
7 2 8 16033.8 1302.25 17
7 2 8 16010.9 1202.95 25
7 2 8 15854.7 1462.59 13
7 2 8 17588.4 1503.83 38
7 2 8 15738.5 1267.68 37
7 2 8 12929 1149.36 12
7 2 9 15077.6 1471.1 29
7 2 9 15400.4 1128.55 25
7 2 9 15291.9 1358.19 13
7 2 9 14340.9 1277.21 38
7 2 10 14175 1141.13 38
7 2 11 18626.9 1081.71 38
-7 -3 6 20279.7 1095.12 16
-7 -3 6 19893.9 1023.53 20
-7 -3 6 20772.7 1087.13 19
-7 -3 6 18395.2 1123.07 34
-7 -3 5 12964.1 1015.69 16
-7 -3 5 12126.9 891.711 20
-7 -3 5 11848.9 937.564 19
-7 -3 5 11217.2 999.335 34
-7 -3 4 30491.9 1814.9 16
-7 -3 4 28892.6 1709.96 22
-7 -3 4 29811 1611.88 20
-7 -3 4 28295.3 1668.37 19
-7 -3 4 31710.2 1924.42 34
-7 -3 3 18612.8 1446.36 16
-7 -3 3 19425.5 1462.21 22
7 3 -3 16460.3 1579.07 13
-7 -3 3 20633.1 1322.88 20
-7 -3 3 18902.4 1361.85 19
-7 -3 2 35991.8 2124.06 16
-7 -3 2 37861.7 2194.84 22
7 3 -2 33697 2458.76 13
-7 -3 2 35019.1 1970.49 19
-7 -3 1 66119.5 3066.69 16
7 3 -1 72030 3423.97 24
-7 -3 1 68552.6 3175.02 22
7 3 -1 59179.6 3582.88 13
-7 -3 1 63927.5 2899.35 19
-7 -3 0 1642.87 398.331 16
7 3 0 3685.62 760.122 24
-7 -3 0 2357.67 581.162 22
7 3 0 2154.45 921.867 13
7 3 0 512.323 539.061 12
-7 -3 -1 12341.9 1092.06 16
-7 -3 -1 11630.3 1348.95 49
-7 -3 -1 14580.9 1677.26 47
7 3 1 15287.9 1404.38 24
7 3 1 12927.4 1582.65 8
7 3 1 12590.7 1186.3 37
7 3 1 11835.2 1551.88 13
7 3 1 12234.4 1554.08 12
-7 -3 -2 161431 6385.14 49
-7 -3 -2 173324 7021.96 47
7 3 2 168966 6237.42 24
7 3 2 163545 6904.99 8
7 3 2 167449 6941.11 13
7 3 2 154511 5971.71 37
7 3 2 175721 6757.83 12
-7 -3 -3 2286.83 699.17 47
7 3 3 2666.88 569.484 24
-7 -3 -3 1677.59 620.449 43
7 3 3 3573.31 935.912 13
7 3 3 2481.68 628.269 37
7 3 3 1859.5 708.192 8
7 3 3 1634.98 684.255 12
-7 -3 -4 982.684 596.248 47
7 3 4 1006.91 447.531 24
-7 -3 -4 1077.82 585.149 43
7 3 4 1568.64 721.657 13
7 3 4 1547.12 564.626 37
7 3 4 550.092 604.526 12
-7 -3 -5 147697 6304.63 47
7 3 5 161278 5781.46 24
-7 -3 -5 152218 6707.07 43
7 3 5 159088 6448.71 13
7 3 5 144084 6306.56 38
7 3 5 148401 5775.21 37
7 3 5 154111 5947.7 12
7 3 6 6271.47 802.289 24
7 3 6 5321.64 954.882 38
7 3 6 7633.61 1157.38 13
7 3 6 4979.15 821.698 37
7 3 6 4950.22 788.837 36
7 3 6 5317.85 892.062 12
7 3 7 18540.4 1651.82 17
7 3 7 19802.5 1452.54 25
7 3 7 19598.6 1747.05 13
7 3 7 19467.4 1761.19 38
7 3 7 19698.5 1533.13 37
7 3 7 20389.7 1488.62 36
7 3 7 17310.2 1441.21 12
7 3 8 120480 4908.08 29
7 3 8 105228 4512.18 17
7 3 8 112026 4291.38 25
7 3 8 110289 4756.75 13
7 3 8 104736 4691.56 38
7 3 8 109845 4349.98 37
7 3 8 106637 4159.64 36
7 3 8 99062.3 4068.15 12
7 3 9 15643.8 1333.41 17
7 3 9 15322 1219.13 25
7 3 9 15527.2 1416.9 13
7 3 9 15811.1 1425.45 38
7 3 9 14781.4 1186.68 37
7 3 10 2806.21 494.916 17
7 3 10 4688.61 625.986 25
7 3 10 3044.74 600.348 38
7 3 10 3802.57 700.625 13
7 3 11 71.5107 177.575 17
7 3 11 38263 1536.77 38
-7 -4 5 1852.72 345.021 16
-7 -4 5 2085.94 349.397 20
-7 -4 5 1671.81 377.581 34
-7 -4 5 1529.59 335.897 19
-7 -4 4 18785.8 1308.66 16
-7 -4 4 21052.8 1329.09 22
7 4 -4 17244.6 1488.82 13
-7 -4 4 19827.9 1237 20
-7 -4 4 18352.1 1236.27 19
-7 -4 4 19557.2 1350.52 34
-7 -4 3 30490.6 1828.93 16
-7 -4 3 31838.1 1857.05 22
7 4 -3 29704.5 2212.57 13
-7 -4 3 30687.3 1705.52 20
-7 -4 3 29885.2 1721.64 19
-7 -4 3 30411.8 1864.44 34
-7 -4 2 18138.4 1366.37 16
-7 -4 2 17907.8 1435.35 22
7 4 -2 16476.4 1783.97 13
-7 -4 2 17963.5 1291.72 20
-7 -4 2 17518.5 1319.39 19
-7 -4 2 19289.1 1482 34
-7 -4 1 43950.7 2326.03 16
-7 -4 1 48065.8 2496.55 22
7 4 -1 39603.8 2940.28 13
-7 -4 1 45073.4 2271.26 19
-7 -4 0 29485.4 1798.03 16
7 4 0 34296.2 2192.75 24
-7 -4 0 32520.2 1971.63 22
7 4 0 28825.9 2518.62 13
-7 -4 0 28303.3 1706.86 19
7 4 1 2783.65 688.222 24
-7 -4 -1 1598.02 463.008 22
7 4 1 2011.67 875.047 13
-7 -4 -2 1730.61 748.145 47
7 4 2 2960.12 911.912 6
7 4 2 1434.71 528.197 24
-7 -4 -2 1327.18 461.764 22
7 4 2 816.717 702.058 13
7 4 2 1583.53 588.887 8
7 4 2 1217.59 830.079 12
-7 -4 -3 149885 6416.24 47
7 4 3 154758 5769.73 24
-7 -4 -3 145503 5411.3 22
7 4 3 150443 6447.15 8
7 4 3 160744 6729.77 13
7 4 3 142764 5569.58 37
-7 -4 -4 12217.8 1486.59 47
7 4 4 11470 1197.29 24
-7 -4 -4 12703.3 1530.2 43
7 4 4 12927.2 1277.27 37
7 4 4 13164 1611.94 13
7 4 4 11005.5 1317.35 12
-7 -4 -5 3115.8 854.809 47
7 4 5 2056 586.316 24
7 4 5 2633.08 752.913 13
7 4 5 1993.79 576.742 37
7 4 5 1787.77 506.217 36
7 4 5 2397.1 693.714 12
7 4 6 71923.8 3338.03 25
7 4 6 74908.7 3321.21 24
7 4 6 78122.1 3996.88 13
7 4 6 67924.2 3822.24 38
7 4 6 74985.7 3448.34 37
7 4 6 71002 3312.6 36
7 4 6 67017.2 3330.12 12
7 4 7 2986.07 628.865 25
7 4 7 2132.07 504.549 24
7 4 7 4056.35 913.37 38
7 4 7 1986.46 755.028 13
7 4 7 1649.7 568.082 37
7 4 7 2606.86 551.577 36
7 4 7 1854.8 537.411 12
7 4 8 804.952 462.363 17
7 4 8 403.217 281.283 25
7 4 8 265.634 467.219 38
7 4 8 303.761 472.699 13
7 4 8 436.039 421.737 37
7 4 8 427.277 346.861 36
7 4 9 114440 4700.33 17
7 4 9 117849 4545.75 25
7 4 9 116088 4765.57 13
7 4 9 117626 4837.02 38
7 4 9 120418 4511.07 37
7 4 9 115651 4370.48 36
7 4 10 9442.51 975.859 17
7 4 10 9865.09 950.373 25
7 4 10 9700.65 1020.6 13
7 4 10 10001.1 1008.26 38
7 4 10 8974.61 846.13 37
7 4 11 685.811 321.334 17
7 4 11 1206.47 358.8 25
7 4 11 694.497 288.973 38
-7 -5 5 10688.7 712.596 16
-7 -5 4 1552.39 361.388 16
-7 -5 4 2419.48 401.763 22
7 5 -4 1438.2 503.573 13
-7 -5 4 1524.74 369.513 20
-7 -5 4 1895.03 379.165 19
-7 -5 4 1515.73 329.794 34
-7 -5 3 32995.2 1785.61 16
-7 -5 3 34269.7 1835.93 22
7 5 -3 31866 2254.65 13
-7 -5 3 34414.2 1771.64 20
-7 -5 3 32075.8 1717.61 19
-7 -5 2 55260.4 2539.68 16
-7 -5 2 57737.6 2669.42 22
7 5 -2 49065.4 3211.61 13
-7 -5 2 54238.1 2499.65 20
-7 -5 2 52771.7 2466 19
-7 -5 1 26115.4 1633.8 16
-7 -5 1 27585.3 1778.62 22
7 5 -1 24725.3 2238.54 13
-7 -5 1 25675.9 1611.75 20
-7 -5 1 28524.2 1660.76 19
-7 -5 0 25141.7 1600.29 16
7 5 0 31393.7 2062.36 24
-7 -5 0 28965.5 1817.04 22
7 5 0 25448.1 2368.61 13
-7 -5 0 27135.8 1670.94 20
-7 -5 0 25303.6 1596.01 19
-7 -5 -1 91265.9 3860.35 22
7 5 1 84534.4 4759.11 13
7 5 2 8029.14 1016.06 24
-7 -5 -2 8402.26 953.695 22
7 5 2 6731.99 1262.35 13
7 5 3 -115.058 374.268 24
-7 -5 -3 604.259 328.934 22
7 5 3 -118.083 697.088 13
7 5 4 100498 4179.82 24
7 5 4 97529.4 4869.19 13
7 5 4 98372.2 4045.29 37
7 5 4 100608 4386.1 12
7 5 4 88590.7 3932.5 36
7 5 5 4612.74 813.475 25
7 5 5 5210.6 827.889 24
7 5 5 5475.24 820.873 37
7 5 5 5393.91 1100.39 13
7 5 5 5509.03 813.169 36
7 5 5 4823.9 858.786 12
7 5 6 1387.71 488.147 25
7 5 6 1754.35 495.011 24
7 5 6 1003.9 553.873 13
7 5 6 1086.15 465.729 37
7 5 6 2295.21 596.02 36
7 5 6 1725.63 563.86 12
7 5 7 84019.7 3834.5 25
7 5 7 87571.6 3610.41 24
7 5 7 93146.6 4256.61 13
7 5 7 78116.8 4075.25 38
7 5 7 92646.7 3867.65 37
7 5 7 80738.5 3520.47 12
7 5 7 84941.2 3705.49 36
7 5 8 -94.3894 413.502 17
7 5 8 246.469 358.313 25
7 5 8 195.544 410.523 38
7 5 8 -281.692 449.331 13
7 5 8 771.838 433.395 37
7 5 8 346.388 366.823 36
7 5 9 -465.428 413.412 17
7 5 9 438.395 291.054 25
7 5 9 -354.615 380.46 38
7 5 9 296.303 395.837 13
7 5 9 350.96 330.463 37
7 5 9 505.026 396.884 36
7 5 10 64087 2931.71 17
7 5 10 67352.9 2911.76 25
7 5 10 64519.1 2871.47 13
7 5 10 61360.6 2859.85 38
7 5 10 65849 2795.57 37
7 5 10 60320 2661.11 36
7 5 11 1611.27 436.929 17
7 5 11 2298.83 438.962 25
7 5 11 1972.67 406.538 38
7 5 11 1733.38 359.99 37
7 5 12 7849.45 640.751 17
7 5 12 8479.26 636.173 25
-7 -6 4 4450.33 443.88 16
-7 -6 4 4336.41 450.998 20
-7 -6 3 1097.31 299.019 16
-7 -6 3 349.814 218.054 22
7 6 -3 648.018 481.288 13
-7 -6 3 663.594 315.572 20
-7 -6 2 43710.3 2005.67 16
-7 -6 2 42471.4 2093.74 22
7 6 -2 39268.4 2577.22 13
-7 -6 2 40344.8 2024.07 20
-7 -6 2 43986.3 2021.75 19
-7 -6 1 85625.3 3341.97 16
-7 -6 1 89141.5 3566.13 22
7 6 -1 85846 4358.13 13
-7 -6 1 82421.2 3434.31 20
-7 -6 1 89729.1 3413.14 19
-7 -6 0 19676.7 1279.82 16
-7 -6 0 19440.7 1402.58 22
7 6 0 16019.3 1819.26 13
-7 -6 0 17427 1321.6 20
-7 -6 0 19269.9 1313.68 19
-7 -6 -1 25970.3 1679.77 22
7 6 1 25282.3 2324.47 13
-7 -6 -1 24332.2 1606.89 20
-7 -6 -1 26605 1576.08 19
7 6 2 82159.5 3540.09 24
-7 -6 -2 74342.1 3181.44 22
7 6 2 73361.3 4138.17 13
7 6 2 71056.1 3006.67 36
-7 -6 -2 74174.2 3268.09 33
7 6 3 4769.62 802.599 25
7 6 3 4985.44 817.296 24
-7 -6 -3 5281.28 723.14 22
7 6 3 6108.24 1218.69 13
7 6 3 3690.38 617.784 36
7 6 4 3547.35 752.008 25
7 6 4 3143.15 687.595 24
7 6 4 3671.39 951.366 13
7 6 4 2665.39 560.53 36
7 6 5 64023.9 3322.26 25
7 6 5 70913.6 3212.36 24
7 6 5 70212.2 3740.4 13
7 6 5 68182.7 3115.67 37
7 6 5 65101.3 3055.07 36
7 6 6 2217.15 559.152 25
7 6 6 2012.76 546.273 24
7 6 6 2647.8 749.533 13
7 6 6 2610.58 577.141 37
7 6 6 2174.41 543.989 36
7 6 7 685.925 452.906 25
7 6 7 705.163 486.35 38
7 6 7 440.213 452.691 13
7 6 7 915.012 417.68 37
7 6 7 554.54 432.737 36
7 6 8 70912.7 3367.79 17
7 6 8 71550.6 3354.78 25
7 6 8 72233.5 3352.71 13
-7 -6 -8 65988 2897.8 21
7 6 8 67753.3 3368.29 38
7 6 8 77083.5 3297.69 37
7 6 8 72746.7 3206.47 36
7 6 9 -217.578 368.295 17
7 6 9 -210.128 275.091 25
7 6 9 515.399 335.406 38
7 6 9 324.751 357.081 13
7 6 9 12.9514 367.665 37
7 6 9 41.5073 309.272 36
7 6 10 1072.85 416.186 17
7 6 10 475.871 297.142 25
7 6 10 954.482 385.507 38
7 6 10 1388.7 432.814 13
7 6 10 1449.58 408.018 37
7 6 10 1069.66 377.966 36
7 6 11 37422 1842.19 17
7 6 11 39997.4 1861.44 25
7 6 11 37173.7 1684.43 38
7 6 11 37308.8 1756.15 37
7 6 11 39858.3 1749.25 36
-7 -7 2 16909.9 966.901 16
-7 -7 2 19779.8 1109.66 22
7 7 -2 17534.4 1405.02 13
-7 -7 2 15813.4 1035.11 20
-7 -7 1 20203 1144.32 16
-7 -7 1 21375.8 1317.64 22
7 7 -1 21258.4 1705.76 13
-7 -7 1 20968.2 1312.79 20
-7 -7 0 28535.3 1636.72 22
7 7 0 29442.6 2191.41 13
-7 -7 0 26151.5 1590.26 20
-7 -7 -1 11368.4 991.995 22
-7 -7 -1 8736.93 887.096 20
7 7 1 9825.14 1314.43 13
7 7 2 48244.1 2575.85 25
-7 -7 -2 45359.1 2228.75 22
7 7 2 48997.8 2977.26 13
7 7 3 126253 5155.82 25
-7 -7 -3 124073 4661 22
7 7 3 129078 5540.87 13
-7 -7 -3 136388 4921.3 33
7 7 4 1628.96 567.999 25
7 7 4 2045.9 672.62 13
7 7 4 1962.63 448.429 36
-7 -7 -4 2324.24 559.452 33
7 7 5 35696.5 2297.87 25
7 7 5 35780.5 2358.76 13
7 7 5 38105.4 2006.97 36
-7 -7 -5 34781.7 2095.08 33
7 7 6 52640.3 2847.98 25
7 7 6 56509.8 2906.26 13
7 7 6 53588.3 2547.33 37
7 7 6 52315.6 2526.46 36
-7 -7 -6 48723.2 2610.52 33
7 7 7 4262.06 761.792 25
7 7 7 4412.34 796.008 38
-7 -7 -7 3914.85 652.944 21
7 7 7 4995.33 748.105 13
7 7 7 5191.06 706.589 37
7 7 7 5019.34 723.265 36
-7 -7 -7 4192.94 723.458 33
7 7 8 378.105 366.998 17
7 7 8 303.007 290.62 25
7 7 8 634.161 328.123 38
-7 -7 -8 61.6689 214.782 21
7 7 8 -107.327 346.746 13
7 7 8 547.444 308.953 37
7 7 8 146.124 295.112 36
-7 -7 -8 230.489 334.878 33
7 7 9 92695.1 3466.53 17
7 7 9 91889.4 3527.31 25
7 7 9 81127.4 3224.64 38
7 7 9 98073.5 3475.5 37
7 7 9 91263.2 3362.09 36
-7 -7 -9 89879.4 3296.05 33
7 7 10 -82.1406 257.965 17
7 7 10 6.09452 234.229 25
7 7 10 226.859 339.812 37
7 7 10 191.186 264.775 36
-7 -7 -10 264.031 201.809 33
7 7 11 2654.75 403.432 17
7 7 11 2422.7 389.222 25
7 7 11 1673.85 329.049 37
7 7 11 2811.35 398.72 36
-7 -8 1 5706.64 514.847 22
7 8 -1 5082.18 620.404 13
-7 -8 0 19149.1 1126.36 22
7 8 0 18512.6 1357.39 13
-7 -8 -1 16469.6 1003.34 22
7 8 1 16906.1 1295.2 13
7 8 2 4618.1 728.701 25
-7 -8 -2 3973.94 559.78 22
-7 -8 -2 4277.94 536.712 21
7 8 2 4339.9 716.492 13
7 8 3 25672.2 1755.24 25
-7 -8 -3 25227.8 1467.22 22
-7 -8 -3 25507.1 1522.15 21
7 8 3 23549.2 1715.23 13
-7 -8 -3 29887 1630.05 33
7 8 4 31139.1 1968.79 25
-7 -8 -4 27277.3 1511.76 22
7 8 4 26363.1 1796.43 13
-7 -8 -4 29356.2 1692.7 21
-7 -8 -4 30993.6 1753.38 33
7 8 5 10585.7 1130.99 25
7 8 5 10591.2 1031.88 13
-7 -8 -5 11328.3 1055.66 21
-7 -8 -5 11378.8 1035.1 33
7 8 6 9763.44 1045.63 25
-7 -8 -6 10210.9 965.792 21
7 8 6 9185.47 828.265 36
-7 -8 -6 11197.7 1028.51 33
7 8 7 39337.2 1995.34 17
7 8 7 41064.1 2224.52 25
-7 -8 -7 42539.7 2077.18 21
7 8 7 36043.6 1960.9 38
7 8 7 36889.8 1890.63 37
7 8 7 38284 1896.59 36
-7 -8 -7 42447.5 2115.79 33
7 8 8 469.967 293.062 17
7 8 8 95.3605 296.349 25
-7 -8 -8 13.6431 190.129 21
7 8 8 324.058 286.604 37
7 8 8 249.83 251.286 36
-7 -8 -8 338.828 266.148 33
7 8 9 1831 392.126 17
7 8 9 2174.79 451.071 25
-7 -8 -9 2070.48 348.713 21
7 8 9 2320.93 439.971 37
7 8 9 2043.66 403.302 36
-7 -8 -9 2006.83 390.249 33
7 8 9 2570.25 444.718 32
7 8 10 67824.8 2528.03 17
7 8 10 71844.4 2720.21 25
7 8 10 71855.5 2682.66 37
7 8 10 72747 2646.36 36
-7 -8 -10 67125.3 2466.78 33
-7 -9 -1 45767.7 1754.95 22
7 9 2 12686.4 924.389 25
-7 -9 -2 15432.4 884.772 22
7 9 3 1866.14 410.62 25
-7 -9 -3 1608.4 294.169 22
-7 -9 -3 2193.51 328.636 21
7 9 4 19112.9 1313.98 25
-7 -9 -4 21021.6 1185.36 21
-7 -9 -4 19320.6 1166.25 33
7 9 5 28959 1696.07 25
-7 -9 -5 32007 1587.46 21
-7 -9 -5 29989.7 1573.83 33
7 9 6 13440.6 1082 25
-7 -9 -6 14837.2 1023.93 21
-7 -9 -6 14274.7 1036.36 33
7 9 7 7212.69 751.518 25
-7 -9 -7 6919.51 673.928 21
-7 -9 -7 6317.82 659.978 33
7 9 8 40508.5 1901.26 25
-7 -9 -8 42428.1 1792.4 21
7 9 8 38287.3 1604.11 36
-7 -9 -8 41297.1 1841.24 33
7 9 8 45390.7 1896.65 32
7 9 9 725.689 263.634 25
-7 -9 -9 421.026 156.757 33
7 9 9 1005.19 243.477 32
-8 2 3 490.038 169.758 16
-8 2 2 60320.1 2280.83 16
8 -2 -2 58861.2 2167.4 24
8 -2 -2 62701.4 2297.64 37
-8 2 1 1028.98 267.412 16
8 -2 -1 1396.68 301.293 24
8 -2 -1 1412.03 322.643 37
-8 2 0 382.873 224.66 16
8 -2 0 448.565 247.643 24
8 -2 0 48.0657 190.37 37
8 -2 1 63762.9 2410.78 24
8 -2 1 63394.1 2440.85 37
8 -2 2 20.6952 210.967 24
8 -2 2 -277.524 228.824 37
8 -2 2 273.466 222.219 12
8 -2 3 281.884 230.044 29
8 -2 3 -69.3351 148.841 24
8 -2 3 248.441 165.957 37
8 -2 3 401.729 224.049 12
8 -2 4 35290.3 1493.77 12
-8 1 4 79716.2 2744.21 16
-8 1 3 3623.86 457.061 16
-8 1 2 12879.5 933.566 16
8 -1 -2 13164.4 899.915 24
8 -1 -2 11209.2 858.239 37
-8 1 1 60722 2549.08 16
8 -1 -1 66993.3 2662.05 24
8 -1 -1 59921.7 2608.79 37
-8 1 0 1484 379.554 16
8 -1 0 1701.85 429.699 24
8 -1 0 904.547 329.191 37
-8 1 -1 140.571 226.632 16
8 -1 1 340.169 314.424 24
8 -1 1 226.74 255.125 37
8 -1 1 847.858 359.237 12
8 -1 2 112783 4162.15 24
8 -1 2 106575 4140.95 37
8 -1 2 117841 4076.65 12
8 -1 3 1307.73 391.06 24
8 -1 3 1276.6 418.009 37
8 -1 3 1241.42 391.923 12
8 -1 4 3165.92 568.045 29
8 -1 4 2305.74 405.578 24
8 -1 4 1641.28 366.1 37
8 -1 4 2162.83 464.251 12
8 -1 5 38980.9 1650.07 29
8 -1 5 40970.3 1520.67 12
8 -1 6 10971.9 764.216 12
-8 0 4 15650.4 955.289 16
-8 0 4 15219.8 871.327 22
-8 0 4 13221.1 802.309 19
-8 0 4 15402 975.023 34
-8 0 3 24015.8 1327.77 16
-8 0 3 23775.5 1312.45 22
-8 0 2 25862.6 1502.57 16
8 0 -2 26229.3 1450.76 24
-8 0 1 12096 1002.79 16
8 0 -1 12310.5 1039.42 24
8 0 -1 10309.3 940.471 37
-8 0 0 69254.8 2815.53 16
8 0 0 62762 2889.16 24
8 0 0 60602.9 2846.18 37
-8 0 -1 5633.27 667.142 16
8 0 1 5185.65 768.623 24
8 0 1 5413.67 744.487 37
8 0 1 5846.79 723.556 12
8 0 2 14212.7 1239.2 24
8 0 2 12945.3 1181.22 37
8 0 2 15615.4 1251.02 12
8 0 3 158072 5673.95 24
8 0 3 156764 5723.07 37
8 0 3 172860 5813.06 12
8 0 4 1559.84 406.56 24
8 0 4 878.202 433.963 37
8 0 4 914.433 430.644 12
8 0 5 2627.4 528.208 29
8 0 5 3294.8 510.597 24
8 0 5 3372.15 549.595 37
8 0 5 4038.61 646.329 12
8 0 6 41067.6 2109.82 29
8 0 6 37661.6 1782.44 37
8 0 6 39621.3 1926.17 12
8 0 7 9509.62 855.483 29
8 0 7 8629.65 724.258 12
-8 -1 4 961.438 260.727 16
-8 -1 4 1164.62 259.785 22
-8 -1 4 1015.25 255.207 19
-8 -1 4 1870.65 378.772 34
-8 -1 3 24669.9 1431.96 16
-8 -1 3 25558.9 1424.92 22
-8 -1 3 23780.5 1279.7 19
-8 -1 2 39648.7 2031.36 16
-8 -1 2 43366.2 2118.52 22
8 1 -1 22794.2 1529.82 24
8 1 -1 21568.7 1432.58 37
-8 -1 0 18676.2 1310.2 16
8 1 0 19480.2 1466.52 24
8 1 0 17959.2 1359.33 37
8 1 0 21532.3 1436.14 12
-8 -1 -1 44645.1 2138.49 16
8 1 1 43478.1 2377.52 24
8 1 1 39679.3 2257.14 37
8 1 1 45942.4 2411.85 12
8 1 2 333.219 392.385 24
8 1 2 2020.2 611.099 37
8 1 2 1418.52 578.476 12
8 1 3 1116.89 477.723 24
8 1 3 1191.24 515.799 37
8 1 3 731.955 460.96 12
8 1 4 77342.7 3290.2 24
8 1 4 75125.4 3342.86 37
8 1 4 72718.9 3022.38 36
8 1 4 75506.2 3400.2 12
8 1 5 4167.28 616.128 24
8 1 5 3346.3 607.377 37
8 1 5 4496.84 751.678 12
8 1 6 285.969 243.223 13
8 1 6 27.5433 288.28 37
8 1 6 -17.8006 389.766 12
8 1 7 109684 3023.93 29
8 1 7 107002 2518.87 13
8 1 7 101953 2453.85 37
8 1 7 107783 2651.96 12
8 1 8 4149.47 609.146 29
8 1 8 3342.61 428.55 12
-8 -2 4 16411.2 1025.62 16
-8 -2 4 15237.4 924.987 22
-8 -2 4 16182.1 951.86 19
-8 -2 4 16789.6 1084.79 34
-8 -2 3 6290.73 698.379 16
-8 -2 3 7794.89 760.227 22
-8 -2 3 6080.73 618.578 19
-8 -2 3 6914.92 779.231 34
-8 -2 2 18056 1262.53 16
-8 -2 2 19636.1 1330.52 22
-8 -2 2 17389.6 1120.89 19
-8 -2 1 50125.3 2348.15 16
-8 -2 1 51374.9 2438.59 22
-8 -2 0 3825.94 610.421 16
8 2 0 2189.88 546.262 24
8 2 0 2968.03 562.616 12
-8 -2 -1 21865.1 1384.88 16
8 2 1 20471.4 1573.01 24
8 2 1 22103 1554.93 37
8 2 1 21063.5 1668.51 12
8 2 2 75901.3 3404.94 24
8 2 2 72404.2 3297.95 13
8 2 2 71807.7 3269.5 37
8 2 2 68543.3 3438.93 12
8 2 3 577.765 387.033 24
8 2 3 530.485 362.847 13
8 2 3 1044.45 618.181 37
8 2 3 -38.7111 431.3 12
8 2 4 1887.87 537.028 24
8 2 4 1292.66 468.517 38
8 2 4 1196.57 397.345 13
8 2 4 1116.31 435.347 37
8 2 4 1721.05 650.498 12
8 2 5 61117.3 2787.99 24
8 2 5 62192.9 2943.75 13
8 2 5 57701 2820.28 38
8 2 5 60079.3 2889.46 37
8 2 5 58053.4 2655.09 36
8 2 5 57041.8 2905.25 12
8 2 6 2682.52 495.335 24
8 2 6 3420.82 607.715 38
8 2 6 3141.63 603.822 13
8 2 6 3234.84 608.331 37
8 2 6 2449.8 461.139 36
8 2 6 3095.15 666.787 12
8 2 7 -425.142 315.736 38
8 2 7 400.53 354.705 13
8 2 7 14.7235 277.233 37
8 2 7 348.653 363.328 12
8 2 8 82051 3248.61 13
8 2 8 82930 3199.28 38
8 2 8 79791.5 3059.56 37
8 2 8 79932.6 3040.82 12
8 2 9 1753.09 333.974 38
-8 -3 4 113968 3728.4 16
-8 -3 4 109353 3606.84 19
-8 -3 4 105334 3719.78 34
-8 -3 3 28596.7 1534.51 16
-8 -3 3 28132.5 1526.48 22
-8 -3 3 29915.6 1470.09 19
-8 -3 3 30255 1614.78 34
-8 -3 2 11887.2 994.019 16
-8 -3 2 13110.6 1064.33 22
-8 -3 2 11833.6 903.051 19
-8 -3 2 12115.6 1040.45 34
-8 -3 1 11500.9 1002.96 16
8 3 -1 11759.6 1063.28 24
-8 -3 1 13168.3 1109.68 22
8 3 -1 11823.2 1146.59 13
-8 -3 0 30712.8 1724.46 16
8 3 0 31982.4 1970.42 24
-8 -3 0 31855.8 1859.03 22
8 3 0 29914.1 1994.65 13
8 3 1 12274.3 1170.36 24
-8 -3 -1 12161 1080.37 22
8 3 1 10259.4 1171.8 13
8 3 1 10346.6 1220.4 12
8 3 2 28650.3 1890.45 24
-8 -3 -2 28335.5 1704.37 22
8 3 2 27006.5 1975.77 13
8 3 2 26550.9 1741.28 37
8 3 2 26429 1997.97 12
8 3 3 97530.2 4001.82 24
-8 -3 -3 90973.9 3577.11 22
8 3 3 92034.7 4173.3 13
8 3 3 84865.1 4004.28 38
8 3 3 89286.3 3845.86 37
8 3 3 98359.4 4259.68 12
8 3 4 12610.6 1196.61 24
8 3 4 11880.3 1305.77 13
8 3 4 11025.6 1215.7 38
8 3 4 11933.5 1171.7 37
8 3 4 12388.4 1316.38 12
8 3 5 519.84 374.808 24
8 3 5 -39.2076 339.587 38
8 3 5 -10.2926 402.02 13
8 3 5 125.493 365.748 37
8 3 5 206.186 261.322 36
8 3 5 1042.42 544.732 12
8 3 6 65356.1 2878.55 24
8 3 6 64254.4 3185.51 13
8 3 6 64360.8 3173.71 38
8 3 6 66526.4 3068.73 37
8 3 6 64088.3 2858.05 36
8 3 6 67380.3 3118.36 12
8 3 7 1627.63 458.952 17
8 3 7 995.993 441.476 38
8 3 7 1582.58 544.897 13
8 3 7 1045.13 461.864 37
8 3 7 992.899 339.548 36
8 3 7 1506.14 474.099 12
8 3 8 925.747 337.154 17
8 3 8 736.873 377.503 38
8 3 8 362.206 331.145 13
8 3 8 1628.16 684.414 37
8 3 8 768.002 349.601 12
8 3 9 67651.7 2808.65 13
8 3 9 67857.1 2778.77 38
8 3 9 65297.3 2571.02 37
8 3 10 878.478 271.473 38
-8 -4 3 29020.2 1261.6 16
-8 -4 3 28405.7 1262.82 22
-8 -4 3 29374.7 1199.48 19
-8 -4 3 27515 1208.34 34
-8 -4 2 11297 896.885 16
-8 -4 2 11591.1 936.14 22
8 4 -2 8982.3 956.728 13
-8 -4 2 11820.3 853.052 19
-8 -4 2 11545.9 906.933 34
-8 -4 1 13863.2 1041.78 16
-8 -4 1 14006.7 1131.45 22
8 4 -1 13104.5 1269.37 13
-8 -4 1 12563.2 921.38 19
-8 -4 1 13349.9 1035.99 34
-8 -4 0 38653.3 1915.75 16
8 4 0 40358 2207.66 24
-8 -4 0 38773.2 2076.2 22
8 4 0 38627.7 2421.65 13
8 4 1 57655 2841.61 24
-8 -4 -1 57607.1 2651.5 22
8 4 1 53142.2 3084.5 13
8 4 2 4868.09 775.746 24
-8 -4 -2 4742.06 708.108 22
8 4 2 6047.26 1028.54 13
8 4 3 30126.7 1934.94 24
-8 -4 -3 28431.1 1669.92 22
8 4 3 32071.6 2270.98 13
8 4 3 29793.9 1834.29 37
8 4 3 34020.7 2226.61 12
8 4 4 78720.5 3425.09 24
8 4 4 77664.2 3807.8 13
8 4 4 74005.5 3329.07 37
8 4 4 75965.9 3599.93 12
8 4 4 73675.3 3284.4 36
8 4 5 4625.31 753.331 24
8 4 5 3773.3 777.384 38
8 4 5 4162.11 833.336 13
8 4 5 4077.76 670.393 37
8 4 5 4896.11 729.128 36
8 4 5 4197.95 756.489 12
8 4 6 11021.9 1016.32 24
8 4 6 10294.3 1209.7 38
8 4 6 11207.2 1100.55 37
8 4 6 9594.71 1152.54 13
8 4 6 11465.8 1054.85 36
8 4 6 10863.5 1096.69 12
8 4 7 91525.5 3978.9 17
8 4 7 98392.9 3706.86 24
8 4 7 98218.8 4185.55 13
8 4 7 95767.2 4168.66 38
8 4 7 106680 4025.47 37
8 4 7 98565.9 3821.13 36
8 4 7 96548.1 3823.06 12
8 4 8 170.374 341.174 17
8 4 8 -19.4632 151.389 25
8 4 8 476.851 401.515 38
8 4 8 134.535 356.946 13
8 4 8 623.9 363.152 37
8 4 8 -397.95 274.232 36
8 4 8 717.812 308.393 12
8 4 9 920.959 365.986 17
8 4 9 649.327 219.45 25
8 4 9 146.669 256.165 38
8 4 9 1188.91 431.728 13
8 4 9 829.31 287.384 37
8 4 9 -51.9754 137.233 36
8 4 10 17453.6 1011.71 17
8 4 10 18657.5 1137.08 13
8 4 10 18990.8 1128.43 38
8 4 10 15905.1 925.717 37
-8 -5 3 694.249 200.999 16
-8 -5 2 30692.8 1455.08 16
-8 -5 2 30719.3 1545.52 22
8 5 -2 25649.2 1644 13
-8 -5 2 29940.7 1417.76 19
-8 -5 1 6333.69 628.67 16
-8 -5 1 6443.72 708.349 22
8 5 -1 4346.12 746.545 13
-8 -5 1 5718.93 571.043 19
-8 -5 0 10466.5 825.384 16
-8 -5 0 10888.5 966.234 22
8 5 0 9515.84 1190.95 13
8 5 0 8768.64 781.448 36
-8 -5 -1 57497.1 2665.65 22
8 5 1 56331.9 3216.87 13
8 5 2 49416.5 2469.06 24
-8 -5 -2 43570.3 2183.96 22
8 5 2 42294 2718.94 13
8 5 2 43194.8 2179.84 36
8 5 3 10466.8 1072.25 24
-8 -5 -3 9436.55 886.456 22
8 5 3 8967.93 1228.23 13
8 5 3 10024.4 960.428 36
8 5 4 24558.6 1662.18 24
8 5 4 22548.2 1930.02 13
8 5 4 23193.1 1541.85 37
8 5 4 22239.2 1524.74 36
8 5 5 31568 1897.49 24
8 5 5 31269.8 2194.25 13
8 5 5 29735.4 1820.59 37
8 5 5 32762.6 1894.2 36
8 5 6 8716.12 908.541 24
8 5 6 8668.57 1106.09 38
8 5 6 8594.08 954.333 37
8 5 6 7786.32 1020.3 13
8 5 6 8797.46 940.434 36
8 5 7 9787.45 881.372 25
8 5 7 9289.75 878.61 24
8 5 7 10332.1 1140.92 13
8 5 7 8264.39 1063.8 38
8 5 7 9473.93 961.948 37
8 5 7 9834.24 951.426 36
8 5 8 37449.3 2071.82 17
8 5 8 35884.5 1826.41 25
8 5 8 36210.6 2061.34 13
8 5 8 34594.6 2073.64 38
8 5 8 39991.4 2016.82 37
8 5 8 36774.2 1891.46 36
8 5 9 270.465 261.444 17
8 5 9 187.933 194.525 25
8 5 9 389.882 326.43 38
8 5 9 -49.9056 264.849 13
8 5 9 437.388 288.047 37
8 5 9 169.152 227.232 36
8 5 10 3247.92 468.148 17
8 5 10 3449.27 411.416 25
8 5 10 3499.83 490.75 38
8 5 10 3367.39 485.766 13
8 5 10 3169.03 422.055 37
-8 -6 2 3470.39 395.682 22
8 6 -2 2321.79 445.449 13
-8 -6 1 25031.8 1168.42 16
-8 -6 1 27272.4 1381.2 22
8 6 -1 24199.2 1601.29 13
-8 -6 0 8963.94 808.852 22
8 6 0 7417.7 979.724 13
-8 -6 -1 7758.24 776.322 22
8 6 1 7211.2 1021.13 13
-8 -6 -2 43232.5 2060.31 22
8 6 2 43546.1 2635.02 13
8 6 2 39709.1 1926.99 36
8 6 3 57162.8 2641.66 24
-8 -6 -3 48690.7 2259.47 22
8 6 3 53614.9 2980.41 13
8 6 3 50957.1 2328.3 36
-8 -6 -3 49290.9 2394.22 33
8 6 4 2155.4 629.976 24
8 6 4 1729.63 577.981 13
8 6 4 1099.52 374.578 36
8 6 5 30238.8 1797.32 24
8 6 5 32527.7 2130.84 13
8 6 5 28707.2 1674.78 37
8 6 5 28878.1 1701.32 36
8 6 6 26813.8 1591.91 25
8 6 6 26937.4 1863.58 13
8 6 6 25817.2 1876.17 38
8 6 6 26586.1 1628.3 37
8 6 6 29301.5 1685.28 36
8 6 7 452.64 308.079 25
8 6 7 343.437 329.662 38
8 6 7 650.368 469.796 13
8 6 7 483.499 335.958 37
8 6 7 836.7 355.829 36
8 6 8 3833.3 631.631 17
8 6 8 5221.45 628.552 25
8 6 8 4057.79 675.51 38
8 6 8 4472.47 664.505 13
8 6 8 4312.07 598.891 37
8 6 8 5012.56 642.904 36
8 6 9 27573.6 1530.78 17
8 6 9 25322.8 1373.95 25
8 6 9 23788.2 1405.35 13
8 6 9 25105.6 1454.41 38
8 6 9 27215.7 1466.39 37
8 6 9 24968.7 1368.89 36
8 6 10 4480.38 510.491 17
8 6 10 4642.78 488.335 25
8 6 10 4311.41 486.598 13
8 6 10 4869.86 511.322 38
8 6 10 5472.32 547.37 37
8 6 10 5165.85 497.458 36
-8 -7 0 67318.3 2510.85 22
8 7 0 64616.2 2855.56 13
-8 -7 -1 9536.01 732.375 22
8 7 1 10557.6 1015.51 13
-8 -7 -2 1771.19 362.61 22
8 7 2 3174.64 699.605 13
-8 -7 -3 22838.7 1251.32 22
8 7 3 22817 1643.12 13
8 7 4 3401.71 678.033 13
8 7 4 4145.22 516.244 36
-8 -7 -4 4662.97 607.795 33
8 7 5 13100 1025.88 25
8 7 5 15254.1 1279.21 13
8 7 5 13875.7 1013.5 36
-8 -7 -5 13052.1 1056.13 33
8 7 6 21328.6 1360.79 25
8 7 6 21825 1487.19 13
8 7 6 21320.6 1526.41 38
8 7 6 20982.2 1268.02 37
8 7 6 21219.9 1317.81 36
-8 -7 -6 21746.5 1397.72 33
8 7 7 29224.4 1630.4 25
8 7 7 33155.3 1781.81 13
-8 -7 -7 30220.2 1579.18 21
8 7 7 30743.1 1793.28 38
8 7 7 32777.1 1653.97 37
8 7 7 31830.1 1641.55 36
-8 -7 -7 31412.2 1682.81 33
8 7 8 2360.25 456.995 17
8 7 8 2258.34 423.976 25
-8 -7 -8 2379.1 354.538 21
8 7 8 1595.03 420.466 38
8 7 8 2317.58 438.117 13
8 7 8 2826.19 463.289 37
8 7 8 3248.66 495.432 36
-8 -7 -8 2376.16 413.477 33
8 7 9 19404.3 1157.08 17
8 7 9 19094.6 1107.58 25
8 7 9 17382.7 1008.08 13
8 7 9 16828.2 1036.41 38
8 7 9 18440.3 1093.97 37
8 7 9 18995.2 1097 36
-8 -7 -9 18360.8 1043.03 33
8 7 10 39717.7 1648.97 17
8 7 10 37921.5 1616.45 37
8 7 10 40907.2 1613.36 36
-8 -8 -2 1732.49 272.731 22
8 8 2 2323.44 424.408 13
-8 -8 -3 211.969 149.382 22
-8 -8 -3 279.037 180.451 21
8 8 3 324.909 256.838 13
8 8 4 33673.9 1481.6 13
-8 -8 -4 35255.4 1365.12 21
-8 -8 -4 34585.7 1314.78 33
8 8 5 13379.4 964.691 25
8 8 5 15989.2 1077 13
-8 -8 -5 18038.1 1092.52 21
8 8 5 13926 1094.31 38
-8 -8 -5 17607.9 1080.74 33
8 8 6 1391.22 327.533 25
-8 -8 -6 1829.12 362.846 21
8 8 6 2574.54 439.994 38
8 8 6 1969.4 381.861 13
8 8 6 1805.64 331.819 36
-8 -8 -6 1758.16 379.798 33
8 8 7 37490.4 1670.82 17
8 8 7 34369.8 1651.86 25
-8 -8 -7 36785 1622.64 21
8 8 7 31020.3 1575.58 38
8 8 7 35518.2 1554.18 36
-8 -8 -7 35750.8 1669.17 33
8 8 8 28169.9 1332.68 17
8 8 8 27041.5 1359.84 25
-8 -8 -8 28736.6 1261.63 21
8 8 8 25257.8 1248.86 37
8 8 8 28813.3 1311.65 36
-8 -8 -8 29456.7 1389.07 33
-9 0 0 23711.3 1106.85 22
9 0 1 13952.6 854.268 24
9 0 1 14521.7 855.629 37
9 0 2 9777.89 704.229 24
9 0 2 8869.64 676.7 37
9 0 3 1217.78 263.648 24
9 0 3 996.489 234.749 37
-9 -1 1 3161.93 390.51 22
-9 -1 0 12378.6 739.274 16
9 1 0 13726.6 861.46 24
-9 -1 0 12612.6 832.315 22
9 1 1 32456 1549.32 24
-9 -1 -1 31456.5 1452.04 22
9 1 1 30757.6 1486.96 37
9 1 2 33219.9 1596.26 24
-9 -1 -2 30217.7 1380.85 22
9 1 2 31196.7 1558.13 37
9 1 2 34380.2 1535.9 12
9 1 2 29304.9 1396.09 36
9 1 3 5322.96 573.228 24
9 1 3 4211.47 504.941 37
9 1 3 4361.4 523.926 12
9 1 4 21166.9 1182.32 24
9 1 4 22592.8 1251.56 37
9 1 4 24331.3 1279.23 12
9 1 5 58121.7 2273.83 37
9 1 5 61505.9 2327.23 12
-9 -2 1 28748.1 1285.26 16
-9 -2 1 31437.4 1428.11 22
-9 -2 0 11980.9 746.626 16
9 2 0 11766.8 833.138 24
-9 -2 0 12075.5 853.667 22
9 2 1 14265.7 1006.41 24
-9 -2 -1 14084.6 939.897 22
9 2 1 13410.6 902.674 37
9 2 2 38213.5 1881.75 24
-9 -2 -2 39584.3 1721.69 22
9 2 2 36889.2 1802.36 37
9 2 2 41317.5 1887.91 12
9 2 3 41507.4 1911.03 24
9 2 3 37638 1844.74 37
9 2 3 38228.9 1884.35 12
9 2 3 35887.5 1723.22 36
9 2 4 4076.47 549.48 24
9 2 4 3939.95 545.965 37
9 2 4 3465.67 449.171 36
9 2 4 2955.76 523.987 12
9 2 5 14357.1 864.976 24
9 2 5 16471.3 986.984 37
9 2 5 15026.7 978.44 12
9 2 6 29064.6 1420.53 37
9 2 6 28063.6 1420.31 12
-9 -3 1 3109.25 408.09 22
9 3 0 46549 2007.73 24
-9 -3 0 54413.9 2142.5 22
9 3 1 20186.2 1249.3 24
-9 -3 -1 21128.8 1201.45 22
9 3 2 2777.23 501.042 24
-9 -3 -2 3102.35 434.198 22
9 3 2 3292.33 456.339 37
9 3 3 33763.6 1743.32 13
9 3 3 37945.2 1828.3 37
9 3 3 35974.3 1781.07 36
9 3 4 28824.1 1391.78 24
9 3 4 25945.7 1291.38 13
9 3 4 24584.1 1293.87 37
9 3 4 24759.8 1386.31 12
9 3 4 27280 1281.16 36
9 3 5 2426.71 420.815 24
9 3 5 2737.82 446.618 13
9 3 5 3131.39 500.218 37
9 3 5 2291.03 385.13 36
9 3 5 3132.03 513.478 12
9 3 6 31262.3 1450.42 24
9 3 6 29133.6 1506.22 13
9 3 6 26563.1 1399.31 38
9 3 6 31827 1583.07 37
9 3 6 33504.7 1602.12 12
9 3 6 29626.3 1399.49 36
9 3 7 15947.7 989.401 13
9 3 7 17082.1 960.964 38
9 3 7 19180.4 1067.66 37
9 3 7 17494.4 990.783 12
-9 -4 1 2073.02 330.608 22
-9 -4 0 5037.88 530.326 22
9 4 0 4875.14 487.646 36
9 4 1 35015 1711.66 24
-9 -4 -1 36303.2 1656.08 22
9 4 1 33984.9 1704.97 13
9 4 1 34694.7 1634.2 36
9 4 2 10836.1 883.266 24
-9 -4 -2 10759.3 766.476 22
9 4 2 9661.01 846.513 13
9 4 2 10373.4 804.838 36
9 4 3 8649.05 823.107 24
-9 -4 -3 8308.46 660.63 22
9 4 3 6428.27 726.25 38
9 4 3 9546.63 769.659 37
9 4 3 6812.97 769.352 13
9 4 3 9343.7 803.697 36
9 4 4 53835.9 2304.17 24
9 4 4 52051.1 2366.54 13
9 4 4 47666.5 2156.15 37
9 4 4 48837.8 2176.17 36
9 4 5 16521.7 1113.62 24
9 4 5 16392.4 1177.15 13
9 4 5 14469 1085.19 38
9 4 5 15394.5 1092.3 37
9 4 5 15268.2 1048.23 36
9 4 6 4384.41 532.846 17
9 4 6 3348.8 472.933 24
9 4 6 4231.6 548.783 38
9 4 6 4613.36 587.666 13
9 4 6 5537.02 620.897 37
9 4 6 4233.11 509.334 36
9 4 7 22679.9 1160.82 13
9 4 7 22076.1 1115.53 38
9 4 7 23015.5 1113.65 37
9 4 7 21292.4 973.763 36
9 4 8 28820.7 1371.33 13
9 4 8 28069.5 1326.64 38
9 4 8 29156.7 1334.63 37
-9 -5 0 903.212 230.729 22
-9 -5 -1 1643.17 324.981 22
9 5 1 1350.76 343.024 13
9 5 1 1514.45 294.571 36
9 5 2 42392.7 1886.35 24
-9 -5 -2 37746.4 1664.45 22
9 5 2 39503.5 1960.49 13
9 5 2 33634.3 1813.01 38
9 5 2 37702.7 1705.32 36
9 5 3 1231.93 366.393 24
-9 -5 -3 1182.32 273.794 22
9 5 3 1151.42 356.254 38
9 5 3 1818.7 471.341 13
9 5 3 1376.69 335.209 36
9 5 4 5944.51 672.582 24
9 5 4 5016.58 663.33 38
9 5 4 5208.48 583.123 37
9 5 4 5520.09 718.309 13
9 5 4 5240.95 599.176 36
9 5 5 51724.7 2182.77 24
9 5 5 50720.8 2347.18 13
9 5 5 44927.8 2245.81 38
9 5 5 46833.1 2073.45 37
9 5 5 50528.5 2148.04 36
9 5 6 5516.63 636.49 17
9 5 6 6218.13 626.26 24
9 5 6 4837.21 620.494 38
9 5 6 6307.89 640.067 37
9 5 6 6211.43 724.126 13
9 5 6 6494.44 654.866 36
9 5 7 6747.25 652.124 17
9 5 7 6929.35 690.987 13
9 5 7 6756.1 686.977 38
9 5 7 7476.26 672.208 37
9 5 7 7214.38 639.817 36
9 5 8 21381.1 1159.17 13
9 5 8 21156.1 1147.77 38
9 5 8 22179.5 1123.21 37
9 6 1 1683.98 352.344 13
-9 -6 -2 639.994 193.45 22
9 6 2 907.657 309.873 13
9 6 3 38215.8 1859.91 13
9 6 3 35133 1524.1 36
9 6 4 3607.86 549.933 38
9 6 4 4393.6 606.104 13
9 6 4 3657.69 435.902 36
9 6 5 5684.84 668.338 38
9 6 5 5486.65 662.538 13
9 6 5 6599.51 613.364 36
-9 -6 -5 6208.38 598.853 33
9 6 6 60048.3 2444.72 17
9 6 6 60951.8 2497.07 13
9 6 6 55961.6 2436.9 38
9 6 6 58687.6 2239.16 37
9 6 6 61754.2 2326.03 36
-9 -6 -6 55204.7 2286.48 33
9 6 7 16251.6 1012.9 17
9 6 7 15169.1 994.532 13
9 6 7 14703.7 990.716 38
9 6 7 16018.8 928.281 37
9 6 7 16067 937.505 36
-9 -6 -7 15243.9 935.131 33
9 7 3 587.049 236.121 13
9 7 4 37090.8 1663.51 13
-9 -7 -4 36210 1522.86 21
9 7 4 32890.6 1627.29 38
9 7 5 5359.96 557.055 13
-9 -7 -5 5498.01 495.708 21
9 7 5 5930.04 606.479 38
9 7 6 2221.94 354.509 17
9 7 6 2100.18 346.413 38
-9 -7 -6 2747.87 338.962 21
9 7 6 2509.48 383.339 13
-9 -7 -6 3382.77 380.816 33
