#------------------------------------------------------------------------------
#$Date: 2022-02-04 21:20:07 +0200 (Fri, 04 Feb 2022) $
#$Revision: 272613 $
#$URL: file:///home/coder/svn-repositories/cod/cif/7/24/42/7244257.cif $
#------------------------------------------------------------------------------
#
# This file is available in the Crystallography Open Database (COD),
# http://www.crystallography.net/
#
# All data on this site have been placed in the public domain by the
# contributors.
#
data_7244257
loop_
_publ_author_name
'Yu, Xu'
'Tang, Baolei'
'Zhang, Hongyu'
_publ_section_title
;
 A controllable and defectless cutting postprocess method via cleavage of
 an elastic cocrystal based on pyrene and tetrachloroterephthalonitrile
;
_journal_issue                   5
_journal_name_full               CrystEngComm
_journal_page_first              942
_journal_page_last               946
_journal_paper_doi               10.1039/D1CE01438B
_journal_volume                  24
_journal_year                    2022
_chemical_formula_moiety         'C4 Cl2 N, C8 H5'
_chemical_formula_sum            'C12 H5 Cl2 N'
_chemical_formula_weight         234.07
_chemical_name_systematic
'Pyrene-Tetrachloroterephthalonitrile Cocrystal'
_space_group_crystal_system      monoclinic
_space_group_IT_number           14
_space_group_name_Hall           '-P 2yn'
_space_group_name_H-M_alt        'P 1 21/n 1'
_atom_sites_solution_hydrogens   geom
_atom_sites_solution_primary     dual
_audit_creation_date             2020-01-02
_audit_creation_method
;
Olex2 1.3
(compiled 2019.09.11 svn.r3662 for OlexSys, GUI svn.r5938)
;
_audit_update_record
;
2021-05-18 deposited with the CCDC.	2022-01-03 downloaded from the CCDC.
;
_cell_angle_alpha                90
_cell_angle_beta                 104.9830(10)
_cell_angle_gamma                90
_cell_formula_units_Z            4
_cell_length_a                   7.1397(3)
_cell_length_b                   16.0756(6)
_cell_length_c                   8.9196(3)
_cell_measurement_reflns_used    8674
_cell_measurement_temperature    110.0
_cell_measurement_theta_max      27.46
_cell_measurement_theta_min      2.53
_cell_volume                     988.94(6)
_computing_cell_refinement       'SAINT V8.40A (?, 2016)'
_computing_data_reduction        'SAINT V8.40A (?, 2016)'
_computing_molecular_graphics    'Olex2 1.3 (Dolomanov et al., 2009)'
_computing_publication_material  'Olex2 1.3 (Dolomanov et al., 2009)'
_computing_structure_refinement  'ShelXL 2018/3 (Sheldrick, 2015)'
_computing_structure_solution    'SHELXT 2018/2 (Sheldrick, 2018)'
_diffrn_ambient_temperature      110.0
_diffrn_measured_fraction_theta_full 0.996
_diffrn_measured_fraction_theta_max 0.992
_diffrn_measurement_device_type  'CCD area detector'
_diffrn_measurement_method       'phi and omega scans'
_diffrn_radiation_monochromator  graphite
_diffrn_radiation_type           MoK\a
_diffrn_radiation_wavelength     0.71073
_diffrn_reflns_av_R_equivalents  0.0584
_diffrn_reflns_av_unetI/netI     0.0363
_diffrn_reflns_Laue_measured_fraction_full 0.996
_diffrn_reflns_Laue_measured_fraction_max 0.992
_diffrn_reflns_limit_h_max       9
_diffrn_reflns_limit_h_min       -8
_diffrn_reflns_limit_k_max       20
_diffrn_reflns_limit_k_min       -20
_diffrn_reflns_limit_l_max       11
_diffrn_reflns_limit_l_min       -11
_diffrn_reflns_number            15405
_diffrn_reflns_point_group_measured_fraction_full 0.996
_diffrn_reflns_point_group_measured_fraction_max 0.992
_diffrn_reflns_theta_full        25.242
_diffrn_reflns_theta_max         27.487
_diffrn_reflns_theta_min         2.534
_exptl_absorpt_coefficient_mu    0.613
_exptl_absorpt_correction_type   none
_exptl_crystal_colour            'clear greenish green'
_exptl_crystal_colour_lustre     clear
_exptl_crystal_colour_modifier   greenish
_exptl_crystal_colour_primary    green
_exptl_crystal_density_diffrn    1.572
_exptl_crystal_description       plate
_exptl_crystal_F_000             472
_refine_diff_density_max         0.194
_refine_diff_density_min         -0.244
_refine_diff_density_rms         0.048
_refine_ls_extinction_method     none
_refine_ls_goodness_of_fit_ref   1.135
_refine_ls_hydrogen_treatment    constr
_refine_ls_matrix_type           full
_refine_ls_number_parameters     136
_refine_ls_number_reflns         2258
_refine_ls_number_restraints     0
_refine_ls_restrained_S_all      1.135
_refine_ls_R_factor_all          0.0744
_refine_ls_R_factor_gt           0.0478
_refine_ls_shift/su_max          0.000
_refine_ls_shift/su_mean         0.000
_refine_ls_structure_factor_coef Fsqd
_refine_ls_weighting_details
'w=1/[\s^2^(Fo^2^)+(0.0002P)^2^+0.7901P] where P=(Fo^2^+2Fc^2^)/3'
_refine_ls_weighting_scheme      calc
_refine_ls_wR_factor_gt          0.0847
_refine_ls_wR_factor_ref         0.0967
_reflns_Friedel_coverage         0.000
_reflns_number_gt                1656
_reflns_number_total             2258
_reflns_threshold_expression     'I > 2\s(I)'
_cod_data_source_file            d1ce01438b2.cif
_cod_data_source_block           mo_yuxu_1_0m
_cod_depositor_comments
'Adding full bibliography for 7244257--7244258.cif.'
_cod_database_code               7244257
_shelx_shelxl_version_number     2018/3
_shelx_space_group_comment
;
The symmetry employed for this shelxl refinement is uniquely defined
by the following loop, which should always be used as a source of
symmetry information in preference to the above space-group names.
They are only intended as comments.
;
_olex2_refinement_description
;
1. Fixed Uiso
 At 1.2 times of:
  All C(H) groups
2.a Aromatic/amide H refined with riding coordinates:
 C11(H00B), C12(H00C), C10(H00D), C6(H00E), C5(H00F)
;
_shelx_res_file
;
TITL mo_yuxu_1_0m_a.res in P2(1)/n
    mo_yuxu_1_0m.res
    created by SHELXL-2018/3 at 16:07:19 on 02-Jan-2020
REM Old TITL mo_YuXu_1_0m in P21/n #14
REM SHELXT solution in P2(1)/n: R1 0.158, Rweak 0.009, Alpha 0.019
REM <I/s> 0.879 for 83 systematic absences, Orientation as input
REM Formula found by SHELXT: C12 Cl2 N
CELL 0.71073 7.1397 16.0756 8.9196 90 104.983 90
ZERR 4 0.0003 0.0006 0.0003 0 0.001 0
LATT 1
SYMM 0.5-X,0.5+Y,0.5-Z
SFAC C H Cl N
UNIT 48 20 8 4

L.S. 100
PLAN  5
TEMP -163.15
CONF
BOND
list 4
fmap 2
acta
MORE -1
BOND $H
REM <olex2.extras>
REM <HklSrc "%.\\mo_YuXu_1_0m.hkl">
REM </olex2.extras>

WGHT    0.000200    0.790100
FVAR       0.58812
CL01  3    0.632868    0.585293    0.822585    11.00000    0.06586    0.06729 =
         0.04094   -0.01187    0.00335    0.00482
CL02  3    0.555849    0.392623    0.797683    11.00000    0.06610    0.06550 =
         0.04417    0.01248    0.01119    0.00185
C003  1    0.539077    0.584889    0.510869    11.00000    0.03180    0.04632 =
         0.04228   -0.00191    0.00876    0.00427
C004  1    0.024952    0.542732    0.510549    11.00000    0.02674    0.05317 =
         0.04237   -0.00304    0.00996    0.00476
C005  1    0.523225    0.452953    0.635178    11.00000    0.03210    0.04993 =
         0.03826    0.00330    0.00743    0.00662
C006  1    0.560930    0.537536    0.645692    11.00000    0.03525    0.04860 =
         0.03438   -0.00509    0.00480    0.00421
N007  4    0.612880    0.741684    0.528263    11.00000    0.08975    0.05855 =
         0.06496   -0.00539    0.02019   -0.01508
C008  1    0.580410    0.672388    0.520967    11.00000    0.04995    0.05155 =
         0.04715   -0.00158    0.01208   -0.00258
C009  1    0.086232    0.576576    0.661895    11.00000    0.03543    0.06217 =
         0.04951   -0.01202    0.01038    0.00235
C00A  1    0.014557    0.594649    0.379324    11.00000    0.03636    0.05720 =
         0.05371    0.00608    0.01584    0.00861
C00B  1   -0.046955    0.557851    0.228290    11.00000    0.05118    0.08549 =
         0.04352    0.01194    0.01262    0.01044
AFIX  43
H00B  2   -0.054048    0.591557    0.139510    11.00000   -1.20000
AFIX   0
C00C  1   -0.094659    0.477448    0.208699    11.00000    0.04631    0.09334 =
         0.04008   -0.01044    0.00765    0.00503
AFIX  43
H00C  2   -0.135157    0.455567    0.106467    11.00000   -1.20000
AFIX   0
C00D  1    0.135404    0.661040    0.677972    11.00000    0.05083    0.07462 =
         0.07203   -0.02932    0.01917   -0.00212
AFIX  43
H00D  2    0.175464    0.684876    0.778668    11.00000   -1.20000
AFIX   0
C00E  1    0.066420    0.678142    0.402602    11.00000    0.05994    0.05564 =
         0.08406    0.01397    0.02959    0.00853
AFIX  43
H00E  2    0.060189    0.713339    0.315891    11.00000   -1.20000
AFIX   0
C00F  1    0.126411    0.709740    0.550088    11.00000    0.06699    0.05340 =
         0.10368   -0.01176    0.03654   -0.00227
AFIX  43
H00F  2    0.162555    0.766655    0.563970    11.00000   -1.20000
AFIX   0
HKLF 4




REM  mo_yuxu_1_0m_a.res in P2(1)/n
REM wR2 = 0.0967, GooF = S = 1.135, Restrained GooF = 1.135 for all data
REM R1 = 0.0478 for 1656 Fo > 4sig(Fo) and 0.0744 for all 2258 data
REM 136 parameters refined using 0 restraints

END

WGHT      0.0001      0.7901

REM Highest difference peak  0.194,  deepest hole -0.244,  1-sigma level  0.048
Q1    1   0.5620  0.5590  0.4455  11.00000  0.05    0.19
Q2    1   0.2086  0.7538  0.6605  11.00000  0.05    0.19
Q3    1   0.5089  0.7129  0.4647  11.00000  0.05    0.18
Q4    1   0.0000  0.5000  0.5000  10.50000  0.05    0.18
Q5    1  -0.0415  0.5725  0.3163  11.00000  0.05    0.17
;
_shelx_res_checksum              85032
_shelx_hkl_file
;
   1   0   0    5.50    0.60
   1   0   0    6.80    0.90
   1   0   0    6.90    0.70
  -1   0   0    5.20    0.70
  -3   0   0    1.00    0.70
   3   0   0    0.90    0.90
   3   0   0    0.20    0.70
   4   0   0  248.48   14.10
   4   0   0  237.68   14.00
   5   0   0    0.00    1.30
   5   0   0   -1.20    1.20
   5   0   0   -0.30    1.00
   6   0   0   22.70    3.20
   6   0   0   23.60    3.40
   6   0   0   22.20    3.60
   6   0   0   24.20    3.70
   7   0   0    0.70    1.30
   7   0   0    1.70    1.70
   7   0   0   -2.10    1.70
   8   0   0   -2.20    2.10
   8   0   0   -1.30    1.50
   8   0   0    0.30    1.70
  -1  -1   0  316.47   16.30
   1  -1   0  343.57   16.30
  -1  -1   0  294.47   16.40
   1  -1   0  334.07   16.60
   1   1   0  343.27   16.40
  -1   1   0  279.37   16.50
  -1   1   0  313.67   16.20
   2  -1   0 2991.50  156.58
   2  -1   0 3090.59  156.08
  -2   1   0 3042.60  156.58
   2   1   0 3178.28  156.38
   2   1   0 3156.28  156.18
  -2   1   0 3066.49  156.18
   3  -1   0   11.50    1.50
   3  -1   0   13.40    1.90
   3   1   0   10.80    1.40
  -3   1   0   11.00    1.50
  -3   1   0   12.30    2.00
   3   1   0   11.90    1.90
   3   1   0   11.40    1.50
   3   1   0   10.80    1.60
   4  -1   0    2.90    1.50
   4  -1   0    0.10    1.00
  -4   1   0    2.80    1.10
   4   1   0    1.30    1.40
   4   1   0    2.10    1.10
   4   1   0    2.70    1.30
   5  -1   0    9.60    2.30
   5  -1   0    6.80    1.50
   5  -1   0    9.60    2.30
   5   1   0    6.90    1.70
   5   1   0    6.20    2.10
   5   1   0    7.10    1.80
   5   1   0    6.00    1.50
   6  -1   0   71.79    6.20
   6  -1   0   69.49    5.30
   6  -1   0   74.69    6.40
   6   1   0   76.09    6.10
   6   1   0   72.59    5.40
   6   1   0   68.89    5.70
   6   1   0   74.99    6.30
   7  -1   0   -2.40    1.50
   7  -1   0   -0.60    1.70
   7  -1   0   -0.60    1.40
   7   1   0    2.20    1.40
   7   1   0    1.60    1.70
   7   1   0   -0.60    1.80
   8  -1   0   -0.50    1.90
   8  -1   0   -2.50    1.90
   8   1   0   -2.20    2.10
   8   1   0    2.50    1.90
   0   2   0 2140.19  108.59
   1  -2   0   12.80    1.30
  -1  -2   0   11.80    1.00
  -1  -2   0   11.80    1.20
   1   2   0   13.30    1.30
   1   2   0   11.90    1.00
  -1   2   0   13.20    1.50
  -1   2   0   12.20    0.90
  -2  -2   0 1292.77   66.69
   2  -2   0 1285.07   66.99
   2   2   0 1323.17   66.79
   2   2   0 1345.67   66.69
  -2   2   0 1296.37   66.99
   3  -2   0  156.98   10.40
   3  -2   0  157.28    8.60
   3   2   0  158.18    9.00
   3   2   0  157.48    8.80
  -3   2   0  156.68    9.30
  -3   2   0  146.19    8.50
   4  -2   0  120.29    7.80
   4  -2   0  117.49    7.00
  -4   2   0  114.29    7.00
   4   2   0  115.29    7.40
   4   2   0  119.99    7.80
   4   2   0  112.39    7.20
  -4   2   0  120.69    7.90
   5  -2   0  184.48   10.40
   5  -2   0  178.18   11.40
   5  -2   0  180.18   11.40
   5   2   0  181.68   11.40
   5   2   0  176.98   10.90
   5   2   0  171.28   10.70
   5   2   0  186.78   10.50
   6  -2   0   -0.70    1.70
   6  -2   0    0.90    1.30
   6  -2   0   -0.10    1.70
   6   2   0    0.60    1.40
   6   2   0   -0.10    1.40
   6   2   0   -1.30    1.30
   7  -2   0   13.60    2.50
   7  -2   0    5.70    2.40
   7  -2   0    9.80    3.90
   7   2   0    8.10    2.20
   7   2   0   11.20    2.30
   7   2   0   12.30    2.90
   8  -2   0   -1.80    1.70
   8  -2   0    0.60    2.20
   8  -2   0   -1.10    2.10
   8   2   0    0.10    2.30
   8   2   0    0.60    1.80
   8   2   0   -2.20    2.60
   0  -3   0    1.80    0.50
   0  -3   0    2.60    0.60
   0  -3   0    1.40    0.50
   0  -3   0    1.60    0.40
   0   3   0    1.50    0.50
   0   3   0    1.90    0.60
   0   3   0    1.60    0.60
   1  -3   0   40.40    2.90
  -1  -3   0   42.20    2.60
  -1  -3   0   45.50    2.90
   1  -3   0   42.20    2.50
  -1   3   0   43.60    2.50
  -1   3   0   42.90    3.00
   1   3   0   44.20    2.90
   1   3   0   43.20    2.60
   2  -3   0   68.29    4.70
  -2  -3   0   74.69    4.50
   2   3   0   70.79    4.50
  -2   3   0   70.29    4.80
  -3  -3   0   40.10    3.10
   3  -3   0   37.80    3.50
   3   3   0   40.30    3.20
   3   3   0   43.50    3.80
  -3   3   0   42.90    3.60
   4  -3   0   61.59    4.90
   4   3   0   54.49    4.50
  -4   3   0   55.19    4.00
  -4   3   0   58.99    5.00
   4   3   0   61.59    4.70
   5  -3   0    5.40    2.00
   5  -3   0    3.60    1.90
   5   3   0    5.30    1.80
  -5   3   0    6.20    2.00
   5   3   0    2.80    1.40
  -5   3   0    5.30    1.40
   5   3   0    5.30    1.50
   6  -3   0   44.50    5.30
   6  -3   0   51.99    4.10
   6  -3   0   55.29    5.40
   6   3   0   47.60    5.10
   6   3   0   55.59    4.60
   6   3   0   49.30    4.60
   7  -3   0    7.50    2.50
   7  -3   0    8.80    2.70
   7   3   0    7.30    2.10
   7   3   0    8.00    2.30
   7   3   0    7.40    2.00
   7   3   0   11.10    2.90
   8  -3   0   -0.30    2.50
   8  -3   0   -2.40    2.00
   8   3   0   -0.80    1.70
   8   3   0    1.60    1.70
   8   3   0   -1.50    2.20
   0  -4   0  940.31   46.70
   0  -4   0  923.71   46.80
   0  -4   0  863.81   46.80
   0   4   0  946.71   47.00
   0   4   0  891.71   46.80
   0   4   0  923.11   46.80
   1  -4   0  392.96   21.20
  -1  -4   0  428.46   21.00
  -1  -4   0  408.86   21.20
   1  -4   0  387.76   21.30
   1  -4   0  410.96   20.90
   1   4   0  391.66   20.90
  -1   4   0  404.16   20.90
   1   4   0  405.56   21.20
   2  -4   0  194.08   11.40
  -2  -4   0  205.28   11.20
   2   4   0  201.08   10.70
   2   4   0  204.88   11.20
  -3  -4   0   24.60    2.50
   3  -4   0   24.40    2.80
  -3   4   0   23.90    2.80
   3   4   0   22.90    2.60
   3   4   0   21.90    2.60
   4  -4   0    0.20    1.30
   4  -4   0   -0.30    1.30
   4   4   0   -0.30    1.10
   4   4   0   -0.60    1.00
  -4   4   0   -0.40    1.30
   5  -4   0  115.99    8.60
   5  -4   0  130.39    8.90
   5   4   0  130.59    8.10
  -5   4   0  116.99   10.90
   5   4   0  123.19    8.20
   6  -4   0   -0.60    1.70
   6  -4   0   -1.30    1.70
   6   4   0   -0.20    1.30
   6   4   0   -2.10    1.30
   6   4   0   -1.20    1.50
   7  -4   0    5.00    2.50
   7  -4   0   -0.40    1.60
   7   4   0   -1.40    1.30
   7   4   0    0.60    1.90
   7   4   0    2.10    1.60
   8  -4   0   -3.40    2.10
   8  -4   0    2.10    2.30
   8   4   0   -2.40    2.10
   8   4   0   -0.40    1.70
   8   4   0    0.20    1.60
   0  -5   0   -0.70    0.80
   0  -5   0    0.90    0.80
   0  -5   0    0.30    0.60
   0   5   0    0.80    0.90
   0   5   0   -0.10    0.80
   0   5   0    0.20    0.90
   1  -5   0 1672.23   86.79
  -1  -5   0 1727.63   86.39
  -1  -5   0 1704.23   86.79
   1  -5   0 1699.83   86.39
   1  -5   0 1559.44   86.79
   1  -5   0 1788.92   86.79
  -1   5   0 1715.63   86.99
   1   5   0 1732.03   86.69
   1   5   0 1747.93   86.49
   1   5   0 1677.63   86.79
  -1   5   0 1695.63   86.39
   2  -5   0  438.56   23.40
  -2  -5   0  440.96   22.50
  -2  -5   0  427.26   21.90
   2  -5   0  392.66   23.10
   2   5   0  398.16   21.90
  -2   5   0  424.86   21.80
  -2   5   0  432.16   22.70
   3  -5   0   95.19    6.70
  -3  -5   0  100.49    6.40
   3  -5   0   93.59    6.60
  -3   5   0   99.19    6.70
   3   5   0   96.49    6.40
  -4  -5   0   31.50    3.10
   4  -5   0   30.70    3.50
   4  -5   0   28.10    3.70
   4   5   0   27.50    3.30
   4   5   0   25.40    3.10
  -4   5   0   29.00    3.60
   5  -5   0   51.39    5.10
   5  -5   0   55.79    5.40
   5   5   0   53.99    4.70
   5   5   0   60.49    5.00
  -5   5   0   56.49    5.50
   6  -5   0    1.10    1.70
   6  -5   0    1.20    2.00
   6   5   0    4.10    1.80
  -6   5   0    3.60    2.80
   6   5   0    0.20    1.70
   6   5   0    0.30    1.50
   7  -5   0   -0.20    1.80
   7   5   0    2.50    2.10
   7   5   0   -0.50    2.00
   7   5   0    0.50    1.40
   8  -5   0    0.50    2.50
   8  -5   0   -0.20    2.30
   8   5   0    2.60    2.20
   8   5   0   -0.90    1.50
   8   5   0    0.20    1.80
   0  -6   0 2791.32  133.09
   0  -6   0 2699.63  133.19
   0  -6   0 2405.76  133.19
   0  -6   0 2492.85  132.79
   0   6   0 2765.52  133.39
   0   6   0 2573.74  133.09
   1  -6   0    0.60    0.70
   1  -6   0    0.20    1.00
  -1  -6   0    0.20    0.70
  -1  -6   0    0.70    0.60
   1  -6   0    0.80    0.70
   1  -6   0   -0.10    0.80
   1   6   0    0.50    0.80
   1   6   0   -0.80    0.70
   1   6   0    0.10    0.70
  -1   6   0    0.30    0.70
  -1   6   0    0.40    0.80
   2  -6   0  382.56   19.20
   2  -6   0  375.36   20.10
   2  -6   0  348.97   20.00
  -2  -6   0  369.16   19.30
  -2  -6   0  378.16   20.00
   2   6   0  362.36   19.90
   2   6   0  346.67   19.30
  -2   6   0  378.26   19.20
  -2   6   0  367.76   20.20
   3  -6   0   36.10    3.70
   3  -6   0   38.90    3.90
  -3  -6   0   36.10    3.40
   3   6   0   36.80    3.50
  -3   6   0   33.40    3.70
   4  -6   0    5.90    2.00
  -4  -6   0    8.00    1.80
   4  -6   0    4.70    1.90
   4   6   0    5.50    1.70
   4   6   0    7.70    1.90
  -4   6   0    7.20    2.10
   5  -6   0   63.19    5.80
   5  -6   0   54.49    5.40
   5   6   0   57.89    4.90
  -5   6   0   58.79    5.80
   5   6   0   57.99    5.20
   6  -6   0    4.10    2.10
   6  -6   0    3.80    2.40
   6   6   0    5.60    2.00
   6   6   0    6.70    2.10
  -6   6   0    7.30    3.30
   7  -6   0    4.70    2.40
   7  -6   0    2.20    2.20
   7   6   0    2.60    2.00
   7   6   0    5.00    1.80
   7   6   0    2.10    2.20
   8  -6   0   -0.70    2.30
   8  -6   0   -2.00    2.50
   8   6   0    2.70    1.80
   8   6   0    1.80    1.90
   8   6   0    3.80    2.00
   0  -7   0    0.40    0.90
   0  -7   0    0.00    0.80
   0  -7   0    0.40    0.70
   0   7   0    0.20    0.90
   0   7   0    0.50    1.00
  -1  -7   0   33.70    2.60
   1  -7   0   31.30    2.90
  -1  -7   0   33.50    2.90
   1  -7   0   35.40    3.00
   1  -7   0   35.10    2.70
   1  -7   0   27.90    3.00
  -1   7   0   29.50    2.60
   1   7   0   36.80    3.10
  -1   7   0   31.70    3.10
   1   7   0   38.20    3.10
   1   7   0   29.80    2.70
  -2  -7   0  139.29    7.90
   2  -7   0  121.49    8.50
  -2  -7   0  136.49    8.50
   2  -7   0  137.89    7.80
   2  -7   0  148.19    8.50
   2  -7   0  137.29    8.60
   2   7   0  126.89    7.90
  -2   7   0  142.29    7.80
   2   7   0  134.69    8.50
  -2   7   0  139.19    8.70
   2   7   0  150.68    8.40
  -2   7   0  136.09    7.70
  -3  -7   0  110.39    7.20
   3  -7   0  108.09    7.60
   3  -7   0  105.29    7.40
  -3  -7   0  107.39    6.50
  -3   7   0  109.59    7.60
   3   7   0  109.69    7.30
  -4  -7   0  254.17   15.20
   4  -7   0  245.08   15.50
   4  -7   0  264.27   15.80
   4   7   0  269.57   15.50
  -4   7   0  277.07   17.40
   4   7   0  266.77   15.30
   5  -7   0    3.80    1.90
   5  -7   0    3.10    1.90
  -5   7   0    1.50    2.10
   5   7   0    3.80    1.80
   5   7   0    3.10    1.40
   6  -7   0   43.00    5.70
   6  -7   0   40.90    5.30
  -6   7   0   40.70    5.40
   6   7   0   41.90    4.80
   6   7   0   37.90    4.30
   7  -7   0    7.40    2.60
   7  -7   0   10.60    2.90
   7   7   0   13.00    3.10
   7   7   0    9.20    4.00
   7   7   0   11.20    2.70
   8  -7   0    3.50    2.70
   8  -7   0    2.80    2.60
   8   7   0    4.20    1.80
   8   7   0   -0.80    2.20
   0  -8   0  526.85   25.00
   0  -8   0  464.85   24.90
   0  -8   0  397.66   24.90
   0   8   0  507.65   25.40
   0   8   0  447.36   24.90
   1  -8   0   92.59    5.90
  -1  -8   0   91.69    5.60
   1  -8   0   88.49    5.60
   1  -8   0   94.19    7.00
  -1  -8   0   87.39    5.80
  -1   8   0   85.49    6.50
   1   8   0   93.39    6.10
  -1   8   0   85.59    6.10
   1   8   0   83.69    5.90
   1   8   0   79.49    5.80
  -2  -8   0   66.99    5.10
   2  -8   0   66.39    5.20
   2  -8   0   64.49    5.20
  -2  -8   0   68.59    4.60
   2  -8   0   72.49    4.60
   2  -8   0   74.79    5.20
   2   8   0   69.29    5.00
  -2   8   0   68.99    4.50
   2   8   0   72.99    5.90
   2   8   0   70.59    5.20
  -2   8   0   68.59    4.50
  -2   8   0   73.89    5.50
  -3  -8   0    2.90    1.20
   3  -8   0    2.50    1.60
  -3  -8   0    5.50    1.60
   3  -8   0    4.70    1.60
   3   8   0    3.30    1.50
  -3   8   0    4.80    1.10
  -3   8   0    3.30    1.70
  -4  -8   0    3.40    1.50
   4  -8   0    1.70    1.70
   4  -8   0    2.70    1.50
  -4   8   0    0.20    1.60
   4   8   0    1.10    1.60
   4   8   0    3.20    1.50
   5  -8   0  108.99    8.60
   5  -8   0  114.19    9.00
  -5   8   0  125.79    9.20
   5   8   0  113.09    8.20
   5   8   0  125.89    8.70
   6  -8   0    0.90    1.80
   6  -8   0    0.30    1.90
   6   8   0    0.40    1.80
   6   8   0    3.20    1.70
   7  -8   0   -2.00    2.10
   7  -8   0    1.90    2.20
   7   8   0    1.60    2.00
   7   8   0    1.60    1.90
  -7   8   0    5.40    4.00
   7   8   0   -0.60    1.40
   8  -8   0   -3.40    2.50
   8  -8   0   -1.70    2.80
   8  -8   0    6.30    3.80
   8   8   0    0.90    2.20
   8   8   0    5.10    2.20
   8   8   0    4.10    1.70
   0  -9   0    2.80    1.00
   0  -9   0    1.20    1.10
   0  -9   0    1.50    0.90
   0   9   0    0.40    0.90
   0   9   0    1.60    1.20
  -1  -9   0  228.38   12.50
   1  -9   0  199.38   12.90
   1  -9   0  229.08   12.70
  -1  -9   0  221.78   12.90
   1  -9   0  247.38   13.00
   1  -9   0  220.28   12.70
   1   9   0  241.38   13.20
  -1   9   0  215.58   12.50
  -1   9   0  238.58   13.40
   1   9   0  212.58   12.90
   1   9   0  215.88   12.70
   2  -9   0  135.09    7.70
  -2  -9   0  129.99    7.70
   2  -9   0  136.29    8.30
   2  -9   0  112.29    8.30
  -2  -9   0  137.99    8.40
   2  -9   0  123.29    8.30
   2   9   0  121.89    8.30
  -2   9   0  132.69    7.70
  -2   9   0  132.19    8.70
   2   9   0  132.59    8.20
  -2   9   0  122.19    8.10
   2   9   0  124.19    7.80
  -3  -9   0    4.00    2.10
   3  -9   0    2.20    1.40
   3  -9   0    0.80    1.40
   3  -9   0    0.90    1.60
  -3   9   0    1.00    1.60
   3   9   0    2.80    1.50
  -3   9   0    1.20    1.00
   3   9   0    0.50    1.30
   3   9   0    2.30    1.10
  -4  -9   0    3.50    1.50
   4  -9   0    0.70    1.50
   4  -9   0    0.50    1.60
   4  -9   0    0.50    1.60
   4   9   0    0.50    1.40
   4   9   0    0.20    1.60
  -4   9   0    0.20    1.60
  -5  -9   0    2.20    1.70
   5  -9   0    1.40    1.80
   5  -9   0    1.00    2.40
   5   9   0    0.00    1.70
   5   9   0    1.10    1.50
  -5   9   0   -1.70    2.30
   6  -9   0    7.50    2.50
   6  -9   0    8.90    2.70
   6   9   0   11.10    2.70
   6   9   0   10.50    2.60
   7  -9   0   -1.00    2.30
   7  -9   0    5.60    2.70
   7  -9   0   -1.20    2.40
   7   9   0    1.40    1.80
  -7   9   0    5.40    3.90
   7   9   0    3.90    2.10
   8  -9   0    4.60    4.30
   8  -9   0    2.80    2.70
   8   9   0    1.30    2.60
   8   9   0    4.70    2.00
   8   9   0    1.40    2.20
   0 -10   0  103.09    7.50
   0 -10   0  128.89    7.50
   0 -10   0  114.99    7.50
   0  10   0  127.49    8.00
   0  10   0  107.19    7.40
   1 -10   0   63.09    4.70
   1 -10   0   57.49    5.10
  -1 -10   0   65.19    4.60
   1 -10   0   70.89    5.00
  -1 -10   0   63.49    5.00
   1 -10   0   61.39    4.80
  -1  10   0   69.39    5.40
  -1  10   0   56.79    4.60
   1  10   0   65.79    5.00
   1  10   0   59.99    5.00
   1  10   0   71.69    5.40
   2 -10   0    4.70    1.50
   2 -10   0    4.30    1.90
   2 -10   0    4.80    1.40
  -2 -10   0    6.10    2.00
   2 -10   0    2.80    1.70
  -2 -10   0    4.30    1.30
   2  10   0    4.30    1.70
  -2  10   0    5.90    1.50
   2  10   0    4.70    1.40
  -2  10   0    4.90    2.30
  -2  10   0    6.40    1.50
   2  10   0    6.30    1.90
   3 -10   0   76.99    6.20
   3 -10   0   84.09    6.10
  -3 -10   0   78.49    6.00
   3 -10   0   72.79    6.20
  -3 -10   0   69.69    5.20
  -3  10   0   76.99    6.50
   3  10   0   80.39    6.00
   3  10   0   74.69    5.30
   3  10   0   72.29    6.00
  -3  10   0   78.59    5.10
   4 -10   0   11.50    2.50
   4 -10   0   12.10    2.60
  -4 -10   0   15.30    2.80
   4 -10   0    9.90    2.50
   4  10   0   13.90    2.60
  -4  10   0   14.10    3.70
   5 -10   0    0.40    1.90
   5 -10   0    0.20    1.80
   5 -10   0   -0.30    1.80
  -5 -10   0   -0.40    1.70
   5  10   0   -0.80    1.50
  -5  10   0    2.70    2.20
   5  10   0    0.60    1.70
   6 -10   0    1.90    2.10
   6 -10   0   -1.70    2.10
   6  10   0    0.60    1.70
   6  10   0   -1.30    1.60
  -6  10   0    7.90    4.60
   7 -10   0   -0.50    2.60
   7 -10   0   -1.20    2.30
   7  10   0    1.80    2.20
   0 -11   0   -1.90    1.00
   0 -11   0    1.10    1.10
   0 -11   0   -0.20    1.30
   0  11   0    1.20    1.40
   0  11   0    1.30    1.20
   1 -11   0   38.20    4.30
   1 -11   0   50.19    4.20
   1 -11   0   49.10    4.10
   1 -11   0   50.99    5.20
  -1 -11   0   53.19    5.00
  -1 -11   0   50.69    3.90
  -1  11   0   49.30    4.20
   1  11   0   42.90    4.30
   1  11   0   53.49    4.90
   2 -11   0  146.59    8.80
   2 -11   0  151.38    9.40
  -2 -11   0  143.89    8.80
   2 -11   0  140.49    9.30
  -2 -11   0  149.19    9.40
   2 -11   0  130.09    9.50
  -2  11   0  159.98    8.90
   2  11   0  125.49    9.20
  -2  11   0  152.18   10.00
   2  11   0  159.98    9.60
  -2  11   0  132.39    8.60
   2  11   0  135.39    8.90
  -3 -11   0   26.30    3.40
  -3 -11   0   24.00    3.00
   3 -11   0   32.20    3.80
   3 -11   0   23.80    3.80
   3 -11   0   26.20    3.70
   3  11   0   24.20    3.10
  -3  11   0   26.00    3.00
  -3  11   0   31.60    4.50
   3  11   0   26.90    3.60
  -3  11   0   27.00    2.80
   3  11   0   30.20    4.00
  -4 -11   0   32.80    4.40
   4 -11   0   37.90    4.60
  -4 -11   0   33.10    3.70
   4 -11   0   39.20    4.50
   4 -11   0   40.40    4.70
   4  11   0   42.20    4.70
  -4  11   0   39.60    5.50
   4  11   0   35.90    4.20
   5 -11   0    6.10    2.30
   5 -11   0    3.20    2.10
  -5 -11   0    1.80    2.20
   5 -11   0    6.00    2.20
   5  11   0    7.40    2.30
   5  11   0    6.20    2.30
   6 -11   0   -2.00    2.10
   6 -11   0   -1.50    2.00
   6 -11   0    2.00    2.10
   6  11   0    0.50    2.00
  -6  11   0    0.40    3.50
   6  11   0    2.60    1.90
   7 -11   0   -1.40    2.30
   7 -11   0    4.00    2.50
   7  11   0   -0.40    2.20
   7  11   0    1.00    2.00
   0 -12   0  100.19    7.40
   0 -12   0   94.79    8.80
   0 -12   0  109.69    9.00
   0  12   0  111.99    7.30
  -1 -12   0   15.70    2.40
   1 -12   0   14.70    2.40
   1 -12   0   10.30    2.00
   1 -12   0   15.70    2.70
  -1 -12   0   13.60    2.60
   1 -12   0    9.60    2.30
  -1  12   0   13.70    2.60
  -1  12   0   15.30    3.20
   1  12   0   12.60    2.40
   1  12   0   17.40    3.00
  -2 -12   0    2.30    1.50
   2 -12   0    2.50    1.40
   2 -12   0    3.40    1.80
   2 -12   0    4.20    1.70
  -2 -12   0    3.90    1.70
   2 -12   0    3.80    1.60
   2  12   0    2.30    1.60
   2  12   0    3.60    1.60
  -2  12   0    5.40    1.60
   2  12   0    3.60    2.10
  -2  12   0    2.30    1.30
  -2  12   0    2.00    2.10
   3 -12   0   57.59    5.40
   3 -12   0   55.99    4.40
   3 -12   0   51.89    5.40
  -3 -12   0   50.49    4.40
   3 -12   0   50.89    5.10
  -3 -12   0   60.69    5.30
  -3  12   0   55.49    4.30
  -3  12   0   57.49    6.20
   3  12   0   49.30    5.00
   3  12   0   59.79    5.40
   3  12   0   51.99    4.70
  -3  12   0   55.79    4.40
   4 -12   0   68.69    6.60
  -4 -12   0   74.79    5.60
  -4 -12   0   56.59    6.30
   4 -12   0   60.89    8.20
   4 -12   0   87.99    6.90
   4  12   0   76.29    6.40
   4  12   0   80.29    6.70
   5 -12   0   33.20    6.50
   5 -12   0   17.20    3.60
  -5 -12   0   29.00    5.60
   5 -12   0   24.70    4.40
   5  12   0   25.80    4.90
   5  12   0   21.50    4.20
   5  12   0   28.50    4.10
  -5  12   0   36.00    9.20
   6 -12   0   -2.20    1.90
   6 -12   0    6.80    2.60
   6 -12   0    1.40    2.40
   6  12   0   -2.50    2.00
   7 -12   0   -3.60    4.00
   7 -12   0    3.30    2.40
   7  12   0    3.30    2.40
   7  12   0    1.50    3.30
   0 -13   0   -0.20    1.20
   0 -13   0    0.10    1.30
   0 -13   0   -1.10    1.00
   0  13   0   -1.20    1.10
   0  13   0   -0.40    1.60
  -1 -13   0    4.80    1.50
   1 -13   0    3.00    1.50
  -1 -13   0    3.30    1.50
   1 -13   0    3.30    1.50
   1 -13   0    1.00    1.50
   1 -13   0    1.60    1.60
  -1  13   0    2.20    2.10
   1  13   0    3.70    1.60
   1  13   0    3.10    2.20
  -1  13   0    1.40    1.40
   2 -13   0   46.80    5.20
  -2 -13   0   46.70    6.20
  -2 -13   0   63.39    5.50
   2 -13   0   59.69    4.80
   2 -13   0   55.29    4.90
   2 -13   0   60.19    5.30
   2  13   0   67.19    5.80
  -2  13   0   62.99    5.00
  -2  13   0   47.80    4.50
  -2  13   0   63.69    6.30
   2  13   0   47.90    5.10
   3 -13   0   35.90    3.80
  -3 -13   0   36.00    3.90
   3 -13   0   33.50    5.50
   3 -13   0   40.10    4.50
   3  13   0   42.50    4.20
   3  13   0   29.10    4.60
  -3  13   0   37.60    3.70
  -3  13   0   42.80    4.00
   4 -13   0    0.90    2.00
   4 -13   0   -0.30    1.80
   4 -13   0    2.90    2.10
   4  13   0    2.70    1.90
   4  13   0    3.80    2.70
   5 -13   0    0.40    2.10
   5 -13   0   -3.90    2.20
   5 -13   0   -0.40    2.00
  -5 -13   0    2.60    2.60
  -5  13   0   -3.60    3.60
   5  13   0   -0.80    1.90
   5  13   0    0.70    2.50
   5  13   0    2.10    2.00
   6 -13   0   -0.80    2.30
   6 -13   0    2.40    2.30
   6  13   0    2.90    4.00
   6  13   0   -2.40    2.20
   6  13   0    1.20    2.30
   7 -13   0    7.00    2.80
   7 -13   0    6.00    3.10
   7  13   0    4.30    2.80
   7  13   0   11.00    3.40
   0 -14   0  126.59    7.90
   0 -14   0  117.79    8.10
   0 -14   0   96.29    8.20
   0  14   0  103.09    7.90
   0  14   0  132.19    9.20
  -1 -14   0   31.80    3.50
   1 -14   0   34.70    3.80
   1 -14   0   33.70    3.90
  -1 -14   0   30.40    4.00
   1 -14   0   24.00    3.90
   1 -14   0   28.30    3.50
   1  14   0   27.80    4.70
   1  14   0   24.20    3.60
  -1  14   0   27.50    5.00
  -1  14   0   27.20    3.70
  -2 -14   0   94.19    7.00
   2 -14   0   69.69    7.90
  -2 -14   0   79.89    6.20
   2 -14   0   83.59    6.70
   2 -14   0   81.29    6.40
   2 -14   0   92.59    6.40
  -2  14   0   73.39    8.20
   2  14   0   71.99    8.20
   2  14   0   97.59    7.60
  -2  14   0   74.19    6.10
  -2  14   0   67.99    8.60
   3 -14   0   12.10    3.00
   3 -14   0   11.80    2.40
   3 -14   0   11.70    2.70
  -3 -14   0   13.90    2.70
   3  14   0   10.70    2.70
  -3  14   0   13.70    2.40
   3  14   0   17.80    3.80
  -3  14   0   18.00    3.20
   4 -14   0   10.40    2.70
   4 -14   0    9.90    3.00
   4 -14   0   11.60    2.90
  -4 -14   0   10.30    3.40
   4  14   0    8.50    2.70
   4  14   0   16.70    3.20
   4  14   0   16.60    3.80
   5 -14   0    1.20    3.10
   5 -14   0   -0.20    2.30
   5 -14   0    0.60    2.30
   5  14   0   -1.50    3.10
   5  14   0   -1.00    1.90
  -5  14   0   -4.50    6.20
   5  14   0    2.20    1.90
   6 -14   0    7.10    3.10
   6 -14   0    3.60    3.00
   6  14   0    7.90    3.00
   6  14   0    7.40    4.10
   6  14   0    1.40    2.30
   0 -15   0    3.70    1.80
   0 -15   0    1.90    1.80
   0 -15   0    2.60    3.60
   0  15   0    2.00    2.70
   0  15   0    0.60    1.70
  -1 -15   0   47.30    5.30
  -1 -15   0   60.09    5.00
   1 -15   0   53.29    5.10
   1 -15   0   41.80    5.30
   1 -15   0   59.09    5.30
   1 -15   0   52.59    4.70
  -1  15   0   52.69    5.00
   1  15   0   68.19    6.40
  -1  15   0   57.59    6.70
   1  15   0   43.50    5.80
   2 -15   0   74.09    5.80
   2 -15   0   62.79    5.70
   2 -15   0   51.89    6.10
  -2 -15   0   69.59    5.70
  -2 -15   0   66.99    6.20
  -2  15   0   66.29    5.60
  -2  15   0   74.99    6.10
   2  15   0   61.79    6.10
   2  15   0   77.29    7.10
   3 -15   0    0.50    2.00
  -3 -15   0   -2.40    1.40
   3 -15   0    0.40    1.80
  -3  15   0    1.80    1.70
  -3  15   0    0.70    1.80
   3  15   0    4.20    2.90
   3  15   0    0.90    1.80
   4 -15   0    1.30    2.40
   4 -15   0    0.70    2.20
  -4 -15   0    4.20    1.80
  -4 -15   0    3.00    2.40
   4 -15   0   -0.20    1.90
   4  15   0   11.10    3.20
  -4  15   0    5.40    4.10
   4  15   0    3.90    2.10
   5 -15   0    7.50    2.80
   5 -15   0    2.30    2.60
   5  15   0    6.90    2.90
   5  15   0   12.50    4.80
   5  15   0    5.90    2.50
   6 -15   0    2.70    2.50
   6 -15   0    2.30    2.30
   6  15   0    6.30    3.30
   6  15   0   -0.40    2.00
   0 -16   0   54.09    5.60
   0  16   0   45.70    5.30
   0  16   0   60.09    7.00
   1 -16   0    1.40    2.10
  -1 -16   0    4.70    1.90
   1 -16   0    4.50    2.20
   1 -16   0    4.30    1.80
  -1 -16   0    5.50    2.60
   1  16   0    7.10    3.50
  -1  16   0    5.00    2.20
   1  16   0    2.40    2.00
  -1  16   0    9.00    3.50
  -2 -16   0    4.10    4.10
   2 -16   0    4.20    2.20
   2 -16   0    2.00    2.10
  -2 -16   0    3.50    2.10
   2 -16   0   -0.20    1.60
   2  16   0    0.10    1.80
  -2  16   0    4.00    2.00
  -2  16   0    5.50    4.30
   2  16   0    2.80    3.10
  -2  16   0    3.40    1.80
  -3 -16   0   10.10    2.50
   3 -16   0   10.50    2.40
   3 -16   0   14.30    3.30
   3 -16   0   11.50    2.70
   3 -16   0    5.70    2.70
  -3 -16   0    9.30    3.10
  -3  16   0   18.50    5.20
  -3  16   0   10.50    2.60
   3  16   0    7.50    2.50
  -3  16   0    7.50    2.10
   4 -16   0   -3.50    2.00
   4 -16   0   -0.70    2.10
  -4 -16   0   -3.40    2.00
   4  16   0    5.80    5.40
  -4  16   0   -0.60    1.80
   4  16   0    4.20    2.30
   4  16   0    1.50    2.00
   5 -16   0    0.30    4.00
   5 -16   0    4.50    2.40
   5  16   0   16.10    4.80
   5  16   0    9.00    3.20
   5  16   0    9.10    4.40
   0 -17   0    2.80    2.30
   0  17   0   -2.50    5.30
   1 -17   0   -4.10    2.10
  -1 -17   0   -2.20    2.70
   1 -17   0    0.30    2.10
   1 -17   0   -2.10    2.20
  -1  17   0    5.90    3.60
  -1  17   0   -2.20    1.80
   1  17   0   -1.70    3.90
   2 -17   0    3.90    2.40
  -2 -17   0   10.60    2.60
  -2 -17   0    5.10    2.80
   2 -17   0    8.30    2.80
   2 -17   0    8.50    2.70
   2 -17   0   10.00    2.70
   2  17   0   23.50    7.30
  -2  17   0    4.30    2.30
   3 -17   0    4.20    2.30
   3 -17   0   -2.10    1.60
   3 -17   0    2.20    2.40
  -3 -17   0   -0.10    2.10
   3  17   0    8.10    3.60
  -3  17   0    3.30    2.10
  -3  17   0    1.60    1.90
   3  17   0   -1.90    1.90
   4 -17   0    1.50    2.30
   4 -17   0    3.00    2.30
   4  17   0    4.10    2.70
   4  17   0    4.20    2.50
  -4  17   0    6.40    2.40
   4  17   0   11.90    4.40
   5 -17   0    4.00    2.40
   5 -17   0   13.40    5.00
   5  17   0    0.80    2.20
   5  17   0   -0.10    2.10
   0  18   0    6.10    3.30
   1 -18   0   -1.60    2.20
   1 -18   0    3.30    2.60
  -1  18   0    2.50    4.60
   1  18   0   -5.20    3.50
  -1  18   0   -2.20    1.80
   1  18   0    0.60    2.10
   2 -18   0    2.80    2.60
  -2 -18   0    9.00    3.50
   2 -18   0    2.00    1.90
   2 -18   0    4.60    2.80
  -2  18   0    6.40    2.60
   2  18   0    3.20    3.80
   2  18   0    0.70    2.30
  -2  18   0    0.10    1.90
   3 -18   0   -0.40    2.20
   3 -18   0    0.60    2.60
   3 -18   0    0.00    2.00
   3  18   0   -2.40    2.10
  -3  18   0    0.20    2.00
  -3  18   0   -4.40    2.20
   3  18   0    6.50    4.30
   4 -18   0    1.80    2.60
   4 -18   0    7.30    2.90
   4  18   0   -1.80    2.10
   4  18   0    3.00    2.60
   0 -19   0   -0.10    2.80
   0 -19   0   -0.70    2.20
   0  19   0    0.00    2.10
  -1 -19   0    0.00    2.30
   1 -19   0   -3.60    2.30
   1 -19   0    2.10    2.90
   1  19   0   -1.00    2.10
  -1  19   0   -1.70    2.00
  -2 -19   0   -0.10    2.80
   2 -19   0    1.20    2.40
   2 -19   0    3.00    4.20
   2 -19   0    8.10    2.50
  -2  19   0    6.30    2.40
   2  19   0    3.70    2.20
   3 -19   0    9.00    2.20
   3 -19   0    4.70    2.70
   3  19   0    7.40    2.40
  -3  19   0    3.30    2.30
   0  20   0    2.60    2.60
  -1  20   0   11.00    3.00
   1  20   0   12.30    3.40
   2 -20   0    0.00    2.90
   2 -20   0   -2.70    2.10
   2 -20   0   -2.40    3.00
  -2  20   0    0.30    2.50
   2  20   0   -1.00    2.10
  -2  20   0    1.20    2.40
   9   0  -1    3.10    1.90
   9   0  -1   -2.70    2.40
   9   0  -1    2.50    2.40
   8   0  -1   -0.40    1.60
   8   0  -1    0.60    2.00
   7   0  -1    0.30    1.30
   7   0  -1    1.00    1.60
   7   0  -1    0.60    1.40
   7   0  -1    0.00    1.80
   6   0  -1    2.30    1.60
   6   0  -1   -1.40    1.40
   5   0  -1   56.19    4.70
   5   0  -1   58.09    4.70
   5   0  -1   51.89    4.60
   5   0  -1   54.69    4.10
   5   0  -1   54.09    4.10
   4   0  -1    1.30    1.10
   4   0  -1    0.60    1.20
   4   0  -1    0.40    1.30
   3   0  -1  749.23   39.40
   3   0  -1  771.72   39.00
   3   0  -1  757.02   39.30
  -2   0   1    1.70    0.90
  -2   0   1    1.80    1.00
   2   0  -1    0.60    0.90
   1   0  -1    6.50    0.90
   1   0  -1    6.30    1.00
  -1   0   1    5.40    0.80
   1   0   1  888.31   46.30
  -1   0  -1  925.51   46.90
   2   0   1    0.10    0.80
  -2   0  -1   -0.10    0.70
   2   0   1   -0.80    0.80
  -3   0  -1  196.58   11.00
   3   0   1  199.08   11.60
   3   0   1  193.18   11.10
   4   0   1    0.80    1.10
  -4   0  -1    0.30    1.10
   4   0   1    1.40    1.30
   5   0   1   44.20    4.00
   5   0   1   43.60    4.60
  -5   0  -1   41.80    4.00
   6   0   1   -1.40    1.50
   7   0   1   78.49    6.10
   7   0   1   72.59    7.10
   8   0   1   -1.20    2.40
   8   0   1    1.30    2.00
   8   0   1   -1.10    1.60
   9  -1  -1    5.50    2.50
   9  -1  -1    4.70    2.20
   9   1  -1    2.90    3.50
   9   1  -1    3.80    2.20
   9   1  -1    8.40    2.20
   8  -1  -1   -1.00    1.90
   8  -1  -1    0.70    2.00
   8  -1  -1    5.50    1.80
   8   1  -1    1.30    1.90
   8   1  -1   -0.10    1.40
   7  -1  -1    1.70    1.80
   7  -1  -1    4.30    2.00
   7  -1  -1    5.50    2.00
   7   1  -1    3.10    1.60
   7   1  -1    3.30    1.50
   7   1  -1    4.00    1.80
   7   1  -1    4.80    2.00
   7   1  -1    4.70    1.70
   6  -1  -1   10.10    2.40
   6  -1  -1    9.50    2.30
   6   1  -1    6.10    2.10
   6   1  -1    6.20    2.00
   6   1  -1   10.40    2.10
   6   1  -1    8.40    1.70
   6   1  -1    7.60    2.00
   5  -1  -1   21.80    2.90
   5  -1  -1   20.50    3.00
   5   1  -1   19.50    2.60
   5   1  -1   18.10    2.80
   5   1  -1   15.00    2.70
   5   1  -1   19.50    2.50
   5   1  -1   18.00    2.70
   4  -1  -1 1347.97   68.49
   4  -1  -1 1343.17   68.39
   4   1  -1 1318.97   67.99
   4   1  -1 1352.56   67.99
   4   1  -1 1297.67   68.29
   4   1  -1 1319.67   68.79
   4   1  -1 1296.07   68.89
   3  -1  -1   13.00    1.90
   3  -1  -1   15.60    2.10
   3   1  -1   12.70    1.80
  -3   1   1   14.80    1.90
   3   1  -1   15.30    1.70
   3   1  -1   13.80    1.80
   3   1  -1   13.70    1.80
  -2  -1   1 9999.00  504.25
   1  -1  -1    1.90    0.50
   1  -1  -1    1.50    0.60
  -1  -1   1    1.90    0.50
  -1  -1   1    1.60    0.50
  -1   1   1    1.40    0.50
   1   1  -1    1.90    0.60
  -1   1   1    1.70    0.50
   0  -1   1 1540.85   78.09
   0  -1   1 1458.85   78.09
   0  -1  -1 1561.34   78.09
   0   1   1 1533.95   77.99
   0   1   1 1503.15   77.99
   0   1  -1 1632.44   78.09
   1  -1   1   91.69    5.60
  -1  -1  -1   93.69    5.50
  -1  -1  -1   94.49    5.20
   1  -1   1   98.49    5.40
   1  -1   1  102.09    5.30
   1   1   1   97.79    5.50
   1   1   1   95.59    5.30
   2  -1   1 1083.19   55.39
   2  -1   1 1057.69   55.79
  -2  -1  -1 1084.39   55.59
  -2  -1  -1 1171.28   55.79
   2   1   1 1088.19   55.49
   2   1   1 1019.30   55.09
  -2   1  -1 1080.39   55.39
  -3  -1  -1    3.10    0.80
   3  -1   1    3.00    1.30
  -3  -1  -1    3.20    1.00
   3  -1   1    1.90    1.00
   3   1   1    2.50    1.80
   3   1   1    1.40    1.20
  -3   1  -1    2.70    0.90
  -4  -1  -1   62.59    4.70
   4  -1   1   64.69    5.30
   4  -1   1   63.99    4.60
   4   1   1   64.09    5.20
  -4   1  -1   59.29    4.60
   4   1   1   63.09    4.80
   5  -1   1   25.90    3.00
   5  -1   1   26.80    3.80
   5   1   1   27.80    3.20
   5   1   1   23.80    3.60
  -5   1  -1   23.10    3.10
   6  -1   1   -0.50    1.30
   6  -1   1   -1.40    1.50
   6   1   1   -0.80    1.40
   6   1   1    0.70    1.70
   7  -1   1    3.30    2.30
   7  -1   1    8.70    2.80
   7   1   1    5.30    2.20
   7   1   1    7.20    2.70
   7   1   1    4.80    2.00
   8  -1   1    1.10    2.70
   8  -1   1    4.10    2.20
   8  -1   1    0.20    2.10
   8   1   1    0.70    2.80
   8   1   1    2.70    1.90
   8   1   1    0.70    2.20
   9  -2  -1   -2.10    2.20
   9   2  -1    2.40    2.00
   9   2  -1   -0.80    2.30
   8  -2  -1    8.40    2.80
   8  -2  -1    5.80    3.30
   8  -2  -1   15.30    3.30
   8   2  -1   13.10    4.20
   8   2  -1    9.70    2.40
   8   2  -1    9.40    2.50
   7  -2  -1    2.10    2.10
   7  -2  -1    1.30    1.80
   7   2  -1   -0.40    1.70
   7   2  -1   -0.80    1.20
   7   2  -1    0.70    1.40
   7   2  -1    1.70    1.40
   7   2  -1   -0.10    1.40
   6  -2  -1   47.90    4.90
   6  -2  -1   47.30    4.70
   6   2  -1   44.90    4.30
   6   2  -1   42.80    4.10
   6   2  -1   45.60    4.20
   6   2  -1   37.00    4.30
   6   2  -1   44.10    4.50
   5  -2  -1    8.80    2.00
   5  -2  -1    6.00    2.00
   5   2  -1    7.00    1.60
   5   2  -1    6.90    1.60
   5   2  -1    6.30    1.70
   5   2  -1    8.40    1.70
   5   2  -1    7.10    1.90
   4  -2  -1 2174.68  111.49
   4  -2  -1 2225.28  111.69
  -4   2   1 2214.58  111.59
   4   2  -1 2162.68  111.39
   4   2  -1 2138.39  111.29
   4   2  -1 2195.48  111.19
   4   2  -1 2146.39  111.09
   3  -2  -1    5.10    1.30
   3  -2  -1    6.80    2.20
   3   2  -1    7.10    1.20
   3   2  -1    5.30    1.00
   3   2  -1    4.50    1.10
  -3   2   1    5.50    1.30
  -2  -2   1 3416.86  172.88
   2  -2  -1 3411.96  172.98
   2  -2  -1 3419.06  173.08
  -2   2   1 3406.06  172.98
   2   2  -1 3403.96  172.88
  -2   2   1 3388.56  173.18
   2   2  -1 3462.45  172.98
   1  -2  -1   36.70    2.60
   1  -2  -1   37.20    2.50
  -1  -2   1   40.10    3.00
   1  -2  -1   40.50    2.40
  -1   2   1   38.20    2.50
   1   2  -1   36.90    2.50
  -1   2   1   37.60    2.70
   0  -2  -1    2.00    0.50
   0  -2   1    2.20    0.50
   0  -2  -1    1.80    0.50
   0  -2   1    1.60    0.40
   0  -2   1    1.80    0.50
   0   2   1    2.10    0.50
   0   2  -1    1.50    0.40
   0   2   1    1.90    0.50
   0   2   1    1.80    0.50
   0   2  -1    1.80    0.50
   0   2  -1    1.40    0.50
   1  -2   1  104.79    6.20
   1  -2   1  113.49    6.10
   1  -2   1  100.09    5.90
  -1  -2  -1  107.59    6.00
  -1  -2  -1  107.09    6.10
  -1   2  -1  108.69    6.00
   1   2   1  104.79    6.10
   1   2   1  107.39    5.70
  -1   2  -1  100.19    6.20
   1   2   1  101.19    5.90
  -2  -2  -1  110.49    6.20
   2  -2   1  106.09    6.70
  -2  -2  -1  108.39    6.40
   2  -2   1  105.99    6.20
  -2   2  -1  103.69    6.20
   2   2   1  107.09    6.40
   2   2   1  109.29    6.20
  -2   2  -1  107.09    6.70
  -3  -2  -1    1.80    0.90
   3  -2   1    2.10    1.20
   3  -2   1    0.80    0.80
  -3  -2  -1    1.10    0.70
  -3   2  -1    2.00    0.90
  -3   2  -1    1.30    1.20
   3   2   1    0.10    0.90
   3   2   1    1.20    0.80
   4  -2   1   36.70    3.30
   4  -2   1   39.50    4.10
   4   2   1   38.50    3.90
  -4   2  -1   37.80    3.40
   4   2   1   39.90    3.20
   4   2   1   43.00    3.70
   5  -2   1   13.00    2.90
   5  -2   1   16.40    2.40
   5   2   1   15.40    2.80
  -5   2  -1   19.00    2.60
   5   2   1   14.50    2.10
   5   2   1   16.50    3.10
   6  -2   1   73.09    5.70
   6  -2   1   79.29    6.80
   6   2   1   78.99    6.90
   6   2   1   79.39    6.20
  -6   2  -1   75.79    5.90
   7  -2   1    9.10    3.00
   7  -2   1   12.50    2.30
   7  -2   1    8.50    2.80
   7   2   1    8.40    2.60
   7   2   1   11.70    2.60
   7   2   1    7.00    2.40
   8  -2   1   24.10    3.70
   8  -2   1   17.50    3.60
   8  -2   1   22.40    4.40
   8   2   1   18.60    3.30
   8   2   1   22.40    4.60
   8   2   1   13.50    3.20
   9   3  -1   20.10    4.00
   9   3  -1   17.20    3.40
   8  -3  -1    3.20    2.30
   8  -3  -1    0.80    2.50
   8  -3  -1    2.80    1.80
   8   3  -1   -1.10    1.60
   8   3  -1    2.00    1.50
   7  -3  -1   37.40    4.80
   7  -3  -1   34.30    4.50
   7   3  -1   36.20    4.00
   7   3  -1   34.90    3.90
   7   3  -1   37.70    4.50
   7   3  -1   31.30    3.70
   6  -3  -1   41.80    5.00
   6  -3  -1   47.10    4.80
   6   3  -1   45.60    4.20
   6   3  -1   43.80    4.60
   6   3  -1   40.10    4.30
   6   3  -1   40.70    4.30
   5  -3  -1   12.10    2.50
   5  -3  -1   10.80    2.40
   5   3  -1   14.30    2.20
   5   3  -1   13.20    2.40
  -5   3   1   12.40    2.80
   5   3  -1   14.20    2.30
   5   3  -1   12.30    2.30
   5   3  -1   13.70    2.40
   4  -3  -1  382.56   20.70
   4  -3  -1  362.26   20.40
   4   3  -1  370.26   20.20
   4   3  -1  367.56   20.10
  -4   3   1  369.56   20.60
   3  -3  -1  134.49    8.10
   3  -3  -1  132.19    8.30
  -3  -3   1  134.39    7.90
   3   3  -1  136.99    8.20
   3   3  -1  138.99    7.80
  -3   3   1  139.29    8.20
  -2  -3   1    9.50    1.60
   2  -3  -1   14.10    1.40
   2  -3  -1   10.10    1.70
   2  -3  -1   13.80    1.90
  -2   3   1   15.10    1.80
   2   3  -1   10.50    1.60
   2   3  -1   13.40    1.70
  -2   3   1   10.20    1.70
   1  -3  -1   24.70    2.10
  -1  -3   1   25.40    1.90
   1  -3  -1   26.20    1.90
   1  -3  -1   23.90    2.10
   1   3  -1   26.80    1.80
   1   3  -1   25.40    2.10
  -1   3   1   24.90    1.90
  -1   3   1   23.70    2.00
  -1   3   1   26.20    2.10
   1   3  -1   25.00    1.90
   0  -3   1  282.37   14.60
   0  -3  -1  281.17   14.60
   0  -3   1  276.17   14.60
   0  -3  -1  284.87   14.50
   0   3  -1  273.17   14.60
   0   3  -1  282.07   14.50
   0   3   1  271.57   14.60
   0   3   1  270.87   14.50
   0   3   1  275.57   14.60
   0   3   1  295.77   14.80
   0   3  -1  266.87   14.90
   1  -3   1  191.88    9.90
  -1  -3  -1  182.48    9.90
   1  -3   1  187.28    9.80
   1  -3   1  179.78   10.20
  -1   3  -1  177.68   10.20
   1   3   1  179.68   10.00
  -1   3  -1  183.08    9.80
   1   3   1  171.68    9.80
  -2  -3  -1   11.50    1.50
   2  -3   1    9.50    1.60
   2  -3   1   10.00    1.90
   2  -3   1   10.00    1.40
   2   3   1   11.40    1.60
   2   3   1   10.80    1.70
  -2   3  -1   11.40    1.40
  -2   3  -1   10.10    1.80
   3  -3   1  353.76   19.60
   3  -3   1  350.26   18.80
  -3  -3  -1  355.56   18.90
  -3   3  -1  355.96   19.70
   3   3   1  352.46   18.90
  -3   3  -1  347.87   18.80
   3   3   1  355.56   19.30
   4  -3   1   17.10    3.00
  -4  -3  -1   16.90    2.20
   4  -3   1   17.30    2.20
  -4   3  -1   16.40    3.10
   4   3   1   15.20    2.50
   4   3   1   14.50    2.30
  -4   3  -1   18.90    2.40
   5  -3   1   36.70    3.40
   5  -3   1   35.40    4.30
   5   3   1   38.80    3.90
  -5   3  -1   35.30    3.60
   5   3   1   34.60    3.30
   5   3   1   39.60    4.30
   6  -3   1    1.90    1.40
   6  -3   1    0.80    1.90
  -6   3  -1   -0.70    1.60
   6   3   1    1.10    1.50
   6   3   1   -1.30    1.60
   7  -3   1   62.99    6.40
   7  -3   1   61.19    4.90
   7  -3   1   58.79    6.30
   7   3   1   57.49    6.30
   7   3   1   51.39    5.40
   8  -3   1    2.00    1.60
   8  -3   1    1.50    2.30
   8  -3   1   -1.30    2.30
   8   3   1    2.40    1.70
   8   3   1    4.90    1.90
   8   3   1    2.40    2.40
   8  -4  -1   -0.20    2.40
   8  -4  -1   -3.10    2.10
   8   4  -1    2.50    1.90
   8   4  -1    1.60    1.80
   8   4  -1    1.30    3.20
   7  -4  -1    1.50    1.90
   7  -4  -1    0.70    1.90
   7   4  -1    1.50    1.50
   7   4  -1    2.20    1.70
   7   4  -1    4.00    1.90
   6  -4  -1  168.68   11.30
   6  -4  -1  184.98   11.80
   6   4  -1  163.58   10.70
   6   4  -1  166.48   10.70
   6   4  -1  167.58   10.30
  -6   4   1  180.58   11.70
   6   4  -1  169.18   11.00
   5  -4  -1   70.09    5.80
   5  -4  -1   64.49    5.60
   5   4  -1   68.59    5.40
   5   4  -1   65.59    5.20
   5   4  -1   71.19    5.20
   5   4  -1   66.09    4.80
  -5   4   1   68.09    5.90
   4  -4  -1  469.85   25.50
   4  -4  -1  488.35   25.90
  -4   4   1  479.45   25.60
   4   4  -1  434.06   25.80
   4   4  -1  476.15   25.20
  -3  -4   1  445.06   23.40
   3  -4  -1  461.75   23.10
   3  -4  -1  445.96   24.00
   3  -4  -1  435.46   23.80
  -3   4   1  444.36   23.80
   3   4  -1  435.06   23.60
   3   4  -1  433.66   23.30
   2  -4  -1   35.90    2.50
  -2  -4   1   33.10    2.60
   2  -4  -1   41.20    3.10
   2  -4  -1   32.50    2.80
   2   4  -1   33.60    2.80
  -2   4   1   33.00    2.90
   2   4  -1   32.20    2.50
  -2   4   1   31.70    2.90
   1  -4  -1    7.30    1.30
  -1  -4   1    5.40    1.10
  -1  -4   1    8.00    1.20
  -1  -4   1    7.40    1.50
   1  -4  -1    7.70    1.40
   1  -4  -1    6.30    1.30
   1   4  -1    7.60    1.30
  -1   4   1    6.30    1.10
   1   4  -1    6.40    1.20
  -1   4   1    5.30    1.20
  -1   4   1    6.70    1.30
   1   4  -1    8.80    1.60
   0  -4  -1   14.50    1.70
   0  -4   1   13.60    1.70
   0  -4  -1   13.80    1.60
   0  -4   1   13.00    1.90
   0  -4   1   12.90    1.50
   0   4  -1   13.90    1.80
   0   4   1   13.30    1.60
   0   4   1   13.30    1.70
   0   4  -1   13.60    1.60
   0   4  -1   14.10    1.70
   1  -4   1 1228.78   63.79
   1  -4   1 1299.57   63.59
  -1  -4  -1 1275.67   63.59
   1  -4   1 1260.27   63.39
  -1   4  -1 1277.17   63.39
   1   4   1 1191.08   63.49
   1   4   1 1223.48   63.69
  -1   4  -1 1193.68   63.79
   2  -4   1  750.42   36.10
   2  -4   1  669.83   36.70
  -2  -4  -1  717.13   36.10
   2  -4   1  681.63   35.80
   2   4   1  668.53   36.00
   2   4   1  682.23   36.80
  -2   4  -1  694.83   36.50
  -2   4  -1  684.23   35.70
   3  -4   1  194.98   10.90
  -3  -4  -1  194.38   11.10
   3  -4   1  180.18   11.60
  -3   4  -1  194.48   10.90
   3   4   1  200.18   11.20
   3   4   1  199.48   11.50
  -3   4  -1  207.18   11.90
   4  -4   1   88.99    6.90
  -4  -4  -1   90.79    6.00
   4  -4   1   91.49    5.90
   4   4   1   95.69    6.60
  -4   4  -1   90.49    5.90
  -4   4  -1   93.89    7.10
   4   4   1   92.79    6.10
   5  -4   1    0.80    1.70
   5  -4   1    1.90    1.20
  -5   4  -1    2.00    1.30
   5   4   1   -0.80    1.20
   5   4   1    1.10    1.20
  -5   4  -1   -0.10    1.70
   6  -4   1   17.90    2.80
   6  -4   1   23.80    4.00
  -6   4  -1   22.80    3.30
   6   4   1   20.10    3.90
   6   4   1   20.80    2.90
   6   4   1   18.90    3.20
   7  -4   1    1.30    1.50
   7  -4   1    0.80    1.90
   7  -4   1    0.90    2.20
   7   4   1   -0.10    1.40
   7   4   1   -1.50    2.10
   7   4   1    2.30    1.70
   8  -4   1    6.10    2.50
   8  -4   1    2.60    2.90
   8   4   1    3.00    2.10
   8   4   1    3.40    2.90
   8  -5  -1    1.00    2.30
   8  -5  -1   -0.40    2.30
   8   5  -1    1.50    2.40
   8   5  -1   -1.00    1.60
   8   5  -1   -0.40    2.70
   7  -5  -1    4.30    2.10
   7  -5  -1    1.90    2.90
   7   5  -1    5.50    2.20
   7   5  -1    6.30    2.20
   7   5  -1    3.20    1.80
   6  -5  -1    7.90    2.50
   6  -5  -1   11.70    2.80
  -6   5   1   13.80    3.30
   6   5  -1   12.90    2.10
   6   5  -1   12.60    2.70
   6   5  -1   13.20    2.70
   6   5  -1   13.00    2.70
   5  -5  -1   -0.20    1.40
   5  -5  -1    0.80    1.60
  -5   5   1   -1.20    1.60
   5   5  -1    0.80    1.30
   5   5  -1   -0.70    0.90
   5   5  -1    0.50    1.10
   4  -5  -1  500.65   27.80
   4  -5  -1  524.75   28.10
  -4  -5   1  512.65   27.30
  -4   5   1  518.25   28.00
   4   5  -1  503.15   27.50
   4   5  -1  520.65   27.10
   3  -5  -1   19.00    2.60
   3  -5  -1   21.70    2.00
   3  -5  -1   20.10    2.70
  -3  -5   1   17.90    2.30
   3   5  -1   17.20    2.40
   3   5  -1   19.10    2.20
  -3   5   1   18.90    2.60
   2  -5  -1  692.43   33.50
  -2  -5   1  650.93   33.60
   2  -5  -1  589.44   33.90
  -2  -5   1  643.64   34.00
   2  -5  -1  666.13   35.10
   2   5  -1  689.83   33.60
   2   5  -1  613.34   33.50
  -2   5   1  648.74   33.40
  -2   5   1  664.23   34.10
   2   5  -1  626.84   34.40
   1  -5  -1  173.68    9.20
  -1  -5   1  177.78    9.30
   1  -5  -1  157.58    9.30
   1  -5  -1  160.58    9.50
  -1  -5   1  159.98    9.20
  -1   5   1  169.98    9.60
   1   5  -1  162.18    9.40
   1   5  -1  158.08    9.20
  -1   5   1  166.08    9.20
  -1   5   1  169.08    9.40
   1   5  -1  176.18    9.30
   0  -5   1  757.12   36.70
   0  -5  -1  724.23   36.40
   0  -5   1  693.83   36.70
   0  -5  -1  730.73   36.70
   0   5  -1  709.03   36.60
   0   5  -1  648.74   36.70
   0   5   1  749.62   36.90
   0   5   1  700.33   36.50
   0   5   1  657.73   36.70
   0   5  -1  730.83   36.80
   1  -5   1  183.38    9.80
   1  -5   1  165.08    9.90
  -1  -5  -1  174.08    9.70
  -1   5  -1  173.88   10.00
  -1   5  -1  174.18    9.30
   1   5   1  164.48    9.70
   2  -5   1  619.04   34.30
  -2  -5  -1  662.03   34.10
   2  -5   1  638.54   33.70
   2  -5   1  707.13   34.10
  -2   5  -1  645.84   34.50
  -2   5  -1  645.04   33.70
   2   5   1  643.74   34.20
   2   5   1  647.54   34.20
   3  -5   1   36.10    3.30
   3  -5   1   31.30    2.80
  -3  -5  -1   32.90    3.00
   3  -5   1   34.00    3.70
   3   5   1   33.80    3.20
  -3   5  -1   31.30    3.50
   3   5   1   34.30    3.50
  -3   5  -1   32.10    2.70
   4  -5   1    2.30    1.20
   4  -5   1    1.30    1.70
  -4  -5  -1    1.50    1.30
   4   5   1    2.30    1.30
  -4   5  -1    1.80    1.80
  -4   5  -1    3.50    1.30
   4   5   1    4.30    1.60
   5  -5   1    8.60    1.70
  -5  -5  -1    8.80    2.00
   5  -5   1    5.90    2.30
  -5   5  -1   12.10    3.00
   5   5   1    7.80    2.20
  -5   5  -1   12.60    2.20
   5   5   1    9.50    1.90
   6  -5   1   -2.50    2.40
   6  -5   1   -1.10    1.20
   6  -5   1    2.80    2.00
   6   5   1    0.10    1.60
   6   5   1    2.50    1.80
   6   5   1    2.40    1.50
   7  -5   1   -1.40    1.90
   7  -5   1   -1.30    2.10
   7  -5   1    1.20    2.20
   7   5   1   -2.00    1.60
   7   5   1    0.70    2.00
   7   5   1    2.70    1.80
   8  -5   1   -0.50    2.40
   8  -5   1    5.10    2.90
   8  -5   1    0.90    2.60
   8   5   1    3.40    2.30
   8   5   1    0.20    2.20
   8  -6  -1    0.60    2.50
   8   6  -1    4.20    2.20
   8   6  -1    8.90    2.30
   8   6  -1    6.20    2.10
   7  -6  -1    2.50    1.80
   7  -6  -1    1.50    2.00
   7   6  -1    1.00    1.80
   7   6  -1    0.70    1.70
   7   6  -1    1.30    2.70
  -7   6   1   -4.70    3.30
   6  -6  -1   20.30    3.50
   6   6  -1   12.90    2.50
  -6   6   1   25.20    4.40
   6   6  -1   17.90    3.20
   6   6  -1   19.30    3.30
   6   6  -1   16.40    3.00
   5  -6  -1   10.60    2.50
   5  -6  -1    8.20    2.20
   5   6  -1    9.80    2.00
   5   6  -1   11.80    2.10
  -5   6   1   14.10    3.10
   5   6  -1   11.20    2.20
   4  -6  -1   17.60    2.90
   4  -6  -1   20.60    3.20
  -4  -6   1   15.80    2.50
  -4   6   1   22.20    3.30
   4   6  -1   23.50    2.90
   4   6  -1   16.90    2.50
  -3  -6   1  274.37   14.60
   3  -6  -1  254.47   15.10
   3  -6  -1  291.67   14.40
   3  -6  -1  268.37   15.30
  -3  -6   1  270.47   15.10
   3   6  -1  269.67   15.10
  -3   6   1  269.67   15.30
   3   6  -1  232.28   15.40
   2  -6  -1   -0.20    1.00
   2  -6  -1    1.20    0.80
  -2  -6   1    1.00    0.70
  -2  -6   1    1.00    0.90
   2  -6  -1   -0.50    0.90
   2   6  -1    0.90    0.70
   2   6  -1    0.60    0.80
  -2   6   1    0.80    1.00
  -2   6   1    1.00    0.70
   2   6  -1    0.80    0.90
   1  -6  -1  272.87   15.00
   1  -6  -1  289.47   14.90
  -1  -6   1  293.97   14.90
   1  -6  -1  245.48   15.60
  -1  -6   1  264.57   14.90
   1   6  -1  270.97   15.30
  -1   6   1  281.07   15.10
  -1   6   1  265.57   14.80
   1   6  -1  271.17   14.90
  -1   6   1  285.17   15.30
   1   6  -1  300.57   15.10
   0  -6  -1  402.36   21.10
   0  -6  -1  392.26   20.80
   0  -6   1  413.96   21.10
   0  -6  -1  423.46   21.00
   0  -6   1  380.06   21.20
   0   6   1  431.26   21.50
   0   6   1  376.06   21.10
   0   6  -1  371.16   21.10
   0   6  -1  411.16   21.30
   0   6  -1  387.56   21.00
   1  -6   1  751.92   36.40
   1  -6   1  706.13   36.00
   1  -6   1  662.33   37.10
  -1  -6  -1  708.13   36.40
  -1  -6  -1  720.43   35.90
  -1   6  -1  684.13   35.90
   1   6   1  628.04   36.40
  -1   6  -1  710.53   36.20
  -1   6  -1  712.63   36.70
  -2  -6  -1  335.77   18.40
   2  -6   1  329.17   18.70
   2  -6   1  357.26   18.40
   2   6   1  335.67   18.60
  -2   6  -1  332.27   18.80
   2   6   1  325.97   18.40
  -2   6  -1  346.97   18.00
  -3  -6  -1   96.39    6.30
   3  -6   1  102.89    6.50
   3  -6   1   95.99    6.10
   3  -6   1   94.49    6.90
   3   6   1   93.49    6.60
  -3   6  -1   91.89    5.80
  -3   6  -1   98.99    7.00
   3   6   1   91.89    6.40
   4  -6   1   -1.30    1.30
   4  -6   1    0.30    1.00
   4  -6   1    0.90    1.30
  -4  -6  -1    0.20    1.10
   4   6   1   -1.50    1.10
  -4   6  -1    0.00    0.90
   4   6   1    0.50    1.20
  -4   6  -1    0.80    1.70
  -5  -6  -1   61.39    5.60
   5  -6   1   64.29    6.10
   5  -6   1   68.39    5.70
   5  -6   1   68.39    4.80
   5   6   1   64.79    5.30
   5   6   1   64.49    5.70
  -5   6  -1   68.09    6.50
   6  -6   1   27.00    4.40
   6  -6   1   32.50    4.40
   6  -6   1   29.20    4.40
  -6   6  -1   16.10    4.30
  -6   6  -1   24.20    3.40
   6   6   1   28.00    3.50
   6   6   1   23.40    5.20
   7  -6   1   -1.30    2.10
   7  -6   1    0.20    2.30
   7  -6   1    1.20    2.10
   7   6   1    0.70    2.20
   7   6   1    4.30    1.80
   8  -6   1    3.20    2.80
   8  -6   1    6.10    3.20
   8  -6   1    4.80    3.30
   8   6   1   -0.90    2.00
   8   6   1    3.80    2.80
   8   6   1    2.50    2.20
   8  -7  -1   -1.20    2.30
   8  -7  -1    2.20    2.50
   8   7  -1    0.60    1.90
   8   7  -1    2.90    1.90
   8   7  -1    0.90    1.90
   7  -7  -1   21.70    4.30
   7  -7  -1   26.30    4.30
   7   7  -1   26.20    5.10
   7   7  -1   22.00    4.00
   7   7  -1   20.10    3.90
   6  -7  -1   -1.40    1.60
   6  -7  -1    0.80    2.00
   6   7  -1    5.30    2.10
  -6   7   1   -0.50    2.60
   6   7  -1    3.60    1.80
   5  -7  -1    7.50    2.20
   5  -7  -1   11.50    2.50
   5   7  -1   11.20    2.20
   5   7  -1    6.80    2.10
  -5   7   1   11.00    2.80
   5   7  -1    9.30    2.10
   4  -7  -1   57.79    5.20
  -4  -7   1   59.49    4.50
   4  -7  -1   57.49    5.30
  -4   7   1   58.49    5.30
   4   7  -1   59.49    4.30
   4   7  -1   62.09    5.00
  -3  -7   1  396.16   21.40
   3  -7  -1  377.96   22.00
   3  -7  -1  430.26   21.20
  -3  -7   1  408.96   22.00
   3  -7  -1  401.56   22.10
   3   7  -1  377.86   21.20
   3   7  -1  384.26   21.90
  -3   7   1  420.16   22.30
   2  -7  -1  653.13   35.10
  -2  -7   1  698.83   35.30
  -2  -7   1  679.83   34.70
   2  -7  -1  591.64   35.10
   2  -7  -1  691.73   34.60
   2   7  -1  708.73   34.90
   2   7  -1  621.14   34.70
  -2   7   1  654.23   34.60
  -2   7   1  694.53   35.50
   2   7  -1  671.43   35.20
  -1  -7   1  102.59    6.30
   1  -7  -1  100.89    6.00
   1  -7  -1   88.19    6.30
  -1  -7   1   95.19    6.10
   1  -7  -1   95.39    6.10
  -1  -7   1  103.29    6.00
  -1   7   1   90.89    6.20
   1   7  -1   89.49    6.10
  -1   7   1   99.79    6.20
   1   7  -1  102.49    6.20
   1   7  -1   88.89    6.10
  -1   7   1  102.69    6.50
   0  -7   1  157.88    8.80
   0  -7  -1  157.88    8.70
   0  -7   1  153.98    8.90
   0  -7  -1  148.59    8.50
   0  -7  -1  151.78    8.80
   0  -7  -1  153.68    9.20
   0   7  -1  151.18    8.80
   0   7   1  136.79    8.80
   0   7  -1  142.99    8.90
   0   7  -1  157.48    9.10
   0   7   1  165.08    9.20
   0   7   1  153.68    8.60
   1  -7   1   14.20    2.20
   1  -7   1   16.90    1.80
  -1  -7  -1   13.90    1.60
   1  -7   1   18.20    2.10
  -1  -7  -1   16.10    2.00
   1   7   1   14.20    2.10
  -1   7  -1   16.00    1.80
  -1   7  -1   15.50    2.30
  -1   7  -1   16.90    2.00
   1   7   1   15.00    2.10
  -2  -7  -1   22.70    2.50
   2  -7   1   26.90    2.80
   2  -7   1   22.80    3.00
  -2   7  -1   23.50    2.40
  -2   7  -1   25.40    3.10
   2   7   1   25.00    2.90
   2   7   1   23.10    2.90
  -3  -7  -1   61.89    4.70
   3  -7   1   69.89    5.00
   3  -7   1   57.89    5.20
  -3   7  -1   58.69    5.30
   3   7   1   59.89    4.90
   3   7   1   62.09    5.10
  -3   7  -1   59.09    4.20
   4  -7   1    2.20    1.70
   4  -7   1    5.10    1.90
   4  -7   1    3.30    1.30
  -4  -7  -1    4.40    1.60
  -4   7  -1    4.70    2.20
   4   7   1    4.50    1.80
  -4   7  -1    5.30    1.40
   4   7   1    3.60    1.60
   5  -7   1   36.70    3.60
   5  -7   1   31.70    4.60
  -5  -7  -1   34.30    4.30
   5  -7   1   38.50    4.40
   5   7   1   35.50    4.10
  -5   7  -1   36.80    5.40
   5   7   1   40.50    4.50
  -5   7  -1   42.60    3.70
   6  -7   1    7.50    2.50
   6  -7   1    4.00    2.20
   6  -7   1    2.80    2.10
   6   7   1    5.60    2.00
   6   7   1    2.30    1.80
   7  -7   1  120.39    8.60
   7  -7   1  101.39    9.20
   7  -7   1  110.09    9.40
   7   7   1  102.79    8.30
   7   7   1  115.39    8.70
   7   7   1  101.29    8.90
   8  -7   1    6.20    2.80
   8   7   1    0.90    2.30
   8  -8  -1    2.20    2.90
   8  -8  -1    4.10    3.40
   8   8  -1    4.30    2.40
   8   8  -1    2.90    2.20
   8   8  -1    3.70    2.10
   7  -8  -1   10.00    2.70
   7  -8  -1    6.80    2.60
   7   8  -1    9.30    2.60
   7   8  -1    3.70    2.40
   7   8  -1   10.00    2.50
   6  -8  -1   -1.40    1.60
   6   8  -1   -2.00    2.10
   6   8  -1   -0.10    1.50
  -6   8   1    1.80    2.40
   5  -8  -1    3.00    1.90
   5  -8  -1    3.90    2.20
   5   8  -1    4.90    1.70
  -5   8   1    6.70    2.50
   5   8  -1    5.00    2.10
   5   8  -1    2.50    1.30
   4  -8  -1  102.29    7.60
   4  -8  -1  100.79    7.40
  -4  -8   1  102.09    6.70
  -4   8   1  100.89    7.80
   4   8  -1  103.69    7.20
   4   8  -1   98.59    6.40
  -3  -8   1    5.00    1.70
   3  -8  -1    4.50    1.10
   3  -8  -1    5.80    1.70
  -3  -8   1    5.70    1.50
   3  -8  -1    3.30    1.50
   3   8  -1    4.50    1.60
  -3   8   1    5.70    1.50
   3   8  -1    3.80    1.20
  -3   8   1    7.10    2.00
   3   8  -1    5.80    1.50
  -2  -8   1  141.09    8.80
  -2  -8   1  138.59    8.30
   2  -8  -1  148.29    8.20
   2  -8  -1  136.09    8.70
   2  -8  -1  129.39    8.80
  -2   8   1  150.48    9.10
   2   8  -1  140.49    8.80
   2   8  -1  151.38    8.60
  -2   8   1  135.19    8.20
   2   8  -1  132.19    8.30
   1  -8  -1   32.30    2.80
  -1  -8   1   32.00    3.00
   1  -8  -1   31.20    3.00
  -1  -8   1   34.20    2.80
  -1  -8   1   27.70    2.90
   1  -8  -1   27.80    3.10
   1  -8  -1   32.30    3.00
   1   8  -1   30.00    2.90
  -1   8   1   36.60    3.40
   1   8  -1   31.40    2.90
   1   8  -1   33.70    3.10
  -1   8   1   28.90    2.80
   0  -8  -1   50.09    3.50
   0  -8   1   51.29    3.70
   0  -8   1   39.70    3.50
   0  -8  -1   44.10    3.50
   0  -8   1   46.90    3.50
   0  -8  -1   37.50    3.70
   0   8   1   45.70    3.90
   0   8  -1   39.50    3.60
   0   8  -1   43.80    3.40
   0   8   1   39.70    3.50
   0   8   1   44.50    3.30
   0   8  -1   47.40    3.90
  -1  -8  -1   10.40    1.60
   1  -8   1    7.70    1.50
   1  -8   1    7.90    1.70
   1  -8   1    8.70    1.50
  -1  -8  -1   11.40    1.90
   1   8   1    5.20    1.40
  -1   8  -1    6.90    1.30
  -1   8  -1    9.20    1.80
  -1   8  -1    9.10    2.00
   1   8   1    9.90    1.90
   2  -8   1  136.09    8.90
   2  -8   1  151.28    8.70
  -2  -8  -1  140.89    8.60
  -2   8  -1  138.69    9.00
   2   8   1  124.29    8.60
  -2   8  -1  136.79    8.10
  -3  -8  -1  120.39    7.80
   3  -8   1  126.69    7.90
   3  -8   1  112.79    8.20
  -3   8  -1  116.39    7.20
   3   8   1  120.69    8.20
  -3   8  -1  114.69   10.00
   3   8   1  113.59    7.90
   4  -8   1   18.30    3.30
  -4  -8  -1   17.80    2.90
   4  -8   1   22.80    3.60
   4   8   1   21.40    3.50
  -4   8  -1   23.10    3.90
  -4   8  -1   17.60    2.50
   4   8   1   20.40    3.10
  -5  -8  -1   69.49    6.10
   5  -8   1   65.39    8.50
   5  -8   1   82.69    6.40
   5  -8   1   72.29    7.30
   5  -8   1   79.19    5.50
   5   8   1   75.19    6.50
  -5   8  -1   77.59    7.60
   5   8   1   77.69    6.30
   6  -8   1   25.50    4.70
   6  -8   1   25.90    4.50
   6  -8   1   28.90    4.60
   6   8   1   30.40    4.00
   6   8   1   29.00    4.00
  -6   8  -1   38.00    7.10
   7  -8   1    1.70    2.50
   7  -8   1    6.70    2.70
   7  -8   1    0.80    2.50
   7   8   1    3.40    2.20
   7   8   1   -0.20    2.30
   7   8   1    0.50    1.80
   8  -8   1    4.10    3.00
   8  -8   1   13.10    3.70
   8  -8   1    8.60    4.00
   8   8   1   15.00    3.00
   8   8   1   10.40    2.70
   8   8   1   11.20    2.10
   8  -9  -1    2.90    3.00
   8  -9  -1    1.00    2.50
   8   9  -1    1.10    2.20
   8   9  -1   -2.40    2.00
   6  -9  -1    8.20    2.50
   6  -9  -1   10.20    2.70
  -6   9   1    4.10    3.20
   6   9  -1   11.20    2.60
   6   9  -1    9.80    2.70
   5  -9  -1   33.70    5.20
   5  -9  -1   28.10    4.10
  -5   9   1   31.10    4.90
   5   9  -1   29.80    3.20
   5   9  -1   34.50    4.10
   4  -9  -1    0.70    1.30
   4  -9  -1    1.00    1.40
  -4  -9   1    1.40    1.20
   4   9  -1   -0.20    1.40
   4   9  -1    1.90    1.10
  -4   9   1    1.20    1.70
   4   9  -1    2.60    1.70
   3  -9  -1    1.60    1.10
  -3  -9   1    1.20    1.10
  -3  -9   1   -2.30    1.70
   3  -9  -1    0.70    1.30
   3  -9  -1    0.80    1.30
  -3   9   1    0.90    1.60
  -3   9   1    0.70    0.90
   3   9  -1    1.20    1.00
   3   9  -1    1.40    1.30
   3   9  -1   -0.20    1.30
   2  -9  -1   46.00    4.10
   2  -9  -1   48.70    3.70
  -2  -9   1   48.60    3.80
  -2  -9   1   45.80    4.20
   2  -9  -1   43.80    4.20
  -2   9   1   46.60    3.70
  -2   9   1   53.79    4.60
   2   9  -1   48.10    4.20
   2   9  -1   50.89    4.20
   2   9  -1   46.60    3.80
   1  -9  -1  355.96   19.80
   1  -9  -1  392.36   20.10
  -1  -9   1  379.66   19.90
  -1  -9   1  344.47   20.00
  -1  -9   1  373.56   20.20
   1  -9  -1  331.67   20.20
   1  -9  -1  378.66   19.90
   1   9  -1  406.26   20.40
  -1   9   1  346.87   19.80
   1   9  -1  326.57   19.80
  -1   9   1  410.96   20.70
   1   9  -1  355.46   20.10
   0  -9   1  206.38   11.40
   0  -9   1  199.78   11.50
   0  -9   1  177.38   11.50
   0  -9  -1  215.88   11.40
   0  -9  -1  202.78   11.50
   0   9   1  179.78   11.50
   0   9  -1  213.88   12.00
   0   9   1  214.38   12.00
   0   9   1  195.98   11.10
   0   9  -1  184.98   11.60
   0   9  -1  194.38   11.40
   1  -9   1   -0.70    1.10
   1  -9   1   -0.80    0.80
  -1  -9  -1   -0.90    0.80
   1  -9   1    0.30    0.90
  -1  -9  -1    0.30    0.80
  -1   9  -1    0.20    0.90
  -1   9  -1    0.00    1.30
   1   9   1    0.20    1.10
   1   9   1    0.60    1.30
  -1   9  -1    1.10    0.90
   2  -9   1  160.68   11.00
   2  -9   1  190.98   10.80
  -2  -9  -1  178.28    9.90
  -2  -9  -1  172.68   10.70
  -2   9  -1  170.98    9.90
   2   9   1  187.38   11.00
  -2   9  -1  176.78   11.20
   2   9   1  165.28   10.80
  -2   9  -1  186.38   10.30
  -3  -9  -1  143.49    9.20
   3  -9   1  148.99    9.30
   3  -9   1  132.39    9.50
  -3   9  -1  141.69    9.80
   3   9   1  144.19    9.50
   3   9   1  137.69    9.20
  -3   9  -1  140.19    8.40
   4  -9   1   31.60    4.10
   4  -9   1   33.40    4.30
   4  -9   1   36.30    4.20
  -4  -9  -1   28.10    3.60
  -4   9  -1   29.70    3.10
   4   9   1   38.60    4.20
  -4   9  -1   26.10    4.70
   4   9   1   33.50    3.90
   5  -9   1   21.60    4.00
   5  -9   1   18.30    3.60
  -5  -9  -1   21.90    3.70
   5  -9   1   24.50    4.00
  -5   9  -1   22.20    4.70
  -5   9  -1   17.40    2.80
   5   9   1   21.90    3.50
   5   9   1   18.50    3.50
   6  -9   1    0.90    2.00
   6  -9   1    2.50    2.20
   6  -9   1   -0.40    2.00
   6   9   1    1.70    1.70
  -6   9  -1    1.40    3.70
   6   9   1    2.20    1.80
   7  -9   1   55.09    7.10
   7  -9   1   74.49    7.10
   7  -9   1   73.09    7.00
   7   9   1   63.79    6.10
   7   9   1   54.29    6.30
   8 -10  -1    3.10    2.60
   8 -10  -1    4.00    3.30
   8  10  -1    3.50    2.40
   8  10  -1    5.30    2.60
   8  10  -1    8.20    2.20
   6 -10  -1    8.20    2.70
   6 -10  -1    5.50    2.30
   6  10  -1   11.40    2.60
   6  10  -1    8.90    2.30
   5 -10  -1   17.00    3.70
   5 -10  -1   14.40    3.10
   5  10  -1   21.10    4.10
  -5  10   1   20.90    4.50
   4 -10  -1  107.39    8.30
   4 -10  -1  112.99    8.40
  -4 -10   1  111.69    7.50
  -4 -10   1  121.59    8.40
  -4  10   1  117.29    8.80
   4  10  -1  111.89    7.30
   4  10  -1  119.09    7.90
   4  10  -1  116.59    8.20
  -3 -10   1  140.79    8.50
   3 -10  -1  142.49    8.40
   3 -10  -1  124.69    9.20
  -3 -10   1  137.79    9.20
   3 -10  -1  132.99    9.10
   3  10  -1  124.29    9.00
  -3  10   1  153.08    9.80
   3  10  -1  151.18    9.00
   3  10  -1  130.09    8.40
  -3  10   1  135.59    8.20
   2 -10  -1   -0.40    1.10
   2 -10  -1   -1.10    0.90
   2 -10  -1    0.30    1.30
  -2 -10   1   -0.20    1.20
   2 -10  -1   -1.50    1.00
  -2 -10   1    0.40    1.00
  -2  10   1   -0.10    1.40
   2  10  -1    0.10    1.30
   2  10  -1    0.20    1.20
   2  10  -1   -0.50    1.00
  -2  10   1    0.10    1.10
  -1 -10   1    4.90    1.70
   1 -10  -1    6.60    1.60
  -1 -10   1    4.40    1.70
   1 -10  -1    6.40    1.80
  -1 -10   1    9.10    1.70
   1 -10  -1    5.90    1.50
   1 -10  -1    7.60    1.80
   1  10  -1    5.50    1.60
  -1  10   1    9.40    2.20
   1  10  -1    5.60    1.60
   1  10  -1    6.90    1.80
  -1  10   1    5.50    1.50
   0 -10   1  135.19    8.20
   0 -10  -1  139.79    8.10
   0 -10   1  114.29    8.20
   0 -10  -1  131.59    8.20
   0 -10   1  135.99    8.20
   0  10  -1  136.39    8.70
   0  10  -1  120.59    8.30
   0  10   1  116.19    8.10
   0  10   1  138.89    8.70
   0  10  -1  124.19    8.10
  -1 -10  -1  447.36   24.20
   1 -10   1  444.06   23.80
   1 -10   1  374.76   24.10
   1 -10   1  451.45   24.00
  -1 -10  -1  447.96   23.60
   1 -10   1  489.15   24.20
   1  10   1  484.15   24.60
   1  10   1  393.16   24.00
  -1  10  -1  418.56   23.70
  -1  10  -1  453.95   24.00
  -1  10  -1  471.55   24.80
  -2 -10  -1    0.60    1.00
   2 -10   1    1.60    1.40
   2 -10   1    1.80    1.40
  -2 -10  -1    1.30    0.90
   2 -10   1   -0.20    1.00
   2  10   1    0.40    1.50
   2  10   1    2.00    1.40
  -2  10  -1   -0.10    1.60
  -2  10  -1    0.50    1.20
  -2  10  -1    0.90    1.00
   3 -10   1   49.00    5.00
   3 -10   1   46.30    5.10
   3 -10   1   58.69    5.00
  -3 -10  -1   47.20    4.50
   3  10   1   52.69    4.80
  -3  10  -1   47.60    5.30
   3  10   1   49.10    5.00
  -3  10  -1   54.49    4.20
   4 -10   1   -0.20    1.60
  -4 -10  -1    1.70    1.40
   4 -10   1    4.30    2.00
   4 -10   1   -0.40    1.60
   4  10   1    3.40    1.70
  -4  10  -1   -2.20    2.10
  -4  10  -1    2.00    1.40
   4  10   1   -0.70    1.60
  -5 -10  -1    2.30    2.20
   5 -10   1    0.40    2.00
   5 -10   1    1.90    2.00
   5 -10   1    1.20    1.80
   5  10   1    4.00    2.10
   5  10   1    2.40    2.30
   6 -10   1    3.00    2.30
   6 -10   1    4.50    2.40
   6  10   1    5.80    2.60
   6  10   1    7.80    2.40
   7 -10   1    3.80    2.80
   7 -10   1   -1.00    2.40
   7 -10   1    2.20    2.60
   7  10   1    1.80    2.40
   7  10   1    0.50    2.00
   7 -11  -1    3.10    2.40
   7 -11  -1    3.20    2.10
   7  11  -1   -1.70    2.30
   7  11  -1   -0.20    2.10
   6 -11  -1   47.60    5.20
   6 -11  -1   38.40    5.30
   6  11  -1   50.49    5.80
   6  11  -1   46.00    5.30
   6  11  -1   34.70    4.70
   5 -11  -1    0.00    1.80
   5 -11  -1    2.10    1.70
  -5 -11   1   -1.20    1.70
  -5  11   1    7.20    3.10
   5  11  -1   -0.40    1.50
   5  11  -1    1.70    2.00
   4 -11  -1    1.10    1.70
  -4 -11   1    0.00    1.60
  -4 -11   1   -2.10    1.30
   4 -11  -1   -1.50    1.40
   4  11  -1   -0.20    1.50
   4  11  -1   -0.90    1.20
  -3 -11   1    8.10    2.00
   3 -11  -1    7.20    2.00
   3 -11  -1    6.50    1.60
   3 -11  -1    7.60    2.20
  -3 -11   1    7.60    1.90
   3 -11  -1    7.40    2.10
   3  11  -1    5.80    1.90
  -3  11   1    7.20    2.50
   3  11  -1    6.70    2.20
  -3  11   1    7.10    1.60
   3  11  -1    5.00    1.70
  -2 -11   1   72.09    5.20
   2 -11  -1   54.89    5.40
   2 -11  -1   73.59    5.20
   2 -11  -1   69.09    5.40
  -2 -11   1   70.59    5.70
   2 -11  -1   77.59    5.60
  -2  11   1   76.59    6.10
  -2  11   1   67.69    5.10
   2  11  -1   75.29    5.80
   2  11  -1   63.39    5.40
   2  11  -1   58.69    5.20
   1 -11  -1  119.19    7.70
   1 -11  -1  107.19    8.10
  -1 -11   1  109.49    7.90
   1 -11  -1  127.99    7.90
  -1 -11   1  122.99    8.10
  -1 -11   1  125.69    7.80
   1 -11  -1  124.19    7.90
   1  11  -1  114.69    7.90
  -1  11   1  110.89    7.70
   1  11  -1  104.79    7.80
   1  11  -1  137.99    8.40
  -1  11   1  139.29    9.80
   0 -11  -1   24.70    3.00
   0 -11  -1   23.30    3.00
   0 -11   1   20.00    3.00
   0 -11   1   21.10    3.10
   0 -11   1   26.20    3.00
   0  11  -1   20.30    2.90
   0  11   1   20.80    3.00
   0  11  -1   24.20    3.60
   0  11   1   30.40    4.80
   1 -11   1  128.69    8.30
  -1 -11  -1  142.89    8.00
   1 -11   1  117.49    8.60
   1 -11   1  143.29    8.50
   1 -11   1  131.79    8.20
  -1 -11  -1  134.79    8.60
  -1  11  -1  116.09   10.90
  -1  11  -1  125.29    8.00
   1  11   1  116.49    8.40
   2 -11   1   44.40    4.40
   2 -11   1   46.90    3.80
  -2 -11  -1   42.40    3.80
  -2 -11  -1   46.60    4.30
   2 -11   1   45.20    4.70
   2 -11   1   51.49    4.50
   2  11   1   57.89    5.00
  -2  11  -1   44.10    5.10
   2  11   1   40.30    4.40
  -2  11  -1   43.70    3.80
  -2  11  -1   47.90    4.10
   3 -11   1    4.00    1.90
   3 -11   1    2.10    1.80
   3 -11   1    2.50    1.70
  -3 -11  -1    3.40    1.70
   3  11   1    2.30    1.80
  -3  11  -1    5.40    1.60
   3  11   1    3.50    1.90
  -3  11  -1    2.40    2.20
   3  11   1    6.10    1.90
   4 -11   1   12.20    4.30
   4 -11   1   15.90    2.90
   4 -11   1   13.50    3.30
  -4 -11  -1   18.20    3.40
   4  11   1   17.70    3.20
  -4  11  -1   17.10    2.90
   4  11   1   16.20    3.50
   5 -11   1    3.70    2.10
   5 -11   1    6.00    2.20
   5 -11   1    4.40    2.40
   5  11   1    3.20    2.30
  -5  11  -1    2.80    4.60
   5  11   1    3.80    2.10
  -6 -11  -1   13.80    3.70
   7 -11   1    4.30    2.40
   7 -11   1    0.90    4.10
   7  11   1    1.60    2.10
   7  11   1    0.60    2.40
   7 -12  -1   12.20    3.90
   7  12  -1    5.70    2.50
   6 -12  -1    9.50    2.90
   6 -12  -1   -0.10    2.40
   6  12  -1    1.50    1.90
  -6  12   1    9.10    4.30
   6  12  -1    4.20    2.10
   5 -12  -1   27.20    4.40
  -5 -12   1   30.40    4.40
   5 -12  -1   26.40    4.30
   5 -12  -1   21.90    4.50
   5  12  -1   25.80    4.70
   5  12  -1   24.50    3.90
   5  12  -1   28.10    3.50
   4 -12  -1   23.50    4.70
   4 -12  -1   14.40    3.90
  -4 -12   1   20.20    3.80
   4  12  -1   29.20    4.10
  -4  12   1   29.40    5.00
   4  12  -1   22.60    3.30
   4  12  -1   18.60    3.60
   3 -12  -1    5.40    1.90
   3 -12  -1    4.10    1.80
   3 -12  -1    5.60    1.80
  -3 -12   1    6.50    2.10
   3 -12  -1    5.10    2.10
  -3 -12   1    5.90    2.10
   3  12  -1    4.80    1.70
  -3  12   1    7.80    2.70
  -3  12   1    4.80    1.50
   3  12  -1    7.70    2.50
   3  12  -1    5.90    2.10
   2 -12  -1   48.40    4.40
   2 -12  -1   46.00    4.10
   2 -12  -1   53.09    4.60
  -2 -12   1   44.00    4.60
  -2 -12   1   47.60    5.30
   2 -12  -1   35.80    4.50
  -2  12   1   44.70    4.00
   2  12  -1   36.40    4.20
  -2  12   1   53.19    5.20
   2  12  -1   44.50    4.50
   2  12  -1   51.09    5.70
  -1 -12   1   30.30    3.80
  -1 -12   1   27.20    3.40
   1 -12  -1   22.20    3.60
   1 -12  -1   28.70    3.10
   1 -12  -1   31.10    3.30
   1 -12  -1   32.20    3.60
  -1 -12   1   23.60    3.50
  -1  12   1   25.60    3.30
   1  12  -1   30.30    5.10
   1  12  -1   24.80    3.40
   1  12  -1   21.10    3.20
  -1  12   1   26.60    3.80
   0 -12  -1   50.29    4.20
   0 -12   1   49.60    4.20
   0 -12  -1   43.40    4.20
   0 -12   1   44.10    4.30
   0 -12   1   37.60    4.20
   0  12  -1   41.10    4.10
   0  12   1   40.60    4.20
   0  12  -1   48.40    5.10
   0  12   1   47.20    5.00
  -1 -12  -1    7.20    1.90
   1 -12   1    5.80    1.80
   1 -12   1    4.80    1.50
   1 -12   1    5.60    2.00
  -1 -12  -1    7.70    1.60
   1 -12   1    5.20    1.70
   1  12   1    7.50    2.40
  -1  12  -1    4.20    1.50
  -1  12  -1    5.80    2.50
   1  12   1    5.70    1.80
   2 -12   1   12.90    2.50
  -2 -12  -1   16.50    2.90
   2 -12   1   14.70    3.00
  -2 -12  -1   11.70    2.30
   2 -12   1   14.60    2.60
   2 -12   1   14.20    2.50
  -2  12  -1   15.10    2.90
  -2  12  -1   15.60    3.70
  -2  12  -1   11.70    2.10
   2  12   1   12.00    2.50
   2  12   1   17.50    3.40
   3 -12   1    2.20    1.90
   3 -12   1    2.70    1.80
   3 -12   1    0.80    1.60
  -3 -12  -1    5.80    2.10
  -3  12  -1    3.10    1.50
   3  12   1    1.70    2.00
  -3  12  -1    2.90    3.10
   3  12   1    2.70    1.70
   3  12   1   -0.40    1.80
   4 -12   1    9.40    2.70
   4 -12   1    8.90    2.60
   4 -12   1   11.10    2.80
  -4  12  -1   10.90    2.30
   4  12   1    9.50    2.70
   4  12   1    9.10    2.40
   4  12   1   10.10    3.00
   5 -12   1   26.30    4.70
   5 -12   1   23.20    4.50
  -5 -12  -1   27.30    5.40
   5  12   1   28.40    4.10
  -5  12  -1   34.50    6.70
   5  12   1   23.40    4.50
  -6 -12  -1   20.60    4.40
   6 -12   1   17.30    3.50
   6 -12   1   12.40    3.30
   6  12   1    9.20    3.20
   6  12   1   11.40    2.90
   7 -12   1    4.40    2.80
   7 -12   1    3.00    2.70
   7  12   1   -3.80    2.20
   7  12   1    0.50    2.50
   7 -13  -1   -0.30    4.40
   7 -13  -1    7.40    2.50
   7  13  -1    7.70    2.90
   7  13  -1    0.50    3.40
   6 -13  -1   43.50    5.40
   6 -13  -1   29.80    5.20
   6  13  -1   31.90    4.90
   6  13  -1   37.10    5.30
   5 -13  -1    4.00    2.20
   5 -13  -1   -0.30    2.30
   5 -13  -1    1.50    2.20
   5  13  -1    2.30    1.90
  -5  13   1   -2.80    3.40
   5  13  -1   -1.00    2.70
   5  13  -1    3.10    1.60
   4 -13  -1   27.20    4.30
  -4 -13   1   35.60    4.00
   4 -13  -1   24.80    3.50
   4 -13  -1   26.20    4.40
   4  13  -1   31.30    3.80
   4  13  -1   25.80    4.10
   4  13  -1   38.30    4.90
  -3 -13   1   51.59    4.70
   3 -13  -1   54.49    4.60
   3 -13  -1   50.49    5.10
  -3  13   1   41.40    4.30
  -3  13   1   54.09    6.10
   3  13  -1   62.99    5.50
   3  13  -1   49.30    4.70
   3  13  -1   38.80    6.10
  -2 -13   1    1.60    1.60
  -2 -13   1    3.40    1.60
   2 -13  -1    0.60    1.50
   2 -13  -1    1.90    1.80
   2 -13  -1    4.00    1.90
   2 -13  -1    4.70    1.80
   2  13  -1    2.90    1.50
   2  13  -1    2.90    1.80
  -2  13   1    3.40    1.60
   2  13  -1    5.10    2.40
  -2  13   1    4.50    2.40
  -1 -13   1    4.10    1.70
   1 -13  -1    4.80    1.60
   1 -13  -1    1.60    1.60
  -1 -13   1    1.70    1.40
   1 -13  -1    2.40    1.40
   1 -13  -1   -0.10    1.20
   1  13  -1    2.10    1.60
  -1  13   1    2.50    1.40
   1  13  -1    1.00    1.60
   1  13  -1   -1.80    1.70
  -1  13   1    3.40    2.10
   0 -13  -1    2.20    1.20
   0 -13   1    1.50    1.50
   0 -13   1    1.10    1.20
   0 -13   1    2.40    1.60
   0 -13  -1    0.10    1.10
   0  13  -1   -2.20    1.70
   0  13   1    1.00    1.40
   0  13   1    0.50    2.00
   0  13  -1    0.90    1.40
   1 -13   1    5.80    2.20
   1 -13   1    7.50    1.90
  -1 -13  -1    9.60    1.90
   1 -13   1    6.40    1.90
  -1 -13  -1    7.90    1.80
   1 -13   1    6.50    2.00
   1  13   1    7.30    2.10
   1  13   1   11.50    2.70
  -1  13  -1   11.00    3.30
  -1  13  -1    7.40    1.90
   2 -13   1    6.20    1.90
  -2 -13  -1    6.30    1.80
   2 -13   1    7.10    2.40
  -2 -13  -1    7.60    2.20
   2 -13   1    5.30    1.90
   2 -13   1    2.80    1.90
   2  13   1    7.00    2.10
   2  13   1    6.90    2.80
  -2  13  -1    5.10    3.30
  -2  13  -1    5.00    3.00
  -2  13  -1    2.80    1.60
   3 -13   1    4.50    1.90
   3 -13   1    1.90    1.90
   3 -13   1    5.10    2.50
   3  13   1    8.00    2.30
   3  13   1    0.20    1.80
   3  13   1    3.00    2.00
  -3  13  -1    4.80    2.10
   4 -13   1   23.00    4.20
   4 -13   1   22.40    4.20
   4 -13   1   22.10    4.40
  -4 -13  -1   18.80    5.30
   4  13   1   22.10    4.20
   4  13   1   27.00    4.90
  -4  13  -1   18.50    3.50
  -5 -13  -1   12.60    3.70
   5 -13   1   15.60    3.20
   5 -13   1   11.70    3.20
   5 -13   1   11.10    2.70
   5  13   1   12.20    3.50
   5  13   1   13.00    4.20
   5  13   1    5.60    2.50
   6 -13   1    7.60    3.00
   6 -13   1   12.40    3.40
   6  13   1   11.50    3.00
   6 -14  -1    1.80    2.50
   6 -14  -1    0.40    2.50
   6  14  -1    1.60    2.30
   6  14  -1    5.40    3.70
   6  14  -1    3.80    2.20
   5 -14  -1    4.00    2.80
   5 -14  -1    3.50    2.40
   5 -14  -1    9.70    3.20
  -5 -14   1    3.40    2.20
   5  14  -1    6.80    2.50
   5  14  -1    5.20    1.90
   5  14  -1   12.50    3.40
  -4 -14   1   44.90    7.00
  -4 -14   1   43.80    4.50
   4 -14  -1   48.50    6.10
   4 -14  -1   39.70    5.20
   4 -14  -1   38.70    5.00
  -4  14   1   46.20    9.50
   4  14  -1   41.80    5.00
  -4  14   1   40.60    4.20
   4  14  -1   46.30    4.60
   3 -14  -1   11.20    2.20
   3 -14  -1    6.70    2.20
  -3 -14   1    5.10    1.90
   3 -14  -1    4.60    2.40
   3  14  -1    4.60    2.10
   3  14  -1   11.30    2.90
  -3  14   1    5.30    1.90
   3  14  -1    5.90    1.90
   2 -14  -1   -1.00    1.40
   2 -14  -1    0.70    1.50
  -2 -14   1    1.10    1.70
   2 -14  -1    0.80    2.30
  -2 -14   1    1.90    1.40
   2 -14  -1   -1.20    1.50
   2  14  -1    1.90    2.10
  -2  14   1   -0.80    1.40
   2  14  -1   -0.10    2.50
   2  14  -1    3.20    1.90
   1 -14  -1    9.00    2.70
  -1 -14   1   15.80    2.90
   1 -14  -1   14.10    2.60
   1 -14  -1   11.50    2.30
   1 -14  -1   12.90    2.60
   1  14  -1   16.00    3.00
   1  14  -1   22.10    4.10
  -1  14   1   11.40    2.50
  -1  14   1   16.90    3.80
   0 -14   1   85.09    7.20
   0 -14  -1  102.49    7.20
   0 -14   1  108.09    7.30
   0 -14  -1  112.89    7.20
   0 -14   1  106.19    7.50
   0  14   1  103.09    8.30
   0  14   1   82.99    7.20
   0  14  -1   89.49    7.10
   0  14  -1  101.09    8.20
   1 -14   1    4.60    1.60
   1 -14   1    3.20    1.50
  -1 -14  -1    4.60    1.70
  -1 -14  -1    4.90    2.00
   1 -14   1    4.40    1.80
  -1  14  -1    6.90    2.20
  -1  14  -1    5.30    3.00
  -1  14  -1    6.10    1.70
   1  14   1    2.80    1.90
   1  14   1    9.20    2.90
   2 -14   1    2.90    2.10
   2 -14   1   -0.80    1.60
   2 -14   1    1.10    1.60
  -2 -14  -1    2.30    1.90
   2  14   1   -1.90    1.60
  -2  14  -1    1.90    1.80
  -2  14  -1   -0.50    2.70
   2  14   1    0.60    2.20
  -2  14  -1    0.20    1.40
   3 -14   1  106.39    9.40
   3 -14   1  119.29   11.60
   3  14   1  141.09    9.90
   3  14   1  132.99    9.70
   3  14   1  113.49    9.10
  -3  14  -1  136.89    8.60
   4 -14   1    4.60    2.60
   4 -14   1    4.90    2.30
  -4 -14  -1    3.70    2.60
   4 -14   1    5.40    2.70
   4  14   1    5.70    1.90
  -4  14  -1    3.30    1.80
  -4  14  -1   13.60    5.00
   4  14   1    2.10    2.40
   5 -14   1   85.39    7.70
   5 -14   1   77.99    7.50
  -5 -14  -1  102.49   12.60
   5  14   1   76.79    7.80
   5  14   1   72.69    7.30
   6 -14   1    2.00    2.90
   6 -14   1    8.20    3.10
   6  14   1   -0.30    2.30
   6  14   1    0.40    2.60
   6 -15  -1   -1.20    2.20
   6 -15  -1   -0.90    3.40
   6  15  -1    0.00    2.20
   6  15  -1   -4.60    2.90
   5 -15  -1    3.10    2.30
   5 -15  -1    5.80    2.50
   5  15  -1   11.40    3.90
   5  15  -1    2.30    2.40
   5  15  -1    1.50    2.00
   4 -15  -1    7.30    2.50
  -4 -15   1    7.60    2.40
   4 -15  -1    4.60    2.70
  -4 -15   1   13.70    3.10
   4 -15  -1    6.90    2.70
   4  15  -1    9.20    2.20
   4  15  -1   12.40    3.50
   4  15  -1    6.20    2.30
  -4  15   1    6.30    2.10
  -4  15   1    9.50    4.40
   3 -15  -1    3.40    2.30
   3 -15  -1    6.20    2.50
   3 -15  -1    5.80    2.40
   3 -15  -1    3.80    3.60
  -3 -15   1    8.90    2.20
   3  15  -1    9.30    3.40
   3  15  -1    7.50    2.10
  -3  15   1    3.50    1.80
   3  15  -1    4.90    2.00
   2 -15  -1   40.10    5.20
  -2 -15   1   55.19    4.80
   2 -15  -1   48.80    5.00
  -2 -15   1   41.70    5.40
   2 -15  -1   46.80    4.70
   2  15  -1   55.59    6.10
  -2  15   1   47.00    4.80
   2  15  -1   52.19    5.30
   2  15  -1   46.30    5.10
  -1 -15   1   83.49    6.20
   1 -15  -1   64.49    6.50
   1 -15  -1   71.39    6.30
   1 -15  -1   69.79    5.60
   1 -15  -1   80.39    6.20
  -1 -15   1   70.79    6.40
   1  15  -1   61.99    7.40
  -1  15   1   68.89    6.00
  -1  15   1   55.69    7.00
   0 -15  -1   13.80    2.90
   0 -15   1   19.40    3.60
   0 -15   1   13.40    2.90
   0 -15  -1   17.60    3.30
   0 -15   1   17.30    3.40
   0  15   1   19.20    4.00
   0  15   1   13.70    3.10
   0  15  -1   23.30    4.80
   1 -15   1    1.80    1.60
  -1 -15  -1    2.90    1.60
   1 -15   1    6.10    2.10
   1 -15   1    3.70    2.10
   1 -15   1   -0.20    1.30
  -1 -15  -1    3.00    2.00
  -1  15  -1    3.10    1.60
   1  15   1    4.80    2.90
   1  15   1    2.10    1.90
  -1  15  -1    4.50    3.30
  -1  15  -1    2.90    2.00
  -2 -15  -1    2.70    1.90
   2 -15   1   -0.30    1.90
   2 -15   1    2.80    1.90
   2 -15   1    0.90    1.80
  -2  15  -1    7.50    2.10
   2  15   1    5.30    2.60
  -2  15  -1    9.00    3.40
   2  15   1    1.70    1.90
  -2  15  -1    1.10    1.50
   3 -15   1    1.70    1.90
   3 -15   1    1.40    1.70
   3 -15   1    0.40    2.10
  -3  15  -1    5.40    1.90
   3  15   1    1.60    2.00
  -3  15  -1    1.60    1.70
   3  15   1    5.70    3.10
  -4 -15  -1   -3.50    2.20
   4 -15   1    1.90    2.30
   4 -15   1   -4.20    2.40
   4 -15   1    2.60    2.30
  -4  15  -1    2.40    4.70
   4  15   1   -0.90    4.10
   4  15   1    4.80    2.10
  -4  15  -1    0.20    1.80
   4  15   1    1.10    2.10
   5 -15   1   16.10    3.50
   5 -15   1   11.00    3.40
   5  15   1   14.00    3.60
   5  15   1   10.60    3.10
   5 -16  -1    5.50    1.90
   5  16  -1   10.70    2.30
   5  16  -1    5.80    5.70
   4 -16  -1    0.60    2.20
   4 -16  -1    1.90    2.00
   4 -16  -1   -1.80    2.20
  -4  16   1    3.70    1.70
   4  16  -1    1.60    3.80
   4  16  -1   -0.40    2.10
   4  16  -1    5.70    3.20
  -3 -16   1   10.80    3.20
   3 -16  -1    5.90    2.50
   3 -16  -1   10.70    3.10
   3 -16  -1   10.90    2.60
  -3 -16   1    8.80    2.30
   3 -16  -1    9.60    2.10
  -3  16   1   21.70    5.60
   3  16  -1    5.80    2.30
  -3  16   1   13.00    2.60
   3  16  -1   13.60    3.80
   2 -16  -1   72.99    6.30
  -2 -16   1   78.29    6.60
  -2 -16   1   78.39    8.60
   2 -16  -1   88.79    6.90
  -2  16   1   77.19    6.50
   2  16  -1   73.99    6.80
   1 -16  -1   -1.10    1.50
  -1 -16   1    1.00    1.80
   1 -16  -1    0.00    2.00
  -1 -16   1    2.30    2.10
   1 -16  -1   -2.00    1.80
  -1  16   1    0.40    2.10
   1  16  -1    1.40    1.90
  -1  16   1    6.00    2.80
   0 -16  -1  104.89    7.30
   0 -16   1  107.69    8.00
   0 -16  -1  110.19    8.00
   0 -16   1   86.69    7.70
   0  16   1   87.89    7.70
   0  16  -1   78.39    9.00
   1 -16   1   11.10    3.50
   1 -16   1   13.90    2.60
  -1 -16  -1   13.70    3.10
  -1 -16  -1   18.10    3.30
   1 -16   1   14.00    3.00
   1 -16   1   11.40    2.90
  -1  16  -1   14.80    2.70
  -1  16  -1   19.90    3.50
   1  16   1   24.00    4.60
   1  16   1   13.80    3.00
  -1  16  -1   21.20    5.20
  -2 -16  -1   -2.60    1.40
   2 -16   1   -1.30    1.70
   2 -16   1    1.20    2.20
   2 -16   1   -0.20    2.10
   2 -16   1   -1.80    1.60
  -2 -16  -1    1.10    2.10
   2  16   1    3.00    2.80
  -2  16  -1    3.20    3.50
   2  16   1   -0.10    2.00
  -2  16  -1   -1.60    1.60
  -2  16  -1    4.60    2.20
  -3 -16  -1    0.90    1.60
   3 -16   1    3.00    1.70
   3 -16   1   -0.40    2.00
  -3 -16  -1    3.90    2.20
  -3  16  -1    0.80    1.80
   3  16   1    6.50    3.30
   3  16   1   -1.30    1.80
  -3  16  -1    9.90    4.10
   3  16   1    3.10    2.10
  -3  16  -1    5.40    2.10
   4 -16   1    5.40    2.50
   4 -16   1    6.70    2.90
   4  16   1    6.40    2.50
   4  16   1    7.80    2.60
  -4  16  -1    4.60    2.20
   4  16   1   15.50    4.60
   5 -16   1    3.00    2.60
   5 -16   1    0.10    2.30
   5  16   1    5.90    2.30
   5  16   1    1.00    4.20
   5 -17  -1   -1.50    2.50
   5 -17  -1    2.20    2.60
   5  17  -1    1.90    2.20
   4 -17  -1    1.80    2.40
   4 -17  -1    1.40    2.10
   4 -17  -1    4.00    2.50
   4  17  -1   -3.00    1.90
  -4  17   1    4.20    2.10
   3 -17  -1   -0.30    2.30
   3 -17  -1    0.80    1.70
   3 -17  -1    0.70    2.10
  -3  17   1    2.60    3.10
   3  17  -1   -2.90    3.00
  -3  17   1    4.60    2.20
   3  17  -1   -1.40    1.70
   2 -17  -1   21.80    4.20
  -2 -17   1   24.80    4.70
   2 -17  -1   15.40    3.30
   2 -17  -1   12.00    3.10
   2  17  -1   12.30    2.90
  -2  17   1   15.40    2.90
  -1 -17   1   15.90    4.60
   1 -17  -1    9.60    2.20
   1 -17  -1   13.40    3.50
   1 -17  -1   17.70    3.20
  -1  17   1   15.00    2.80
   1  17  -1   11.50    2.80
   1  17  -1   16.40    4.40
   0 -17   1   -0.40    2.00
   0 -17  -1    6.30    2.20
   0 -17   1   -1.30    2.10
   0  17   1    1.90    2.00
   0  17  -1    5.30    3.80
   0  17   1   -2.30    3.30
   0  17  -1    3.00    1.80
   1 -17   1    4.50    2.40
   1 -17   1    9.60    2.60
  -1 -17  -1    7.90    2.20
  -1 -17  -1   13.80    3.30
   1  17   1   16.20    4.30
  -1  17  -1    7.70    2.50
  -1  17  -1    7.00    2.80
   1  17   1    9.30    2.80
   2 -17   1    2.70    2.30
   2 -17   1    1.10    2.10
   2 -17   1   -0.50    2.00
   2 -17   1    2.40    2.50
  -2 -17  -1    9.10    2.80
   2  17   1   -1.80    1.90
   2  17   1    5.50    3.50
  -2  17  -1    0.30    1.80
  -2  17  -1    3.20    4.00
  -2  17  -1   -0.70    1.60
   3 -17   1    7.20    1.90
  -3  17  -1    2.20    1.80
   3  17   1   -1.90    2.00
   3  17   1   -1.20    2.10
   3  17   1    5.60    3.30
   4 -17   1    8.60    2.70
   4 -17   1   12.60    4.30
   4  17   1    9.80    3.30
  -4  17  -1   10.60    3.00
   4  17   1   10.50    4.00
   4 -18  -1    2.20    2.40
  -4 -18   1    7.10    4.10
   4 -18  -1    2.40    2.80
   4 -18  -1    2.00    2.70
   4  18  -1    6.00    4.50
   4  18  -1    2.80    2.60
  -4  18   1    7.00    2.30
   3 -18  -1   -3.30    1.90
  -3 -18   1   -2.40    2.90
   3 -18  -1   -0.20    2.20
   3  18  -1   -1.50    3.60
   3  18  -1    0.00    2.30
  -2 -18   1   -2.60    2.40
   2 -18  -1    1.70    2.20
   2 -18  -1   -0.40    1.80
   2 -18  -1    3.00    2.30
  -2  18   1    5.00    2.30
  -2  18   1    1.40    2.20
   2  18  -1   -0.10    2.10
   2  18  -1    0.70    3.90
   1 -18  -1   -0.30    1.90
  -1 -18   1    5.30    2.90
  -1 -18   1   -2.90    2.20
  -1  18   1   13.30    5.10
   1  18  -1    2.70    2.00
   1  18  -1    1.70    3.80
  -1  18   1    0.60    2.10
   0 -18  -1    4.90    2.40
   0 -18  -1   -2.80    2.00
   0 -18   1   -1.90    2.00
   0  18   1   -0.70    1.90
   0  18   1   -5.20    3.30
   0  18  -1    3.50    4.30
   0  18  -1   -2.20    1.70
   1 -18   1   -1.10    1.90
  -1 -18  -1    3.20    2.80
   1 -18   1    5.40    2.30
  -1  18  -1    9.70    4.40
   1  18   1    7.60    3.30
  -1  18  -1    3.40    2.40
   2 -18   1   -2.00    2.10
   2 -18   1   -3.60    2.00
   2 -18   1   -0.60    1.70
   2  18   1    9.40    4.90
   2  18   1   -0.40    2.10
   3 -18   1    1.10    2.60
   3 -18   1    1.30    2.10
   3  18   1    2.10    2.80
  -3  18  -1    3.50    2.30
   3  18   1    4.90    2.40
   4 -18   1    2.80    2.60
   4 -18   1   -1.40    2.20
   4  18   1    2.00    2.30
   4  18   1   -4.20    2.50
  -3 -19   1   -3.40    2.70
   3 -19  -1    1.50    1.80
   3 -19  -1    4.20    2.60
   3  19  -1   -1.30    2.30
  -3  19   1   -0.20    2.40
   2 -19  -1   -1.20    2.50
  -2 -19   1   -4.20    2.80
   2 -19  -1    5.80    2.90
   2  19  -1   -4.50    6.10
  -2  19   1    1.50    2.10
   1 -19  -1   13.60    3.60
  -1 -19   1   19.80    3.40
   1  19  -1   20.10    8.00
   0 -19  -1   -0.60    2.20
   0 -19   1   -4.00    2.60
   0  19  -1   -1.00    2.10
   1 -19   1    3.70    2.50
   1 -19   1    2.70    2.70
  -1 -19  -1    5.50    2.20
  -1  19  -1    0.20    2.20
  -1  19  -1   -3.70    2.50
   1  19   1   -0.50    2.50
   2 -19   1   -1.90    2.10
   2 -19   1    1.70    2.20
  -2  19  -1    1.80    3.50
   2  19   1    1.50    2.00
   2  19   1   -1.20    2.90
  -2  19  -1   -1.30    2.20
   3 -19   1   -0.70    2.40
   3 -19   1   -0.90    2.70
   3  19   1    0.00    2.00
   3  19   1    0.90    2.60
  -3  19  -1   -3.00    3.10
  -3  19  -1   -2.80    2.30
   2 -20  -1   -0.30    2.30
   2 -20  -1    5.70    3.20
  -2  20   1    0.10    5.60
  -2  20   1    0.50    2.60
   2  20  -1    1.50    2.70
  -1  20   1   -2.30    2.60
   1  20  -1   -0.50    2.10
   0  20  -1    8.50    3.10
   0  20   1   12.90    2.90
   1 -20   1    0.50    3.10
   1 -20   1   -3.10    3.70
  -1 -20  -1    3.30    4.50
  -1  20  -1   -3.50    2.30
   1  20   1   -3.80    3.90
   2 -20   1   10.90    3.30
  -2 -20  -1    6.50    2.50
   2  20   1    0.70    2.60
   2  20   1    3.20    2.90
   9   0  -2   -1.90    2.10
   9   0  -2    1.00    1.90
   8   0  -2   -2.10    2.70
   8   0  -2    2.60    1.60
   8   0  -2    0.50    1.90
   7   0  -2   -0.50    1.30
   7   0  -2   -1.70    1.30
   7   0  -2   -0.30    1.20
   7   0  -2    0.70    1.60
   6   0  -2   17.40    2.90
   6   0  -2   13.10    2.60
   6   0  -2   13.90    2.60
   6   0  -2   12.90    2.70
   5   0  -2    0.40    1.10
   5   0  -2    0.60    1.10
   5   0  -2   -0.40    1.10
   4   0  -2   30.90    3.40
   4   0  -2   35.00    3.60
   3   0  -2   -0.50    0.70
   3   0  -2    0.50    0.90
  -3   0   2   -0.60    0.60
   2   0  -2  292.87   16.00
  -2   0   2  300.17   15.90
   2   0  -2  300.67   15.80
  -1   0   2    0.80    0.60
  -1   0   2    0.60    0.50
  -1   0   2    1.40    0.50
   1   0  -2    1.30    0.50
   1   0  -2    0.90    0.60
   1   0  -2    0.70    0.60
   0   0   2  819.42   40.80
   0   0   2  783.82   40.80
   0   0   2  785.92   40.70
   0   0  -2  819.02   40.80
   0   0  -2  774.82   40.80
   0   0  -2  806.92   40.70
   1   0   2   -0.30    0.70
  -1   0  -2    0.40    0.50
  -1   0  -2    0.60    0.70
   2   0   2   53.19    4.80
   2   0   2   53.79    3.90
  -2   0  -2   55.49    3.90
  -3   0  -2    0.60    1.00
   3   0   2   -0.10    1.00
   3   0   2    0.90    1.40
   4   0   2   95.19    7.30
   4   0   2   95.89    6.60
  -4   0  -2   94.39    6.50
  -5   0  -2    0.20    2.70
   5   0   2    0.60    1.80
   5   0   2    0.10    1.10
  -6   0  -2    1.40    1.60
   6   0   2    1.50    1.70
   7   0   2   -2.30    2.00
   8   0   2    2.50    2.30
   8   0   2    3.30    2.80
   8   0   2   -0.20    2.10
   9  -1  -2    8.00    2.00
   8  -1  -2    3.10    2.20
   8  -1  -2    5.60    2.20
   8   1  -2    3.70    1.90
   8   1  -2    7.60    2.50
   8   1  -2    6.10    3.20
   8   1  -2    3.50    1.80
   7  -1  -2    2.30    1.80
   7  -1  -2    1.40    1.70
   7  -1  -2    0.80    1.20
   7  -1  -2    3.00    1.70
   7   1  -2   -0.40    1.30
   7   1  -2    1.30    1.50
   7   1  -2    0.10    1.60
   7   1  -2    2.80    1.60
   6  -1  -2  128.39    8.50
   6  -1  -2  115.19    7.70
   6  -1  -2  122.09    8.20
   6  -1  -2  121.79    8.60
   6   1  -2  124.59    8.20
   6   1  -2  109.09    8.10
   6   1  -2  126.39    8.30
   6   1  -2  117.79    7.60
   6   1  -2  116.29    7.80
   5  -1  -2   66.19    5.10
   5  -1  -2   67.99    5.30
   5   1  -2   65.29    5.10
   5   1  -2   64.89    4.90
   5   1  -2   66.19    4.90
   5   1  -2   67.19    4.70
   5   1  -2   61.99    5.00
   4  -1  -2  516.45   27.20
   4  -1  -2  511.75   27.60
  -4   1   2  507.15   27.30
   4   1  -2  528.35   27.40
   4   1  -2  511.05   27.50
   3  -1  -2   26.00    2.70
  -3  -1   2   25.60    2.40
   3  -1  -2   26.20    2.20
   3   1  -2   24.80    2.30
  -3   1   2   25.70    2.60
  -3   1   2   25.70    2.30
   3   1  -2   26.10    2.70
  -2  -1   2  419.86   22.30
  -2  -1   2  431.76   22.60
   2  -1  -2  423.56   22.40
   2   1  -2  423.36   22.50
  -2   1   2  429.46   22.50
   2   1  -2  436.06   22.20
  -1  -1   2  685.03   35.30
   1  -1  -2  684.93   35.50
   1  -1  -2  681.63   35.20
  -1  -1   2  697.43   35.50
   1  -1  -2  651.73   35.40
  -1   1   2  707.93   35.20
   1   1  -2  730.53   35.40
  -1   1   2  680.43   35.40
   1   1  -2  681.93   35.50
   1   1  -2  679.23   35.30
  -1   1   2  708.43   35.20
   0  -1  -2   65.09    3.90
   0  -1   2   65.59    4.10
   0  -1  -2   66.09    3.90
   0  -1   2   69.39    3.90
   0  -1   2   63.89    4.00
   0  -1   2   67.09    4.20
   0  -1  -2   65.49    3.90
   0   1  -2   67.69    3.90
   0   1   2   68.49    4.10
   0   1  -2   66.49    4.00
   1  -1   2   10.40    1.60
  -1  -1  -2   12.10    1.50
   1  -1   2   11.10    1.90
   1  -1   2   10.50    1.60
  -1  -1  -2   12.40    1.20
   1   1   2   10.80    1.70
  -1   1  -2   12.20    1.40
  -1   1  -2   10.80    1.50
   1   1   2   12.20    1.40
   1   1   2   11.80    1.40
   2  -1   2  321.67   17.30
  -2  -1  -2  327.17   17.50
  -2  -1  -2  323.97   16.90
   2  -1   2  317.27   18.10
   2   1   2  325.27   18.70
  -2   1  -2  326.17   17.40
   2   1   2  317.47   16.90
  -3  -1  -2   25.20    2.80
   3  -1   2   24.00    2.60
   3  -1   2   23.80    3.20
   3   1   2   22.30    2.80
  -3   1  -2   26.00    2.60
   4  -1   2  147.99   10.10
   4  -1   2  148.39    9.20
  -4  -1  -2  150.08    9.40
  -4   1  -2  152.28    9.30
   4   1   2  152.78    9.40
   4   1   2  150.88   10.10
  -5  -1  -2   96.89    7.40
   5  -1   2  105.39    7.20
   5  -1   2  106.99    8.20
   5   1   2  104.29    8.20
  -5   1  -2  101.59    7.40
   5   1   2  113.69    7.50
   6  -1   2    9.70    2.10
   6  -1   2    5.80    3.10
   6   1   2    8.40    3.80
  -6   1  -2    8.90    2.50
   6   1   2    5.80    2.10
   7  -1   2   33.60    5.10
   7  -1   2   29.90    4.10
   7   1   2   36.50    4.30
   7   1   2   25.50    5.00
   8  -1   2    2.00    2.90
   8  -1   2    2.30    2.30
   8   1   2    1.90    2.00
   8   1   2   -1.80    2.10
   8   1   2   -1.90    2.50
   9  -2  -2    7.00    2.30
   8  -2  -2    1.90    2.00
   8  -2  -2    8.20    2.60
   8  -2  -2    0.10    1.70
   8   2  -2    3.00    1.60
   8   2  -2    2.80    1.60
   8   2  -2    0.60    1.90
   8   2  -2    2.40    1.60
   8   2  -2    4.60    1.80
   7  -2  -2   66.09    6.20
   7  -2  -2   66.89    6.30
   7  -2  -2   65.09    6.00
   7   2  -2   69.49    5.70
   7   2  -2   65.29    5.20
   7   2  -2   67.09    5.70
   7   2  -2   67.89    5.40
   6  -2  -2  221.68   13.30
   6  -2  -2  228.08   13.70
   6   2  -2  223.48   13.10
   6   2  -2  221.08   13.20
   6   2  -2  209.28   12.80
   6   2  -2  223.08   13.20
   6   2  -2  214.58   13.00
   5  -2  -2   54.49    4.80
   5  -2  -2   56.89    4.60
   5   2  -2   52.49    4.30
  -5   2   2   56.19    4.80
   5   2  -2   55.89    4.30
   5   2  -2   53.79    4.60
   5   2  -2   51.49    4.40
   4  -2  -2  604.84   31.70
   4  -2  -2  601.04   32.10
  -4   2   2  609.24   31.80
   4   2  -2  591.34   31.50
   4   2  -2  596.74   31.80
  -3  -2   2   97.29    5.90
   3  -2  -2   98.29    6.30
   3  -2  -2   97.69    6.00
  -3  -2   2   99.19    6.30
   3   2  -2  102.19    6.70
   3   2  -2  101.59    5.90
  -3   2   2  102.49    6.40
  -3   2   2   96.99    6.00
   2  -2  -2  508.75   27.00
  -2  -2   2  519.35   26.90
  -2  -2   2  531.95   27.30
   2  -2  -2  523.05   27.30
   2   2  -2  528.55   27.20
   2   2  -2  519.45   26.80
  -2   2   2  511.75   27.30
  -2   2   2  526.65   27.00
   1  -2  -2    1.30    0.80
  -1  -2   2   -0.10    0.70
  -1  -2   2    0.30    0.60
   1  -2  -2    0.10    0.70
   1   2  -2    0.50    0.50
  -1   2   2    0.70    0.70
   1   2  -2    0.80    0.80
   1   2  -2    0.30    0.60
   0  -2   2 1948.71  100.99
   0  -2   2 1928.61  100.99
   0  -2  -2 1993.00  100.99
   0  -2  -2 1942.61  100.89
   0  -2  -2 2139.49  100.99
   0  -2   2 1966.70  100.89
   0   2  -2 2033.90  100.89
   0   2   2 1848.92  100.99
   0   2  -2 2064.09  101.09
   0   2   2 2024.80  100.89
   0   2   2 2000.20  100.99
   1  -2   2   72.99    4.30
   1  -2   2   70.19    4.50
   1  -2   2   69.39    4.80
  -1  -2  -2   74.59    4.30
  -1  -2  -2   73.99    4.60
   1   2   2   72.59    4.70
   1   2   2   67.89    4.40
  -1   2  -2   70.19    4.30
   1   2   2   74.69    4.30
  -1   2  -2   71.89    4.50
   2  -2   2   35.30    3.40
   2  -2   2   43.10    2.90
  -2  -2  -2   38.50    2.70
  -2  -2  -2   38.20    3.20
   2  -2   2   37.40    3.00
   2   2   2   41.00    2.80
  -2   2  -2   37.20    3.00
   2   2   2   39.20    3.20
   3  -2   2  963.70   51.29
   3  -2   2 1061.19   50.99
   3  -2   2  984.40   52.09
  -3  -2  -2  963.10   50.89
  -3  -2  -2 1011.80   51.59
   3   2   2 1001.10   51.59
  -3   2  -2  988.40   51.29
   3   2   2  959.00   50.89
  -4  -2  -2   61.39    4.90
   4  -2   2   57.79    5.30
   4  -2   2   60.89    4.30
   4  -2   2   56.19    4.60
   4   2   2   57.29    5.40
   4   2   2   59.49    4.10
   4   2   2   59.09    4.90
  -4   2  -2   56.29    4.60
   5  -2   2  220.68   14.00
   5  -2   2  211.08   12.80
  -5   2  -2  211.18   12.80
   5   2   2  222.18   14.00
   5   2   2  216.58   13.10
   6  -2   2    1.60    1.50
   6  -2   2   -1.50    1.80
   6   2   2   -0.90    1.40
   6   2   2    3.80    3.50
  -6   2  -2    1.90    1.80
   7  -2   2    9.40    2.90
   7  -2   2   14.40    2.60
   7   2   2    6.50    2.40
   7   2   2   12.70    3.30
   8  -2   2    1.40    1.60
   8  -2   2    0.70    2.20
   8   2   2   -1.80    2.50
   8   2   2   -3.10    1.90
   8   2   2    1.10    2.10
   9  -3  -2    3.00    2.20
   9  -3  -2    2.90    2.30
   9  -3  -2    3.70    2.20
   9   3  -2    2.50    2.20
   9   3  -2    1.90    1.90
   9   3  -2    4.30    1.70
   9   3  -2    5.70    1.70
   8  -3  -2  126.29    9.90
   8  -3  -2  130.69   10.00
   8  -3  -2  136.89   11.10
   8   3  -2  143.79    9.30
   8   3  -2  130.09    9.00
   8   3  -2  135.49    9.20
   8   3  -2  142.79    9.60
   7  -3  -2    2.70    1.70
   7  -3  -2    4.90    2.80
   7   3  -2    4.00    1.70
   7   3  -2    0.60    1.30
   7   3  -2    1.50    1.50
   7   3  -2    2.30    1.60
   6  -3  -2  726.53   39.70
   6  -3  -2  729.33   39.20
   6   3  -2  720.83   38.80
  -6   3   2  762.72   39.50
   6   3  -2  714.33   38.90
   6   3  -2  745.73   38.90
   6   3  -2  730.83   38.90
   5  -3  -2   10.40    2.30
   5  -3  -2   10.90    2.10
   5   3  -2    6.90    1.60
   5   3  -2    9.70    2.10
   5   3  -2    8.10    1.90
   5   3  -2    9.80    2.00
  -5   3   2   14.30    2.90
   4  -3  -2   89.09    6.40
   4  -3  -2   83.69    6.00
  -4   3   2   86.89    6.20
   4   3  -2   89.99    6.10
   4   3  -2   86.59    5.90
  -3  -3   2   88.99    5.80
   3  -3  -2   87.29    5.90
   3  -3  -2   87.79    5.60
   3   3  -2   93.29    6.70
  -3   3   2   88.89    5.70
  -3   3   2   91.59    6.10
   2  -3  -2  587.24   30.60
   2  -3  -2  610.34   30.40
  -2  -3   2  593.74   30.50
   2  -3  -2  559.14   30.30
  -2   3   2  587.14   30.40
  -2   3   2  563.74   30.60
   2   3  -2  591.84   30.50
   1  -3  -2  225.38   11.70
  -1  -3   2  212.78   11.70
   1  -3  -2  213.08   11.70
  -1   3   2  210.78   11.70
   1   3  -2  211.48   11.70
  -1   3   2  210.48   11.80
  -1   3   2  228.38   11.80
   0  -3   2  184.08    9.50
   0  -3   2  165.48    9.60
   0  -3  -2  170.18    9.40
   0  -3  -2  181.58    9.60
   0  -3   2  170.88    9.60
   0   3   2  172.28    9.40
   0   3   2  174.78    9.60
   0   3  -2  175.98    9.70
   0   3   2  164.08    9.60
   0   3  -2  171.28    9.50
   0   3  -2  183.68    9.60
   1  -3   2   30.60    2.70
  -1  -3  -2   29.80    2.30
   1  -3   2   31.90    2.30
  -1  -3  -2   28.80    2.60
   1  -3   2   29.10    2.50
  -1   3  -2   31.80    2.80
   1   3   2   30.10    2.20
  -1   3  -2   30.10    2.40
   1   3   2   29.40    2.60
  -1   3  -2   29.60    2.40
   1   3   2   26.80    2.30
   2  -3   2   13.90    2.30
   2  -3   2   17.40    1.90
  -2  -3  -2   16.80    1.70
  -2  -3  -2   14.00    2.00
   2  -3   2   13.70    1.90
  -2   3  -2   14.60    1.80
   2   3   2   13.80    2.10
  -2   3  -2   14.20    2.30
   2   3   2   14.80    1.70
   2   3   2   15.50    1.70
  -3  -3  -2   48.30    4.00
   3  -3   2   42.20    4.30
   3  -3   2   51.29    3.70
  -3  -3  -2   48.80    3.50
   3  -3   2   42.80    3.70
  -3   3  -2   45.20    3.70
   3   3   2   43.60    4.00
  -3   3  -2   46.50    4.40
   3   3   2   44.60    3.60
   4  -3   2  403.36   22.10
   4  -3   2  408.46   23.10
   4  -3   2  431.06   21.90
  -4  -3  -2  414.26   22.50
  -4  -3  -2  394.76   21.70
  -4   3  -2  394.26   22.00
   4   3   2  398.26   21.70
   4   3   2  407.76   22.50
  -5  -3  -2   14.00    2.30
   5  -3   2   15.50    2.80
   5  -3   2   11.00    2.90
   5  -3   2   16.10    2.90
   5   3   2   12.00    2.50
   5   3   2   13.80    3.00
  -5   3  -2   12.30    2.40
   5   3   2   12.90    2.30
   6  -3   2   34.20    4.70
   6  -3   2   33.10    3.70
   6   3   2   30.10    6.20
  -6   3  -2   29.20    4.20
   6   3   2   34.50    4.10
   7  -3   2    6.20    2.00
   7  -3   2    6.20    2.40
   7   3   2    4.60    2.60
   7   3   2    7.50    2.40
   8  -3   2    0.40    2.70
   8  -3   2   -1.00    2.60
   8   3   2    9.90    2.60
   8   3   2    4.70    2.70
   8   3   2    1.20    2.10
   9  -4  -2    1.90    2.40
   9  -4  -2   -1.00    2.00
   9   4  -2   -1.70    2.10
   9   4  -2    5.10    1.80
   9   4  -2   -0.30    1.90
   8  -4  -2   22.00    4.50
   8   4  -2   24.40    3.80
   8   4  -2   26.80    3.80
   8   4  -2   20.80    3.70
   7  -4  -2   -0.70    1.60
   7  -4  -2    2.10    1.90
   7   4  -2    1.10    1.50
   7   4  -2    0.60    1.50
   7   4  -2    1.10    1.40
   6  -4  -2   33.90    4.40
   6  -4  -2   32.60    4.20
   6   4  -2   21.10    3.70
  -6   4   2   34.30    6.70
   6   4  -2   26.70    3.80
   6   4  -2   23.20    3.50
   5  -4  -2    2.50    1.40
   5  -4  -2    3.00    1.60
   5   4  -2    0.50    1.20
   5   4  -2    0.50    1.30
  -5   4   2    2.80    2.00
  -4  -4   2    4.30    1.30
   4  -4  -2    5.70    1.90
   4  -4  -2    4.00    1.10
   4  -4  -2    1.60    1.50
  -4   4   2    1.90    1.60
   4   4  -2    6.30    1.50
   4   4  -2    2.00    1.20
  -3  -4   2   54.19    4.00
   3  -4  -2   55.79    3.70
   3  -4  -2   51.79    4.00
   3  -4  -2   49.20    4.20
   3   4  -2   52.09    3.90
  -3   4   2   49.99    4.00
  -3   4   2   54.09    4.30
   3   4  -2   56.89    4.20
   2  -4  -2  621.54   36.10
   2  -4  -2  727.23   37.60
   2  -4  -2  740.53   36.10
  -2  -4   2  694.23   36.20
   2   4  -2  709.43   37.50
  -2   4   2  712.53   36.30
   2   4  -2  681.33   36.20
  -1  -4   2    2.70    0.80
  -1  -4   2    3.70    0.80
   1  -4  -2    3.30    1.00
   1  -4  -2    3.80    1.10
   1  -4  -2    2.30    0.80
  -1   4   2    3.50    1.00
  -1   4   2    3.40    0.70
   1   4  -2    3.50    0.90
   1   4  -2    2.50    1.00
  -1   4   2    3.00    0.90
  -1   4   2    3.10    0.90
   0  -4  -2 1216.08   63.49
   0  -4   2 1310.87   63.69
   0  -4   2 1236.18   63.79
   0  -4  -2 1248.48   63.69
   0  -4  -2 1311.17   63.79
   0   4   2 1248.48   63.69
   0   4   2 1241.68   63.59
   0   4   2 1211.38   63.79
   0   4  -2 1200.38   63.59
   0   4  -2 1333.67   63.89
   0   4  -2 1188.58   63.69
   0   4  -2 1221.98   63.79
   1  -4   2  345.57   19.70
   1  -4   2  358.96   19.50
  -1  -4  -2  379.16   19.50
  -1  -4  -2  376.26   19.70
   1  -4   2  388.16   19.50
  -1  -4  -2  373.26   19.20
   1   4   2  359.26   19.60
   1   4   2  382.76   19.20
  -1   4  -2  341.97   19.40
   1   4   2  344.87   19.40
  -1   4  -2  367.36   19.80
  -1   4  -2  385.86   19.50
   2  -4   2   92.79    6.50
  -2  -4  -2   97.99    6.30
   2  -4   2  102.59    6.00
  -2  -4  -2   93.29    5.90
   2   4   2   78.29    6.70
  -2   4  -2   97.09    5.90
   2   4   2  100.69    6.30
  -2   4  -2   92.29    6.50
   2   4   2   98.79    5.60
   3  -4   2    8.00    2.00
   3  -4   2   10.90    2.00
   3  -4   2    7.90    1.60
  -3  -4  -2   13.10    1.90
   3   4   2   11.50    2.00
  -3   4  -2    8.90    2.20
  -3   4  -2   10.50    1.80
   3   4   2   11.00    2.10
   4  -4   2  146.49    8.90
   4  -4   2  135.09    9.80
  -4  -4  -2  140.19    8.70
   4  -4   2  159.28    9.00
   4   4   2  140.99    8.80
  -4   4  -2  140.59    8.90
   4   4   2  152.28    9.50
  -4   4  -2  150.78   10.10
   5  -4   2   52.09    4.50
   5  -4   2   53.09    5.60
   5  -4   2   57.29    4.70
  -5  -4  -2   49.70    4.40
   5   4   2   52.09    4.90
  -5   4  -2   49.50    4.60
   5   4   2   54.09    4.40
   6  -4   2    4.30    1.70
   6  -4   2    4.20    2.10
   6   4   2    2.80    2.70
   6   4   2    6.20    2.30
  -6   4  -2    4.30    2.10
   6   4   2    2.20    1.50
   7  -4   2    0.60    2.20
   7  -4   2    3.00    1.90
   7   4   2    2.50    1.80
  -7   4  -2    0.70    1.90
   7   4   2    1.80    2.40
   8  -4   2    1.10    2.50
   8  -4   2    2.30    3.50
   8   4   2    3.60    2.40
   8   4   2    7.80    2.90
   8  -5  -2   67.09    6.50
   8  -5  -2   55.09    6.40
   8   5  -2   60.99    5.50
   8   5  -2   73.49    6.00
   8   5  -2   63.79    5.80
   7  -5  -2    5.20    2.30
   7  -5  -2    3.00    2.10
   7   5  -2    3.20    1.90
   7   5  -2    3.60    1.90
   7   5  -2    1.10    1.40
   7   5  -2    6.20    2.10
  -7   5   2    0.30    2.70
   6  -5  -2   68.39    6.10
   6  -5  -2   61.69    5.60
   6   5  -2   64.79    5.40
   6   5  -2   62.59    5.40
  -6   5   2   58.69    6.30
   6   5  -2   57.89    5.10
   5  -5  -2    6.10    1.80
   5  -5  -2    7.40    2.20
   5   5  -2    7.10    1.70
  -5   5   2    8.30    2.30
   5   5  -2    6.70    1.80
   4  -5  -2    9.40    2.00
   4  -5  -2   10.10    2.20
  -4  -5   2   10.50    1.90
   4  -5  -2   10.50    1.80
  -4   5   2   10.40    2.30
   4   5  -2    8.80    1.90
   4   5  -2    7.40    1.60
   3  -5  -2  213.58   13.00
   3  -5  -2  214.78   12.80
   3  -5  -2  242.58   12.50
  -3  -5   2  231.38   12.80
  -3   5   2  224.48   13.20
   3   5  -2  229.28   13.00
  -3   5   2  223.68   12.90
   3   5  -2  226.98   12.60
   2  -5  -2    1.80    1.00
   2  -5  -2    1.40    0.90
  -2  -5   2    0.60    0.80
   2  -5  -2    1.80    0.80
   2   5  -2    1.70    1.00
  -2   5   2    2.90    1.10
  -2   5   2    0.80    0.90
   1  -5  -2 1585.24   81.59
  -1  -5   2 1557.04   81.29
   1  -5  -2 1706.83   81.59
   1  -5  -2 1484.25   81.69
  -1  -5   2 1630.54   81.59
   1   5  -2 1544.75   81.69
  -1   5   2 1505.75   81.49
  -1   5   2 1643.64   81.69
   1   5  -2 1663.83   81.49
  -1   5   2 1631.04   81.29
   1   5  -2 1542.75   81.49
  -1   5   2 1691.93   81.89
   0  -5   2   37.10    2.70
   0  -5   2   33.10    2.70
   0  -5  -2   35.90    2.70
   0  -5  -2   32.50    2.50
   0   5  -2   31.30    2.70
   0   5   2   34.10    3.00
   0   5   2   28.80    2.70
   0   5   2   32.00    2.70
   0   5   2   33.10    2.60
   0   5  -2   34.30    2.80
   0   5  -2   32.90    2.60
   0   5  -2   35.10    2.70
  -1  -5  -2    1.60    0.60
   1  -5   2    0.60    0.90
   1  -5   2    0.00    0.70
  -1  -5  -2    0.40    0.70
   1   5   2    0.90    0.60
  -1   5  -2    1.40    1.00
   1   5   2    0.70    0.90
   1   5   2    1.10    1.00
  -1   5  -2    1.00    0.70
   2  -5   2    2.30    1.40
   2  -5   2    0.20    0.90
  -2  -5  -2    2.60    1.10
   2  -5   2    2.00    1.00
   2   5   2    0.30    0.90
  -2   5  -2    1.10    1.10
   2   5   2    2.50    0.80
   2   5   2    1.70    1.20
  -2   5  -2    2.40    1.00
  -3  -5  -2  574.44   30.90
   3  -5   2  587.84   31.80
   3  -5   2  568.34   30.80
   3  -5   2  640.24   31.10
   3   5   2  548.05   30.90
   3   5   2  576.74   31.40
  -3   5  -2  582.94   30.80
  -3   5  -2  603.14   31.90
   4  -5   2   -0.30    1.40
  -4  -5  -2    1.20    1.10
   4  -5   2   -0.50    1.20
   4  -5   2   -0.10    1.20
   4   5   2    0.70    1.20
   4   5   2    1.20    1.20
  -4   5  -2   -0.80    1.50
  -4   5  -2   -0.20    1.20
   5  -5   2   60.49    5.00
   5  -5   2   55.29    5.70
   5  -5   2   50.39    4.50
  -5  -5  -2   48.50    4.40
  -5   5  -2   50.99    4.60
   5   5   2   50.59    5.10
   5   5   2   56.59    4.60
   6  -5   2    1.60    1.90
   6  -5   2    0.20    1.50
   6  -5   2    1.50    1.80
   6   5   2    2.00    1.50
   6   5   2    1.50    1.60
  -6   5  -2    3.50    2.00
   6   5   2    2.70    2.10
   7  -5   2   -1.20    1.60
   7  -5   2    0.80    2.20
   7  -5   2   -1.80    2.10
   7   5   2   -2.90    2.20
  -7   5  -2    1.30    2.20
   7   5   2    3.40    2.10
   7   5   2    0.70    1.60
   8  -5   2    3.70    2.00
   8  -5   2   -2.10    3.80
   8  -5   2   10.60    5.20
   8   5   2    5.60    2.40
   8  -6  -2    8.10    2.70
   8  -6  -2    1.70    2.40
   8   6  -2    3.30    1.90
   8   6  -2   14.40    2.70
   8   6  -2    6.50    2.40
   7  -6  -2    6.60    2.60
   7  -6  -2    3.70    2.30
   7   6  -2    5.00    2.30
   7   6  -2    4.80    1.70
   7   6  -2    7.00    2.20
  -7   6   2   10.10    3.20
   6  -6  -2   26.20    4.00
   6  -6  -2   34.30    6.10
  -6   6   2   27.30    4.50
   6   6  -2   27.10    3.70
   6   6  -2   28.60    3.30
   6   6  -2   30.20    3.80
   5  -6  -2   24.80    3.50
   5  -6  -2   25.60    3.80
   5   6  -2   25.70    3.40
   5   6  -2   27.50    3.00
  -5   6   2   26.20    3.90
   4  -6  -2   27.30    3.60
   4  -6  -2   25.70    3.30
   4  -6  -2   34.70    2.90
  -4  -6   2   31.00    3.20
   4   6  -2   27.20    3.40
   4   6  -2   30.40    3.00
  -4   6   2   32.30    3.70
   3  -6  -2   13.00    2.50
   3  -6  -2   15.90    2.00
   3  -6  -2   15.50    2.60
  -3  -6   2   13.60    2.10
   3   6  -2   13.30    2.20
  -3   6   2   13.70    2.40
   3   6  -2   11.90    2.10
  -3   6   2   12.80    2.30
   2  -6  -2  373.36   22.10
  -2  -6   2  419.66   22.00
   2  -6  -2  392.46   22.20
   2  -6  -2  445.36   22.00
   2   6  -2  442.26   21.80
   2   6  -2  403.46   21.90
  -2   6   2  430.06   22.40
  -2   6   2  412.26   22.30
   2   6  -2  393.46   22.20
   1  -6  -2   19.50    2.40
   1  -6  -2   20.90    2.20
   1  -6  -2   24.80    2.20
  -1  -6   2   22.20    2.10
  -1  -6   2   20.60    2.10
   1   6  -2   21.90    2.10
  -1   6   2   18.50    1.90
  -1   6   2   19.30    2.20
  -1   6   2   24.00    2.50
   1   6  -2   18.60    2.10
   1   6  -2   20.60    2.50
  -1   6   2   18.10    2.50
   0  -6  -2  225.18   12.00
   0  -6   2  208.98   12.00
   0  -6  -2  211.38   11.60
   0  -6   2  230.88   12.00
   0   6  -2  195.88   12.00
   0   6  -2  217.88   12.10
   0   6   2  214.98   11.80
   0   6  -2  225.88   12.10
   0   6  -2  213.88   11.80
   0   6   2  221.88   12.20
   0   6   2  198.08   11.90
   0   6   2  215.48   12.00
   1  -6   2  221.08   11.50
  -1  -6  -2  216.38   11.50
   1  -6   2  200.78   11.80
  -1   6  -2  212.18   11.40
   1   6   2  203.28   11.60
  -1   6  -2  205.68   11.80
   1   6   2  189.38   11.50
  -1   6  -2  197.78   10.90
  -1   6  -2  174.98   11.40
   2  -6   2   63.79    4.60
   2  -6   2   57.39    4.40
  -2  -6  -2   63.49    4.50
   2  -6   2   59.89    4.90
   2   6   2   58.89    4.60
  -2   6  -2   61.99    4.30
  -2   6  -2   60.59    4.90
   2   6   2   62.49    4.80
  -3  -6  -2  295.37   16.50
   3  -6   2  321.27   16.60
   3  -6   2  292.37   16.30
   3  -6   2  285.67   17.20
  -3   6  -2  306.97   17.40
   3   6   2  278.17   16.40
  -3   6  -2  283.67   16.20
   3   6   2  297.67   17.00
   4  -6   2    6.10    1.60
   4  -6   2    5.00    2.10
   4  -6   2    8.10    1.90
  -4  -6  -2    5.20    1.80
   4   6   2    7.70    1.80
   4   6   2    5.20    1.90
  -4   6  -2    8.40    1.90
  -4   6  -2    8.70    2.50
   5  -6   2  124.69    8.20
   5  -6   2  114.69    7.80
   5  -6   2  116.79    9.20
   5   6   2  119.39    8.70
  -5   6  -2  127.79    9.90
   5   6   2  117.29    8.00
  -5   6  -2  118.39    7.90
   6  -6   2   -0.70    1.90
   6  -6   2   -0.70    1.90
   6  -6   2   -0.80    1.50
   6   6   2    1.70    1.50
   6   6   2    0.80    1.60
  -6   6  -2    1.20    1.70
   7  -6   2   25.30    3.50
   7  -6   2   27.40    5.30
   7  -6   2   32.50    4.80
   7  -6   2   25.00    4.60
   7   6   2   24.50    4.20
   7   6   2   26.00    5.30
   7   6   2   29.10    3.70
   8  -6   2    8.10    3.50
   8  -6   2    2.90    3.10
   8  -6   2    7.10    2.30
   8  -6   2   15.40    3.00
   8   6   2   10.60    3.40
   8   6   2    8.30    2.60
   7  -7  -2    0.40    2.10
   7  -7  -2    0.30    1.90
   7   7  -2    1.80    1.40
   7   7  -2    0.60    1.70
   7   7  -2   -0.40    1.70
   6  -7  -2   38.70    4.60
   6  -7  -2   46.60    5.30
   6   7  -2   38.60    3.90
  -6   7   2   35.30    5.10
   6   7  -2   46.00    4.50
   6   7  -2   41.60    4.50
  -5  -7   2   73.29    5.80
   5  -7  -2   72.09    6.00
   5  -7  -2   75.09    6.40
   5   7  -2   74.79    6.00
   5   7  -2   77.19    5.50
  -5   7   2   75.79    6.40
  -4  -7   2    6.10    1.70
   4  -7  -2    7.40    2.00
   4  -7  -2    6.60    1.90
   4  -7  -2    7.20    1.60
   4   7  -2    5.30    1.60
   4   7  -2    6.30    1.50
  -4   7   2    5.70    1.90
  -3  -7   2   11.60    2.00
   3  -7  -2    9.10    2.00
   3  -7  -2   10.70    1.80
   3  -7  -2    9.80    1.90
   3   7  -2   10.90    2.10
  -3   7   2    9.60    2.00
  -3   7   2   11.30    2.20
   3   7  -2    9.10    1.90
   3   7  -2   13.50    1.90
   2  -7  -2    2.20    1.20
   2  -7  -2    4.10    1.20
   2  -7  -2    5.10    1.50
  -2  -7   2    2.90    1.10
   2   7  -2    3.50    1.20
  -2   7   2    3.00    1.30
  -2   7   2    1.70    1.10
   2   7  -2    1.60    1.00
  -2   7   2    2.10    1.00
   1  -7  -2  166.78    9.20
   1  -7  -2  153.18    9.50
  -1  -7   2  155.98    9.00
   1  -7  -2  151.28    9.30
  -1  -7   2  164.18    9.20
   1   7  -2  153.68    9.20
  -1   7   2  168.38    9.60
   1   7  -2  164.48    9.20
  -1   7   2  147.49    9.10
   1   7  -2  142.29    9.00
   0  -7  -2    7.70    1.40
   0  -7   2    5.70    1.20
   0  -7  -2    7.10    1.40
   0  -7   2    7.50    1.60
   0   7   2    8.80    1.50
   0   7  -2    6.00    1.30
   0   7   2    5.80    1.40
   0   7   2    7.10    2.30
   0   7  -2    6.10    1.30
   0   7  -2    6.60    1.50
   0   7   2    7.70    1.60
   0   7  -2    8.20    1.60
   1  -7   2   52.69    4.40
   1  -7   2   62.69    4.30
  -1  -7  -2   60.09    4.30
  -1   7  -2   50.29    4.30
  -1   7  -2   59.99    4.30
  -1   7  -2   56.09    4.70
   1   7   2   56.79    4.40
  -1   7  -2   54.39    3.80
   1   7   2   59.19    4.40
  -2  -7  -2  138.59    8.50
   2  -7   2  132.39    9.00
   2  -7   2  155.68    8.70
  -2   7  -2  135.29    9.10
  -2   7  -2  141.89    8.40
   2   7   2  140.29    8.90
   2   7   2  127.19    8.60
  -3  -7  -2  274.57   15.50
   3  -7   2  255.17   16.10
   3  -7   2  266.47   15.30
   3  -7   2  302.87   15.70
  -3   7  -2  286.27   15.30
   3   7   2  262.27   15.50
  -3   7  -2  254.27   18.00
   3   7   2  281.67   16.00
   4  -7   2   99.89    6.70
  -4  -7  -2   90.39    7.60
   4  -7   2   99.79    7.70
   4   7   2   97.59    7.40
   4   7   2   97.09    6.90
  -4   7  -2   96.19    6.60
  -4   7  -2  109.29    8.20
  -5  -7  -2    3.80    1.70
   5  -7   2    2.00    1.50
   5  -7   2    1.10    2.30
   5  -7   2    5.00    1.70
   5   7   2    2.30    2.20
  -5   7  -2    2.90    1.80
   5   7   2    0.30    1.50
  -5   7  -2   -0.10    2.80
   6  -7   2    5.60    1.70
  -6  -7  -2    1.40    2.10
   6  -7   2    2.10    2.00
   6  -7   2    0.20    1.40
   6   7   2    1.40    1.70
   6   7   2    0.10    1.50
  -6   7  -2    0.10    1.90
   7  -7   2   37.90    3.70
   7  -7   2   28.10    5.30
   7  -7   2   28.60    5.30
   7  -7   2   28.60    4.90
   7   7   2   25.10    4.50
   7   7   2   22.90    4.70
   7   7   2   30.80    4.70
   8  -8  -2    3.50    2.90
   8  -8  -2    1.00    2.30
   8   8  -2    4.00    2.10
   7  -8  -2   24.30    4.30
   7  -8  -2   25.10    4.40
   7   8  -2   19.90    3.60
   7   8  -2   20.00    3.70
   7   8  -2   29.40    4.10
   7   8  -2   23.50    3.30
   6  -8  -2    6.90    2.20
   6  -8  -2    2.70    2.10
   6   8  -2    4.40    1.50
   6   8  -2    4.10    2.10
   6   8  -2    2.80    1.90
  -6   8   2    7.20    3.00
  -5  -8   2   19.50    3.50
   5  -8  -2   23.80    3.50
   5  -8  -2   21.70    3.90
  -5   8   2   22.60    4.10
   5   8  -2   25.80    3.10
   5   8  -2   21.00    3.30
   4  -8  -2  102.09    7.50
   4  -8  -2  113.19    6.60
   4  -8  -2   92.69    7.10
  -4  -8   2   95.79    6.90
   4   8  -2  100.49    6.70
  -4   8   2   98.99    8.40
   4   8  -2   98.79    7.20
  -3  -8   2  113.29    7.30
   3  -8  -2  100.99    7.50
   3  -8  -2  111.89    7.70
   3  -8  -2  127.49    7.20
   3   8  -2  102.79    7.10
   3   8  -2  123.99    7.20
   3   8  -2  102.49    7.50
  -3   8   2  119.09    7.90
  -2  -8   2   91.49    6.00
   2  -8  -2   86.49    6.30
   2  -8  -2   90.69    6.20
   2  -8  -2  101.19    6.00
   2   8  -2   82.69    5.90
   2   8  -2   90.49    6.20
  -2   8   2   99.89    6.70
   2   8  -2  102.09    6.10
  -2   8   2   86.79    6.30
  -2   8   2   79.79    5.80
   1  -8  -2   28.90    2.90
  -1  -8   2   29.30    2.80
   1  -8  -2   25.00    3.10
   1  -8  -2   31.20    2.80
  -1  -8   2   32.10    2.90
  -1   8   2   28.00    2.90
   1   8  -2   25.70    2.80
  -1   8   2   31.70    3.00
   1   8  -2   30.00    2.90
   1   8  -2   33.30    3.00
  -1   8   2   33.30    3.40
   0  -8  -2   41.90    3.40
   0  -8  -2   38.30    3.20
   0  -8  -2   38.20    3.00
   0  -8   2   33.80    3.30
   0  -8   2   38.00    3.20
   0  -8   2   39.90    3.30
   0   8  -2   37.00    3.20
   0   8  -2   33.00    3.40
   0   8   2   42.70    3.70
   0   8   2   34.40    3.30
   0   8  -2   39.40    3.40
   0   8  -2   34.40    3.50
   0   8   2   39.30    3.40
   0   8   2   40.40    3.10
   1  -8   2   38.40    3.20
   1  -8   2   34.60    3.50
  -1  -8  -2   37.70    3.30
  -1   8  -2   37.20    3.30
   1   8   2   42.20    3.70
   1   8   2   36.90    3.50
  -1   8  -2   34.90    2.90
  -1   8  -2   36.50    3.70
   1   8   2   33.40    3.40
  -1   8  -2   32.30    3.40
   2  -8   2   53.09    4.20
   2  -8   2   43.00    4.40
  -2  -8  -2   45.90    3.90
   2   8   2   44.20    4.20
  -2   8  -2   49.99    4.80
   2   8   2   45.60    4.20
  -2   8  -2   48.60    3.80
   3  -8   2  185.68   12.50
   3  -8   2  200.78   12.30
  -3  -8  -2  210.88   12.50
  -3   8  -2  205.28   11.60
   3   8   2  200.48   12.50
   3   8   2  192.18   12.00
  -3   8  -2  205.18   12.80
   4  -8   2   -0.30    1.50
   4  -8   2    0.10    1.30
   4  -8   2   -0.20    1.70
  -4  -8  -2    1.30    1.40
  -4   8  -2   -0.40    1.20
   4   8   2    3.10    1.70
  -4   8  -2    1.60    2.00
   4   8   2    2.40    1.70
   5  -8   2  348.57   18.50
   5  -8   2  322.37   17.80
  -5  -8  -2  293.87   18.20
   5  -8   2  309.87   19.30
  -5   8  -2  309.07   17.90
   5   8   2  319.57   19.00
   5   8   2  304.37   18.20
   6  -8   2   26.20    4.40
  -6  -8  -2   22.20    3.90
   6  -8   2   21.40    3.30
   6   8   2   25.20    4.10
   6   8   2   14.60    2.90
  -6   8  -2   28.90    3.80
  -6   8  -2   15.50    5.30
   7  -8   2   22.60    3.90
   7  -8   2   28.90    4.90
   7  -8   2   27.40    5.30
   7   8   2   33.60    4.10
   7   8   2   25.10    4.90
   7   8   2   27.90    4.60
   8  -9  -2   -1.00    4.00
   8  -9  -2    0.20    2.20
   8   9  -2    3.30    2.30
   8   9  -2   -1.20    2.10
   6  -9  -2   41.70    5.90
   6  -9  -2   40.50    5.20
   6   9  -2   45.80    5.00
  -6   9   2   57.89    6.00
   6   9  -2   43.00    4.20
   5  -9  -2    6.20    2.80
   5  -9  -2    5.80    2.10
  -5  -9   2    5.70    2.20
  -5   9   2   10.40    3.00
   5   9  -2    6.50    2.10
   5   9  -2    6.10    1.70
   4  -9  -2    3.50    1.70
   4  -9  -2    2.70    1.30
  -4  -9   2    0.20    1.30
   4  -9  -2    2.80    1.60
   4   9  -2    1.70    1.30
   4   9  -2   -0.10    1.40
  -3  -9   2   69.99    5.30
   3  -9  -2   66.29    5.70
   3  -9  -2   78.09    5.30
   3  -9  -2   71.79    5.80
  -3   9   2   81.09    6.30
   3   9  -2   76.19    5.80
  -3   9   2   66.39    5.10
   3   9  -2   69.69    5.30
   3   9  -2   79.39    5.40
   2  -9  -2    6.40    1.50
  -2  -9   2    9.10    1.70
   2  -9  -2    8.70    2.00
   2  -9  -2    6.40    1.60
  -2   9   2    4.80    1.40
   2   9  -2    7.00    1.70
  -2   9   2    9.20    2.10
   2   9  -2    7.10    1.50
  -2   9   2    8.40    2.30
   2   9  -2    7.90    1.80
   1  -9  -2  303.67   18.30
  -1  -9   2  343.47   18.00
   1  -9  -2  342.47   18.00
  -1  -9   2  349.67   18.30
  -1  -9   2  299.27   17.80
   1  -9  -2  316.07   17.80
  -1   9   2  290.17   17.80
  -1   9   2  367.56   18.70
  -1   9   2  331.77   18.00
   1   9  -2  321.77   18.00
   1   9  -2  295.77   17.90
   1   9  -2  347.37   18.20
   0  -9  -2  122.19    7.50
   0  -9   2  120.99    7.40
   0  -9   2  107.29    7.50
   0  -9  -2  124.79    7.30
   0  -9  -2  134.99    8.20
   0  -9   2  119.59    7.50
   0   9   2  126.79    8.00
   0   9  -2  109.79    7.20
   0   9   2   96.89    7.40
   0   9  -2  121.49    7.80
   0   9  -2  104.09    7.50
   1  -9   2  120.59    7.20
   1  -9   2  104.29    6.80
  -1  -9  -2  112.39    7.20
   1  -9   2  101.29    7.40
  -1   9  -2   98.79    7.30
  -1   9  -2  110.09    6.70
   1   9   2  111.39    7.40
  -1   9  -2  114.09    7.70
   1   9   2  115.09    7.50
  -1   9  -2  120.49    7.30
   1   9   2   96.89    7.30
   2  -9   2    5.80    1.70
  -2  -9  -2    8.20    1.90
   2  -9   2    8.10    2.20
   2   9   2    8.30    1.90
  -2   9  -2    8.20    1.80
   2   9   2    6.90    1.90
  -2   9  -2    8.60    3.00
  -3  -9  -2   35.30    3.80
   3  -9   2   45.40    4.40
   3  -9   2   42.30    4.70
   3   9   2   41.40    4.50
  -3   9  -2   39.10    3.80
   3   9   2   38.50    4.10
  -3   9  -2   41.20    4.80
  -4  -9  -2   66.59    5.50
   4  -9   2   62.39    5.70
   4  -9   2   59.89    6.20
   4   9   2   64.29    5.50
  -4   9  -2   64.39    7.30
   4   9   2   69.69    6.00
  -4   9  -2   60.19    4.90
   5  -9   2   81.39    6.60
   5  -9   2   85.89    6.20
   5  -9   2   73.99    7.30
  -5  -9  -2   70.09    6.50
   5   9   2   79.39    6.90
  -5   9  -2   68.19    7.00
   5   9   2   75.79    6.40
   6  -9   2    3.90    2.60
   6  -9   2    8.30    2.70
  -6  -9  -2   -1.30    2.40
   6  -9   2    1.70    2.00
   6  -9   2    5.70    2.00
  -6   9  -2    8.70    4.20
   6   9   2    3.70    2.00
   6   9   2    3.90    2.00
  -6   9  -2    2.90    2.00
   7  -9   2   13.90    5.10
   7  -9   2    7.60    3.10
   7  -9   2   15.50    4.10
   7   9   2   11.00    2.70
   8 -10  -2    3.20    2.30
   8 -10  -2    5.70    2.70
   8  10  -2    1.30    2.70
   8  10  -2    1.50    2.40
   6 -10  -2    5.20    2.20
  -6 -10   2    1.60    2.20
   6 -10  -2    0.20    2.00
   6  10  -2    2.00    1.90
   6  10  -2    2.90    1.50
   6  10  -2    7.20    2.40
   5 -10  -2    6.70    2.20
  -5 -10   2   11.80    2.60
   5 -10  -2    5.20    2.10
  -5  10   2    8.50    3.50
   5  10  -2    9.10    2.50
   5  10  -2    7.10    1.70
   5  10  -2    4.80    3.20
   4 -10  -2   38.50    3.40
   4 -10  -2   34.00    4.20
   4 -10  -2   30.20    4.00
  -4 -10   2   29.90    3.90
   4  10  -2   28.60    3.90
  -4  10   2   24.70    4.40
   4  10  -2   28.40    3.30
   4  10  -2   32.10    3.80
   3 -10  -2   95.19    6.20
   3 -10  -2   87.89    6.70
  -3 -10   2   91.29    6.40
   3 -10  -2   78.09    6.60
   3  10  -2   86.79    6.70
  -3  10   2   99.29    7.30
  -3  10   2   87.59    6.10
   3  10  -2   79.09    6.10
   3  10  -2   99.59    6.50
   2 -10  -2  274.67   17.90
   2 -10  -2  335.17   17.60
  -2 -10   2  329.37   17.70
   2 -10  -2  322.57   17.80
  -2  10   2  327.37   20.40
   2  10  -2  311.87   18.00
   2  10  -2  287.57   17.50
  -2  10   2  298.57   17.50
   2  10  -2  354.96   18.00
  -2  10   2  322.97   18.00
  -1 -10   2   30.30    3.20
   1 -10  -2   29.40    3.20
  -1 -10   2   24.60    3.30
  -1 -10   2   27.70    3.10
   1 -10  -2   25.30    3.60
   1 -10  -2   29.40    3.20
   1 -10  -2   32.90    3.40
  -1  10   2   22.30    3.10
   1  10  -2   25.20    3.30
   1  10  -2   28.70    3.30
  -1  10   2   26.40    3.20
   1  10  -2   31.60    3.50
  -1  10   2   28.20    3.80
   0 -10  -2  157.58    8.90
   0 -10  -2  155.68    9.30
   0 -10   2  130.59    9.10
   0 -10   2  151.88    9.10
   0 -10  -2  142.09    8.60
   0  10   2  133.79    9.20
   0  10  -2  121.89    9.00
   0  10  -2  148.69    9.00
   0  10   2  145.59    8.80
   0  10   2  155.38    9.60
   0  10  -2  165.08    9.70
   1 -10   2  145.29   10.00
   1 -10   2  154.78    9.60
  -1 -10  -2  173.88    9.30
  -1  10  -2  152.68    9.40
   1  10   2  170.68   11.50
   1  10   2  164.38   10.20
  -1  10  -2  170.28   10.60
   1  10   2  136.59    9.90
  -1  10  -2  172.48    9.90
  -2 -10  -2   53.59    4.70
   2 -10   2   55.79    5.00
   2 -10   2   53.29    5.20
  -2  10  -2   58.69    5.60
  -2  10  -2   65.19    4.80
   2  10   2   53.09    5.00
   2  10   2   60.29    5.40
   2  10   2   53.69    5.10
   3 -10   2    9.40    2.30
   3 -10   2    8.70    2.40
  -3 -10  -2    7.90    1.90
   3  10   2   10.40    2.60
  -3  10  -2    9.00    3.10
  -3  10  -2   10.00    2.10
   3  10   2    8.20    2.10
   4 -10   2   63.79    5.50
   4 -10   2   49.10    6.00
  -4 -10  -2   51.49    5.20
   4  10   2   55.49    5.20
   4  10   2   57.19    6.40
  -4  10  -2   51.29    4.70
  -5 -10  -2   36.70    4.50
   5 -10   2   37.70    5.10
   5 -10   2   42.90    4.80
   5  10   2   38.20    4.90
   5  10   2   31.40    4.30
  -5  10  -2   29.70    4.00
   6 -10   2    5.40    4.30
   6 -10   2    7.00    2.80
   6 -10   2    5.40    2.60
   6  10   2    4.70    2.60
   6  10   2    7.80    2.40
   7 -10   2    5.50    3.30
   7 -10   2   -0.50    2.80
   7 -10   2    1.30    2.50
   7  10   2    0.20    4.00
   7  10   2    2.30    2.10
   7 -11  -2   -0.70    2.40
   7 -11  -2    1.40    1.90
   7  11  -2   -0.50    1.40
   7  11  -2    0.20    2.30
   7  11  -2   -2.50    2.00
   6 -11  -2    2.10    2.20
   6 -11  -2   -1.20    1.80
  -6 -11   2    4.70    2.10
   6  11  -2    0.60    1.20
   6  11  -2   -2.50    2.20
   6  11  -2   -1.60    1.70
  -6  11   2   -1.20    4.00
   5 -11  -2   16.90    3.50
  -5 -11   2   19.60    3.90
   5 -11  -2   20.00    3.80
  -5  11   2   17.80    4.20
   5  11  -2   19.70    3.00
   5  11  -2   19.60    3.60
   5  11  -2   18.20    3.40
   4 -11  -2   -0.70    1.20
  -4 -11   2   -0.10    1.60
   4 -11  -2   -1.40    1.50
   4 -11  -2    1.40    1.60
  -4  11   2   -2.20    2.00
   4  11  -2    0.50    1.50
   4  11  -2   -1.40    1.50
   3 -11  -2    0.40    1.60
   3 -11  -2    0.90    1.20
  -3 -11   2   -0.50    1.40
   3 -11  -2    0.20    1.30
   3  11  -2    0.40    1.70
   3  11  -2    2.00    1.30
  -3  11   2   -1.20    1.50
   3  11  -2   -1.00    1.30
  -3  11   2    0.70    1.20
   2 -11  -2    0.80    1.20
   2 -11  -2    1.90    1.50
  -2 -11   2    0.80    1.40
  -2 -11   2    2.00    2.30
   2 -11  -2    1.50    1.30
  -2  11   2    1.20    1.40
  -2  11   2   -0.70    1.50
   2  11  -2    0.90    1.40
   2  11  -2    0.80    1.20
   2  11  -2   -0.30    1.40
  -1 -11   2   82.29    8.20
  -1 -11   2   77.49    6.10
   1 -11  -2   72.19    6.50
   1 -11  -2   97.09    6.30
   1 -11  -2   91.89    6.10
  -1 -11   2   92.19    6.60
   1 -11  -2   91.29    6.30
  -1  11   2   73.79    6.00
   1  11  -2   80.39    6.20
   1  11  -2   90.69    6.60
   1  11  -2   85.49    6.30
  -1  11   2   88.29    6.30
   0 -11   2   33.60    3.40
   0 -11  -2   31.30    3.00
   0 -11  -2   32.80    3.60
   0 -11   2   27.10    3.50
   0 -11  -2   33.40    3.30
   0 -11   2   31.80    3.50
   0  11  -2   28.40    3.30
   0  11   2   29.00    3.60
   0  11  -2   28.20    3.60
   0  11   2   31.40    3.30
   0  11   2   33.20    4.00
   0  11  -2   32.10    3.90
  -1 -11  -2   44.60    4.10
   1 -11   2   36.40    4.30
   1 -11   2   46.00    4.10
  -1 -11  -2   45.90    3.60
   1 -11   2   43.10    4.00
   1  11   2   43.10    4.50
  -1  11  -2   46.90    4.40
  -1  11  -2   39.50    3.80
   1  11   2   38.10    4.30
  -1  11  -2   46.10    5.10
   1  11   2   49.10    4.70
   2 -11   2   38.90    4.60
   2 -11   2   49.10    4.70
  -2 -11  -2   45.10    4.30
  -2  11  -2   42.80    5.40
  -2  11  -2   49.20    4.50
  -2  11  -2   41.70    3.60
   2  11   2   42.90    4.60
   2  11   2   49.40    4.90
   2  11   2   40.30    4.50
   3 -11   2  176.08   10.90
   3 -11   2  147.49   11.10
  -3 -11  -2  159.48   10.60
  -3  11  -2  173.68   12.10
   3  11   2  171.98   11.30
   3  11   2  146.79   10.70
  -3  11  -2  177.68   10.40
   4 -11   2    2.50    2.10
   4 -11   2    4.60    2.10
  -4 -11  -2    0.50    1.70
   4  11   2    5.40    2.20
   4  11   2    2.00    2.00
  -4  11  -2    1.60    2.00
   5 -11   2   -1.10    1.90
   5 -11   2    0.80    1.80
   5  11   2    1.60    2.00
   5  11   2   -0.60    1.60
  -5  11  -2    3.90    2.00
  -5  11  -2    0.80    3.40
   6 -11   2   -1.20    2.00
   6 -11   2    0.00    2.30
   6 -11   2   -3.60    2.60
  -6 -11  -2    4.00    2.80
   6  11   2    0.80    2.10
   6  11   2   -0.10    2.30
   7 -11   2    2.80    2.70
   7 -12  -2    4.60    3.80
   7 -12  -2    7.30    2.80
   7  12  -2    7.70    2.70
   7  12  -2    6.90    2.70
   6 -12  -2    9.30    2.90
   6 -12  -2    5.50    2.40
  -6 -12   2   13.30    3.20
   6  12  -2    9.40    2.80
   6  12  -2   11.80    2.20
  -6  12   2   10.50    4.50
   6  12  -2   15.90    3.70
   5 -12  -2   38.40    5.00
   5 -12  -2   38.00    4.80
  -5 -12   2   39.50    4.60
   5  12  -2   43.70    4.20
   5  12  -2   42.50    5.00
  -4 -12   2    4.80    2.10
   4 -12  -2    3.90    1.70
   4 -12  -2    5.20    3.10
   4  12  -2    6.10    2.20
  -4  12   2   11.50    3.00
   4  12  -2    7.40    1.90
   4  12  -2    5.00    2.10
   3 -12  -2    1.90    1.70
   3 -12  -2   -0.40    1.60
   3 -12  -2    0.30    1.30
  -3 -12   2   -0.60    1.30
   3  12  -2   -2.00    1.10
  -3  12   2    0.60    1.30
  -3  12   2   -1.40    1.90
   3  12  -2   -0.10    1.90
  -2 -12   2    1.90    1.50
   2 -12  -2    2.50    1.70
   2 -12  -2    2.90    1.40
  -2 -12   2    2.80    1.60
   2 -12  -2    2.10    1.60
   2 -12  -2    2.60    1.40
  -2  12   2    3.20    1.50
   2  12  -2   -1.40    1.90
  -2  12   2    4.70    1.90
   2  12  -2    0.20    1.50
   1 -12  -2  104.89    6.90
  -1 -12   2   92.89    6.70
   1 -12  -2  113.59    7.00
   1 -12  -2   96.09    6.50
  -1 -12   2   78.19    6.70
   1 -12  -2   85.59    7.20
  -1 -12   2   94.79    7.10
  -1  12   2   85.79    6.70
   1  12  -2  100.49    7.30
   1  12  -2   90.49    6.90
  -1  12   2  109.39    7.70
   1  12  -2   83.59    6.80
   0 -12   2    0.90    1.40
   0 -12  -2    1.00    1.10
   0 -12  -2    0.70    1.20
   0 -12   2   -0.30    1.10
   0  12  -2   -2.90    1.60
   0  12   2   -1.10    1.20
   0  12  -2   -1.20    1.50
   0  12   2    3.20    1.50
   0  12   2   -1.40    1.40
   0  12  -2   -0.20    1.50
   1 -12   2  115.79    9.30
  -1 -12  -2  148.29    8.60
  -1 -12  -2  147.69    9.30
   1 -12   2  142.39    9.20
   1 -12   2  137.49    8.90
  -1  12  -2  146.09    9.20
  -1  12  -2  151.08   10.20
   1  12   2  133.29    9.50
  -1  12  -2  126.29    8.60
   1  12   2  126.19    9.20
   1  12   2  160.98   10.00
   2 -12   2   96.69    8.10
  -2 -12  -2  114.89    7.90
   2 -12   2  116.19    8.10
   2  12   2   99.19    7.90
  -2  12  -2  121.19    7.90
   2  12   2  116.29    8.30
  -2  12  -2  102.59    7.00
  -2  12  -2  105.49    9.00
   2  12   2  121.29    8.50
   3 -12   2   94.29    8.90
   3 -12   2  113.59    8.00
  -3 -12  -2   91.19    7.70
  -3  12  -2  112.89    7.60
   3  12   2  103.39    9.20
   3  12   2  119.79    8.60
  -3  12  -2   98.49    8.90
   4 -12   2   14.80    3.30
   4 -12   2   20.70    4.00
   4 -12   2   11.00    2.70
   4  12   2   14.80    3.30
   4  12   2   14.00    2.90
  -4  12  -2   18.10    3.20
   5 -12   2   12.00    3.30
   5 -12   2   10.10    3.10
  -5 -12  -2   17.60    3.30
   5  12   2   17.50    3.60
   5  12   2   16.70    3.20
  -5  12  -2   17.80    2.90
  -6 -12  -2    9.00    3.20
   6 -12   2    8.30    3.00
   6 -12   2    6.30    3.20
   6  12   2    6.10    2.50
   6  12   2    9.40    2.80
   7 -13  -2    4.60    2.10
   7 -13  -2   -2.70    2.40
   7  13  -2    1.80    3.10
   7  13  -2    1.30    3.60
   6 -13  -2    7.90    2.90
  -6 -13   2   11.20    3.30
   6 -13  -2    5.70    2.80
  -6  13   2   20.60    5.60
   6  13  -2   10.30    2.30
   6  13  -2    7.20    2.70
   5 -13  -2    3.90    2.20
  -5 -13   2    6.30    2.30
   5 -13  -2    5.10    2.40
   5  13  -2    7.20    1.80
   5  13  -2    2.50    2.20
  -5  13   2   14.50    5.40
   5  13  -2    7.40    2.80
   4 -13  -2    5.90    2.20
  -4 -13   2    6.80    2.20
   4 -13  -2    1.50    1.90
   4 -13  -2    0.40    1.80
   4  13  -2    2.90    1.70
   4  13  -2    5.40    2.60
   4  13  -2    3.10    1.90
   3 -13  -2    2.10    1.70
   3 -13  -2    1.00    1.90
  -3 -13   2    3.40    1.60
   3 -13  -2    1.50    1.70
   3  13  -2    2.50    1.80
   3  13  -2    3.40    2.30
  -3  13   2    2.30    1.60
  -3  13   2    1.50    2.70
   3  13  -2    1.40    1.90
   2 -13  -2    1.90    1.50
   2 -13  -2    0.50    1.60
   2 -13  -2    1.50    1.50
  -2 -13   2    0.80    1.80
   2 -13  -2    0.90    1.30
  -2 -13   2   -0.60    1.50
  -2  13   2    2.70    2.20
   2  13  -2    0.50    1.60
   2  13  -2    0.10    1.60
  -2  13   2    2.00    1.60
   2  13  -2    1.70    2.00
  -1 -13   2   26.10    3.70
  -1 -13   2   20.30    3.40
  -1 -13   2   21.90    3.40
   1 -13  -2   30.50    3.70
   1  13  -2   21.40    4.10
  -1  13   2   22.60    3.40
   1  13  -2   22.40    3.50
   1  13  -2   23.40    3.50
   0 -13  -2    5.10    1.70
   0 -13   2    2.80    2.00
   0 -13   2    6.30    2.00
   0 -13   2    2.30    1.70
   0 -13  -2    6.60    1.90
   0  13  -2    2.20    2.30
   0  13  -2    0.10    1.70
   0  13  -2    4.20    1.80
   0  13   2    7.90    2.60
   0  13   2    3.80    1.70
   1 -13   2  216.58   12.90
   1 -13   2  225.28   13.20
  -1 -13  -2  221.48   12.40
   1 -13   2  221.48   13.00
   1 -13   2  176.48   13.10
  -1 -13  -2  221.58   13.30
   1  13   2  190.28   13.20
  -1  13  -2  189.38   12.40
  -1  13  -2  222.48   13.20
   1  13   2  214.18   13.50
   1  13   2  238.98   14.00
  -1  13  -2  233.58   14.30
   2 -13   2    1.80    1.90
   2 -13   2   -0.80    1.50
   2 -13   2    0.30    1.60
   2  13   2    4.60    2.50
  -2  13  -2    0.00    1.20
  -2  13  -2   -1.50    2.50
   2  13   2    2.90    2.00
  -2  13  -2   -1.10    1.40
   3 -13   2   86.89    8.10
   3 -13   2   91.99   10.00
   3 -13   2  126.19    8.20
  -3  13  -2   97.39    9.10
   3  13   2  122.39    8.70
  -3  13  -2  111.89    7.70
   3  13   2   94.29    8.10
   3  13   2  100.99    8.40
   4 -13   2   30.10    4.80
   4 -13   2   28.50    4.70
   4  13   2   27.30    4.50
   4  13   2   39.80    5.70
   4  13   2   27.30    4.90
   5 -13   2   -0.40    2.10
   5 -13   2   -1.30    2.20
   5  13   2    0.10    2.10
   5  13   2   -0.70    2.30
  -5  13  -2    2.20    1.90
   6 -13   2    0.10    2.60
   6 -13   2   -2.10    2.50
   6  13   2    1.20    2.60
   6  13   2    7.90    3.10
   6 -14  -2    2.20    2.40
   6 -14  -2    1.80    2.40
   6  14  -2    2.70    2.20
   6  14  -2    3.20    1.70
   5 -14  -2    2.00    2.60
   5 -14  -2    4.40    1.90
   5 -14  -2   -1.30    2.20
   5  14  -2    4.20    2.70
  -5  14   2   10.10    4.10
   5  14  -2   -2.60    1.80
   5  14  -2   -1.50    1.70
  -4 -14   2   11.80    2.70
   4 -14  -2    7.00    2.40
   4 -14  -2   15.40    2.60
   4 -14  -2    8.90    2.50
   4  14  -2    9.50    2.40
   4  14  -2   10.50    2.60
   4  14  -2   11.30    3.10
  -4  14   2   15.50    6.00
   3 -14  -2    5.50    2.10
   3 -14  -2    8.30    2.40
   3 -14  -2    5.90    2.30
  -3  14   2    7.60    2.10
   3  14  -2    9.20    2.30
   3  14  -2    6.60    2.10
  -2 -14   2    6.70    2.40
  -2 -14   2    4.00    2.00
   2 -14  -2    4.50    2.00
   2 -14  -2    5.90    2.20
   2 -14  -2    2.50    1.70
   2 -14  -2    2.90    1.90
   2  14  -2    4.20    2.90
   2  14  -2    8.20    2.50
   2  14  -2    3.00    1.80
  -2  14   2    4.40    1.90
   1 -14  -2   -0.60    1.40
  -1 -14   2    0.10    1.60
   1 -14  -2   -1.20    1.40
   1 -14  -2   -2.10    1.50
  -1  14   2   -1.60    1.40
   1  14  -2    0.20    1.50
   1  14  -2   -2.00    1.50
   1  14  -2   -0.90    1.90
   0 -14   2    2.90    1.60
   0 -14   2   -0.30    1.60
   0 -14   2    2.30    1.90
   0 -14  -2    2.80    1.80
   0 -14  -2    2.10    1.40
   0  14   2    0.30    1.70
   0  14   2    1.20    2.30
   0  14  -2   -1.40    2.10
   0  14  -2    0.60    1.50
   1 -14   2    1.20    1.80
  -1 -14  -2    0.80    1.50
   1 -14   2    0.90    1.60
   1 -14   2    2.40    1.80
  -1 -14  -2    4.10    1.50
  -1  14  -2   -0.10    1.50
  -1  14  -2    3.60    1.60
   1  14   2    0.30    1.90
   1  14   2    4.50    2.60
  -1  14  -2    3.20    2.70
   1  14   2    3.20    2.50
  -2 -14  -2    1.30    1.30
   2 -14   2   -3.00    1.60
   2 -14   2   -1.10    2.00
   2  14   2   -0.40    1.90
  -2  14  -2    0.60    2.80
  -2  14  -2    0.50    1.50
   2  14   2    1.10    1.90
  -2  14  -2    2.60    1.70
   2  14   2    2.30    2.80
  -3 -14  -2   71.59    8.90
   3 -14   2   75.89    8.30
   3 -14   2   61.39    6.90
   3 -14   2   74.29    6.80
  -3  14  -2   87.59    6.40
   3  14   2   88.89    7.50
   3  14   2   63.19    6.70
   3  14   2   71.09    7.00
  -3  14  -2   83.49   10.20
  -4 -14  -2   -0.30    2.50
   4 -14   2   -1.90    2.10
   4 -14   2    2.30    2.10
   4 -14   2   -0.70    2.00
   4  14   2   -1.70    2.00
   4  14   2   -1.40    1.90
   4  14   2    0.20    2.90
   5 -14   2   32.10    5.30
   5 -14   2   30.50    5.00
   5  14   2   38.00    7.70
   5  14   2   33.40    5.10
   5  14   2   33.10    5.10
   6 -14   2    6.90    2.40
   6 -14   2    7.20    3.00
   6  14   2    6.80    2.50
   6  14   2    2.60    3.20
   6 -15  -2   -0.50    2.90
   6 -15  -2   -3.10    2.80
   6  15  -2    1.80    3.10
   6  15  -2    5.90    1.70
   6  15  -2    3.60    3.20
   5 -15  -2    2.90    2.10
  -5 -15   2    0.10    2.40
   5 -15  -2    4.00    2.20
   5  15  -2    3.20    3.00
   5  15  -2   -1.30    1.60
   5  15  -2   -0.30    1.80
   4 -15  -2   26.40    4.30
   4 -15  -2   26.10    4.40
  -4 -15   2   34.20    4.50
  -4  15   2   37.80    7.10
   4  15  -2   39.50    5.70
   4  15  -2   32.00    4.70
   4  15  -2   25.90    4.30
  -3 -15   2   -1.40    2.10
   3 -15  -2    3.80    2.80
   3 -15  -2    4.40    2.20
   3 -15  -2    3.30    2.00
   3 -15  -2    4.00    2.50
   3  15  -2    5.10    3.60
   3  15  -2    4.90    2.00
  -3  15   2   -1.50    7.30
  -3  15   2    3.00    1.90
   3  15  -2    6.30    2.80
  -2 -15   2   52.59    5.20
   2 -15  -2   48.60    4.90
   2 -15  -2   41.70    5.30
  -2 -15   2   48.40    6.00
  -2  15   2   42.70    5.00
   2  15  -2   50.89    5.20
   1 -15  -2    5.90    2.20
  -1 -15   2    8.20    2.80
   1 -15  -2    6.20    1.90
  -1 -15   2    5.60    2.20
   1 -15  -2    9.10    2.50
  -1 -15   2    8.60    2.40
   1  15  -2    7.40    2.80
   1  15  -2    2.30    1.90
   1  15  -2    7.20    3.00
  -1  15   2    4.70    3.00
   0 -15   2   11.30    2.70
   0 -15  -2   16.40    3.30
   0 -15   2   15.70    3.30
   0 -15  -2   20.40    3.30
   0  15   2   14.40    3.90
   0  15  -2   20.10    4.30
   0  15  -2   18.40    3.00
   0  15   2   13.10    3.00
   1 -15   2   15.50    2.90
   1 -15   2   10.50    2.80
  -1 -15  -2   14.60    2.90
  -1 -15  -2   12.70    2.30
   1 -15   2   10.20    2.30
   1  15   2    7.10    2.50
  -1  15  -2   14.10    3.00
  -1  15  -2   10.20    2.20
   1  15   2    9.50    4.10
   1  15   2   18.20    3.50
   2 -15   2   53.79    5.30
  -2 -15  -2   38.60    4.40
   2 -15   2   39.50    5.30
   2  15   2   46.10    5.40
  -2  15  -2   54.19    5.20
  -2  15  -2   40.80    4.20
  -2  15  -2   52.09    7.00
   2  15   2   56.89    6.70
   2  15   2   46.50    5.40
   3 -15   2   20.60    4.00
  -3 -15  -2   19.10    3.80
   3 -15   2   13.20    3.40
   3 -15   2   22.80    4.20
   3  15   2   13.10    3.30
  -3  15  -2   21.40    3.70
   3  15   2   17.50    3.40
   4 -15   2   -1.20    2.20
   4 -15   2    1.20    2.00
   4  15   2   -2.40    1.90
  -4  15  -2    2.70    2.10
   4  15   2   10.30    3.90
   4  15   2   -0.50    2.20
   5 -15   2    6.60    3.20
   5 -15   2    6.00    2.60
   5  15   2    3.20    2.60
  -5  15  -2    1.70    2.10
   5  15   2    6.40    3.10
   5 -16  -2    4.60    2.70
   5 -16  -2   11.40    2.20
   5 -16  -2    8.00    2.60
   5  16  -2    4.30    2.60
   4 -16  -2    9.60    2.70
   4 -16  -2    8.80    3.00
   4  16  -2    8.70    2.70
   4  16  -2    9.40    2.50
  -4  16   2    9.50    2.50
   3 -16  -2   27.80    5.10
   3 -16  -2   34.50    4.20
   3 -16  -2   39.60    4.60
   3  16  -2   24.50    4.20
  -3  16   2   37.20    6.60
   3  16  -2   22.80    4.20
   2 -16  -2   -0.90    2.10
  -2 -16   2    1.90    3.00
   2 -16  -2   -1.70    1.80
   2 -16  -2   -1.30    2.00
   2  16  -2   -4.30    2.60
  -2  16   2    1.00    1.80
   2  16  -2    0.60    1.80
   2  16  -2    1.70    1.90
  -1 -16   2    4.90    2.50
   1 -16  -2    8.30    2.50
   1 -16  -2    3.40    1.80
   1  16  -2   11.70    3.70
  -1  16   2    4.90    2.30
   1  16  -2    4.70    2.10
   0 -16   2    5.20    2.40
   0 -16  -2    2.50    2.30
   0 -16   2    1.20    2.20
   0 -16  -2    2.90    1.80
   0 -16   2    4.80    2.10
   0  16  -2    4.40    2.90
   0  16   2    1.50    2.00
   0  16   2    7.70    4.40
   0  16  -2    7.10    3.90
  -1 -16  -2   83.99    9.10
   1 -16   2   58.89    6.40
  -1 -16  -2   77.99    6.00
   1 -16   2   78.39    6.70
   1 -16   2   93.89    7.90
   1  16   2   65.89    6.70
  -1  16  -2   82.79    6.80
   1  16   2   81.89    7.10
  -1  16  -2   63.69    5.80
   2 -16   2    4.70    2.30
  -2 -16  -2    4.90    2.50
   2 -16   2    2.30    2.20
  -2 -16  -2    4.50    1.80
   2  16   2    1.50    2.00
  -2  16  -2    2.40    1.80
  -2  16  -2    6.30    3.80
  -2  16  -2    2.20    2.20
   2  16   2    8.20    3.80
   2  16   2    4.00    2.40
   3 -16   2    2.00    2.10
   3 -16   2   -2.40    2.30
   3  16   2   10.50    4.00
   3  16   2   -2.70    1.70
   3  16   2    1.40    2.20
  -3  16  -2   -3.20    2.00
   4 -16   2    1.00    2.70
   4 -16   2   -0.70    2.20
   4  16   2    0.70    2.30
   4  16   2   -0.40    2.50
   5 -16   2   10.40    3.80
   5 -16   2   14.20    3.50
   5  16   2    5.90    3.10
   5  16   2   12.80    3.30
  -5  16  -2    9.20    3.00
  -5 -17   2   39.90    5.30
   5 -17  -2   30.90    4.50
   5  17  -2   25.10    3.90
   5  17  -2   43.70    8.90
  -4 -17   2   35.80    5.80
   4 -17  -2   25.10    4.70
   4 -17  -2   25.00    4.20
   4 -17  -2   24.90    4.80
   4  17  -2   17.10    3.30
   4  17  -2   15.00    3.40
  -4  17   2   23.20    4.00
   3 -17  -2    0.60    1.60
   3 -17  -2   -2.40    3.70
   3 -17  -2    2.60    2.40
   3 -17  -2    6.50    2.50
  -3 -17   2   -4.30    5.40
  -3  17   2    1.10    1.90
   3  17  -2    4.20    2.30
   3  17  -2   -1.10    2.00
   2 -17  -2    3.60    2.50
   2 -17  -2    0.40    2.10
  -2 -17   2    6.40    4.20
   2 -17  -2    4.90    3.00
  -2  17   2    1.20    2.10
   2  17  -2    1.30    2.10
   2  17  -2    1.90    2.20
   2  17  -2   11.70    3.80
  -2  17   2    5.30    3.80
  -1 -17   2   15.00    5.50
  -1 -17   2    9.50    3.10
   1 -17  -2   13.10    4.40
   1 -17  -2    6.10    2.00
  -1  17   2    9.10    2.60
   1  17  -2    7.50    2.30
   0 -17   2   11.90    3.30
   0 -17   2    5.70    2.60
   0 -17  -2    1.90    2.40
   0 -17   2    7.00    2.40
   0 -17  -2    7.60    2.70
   0  17  -2    4.50    3.20
   0  17  -2   16.10    6.40
   0  17   2    2.40    2.10
   0  17  -2    4.70    1.90
  -1 -17  -2    0.90    2.60
   1 -17   2    1.10    1.70
   1 -17   2    6.20    3.00
   1 -17   2    5.30    2.50
   1 -17   2    2.00    2.20
   1  17   2    5.20    2.40
   1  17   2   11.50    4.00
  -2 -17  -2    2.00    2.20
   2 -17   2    2.90    2.50
   2 -17   2    6.60    2.30
   2  17   2    4.60    2.40
  -2  17  -2    4.20    2.00
   2  17   2    1.70    2.30
  -2  17  -2   10.40    4.80
   3 -17   2   22.20    4.20
   3 -17   2   23.60    4.40
   3  17   2   14.40    3.20
   3  17   2   17.10    3.60
   4 -17   2   -0.40    2.30
   4 -17   2   -1.60    2.40
   4  17   2   -2.90    2.00
   4  17   2   -0.10    2.20
  -4 -18   2   10.30    3.80
   4 -18  -2   14.40    3.40
   4 -18  -2   12.40    3.90
   4  18  -2   15.00    3.30
  -4  18   2   12.40    3.10
   4  18  -2   14.50    3.10
   3 -18  -2    3.60    2.30
   3 -18  -2    2.70    2.70
  -3 -18   2   -0.80    2.60
  -3  18   2    8.70    2.40
  -3  18   2    5.80    2.70
   3  18  -2    6.40    2.80
   3  18  -2    4.90    2.40
   2 -18  -2    2.00    1.80
  -2 -18   2    5.20    2.90
   2  18  -2    5.20    4.30
  -2  18   2    1.40    2.10
   2  18  -2    2.30    2.20
  -1 -18   2    5.50    2.10
  -1 -18   2    3.20    3.10
   1 -18  -2    1.30    2.70
   1 -18  -2    5.30    2.30
   1  18  -2    2.70    2.00
   1  18  -2    6.40    4.60
  -1  18   2    2.30    2.20
   0 -18   2    1.20    2.20
   0 -18  -2   -2.50    1.70
   0 -18  -2    4.60    2.60
   0 -18   2    1.70    3.20
   0  18   2   -3.40    2.00
   0  18  -2   -3.70    2.10
   0  18   2    2.90    2.20
   0  18  -2   -3.30    1.80
   0  18  -2   -0.90    4.20
  -1  18  -2    4.50    1.90
   1  18   2    6.20    2.30
   2 -18   2    6.90    2.90
  -2 -18  -2    2.80    2.40
   2 -18   2    6.70    2.20
  -2  18  -2    7.30    3.80
   2  18   2   10.00    3.10
   2  18   2    9.50    3.10
   3 -18   2    0.10    2.30
   3  18   2   -4.40    2.70
  -3  18  -2    5.80    4.70
   3  18   2   -0.80    3.10
   3 -19  -2    1.00    2.60
   3 -19  -2    4.00    3.60
   3 -19  -2    3.70    2.10
   3  19  -2   -1.10    2.60
  -3  19   2    5.30    2.40
  -3  19   2    2.50    2.80
   2 -19  -2    3.50    3.10
  -2  19   2    6.90    2.70
  -1  19   2    3.70    2.70
   1  19  -2   14.60    6.40
   1  19  -2    9.10    2.70
   0 -19  -2   -0.10    1.90
   0 -19   2    0.50    2.60
   0  19   2    2.60    2.40
   0  19  -2   -0.50    2.10
   0  19   2   -2.40    2.10
  -1 -19  -2    2.10    3.30
   1  19   2    3.50    2.70
  -1  19  -2    5.80    3.30
   1  19   2    5.40    2.30
  -1  19  -2    7.40    2.60
   2 -19   2    2.00    4.30
   2 -19   2   -0.10    2.20
   2  19   2   -0.40    2.30
   2  19   2    0.60    2.20
   2 -20  -2    0.70    2.50
  -2  20   2    0.60    2.50
   2  20  -2    0.00    2.60
  -1  20   2    2.90    2.70
  -1  20   2   -1.40    2.60
   1  20  -2   -2.60    2.20
   0 -20   2   -1.40    2.60
   0  20  -2   -2.70    2.00
   0  20   2   -0.50    4.50
   1 -20   2    4.00    3.30
  -1  20  -2   -1.40    2.20
   9   0  -3    2.70    2.30
   9   0  -3   -2.30    1.70
   9   0  -3   -1.10    1.80
   9   0  -3    4.20    2.30
   8   0  -3    1.30    2.00
   8   0  -3   -2.30    1.50
   8   0  -3    0.30    1.50
   7   0  -3    0.80    1.40
   7   0  -3    0.70    1.40
   7   0  -3   -0.10    1.70
   6   0  -3   -0.50    1.20
   6   0  -3   -0.90    1.40
   5   0  -3   48.70    4.20
   5   0  -3   47.80    4.50
   4   0  -3   -0.60    1.20
   4   0  -3    0.10    1.10
  -4   0   3   -0.20    1.00
  -3   0   3   80.39    5.30
   3   0  -3   76.59    5.40
   3   0  -3   77.69    6.10
   2   0  -3    0.10    0.70
  -2   0   3    0.50    0.70
   2   0  -3    1.30    0.70
   2   0  -3    0.80    0.60
   1   0  -3 2248.08  108.29
   1   0  -3 2075.09  108.39
  -1   0   3 2187.48  108.29
  -1   0   3 2110.09  108.19
  -1   0   3 2100.09  108.49
   1   0  -3 2071.29  108.19
   0   0   3    0.20    0.80
   0   0  -3   -0.10    0.60
   0   0  -3    0.60    0.60
   0   0   3    0.70    0.70
   0   0   3    0.10    0.70
   0   0  -3    0.00    0.70
  -1   0  -3 1449.65   71.79
  -1   0  -3 1354.96   72.19
   1   0   3 1429.56   72.09
   2   0   3   -0.10    1.00
  -2   0  -3   -0.10    1.00
   2   0   3    0.20    0.90
   3   0   3  284.07   16.40
   3   0   3  268.97   15.70
  -3   0  -3  276.77   15.70
   4   0   3   -0.50    1.20
  -4   0  -3    0.00    1.40
   4   0   3   -1.50    1.20
  -5   0  -3  154.98   10.50
   5   0   3  169.28   11.60
   5   0   3  163.48   10.50
   6   0   3   -0.60    1.50
   6   0   3   -0.40    1.60
  -6   0  -3   -1.90    1.80
   7   0   3    2.80    2.30
   7   0   3   -1.40    1.70
   8   0   3   -0.70    3.10
   8   0   3   -1.70    2.10
   9  -1  -3    3.10    2.50
   9  -1  -3    4.60    1.80
   9   1  -3    0.30    1.80
   9   1  -3    2.40    2.00
   8  -1  -3    1.30    2.10
   8  -1  -3    1.10    1.80
   8  -1  -3   -0.20    2.10
   8   1  -3    0.00    1.90
   8   1  -3   -1.60    1.60
   7  -1  -3    0.20    1.80
   7  -1  -3    0.50    1.40
   7  -1  -3    2.10    1.60
   7  -1  -3   -1.20    1.50
   7   1  -3    2.40    1.70
   7   1  -3    0.20    1.50
   7   1  -3    0.90    1.60
   6  -1  -3    3.70    1.90
   6  -1  -3    4.80    1.80
   6   1  -3    2.50    1.60
   6   1  -3    5.00    1.70
   5  -1  -3   16.80    2.80
   5  -1  -3   21.10    3.20
   5   1  -3   18.10    2.50
   5   1  -3   17.90    2.90
  -4  -1   3  289.47   16.10
   4  -1  -3  293.67   16.50
   4  -1  -3  293.07   16.20
  -4   1   3  284.37   16.30
   4   1  -3  284.07   15.90
   4   1  -3  287.77   16.30
   3  -1  -3   27.90    2.90
  -3  -1   3   27.90    2.60
   3  -1  -3   26.10    2.60
   3   1  -3   24.50    2.70
   3   1  -3   27.50    2.40
  -3   1   3   26.40    2.70
  -2  -1   3   30.40    2.40
  -2  -1   3   25.40    2.50
   2  -1  -3   26.80    2.40
   2  -1  -3   29.10    2.20
   2  -1  -3   28.40    2.70
   2   1  -3   30.50    2.30
   2   1  -3   26.20    2.70
  -2   1   3   29.90    2.50
   2   1  -3   27.60    2.30
   1  -1  -3    1.00    0.70
   1  -1  -3    0.60    0.70
  -1  -1   3    0.40    0.80
  -1  -1   3    1.70    0.70
  -1  -1   3    0.40    0.80
   1  -1  -3    1.10    0.70
  -1   1   3    1.20    0.70
   1   1  -3    1.40    0.70
  -1   1   3    1.90    0.70
   1   1  -3    0.10    0.70
   1   1  -3    1.70    0.70
   0  -1  -3 1526.45   77.69
   0  -1  -3 1586.54   77.89
   0  -1   3 1600.24   77.89
   0  -1   3 1442.36   77.89
   0  -1  -3 1446.36   77.79
   0  -1   3 1465.95   77.99
   0  -1   3 1538.55   77.89
   0  -1  -3 1507.05   77.99
   0   1   3 1492.45   77.79
   0   1   3 1650.63   77.89
   0   1  -3 1560.34   77.99
   0   1   3 1533.45   77.99
   0   1  -3 1525.15   77.79
  -1  -1  -3 1009.60   53.49
  -1  -1  -3 1062.99   53.09
   1  -1   3 1005.80   54.79
   1  -1   3 1024.00   53.69
   1  -1   3 1016.60   52.89
   1   1   3 1027.30   54.99
   1   1   3 1091.79   53.29
  -1   1  -3 1035.10   53.49
  -1   1  -3 1054.69   52.99
   1   1   3 1013.30   53.19
  -1   1  -3 1074.59   52.99
  -2  -1  -3  431.56   22.20
   2  -1   3  391.56   22.00
  -2  -1  -3  398.06   21.40
   2  -1   3  421.36   22.60
  -2   1  -3  401.16   22.00
   2   1   3  410.36   22.10
   2   1   3  412.46   21.50
   3  -1   3  208.38   12.60
  -3  -1  -3  218.08   12.70
   3  -1   3  221.78   13.40
  -3   1  -3  214.78   12.50
   3   1   3  217.38   12.70
   4  -1   3    2.10    1.50
   4  -1   3    3.00    1.60
   4   1   3    2.80    1.70
  -4   1  -3    1.00    1.20
   4   1   3    3.20    1.50
   5  -1   3   44.80    5.40
  -5  -1  -3   42.50    4.40
   5  -1   3   42.80    4.40
   5   1   3   40.00    4.40
  -5   1  -3   38.60    4.30
   5   1   3   45.60    5.40
   6  -1   3    2.30    1.60
   6  -1   3    0.00    2.00
   6   1   3   -1.00    2.30
  -6   1  -3   -1.60    1.90
   6   1   3    2.70    2.20
   7  -1   3   15.80    4.10
   7  -1   3   14.30    2.80
   7   1   3   14.80    3.80
   7   1   3   15.00    2.90
   8  -1   3    0.60    2.80
   8  -1   3   -3.50    2.00
   8   1   3    2.50    2.30
   8   1   3   -1.50    2.90
   9  -2  -3    1.70    2.10
   9  -2  -3    6.10    2.30
   9   2  -3    2.40    1.80
   9   2  -3    3.30    1.50
   8  -2  -3   27.00    4.20
   8  -2  -3   22.10    4.00
   8  -2  -3   28.40    4.70
   8   2  -3   23.80    3.70
   8   2  -3   31.40    4.00
   8   2  -3   23.60    4.10
   7  -2  -3    3.30    2.00
   7  -2  -3    6.00    2.00
   7  -2  -3    8.90    2.40
   7   2  -3    5.80    1.90
   7   2  -3    6.20    2.00
   7   2  -3    8.70    2.30
   7   2  -3    7.30    1.60
   6  -2  -3    8.60    2.50
   6  -2  -3    8.10    2.50
   6  -2  -3    8.50    2.10
   6   2  -3    6.90    2.20
   6   2  -3    7.50    1.80
   6   2  -3    9.40    2.20
   6   2  -3    8.20    2.00
   5  -2  -3    0.20    1.10
   5  -2  -3   -0.90    1.10
   5   2  -3    0.40    1.30
  -5   2   3   -1.40    1.10
   5   2  -3    0.30    1.10
   4  -2  -3  137.19    8.60
  -4  -2   3  128.59    8.20
   4   2  -3  133.39    8.50
  -4   2   3  136.19    8.70
   4   2  -3  138.59    8.10
  -3  -2   3   71.89    5.10
   3  -2  -3   66.39    4.80
  -3  -2   3   65.89    4.60
   3   2  -3   66.79    4.40
   3   2  -3   72.49    4.90
  -3   2   3   69.29    4.90
  -2  -2   3   10.70    1.40
   2  -2  -3    8.70    2.10
  -2  -2   3    9.20    1.60
   2   2  -3   11.30    1.40
  -2   2   3   12.00    1.70
  -2   2   3    9.50    1.30
   2   2  -3   10.90    1.50
   1  -2  -3  197.88   11.00
   1  -2  -3  204.78   11.40
   1  -2  -3  188.78   11.10
  -1  -2   3  203.98   11.30
  -1  -2   3  221.68   11.10
  -1  -2   3  196.88   11.20
   1  -2  -3  219.08   11.40
  -1   2   3  204.68   11.00
   1   2  -3  202.98   11.30
   1   2  -3  195.68   11.00
  -1   2   3  203.18   11.20
   1   2  -3  215.78   11.30
   0  -2  -3   69.89    4.30
   0  -2   3   69.19    4.60
   0  -2   3   69.79    4.50
   0  -2   3   68.59    4.60
   0  -2  -3   73.19    4.50
   0  -2  -3   69.49    4.40
   0  -2   3   73.69    4.50
   0   2   3   71.79    4.60
   0   2  -3   74.69    4.60
   0   2  -3   69.59    4.50
   0   2   3   77.89    4.50
   1  -2   3  156.08    9.60
   1  -2   3  168.68    9.10
   1  -2   3  153.58    9.80
  -1  -2  -3  173.38    9.20
  -1  -2  -3  169.68    9.60
   1   2   3  162.28    9.70
   1   2   3  153.58    9.20
  -1   2  -3  164.68    9.50
  -1   2  -3  176.38    9.20
   1   2   3  174.78    9.30
  -2  -2  -3  162.68    9.00
   2  -2   3  170.48    8.90
  -2  -2  -3  159.18    9.60
   2  -2   3  150.78    9.40
   2  -2   3  162.68   10.00
   2   2   3  159.18    9.60
   2   2   3  166.28    9.20
   2   2   3  148.69    9.00
  -2   2  -3  165.38    9.50
  -2   2  -3  157.08    9.00
  -3  -2  -3   98.49    6.10
  -3  -2  -3  105.29    7.00
   3  -2   3   99.59    7.40
   3  -2   3   94.99    6.70
   3   2   3  100.09    6.90
  -3   2  -3   99.19    6.60
   3   2   3  101.99    6.20
  -4  -2  -3   48.60    4.60
   4  -2   3   56.39    5.30
   4  -2   3   51.29    4.50
   4   2   3   49.10    4.60
  -4   2  -3   49.40    4.40
   4   2   3   49.20    5.10
   5  -2   3   11.90    3.10
   5  -2   3   10.30    2.40
  -5  -2  -3   15.70    3.00
  -5   2  -3   13.70    2.70
   5   2   3   17.70    3.00
   5   2   3   10.60    2.90
   6  -2   3   83.79    7.70
   6  -2   3   83.69    6.60
   6   2   3   77.69    6.70
  -6   2  -3   79.29    6.70
   6   2   3   82.29    7.70
   7  -2   3   -0.40    1.70
   7  -2   3    1.60    2.50
   7   2   3    1.90    1.90
   7   2   3   -3.30    2.10
   9  -3  -3    6.20    2.70
   9  -3  -3   18.10    3.60
   9   3  -3   11.70    2.30
   8  -3  -3   28.40    4.30
   8  -3  -3   20.90    4.00
   8  -3  -3   27.10    4.30
   8   3  -3   25.90    3.40
   8   3  -3   28.10    5.40
   8   3  -3   31.90    4.10
   7  -3  -3    1.30    1.50
   7  -3  -3   -0.20    2.60
   7  -3  -3    1.30    1.80
   7   3  -3    1.20    1.30
   7   3  -3    0.40    1.40
   7   3  -3    1.50    1.60
   6  -3  -3   59.39    6.00
   6  -3  -3   75.79    5.70
   6   3  -3   72.29    5.70
  -6   3   3   73.49    6.00
   6   3  -3   58.99    5.40
   6   3  -3   65.99    5.50
   6   3  -3   71.09    5.80
   5  -3  -3  130.09    8.10
   5  -3  -3  130.59    8.70
   5   3  -3  127.89    8.30
   5   3  -3  128.99    8.50
  -5   3   3  124.29    8.20
  -4  -3   3   14.20    2.20
   4  -3  -3   12.40    2.30
   4  -3  -3   15.10    2.20
   4   3  -3   12.10    2.30
  -4   3   3   12.90    2.30
  -4   3   3   13.80    2.60
  -3  -3   3   15.90    1.90
   3  -3  -3   14.80    2.30
  -3  -3   3   14.90    2.20
   3  -3  -3   13.50    1.90
  -3   3   3   14.20    2.20
  -3   3   3   14.00    2.00
   3   3  -3   17.10    2.30
   3   3  -3   13.70    1.70
   2  -3  -3   18.40    2.20
   2  -3  -3   18.00    2.00
  -2  -3   3   18.90    1.80
   2  -3  -3   18.10    2.00
  -2  -3   3   18.20    2.10
  -2   3   3   17.20    2.20
   2   3  -3   20.10    2.20
   2   3  -3   21.90    2.10
   2   3  -3   19.60    1.80
  -2   3   3   19.90    2.00
   1  -3  -3   19.40    2.00
   1  -3  -3   21.80    2.10
  -1  -3   3   23.10    2.10
   1  -3  -3   20.90    1.80
  -1  -3   3   21.50    1.80
   1   3  -3   20.90    2.10
   1   3  -3   21.20    2.10
  -1   3   3   20.10    1.90
  -1   3   3   20.00    2.10
  -1   3   3   18.90    2.00
   1   3  -3   20.30    1.80
   0  -3  -3   72.29    4.70
   0  -3  -3   77.59    4.70
   0  -3   3   68.59    4.70
   0  -3  -3   72.29    4.50
   0  -3   3   74.19    4.60
   0  -3   3   69.39    4.80
   0  -3   3   76.49    4.50
   0   3  -3   66.39    4.50
   0   3  -3   76.79    4.80
   0   3   3   74.09    4.60
   0   3   3   73.39    4.70
   0   3  -3   70.39    4.70
   0   3   3   66.09    4.70
  -1  -3  -3  348.77   19.30
   1  -3   3  343.67   19.20
   1  -3   3  367.96   19.00
  -1  -3  -3  373.96   19.10
   1  -3   3  369.26   20.90
  -1   3  -3  354.16   19.00
  -1   3  -3  366.06   19.30
   1   3   3  330.57   19.00
   1   3   3  343.27   19.30
   1   3   3  381.76   19.00
   2  -3   3   60.19    5.10
  -2  -3  -3   65.29    4.40
   2  -3   3   70.29    4.40
  -2  -3  -3   66.19    4.90
   2  -3   3   63.39    4.80
  -2   3  -3   65.99    4.40
   2   3   3   68.99    4.40
  -2   3  -3   65.39    4.70
   2   3   3   62.39    5.00
   3  -3   3   54.19    4.50
  -3  -3  -3   59.69    4.90
   3  -3   3   63.69    4.20
  -3  -3  -3   56.49    4.20
   3  -3   3   51.69    5.10
   3   3   3   57.09    4.20
   3   3   3   62.59    5.00
  -3   3  -3   55.89    4.40
   3   3   3   60.19    4.20
   4  -3   3   19.70    3.40
  -4  -3  -3   16.60    2.90
   4  -3   3   17.10    2.50
  -4  -3  -3   16.40    2.30
   4  -3   3   15.90    2.70
   4   3   3   18.10    2.90
   4   3   3   16.90    2.30
  -4   3  -3   17.50    2.90
  -5  -3  -3   72.69    5.50
   5  -3   3   86.59    7.70
   5  -3   3   79.99    6.10
  -5  -3  -3   79.39    6.50
   5   3   3   85.39    6.60
   5   3   3   78.19    7.10
  -5   3  -3   79.19    6.10
   6  -3   3   -1.20    1.90
   6  -3   3    0.60    1.70
  -6   3  -3    1.40    1.80
   6   3   3    2.80    1.90
   6   3   3   -1.80    1.90
   7  -3   3    8.00    2.30
   7  -3   3    5.80    2.80
   7   3   3    7.50    2.60
   7   3   3    9.80    3.40
   9  -4  -3    1.60    2.40
   9  -4  -3    2.40    2.20
   9  -4  -3    1.90    2.30
   9   4  -3    0.50    1.60
   9   4  -3    0.50    1.90
   8  -4  -3   85.39    7.40
   8  -4  -3   77.79    7.10
   8  -4  -3   73.69    7.40
   8   4  -3   77.19    6.30
   8   4  -3   95.99    7.00
   8   4  -3   77.39    6.70
   7  -4  -3   -0.20    1.70
   7  -4  -3    1.80    1.80
   7   4  -3    1.20    1.70
   7   4  -3   -0.70    1.30
   7   4  -3    1.90    1.60
   6  -4  -3    1.00    1.70
   6  -4  -3   -1.70    1.70
   6   4  -3    0.20    1.40
   6   4  -3   -0.70    1.30
  -6   4   3   -2.20    1.90
   5  -4  -3   61.89    4.80
   5  -4  -3   56.19    5.10
  -5   4   3   52.59    4.80
   5   4  -3   58.09    4.80
   5   4  -3   59.29    4.90
   4  -4  -3  170.98   10.20
   4  -4  -3  180.48   10.10
  -4  -4   3  174.18   10.60
   4  -4  -3  167.78   10.60
  -4   4   3  176.98   10.90
   4   4  -3  169.28   10.60
   4   4  -3  171.08   10.30
  -4   4   3  167.88   10.20
   3  -4  -3   29.50    3.20
  -3  -4   3   32.40    3.10
   3  -4  -3   31.20    2.90
   3  -4  -3   28.80    2.90
   3   4  -3   32.70    3.10
  -3   4   3   29.20    2.90
  -3   4   3   34.60    3.40
   2  -4  -3    0.10    0.80
   2  -4  -3   -0.50    0.90
  -2  -4   3   -0.40    0.60
   2  -4  -3    0.50    0.90
   2   4  -3   -0.30    0.80
  -2   4   3    0.20    0.80
  -2   4   3    0.60    0.90
  -1  -4   3 1404.96   71.79
  -1  -4   3 1456.85   71.39
   1  -4  -3 1496.85   71.89
   1  -4  -3 1389.96   71.49
   1   4  -3 1437.06   71.79
   1   4  -3 1387.26   71.99
  -1   4   3 1417.26   71.79
  -1   4   3 1234.48   71.99
  -1   4   3 1371.86   71.39
  -1   4   3 1426.36   71.79
   0  -4   3   11.60    1.90
   0  -4   3   12.00    1.70
   0  -4  -3   13.20    1.70
   0  -4  -3   14.10    1.90
   0  -4  -3   13.20    1.70
   0  -4   3   13.20    1.80
   0   4   3   11.90    1.90
   0   4  -3   11.20    2.00
   0   4   3   15.80    1.90
   0   4  -3   15.30    1.90
   0   4  -3   14.80    1.80
   0   4   3   12.40    1.70
   1  -4   3 2408.56  114.69
  -1  -4  -3 2266.47  114.99
  -1  -4  -3 2216.98  114.59
  -1  -4  -3 2345.07  114.69
   1  -4   3 1978.60  114.69
   1  -4   3 2204.18  115.09
   1   4   3 2165.88  114.69
   1   4   3 2487.05  114.59
  -1   4  -3 2290.77  114.79
  -1   4  -3 2206.98  115.09
   1   4   3 2210.98  114.99
   2  -4   3  127.59    8.40
  -2  -4  -3  125.29    7.60
  -2  -4  -3  128.89    8.10
   2  -4   3  139.49    7.60
   2  -4   3  122.59    7.80
  -2   4  -3  122.39    8.40
   2   4   3  134.59    7.50
  -2   4  -3  121.29    7.60
   2   4   3  119.59    7.60
   2   4   3  125.09    8.10
  -2   4  -3  126.39    7.80
   3  -4   3  219.38   11.40
  -3  -4  -3  187.68   11.30
  -3  -4  -3  194.98   12.00
   3  -4   3  182.38   11.50
   3  -4   3  192.58   12.40
   3   4   3  185.78   11.30
   3   4   3  203.28   12.00
  -3   4  -3  203.68   11.60
   3   4   3  207.18   11.20
  -4  -4  -3   15.30    2.40
   4  -4   3   13.80    3.00
   4  -4   3   18.50    2.90
   4  -4   3   17.90    2.70
  -4  -4  -3   20.40    2.90
   4   4   3   20.40    2.60
   4   4   3   13.40    2.60
  -4   4  -3   17.70    2.90
   4   4   3   18.30    2.50
   5  -4   3    0.70    3.00
  -5  -4  -3   -0.40    1.40
   5  -4   3   -0.40    1.40
   5   4   3    1.60    1.70
  -5   4  -3    0.30    1.50
   5   4   3   -1.20    1.10
   6  -4   3   35.40    5.30
   6  -4   3   37.60    4.40
   6   4   3   42.80    4.70
   6   4   3   39.30    5.40
  -6   4  -3   32.40    4.40
   7  -4   3    0.00    1.80
   7  -4   3   -1.10    2.30
   7   4   3    1.90    2.10
   7   4   3    0.20    2.50
   9  -5  -3    1.50    2.10
   9   5  -3    0.50    2.10
   8  -5  -3   12.50    3.60
   8   5  -3   19.30    3.50
   8   5  -3   10.60    3.10
   8   5  -3   16.10    3.00
   7  -5  -3    3.40    1.80
   7  -5  -3    0.40    1.60
   7   5  -3   -1.90    1.20
   7   5  -3   -1.00    1.90
   7   5  -3    0.50    1.30
   6  -5  -3    1.30    1.40
   6  -5  -3    1.70    1.70
   6  -5  -3   -1.80    1.70
   6   5  -3   -0.60    1.30
  -6   5   3   -4.10    2.70
   6   5  -3    0.20    1.50
   5  -5  -3    0.80    1.60
   5  -5  -3    0.00    1.30
   5  -5  -3    0.20    1.10
  -5   5   3   -0.80    1.40
   5   5  -3   -0.30    1.10
   5   5  -3    1.00    1.30
  -4  -5   3   83.09    6.10
   4  -5  -3   83.99    6.30
   4  -5  -3   88.09    5.70
   4  -5  -3   79.79    5.90
  -4   5   3   81.79    6.00
   4   5  -3   85.89    6.20
  -4   5   3   84.99    6.50
   4   5  -3   88.49    6.00
   3  -5  -3   58.89    4.60
  -3  -5   3   62.29    4.80
   3  -5  -3   69.09    4.60
   3  -5  -3   68.29    5.10
   3   5  -3   66.89    4.80
  -3   5   3   61.19    5.00
   3   5  -3   64.79    5.00
  -3   5   3   65.59    4.80
   2  -5  -3   23.10    2.40
  -2  -5   3   20.10    2.40
   2  -5  -3   20.00    2.50
  -2   5   3   19.70    2.50
  -2   5   3   21.70    2.50
   2   5  -3   20.00    2.40
  -1  -5   3  314.67   15.80
   1  -5  -3  293.87   15.90
   1  -5  -3  287.07   16.10
   1  -5  -3  322.57   16.40
  -1  -5   3  284.07   15.90
  -1  -5   3  298.97   16.30
  -1   5   3  299.97   16.30
  -1   5   3  279.07   16.20
  -1   5   3  313.27   16.40
   1   5  -3  267.07   16.20
  -1   5   3  302.47   15.90
   1   5  -3  323.67   16.40
   0  -5  -3  683.83   35.10
   0  -5   3  700.13   35.00
   0  -5  -3  618.04   35.10
   0  -5  -3  742.03   35.20
   0  -5   3  677.43   35.10
   0   5  -3  722.43   35.20
   0   5   3  703.23   34.90
   0   5  -3  602.74   34.90
   0   5   3  602.94   35.00
   0   5   3  651.03   35.10
   0   5  -3  680.83   35.10
  -1  -5  -3   56.69    4.30
   1  -5   3   47.80    4.20
   1  -5   3   52.89    4.40
  -1  -5  -3   56.99    4.20
  -1  -5  -3   56.79    4.00
   1  -5   3   61.69    4.10
  -1   5  -3   57.39    4.20
  -1   5  -3   54.59    4.60
   1   5   3   51.99    4.20
   1   5   3   54.49    4.30
  -1   5  -3   55.19    3.70
  -1   5  -3   56.49    4.10
   1   5   3   59.59    3.90
  -2  -5  -3  286.47   16.10
  -2  -5  -3  282.07   15.60
   2  -5   3  310.17   15.70
   2  -5   3  266.27   15.70
   2  -5   3  268.97   16.20
  -2   5  -3  288.47   16.40
   2   5   3  283.37   16.10
   2   5   3  309.77   15.40
  -2   5  -3  279.77   15.70
   2   5   3  249.48   15.50
   3  -5   3    2.20    1.70
   3  -5   3    3.20    1.40
   3  -5   3    1.50    1.40
  -3  -5  -3    2.90    1.30
   3   5   3    1.50    1.50
  -3   5  -3    2.30    1.30
   3   5   3    2.10    1.20
   3   5   3    3.50    1.20
   4  -5   3    1.30    1.40
  -4  -5  -3   -0.50    1.10
   4  -5   3    0.30    1.10
   4  -5   3   -0.20    1.60
   4   5   3   -0.90    1.10
   4   5   3    1.40    1.30
   4   5   3    0.80    1.50
  -4   5  -3   -0.90    1.20
   5  -5   3    6.10    1.90
   5  -5   3    8.10    1.90
   5  -5   3    3.00    2.20
  -5  -5  -3    3.80    1.90
   5   5   3    3.80    2.50
  -5   5  -3    8.50    2.40
   5   5   3    5.40    1.60
   5   5   3    7.40    2.30
   6  -5   3    2.60    1.80
   6  -5   3    4.70    2.60
   6  -5   3    3.00    2.00
  -6  -5  -3    5.00    1.90
   6   5   3    3.80    2.60
   6   5   3    5.30    1.70
  -6   5  -3    7.90    2.30
   6   5   3    4.10    1.90
   7  -5   3    0.50    2.50
   7  -5   3   -0.40    1.80
   7   5   3    1.90    2.20
   7   5   3   -2.30    2.20
   8  -6  -3   -0.90    2.10
   8  -6  -3    2.90    2.20
   8   6  -3    2.00    1.90
   8   6  -3    1.20    1.60
   8   6  -3    4.40    1.90
   7  -6  -3    4.90    2.10
   7  -6  -3    3.20    2.00
  -7   6   3    2.70    2.70
   7   6  -3    2.80    1.60
   7   6  -3    2.90    1.70
   7   6  -3    2.60    1.80
   6  -6  -3   -2.30    1.30
   6  -6  -3   -1.10    2.40
   6  -6  -3   -0.10    1.50
   6   6  -3    1.60    1.60
   6   6  -3   -1.70    1.30
  -6   6   3   -3.50    2.00
   5  -6  -3   32.20    3.90
   5  -6  -3   36.40    4.30
  -5  -6   3   34.00    4.90
   5  -6  -3   34.20    3.50
   5   6  -3   40.40    4.10
   5   6  -3   37.50    3.70
  -5   6   3   34.20    4.20
   4  -6  -3   93.49    6.70
   4  -6  -3   97.19    7.20
  -4  -6   3   98.79    6.90
   4  -6  -3  110.49    6.60
  -4   6   3   97.69    7.00
   4   6  -3  100.49    7.10
  -4   6   3   99.49    8.20
   4   6  -3  100.19    6.70
   3  -6  -3  109.89    7.50
   3  -6  -3  116.89    7.80
  -3  -6   3  117.19    7.60
   3  -6  -3  132.49    7.50
   3   6  -3  119.49    7.60
  -3   6   3  120.99    8.00
   3   6  -3  117.69    7.80
  -3   6   3  121.39    7.70
   2  -6  -3  256.27   13.30
   2  -6  -3  227.38   13.30
   2  -6  -3  216.18   13.20
  -2  -6   3  235.48   13.30
   2   6  -3  239.78   13.50
  -2   6   3  248.78   13.50
   2   6  -3  220.98   13.20
  -2   6   3  235.38   13.50
   1  -6  -3  551.04   27.30
   1  -6  -3  495.05   27.10
  -1  -6   3  514.25   27.30
  -1  -6   3  513.85   27.00
  -1  -6   3  535.55   26.80
  -1   6   3  537.75   27.50
  -1   6   3  524.35   27.00
   1   6  -3  471.95   27.20
  -1   6   3  456.05   27.20
   1   6  -3  547.75   27.50
   1   6  -3  514.25   27.40
   1   6  -3  511.45   27.10
  -1   6   3  528.15   27.40
   0  -6  -3    2.20    1.10
   0  -6   3    1.30    1.30
   0  -6   3    0.10    1.00
   0  -6  -3    3.20    1.00
   0   6  -3    2.30    0.90
   0   6   3    1.40    1.00
   0   6   3    2.10    1.00
   0   6  -3    0.70    1.00
   0   6  -3    1.50    1.10
   0   6  -3    1.90    1.10
   0   6   3    2.00    0.90
   1  -6   3 1126.89   61.19
   1  -6   3 1286.37   61.19
  -1  -6  -3 1251.87   61.29
   1  -6   3 1188.08   61.59
   1   6   3 1174.18   61.39
  -1   6  -3 1187.68   61.59
  -1   6  -3 1184.38   60.69
  -1   6  -3 1257.67   61.29
   1   6   3 1241.28   60.79
  -1   6  -3 1107.79   61.09
   1   6   3 1043.80   61.09
   2  -6   3   15.30    2.40
   2  -6   3   19.10    2.30
  -2  -6  -3   17.00    2.30
   2  -6   3   15.40    2.80
   2   6   3   16.10    2.40
   2   6   3   20.30    2.10
  -2   6  -3   17.80    2.40
   2   6   3   15.80    2.70
  -2   6  -3   19.20    3.10
  -3  -6  -3   15.20    2.50
   3  -6   3   19.40    2.70
   3  -6   3   14.00    2.60
   3  -6   3   14.10    2.80
   3   6   3   19.20    2.40
  -3   6  -3   17.90    2.60
  -3   6  -3   14.20    3.00
   3   6   3   16.10    2.90
   3   6   3   16.90    2.70
   4  -6   3   10.40    2.10
  -4  -6  -3   10.50    2.20
   4  -6   3    6.80    1.80
   4  -6   3    9.20    2.40
  -4   6  -3   13.10    3.50
  -4   6  -3   12.00    3.30
   4   6   3   13.20    2.00
   4   6   3   11.50    2.10
   4   6   3   11.50    2.50
   5  -6   3   10.10    2.20
  -5  -6  -3   10.30    2.60
   5  -6   3    8.80    2.90
  -5   6  -3   10.70    2.50
   5   6   3   11.90    2.80
   5   6   3   12.20    2.10
   5   6   3   10.10    2.20
   6  -6   3   18.00    3.30
  -6  -6  -3   12.50    3.10
   6  -6   3   10.00    3.10
   6  -6   3   12.20    2.90
  -6   6  -3   18.10    3.20
   6   6   3   20.40    3.20
   6   6   3   18.90    3.30
   7  -6   3    0.70    2.50
   7   6   3    1.20    1.90
   7   6   3   -1.00    2.00
   8  -7  -3    3.70    2.40
   8  -7  -3    9.20    2.70
  -8   7   3   10.40    5.50
   8   7  -3    6.70    1.80
   7  -7  -3    8.90    2.60
   7  -7  -3    5.40    2.20
   7   7  -3    4.00    2.10
   7   7  -3    3.80    1.60
   6  -7  -3    3.40    1.90
   6  -7  -3    3.30    1.60
   6  -7  -3    1.60    1.90
   6   7  -3    5.50    1.60
  -6   7   3    2.90    2.30
   6   7  -3    5.70    2.00
   5  -7  -3  107.69    8.10
  -5  -7   3  109.89    8.10
   5  -7  -3  102.09    7.70
   5  -7  -3  120.99    7.40
   5   7  -3  111.89    7.50
   5   7  -3  110.49    7.90
   4  -7  -3   67.59    5.70
   4  -7  -3   63.59    5.40
  -4  -7   3   66.99    5.50
   4  -7  -3   74.89    5.20
   4   7  -3   65.49    5.60
   4   7  -3   69.69    5.30
  -4   7   3   70.59    5.70
  -4   7   3   66.69    5.70
   3  -7  -3   78.39    6.00
   3  -7  -3   84.39    6.20
  -3  -7   3   86.09    6.10
   3  -7  -3   96.89    6.00
   3   7  -3   85.09    6.30
   3   7  -3   82.79    6.00
  -3   7   3   88.39    6.50
  -3   7   3   88.89    6.30
  -2  -7   3    5.80    1.50
   2  -7  -3    6.60    1.50
   2  -7  -3    4.40    1.30
   2  -7  -3    5.70    1.60
   2   7  -3    4.00    1.30
  -2   7   3    4.40    1.40
   2   7  -3    4.80    1.50
  -2   7   3    5.70    1.60
  -2   7   3    4.80    1.30
   1  -7  -3   22.10    2.50
  -1  -7   3   16.70    2.40
   1  -7  -3   22.50    2.40
  -1  -7   3   17.40    2.30
   1   7  -3   19.00    2.40
  -1   7   3   20.10    2.40
  -1   7   3   18.30    2.40
  -1   7   3   20.40    2.60
  -1   7   3   24.30    2.20
   1   7  -3   20.50    2.60
   1   7  -3   16.10    2.40
   1   7  -3   17.80    2.30
   0  -7  -3  275.17   15.30
   0  -7   3  294.47   15.70
   0  -7  -3  292.37   15.60
   0  -7   3  265.77   15.60
   0   7   3  286.87   15.50
   0   7   3  307.67   16.00
   0   7  -3  258.47   15.60
   0   7   3  245.38   15.60
   0   7  -3  308.77   15.90
   0   7  -3  276.17   15.40
   0   7  -3  285.97   15.80
   0   7   3  284.17   15.60
  -1  -7  -3  184.98   11.00
  -1  -7  -3  208.08   11.50
   1  -7   3  213.88   11.50
   1  -7   3  195.98   11.80
  -1   7  -3  181.18   11.50
   1   7   3  210.78   11.10
  -1   7  -3  210.58   11.60
  -1   7  -3  201.48   12.00
  -1   7  -3  192.78   10.90
   1   7   3  183.48   11.50
   1   7   3  193.78   11.70
   2  -7   3   20.20    3.10
  -2  -7  -3   19.10    2.50
   2  -7   3   16.60    2.70
   2  -7   3   24.90    2.70
  -2   7  -3   20.90    3.20
  -2   7  -3   16.50    2.40
   2   7   3   17.10    2.80
   2   7   3   15.00    2.50
   3  -7   3   64.49    5.10
  -3  -7  -3   66.69    5.20
   3  -7   3   63.79    5.90
   3  -7   3   73.29    5.30
   3   7   3   63.79    5.70
  -3   7  -3   64.19    5.00
   3   7   3   64.79    5.30
  -3   7  -3   65.89    6.10
   4  -7   3   46.30    5.40
  -4  -7  -3   41.90    4.50
   4  -7   3   50.89    4.40
   4  -7   3   53.99    4.80
  -4   7  -3   52.39    5.90
   4   7   3   50.49    5.20
   4   7   3   50.19    4.70
  -4   7  -3   48.80    5.10
   5  -7   3    5.00    1.60
   5  -7   3    2.60    2.00
  -5  -7  -3    2.00    1.70
   5  -7   3    0.40    2.00
   5   7   3    1.90    1.60
  -5   7  -3    5.30    1.90
   5   7   3    0.30    1.80
   6  -7   3    7.60    2.40
  -6  -7  -3    6.30    2.90
   6  -7   3   10.60    2.30
   6  -7   3    9.10    2.90
  -6   7  -3   14.10    2.90
   6   7   3    5.80    2.40
   6   7   3    9.40    2.30
   7  -7   3   -3.00    2.20
   7  -7   3    1.60    1.60
   7  -7   3    3.70    3.60
   7   7   3    3.70    3.00
   7   7   3    1.50    2.20
   7   7   3    0.70    2.00
   8  -8  -3    8.00    3.00
   8  -8  -3    3.70    2.50
   8   8  -3    7.10    2.60
   8   8  -3    1.90    2.40
   8   8  -3    7.00    1.60
   7  -8  -3   11.10    3.00
   7  -8  -3    8.80    2.70
   7   8  -3    8.10    2.70
   7   8  -3   10.80    2.20
   7   8  -3   12.80    2.60
   6  -8  -3   33.00    4.30
   6  -8  -3   28.40    4.40
   6  -8  -3   33.90    3.80
   6   8  -3   34.30    3.80
  -6   8   3   34.00    4.70
   6   8  -3   34.70    4.20
  -5  -8   3    9.40    2.30
   5  -8  -3    9.80    2.50
   5  -8  -3   15.40    2.90
   5  -8  -3   10.30    2.40
   5   8  -3    8.50    2.00
   5   8  -3   11.00    2.40
  -5   8   3   16.50    3.30
   4  -8  -3   58.39    4.50
   4  -8  -3   52.59    5.10
  -4  -8   3   54.89    5.10
   4  -8  -3   48.50    4.70
  -4   8   3   61.59    5.30
   4   8  -3   49.99    4.50
  -4   8   3   58.79    5.40
   4   8  -3   51.89    4.90
   3  -8  -3    0.80    1.20
  -3  -8   3    0.40    1.10
   3  -8  -3    1.70    1.40
   3  -8  -3    0.70    1.30
   3   8  -3    1.20    1.10
  -3   8   3   -2.30    1.20
  -3   8   3   -1.20    1.30
   3   8  -3    0.30    1.30
   2  -8  -3   22.40    2.80
  -2  -8   3   21.00    2.70
   2  -8  -3   21.90    3.00
   2  -8  -3   27.40    2.90
   2   8  -3   22.80    2.80
  -2   8   3   20.30    2.70
   2   8  -3   21.20    2.70
  -2   8   3   23.70    3.00
   2   8  -3   26.40    2.60
  -2   8   3   26.10    3.20
  -1  -8   3    1.20    1.00
  -1  -8   3   -0.20    0.90
   1  -8  -3    0.50    1.00
   1  -8  -3    1.50    1.10
  -1   8   3   -0.10    1.00
   1   8  -3   -0.10    0.90
  -1   8   3    1.90    1.10
   1   8  -3   -0.10    0.80
   1   8  -3    0.40    1.00
  -1   8   3    1.50    1.50
   1   8  -3    2.00    1.10
  -1   8   3    0.30    1.10
   0  -8   3   44.30    3.80
   0  -8   3   48.00    3.90
   0  -8  -3   43.60    3.40
   0  -8  -3   44.70    3.70
   0   8  -3   42.10    3.80
   0   8  -3   46.60    4.00
   0   8   3   45.60    3.60
   0   8   3   45.60    3.80
   0   8   3   38.00    3.80
   0   8   3   49.80    4.20
   0   8  -3   45.40    3.90
   0   8  -3   45.60    3.60
  -1  -8  -3   27.00    3.00
   1  -8   3   28.00    2.90
  -1  -8  -3   24.80    2.40
   1  -8   3   24.90    3.20
   1   8   3   24.90    3.00
  -1   8  -3   23.30    2.60
   1   8   3   20.70    2.90
  -1   8  -3   27.90    3.40
  -1   8  -3   23.50    3.00
  -1   8  -3   28.50    3.00
   2  -8   3  100.59    7.70
  -2  -8  -3  107.09    7.20
   2  -8   3  119.49    7.30
  -2   8  -3  112.59    7.10
   2   8   3   95.09    7.20
   2   8   3  107.29    7.60
  -2   8  -3  108.49    8.90
   3  -8   3  162.58   10.00
  -3  -8  -3  159.48   10.10
   3  -8   3  175.48   10.20
   3  -8   3  154.28   10.80
   3   8   3  155.08   10.50
  -3   8  -3  165.18   11.20
  -3   8  -3  163.08    9.90
   3   8   3  147.29   10.10
   4  -8   3   70.79    8.00
   4  -8   3   83.69    6.20
  -4  -8  -3   66.59    5.80
   4  -8   3   77.09    5.90
  -4   8  -3   75.79    5.80
   4   8   3   69.59    6.10
   4   8   3   83.19    7.60
  -5  -8  -3   76.29    6.90
   5  -8   3   94.69    6.80
   5  -8   3   84.59    7.80
   5  -8   3  100.09    7.20
  -5   8  -3   91.29    6.70
   5   8   3   90.09    7.60
   5   8   3   88.79    7.00
   6  -8   3   57.19    6.50
   6  -8   3   56.49    5.70
   6  -8   3   51.69    5.20
  -6   8  -3   65.99    5.40
   6   8   3   60.69    6.10
   6   8   3   44.30    8.10
   7  -8   3   -0.60    3.50
   7  -8   3    2.50    2.90
   7   8   3   -0.20    2.00
   7   8   3    5.20    2.70
   7   8   3   -3.20    2.60
   8  -9  -3    8.70    2.60
   8  -9  -3    3.40    4.40
   8   9  -3    5.70    1.90
   8   9  -3    6.50    2.70
   8   9  -3    2.40    2.40
   7  -9  -3   -0.70    2.00
   7  -9  -3    1.30    2.10
   7   9  -3    0.60    1.90
   7   9  -3    2.30    2.10
   7   9  -3   -0.60    1.80
  -6  -9   3   19.80    3.70
   6  -9  -3   26.70    4.20
   6  -9  -3   26.70    4.10
   6  -9  -3   20.30    3.30
   6   9  -3   25.00    3.50
   6   9  -3   21.20    3.70
  -6   9   3   31.70    5.10
   5  -9  -3   11.00    3.80
  -5  -9   3   18.30    3.30
   5  -9  -3   11.80    2.60
   5  -9  -3   15.50    2.50
   5   9  -3   18.30    3.40
  -5   9   3   19.90    3.80
   5   9  -3   10.50    2.10
   4  -9  -3   68.59    6.00
  -4  -9   3   73.29    5.80
   4  -9  -3   81.69    5.60
   4  -9  -3   59.09    5.60
   4   9  -3   74.39    6.00
  -4   9   3   71.59    6.20
   4   9  -3   68.59    5.40
   3  -9  -3   11.10    2.30
   3  -9  -3   15.40    2.80
  -3  -9   3   15.20    2.80
   3  -9  -3   12.90    2.70
  -3   9   3   14.60    3.10
   3   9  -3   14.40    2.80
   3   9  -3   14.10    2.40
  -3   9   3   13.40    2.80
   2  -9  -3    4.10    1.70
  -2  -9   3    6.10    1.60
   2  -9  -3    6.00    2.00
   2  -9  -3    5.80    1.60
  -2  -9   3    6.60    1.60
  -2   9   3    5.50    1.80
   2   9  -3    6.70    1.70
   2   9  -3    8.20    1.70
  -2   9   3    9.40    2.30
   2   9  -3    5.50    1.60
  -2   9   3    6.30    1.60
   1  -9  -3  119.29    7.70
   1  -9  -3  129.29    8.00
  -1  -9   3  133.69    8.00
  -1  -9   3  116.39    7.70
   1   9  -3  106.79    7.80
   1   9  -3  125.79    7.90
  -1   9   3  139.49    8.60
  -1   9   3  105.99    7.90
   1   9  -3  130.09    8.10
  -1   9   3  128.09    7.80
  -1   9   3  129.09    8.00
   0  -9  -3  230.48   13.40
   0  -9  -3  258.77   14.10
   0  -9   3  228.68   13.90
   0  -9   3  262.77   14.10
   0   9   3  252.57   13.80
   0   9  -3  258.07   14.10
   0   9   3  216.78   14.00
   0   9  -3  251.07   14.20
   0   9  -3  244.08   13.70
   0   9   3  261.47   14.40
   0   9   3  243.18   14.00
   0   9  -3  208.98   13.90
  -1  -9  -3   70.69    4.80
  -1  -9  -3   72.99    7.10
   1  -9   3   72.09    5.70
   1  -9   3   76.29    5.70
  -1   9  -3   63.59    5.50
   1   9   3   74.69    5.00
  -1   9  -3   78.79    5.50
  -1   9  -3   73.09    5.00
   1   9   3   60.49    5.40
   1   9   3   73.39    5.70
  -1   9  -3   78.59    6.10
  -2  -9  -3   63.69    5.20
   2  -9   3   60.99    5.50
   2  -9   3   71.99    5.40
  -2   9  -3   68.59    6.10
   2   9   3   67.19    5.70
   2   9   3   58.69    5.30
  -2   9  -3   66.39    5.30
   3  -9   3  206.08   13.90
   3  -9   3  234.58   13.30
  -3  -9  -3  214.98   13.10
   3   9   3  210.78   13.70
  -3   9  -3  225.78   14.30
   3   9   3  205.18   13.30
  -3   9  -3  234.28   14.10
  -4  -9  -3    1.50    1.80
   4  -9   3    3.70    2.20
   4  -9   3    4.00    1.80
   4  -9   3    3.60    1.90
  -4   9  -3    2.00    1.70
   4   9   3    0.00    1.60
   4   9   3    4.60    2.10
  -5  -9  -3    5.30    2.60
   5  -9   3    5.20    2.60
   5  -9   3    8.60    2.00
   5  -9   3   10.10    2.50
  -5   9  -3    5.90    2.30
   5   9   3    8.40    3.20
   5   9   3    4.30    2.30
   6  -9   3   -3.10    2.30
   6  -9   3   -2.30    2.30
   6  -9   3    0.40    2.00
   6   9   3   -0.40    2.10
   6   9   3   -0.90    1.90
   7  -9   3    7.10    2.40
   7  -9   3    2.60    2.40
   8 -10  -3    5.10    2.40
   8 -10  -3    8.40    2.30
   8  10  -3    6.20    1.70
   8  10  -3    2.60    2.30
   8  10  -3    2.60    2.30
   7 -10  -3    5.00    2.10
   7  10  -3   -1.90    1.70
  -7  10   3    6.40    4.70
   7  10  -3    0.60    2.00
   7  10  -3    0.20    1.90
   6 -10  -3   -0.70    1.80
   6 -10  -3    0.60    1.90
  -6 -10   3   -2.10    1.90
   6  10  -3    2.70    2.00
  -6  10   3   -4.00    2.90
   6  10  -3   -0.70    1.40
   5 -10  -3    4.10    1.70
   5 -10  -3    1.70    1.80
   5 -10  -3    1.10    1.80
  -5 -10   3    0.30    1.70
   5  10  -3    0.10    1.40
  -5  10   3   -0.70    2.10
   5  10  -3    1.50    1.20
   4 -10  -3    3.70    2.00
   4 -10  -3    3.40    1.80
  -4 -10   3    4.60    1.70
   4 -10  -3    5.30    1.80
  -4  10   3    6.40    2.70
   4  10  -3    2.80    1.80
   4  10  -3    3.90    1.60
   3 -10  -3    0.70    1.50
  -3 -10   3    3.00    1.50
   3 -10  -3    3.40    1.60
   3 -10  -3    0.80    1.20
   3  10  -3    0.80    1.50
   3  10  -3    1.00    1.60
  -3  10   3    1.10    1.40
  -3  10   3    1.50    1.70
   3  10  -3    1.20    1.20
  -3  10   3    2.10    1.50
  -2 -10   3   90.69    6.70
   2 -10  -3   94.29    6.30
   2 -10  -3   87.29    6.30
  -2 -10   3   83.49    6.00
   2 -10  -3   78.79    6.50
   2  10  -3   79.39    6.10
   2  10  -3   91.09    6.30
  -2  10   3   74.29    6.00
  -2  10   3   88.99    6.60
   2  10  -3   89.19    6.50
  -2  10   3  104.49    7.30
   1 -10  -3  144.09    9.50
   1 -10  -3  124.89    8.20
  -1 -10   3  141.79    9.20
  -1 -10   3  120.99    8.20
  -1  10   3  133.99    8.30
  -1  10   3  134.19    8.50
  -1  10   3  143.89   10.50
  -1  10   3  112.39    8.40
   1  10  -3  136.89    8.50
   1  10  -3  140.89    8.80
   1  10  -3  116.29    8.40
   0 -10   3   46.00    4.20
   0 -10  -3   48.40    4.00
   0 -10  -3   52.79    4.40
   0 -10   3   42.60    4.30
   0 -10  -3   44.70    3.90
   0  10  -3   48.20    4.60
   0  10  -3   40.20    4.20
   0  10  -3   49.10    6.50
   0  10   3   45.10    4.40
   0  10   3   44.10    4.40
   0  10   3   46.20    4.00
   0  10   3   54.29    4.80
   0  10  -3   42.10    3.90
   1 -10   3  614.44   31.10
  -1 -10  -3  558.14   30.10
   1 -10   3  551.94   31.30
  -1 -10  -3  606.74   31.20
   1  10   3  593.14   31.40
   1  10   3  515.05   31.10
  -1  10  -3  594.24   33.10
   1  10   3  646.44   31.70
  -1  10  -3  601.04   33.20
  -1  10  -3  570.24   30.40
  -1  10  -3  498.55   31.00
   2 -10   3   16.00    3.00
   2 -10   3   11.00    2.40
  -2 -10  -3   13.90    2.60
   2  10   3   17.00    3.20
  -2  10  -3   13.10    2.90
  -2  10  -3   16.40    3.10
   2  10   3   12.70    2.50
   3 -10   3  226.88   13.00
  -3 -10  -3  201.08   12.80
   3 -10   3  196.08   13.50
   3  10   3  193.68   13.00
  -3  10  -3  225.78   14.20
   3  10   3  204.48   13.40
  -3  10  -3  213.18   12.70
   4 -10   3    5.10    1.90
  -4 -10  -3    4.30    2.10
   4 -10   3    3.50    2.40
   4  10   3    4.10    2.00
  -4  10  -3    6.00    1.90
   4  10   3    4.40    1.90
   5 -10   3    5.20    2.70
   5 -10   3   10.70    2.70
  -5  10  -3   10.30    2.50
   5  10   3   11.50    3.00
   5  10   3    7.90    2.60
  -5  10  -3   15.80    4.80
   6 -10   3    1.40    2.40
  -6 -10  -3   -0.40    3.00
   6  10   3   -0.30    1.80
   6  10   3   -2.40    2.10
  -6  10  -3    1.00    2.10
   6 -11  -3    3.20    2.00
   6 -11  -3    6.10    2.30
   6 -11  -3    7.20    2.60
  -6 -11   3    8.90    2.90
   6  11  -3    4.50    2.40
   6  11  -3    4.30    1.90
  -5 -11   3   18.30    3.40
   5 -11  -3   10.90    2.70
   5 -11  -3   10.20    4.00
   5 -11  -3   13.10    2.40
   5  11  -3   16.00    3.00
   5  11  -3   12.30    3.00
   4 -11  -3   41.00    4.90
   4 -11  -3   43.10    4.80
  -4 -11   3   43.70    4.70
   4 -11  -3   52.89    4.80
  -4  11   3   54.69    5.90
   4  11  -3   37.40    6.50
   4  11  -3   52.39    4.60
   4  11  -3   43.50    4.50
  -3 -11   3  448.06   24.40
   3 -11  -3  370.36   24.40
   3 -11  -3  424.36   24.50
   3 -11  -3  500.95   24.50
   3  11  -3  483.15   24.30
  -3  11   3  473.95   25.10
  -3  11   3  405.66   24.10
   3  11  -3  412.46   24.20
   3  11  -3  424.26   24.60
  -3  11   3  462.95   25.20
   2 -11  -3    4.10    1.60
   2 -11  -3    4.10    2.00
  -2 -11   3    2.70    1.50
   2  11  -3    2.90    1.60
   2  11  -3    2.70    1.80
  -2  11   3    2.70    2.50
  -2  11   3    6.10    2.30
  -2  11   3    3.90    1.50
   2  11  -3    3.40    1.70
  -2  11   3    5.10    1.60
  -1 -11   3  265.17   16.30
  -1 -11   3  302.07   16.70
   1 -11  -3  281.17   16.30
   1 -11  -3  332.87   16.90
  -1  11   3  247.18   16.50
  -1  11   3  284.57   16.60
   1  11  -3  253.17   16.60
  -1  11   3  296.07   16.50
   1  11  -3  290.27   16.70
   1  11  -3  313.27   17.00
  -1  11   3  322.77   17.40
   0 -11   3  187.18   11.20
   0 -11  -3  190.98   11.30
   0 -11  -3  200.78   10.80
   0 -11   3  163.28   11.10
   0 -11  -3  170.18   10.40
   0  11  -3  200.98   11.80
   0  11  -3  160.78   11.20
   0  11  -3  174.18   10.90
   0  11   3  183.38   10.90
   0  11   3  179.98   11.30
   0  11   3  197.38   11.80
   0  11   3  148.89   11.00
   0  11  -3  184.68   11.30
  -1 -11  -3   43.80    3.60
   1 -11   3   42.90    4.20
   1 -11   3   34.10    4.20
  -1 -11  -3   42.70    4.20
   1  11   3   31.20    4.30
  -1  11  -3   37.10    4.80
   1  11   3   35.90    4.40
  -1  11  -3   40.50    3.80
   1  11   3   44.00    4.80
  -1  11  -3   36.80    4.50
  -1  11  -3   43.10    4.20
   2 -11   3   62.49    5.60
   2 -11   3   54.49    5.70
  -2 -11  -3   66.19    5.40
  -2  11  -3   64.59    5.30
   2  11   3   58.49    5.60
  -2  11  -3   60.59    6.60
   2  11   3   66.19    6.30
   2  11   3   56.79    5.60
   3 -11   3   81.59    6.40
  -3 -11  -3   83.69    6.50
   3 -11   3   64.39    7.70
   3  11   3   76.29    6.70
  -3  11  -3   86.29    7.80
  -3  11  -3   83.39    6.20
   3  11   3   72.19    7.30
   4 -11   3    1.80    1.90
  -4 -11  -3   -0.30    1.90
   4 -11   3    0.90    2.10
   4  11   3    2.20    1.80
   4  11   3    2.40    2.00
  -4  11  -3    0.10    1.60
  -5 -11  -3    2.60    3.60
   5 -11   3    1.70    2.20
   5 -11   3    5.60    3.10
   5  11   3    1.50    2.20
  -5  11  -3   11.40    4.60
  -5  11  -3   11.10    2.20
   5  11   3    2.30    2.10
   6 -11   3   -4.40    2.50
   6 -11   3    5.70    2.30
  -6 -11  -3    2.10    2.70
   6 -11   3    4.00    2.80
   6  11   3    1.10    2.20
   6  11   3   -1.30    2.00
   7 -12  -3    2.70    3.40
   7 -12  -3    3.30    2.70
   7  12  -3    4.80    1.60
   7  12  -3    4.20    2.70
   6 -12  -3    0.90    2.40
  -6 -12   3    5.60    2.90
   6 -12  -3    5.40    2.30
   6  12  -3    6.50    2.30
   6  12  -3    4.80    1.80
   5 -12  -3    0.20    2.00
  -5 -12   3    6.60    2.50
   5 -12  -3    3.80    2.10
   5 -12  -3    3.60    2.20
   5  12  -3    1.40    2.00
   5  12  -3    3.10    1.70
  -4 -12   3   27.40    4.00
   4 -12  -3   33.10    4.40
   4 -12  -3   24.70    5.40
   4 -12  -3   35.30    4.00
   4  12  -3   28.40    4.20
   4  12  -3   20.50    3.60
  -4  12   3   32.70    5.30
   3 -12  -3    2.70    1.70
   3 -12  -3    1.20    1.60
   3 -12  -3    0.80    1.70
  -3 -12   3    3.00    1.80
  -3  12   3   -1.20    1.90
  -3  12   3    2.60    1.60
   3  12  -3   -1.10    1.80
   3  12  -3    0.90    1.60
   3  12  -3    0.60    1.90
   2 -12  -3    8.20    2.00
   2 -12  -3   10.50    2.30
   2 -12  -3    8.80    2.50
  -2 -12   3    6.40    2.10
   2  12  -3    4.30    1.90
  -2  12   3    8.20    1.80
   2  12  -3    7.40    2.30
  -2  12   3   13.40    3.20
   2  12  -3    5.80    2.40
  -2  12   3    6.60    2.60
   1 -12  -3  473.95   26.80
   1 -12  -3  555.14   27.40
  -1 -12   3  429.36   26.90
   1 -12  -3  544.85   27.50
  -1 -12   3  516.85   27.30
  -1  12   3  573.74   28.30
  -1  12   3  425.36   27.10
   1  12  -3  416.46   27.10
   1  12  -3  489.85   27.30
  -1  12   3  522.95   27.40
   1  12  -3  530.85   27.80
  -1  12   3  497.75   27.10
   0 -12   3    2.10    1.90
   0 -12   3    0.30    1.70
   0 -12  -3    2.80    1.60
   0 -12  -3    3.20    1.50
   0  12   3   -0.40    1.70
   0  12  -3    1.10    1.90
   0  12  -3    4.50    1.60
   0  12   3    1.20    1.50
   0  12   3    4.30    1.90
   0  12   3    0.70    2.00
   0  12  -3   -1.20    2.20
   0  12  -3    0.40    1.40
  -1 -12  -3  361.26   18.10
   1 -12   3  341.27   18.90
  -1 -12  -3  340.77   19.00
   1 -12   3  294.47   19.00
   1  12   3  318.77   19.10
   1  12   3  367.96   19.70
   1  12   3  282.57   18.80
  -1  12  -3  361.76   19.10
  -1  12  -3  352.26   19.80
  -1  12  -3  278.77   18.90
  -1  12  -3  306.07   18.10
  -2 -12  -3   -0.10    1.40
   2 -12   3    1.70    1.60
   2 -12   3    2.60    2.00
   2  12   3    0.30    1.90
  -2  12  -3    0.30    2.40
  -2  12  -3    3.80    1.70
   2  12   3   -2.70    1.60
   2  12   3   -1.90    2.00
   3 -12   3   14.30    2.80
   3 -12   3   11.60    3.00
  -3  12  -3   11.00    3.60
   3  12   3    6.50    2.30
   3  12   3    7.50    2.70
  -3  12  -3   12.80    2.60
  -4 -12  -3    3.40    2.80
   4 -12   3    3.10    2.30
   4 -12   3    2.90    2.20
  -4  12  -3    7.90    2.00
   4  12   3    5.20    2.40
   4  12   3    3.50    2.20
   5 -12   3   13.00    3.00
  -5 -12  -3   13.30    3.80
   5 -12   3    7.00    2.80
   5  12   3    9.10    2.90
  -5  12  -3    9.80    2.50
   5  12   3    6.60    2.70
   6 -12   3    5.60    2.40
   6 -12   3    9.70    3.10
   6  12   3   12.00    2.90
   6  12   3    7.40    3.00
   7 -13  -3    6.50    2.30
   7  13  -3    5.40    3.40
   6 -13  -3    2.90    2.50
   5 -13  -3    7.90    2.40
  -5 -13   3    8.40    2.90
   5 -13  -3    5.50    2.50
   5 -13  -3    7.00    2.50
   5  13  -3   10.30    2.90
   5  13  -3   12.40    2.80
   5  13  -3    8.90    2.40
   4 -13  -3   -1.60    1.90
  -4 -13   3    0.20    1.60
   4 -13  -3   -2.50    1.50
   4  13  -3   -1.20    2.10
   4  13  -3   -1.00    1.50
   4  13  -3    0.00    1.70
   3 -13  -3   -0.80    1.70
   3 -13  -3    0.10    1.50
  -3 -13   3   -0.20    1.80
   3 -13  -3   -1.80    1.70
   3  13  -3   -2.80    1.50
   3  13  -3   -2.10    1.70
  -3  13   3   -1.40    2.30
   3  13  -3    0.40    1.70
   2 -13  -3    0.60    1.40
   2 -13  -3   -1.60    1.50
  -2 -13   3   -1.80    1.50
   2 -13  -3    1.00    1.60
  -2  13   3   -1.50    1.50
   2  13  -3    0.40    1.50
   2  13  -3   -2.10    1.60
  -2  13   3    0.10    1.40
  -1 -13   3   11.90    2.50
   1 -13  -3   17.70    2.80
  -1 -13   3   11.90    2.50
   1 -13  -3   17.40    3.30
   1  13  -3    9.40    2.40
  -1  13   3   10.50    2.30
  -1  13   3   11.80    2.50
  -1  13   3   16.50    3.70
   1  13  -3    9.20    2.30
  -1  13   3    9.10    3.50
   1  13  -3   15.90    3.60
   0 -13   3    4.10    1.90
   0 -13   3    4.90    2.00
   0 -13  -3    5.20    2.10
   0 -13  -3    5.40    2.00
   0  13   3    4.40    1.90
   0  13   3    3.90    2.00
   0  13  -3    6.30    2.70
   0  13   3    7.80    3.20
   0  13  -3    4.00    1.80
   0  13  -3    3.00    1.70
   0  13  -3    5.20    2.10
  -1 -13  -3  174.38   10.40
  -1  13  -3  154.08   10.50
   1  13   3  162.78   11.50
  -1  13  -3  187.48   12.30
  -1  13  -3  188.08   11.40
   1  13   3  184.08   12.10
   2 -13   3   18.70    3.70
   2 -13   3   18.60    3.80
   2  13   3   13.30    3.30
  -2  13  -3   17.40    2.60
  -2  13  -3   25.30    3.50
  -2  13  -3   20.40    4.20
   2  13   3   12.60    3.00
   2  13   3   17.80    4.10
   3 -13   3   27.70    4.60
   3 -13   3   38.50    4.60
  -3 -13  -3   24.40    5.10
  -3  13  -3   39.10    4.30
   3  13   3   34.40    5.90
   3  13   3   24.20    4.40
   3  13   3   35.10    4.90
   4 -13   3   16.30    3.60
   4 -13   3   21.80    3.70
  -4 -13  -3   25.90    4.40
   4  13   3   23.60    4.30
  -4  13  -3   26.80    3.90
   4  13   3   15.60    3.40
   5 -13   3    1.10    2.30
   5 -13   3    5.20    2.80
  -5  13  -3    4.50    2.30
   5  13   3    7.70    2.80
   6 -14  -3    0.90    2.40
   6 -14  -3    0.80    2.40
  -6 -14   3   -1.70    3.70
   6 -14  -3    2.60    2.50
   6  14  -3    5.50    2.50
   6  14  -3    1.80    2.00
   5 -14  -3    1.50    2.10
   5 -14  -3   -0.10    2.30
   5 -14  -3    0.70    2.30
   5  14  -3   -1.20    1.90
  -5  14   3   -6.60    3.80
   5  14  -3   -1.20    1.70
   5  14  -3    6.10    2.70
   4 -14  -3   -1.10    2.00
   4 -14  -3   -2.40    2.00
   4 -14  -3   -1.80    1.60
   4  14  -3   -0.70    1.70
   4  14  -3    1.30    1.80
  -4  14   3   13.80    6.00
   4  14  -3   -3.20    2.10
  -3 -14   3    1.30    1.80
   3 -14  -3    0.30    2.80
   3 -14  -3    1.60    2.00
   3 -14  -3    2.20    1.70
  -3  14   3    0.20    1.50
   3  14  -3    1.70    2.30
   3  14  -3   -1.00    1.70
   3  14  -3   -0.10    1.80
   2 -14  -3   37.40    4.90
   2 -14  -3   43.10    4.40
   2 -14  -3   32.10    4.50
  -2 -14   3   37.10    4.70
  -2  14   3   27.70    4.10
   2  14  -3   25.80    5.40
   2  14  -3   42.70    5.10
  -2  14   3   42.50    4.20
   2  14  -3   48.60    5.30
  -1 -14   3    0.70    1.70
   1 -14  -3    1.60    2.00
   1 -14  -3    1.60    1.40
  -1 -14   3    3.30    1.60
   1 -14  -3    1.50    1.60
  -1  14   3    1.50    1.90
  -1  14   3    3.90    2.10
   1  14  -3    2.50    2.20
   1  14  -3    0.10    1.50
  -1  14   3    3.80    1.60
   0 -14  -3   10.40    2.30
   0 -14   3   11.10    2.60
   0  14  -3    9.90    2.50
   0  14  -3    9.40    2.10
   0  14  -3   14.20    3.00
   0  14  -3   13.10    3.40
   0  14   3    7.10    2.30
   0  14   3   10.30    2.50
  -1 -14  -3   -1.90    1.90
   1 -14   3    1.90    2.70
   1  14   3   -1.50    2.60
  -1  14  -3    1.90    1.80
  -1  14  -3   -0.20    2.50
  -1  14  -3    1.40    1.30
   1  14   3   -0.70    1.80
   1  14   3   -1.20    1.80
   2 -14   3   13.60    3.10
   2 -14   3   20.70    3.70
  -2  14  -3   20.40    5.00
  -2  14  -3   19.60    3.80
  -2  14  -3   16.50    2.60
   2  14   3   13.50    3.30
   2  14   3   20.30    4.60
   3 -14   3    0.00    1.80
   3 -14   3    0.80    2.10
  -3  14  -3    1.30    1.70
  -3  14  -3    4.30    3.90
   3  14   3    5.60    3.30
   3  14   3    1.70    2.20
   3  14   3    0.60    1.90
   4 -14   3    0.30    2.40
   4 -14   3   -1.50    2.20
   4 -14   3   -2.30    1.80
  -4  14  -3    0.10    1.70
   4  14   3   -1.00    1.80
   4  14   3   -2.70    3.40
   5 -14   3    1.60    2.60
   5 -14   3   -0.60    3.10
   5  14   3   -3.30    2.50
   5  14   3    2.60    2.50
   6 -15  -3    2.00    2.50
   6  15  -3    6.50    1.90
  -5 -15   3    8.50    3.20
   5 -15  -3    4.40    2.60
   5 -15  -3    4.70    2.60
   5 -15  -3    3.00    2.40
   5  15  -3    2.90    2.40
   5  15  -3    2.40    2.00
   5  15  -3    6.80    2.90
   4 -15  -3   -1.60    2.00
   4 -15  -3    0.20    2.20
   4 -15  -3    3.50    2.60
   4  15  -3    2.10    2.20
   4  15  -3    2.50    2.00
   4  15  -3   -0.20    2.50
  -4  15   3    4.30    4.30
   3 -15  -3   10.50    2.60
   3 -15  -3   11.90    3.00
   3 -15  -3    9.80    2.80
   3  15  -3    6.40    2.30
   3  15  -3   12.10    3.20
  -3  15   3   12.70    5.50
  -3  15   3    8.00    3.20
   3  15  -3    8.70    2.60
   2 -15  -3    2.90    2.50
   2 -15  -3   -0.10    1.70
   2 -15  -3   -1.50    2.20
  -2  15   3   -1.80    1.80
  -2  15   3   -3.20    1.60
  -2  15   3   -1.20    3.40
   2  15  -3   -2.90    2.40
   2  15  -3    0.50    1.90
   2  15  -3   -0.40    1.60
  -1 -15   3   47.70    4.70
   1 -15  -3   50.39    4.60
   1 -15  -3   48.10    5.50
   1 -15  -3   54.89    5.20
   1  15  -3   58.39    6.30
   1  15  -3   41.90    5.00
   1  15  -3   49.99    6.40
  -1  15   3   41.10    5.10
  -1  15   3   52.19    5.20
   0 -15  -3   17.90    3.40
   0 -15  -3   17.00    3.10
   0 -15   3   14.00    4.10
   0  15   3   12.00    3.00
   0  15   3   14.10    2.80
   0  15  -3   26.30    4.90
   0  15  -3   19.50    3.20
   0  15  -3   13.40    2.90
   1 -15   3    2.70    2.10
  -1 -15  -3    0.20    1.40
   1 -15   3    0.80    1.60
  -1  15  -3    2.50    1.90
  -1  15  -3    2.10    1.60
  -1  15  -3    4.90    3.10
   1  15   3   -0.70    1.90
   1  15   3    2.10    3.00
   1  15   3   -1.40    1.90
  -2 -15  -3   11.00    3.00
   2 -15   3   10.10    2.90
   2 -15   3    8.40    2.40
   2 -15   3    9.00    3.00
   2  15   3    5.40    2.50
   2  15   3    4.50    2.40
   2  15   3   13.80    4.30
  -2  15  -3   11.60    3.10
  -2  15  -3   11.00    6.60
   3 -15   3   13.60    3.50
  -3 -15  -3   20.00    4.00
   3 -15   3   17.40    3.40
   3 -15   3   20.00    3.70
   3  15   3   19.40    3.70
   3  15   3   20.10    3.70
   4 -15   3   -3.10    2.30
   4 -15   3   -0.60    2.10
   4  15   3   -3.60    2.10
   4  15   3   -1.20    2.20
   5 -15   3    2.60    2.40
   5 -15   3    5.70    2.60
   5  15   3    8.40    4.80
  -5  15  -3    7.10    3.80
   5  15   3    2.30    2.50
   5 -16  -3    7.60    2.50
   5 -16  -3    3.10    2.10
   5  16  -3    8.30    3.90
  -4 -16   3   -0.70    2.70
   4 -16  -3   -2.60    2.00
   4 -16  -3    3.50    2.60
   4 -16  -3   -2.10    2.10
   4  16  -3    0.10    2.10
   4  16  -3   -1.70    1.70
   4  16  -3   -0.30    2.90
   3 -16  -3    6.80    1.80
   3 -16  -3    8.20    2.70
   3 -16  -3    4.90    2.80
  -3 -16   3   -0.80    3.90
   3  16  -3    4.90    2.20
   3  16  -3    2.40    2.00
   3  16  -3   10.00    3.40
  -3  16   3    3.80    2.00
  -3  16   3    6.50    4.30
  -2 -16   3   32.40    6.70
   2 -16  -3   31.80    5.40
   2 -16  -3   40.50    5.30
   2 -16  -3   37.20    4.90
   2  16  -3   31.50    4.50
  -2  16   3   36.40    6.40
  -2  16   3   32.50    4.40
   2  16  -3   45.30    5.90
  -2  16   3   25.50    4.20
   2  16  -3   30.60    4.30
   1 -16  -3    2.50    1.70
   1 -16  -3   -1.00    1.70
  -1 -16   3    0.80    2.50
   1 -16  -3    0.80    2.10
  -1 -16   3    5.60    4.00
   1  16  -3    5.50    3.50
   1  16  -3    1.30    1.80
   1  16  -3    0.30    1.70
  -1  16   3   -1.20    1.90
  -1  16   3   -2.20    1.80
   0 -16  -3    2.80    2.00
   0 -16   3    6.30    2.30
   0 -16  -3   10.50    3.00
   0 -16   3    8.80    2.70
   0  16   3    7.60    5.00
   0  16   3    4.30    3.20
   0  16   3    5.90    2.40
   0  16  -3    6.20    3.10
   0  16  -3   12.40    3.70
   1 -16   3    8.50    2.60
   1 -16   3    6.00    2.60
   1 -16   3    9.80    2.40
  -1 -16  -3    9.10    2.70
  -1 -16  -3   10.70    1.90
  -1  16  -3   14.90    5.10
  -1  16  -3    4.20    2.10
   1  16   3    5.90    2.50
   1  16   3    8.40    2.70
   2 -16   3    5.30    2.30
   2 -16   3    5.30    2.30
  -2 -16  -3    7.80    2.80
   2 -16   3    3.70    2.50
  -2  16  -3    3.80    1.80
   2  16   3    8.50    2.90
   2  16   3   15.70    4.60
   2  16   3    7.60    2.40
   3 -16   3    0.00    2.00
   3  16   3   -2.80    1.80
   3  16   3   -0.90    2.10
   4 -16   3    2.10    3.40
   4 -16   3   -2.30    2.30
   4  16   3    3.30    3.30
   4  16   3    4.60    3.30
  -4  16  -3    5.60    3.70
   5 -17  -3    0.60    2.60
  -5 -17   3    7.60    4.70
   5 -17  -3    5.80    4.00
   5  17  -3    4.10    2.30
   5  17  -3    4.70    2.30
  -4 -17   3    2.10    2.60
   4 -17  -3    1.10    2.20
   4 -17  -3   -0.80    2.30
   4 -17  -3    7.00    3.80
   4  17  -3    0.90    2.00
   4  17  -3   -1.70    2.00
   3 -17  -3   18.90    3.90
   3 -17  -3   14.80    3.20
   3 -17  -3   30.80    7.80
  -3 -17   3   20.80    4.20
   3  17  -3   24.40    4.30
  -3  17   3   17.40    3.20
   3  17  -3   14.70    3.20
   2 -17  -3    0.10    1.80
   2 -17  -3   -1.20    2.10
  -2  17   3   -0.50    5.40
   2  17  -3    0.80    3.50
   2  17  -3   -2.50    1.80
  -2  17   3    0.60    1.70
  -2  17   3   -1.70    1.90
   1 -17  -3   11.40    3.60
  -1 -17   3    7.10    2.50
   1 -17  -3    7.40    2.00
   1  17  -3    9.30    2.70
   1  17  -3    7.80    2.40
  -1  17   3    6.50    3.20
  -1  17   3    5.90    2.50
   1  17  -3    8.10    3.20
   0 -17   3   -2.90    2.00
   0 -17   3   -2.60    1.80
   0 -17  -3   -0.80    1.80
   0 -17  -3    0.20    2.20
   0  17   3    1.40    2.10
   0  17   3   10.40    3.80
   0  17  -3   -0.70    1.70
   0  17   3   -0.80    2.00
   0  17  -3    1.60    2.40
  -1 -17  -3    5.10    2.00
   1 -17   3    0.20    2.10
   1  17   3   -0.10    1.90
   1  17   3    8.80    6.40
  -1  17  -3    2.80    3.80
  -1  17  -3    5.40    2.80
   2 -17   3    5.20    2.20
   2 -17   3    3.50    2.50
  -2  17  -3    4.20    2.80
   2  17   3    1.30    2.50
  -2  17  -3    3.50    2.10
   2  17   3    5.10    2.80
   3 -17   3    8.00    2.80
   3 -17   3    9.10    2.90
  -3  17  -3    8.40    3.30
   3  17   3   11.10    4.10
   4 -17   3    7.60    3.40
   4 -17   3    5.60    4.70
   4  17   3    4.50    3.00
   4  17   3    1.80    2.90
   4 -18  -3   15.60    3.10
   3 -18  -3    3.70    2.70
   3 -18  -3   -2.00    2.10
   3  18  -3   -2.30    2.20
  -3  18   3   -3.30    1.90
   3  18  -3    1.00    2.10
   2 -18  -3    1.90    3.50
   2 -18  -3   -0.50    1.70
   2  18  -3    0.50    2.10
   2  18  -3    2.50    6.80
   2  18  -3    1.40    2.20
  -2  18   3    1.90    1.90
   1 -18  -3   -0.20    2.10
   1  18  -3   -0.10    2.20
   1  18  -3    0.60    4.50
  -1  18   3   -1.20    2.10
   0 -18  -3   -2.20    2.20
   0 -18   3   -3.40    2.00
   0  18  -3   -0.40    2.70
   0  18   3   -3.00    2.00
   0  18  -3   -4.50    4.10
   1 -18   3   -2.00    2.10
  -1  18  -3    8.50    2.60
  -1  18  -3   -1.50    1.70
   2 -18   3   -3.00    2.00
   2  18   3   -5.00    3.40
  -2  18  -3   -4.40    2.30
   2  18   3   -2.30    2.30
   3 -18   3    6.00    2.80
   3 -18   3    4.20    2.50
   3  18   3   10.70    2.80
   2 -19  -3   -2.10    2.20
   2  19  -3   -2.70    4.80
   2  19  -3   -2.50    2.10
  -2  19   3   -0.70    2.30
   1  19  -3   -0.30    2.00
   1  19  -3    7.70    5.00
  -1  19   3    4.20    2.20
  -1  19   3    0.80    2.70
   0 -19   3   -3.50    2.00
   0 -19  -3   -1.40    2.20
   0  19   3   -2.80    2.60
   0  19   3   -1.20    2.50
   0  19  -3   -1.20    2.20
   1  19   3   -2.40    2.90
   2 -19   3    2.40    2.30
   2 -19   3    0.10    2.70
   2  19   3   -0.90    4.40
  -2  19  -3   -3.60    2.10
   2  19   3    4.40    2.40
  -1  20   3   -3.70    2.60
  -1  20   3    3.30    3.40
   1  20  -3    2.90    2.70
   0 -20   3    3.00    2.90
   0  20  -3    0.80    2.30
   0  20   3    5.80    2.90
   0  20   3   -1.50    2.90
   9   0  -4   -1.70    1.70
   9   0  -4   -1.40    1.70
   9   0  -4    0.80    2.30
   8   0  -4   -3.10    1.80
   8   0  -4    0.00    1.80
   8   0  -4    0.20    1.50
   7   0  -4   -1.20    2.00
   7   0  -4    0.20    1.50
   6   0  -4   15.80    2.90
   6   0  -4   13.90    2.50
   5   0  -4   -1.00    1.00
  -5   0   4    1.00    1.40
   5   0  -4    0.50    1.10
   4   0  -4  107.99    7.00
  -4   0   4  108.19    7.20
   4   0  -4  108.39    7.50
   3   0  -4    0.60    1.00
  -3   0   4    1.10    0.90
   3   0  -4    0.90    0.80
   3   0  -4    0.40    1.00
   2   0  -4 1960.70   91.69
   2   0  -4 1754.42   92.09
  -2   0   4 1855.21   91.89
   2   0  -4 1624.94   91.69
  -2   0   4 1803.02   91.59
   1   0  -4    0.10    0.70
  -1   0   4    0.40    0.70
  -1   0   4   -0.40    0.70
  -1   0   4   -0.80    0.60
   1   0  -4    0.60    0.80
   1   0  -4   -0.20    0.70
   0   0  -4   60.29    4.30
   0   0   4   54.79    4.10
   0   0   4   59.59    4.00
   0   0   4   63.19    4.10
   0   0  -4   57.49    4.10
   0   0  -4   58.89    3.90
   0   0  -4   62.09    4.10
   1   0   4    0.40    0.90
   1   0   4    0.30    0.80
  -1   0  -4   -0.50    0.90
  -1   0  -4   -0.40    0.60
   2   0   4  618.14   31.80
  -2   0  -4  603.14   32.20
   2   0   4  588.54   32.20
   2   0   4  608.14   32.70
   3   0   4   -1.00    1.20
   3   0   4   -1.20    1.30
   4   0   4   43.40    5.10
  -4   0  -4   41.10    4.20
   4   0   4   39.70    4.30
   5   0   4   -2.50    1.60
  -5   0  -4   -2.70    1.60
   6   0   4   -1.00    1.80
   6   0   4   -0.40    1.60
   7   0   4    1.80    2.50
   7   0   4   -1.30    2.10
  -7   0  -4   -1.80    2.50
   9  -1  -4    3.40    2.00
   9  -1  -4   -3.00    1.70
   9   1  -4    1.20    1.70
   9   1  -4    2.50    1.80
   8  -1  -4   11.10    2.90
   8  -1  -4   11.50    3.10
   8  -1  -4   14.30    2.70
   8   1  -4   10.70    2.80
   8   1  -4   14.10    3.10
   8   1  -4   17.50    3.70
   7  -1  -4    6.20    2.10
   7  -1  -4    6.20    2.30
   7   1  -4    5.70    2.10
   7   1  -4    8.80    2.10
   6  -1  -4   23.20    3.40
   6  -1  -4   25.10    3.80
   6   1  -4   21.00    3.00
   6   1  -4   17.80    3.50
   5  -1  -4   10.50    2.40
   5  -1  -4   15.00    2.60
  -5  -1   4   14.40    2.70
   5   1  -4   12.20    2.40
  -5   1   4   11.40    2.50
   5   1  -4   14.30    2.30
  -4  -1   4   56.79    4.60
   4  -1  -4   56.99    4.50
   4  -1  -4   58.49    5.10
   4   1  -4   58.39    4.90
   4   1  -4   63.89    4.10
   4   1  -4   57.29    4.40
  -4   1   4   58.29    4.80
  -3  -1   4  279.37   15.60
   3  -1  -4  287.97   16.10
   3  -1  -4  273.77   15.60
   3   1  -4  282.67   16.00
   3   1  -4  271.77   15.40
  -3   1   4  288.27   15.90
   3   1  -4  298.97   15.30
  -2  -1   4  120.19    7.70
  -2  -1   4  121.09    7.20
   2  -1  -4  120.19    7.60
   2  -1  -4  127.69    7.00
   2  -1  -4  114.89    7.20
  -2   1   4  118.59    6.90
   2   1  -4  111.79    7.10
   2   1  -4  118.49    7.50
  -2   1   4  124.19    7.40
   2   1  -4  131.89    7.20
   1  -1  -4  239.88   12.60
  -1  -1   4  241.78   12.60
  -1  -1   4  214.58   13.20
   1  -1  -4  206.78   12.50
   1  -1  -4  223.68   12.70
  -1  -1   4  228.68   12.80
   1   1  -4  204.68   12.50
  -1   1   4  238.88   12.70
   1   1  -4  256.97   14.00
  -1   1   4  223.88   12.50
   1   1  -4  247.58   12.80
   0  -1  -4    3.90    1.20
   0  -1   4    4.30    1.20
   0  -1   4    4.50    1.10
   0  -1  -4    6.90    1.30
   0  -1  -4    4.00    1.10
   0  -1   4    5.10    1.30
   0  -1  -4    4.40    1.00
   0  -1   4    5.30    1.10
   0   1   4    5.00    1.10
   0   1  -4    6.30    1.30
   0   1  -4    4.90    1.00
   0   1   4    4.00    1.10
   0   1   4    5.70    1.30
   1  -1   4  446.76   23.10
   1  -1   4  426.56   22.80
  -1  -1  -4  425.56   23.40
  -1  -1  -4  454.55   23.00
   1  -1   4  434.76   23.70
   1  -1   4  405.96   23.30
   1   1   4  423.06   23.40
  -1   1  -4  431.56   23.40
  -1   1  -4  432.16   22.70
  -1   1  -4  439.96   22.80
   1   1   4  462.05   23.20
   2  -1   4   66.69    5.40
   2  -1   4   75.79    5.90
  -2  -1  -4   75.89    5.50
  -2  -1  -4   76.89    4.80
   2   1   4   81.09    5.20
  -2   1  -4   76.69    5.50
   2   1   4   69.69    5.50
   3  -1   4  152.68   10.50
   3  -1   4  150.78    9.80
  -3  -1  -4  157.18   10.70
  -3   1  -4  151.88   11.30
   3   1   4  158.58   10.00
   3   1   4  162.78   10.60
   4  -1   4   60.09    5.20
   4  -1   4   64.79    6.00
  -4  -1  -4   59.29    5.20
   4   1   4   60.89    5.90
  -4   1  -4   54.99    5.00
   4   1   4   55.29    5.20
  -5  -1  -4    0.40    1.80
   5  -1   4    4.20    2.30
   5  -1   4    4.00    2.00
   5   1   4    0.10    2.10
   5   1   4   -0.80    1.70
  -5   1  -4   -0.80    1.70
   6  -1   4    3.80    2.10
   6  -1   4   -0.60    2.20
  -6  -1  -4    7.80    2.50
   6   1   4    2.20    2.40
   6   1   4    1.90    1.70
   7  -1   4    3.60    2.10
   7   1   4    3.20    2.60
  -7   1  -4    6.40    2.70
   9  -2  -4    4.50    1.90
   9  -2  -4    4.40    2.20
   9  -2  -4    3.60    2.50
   9   2  -4    4.90    2.00
   9   2  -4    1.40    2.00
   9   2  -4    1.70    1.70
   8  -2  -4   -1.00    1.90
   8  -2  -4   -1.20    1.60
   8   2  -4   -2.00    1.60
   8   2  -4    0.10    1.40
   8   2  -4   -1.30    1.70
   7  -2  -4   14.90    3.10
   7   2  -4   11.00    3.70
   7   2  -4   16.60    3.00
   7   2  -4   15.20    2.80
   6  -2  -4    1.20    1.60
   6  -2  -4   -1.40    1.40
   6   2  -4    0.30    1.40
   6   2  -4    0.10    1.20
  -5  -2   4   83.59    6.30
   5  -2  -4   91.09    6.50
   5  -2  -4   88.69    6.90
   5   2  -4   84.49    6.40
  -5   2   4   81.99    7.60
   5   2  -4   88.29    5.90
  -4  -2   4   59.19    4.60
   4  -2  -4   58.49    5.10
   4  -2  -4   57.19    4.70
  -4   2   4   61.39    4.90
   4   2  -4   57.29    4.20
   4   2  -4   57.99    4.90
   3  -2  -4  476.15   26.50
   3  -2  -4  512.85   27.10
  -3  -2   4  495.05   26.40
  -3  -2   4  507.85   27.00
   3   2  -4  509.95   26.20
   3   2  -4  477.25   26.10
  -3   2   4  510.25   26.80
   3   2  -4  495.55   26.80
   2  -2  -4   41.40    3.50
   2  -2  -4   42.70    3.10
   2  -2  -4   44.00    3.70
  -2  -2   4   41.20    3.70
  -2  -2   4   45.50    3.30
   2   2  -4   47.50    3.40
   2   2  -4   43.70    3.60
  -2   2   4   44.70    3.60
  -2   2   4   44.50    3.20
   2   2  -4   42.60    3.60
  -2   2   4   43.80    3.00
  -1  -2   4   17.90    2.10
  -1  -2   4   25.10    2.40
  -1  -2   4   23.00    2.20
   1  -2  -4   20.30    2.40
   1  -2  -4   20.10    2.20
   1  -2  -4   20.60    2.30
   1  -2  -4   20.10    2.40
   1   2  -4   22.80    2.40
   1   2  -4   24.60    2.30
  -1   2   4   21.50    2.30
  -1   2   4   16.40    2.20
   1   2  -4   19.10    2.10
   0  -2  -4   77.99    5.20
   0  -2  -4   71.29    5.00
   0  -2  -4   79.29    5.10
   0  -2   4   74.59    4.90
   0  -2   4   71.09    5.10
   0  -2  -4   75.59    4.80
   0  -2   4   78.79    5.20
   0  -2   4   83.79    5.00
   0   2  -4   75.09    5.00
   0   2   4   74.39    5.10
   0   2   4   80.49    5.00
   0   2  -4   82.49    5.20
   1  -2   4   28.70    2.50
  -1  -2  -4   28.90    2.90
  -1  -2  -4   30.70    2.60
   1  -2   4   28.90    3.20
   1  -2   4   29.10    2.70
   1  -2   4   24.60    2.90
   1   2   4   26.30    3.00
   1   2   4   30.50    2.80
  -1   2  -4   31.60    2.50
  -1   2  -4   27.50    2.80
  -2  -2  -4   40.40    3.10
  -2  -2  -4   40.10    3.70
   2  -2   4   38.90    3.70
   2  -2   4   41.10    4.20
   2   2   4   40.70    3.40
  -2   2  -4   38.00    3.60
   2   2   4   36.20    3.80
   2   2   4   37.30    3.30
   3  -2   4  133.29    9.20
  -3  -2  -4  124.79    8.60
   3  -2   4  122.29    8.50
  -3  -2  -4  132.49    7.80
   3   2   4  126.19    8.70
   3   2   4  145.09    8.30
   3   2   4  133.39    7.90
  -3   2  -4  133.39   10.10
   4  -2   4    6.40    1.90
   4  -2   4    5.10    2.30
  -4  -2  -4    2.40    1.70
   4   2   4    5.40    2.00
   4   2   4    2.70    1.80
  -4   2  -4    5.40    1.80
  -5  -2  -4   -0.70    1.80
   5  -2   4   -0.80    1.90
   5  -2   4    1.10    1.60
  -5   2  -4    0.40    1.50
   5   2   4    0.40    1.80
   5   2   4    1.00    2.00
   6  -2   4    2.10    1.90
   6  -2   4    2.50    2.30
   6   2   4    3.30    2.10
   6   2   4    0.80    2.00
   7  -2   4   25.70    4.40
   7  -2   4   33.30    5.70
   7   2   4   36.20    5.40
  -7   2  -4   27.80    5.20
   7   2   4   30.70    4.60
   9  -3  -4   -2.00    2.10
   9  -3  -4    0.20    2.80
   9  -3  -4   -2.60    2.00
   9   3  -4    4.10    1.80
   9   3  -4   -3.70    2.00
   8  -3  -4    6.50    2.30
   8  -3  -4    3.00    2.40
   8   3  -4    5.40    2.30
   8   3  -4    5.60    2.20
   7  -3  -4    2.10    1.90
   7   3  -4   -0.50    1.40
   7   3  -4    0.30    1.50
   7   3  -4    2.50    2.40
   6  -3  -4   18.90    3.70
   6  -3  -4   13.00    2.90
   6  -3  -4   15.70    2.80
   6   3  -4   18.60    3.30
   6   3  -4   18.30    2.90
   6   3  -4   16.10    3.10
   5  -3  -4   24.40    3.40
   5  -3  -4   29.60    4.10
  -5  -3   4   28.30    3.40
  -5   3   4   24.00    3.70
   5   3  -4   29.40    2.90
   5   3  -4   32.00    3.50
  -5   3   4   22.90    3.00
  -4  -3   4    4.10    1.80
   4  -3  -4    5.00    1.30
   4  -3  -4    3.30    1.40
   4   3  -4    3.80    1.40
  -4   3   4    3.40    1.60
  -3  -3   4  780.92   40.60
  -3  -3   4  790.42   41.30
   3  -3  -4  741.43   40.90
   3   3  -4  827.82   40.80
   3   3  -4  789.02   41.10
  -3   3   4  799.32   41.20
  -3   3   4  775.72   40.50
   3   3  -4  751.32   40.80
   2  -3  -4    0.80    0.90
   2  -3  -4    0.10    0.90
  -2  -3   4    0.60    1.00
   2  -3  -4   -0.50    0.70
   2  -3  -4    0.50    0.90
  -2  -3   4   -0.60    0.70
   2   3  -4    0.20    1.30
   2   3  -4    1.20    0.90
  -2   3   4   -0.40    0.90
   2   3  -4    0.50    0.90
  -2   3   4    0.90    1.00
   1  -3  -4 1664.93   88.69
   1  -3  -4 1717.43   88.19
  -1  -3   4 1704.23   88.49
  -1  -3   4 1843.42   88.29
  -1  -3   4 1680.73   88.39
   1  -3  -4 1826.02   88.59
   1  -3  -4 1616.24   88.29
  -1   3   4 1764.02   88.49
   1   3  -4 1837.42   88.59
   1   3  -4 1699.43   88.49
  -1   3   4 1678.63   88.19
   0  -3  -4   95.59    6.00
   0  -3   4  104.39    6.20
   0  -3   4   95.39    6.40
   0  -3   4  100.29    6.40
   0  -3  -4  108.99    6.40
   0  -3  -4  104.39    6.40
   0  -3  -4   90.59    6.10
   0  -3   4   99.79    6.20
   0   3   4  101.69    6.30
   0   3  -4   99.89    6.20
   0   3  -4  104.39    6.40
   0   3   4  100.39    6.40
  -1  -3  -4  243.98   12.90
  -1  -3  -4  231.68   13.30
   1  -3   4  231.58   12.70
   1  -3   4  219.48   13.10
   1  -3   4  226.48   13.40
   1   3   4  252.37   13.00
   1   3   4  223.38   13.20
   1   3   4  219.08   13.00
  -1   3  -4  234.18   13.20
  -1   3  -4  229.48   12.90
   2  -3   4  583.04   31.90
   2  -3   4  541.85   31.30
  -2  -3  -4  585.04   30.80
  -2  -3  -4  603.34   31.60
   2  -3   4  627.64   30.80
  -2   3  -4  574.14   30.90
  -2   3  -4  595.34   31.40
   2   3   4  628.44   31.10
   2   3   4  588.04   31.60
   2   3   4  558.54   31.00
   3  -3   4   21.80    3.00
  -3  -3  -4   20.60    3.00
   3  -3   4   20.60    3.40
  -3  -3  -4   23.60    2.60
   3   3   4   22.00    3.20
  -3   3  -4   21.80    5.00
   3   3   4   23.70    2.70
   3   3   4   22.10    2.80
   4  -3   4   87.79    6.80
   4  -3   4   94.79    7.80
  -4  -3  -4  103.09    7.20
  -4  -3  -4   85.09    6.10
   4   3   4  104.39    6.60
  -4   3  -4   87.79    6.70
   4   3   4   95.89    7.20
   4   3   4   87.89    6.10
   5  -3   4   25.40    4.50
  -5  -3  -4   17.10    3.70
   5  -3   4   26.30    3.70
   5   3   4   19.40    3.60
  -5   3  -4   29.10    3.80
   5   3   4   22.30    3.70
   5   3   4   28.50    4.40
   6  -3   4   47.30    5.00
   6  -3   4   46.40    6.10
   6   3   4   45.80    5.80
   6   3   4   49.30    5.30
   7  -3   4    9.80    2.70
   7  -3   4    6.90    4.20
   7   3   4    7.60    3.00
  -7   3  -4    8.20    3.10
   9  -4  -4    3.20    2.40
   9  -4  -4   -2.10    2.00
   9  -4  -4    0.90    2.40
   9   4  -4    1.80    1.90
   9   4  -4   -0.70    1.90
   8  -4  -4   -0.80    2.20
   8  -4  -4    0.00    2.10
   8  -4  -4    0.60    1.70
   8  -4  -4   -1.30    2.20
   8   4  -4    0.90    1.90
   8   4  -4   -0.20    2.00
   7  -4  -4    5.00    2.40
   7  -4  -4    5.40    2.50
   7   4  -4    5.00    2.50
   7   4  -4    9.60    2.20
   7   4  -4    5.70    2.90
   6  -4  -4    6.10    2.30
   6  -4  -4    8.10    2.10
  -6   4   4    7.40    2.90
   6   4  -4    8.70    2.20
   6   4  -4    8.70    2.20
   5  -4  -4    8.40    2.20
   5  -4  -4    6.60    1.70
  -5   4   4    9.40    2.40
  -5   4   4    8.80    2.00
   5   4  -4    8.40    1.90
   4  -4  -4  116.09    7.30
  -4  -4   4  121.29    8.10
   4  -4  -4  122.19    7.60
   4  -4  -4  114.99    7.80
   4   4  -4  114.09    6.90
  -4   4   4  109.49    7.20
  -4   4   4  117.19    8.20
   4   4  -4  113.19    7.70
  -3  -4   4   20.30    2.40
  -3  -4   4   16.70    2.90
   3  -4  -4   20.30    2.40
   3  -4  -4   21.90    2.70
   3  -4  -4   21.50    2.80
   3   4  -4   20.50    2.80
  -3   4   4   24.50    2.60
   3   4  -4   21.50    2.60
   3   4  -4   19.40    2.60
  -3   4   4   22.70    3.00
  -2  -4   4   94.99    6.30
  -2  -4   4   91.19    5.60
   2  -4  -4   91.59    5.50
   2  -4  -4   98.49    6.20
   2  -4  -4   82.79    6.00
   2   4  -4   95.39    6.10
   2   4  -4   88.09    5.70
  -2   4   4   98.99    6.30
  -2   4   4   95.79    6.00
   2   4  -4   85.99    6.10
  -1  -4   4   58.49    4.40
   1  -4  -4   60.99    4.40
   1  -4  -4   54.59    4.20
  -1  -4   4   62.09    4.10
   1  -4  -4   57.49    4.10
   1   4  -4   65.29    4.50
   1   4  -4   55.59    4.40
  -1   4   4   61.19    4.40
  -1   4   4   56.39    4.10
   0  -4  -4    3.00    1.20
   0  -4  -4    6.50    1.40
   0  -4   4    4.90    1.30
   0  -4  -4    3.60    1.20
   0  -4   4    6.30    1.40
   0  -4   4    5.30    1.40
   0  -4  -4    5.20    1.20
   0  -4   4    5.30    1.20
   0   4  -4    5.20    1.40
   0   4  -4    4.50    1.40
   0   4   4    4.90    1.40
   0   4   4    4.10    1.40
   0   4  -4    5.20    1.10
   0   4   4    3.60    1.30
   1  -4   4    8.90    1.80
  -1  -4  -4   10.70    1.90
   1  -4   4   11.10    2.20
  -1  -4  -4   12.30    1.90
   1  -4   4   11.10    1.90
  -1  -4  -4   11.80    2.20
  -1   4  -4   14.40    1.90
  -1   4  -4   11.10    2.10
   1   4   4   14.40    2.00
   1   4   4   11.30    2.10
   1   4   4    8.00    1.70
  -2  -4  -4   27.00    2.70
   2  -4   4   23.90    3.40
   2  -4   4   29.40    2.80
  -2  -4  -4   21.30    3.00
   2  -4   4   22.70    3.10
  -2   4  -4   24.90    3.00
   2   4   4   28.80    2.80
   2   4   4   24.10    3.10
   2   4   4   23.60    2.80
  -2   4  -4   24.10    2.80
   3  -4   4  151.58   10.50
  -3  -4  -4  156.08    9.30
  -3  -4  -4  157.48   10.10
   3  -4   4  168.98    9.30
   3  -4   4  147.79    9.70
  -3   4  -4  152.18   10.80
   3   4   4  149.19   10.00
   3   4   4  168.28    9.40
   3   4   4  147.29    9.30
   4  -4   4    8.70    2.10
   4  -4   4    4.80    1.50
  -4  -4  -4    5.90    1.80
  -4  -4  -4    5.30    2.20
   4  -4   4    5.10    2.20
   4   4   4    6.00    1.80
  -4   4  -4    8.80    2.20
   4   4   4    8.40    1.80
   4   4   4    7.30    2.20
   5  -4   4   -0.90    1.90
   5  -4   4    0.60    1.50
   5   4   4    1.10    2.10
  -5   4  -4    0.20    1.90
   5   4   4    0.00    1.60
   5   4   4    0.80    1.60
   6  -4   4   17.70    3.90
   6  -4   4   22.30    3.70
   6   4   4   12.70    3.70
   6   4   4   14.60    3.30
   6   4   4   15.10    2.90
   7  -4   4   19.90    6.10
   7   4   4   32.00    5.80
   7   4   4   23.70    4.60
  -7   4  -4   25.10    4.50
   8  -5  -4   -1.70    2.10
   8  -5  -4   -0.30    2.10
   8  -5  -4   -2.30    1.80
   8   5  -4   -0.90    1.70
   8   5  -4   -2.90    1.70
   8   5  -4    0.00    1.40
   7  -5  -4    0.70    1.70
   7  -5  -4   -1.30    1.70
   7   5  -4    0.90    2.00
  -7   5   4   -1.40    2.60
   6  -5  -4    1.80    1.70
   6  -5  -4    0.50    2.00
   6  -5  -4    0.10    1.30
   6   5  -4   -0.70    1.20
   6   5  -4   -2.30    1.40
  -5  -5   4   30.50    3.80
   5  -5  -4   36.30    3.60
   5  -5  -4   27.90    3.30
   5  -5  -4   33.60    3.90
  -5   5   4   30.50    3.70
   5   5  -4   31.00    3.50
  -5   5   4   23.90    4.00
   5   5  -4   32.70    4.00
   4  -5  -4   98.69    6.30
   4  -5  -4   84.69    6.40
   4  -5  -4   82.59    6.10
  -4  -5   4   91.79    6.90
  -4   5   4   93.49    7.10
  -4   5   4   88.99    6.20
   4   5  -4   84.19    6.30
   3  -5  -4 1202.98   59.09
  -3  -5   4 1179.58   59.39
   3  -5  -4 1094.49   58.89
   3  -5  -4 1066.99   59.19
  -3   5   4 1138.49   59.39
  -3   5   4 1145.09   58.99
   3   5  -4 1151.28   59.19
  -2  -5   4    0.80    0.90
   2  -5  -4    0.50    1.10
   2  -5  -4    1.10    1.10
  -2  -5   4    1.00    1.00
  -2   5   4    1.40    1.10
  -2   5   4    1.40    1.10
   2   5  -4    0.30    1.10
   2   5  -4    2.10    1.10
  -1  -5   4 1219.58   59.59
   1  -5  -4 1156.18   59.79
   1  -5  -4 1060.39   59.79
   1  -5  -4 1282.57   60.29
  -1  -5   4 1165.58   60.09
  -1   5   4 1123.79   59.79
  -1   5   4 1202.58   60.09
   1   5  -4 1046.70   59.99
  -1   5   4 1033.60   59.99
   1   5  -4 1262.27   60.29
  -1   5   4 1245.78   60.19
   0  -5   4  292.77   15.40
   0  -5   4  270.27   15.50
   0  -5   4  254.77   15.60
   0  -5  -4  259.97   15.10
   0  -5  -4  291.77   15.40
   0  -5   4  287.27   15.20
   0   5  -4  272.27   15.50
   0   5   4  279.37   15.50
   0   5  -4  306.97   15.70
   0   5   4  262.47   15.50
   0   5   4  284.77   15.30
   0   5  -4  269.97   15.30
  -1  -5  -4   37.70    3.30
  -1  -5  -4   43.20    3.50
   1  -5   4   36.30    3.70
   1  -5   4   44.80    3.50
  -1  -5  -4   42.80    3.80
   1  -5   4   39.00    3.80
   1   5   4   41.00    3.90
  -1   5  -4   43.20    3.70
   1   5   4   43.80    3.40
  -1   5  -4   40.00    3.90
  -1   5  -4   40.20    3.60
   1   5   4   38.00    3.60
   2  -5   4    1.50    1.40
   2  -5   4    0.80    1.10
   2  -5   4    1.10    1.40
  -2  -5  -4    0.70    1.00
  -2  -5  -4    3.10    1.40
   2   5   4    1.10    1.30
  -2   5  -4    1.00    1.20
   2   5   4    1.20    1.20
  -2   5  -4    1.10    1.20
  -2   5  -4    0.80    1.50
   2   5   4    1.80    1.20
   3  -5   4   75.89    5.30
   3  -5   4   78.39    6.50
  -3  -5  -4   72.19    5.30
  -3  -5  -4   78.89    6.00
   3  -5   4   71.99    5.70
  -3   5  -4   74.29    5.60
   3   5   4   74.79    5.30
   3   5   4   70.09    5.40
   3   5   4   68.29    6.00
   4  -5   4   14.50    2.80
   4  -5   4   14.70    3.30
   4  -5   4   10.80    2.40
  -4  -5  -4   15.00    2.80
  -4  -5  -4   16.00    3.20
   4   5   4   14.10    2.50
  -4   5  -4   14.60    2.80
   4   5   4   12.50    2.60
   4   5   4   15.20    3.40
   5  -5   4    0.70    1.60
   5  -5   4   -0.50    2.20
  -5  -5  -4    0.50    1.90
   5   5   4    3.30    1.60
   5   5   4    1.30    1.40
   5   5   4   -1.00    1.60
  -5   5  -4    1.30    1.90
   6  -5   4    8.00    3.20
  -6  -5  -4   14.00    2.70
   6  -5   4   11.30    2.60
   6   5   4   12.50    3.00
   6   5   4   17.30    3.00
   6   5   4   12.70    3.50
   7   5   4    1.90    4.40
   8  -6  -4    0.40    2.40
   8  -6  -4    3.70    2.30
   8  -6  -4    0.30    2.30
  -8   6   4    4.40    3.20
   8   6  -4    0.90    1.80
   8   6  -4    0.30    1.80
   8   6  -4   -0.70    1.90
   7  -6  -4   20.00    3.40
   7  -6  -4   13.10    2.70
   7  -6  -4   11.50    2.80
  -7   6   4   16.70    3.50
   7   6  -4   14.30    2.90
   6  -6  -4    7.40    2.20
   6  -6  -4    9.60    2.20
   6  -6  -4    4.10    2.20
  -6   6   4    6.20    3.00
   6   6  -4    7.00    2.50
   6   6  -4    8.00    2.00
  -5  -6   4    2.40    1.70
   5  -6  -4   -0.10    1.40
   5  -6  -4    2.90    1.70
   5  -6  -4   -0.10    1.40
  -5   6   4   -1.70    1.60
  -5   6   4   -1.10    1.90
   5   6  -4    2.30    1.60
   5   6  -4    2.50    1.30
   4  -6  -4   22.00    3.00
   4  -6  -4   27.60    3.40
   4  -6  -4   21.60    3.00
  -4  -6   4   24.20    4.20
  -4   6   4   22.80    3.40
   4   6  -4   23.00    3.10
  -4   6   4   28.90    3.40
   4   6  -4   21.80    3.20
   3  -6  -4   36.60    3.80
   3  -6  -4   46.30    3.80
   3  -6  -4   37.30    3.70
  -3  -6   4   35.80    3.80
   3   6  -4   33.50    3.80
  -3   6   4   37.70    3.80
   3   6  -4   37.40    3.90
  -3   6   4   42.80    4.00
   2  -6  -4  570.84   33.10
  -2  -6   4  613.44   32.50
   2  -6  -4  681.53   33.30
  -2  -6   4  612.74   33.30
   2   6  -4  590.54   33.20
   2   6  -4  674.23   33.40
  -2   6   4  626.34   33.40
  -2   6   4  646.84   33.30
   1  -6  -4   39.40    3.40
  -1  -6   4   39.30    3.00
   1  -6  -4   34.50    3.20
   1  -6  -4   33.10    3.10
  -1  -6   4   36.70    3.10
  -1  -6   4   37.70    3.30
  -1   6   4   41.70    3.60
  -1   6   4   34.50    3.40
  -1   6   4   41.50    4.30
  -1   6   4   32.40    3.40
   1   6  -4   34.00    3.30
   1   6  -4   41.50    3.50
   1   6  -4   35.40    3.10
   0  -6  -4    0.10    0.90
   0  -6   4    0.50    1.00
   0  -6   4    0.40    0.90
   0  -6  -4    2.10    1.00
   0  -6  -4    0.50    0.90
   0   6   4    0.50    1.10
   0   6   4    0.00    0.90
   0   6  -4   -0.40    0.90
   0   6  -4   -0.20    0.90
   0   6   4    1.80    1.00
   0   6  -4    0.40    0.90
   1  -6   4   39.80    4.00
  -1  -6  -4   48.50    4.20
   1  -6   4   50.19    4.10
  -1  -6  -4   47.40    3.90
   1  -6   4   47.10    4.30
  -1  -6  -4   48.90    3.70
  -1   6  -4   43.20    3.90
  -1   6  -4   51.49    4.10
   1   6   4   41.50    4.00
   1   6   4   53.29    3.80
   1   6   4   47.60    4.20
  -1   6  -4   46.30    4.30
  -2  -6  -4  286.17   15.50
   2  -6   4  302.47   15.60
   2  -6   4  251.47   15.60
  -2  -6  -4  280.77   16.30
   2  -6   4  258.67   16.10
  -2   6  -4  259.57   15.50
  -2   6  -4  277.07   15.70
   2   6   4  267.87   16.00
   2   6   4  245.98   15.50
  -2   6  -4  289.27   16.80
   2   6   4  301.57   15.30
  -3  -6  -4   51.19    4.30
   3  -6   4   51.99    4.20
   3  -6   4   46.00    5.10
  -3  -6  -4   46.90    4.70
   3  -6   4   46.30    4.40
  -3   6  -4   53.69    4.50
   3   6   4   44.70    4.70
   3   6   4   41.60    4.20
  -3   6  -4   40.70    5.50
   3   6   4   53.79    4.30
   4  -6   4   -1.20    1.60
   4  -6   4    0.00    1.50
  -4  -6  -4    2.30    1.50
   4   6   4   -0.70    2.60
   4   6   4   -2.10    1.20
   4   6   4    1.60    1.90
  -4   6  -4    2.00    1.30
  -5  -6  -4   -0.20    1.70
   5  -6   4    0.20    2.00
   5  -6   4   -0.70    1.50
   5   6   4    1.60    1.80
  -5   6  -4   -2.80    1.70
   5   6   4   -0.70    1.40
   5   6   4   -2.00    1.60
   6  -6   4   -1.60    2.10
   6  -6   4    2.10    1.80
  -6  -6  -4    1.00    2.10
   6  -6   4    2.20    2.10
   6   6   4    1.90    1.70
   6   6   4    1.10    2.30
   6   6   4   -3.00    2.10
   7  -6   4    0.10    1.90
   7  -6   4    1.80    2.60
   7   6   4    9.20    4.30
   7   6   4   -4.30    3.20
   7   6   4    0.20    2.30
   8  -7  -4   10.50    3.10
   8  -7  -4   15.40    2.80
   8   7  -4   11.90    2.90
   8   7  -4   10.50    2.90
   7  -7  -4    4.00    2.20
   7  -7  -4    7.10    2.20
   7  -7  -4    3.00    2.20
   7   7  -4    8.60    2.50
   7   7  -4    7.90    2.00
  -7   7   4    2.80    3.00
   6  -7  -4   28.80    3.90
   6  -7  -4   30.00    3.80
   6  -7  -4   26.40    4.30
   6   7  -4   30.60    3.60
   6   7  -4   26.00    3.90
  -6   7   4   23.50    4.50
   5  -7  -4    1.70    1.70
   5  -7  -4    2.60    1.60
   5  -7  -4    4.80    2.60
  -5  -7   4    0.70    1.50
   5   7  -4    2.80    1.80
   5   7  -4    1.60    1.30
  -5   7   4   -0.20    1.80
  -5   7   4    0.30    2.10
   4  -7  -4   33.50    3.30
   4  -7  -4   29.50    3.70
  -4  -7   4   20.70    3.30
   4  -7  -4   24.90    3.30
   4   7  -4   27.00    3.50
  -4   7   4   31.00    3.70
  -4   7   4   22.40    3.50
   4   7  -4   26.10    3.30
   3  -7  -4   52.49    4.60
   3  -7  -4   63.09    4.80
   3  -7  -4   58.99    4.90
  -3  -7   4   60.39    5.20
   3   7  -4   52.49    4.70
  -3   7   4   57.19    4.90
   3   7  -4   56.89    4.90
   2  -7  -4   97.69    6.20
   2  -7  -4   81.29    6.00
  -2  -7   4   85.19    6.10
   2   7  -4   73.19    6.00
  -2   7   4   87.09    6.20
   2   7  -4   94.29    6.30
  -2   7   4   90.69    6.30
   2   7  -4   85.39    6.20
   1  -7  -4   21.60    2.60
   1  -7  -4   24.70    2.70
  -1  -7   4   21.80    2.30
  -1  -7   4   18.80    2.50
  -1  -7   4   20.80    2.60
  -1   7   4   20.80    2.80
  -1   7   4   23.40    2.80
   1   7  -4   26.10    2.90
   1   7  -4   20.90    2.70
   1   7  -4   24.10    2.60
   1   7  -4   21.00    2.70
  -1   7   4   26.10    3.00
  -1   7   4   24.90    2.60
   0  -7   4    3.40    1.40
   0  -7   4    3.80    1.40
   0  -7  -4    4.60    1.20
   0  -7  -4    5.20    1.40
   0   7   4    4.70    1.50
   0   7  -4    2.50    1.10
   0   7  -4    5.90    1.40
   0   7  -4    2.50    1.20
   0   7  -4    3.00    1.40
   0   7   4    4.60    1.40
   0   7   4    3.30    1.30
   1  -7   4  102.19    6.60
   1  -7   4   85.59    6.60
   1  -7   4   98.79    6.80
  -1  -7  -4   92.49    6.10
  -1  -7  -4   94.49    6.40
  -1   7  -4   86.59    6.40
  -1   7  -4   97.49    7.00
  -1   7  -4   99.49    6.70
   1   7   4   82.49    6.50
   1   7   4  102.29    6.30
  -1   7  -4  104.39    7.40
   1   7   4   91.09    6.60
  -2  -7  -4  101.89    7.60
   2  -7   4  117.29    7.20
   2  -7   4  100.29    7.70
   2  -7   4   95.19    7.10
   2   7   4   98.39    7.20
  -2   7  -4  102.09    9.10
   2   7   4  104.49    7.60
  -2   7  -4  110.99    8.20
  -2   7  -4  101.69    7.20
   2   7   4  120.09    6.90
   3  -7   4   22.70    3.10
   3  -7   4   17.00    3.70
   3  -7   4   29.20    4.80
  -3  -7  -4   25.70    3.30
  -3   7  -4   13.80    3.50
   3   7   4   19.80    3.50
  -3   7  -4   26.50    3.20
   3   7   4   16.00    3.00
   4  -7   4   69.69    5.80
   4  -7   4   77.69    5.90
  -4  -7  -4   68.99    5.80
   4  -7   4   65.29    6.60
  -4   7  -4   72.79    5.80
   4   7   4   74.69    6.50
   4   7   4   71.09    5.80
   5  -7   4    7.20    2.20
   5  -7   4    8.20    2.10
  -5  -7  -4    2.80    2.10
   5  -7   4    4.30    2.60
   5   7   4    4.40    1.90
  -5   7  -4    7.20    2.30
   5   7   4    5.20    2.30
   6  -7   4    1.10    2.10
  -6  -7  -4   -2.60    2.10
   6  -7   4    1.20    2.60
   6  -7   4    0.40    1.80
   6   7   4   -0.30    1.70
   6   7   4    0.40    2.10
   7  -7   4    1.00    2.70
   7  -7   4    0.10    2.00
   7  -7   4    4.70    2.70
   7   7   4   -0.50    2.90
   7   7   4    0.30    1.90
  -7   7  -4   -0.90    3.20
   7   7   4   -0.50    2.40
   8  -8  -4   -0.90    2.00
   8  -8  -4   -1.70    2.60
   8   8  -4    1.90    1.70
   8   8  -4   -0.90    1.90
   8   8  -4    1.80    2.30
   7  -8  -4    1.00    1.90
   7  -8  -4   -1.60    3.40
   7  -8  -4   -1.60    1.90
   7   8  -4    1.70    1.70
   7   8  -4   -0.20    1.70
  -7   8   4    3.20    3.10
   6  -8  -4    2.90    2.00
  -6  -8   4    3.50    2.40
   6  -8  -4    2.00    1.90
   6  -8  -4    1.50    2.10
   6   8  -4    2.30    1.50
  -6   8   4    2.30    2.50
   6   8  -4    1.80    1.90
   5  -8  -4   20.10    3.50
   5  -8  -4   18.30    4.40
  -5  -8   4   20.50    3.60
   5  -8  -4   24.70    3.50
   5   8  -4   22.80    3.30
   5   8  -4   19.40    3.70
  -5   8   4   22.40    4.20
   4  -8  -4    6.40    2.70
  -4  -8   4    6.40    2.10
   4  -8  -4    7.50    1.90
   4  -8  -4    4.70    1.90
   4   8  -4    5.90    1.80
  -4   8   4   10.00    2.50
   4   8  -4    8.30    2.20
  -4   8   4    3.40    2.20
   3  -8  -4   74.59    6.00
  -3  -8   4   74.99    5.90
   3  -8  -4   77.59    6.00
   3  -8  -4   83.29    5.90
  -3   8   4   83.89    6.30
  -3   8   4   83.69    6.30
   3   8  -4   78.39    6.00
   3   8  -4   69.99    5.80
   2  -8  -4   32.40    3.50
   2  -8  -4   32.00    3.50
  -2  -8   4   35.60    4.20
   2   8  -4   31.60    3.40
  -2   8   4   38.50    4.00
  -2   8   4   30.90    3.60
   2   8  -4   34.10    3.70
  -2   8   4   37.10    3.80
   2   8  -4   41.60    4.60
   1  -8  -4   -0.50    1.10
  -1  -8   4   -0.60    1.00
   1  -8  -4   -1.00    0.90
  -1  -8   4    0.30    0.90
  -1  -8   4    0.10    0.80
   1   8  -4    0.00    1.00
   1   8  -4    0.90    1.10
  -1   8   4   -0.50    1.00
   1   8  -4   -1.10    1.10
  -1   8   4   -0.50    1.30
  -1   8   4    0.40    1.20
   1   8  -4    0.30    1.10
  -1   8   4   -0.40    1.10
   0  -8   4   81.89    5.80
   0  -8   4   75.19    5.60
   0  -8  -4   84.59    5.80
   0  -8  -4   72.69    5.20
   0   8  -4   86.49    5.80
   0   8   4   64.29    5.60
   0   8   4   75.49    5.60
   0   8   4   78.69    5.50
   0   8  -4   75.79    5.70
   0   8  -4   76.79    5.40
   0   8   4   82.19    6.10
   0   8  -4   71.49    5.60
   1  -8   4    1.10    1.40
   1  -8   4    1.50    1.30
  -1  -8  -4   -1.10    1.20
  -1  -8  -4   -0.60    1.00
  -1   8  -4    0.60    0.90
   1   8   4   -0.30    1.30
   1   8   4    0.60    1.30
  -1   8  -4    2.20    1.40
   1   8   4   -0.20    1.10
  -1   8  -4    0.40    1.30
   2  -8   4    2.60    1.30
  -2  -8  -4   -0.30    1.00
   2  -8   4    0.80    1.40
   2  -8   4   -0.20    1.50
  -2   8  -4    0.70    1.70
  -2   8  -4    0.60    1.10
   2   8   4   -0.90    1.20
  -2   8  -4    0.70    1.30
   2   8   4    0.40    1.50
   2   8   4    0.20    1.40
   3  -8   4   39.20    4.20
   3  -8   4   36.50    4.80
   3  -8   4   43.70    4.20
  -3  -8  -4   35.30    4.00
  -3   8  -4   40.50    4.00
   3   8   4   34.40    4.10
  -3   8  -4   40.60    5.50
   3   8   4   37.10    4.50
   4  -8   4   67.79    5.70
   4  -8   4   66.39    5.50
  -4  -8  -4   57.89    5.50
   4  -8   4   57.29    6.40
  -4   8  -4   62.89    5.40
   4   8   4   63.19    6.00
   4   8   4   53.09    5.40
   5  -8   4    3.00    3.40
  -5  -8  -4   -1.00    2.00
   5  -8   4   -1.00    2.10
   5   8   4    0.30    2.00
  -5   8  -4    4.40    1.90
   5   8   4   -1.60    1.60
   6  -8   4    8.60    3.10
   6  -8   4   11.10    2.70
  -6  -8  -4    2.10    3.70
   6  -8   4    5.00    2.70
   6   8   4    5.20    2.10
   6   8   4    8.70    2.70
   7  -9  -4   23.30    4.20
   7  -9  -4   17.90    3.80
   7   9  -4   23.00    4.00
   7   9  -4   23.40    3.80
   6  -9  -4    4.60    2.00
   6  -9  -4    2.50    2.00
   6  -9  -4   -0.80    1.90
  -6  -9   4   -0.40    2.20
   6   9  -4    1.00    2.00
  -6   9   4    6.40    2.70
   5  -9  -4  127.89    8.30
   5  -9  -4  106.99    8.30
   5  -9  -4  110.19    8.70
  -5  -9   4  127.69    8.80
   5   9  -4  114.59    8.30
  -5   9   4  125.49    8.90
   5   9  -4  116.69    8.90
   4  -9  -4   38.00    4.40
  -4  -9   4   30.90    4.00
   4  -9  -4   33.60    3.90
   4  -9  -4   36.80    4.20
   4   9  -4   29.50    3.80
   4   9  -4   36.50    4.20
  -4   9   4   36.70    4.60
  -4   9   4   34.80    4.90
   3  -9  -4  170.58   10.20
  -3  -9   4  157.78   10.00
   3  -9  -4  147.39   10.10
   3  -9  -4  152.88   10.10
   3   9  -4  154.18   10.20
  -3   9   4  160.68   12.50
  -3   9   4  164.08   10.50
   3   9  -4  144.59    9.80
   2  -9  -4   -0.20    1.30
  -2  -9   4    0.90    1.20
   2  -9  -4    0.90    1.50
   2   9  -4    1.00    1.40
   2   9  -4    2.30    1.30
  -2   9   4    0.60    1.60
  -2   9   4   -0.80    1.40
   2   9  -4    1.10    1.10
  -2   9   4   -0.90    2.40
   1  -9  -4  165.78    9.90
  -1  -9   4  168.18    9.00
  -1  -9   4  159.28    9.60
   1  -9  -4  145.89    9.40
  -1  -9   4  144.09    9.20
   1   9  -4  126.19    9.40
  -1   9   4  148.59    9.30
  -1   9   4  152.78   11.50
   1   9  -4  159.68    9.80
   1   9  -4  164.08    9.60
  -1   9   4  151.88    9.70
   1   9  -4  155.68    9.60
   0  -9   4   27.70    3.30
   0  -9  -4   26.00    3.20
   0  -9  -4   26.30    3.20
   0  -9   4   34.40    3.50
   0   9   4   29.20    3.80
   0   9  -4   25.90    3.30
   0   9  -4   32.70    3.10
   0   9  -4   34.80    3.80
   0   9   4   26.40    3.30
   0   9  -4   36.20    3.50
   0   9   4   24.10    3.40
   0   9   4   22.90    3.40
  -1  -9  -4   57.49    4.70
  -1  -9  -4   65.19    5.30
   1  -9   4   74.59    5.40
   1  -9   4   60.89    5.40
   1   9   4   57.99    5.40
  -1   9  -4   61.29    5.20
  -1   9  -4   72.39    6.80
   1   9   4   67.69    5.10
   1   9   4   65.59    5.60
  -1   9  -4   65.19    4.70
  -1   9  -4   71.99    5.30
   2  -9   4   71.29    6.20
  -2  -9  -4   73.09    5.70
   2  -9   4   74.59    5.80
   2   9   4   67.29    6.00
  -2   9  -4   74.99    6.60
  -2   9  -4   76.39    5.70
   2   9   4   61.69    5.80
   2   9   4   72.49    5.50
  -3  -9  -4    4.30    1.70
   3  -9   4    4.10    1.70
   3  -9   4    1.80    1.70
   3  -9   4    5.10    2.50
   3   9   4    4.40    3.10
  -3   9  -4    4.30    1.90
   3   9   4    3.20    1.70
  -3   9  -4   -0.60    2.50
  -4  -9  -4   23.10    3.70
   4  -9   4   21.50    4.00
   4  -9   4   27.10    4.00
   4  -9   4   23.60    3.70
  -4   9  -4   18.80    3.60
   4   9   4   25.90    4.20
   4   9   4   20.70    3.60
  -4   9  -4   22.90    5.00
   5  -9   4    1.00    1.80
   5  -9   4    0.30    2.30
   5  -9   4    2.00    2.20
  -5  -9  -4    4.00    2.60
  -5   9  -4    2.80    2.30
   5   9   4    0.60    2.00
   5   9   4    1.80    1.90
   6  -9   4   12.90    3.00
   6  -9   4   16.70    3.90
  -6  -9  -4   19.60    3.80
   6  -9   4   16.70    3.20
   6   9   4   15.00    3.30
   6   9   4    9.50    2.70
   8 -10  -4   -1.00    2.00
   8 -10  -4    6.20    2.30
   8  10  -4    1.70    3.40
   8  10  -4    1.40    2.10
   8  10  -4   -1.40    2.00
   7 -10  -4    8.70    2.60
   7 -10  -4    7.60    2.70
   7 -10  -4    2.00    2.40
   7  10  -4    7.00    2.30
   7  10  -4    6.40    2.80
   6 -10  -4    1.60    2.00
  -6 -10   4    1.20    2.20
   6 -10  -4    1.30    2.00
   6 -10  -4    1.90    2.30
   6  10  -4    1.10    2.00
   6  10  -4    2.10    1.50
  -5 -10   4  210.08   13.00
   5 -10  -4  190.18   12.90
   5 -10  -4  214.08   12.30
   5 -10  -4  178.98   12.40
   5  10  -4  189.68   12.80
  -5  10   4  210.98   13.40
   5  10  -4  184.58   12.30
   4 -10  -4   27.50    3.90
   4 -10  -4   22.90    3.80
   4 -10  -4   24.10    3.90
  -4 -10   4   24.90    3.90
   4  10  -4   22.00    4.20
  -4  10   4   18.70    3.80
  -4  10   4   20.90    4.30
   4  10  -4   27.60    3.60
   3 -10  -4  146.69   10.10
   3 -10  -4  176.18   10.20
   3 -10  -4  145.39   10.20
  -3 -10   4  155.68   10.10
  -3  10   4  155.58   10.60
  -3  10   4  167.78   10.70
   3  10  -4  147.39   10.20
   3  10  -4  142.09    9.80
  -2 -10   4  165.58   10.50
   2 -10  -4  208.08   11.60
  -2 -10   4  188.78   11.30
   2 -10  -4  166.78   11.00
   2  10  -4  193.08   11.00
   2  10  -4  184.68   11.40
  -2  10   4  175.88   10.50
  -2  10   4  181.98   11.50
  -2  10   4  153.58   11.10
  -2  10   4  200.78   11.80
   2  10  -4  191.98   11.50
   2  10  -4  157.58   11.00
   1 -10  -4  169.78   11.10
   1 -10  -4  199.28   11.60
  -1 -10   4  190.68   11.50
  -1 -10   4  169.28   11.00
  -1  10   4  188.68   11.20
   1  10  -4  179.18   11.30
  -1  10   4  202.68   12.00
   1  10  -4  203.78   11.70
  -1  10   4  187.88   11.50
   1  10  -4  196.28   11.60
   1  10  -4  166.58   11.40
   0 -10  -4   -1.40    1.30
   0 -10   4    1.90    1.50
   0 -10  -4   -0.50    1.20
   0 -10   4    2.60    1.40
   0  10  -4    2.00    1.40
   0  10  -4    1.40    1.10
   0  10  -4    2.30    1.70
   0  10  -4    1.70    1.40
   0  10   4   -1.20    1.70
   0  10   4    0.10    1.60
   0  10   4   -0.90    1.50
   0  10   4   -1.30    1.60
  -1 -10  -4  321.87   19.00
   1 -10   4  333.77   20.00
  -1 -10  -4  366.06   19.90
   1 -10   4  374.86   20.00
  -1  10  -4  293.97   19.70
   1  10   4  405.66   20.80
   1  10   4  338.27   20.00
  -1  10  -4  373.66   20.00
   1  10   4  310.57   19.90
  -1  10  -4  350.26   19.10
  -1  10  -4  374.76   20.50
   1  10   4  362.96   19.40
   2 -10   4   99.29    7.90
  -2 -10  -4  106.79    7.50
   2 -10   4  112.99    7.60
  -2  10  -4  107.09    7.50
   2  10   4   85.59    7.40
   2  10   4  104.59    7.90
  -2  10  -4  105.79    8.40
  -3 -10  -4   20.20    3.30
   3 -10   4   23.80    3.70
   3 -10   4   20.20    3.90
   3  10   4   19.90    3.50
   3  10   4   20.40    4.00
  -3  10  -4   20.90    3.30
  -3  10  -4   28.20    5.10
   4 -10   4    0.50    2.00
  -4 -10  -4    3.80    1.90
   4 -10   4    2.90    1.90
  -4  10  -4    4.40    2.30
  -4  10  -4    4.50    3.70
   4  10   4    2.50    1.90
   4  10   4    1.00    2.00
   5 -10   4   -2.30    2.10
   5 -10   4   -2.40    1.80
   5 -10   4   -0.50    2.00
   5  10   4    1.30    2.20
   5  10   4    1.70    2.00
   6 -10   4    3.10    2.20
   6 -10   4   -0.10    1.90
   6 -10   4   -1.50    2.60
  -6  10  -4    7.40    4.40
   6  10   4   -1.70    2.10
   6  10   4    1.80    2.20
   7 -11  -4    2.90    2.10
   7  11  -4    3.00    2.00
   6 -11  -4    6.70    2.50
   6  11  -4   10.30    2.40
   6  11  -4   11.50    2.80
   5 -11  -4   11.90    4.30
   5 -11  -4   15.20    3.20
  -5 -11   4   15.80    3.30
   5 -11  -4   20.70    3.80
   5  11  -4    9.10    2.70
   5  11  -4   13.80    3.10
   4 -11  -4    2.20    2.00
  -4 -11   4   -0.70    1.80
   4 -11  -4    2.60    2.00
   4 -11  -4    2.30    1.70
  -4  11   4    1.50    2.70
   4  11  -4    3.70    1.80
  -4  11   4    1.10    2.50
   4  11  -4    2.50    1.90
   3 -11  -4  400.66   24.00
  -3 -11   4  426.96   24.10
   3 -11  -4  404.46   24.30
   3 -11  -4  490.35   24.30
   3  11  -4  377.56   23.80
  -3  11   4  466.05   24.90
   3  11  -4  413.56   24.30
   3  11  -4  460.05   23.70
  -3  11   4  438.46   24.70
  -2 -11   4   23.90    3.20
   2 -11  -4   29.70    4.00
  -2 -11   4   29.10    3.60
   2 -11  -4   29.20    3.70
   2  11  -4   30.90    4.00
  -2  11   4   26.00    4.60
   2  11  -4   29.40    3.70
  -2  11   4   23.80    3.20
   2  11  -4   25.90    3.80
   2  11  -4   30.70    3.90
  -2  11   4   20.60    3.60
  -1 -11   4  494.25   28.90
   1 -11  -4  598.54   29.70
  -1 -11   4  563.24   29.50
   1 -11  -4  503.25   28.90
   1  11  -4  585.34   29.60
  -1  11   4  600.04   30.20
  -1  11   4  456.85   29.20
  -1  11   4  518.65   29.00
   1  11  -4  586.04   29.80
   1  11  -4  531.25   29.30
   1  11  -4  491.95   29.40
   0 -11  -4   39.50    4.10
   0 -11  -4   48.20    4.70
   0 -11   4   39.50    4.50
   0 -11  -4   43.00    4.10
   0 -11   4   53.39    4.80
   0  11  -4   38.50    4.50
   0  11   4   35.00    4.70
   0  11   4   45.60    4.70
   0  11   4   45.40    4.70
   0  11  -4   44.20    4.20
   0  11  -4   45.50    4.60
   0  11   4   48.80    5.40
   1 -11   4   13.20    2.70
   1 -11   4   15.70    3.00
  -1 -11  -4   16.40    2.60
  -1 -11  -4   20.00    3.40
  -1  11  -4   20.70    4.30
   1  11   4   14.30    3.00
   1  11   4   13.30    2.70
  -1  11  -4   20.40    3.50
  -1  11  -4   18.20    3.10
   1  11   4   22.90    4.10
  -1  11  -4   16.90    2.70
   2 -11   4   23.40    3.90
   2 -11   4   31.30    3.90
  -2 -11  -4   24.40    3.70
  -2  11  -4   28.40    4.90
   2  11   4   20.10    3.70
   2  11   4   24.90    4.00
  -2  11  -4   25.60    3.60
   3 -11   4    2.30    1.80
   3 -11   4    3.40    2.00
  -3 -11  -4    0.00    1.50
  -3  11  -4    0.00    2.90
   3  11   4   -1.60    1.70
  -3  11  -4    4.70    2.10
   3  11   4    5.50    2.10
   4 -11   4    6.50    2.90
   4 -11   4   13.00    2.40
   4  11   4    7.50    2.40
   4  11   4    8.80    2.70
  -4  11  -4   10.20    2.60
   5 -11   4   -0.30    2.30
   5 -11   4   -1.00    2.20
  -5 -11  -4    4.80    2.40
   5  11   4    0.40    2.10
   5  11   4   -0.10    2.20
   6 -11   4    1.10    2.60
   6  11   4   -1.00    2.10
  -6  11  -4    8.10    3.10
   6  11   4    6.90    2.50
  -7 -12   4    7.50    3.40
   7 -12  -4    3.50    2.80
   7 -12  -4    5.90    2.80
   7 -12  -4    2.40    2.80
   7  12  -4    1.60    1.90
   7  12  -4    1.00    2.60
   6 -12  -4   14.20    2.60
   6 -12  -4    6.90    2.60
   6  12  -4   11.30    3.00
   5 -12  -4    6.50    2.50
   5 -12  -4    8.70    2.50
   5 -12  -4   13.10    2.80
   5  12  -4    7.90    2.70
   5  12  -4    9.80    2.10
   4 -12  -4    0.50    1.70
  -4 -12   4   -0.90    1.90
   4 -12  -4    1.40    1.90
   4 -12  -4    2.90    2.30
   4  12  -4    2.00    1.80
  -4  12   4    2.10    2.50
   4  12  -4    8.00    2.60
  -4  12   4    4.90    2.60
   3 -12  -4    5.30    2.40
   3 -12  -4    4.10    1.80
  -3 -12   4    2.80    2.00
   3 -12  -4    1.60    1.90
   3  12  -4    5.60    3.00
   3  12  -4    2.80    2.00
   3  12  -4    2.40    1.70
  -3  12   4   -1.60    2.10
  -3  12   4    2.60    2.60
  -3  12   4    5.00    1.80
  -2 -12   4   13.70    2.90
   2 -12  -4   27.40    3.70
   2 -12  -4   25.20    3.40
  -2 -12   4   18.00    3.40
   2  12  -4   12.00    2.60
  -2  12   4   13.60    3.10
   2  12  -4   21.10    4.10
   2  12  -4   20.80    3.40
  -2  12   4   19.70    3.00
  -2  12   4   26.50    4.40
  -2  12   4   20.30    3.30
  -1 -12   4   63.29    5.70
  -1 -12   4   58.09    5.20
   1 -12  -4   72.49    5.80
   1 -12  -4   61.49    5.20
   1  12  -4   79.69    6.50
  -1  12   4   68.79    5.90
  -1  12   4   69.89    6.40
   1  12  -4   70.99    5.90
  -1  12   4   63.49    5.30
  -1  12   4   55.79    5.50
   1  12  -4   54.79    5.40
   1  12  -4   52.49    5.60
   0 -12  -4    7.70    2.00
   0 -12  -4    6.20    1.70
   0 -12   4    5.40    2.10
   0 -12  -4    2.40    1.30
   0 -12   4    2.30    1.80
   0  12  -4    2.40    1.60
   0  12   4    4.20    1.90
   0  12  -4    9.00    2.90
   0  12  -4    2.20    1.80
   0  12   4    4.70    2.00
   0  12   4    4.60    1.70
   0  12   4    4.10    2.20
   0  12  -4    4.00    2.00
   1 -12   4   71.29    5.90
  -1 -12  -4   55.69    7.40
   1 -12   4   60.39    5.70
   1  12   4   55.49    5.80
  -1  12  -4   72.69    5.90
  -1  12  -4   55.39    6.50
  -1  12  -4   65.89    5.00
  -1  12  -4   57.59    6.80
   2 -12   4    9.60    2.40
   2 -12   4   11.10    3.30
   2  12   4    9.10    2.50
   2  12   4    8.70    2.40
   3 -12   4    9.60    2.70
   3 -12   4   11.90    2.70
  -3  12  -4   15.00    3.00
   3  12   4   14.20    3.00
   3  12   4    8.90    2.80
  -3  12  -4   18.40    5.10
  -4 -12  -4    4.60    2.30
   4 -12   4    1.90    2.40
   4 -12   4   -0.40    2.20
   4  12   4    1.20    2.10
   4  12   4    4.40    2.00
   5 -12   4   -2.50    2.50
   5 -12   4    1.10    2.50
  -5 -12  -4    5.60    2.90
  -5  12  -4    3.10    3.00
   5  12   4    0.60    2.10
   7 -13  -4    4.80    2.30
  -6 -13   4    5.50    2.90
   6 -13  -4    5.50    2.60
   6  13  -4    7.50    2.00
   5 -13  -4   11.70    2.70
   5 -13  -4    9.30    2.60
   5 -13  -4    7.40    2.40
   5  13  -4    8.90    2.30
  -5  13   4   15.00    7.00
   5  13  -4    6.10    2.60
   4 -13  -4   11.50    2.70
   4 -13  -4   19.30    3.40
   4 -13  -4   11.30    2.70
   4  13  -4    9.70    2.50
   4  13  -4    8.70    2.40
   3 -13  -4   34.20    6.00
  -3 -13   4   31.30    4.40
   3 -13  -4   44.20    4.90
  -3  13   4   31.00    5.30
   3  13  -4   42.30    4.80
  -3  13   4   35.10    4.40
  -3  13   4   38.70    5.90
   3  13  -4   44.10    4.70
   3  13  -4   36.10    4.50
   2 -13  -4   16.30    3.00
   2 -13  -4   16.70    3.10
  -2 -13   4    9.90    2.50
  -2 -13   4   13.00    2.40
  -2  13   4   10.30    2.20
  -2  13   4    7.30    2.20
  -2  13   4   16.40    3.60
   2  13  -4   11.10    2.70
   2  13  -4    8.30    2.80
  -2  13   4   12.10    2.90
   2  13  -4   16.70    3.60
   1 -13  -4   63.09    5.30
  -1 -13   4   57.19    5.50
   1 -13  -4   55.39    5.00
   1 -13  -4   71.59    6.00
  -1 -13   4   56.49    5.20
  -1  13   4   62.79    5.30
  -1  13   4   69.49    6.70
   1  13  -4   63.39    6.10
  -1  13   4   65.89    6.00
   1  13  -4   52.59    5.80
   1  13  -4   63.99    5.90
   1  13  -4   63.89    5.60
   0 -13   4    0.30    1.60
   0 -13  -4   -1.70    1.60
   0 -13  -4    0.60    2.10
   0 -13  -4   -1.70    1.20
   0  13  -4    2.00    1.70
   0  13  -4    0.00    1.40
   0  13   4   -1.10    1.40
   0  13   4   -0.40    1.50
   0  13  -4   -2.00    2.40
   1 -13   4    1.60    1.80
   1 -13   4    0.50    1.60
  -1  13  -4    0.90    1.70
  -1  13  -4    2.30    1.70
  -1  13  -4    0.20    2.60
   1  13   4    0.00    1.90
   1  13   4    2.30    1.80
  -1  13  -4    2.30    1.40
   2 -13   4    2.60    2.00
  -2 -13  -4    2.70    3.10
   2 -13   4    2.00    2.00
  -2  13  -4   -2.60    1.80
   2  13   4   -0.10    1.90
   2  13   4   -0.40    2.00
   3 -13   4    1.10    2.00
   3 -13   4   -1.10    1.80
   3  13   4    1.20    3.10
   3  13   4   -2.00    1.80
  -3  13  -4    5.80    3.90
   3  13   4   -0.40    1.90
  -3  13  -4   -2.70    2.20
  -4 -13  -4    2.80    2.20
   4 -13   4    1.60    2.20
   4  13   4    5.30    2.00
   4  13   4    2.60    2.40
   5 -13   4   12.40    3.40
  -5  13  -4   12.90    3.50
   5  13   4   12.70    3.30
   6 -14  -4   -1.60    2.20
   6 -14  -4    4.70    2.40
  -6 -14   4   -0.90    4.00
   6 -14  -4   -2.30    2.50
   6  14  -4    1.00    3.60
   6  14  -4   -2.60    1.70
   5 -14  -4   15.30    3.10
   5 -14  -4   14.40    3.20
   5 -14  -4   11.80    3.00
  -5 -14   4   13.50    3.80
   5  14  -4    9.80    2.90
   5  14  -4   20.70    3.90
  -4 -14   4    8.80    2.80
   4 -14  -4    7.90    2.30
   4 -14  -4    2.70    2.30
  -4  14   4    8.00    4.60
   4  14  -4    5.30    2.20
   3 -14  -4   62.59    6.00
   3 -14  -4   56.39    5.60
   3  14  -4   50.49    5.50
  -3  14   4   64.39    6.90
  -3  14   4   43.00    5.30
   3  14  -4   59.49    5.90
   3  14  -4   56.99    5.80
   2 -14  -4    1.30    1.60
   2 -14  -4   -0.50    2.20
  -2 -14   4    1.10    1.60
   2  14  -4    1.90    2.50
  -2  14   4    1.10    2.50
   2  14  -4   -1.00    1.60
  -2  14   4   -0.10    1.80
  -2  14   4    2.40    1.80
   2  14  -4    3.10    1.80
   1 -14  -4   10.20    2.20
   1 -14  -4   14.50    3.40
  -1 -14   4   10.60    2.40
  -1  14   4    7.40    2.40
   1  14  -4   10.40    2.50
   1  14  -4   10.20    2.40
  -1  14   4   13.60    2.70
   0 -14  -4    3.50    1.80
   0 -14   4    5.30    2.00
   0 -14  -4    4.90    2.00
   0  14  -4    5.20    2.90
   0  14   4    1.60    1.90
   0  14   4    2.40    2.20
   0  14  -4    4.60    1.90
   0  14  -4    3.80    1.90
   0  14   4    1.10    1.80
   1 -14   4   22.50    4.10
   1 -14   4   16.00    3.00
  -1  14  -4   26.10    3.30
   1  14   4   21.30    4.10
  -1  14  -4   32.90    6.10
   1  14   4   24.40    4.20
   2 -14   4   -0.60    2.10
  -2 -14  -4   -0.50    2.00
   2 -14   4    1.10    2.10
  -2  14  -4   11.90    4.20
   2  14   4    7.70    3.30
   2  14   4   -0.80    1.90
   2  14   4    3.20    2.00
   3 -14   4    1.80    2.40
   3 -14   4    2.00    1.90
  -3 -14  -4    6.90    2.40
   3  14   4    2.60    2.30
   3  14   4    2.60    2.20
   3  14   4   15.80    3.90
  -3  14  -4   12.00    3.80
   4 -14   4   28.40    5.00
   4  14   4    9.70    3.20
  -4  14  -4   21.30    6.10
   4  14   4   17.20    3.90
   5 -14   4    1.80    2.90
  -5  14  -4   -0.90    2.60
   5  14   4    0.30    2.60
   5  14   4    5.70    4.10
   6 -15  -4    3.90    2.30
   6 -15  -4   10.70    3.00
   6  15  -4    8.10    2.20
   5 -15  -4   -4.50    2.80
  -5 -15   4   -3.40    2.60
   5 -15  -4    0.30    2.30
   5 -15  -4    1.90    2.30
   5  15  -4    0.40    2.10
   5  15  -4   -0.80    1.90
   4 -15  -4   14.10    3.30
   4 -15  -4   15.30    3.20
  -4 -15   4   18.50    3.80
   4  15  -4   11.00    2.70
   4  15  -4   11.50    2.90
   3 -15  -4    7.00    2.40
  -3 -15   4   10.90    3.60
   3  15  -4    7.50    2.40
  -3  15   4    5.70    2.30
  -3  15   4   12.30    4.30
   3  15  -4    7.00    3.30
   3  15  -4    6.30    2.30
   2 -15  -4    1.50    2.60
  -2  15   4    4.20    4.40
   2  15  -4    0.70    1.70
  -2  15   4    0.70    3.00
  -2  15   4    3.50    2.10
   2  15  -4   -0.30    2.80
   2  15  -4    5.40    2.30
   2  15  -4    1.60    1.80
  -2  15   4    3.80    2.00
  -1 -15   4   24.10    6.30
   1 -15  -4   29.60    4.30
  -1 -15   4   22.90    3.80
   1 -15  -4   30.50    3.70
  -1  15   4   23.90    4.10
  -1  15   4   29.30    4.70
   1  15  -4   38.00    7.30
  -1  15   4   31.10    4.10
   1  15  -4   40.00    5.50
   1  15  -4   32.20    4.10
  -1  15   4   41.50    8.60
   1  15  -4   23.80    4.30
   0 -15   4   60.99    6.00
   0 -15  -4   64.39    5.30
   0 -15  -4   55.69    4.90
   0  15  -4   60.39    5.40
   0  15  -4   73.79    7.30
   0  15  -4   48.00    5.70
   0  15   4   53.29    5.90
   0  15   4   58.69    7.10
  -1 -15  -4    2.60    2.60
   1 -15   4    5.40    2.30
  -1 -15  -4   -1.30    1.40
   1 -15   4    0.00    2.00
   1  15   4    0.70    2.20
   1  15   4   -4.90    3.00
  -1  15  -4    0.70    1.50
  -1  15  -4   -4.60    3.00
  -1  15  -4    0.00    2.20
   1  15   4   -1.70    2.00
   2 -15   4    3.20    2.50
   2 -15   4    1.80    2.30
  -2 -15  -4   -3.10    2.10
   2  15   4    0.90    2.20
   2  15   4    0.60    2.30
  -2  15  -4    1.90    2.50
   3 -15   4    6.80    2.90
   3  15   4    5.40    2.80
   3  15   4    9.90    2.60
  -3  15  -4    3.50    3.40
   4 -15   4    2.20    4.00
   4  15   4    6.40    2.40
  -4  15  -4   -1.00    2.80
   4  15   4    1.80    2.80
   5 -16  -4    8.60    3.80
   5 -16  -4    3.20    2.60
   5 -16  -4    9.80    2.90
   5  16  -4    8.00    2.80
   5  16  -4    6.40    3.00
   4 -16  -4    8.60    4.00
  -4 -16   4   -1.30    3.00
   4 -16  -4    4.90    2.40
   4 -16  -4    3.50    2.30
   3 -16  -4    1.30    2.60
   2 -16  -4    3.90    1.90
   2 -16  -4    1.90    4.10
  -2 -16   4    6.60    2.50
   2 -16  -4    9.50    2.70
  -2  16   4    5.70    2.30
   2  16  -4    6.80    3.50
  -2  16   4    4.50    2.10
   2  16  -4    2.90    2.20
  -2  16   4   -1.50    3.70
   2  16  -4   -1.50    2.30
   2  16  -4    1.60    2.00
   1 -16  -4   25.20    4.80
   1 -16  -4   15.90    4.00
  -1 -16   4   24.80    4.00
  -1 -16   4   28.80    4.80
   1 -16  -4   21.70    3.60
  -1  16   4   38.70    6.20
   1  16  -4   21.00    4.20
   1  16  -4   28.20    3.90
   1  16  -4   35.60    4.90
   1  16  -4   29.40    5.60
  -1  16   4   17.30    3.30
  -1  16   4   31.00    5.70
  -1  16   4   30.20    4.40
   0 -16   4    0.10    2.10
   0 -16   4    0.40    2.00
   0 -16  -4    2.40    1.90
   0 -16  -4    6.10    2.50
   0  16  -4    2.20    1.90
   0  16  -4    3.10    2.50
   0  16   4   10.90    3.70
   0  16  -4    2.20    1.90
   0  16   4    3.90    2.20
   0  16   4    1.60    2.10
   1 -16   4   13.90    3.70
   1 -16   4    5.10    2.50
  -1 -16  -4    8.40    3.70
   1  16   4   10.40    2.80
  -1  16  -4    4.10    2.00
  -1  16  -4   10.40    4.90
  -1  16  -4    8.20    2.60
   1  16   4   17.90    5.80
   2  16   4   15.40    3.40
  -2  16  -4   17.10    3.50
   3 -16   4    0.70    2.70
   3  16   4    0.60    2.50
   3  16   4   -3.30    2.40
   4 -16   4    3.50    3.30
   4 -16   4    5.50    2.40
   4  16   4    2.40    2.70
  -4  16  -4    8.20    3.40
   4  16   4    2.50    2.80
   5 -17  -4    7.90    3.40
   5  17  -4    4.00    2.30
   3 -17  -4    9.30    3.30
   3  17  -4   -1.30    2.00
   3  17  -4   12.10    3.90
   3  17  -4   -2.90    2.20
   2 -17  -4    6.80    2.70
   2 -17  -4   10.30    2.90
   2 -17  -4    6.50    1.90
   2  17  -4    4.40    2.50
   2  17  -4   14.20    4.00
   2  17  -4    0.70    2.30
  -2  17   4    6.80    2.50
  -2  17   4    5.40    2.20
   1 -17  -4    4.70    2.90
   1 -17  -4    1.20    2.40
  -1 -17   4   -1.30    1.90
  -1  17   4    0.40    2.50
   1  17  -4   -2.40    1.90
   1  17  -4   -2.00    1.70
   1  17  -4   -0.80    3.50
  -1  17   4   -0.10    1.90
   0 -17  -4   19.80    3.60
   0 -17   4   10.50    2.90
   0  17  -4    9.50    2.60
   0  17   4   12.70    3.00
   0  17   4    9.60    3.00
   0  17  -4   13.40    3.90
   1 -17   4    0.60    2.20
   1 -17   4   -0.10    1.80
  -1  17  -4    1.90    2.50
  -1  17  -4    1.70    2.70
  -1  17  -4   -0.10    5.00
   1  17   4    4.80    2.80
   1  17   4   -2.70    2.10
   2 -17   4   -0.90    2.50
   2 -17   4   -2.00    2.10
  -2  17  -4   -4.20    2.70
   2  17   4    0.40    2.40
   2  17   4   -4.20    2.10
   3 -17   4    1.00    3.40
   3 -17   4    1.40    2.60
   3  17   4    1.70    2.80
   3  17   4    1.40    2.60
   3 -18  -4   -1.20    2.10
  -3  18   4   -2.70    2.20
   3  18  -4   -0.80    2.80
   2  18  -4    4.00    2.20
   1 -18  -4    3.60    2.00
   1 -18  -4    7.30    2.30
  -1 -18   4    4.10    2.40
  -1  18   4    5.30    2.20
  -1  18   4   -0.80    2.30
   1  18  -4    5.80    2.40
   0  18  -4    9.90    4.90
   0  18   4    1.50    2.50
   0  18  -4   -1.40    2.00
   0  18   4    2.00    2.50
   1 -18   4    7.60    2.20
   1 -18   4    2.30    2.90
  -1 -18  -4    7.80    2.30
   1  18   4    8.30    2.90
  -1  18  -4    3.30    2.00
   2 -18   4    3.10    2.60
   2 -18   4    0.70    4.10
   2  18   4   -0.90    2.80
   2 -19  -4   -0.60    2.00
   2  19  -4   -2.50    2.60
  -2  19   4   -0.70    2.50
  -2  19   4    3.40    2.80
   2  19  -4   -3.10    2.60
  -1 -19   4   -0.20    2.40
  -1  19   4    1.40    2.70
   1  19  -4    2.50    2.50
   1  19  -4   10.20    5.70
   0 -19   4    2.20    2.50
   0  19   4    5.00    2.90
   0  19   4    8.40    2.90
   1 -19   4    2.60    2.70
   1  19   4   -1.80    2.50
   9   0  -5    6.60    2.70
   9   0  -5    2.80    2.10
   9   0  -5    2.40    2.20
   8   0  -5   -1.70    1.90
   8   0  -5   -1.10    1.40
   7   0  -5   33.10    4.90
   7   0  -5   41.80    4.40
   6   0  -5   -0.10    1.30
  -6   0   5    1.40    1.90
   6   0  -5   -2.40    1.50
   5   0  -5    1.60    1.30
  -5   0   5    1.40    2.40
   5   0  -5   -1.30    1.40
   4   0  -5   -1.00    1.30
   4   0  -5    1.70    1.20
  -4   0   5    0.70    1.20
   3   0  -5    0.20    1.00
   3   0  -5    0.80    0.90
  -3   0   5    1.10    1.10
   3   0  -5    0.80    1.20
  -2   0   5   -0.70    0.80
  -2   0   5    1.10    1.00
   2   0  -5   -0.90    0.90
   2   0  -5   -1.50    0.80
  -2   0   5   -0.50    0.80
   2   0  -5    0.40    0.90
   1   0  -5  344.67   21.20
   1   0  -5  390.76   21.30
  -1   0   5  429.46   21.50
  -1   0   5  403.86   21.60
  -1   0   5  388.16   21.30
   1   0  -5  428.06   21.50
   0   0   5   -1.40    0.90
   0   0  -5   -0.50    0.90
   0   0  -5   -1.40    1.00
   0   0   5    0.70    1.00
   0   0   5   -1.40    1.00
   0   0  -5   -1.10    1.00
   1   0   5   33.90    3.60
  -1   0  -5   39.60    3.60
   1   0   5   42.90    3.40
  -1   0  -5   40.40    3.20
   1   0   5   38.20    3.10
   2   0   5    2.80    1.90
   2   0   5    2.10    1.60
   2   0   5    0.80    1.30
  -2   0  -5    0.00    0.80
   3   0   5   64.39    5.30
   3   0   5   65.09    6.10
   3   0   5   60.69    5.50
  -3   0  -5   64.29    5.30
   4   0   5   -1.10    1.50
  -4   0  -5   -0.60    1.90
   5   0   5   -0.60    1.50
  -6   0  -5   -3.20    2.30
   6   0   5   -2.20    2.10
   7   0   5    3.50    2.40
   7   0   5    2.30    2.30
   9  -1  -5    3.50    1.90
   9  -1  -5    2.40    1.80
   9  -1  -5    2.50    2.20
   9   1  -5    2.00    2.30
   9   1  -5   -1.40    2.20
   8  -1  -5    4.30    1.80
   8   1  -5   -2.10    1.90
   8   1  -5    0.40    1.90
   8   1  -5    3.80    1.80
   7  -1  -5   29.20    4.40
   7  -1  -5   29.00    5.40
   7   1  -5   28.80    4.30
   7   1  -5   28.90    3.70
  -6  -1   5   31.60    4.70
   6  -1  -5   28.60    3.70
   6  -1  -5   34.40    4.70
  -6   1   5   35.00    4.80
   6   1  -5   36.60    3.90
   6   1  -5   38.70    4.40
   5  -1  -5  186.98   12.20
  -5  -1   5  189.48   11.80
   5  -1  -5  185.18   11.40
   5   1  -5  198.38   10.90
   5   1  -5  189.58   12.00
  -5   1   5  185.28   11.90
   5   1  -5  186.48   11.20
   4  -1  -5   24.60    3.10
  -4  -1   5   30.90    3.30
   4  -1  -5   28.10    3.60
   4   1  -5   26.10    3.40
  -4   1   5   24.80    3.30
   4   1  -5   26.70    2.90
   4   1  -5   27.40    2.60
   3  -1  -5   69.69    5.30
   3  -1  -5   79.49    5.90
   3  -1  -5   79.59    5.00
  -3  -1   5   77.29    5.40
  -3   1   5   76.59    5.60
   3   1  -5   76.99    5.70
   3   1  -5   67.79    5.10
   3   1  -5   84.19    5.20
  -2  -1   5  425.86   23.70
   2  -1  -5  399.96   23.80
  -2  -1   5  476.75   24.50
   2  -1  -5  467.05   23.80
  -2  -1   5  472.75   24.00
   2  -1  -5  443.16   24.20
   2   1  -5  409.56   23.70
   2   1  -5  492.25   24.00
  -2   1   5  431.46   24.10
  -2   1   5  467.55   24.10
   2   1  -5  437.36   24.10
  -1  -1   5   -0.20    0.90
  -1  -1   5    2.60    1.00
   1  -1  -5    1.50    1.00
   1  -1  -5    1.90    1.10
  -1  -1   5   -0.10    0.80
   1  -1  -5   -0.40    0.90
  -1   1   5    2.10    1.00
   1   1  -5    3.70    1.30
   1   1  -5    0.30    1.00
  -1   1   5    0.70    1.00
   1   1  -5    0.40    1.10
   0  -1   5  619.14   34.50
   0  -1   5  666.23   34.40
   0  -1  -5  661.33   34.60
   0  -1   5  718.23   34.50
   0  -1  -5  580.94   34.20
   0  -1  -5  601.74   34.20
   0  -1  -5  688.53   34.40
   0  -1   5  664.93   34.60
   0   1  -5  656.23   34.20
   0   1   5  621.14   34.50
   0   1   5  696.33   34.50
   0   1  -5  684.13   34.70
   0   1   5  651.63   34.30
   1  -1   5    4.50    1.60
   1  -1   5    2.10    1.30
   1  -1   5    4.40    1.30
  -1  -1  -5    5.10    1.50
  -1  -1  -5    3.70    1.30
   1   1   5    3.70    1.40
  -1   1  -5    4.40    1.20
  -1   1  -5    3.70    1.50
   1   1   5    5.40    1.30
  -1   1  -5    2.90    1.40
   2  -1   5    5.50    1.90
  -2  -1  -5    5.50    1.60
   2  -1   5    2.60    1.40
  -2  -1  -5    5.30    1.40
   2  -1   5    3.10    1.40
  -2   1  -5    5.50    1.60
   2   1   5    4.60    2.30
  -2   1  -5    3.50    1.10
   2   1   5    4.20    1.70
  -3  -1  -5   80.79    6.10
  -3  -1  -5   79.09    5.20
   3  -1   5   76.69    6.30
   3  -1   5   79.99    6.90
  -3   1  -5   75.99    6.00
   3   1   5   68.19    6.10
   3   1   5   77.69    5.90
   3   1   5   77.79    6.80
   4  -1   5   28.70    5.10
   4  -1   5   24.30    3.70
  -4  -1  -5   25.50    3.90
   4   1   5   25.60    4.90
   4   1   5   25.90    3.80
   4   1   5   22.60    4.40
  -4   1  -5   27.20    4.00
   5  -1   5   46.90    6.10
   5  -1   5   50.79    5.20
  -5  -1  -5   46.90    6.80
   5   1   5   51.99    6.30
   5   1   5   43.50    5.00
   5   1   5   55.39    5.30
   6  -1   5    2.60    2.50
  -6  -1  -5    2.50    2.40
   6  -1   5    1.60    2.10
  -6   1  -5    0.60    2.70
   6   1   5   -0.90    2.40
   6   1   5    0.00    1.80
   7  -1   5   -2.20    2.30
   7  -1   5    5.20    2.40
   7   1   5   -0.90    2.60
   7   1   5    1.80    2.80
   9  -2  -5    3.60    2.60
   9  -2  -5   -2.00    2.20
   9   2  -5    3.70    2.20
   8   2  -5    4.60    2.20
   8   2  -5    4.10    2.20
   8   2  -5    2.80    2.00
   7  -2  -5    5.00    2.40
   7  -2  -5    5.80    2.10
   7   2  -5    5.20    2.20
   7   2  -5    3.50    1.50
   6  -2  -5   55.79    7.60
  -6  -2   5   55.09    5.80
   6  -2  -5   55.19    5.20
   6   2  -5   56.19    4.70
  -6   2   5   61.99    6.20
   6   2  -5   64.59    4.70
   6   2  -5   59.59    5.60
  -5  -2   5    8.50    2.30
   5  -2  -5    3.40    1.60
   5  -2  -5    4.40    1.90
   5   2  -5    5.70    1.60
  -5   2   5    4.40    1.80
   5   2  -5    5.00    1.90
   5   2  -5    6.40    1.70
  -4  -2   5   37.40    3.60
   4  -2  -5   35.60    3.60
   4  -2  -5   40.40    4.20
  -4   2   5   38.50    4.40
   4   2  -5   34.70    3.80
   4   2  -5   32.50    3.30
   4   2  -5   39.10    3.30
  -3  -2   5  111.49    7.60
   3  -2  -5  107.29    7.50
   3  -2  -5   99.29    7.00
  -3  -2   5  112.49    7.00
   3   2  -5  119.69    6.90
   3   2  -5   98.19    6.70
  -3   2   5  107.69    7.30
   3   2  -5  111.69    7.40
  -2  -2   5    5.00    1.60
  -2  -2   5    8.10    1.60
   2  -2  -5    6.00    1.30
   2  -2  -5    6.00    1.50
   2  -2  -5    7.40    1.50
  -2   2   5    6.60    1.50
   2   2  -5    6.60    1.50
   2   2  -5    6.50    1.40
   2   2  -5    6.30    1.50
  -2   2   5    7.10    1.60
   1  -2  -5  395.36   21.20
  -1  -2   5  387.06   21.00
  -1  -2   5  400.06   21.50
  -1  -2   5  362.36   21.30
   1  -2  -5  432.66   21.60
   1  -2  -5  349.77   21.10
   1  -2  -5  395.16   21.30
  -1  -2   5  428.06   21.30
   1   2  -5  390.66   21.30
  -1   2   5  413.86   21.40
   1   2  -5  432.06   21.50
   1   2  -5  362.86   21.10
  -1   2   5  382.96   21.10
   0  -2  -5   83.49    5.30
   0  -2  -5   93.09    5.70
   0  -2   5   74.69    5.70
   0  -2   5   85.29    5.60
   0  -2  -5   82.99    5.80
   0  -2   5   87.29    5.60
   0  -2   5   79.49    5.80
   0  -2  -5   70.89    5.50
   0   2  -5   84.29    5.50
   0   2   5   82.99    5.80
   0   2  -5   91.59    6.00
   0   2   5   88.09    5.60
   1  -2   5    5.10    1.80
   1  -2   5    3.60    1.50
   1  -2   5    4.20    1.10
  -1  -2  -5    3.10    1.10
   1  -2   5    4.70    1.20
  -1  -2  -5    4.30    1.60
   1   2   5    2.10    1.40
  -1   2  -5    5.10    1.10
  -1   2  -5    5.70    1.20
  -1   2  -5    3.80    1.40
   1   2   5    4.90    1.50
  -2  -2  -5   28.70    3.50
   2  -2   5   31.70    4.00
   2  -2   5   35.40    3.50
  -2  -2  -5   34.40    3.10
   2  -2   5   32.40    3.60
   2   2   5   34.30    3.70
   2   2   5   32.30    3.40
  -2   2  -5   31.10    3.40
  -3  -2  -5   74.99    5.30
   3  -2   5   78.19    6.80
   3  -2   5   77.29    6.10
  -3  -2  -5   75.39    6.10
   3   2   5   69.79    6.10
   3   2   5   79.89    5.80
  -3   2  -5   76.59    6.00
   4  -2   5  317.77   19.40
  -4  -2  -5  327.87   19.60
   4  -2   5  335.77   20.70
   4   2   5  360.76   19.10
  -4   2  -5  334.67   19.40
   4   2   5  312.17   22.80
   4   2   5  351.56   20.80
  -5  -2  -5    2.50    2.80
   5  -2   5    7.20    3.00
   5  -2   5    4.20    2.20
   5   2   5    5.30    2.30
   5   2   5    7.60    2.40
   5   2   5    6.70    2.90
   6  -2   5   78.49    7.00
   6  -2   5   84.79    8.00
   6   2   5   96.09    7.30
   6   2   5   73.89    7.30
  -6   2  -5   73.39    7.30
   6   2   5   82.49    8.40
   7  -2   5    3.10    2.60
   7  -2   5    6.10    2.80
   7   2   5    1.90    2.70
   9  -3  -5    0.20    2.30
   9  -3  -5   -1.30    3.50
   9   3  -5    5.20    2.20
   9   3  -5    0.60    2.00
   8  -3  -5   -1.20    1.80
   8  -3  -5    0.20    2.20
   8   3  -5   -1.90    1.90
   8   3  -5    0.50    1.90
   7  -3  -5   52.09    5.30
   7  -3  -5   54.49    6.00
   7   3  -5   49.60    5.30
   7   3  -5   51.39    5.40
   6  -3  -5    1.70    2.30
  -6  -3   5    0.50    2.10
   6  -3  -5    1.10    1.60
  -6   3   5   -2.50    2.20
   6   3  -5    2.70    1.40
   6   3  -5   -0.40    1.30
   5  -3  -5  133.39    9.00
  -5  -3   5  131.99    8.80
   5  -3  -5  138.99    9.70
   5   3  -5  134.39    8.30
   5   3  -5  130.09    9.00
  -5   3   5  130.79    9.30
   5   3  -5  139.59    8.50
   4  -3  -5    0.00    1.30
  -4  -3   5    0.10    1.20
   4  -3  -5    0.90    1.30
  -4  -3   5    0.50    1.20
   4   3  -5    2.00    1.30
  -4   3   5    1.00    1.40
   4   3  -5    0.90    1.20
   4   3  -5    1.40    1.10
   3  -3  -5   16.10    2.60
   3  -3  -5   15.10    2.90
  -3  -3   5   19.40    2.80
  -3  -3   5   17.00    2.40
   3   3  -5   16.10    2.20
  -3   3   5   18.80    2.90
   3   3  -5   18.90    2.80
   3   3  -5   21.00    2.50
   2  -3  -5   -1.10    0.90
  -2  -3   5    0.50    0.90
  -2  -3   5    0.40    0.90
   2  -3  -5   -0.80    0.70
   2  -3  -5   -0.40    0.90
   2  -3  -5   -1.00    1.00
   2   3  -5    0.20    1.00
   2   3  -5   -0.20    0.90
  -2   3   5    1.40    1.00
  -2   3   5   -0.10    1.10
   2   3  -5    0.40    1.00
  -2   3   5    0.00    0.80
   1  -3  -5    2.10    1.10
   1  -3  -5    1.10    1.00
   1  -3  -5    2.30    1.00
  -1  -3   5    1.70    1.10
  -1  -3   5    2.60    1.20
   1  -3  -5    2.10    1.10
  -1  -3   5    1.40    1.00
  -1  -3   5    2.80    1.10
   1   3  -5    1.80    1.10
  -1   3   5    3.00    1.20
  -1   3   5    1.20    1.00
   1   3  -5    2.00    1.10
   0  -3   5    5.10    1.50
   0  -3  -5    5.20    1.30
   0  -3   5    5.60    1.30
   0  -3   5    5.60    1.50
   0  -3  -5    6.20    1.40
   0  -3  -5    5.20    1.50
   0  -3   5    6.50    1.40
   0  -3  -5    5.80    1.20
   0   3  -5    6.90    1.70
   0   3  -5    4.40    1.20
   0   3   5    3.30    1.30
   0   3   5    5.40    1.40
   1  -3   5  128.39    8.50
  -1  -3  -5  134.89    8.00
   1  -3   5  129.19    7.90
  -1  -3  -5  130.89    8.50
   1  -3   5  135.69    8.10
   1  -3   5  118.69    8.30
  -1   3  -5  124.89    7.70
   1   3   5  120.89    8.30
   1   3   5  137.49    8.10
  -1   3  -5  130.49    8.30
  -2  -3  -5   48.60    4.50
   2  -3   5   52.39    4.90
   2  -3   5   47.20    4.50
   2  -3   5   47.30    3.80
  -2  -3  -5   54.59    4.10
  -2   3  -5   49.80    4.40
   2   3   5   46.10    4.10
   2   3   5   55.19    4.20
  -2   3  -5   47.00    4.00
   2   3   5   48.50    4.70
   3  -3   5   51.69    5.70
  -3  -3  -5   65.89    5.50
  -3  -3  -5   61.79    4.60
   3  -3   5   56.69    5.30
   3   3   5   59.09    4.70
   3   3   5   64.29    5.00
  -3   3  -5   59.29    5.20
   3   3   5   58.39    5.40
  -4  -3  -5   45.80    5.40
  -4  -3  -5   55.09    4.60
   4  -3   5   55.09    5.40
   4  -3   5   55.69    6.20
   4   3   5   54.09    5.60
  -4   3  -5   58.99    5.50
   4   3   5   58.99    4.60
   4   3   5   58.49    5.20
   5  -3   5  123.29    9.10
   5  -3   5  125.19   10.30
  -5  -3  -5  116.79   11.90
   5   3   5  126.29    9.30
   5   3   5  126.29   10.30
   5   3   5  129.19    8.80
   6  -3   5    6.70    2.70
   6  -3   5    8.10    3.40
  -6   3  -5    8.20    3.10
   6   3   5    5.60    3.30
   6   3   5   10.10    2.80
   6   3   5   11.90    2.70
   8  -4  -5    2.10    2.80
   8  -4  -5   -1.40    2.00
   8  -4  -5    5.30    2.50
   8   4  -5   -0.50    1.80
   8   4  -5    2.80    2.20
   7  -4  -5    7.20    2.40
   7  -4  -5    9.30    2.50
   7   4  -5    5.80    2.00
   7   4  -5    6.10    2.30
   6  -4  -5   38.30    5.00
   6  -4  -5   34.80    5.70
   6   4  -5   39.30    4.70
   6   4  -5   41.10    3.70
  -6   4   5   34.90    5.40
   5  -4  -5  186.38   11.80
   5  -4  -5  188.58   12.50
   5   4  -5  182.88   11.80
  -5   4   5  192.68   12.30
   5   4  -5  196.78   11.50
   4  -4  -5   -0.50    1.40
   4  -4  -5    0.60    1.30
   4  -4  -5    0.40    1.90
  -4  -4   5   -0.10    1.30
  -4  -4   5   -0.20    1.10
   4   4  -5    2.20    1.30
   4   4  -5    0.90    1.20
   4   4  -5    0.70    1.00
  -4   4   5    0.70    1.30
   3  -4  -5  149.49    9.50
  -3  -4   5  133.69    8.40
   3  -4  -5  129.19    8.80
  -3  -4   5  143.79    9.30
   3  -4  -5  146.39    9.00
  -3   4   5  147.99    9.30
   3   4  -5  151.18    8.80
   3   4  -5  133.29    8.30
   3   4  -5  138.89    9.00
  -3   4   5  137.39    8.50
  -2  -4   5   20.90    2.30
   2  -4  -5   23.20    2.70
   2  -4  -5   17.20    2.80
  -2  -4   5   19.90    2.60
   2  -4  -5   14.90    2.50
   2  -4  -5   16.80    2.10
  -2   4   5   15.20    2.40
  -2   4   5   17.50    2.70
   2   4  -5   18.70    2.30
  -2   4   5   18.00    2.10
   2   4  -5   24.70    2.70
   2   4  -5   14.60    2.50
  -1  -4   5  241.08   12.90
   1  -4  -5  242.68   13.20
  -1  -4   5  209.38   13.10
   1  -4  -5  233.68   13.00
  -1  -4   5  228.68   13.20
   1  -4  -5  230.48   13.10
   1  -4  -5  201.28   12.90
  -1   4   5  244.28   13.20
   1   4  -5  213.58   13.00
  -1   4   5  223.68   12.90
   1   4  -5  251.37   13.30
   0  -4  -5  152.88    9.80
   0  -4  -5  183.08   10.20
   0  -4   5  153.58   10.20
   0  -4   5  179.68   10.00
   0  -4   5  171.98   10.20
   0  -4   5  171.88   10.00
   0  -4  -5  164.18   10.10
   0   4  -5  175.88   10.30
   0   4   5  164.78   10.20
   0   4   5  178.58   10.10
   0   4  -5  156.38    9.80
   1  -4   5  198.68   11.00
  -1  -4  -5  194.28   11.40
  -1  -4  -5  191.68   11.00
   1  -4   5  163.78   11.00
   1  -4   5  181.18   11.40
   1  -4   5  184.78   10.80
  -1   4  -5  177.08   10.80
   1   4   5  195.98   11.00
  -1   4  -5  198.68   11.50
   1   4   5  177.08   11.10
   1   4   5  182.68   11.30
   2  -4   5    5.50    1.90
   2  -4   5    5.70    1.80
  -2  -4  -5    8.50    2.10
   2  -4   5    5.20    1.50
  -2  -4  -5    9.30    1.70
   2   4   5    5.90    1.70
   2   4   5    5.90    1.70
  -2   4  -5    4.50    1.60
   2   4   5    7.10    1.60
  -2   4  -5    6.10    1.60
  -3  -4  -5    7.50    1.80
   3  -4   5    3.70    1.60
   3  -4   5    6.90    2.50
  -3  -4  -5    4.30    1.90
   3   4   5    7.50    1.70
   3   4   5    5.90    1.80
   3   4   5    4.90    1.90
  -3   4  -5    5.10    1.80
   4  -4   5  218.48   14.40
  -4  -4  -5  224.48   13.50
   4  -4   5  237.38   15.50
   4   4   5  250.57   13.90
  -4   4  -5  239.08   14.30
   4   4   5  227.18   13.50
   4   4   5  236.68   14.70
   5  -4   5    5.60    2.70
  -5  -4  -5    1.20    2.50
   5  -4   5    1.10    1.60
  -5  -4  -5    0.40    2.10
   5   4   5    6.60    1.90
   5   4   5    3.50    2.10
   5   4   5    2.40    2.40
   6  -4   5   99.89    8.10
   6  -4   5  107.59    9.50
  -6   4  -5  111.09    8.20
   6   4   5  100.89    8.60
   6   4   5   98.99    9.50
   8  -5  -5   -1.10    2.10
   8  -5  -5   -0.50    2.40
   8   5  -5   -1.60    1.90
   8   5  -5   -1.00    1.80
   8   5  -5    1.50    1.70
   7  -5  -5    3.00    2.10
   7  -5  -5    0.60    1.70
   7  -5  -5   -2.90    1.60
   7  -5  -5   -1.00    1.80
   7   5  -5   -0.60    1.80
   7   5  -5    1.30    1.60
   6  -5  -5   20.50    4.10
   6  -5  -5   25.10    3.70
   6  -5  -5   26.90    3.90
  -6   5   5   16.40    3.50
  -6   5   5   22.00    4.10
   6   5  -5   18.50    3.60
   6   5  -5   20.40    4.20
   5  -5  -5   67.19    5.60
  -5  -5   5   60.39    5.90
   5  -5  -5   67.99    5.50
   5  -5  -5   63.69    5.00
   5   5  -5   62.69    5.50
  -5   5   5   58.89    6.00
   4  -5  -5   21.30    3.10
   4  -5  -5   22.40    3.20
  -4  -5   5   18.50    3.10
   4   5  -5   18.90    3.10
  -4   5   5   19.60    3.10
   4   5  -5   16.60    2.40
   4   5  -5   18.60    2.90
  -4   5   5   15.10    2.80
  -3  -5   5  166.08   11.50
  -3  -5   5  154.58    9.40
   3  -5  -5  177.68   10.30
   3  -5  -5  144.09    9.90
   3   5  -5  159.08    9.40
   3   5  -5  162.38   10.10
  -3   5   5  159.18   11.10
   3   5  -5  174.98   10.10
  -3   5   5  164.28    9.90
   2  -5  -5  369.86   20.10
   2  -5  -5  339.87   20.50
  -2  -5   5  390.56   20.20
  -2  -5   5  377.26   20.90
   2  -5  -5  398.96   20.80
  -2   5   5  380.46   20.90
  -2   5   5  355.76   20.00
  -2   5   5  396.16   20.60
   2   5  -5  352.56   20.70
   2   5  -5  399.86   20.80
  -1  -5   5    8.80    1.70
   1  -5  -5    6.80    1.60
  -1  -5   5   10.30    2.00
   1  -5  -5    7.50    1.70
  -1  -5   5   11.00    2.10
   1  -5  -5    8.00    1.70
   1  -5  -5    9.60    1.80
  -1   5   5    9.60    1.90
   1   5  -5    7.60    1.70
   1   5  -5   10.50    2.00
  -1   5   5   10.80    2.00
   0  -5  -5  424.46   25.00
   0  -5   5  500.35   25.10
   0  -5  -5  508.95   25.40
   0  -5   5  455.95   25.30
   0  -5   5  485.95   25.30
   0  -5  -5  480.95   25.40
   0  -5  -5  446.66   25.00
   0   5  -5  446.56   25.10
   0   5  -5  499.95   25.60
   0   5   5  406.76   25.30
   0   5   5  506.05   25.30
   0   5   5  461.75   25.30
   1  -5   5   11.90    2.40
   1  -5   5   13.90    2.20
  -1  -5  -5   12.20    2.00
   1  -5   5   12.70    2.40
  -1  -5  -5   10.90    2.10
  -1  -5  -5   12.50    2.40
  -1   5  -5   17.60    3.00
   1   5   5   14.70    2.40
  -1   5  -5   13.40    2.30
   1   5   5    9.70    2.10
   1   5   5    7.30    1.90
  -2  -5  -5    0.90    1.50
  -2  -5  -5    4.50    1.50
   2  -5   5    4.00    2.00
   2  -5   5    3.40    1.60
   2   5   5    0.90    1.60
   2   5   5    3.60    1.40
  -2   5  -5    3.10    1.40
  -2   5  -5    4.70    1.60
   2   5   5    3.40    1.50
  -3  -5  -5   -1.50    1.40
   3  -5   5    1.10    1.30
   3  -5   5   -2.50    1.60
   3  -5   5   -2.10    1.40
  -3  -5  -5   -1.00    1.50
   3   5   5    1.30    1.50
  -3   5  -5   -1.80    1.10
   3   5   5   -0.10    1.20
   3   5   5    0.10    1.60
   4  -5   5   -0.90    2.00
   4  -5   5    3.80    1.60
   4  -5   5    2.10    2.20
  -4  -5  -5    2.10    1.70
   4   5   5    3.50    2.00
   4   5   5    0.90    1.40
  -4   5  -5    0.80    1.80
   4   5   5    0.60    1.80
   5  -5   5   -1.30    2.00
   5  -5   5    0.70    1.80
  -5  -5  -5   -0.90    2.00
   5   5   5   -0.80    1.40
   5   5   5    1.20    1.70
   5   5   5   -2.80    1.70
   6  -5   5   15.40    3.20
   6   5   5   13.80    3.90
   6   5   5   18.00    3.60
   6   5   5   21.80    4.20
   8  -6  -5    1.10    1.90
   8  -6  -5   -1.00    2.20
   8  -6  -5   -0.50    2.10
   8  -6  -5    3.20    2.10
  -8   6   5   -1.70    3.10
   8   6  -5    3.30    2.30
   8   6  -5   -2.40    1.60
   7  -6  -5    8.20    2.60
   7  -6  -5    5.90    2.40
   7  -6  -5    9.30    2.40
   7  -6  -5   11.00    2.90
   7   6  -5    8.90    2.40
  -7   6   5   10.10    3.10
   7   6  -5    6.30    2.30
   6  -6  -5   10.70    2.70
   6  -6  -5    8.00    2.00
   6  -6  -5   10.00    2.60
  -6   6   5    6.40    2.60
   6   6  -5   12.60    2.60
   6   6  -5    7.40    2.40
   5  -6  -5  135.59    9.60
   5  -6  -5  151.38    9.40
   5  -6  -5  139.49    9.00
  -5  -6   5  141.09   10.00
   5   6  -5  138.39    9.40
   5   6  -5  139.49    9.90
  -5   6   5  136.49   10.10
  -5   6   5  141.69    9.30
   4  -6  -5   23.50    3.10
   4  -6  -5   17.90    3.00
  -4  -6   5   21.50    3.30
   4   6  -5   17.90    3.00
  -4   6   5   17.70    3.40
  -4   6   5   16.10    3.00
   4   6  -5   22.20    4.40
   3  -6  -5    3.90    1.60
  -3  -6   5    6.80    1.50
   3  -6  -5    6.60    2.00
  -3  -6   5    3.60    1.60
   3   6  -5    5.30    1.70
   3   6  -5    2.50    1.40
  -3   6   5    4.80    1.80
  -3   6   5    5.10    1.60
  -2  -6   5   19.40    3.50
  -2  -6   5   20.10    2.50
   2  -6  -5   19.30    2.80
   2  -6  -5   20.50    2.40
   2  -6  -5   27.70    3.40
   2   6  -5   25.20    3.10
  -2   6   5   25.30    3.40
   2   6  -5   19.20    3.00
  -2   6   5   23.50    3.20
  -2   6   5   25.90    3.60
   1  -6  -5  410.66   20.90
   1  -6  -5  337.97   20.50
  -1  -6   5  367.76   20.90
   1  -6  -5  366.96   20.50
  -1  -6   5  366.16   20.70
  -1  -6   5  392.76   20.30
   1   6  -5  362.06   20.40
  -1   6   5  367.76   20.40
   1   6  -5  408.86   21.10
   1   6  -5  346.07   20.60
  -1   6   5  408.66   21.00
  -1   6   5  386.46   20.80
   0  -6   5    9.10    1.70
   0  -6   5    7.30    1.90
   0  -6  -5    6.00    1.50
   0  -6   5    6.00    1.60
   0  -6  -5    6.20    1.60
   0  -6  -5    7.90    1.90
   0  -6   5    6.00    1.70
   0   6   5    3.00    1.50
   0   6   5    6.80    1.70
   0   6  -5    6.90    1.70
   0   6  -5    5.70    1.80
   0   6  -5    6.50    2.80
   0   6   5    5.40    1.60
  -1  -6  -5   51.19    5.40
  -1  -6  -5   49.00    4.90
   1  -6   5   51.39    4.00
  -1  -6  -5   41.50    3.70
   1  -6   5   39.70    4.00
   1  -6   5   40.90    4.30
   1   6   5   46.50    3.90
  -1   6  -5   40.60    3.90
  -1   6  -5   42.40    4.40
   1   6   5   38.90    3.90
   1   6   5   42.00    4.20
  -1   6  -5   43.40    4.10
  -2  -6  -5   12.00    2.50
   2  -6   5    4.60    2.20
   2  -6   5    8.50    2.00
  -2  -6  -5   12.80    2.30
   2  -6   5    7.90    2.10
  -2   6  -5    8.00    1.90
  -2   6  -5   11.40    2.20
   2   6   5   11.40    2.20
   2   6   5   10.80    2.40
   2   6   5    9.40    2.00
   3  -6   5   53.79    5.50
   3  -6   5   43.90    5.30
   3  -6   5   42.60    4.60
  -3  -6  -5   49.99    4.50
   3   6   5   54.59    4.50
  -3   6  -5   43.20    4.50
   3   6   5   41.90    4.30
   3   6   5   51.09    5.20
   4  -6   5    9.30    3.80
   4  -6   5    4.90    2.50
   4  -6   5   16.30    2.90
  -4  -6  -5    6.60    2.10
  -4   6  -5   11.90    2.60
   4   6   5   11.00    2.20
   4   6   5    6.10    2.40
   4   6   5   11.40    2.40
  -5  -6  -5    0.10    1.80
   5  -6   5    2.00    2.30
   5  -6   5    4.20    2.20
   5   6   5    3.60    2.10
   5   6   5    2.40    2.20
   5   6   5    2.60    1.80
   6  -6   5    3.10    2.10
  -6   6  -5    9.50    2.90
   6   6   5    5.70    3.20
   6   6   5    6.30    2.70
   6   6   5    0.80    2.20
   8  -7  -5   10.00    2.40
   7  -7  -5   65.49    6.00
   7  -7  -5   76.79    6.20
   7  -7  -5   67.89    6.70
   7   7  -5   58.09    6.40
   7   7  -5   69.09    6.00
  -7   7   5   68.49    6.60
   6  -7  -5    0.00    1.50
   6  -7  -5    2.20    1.80
   6  -7  -5   -2.60    1.90
   6   7  -5    2.80    1.70
  -6   7   5   -0.30    3.70
   6   7  -5    1.30    1.90
  -6   7   5    3.20    2.30
  -5  -7   5  125.29    9.50
   5  -7  -5  138.49    8.90
   5  -7  -5  112.99   10.80
   5  -7  -5  130.99    8.70
   5   7  -5  115.89   11.00
  -5   7   5  142.79   13.10
  -5   7   5  134.39    9.10
   5   7  -5  132.89    8.90
   4  -7  -5   10.40    2.40
  -4  -7   5   10.00    2.50
   4  -7  -5    8.90    2.20
  -4   7   5   11.20    2.50
  -4   7   5    7.00    2.40
   4   7  -5    7.90    2.10
   4   7  -5   10.40    2.30
   4   7  -5    8.30    2.30
   3  -7  -5   34.80    3.80
   3  -7  -5   33.50    3.70
  -3  -7   5   32.90    3.70
   3   7  -5   29.40    3.60
  -3   7   5   37.40    4.10
   3   7  -5   34.90    3.70
  -3   7   5   35.50    3.90
   3   7  -5   26.00    3.70
   2  -7  -5   16.70    2.60
  -2  -7   5   11.50    2.20
   2  -7  -5   14.60    2.60
  -2  -7   5   11.10    2.10
  -2   7   5   16.70    3.10
  -2   7   5   14.60    2.20
   2   7  -5   14.40    2.70
   2   7  -5   14.30    2.60
  -2   7   5   17.80    2.90
  -1  -7   5   10.60    2.60
   1  -7  -5    9.10    1.80
  -1  -7   5   10.60    1.70
   1  -7  -5   10.20    1.90
  -1  -7   5    8.50    1.70
   1  -7  -5    7.40    1.70
   1   7  -5   10.00    2.00
  -1   7   5    9.70    1.90
  -1   7   5    9.20    2.00
  -1   7   5   10.00    2.10
   1   7  -5    7.60    1.80
   1   7  -5   12.10    2.30
  -1   7   5   13.90    2.60
   0  -7  -5   22.70    2.90
   0  -7  -5   31.60    3.20
   0  -7   5   28.90    4.50
   0  -7   5   27.30    3.20
   0  -7   5   28.10    2.90
   0  -7  -5   31.20    3.20
   0   7   5   26.10    3.30
   0   7   5   27.00    3.10
   0   7  -5   28.50    3.30
   0   7   5   23.60    3.10
   0   7  -5   29.50    3.10
   0   7  -5   26.70    3.20
  -1  -7  -5   11.50    2.00
   1  -7   5    8.50    2.30
  -1  -7  -5   12.50    2.30
  -1  -7  -5   11.20    2.40
   1  -7   5    9.80    2.20
   1   7   5   12.90    2.40
   1   7   5   12.30    2.30
  -1   7  -5   11.00    1.80
  -1   7  -5   10.80    2.10
  -1   7  -5   10.30    2.70
  -1   7  -5   13.20    2.50
   1   7   5    9.50    2.20
  -2  -7  -5   53.39    4.60
   2  -7   5   48.90    4.60
  -2  -7  -5   48.20    5.00
   2  -7   5   42.90    5.10
   2  -7   5   56.69    4.80
   2   7   5   50.49    5.00
   2   7   5   52.29    4.60
  -2   7  -5   50.09    5.60
   2   7   5   49.20    4.70
  -2   7  -5   47.60    4.60
  -2   7  -5   54.39    4.80
   3  -7   5   23.40    4.80
  -3  -7  -5   22.30    3.40
   3  -7   5   21.40    3.50
   3  -7   5   28.40    3.70
   3   7   5   18.20    3.80
   3   7   5   31.00    3.40
  -3   7  -5   24.70    3.70
   3   7   5   24.30    3.50
  -4  -7  -5   18.70    3.20
   4  -7   5   20.00    3.90
   4  -7   5   17.70    3.10
  -4   7  -5   23.80    3.90
   4   7   5   21.60    3.40
   4   7   5   18.20    3.60
   4   7   5   22.70    3.70
  -5  -7  -5   31.10    4.60
   5  -7   5   33.40    4.60
   5  -7   5   41.30    4.70
   5  -7   5   42.90    5.40
   5   7   5   38.50    5.20
  -5   7  -5   33.10    5.70
   5   7   5   41.80    4.70
   5   7   5   37.00    4.20
   6  -7   5   16.20    4.70
   6   7   5    7.80    5.70
  -6   7  -5   16.40    3.90
   6   7   5   12.20    4.10
   8  -8  -5    3.20    4.10
   8  -8  -5   -0.10    2.10
   8  -8  -5    2.70    2.70
   8   8  -5    7.30    2.80
   8   8  -5    3.00    2.00
   7  -8  -5   25.10    4.80
   7  -8  -5   21.10    4.30
   7   8  -5   30.70    4.80
  -7   8   5   37.60    5.50
   7   8  -5   27.20    4.10
   6  -8  -5   28.50    3.90
   6  -8  -5   28.60    4.50
   6  -8  -5   28.30    4.40
   6   8  -5   26.80    4.30
  -6   8   5   32.30    7.20
  -6   8   5   21.20    4.50
   6   8  -5   27.60    3.90
   5  -8  -5    0.10    1.60
   5  -8  -5    2.50    1.80
   5  -8  -5    2.20    1.90
  -5  -8   5    0.20    1.90
  -5   8   5    0.70    2.20
   5   8  -5   -0.70    1.80
   5   8  -5    0.50    1.60
   4  -8  -5   32.40    4.00
   4  -8  -5   30.40    4.10
  -4  -8   5   30.20    4.20
   4   8  -5   30.50    3.90
  -4   8   5   39.50    6.50
   4   8  -5   33.80    4.20
  -4   8   5   33.50    4.40
   3  -8  -5    0.00    1.50
  -3  -8   5   -0.10    1.20
   3  -8  -5   -0.90    1.30
  -3   8   5    0.00    1.60
   3   8  -5    1.70    1.30
   3   8  -5    1.10    1.60
  -3   8   5   -1.40    1.50
   2  -8  -5    4.80    1.60
   2  -8  -5    7.90    1.90
  -2  -8   5    7.40    1.60
  -2  -8   5    7.00    1.80
  -2   8   5    6.70    2.00
   2   8  -5    6.00    1.90
   2   8  -5    5.10    1.80
   2   8  -5    5.50    1.70
  -2   8   5    4.80    1.40
  -2   8   5   10.00    2.30
  -1  -8   5   -0.20    0.90
   1  -8  -5   -0.80    1.10
  -1  -8   5    0.20    1.20
  -1  -8   5    0.50    1.10
   1   8  -5   -1.00    1.10
  -1   8   5   -1.10    1.10
  -1   8   5    0.90    2.60
   1   8  -5   -0.80    1.20
  -1   8   5   -2.20    1.10
   1   8  -5    0.40    1.00
   1   8  -5   -1.10    1.10
  -1   8   5   -1.90    1.90
   0  -8  -5    6.40    1.80
   0  -8   5   10.40    1.80
   0  -8   5    8.60    1.90
   0  -8   5    6.40    1.80
   0  -8  -5    3.50    1.40
   0   8   5    6.00    1.90
   0   8  -5    6.50    1.70
   0   8  -5    5.20    1.50
   0   8   5    6.40    2.00
   0   8  -5    8.50    2.10
   0   8   5    6.30    2.00
   0   8  -5    7.00    1.90
  -1  -8  -5   64.59    4.90
   1  -8   5   52.09    5.10
   1  -8   5   61.69    5.00
  -1  -8  -5   51.19    4.40
   1   8   5   58.09    4.90
  -1   8  -5   56.59    4.30
  -1   8  -5   49.20    4.80
  -1   8  -5   61.49    6.40
   1   8   5   52.69    5.10
  -1   8  -5   59.19    4.90
   1   8   5   48.10    4.90
   2  -8   5    0.80    1.50
   2  -8   5    0.60    1.80
  -2  -8  -5   -0.50    1.30
   2  -8   5    2.50    1.60
   2   8   5    1.30    1.50
   2   8   5    0.70    1.70
  -2   8  -5    0.60    1.60
  -2   8  -5   -2.80    2.00
   2   8   5    0.40    1.70
  -2   8  -5    1.70    1.60
   3  -8   5   44.60    4.90
   3  -8   5   41.80    5.80
  -3  -8  -5   48.90    4.70
   3  -8   5   60.79    5.20
   3   8   5   46.70    5.30
  -3   8  -5   57.49    6.60
  -3   8  -5   58.89    5.20
   3   8   5   49.70    4.90
   3   8   5   52.09    4.60
  -4  -8  -5   67.99    5.90
   4  -8   5   51.89    6.50
   4  -8   5   62.79    5.80
   4   8   5   68.09    6.40
   4   8   5   66.89    5.80
  -5  -8  -5    0.60    2.30
   5  -8   5    4.40    2.20
   5  -8   5    1.20    2.10
   5   8   5   -2.30    1.70
   5   8   5    1.70    1.90
   5   8   5    2.60    2.10
   6  -8   5   12.80    3.70
   6  -8   5    9.10    2.50
   6  -8   5    5.50    2.80
   6   8   5   10.60    2.30
  -6   8  -5    7.70    3.40
   6   8   5    6.80    2.90
   8  -9  -5    3.60    2.70
   8  -9  -5    8.10    2.30
   8   9  -5   12.40    4.40
   7  -9  -5   79.79    7.90
   7  -9  -5   80.99    7.30
   7  -9  -5  107.59    7.70
  -7   9   5  105.09    8.40
   7   9  -5   81.19    7.10
   7   9  -5   80.99    7.90
   6  -9  -5    3.50    2.10
   6  -9  -5    1.00    1.90
   6  -9  -5   -1.40    1.80
   6   9  -5    3.00    1.90
  -6   9   5   -0.50    2.90
   6   9  -5    1.10    1.50
   5  -9  -5   69.59    5.80
   5  -9  -5   54.79    5.70
  -5  -9   5   47.00    5.60
   5  -9  -5   54.99    5.30
   5   9  -5   55.19    5.80
  -5   9   5   59.19    5.90
   5   9  -5   55.39    5.50
   4  -9  -5    1.00    2.10
   4  -9  -5    6.00    2.30
  -4  -9   5    2.30    1.80
   4   9  -5    3.50    2.40
  -4   9   5    4.00    2.60
   4   9  -5    4.20    1.70
  -4   9   5    2.70    2.40
   3  -9  -5   37.20    4.30
   3  -9  -5   49.30    4.80
  -3  -9   5   47.90    4.70
  -3   9   5   45.00    4.90
   3   9  -5   46.20    4.80
  -3   9   5   38.80    5.10
   3   9  -5   47.60    4.90
   3   9  -5   45.20    4.40
   2  -9  -5    4.90    1.80
   2  -9  -5    5.10    2.10
  -2  -9   5    8.00    1.90
   2   9  -5    7.10    1.80
   2   9  -5    5.70    2.00
  -2   9   5    4.30    1.60
   2   9  -5    7.40    2.00
  -2   9   5    6.60    2.10
  -2   9   5    5.00    2.30
  -1  -9   5   12.30    2.30
   1  -9  -5   13.50    2.50
   1  -9  -5    9.20    2.00
  -1  -9   5   10.80    2.20
   1   9  -5   12.10    2.40
   1   9  -5    9.10    1.90
   1   9  -5   15.30    2.60
  -1   9   5   15.90    2.70
  -1   9   5    7.50    2.10
   1   9  -5   11.50    2.30
  -1   9   5    9.80    2.40
  -1   9   5    6.00    2.00
   0  -9   5  201.28   11.10
   0  -9  -5  188.58   11.30
   0  -9   5  168.98   11.00
   0  -9  -5  162.18   10.70
   0  -9   5  201.18   11.40
   0   9   5  171.28   12.20
   0   9  -5  158.38   11.10
   0   9   5  146.49   11.10
   0   9   5  173.78   11.10
   0   9  -5  182.98   10.90
   0   9  -5  192.58   11.40
   0   9  -5  189.78   11.50
   0   9   5  197.28   11.80
  -1  -9  -5   25.90    3.40
   1  -9   5   23.60    3.60
  -1  -9  -5   19.30    3.00
   1  -9   5   23.60    3.60
  -1   9  -5   22.50    4.10
  -1   9  -5   16.40    3.10
  -1   9  -5   18.80    3.20
   1   9   5   18.40    3.40
   1   9   5   20.90    3.50
   1   9   5   18.80    3.10
  -1   9  -5   19.90    2.70
   2  -9   5   78.49    7.00
  -2  -9  -5   85.89    6.60
   2  -9   5   80.29    6.70
   2  -9   5  100.39    6.90
  -2   9  -5   94.19    7.70
   2   9   5   71.09    6.50
   2   9   5   83.89    7.80
   2   9   5   83.09    7.00
  -2   9  -5   78.39    6.60
  -2   9  -5   91.59    6.90
   3  -9   5   11.50    2.80
   3  -9   5   11.90    4.40
  -3   9  -5   18.10    3.10
  -3   9  -5   19.40    4.50
   3   9   5   12.10    2.70
   3   9   5   12.50    3.00
   4  -9   5    0.10    1.60
   4  -9   5   -0.90    2.00
  -4  -9  -5   -2.90    1.80
   4  -9   5    0.20    2.10
   4   9   5    0.30    1.70
   4   9   5   -1.60    1.80
   5  -9   5   26.60    4.10
  -5  -9  -5   28.10    5.10
   5  -9   5   16.90    3.60
   5  -9   5   25.40    4.60
   5   9   5   19.90    3.90
   5   9   5   20.60    3.90
  -5   9  -5   23.10    4.30
   6  -9   5    0.10    2.50
   6  -9   5   -1.10    2.40
   6  -9   5    0.60    2.80
   6   9   5    0.90    2.00
   6   9   5    3.80    2.10
   7 -10  -5   14.40    3.60
   7 -10  -5   23.50    4.40
   7 -10  -5   33.40    5.00
   7  10  -5   24.80    4.40
   7  10  -5   37.30    5.10
   6 -10  -5    1.10    2.40
   6 -10  -5    0.90    2.10
  -6 -10   5   -0.70    3.40
   6 -10  -5    2.20    2.20
   6  10  -5    2.30    1.90
   6  10  -5    3.40    2.30
   5 -10  -5   90.79    7.70
   5 -10  -5  121.49    8.10
   5 -10  -5   93.69    8.00
   5  10  -5  109.89    8.40
  -5  10   5  107.19    8.60
   5  10  -5   99.69    7.80
   4 -10  -5   48.80    5.20
  -4 -10   5   46.60    5.30
   4 -10  -5   54.59    5.20
  -4  10   5   46.60    5.60
   4  10  -5   51.79    5.30
  -4  10   5   47.50    6.10
  -3 -10   5   21.80    3.70
   3 -10  -5   17.10    3.00
   3 -10  -5   14.20    2.80
  -3  10   5   14.00    3.30
   3  10  -5   19.90    3.50
   3  10  -5   19.70    3.30
  -3  10   5   20.50    3.90
   3  10  -5   20.40    3.70
   2 -10  -5   37.80    4.60
  -2 -10   5   46.20    4.40
   2 -10  -5   33.50    4.10
  -2  10   5   48.30    5.10
   2  10  -5   40.70    4.30
  -2  10   5   34.50    5.00
   2  10  -5   46.20    4.60
  -2  10   5   31.90    4.30
   2  10  -5   38.50    4.20
  -2  10   5   34.10    3.60
  -1 -10   5   72.49    4.70
  -1 -10   5   68.89    5.40
   1 -10  -5   49.00    4.90
  -1 -10   5   60.09    4.90
   1 -10  -5   62.99    5.50
  -1  10   5   48.70    5.30
  -1  10   5   61.29    5.60
   1  10  -5   55.99    5.20
  -1  10   5   61.39    5.90
  -1  10   5   52.79    5.10
   1  10  -5   67.69    5.60
   1  10  -5   62.39    5.30
   1  10  -5   63.89    5.30
   0 -10   5   44.00    4.40
   0 -10  -5   32.70    3.80
   0 -10  -5   37.20    4.10
   0 -10   5   44.60    4.30
   0  10  -5   42.60    4.50
   0  10  -5   36.60    4.30
   0  10   5   39.90    4.20
   0  10   5   29.00    4.10
   0  10  -5   45.50    5.70
   0  10   5   44.40    4.90
   0  10   5   47.80    5.00
   0  10  -5   37.10    3.90
   1 -10   5    7.80    2.20
  -1 -10  -5    4.70    2.00
  -1 -10  -5    5.90    1.70
   1 -10   5    6.60    1.90
   1  10   5    5.10    1.90
  -1  10  -5    8.00    2.30
   1  10   5    5.70    2.00
  -1  10  -5    4.20    1.80
  -1  10  -5    9.50    2.80
   2 -10   5    2.20    1.80
   2 -10   5    2.10    2.00
  -2 -10  -5    1.80    1.80
   2  10   5    0.80    1.90
   2  10   5   -0.20    1.90
  -2  10  -5    1.90    2.00
  -2  10  -5    1.90    1.60
  -2  10  -5    3.50    2.50
   3 -10   5    6.20    2.30
  -3 -10  -5    2.80    1.80
   3 -10   5    4.00    2.50
   3  10   5    5.50    2.30
  -3  10  -5    2.80    3.40
   3  10   5    2.70    1.80
  -3  10  -5    4.30    2.10
   4 -10   5   24.10    3.90
   4 -10   5   18.70    4.00
  -4 -10  -5   25.10    5.30
   4 -10   5   21.70    4.10
  -4  10  -5   28.00    6.30
   4  10   5   22.60    3.90
   4  10   5   26.00    4.40
  -4  10  -5   29.50    6.10
   5 -10   5   -3.00    1.90
   5  10   5   -0.50    1.90
  -5  10  -5    0.70    2.60
   5  10   5   -2.10    1.90
   7 -11  -5   -1.70    2.70
  -7 -11   5    5.50    3.90
   7 -11  -5    5.10    3.20
   7  11  -5    2.00    2.40
  -6 -11   5   12.60    3.40
   6 -11  -5    4.10    2.40
   6 -11  -5    2.40    2.30
   6 -11  -5    4.60    2.80
   6  11  -5    5.90    2.40
   6  11  -5    9.30    2.60
   5 -11  -5    1.60    2.30
   5 -11  -5    1.90    1.80
   5 -11  -5    3.50    3.00
  -5  11   5    6.70    3.00
   5  11  -5    0.60    1.60
   5  11  -5   -0.40    1.90
  -5  11   5    6.00    2.90
   4 -11  -5   23.80    3.80
   4 -11  -5   20.80    3.90
   4  11  -5   23.20    3.50
  -4  11   5   22.40    4.70
   4  11  -5   30.30    4.00
  -4  11   5   28.90    4.90
   3 -11  -5   85.79    6.70
  -3 -11   5   78.59    6.70
   3 -11  -5   67.49    6.40
   3  11  -5   57.89    7.80
   3  11  -5   85.59    6.90
  -3  11   5   81.39    7.10
   3  11  -5   60.19    7.80
  -3  11   5   82.99    7.30
   2 -11  -5   54.09    5.20
  -2 -11   5   62.79    5.50
  -2 -11   5   55.39    4.60
   2 -11  -5   65.19    5.80
   2  11  -5   61.29    5.50
  -2  11   5   62.79    6.30
  -2  11   5   62.69    4.80
   2  11  -5   69.39    7.00
   2  11  -5   50.89    5.40
  -2  11   5   46.80    5.40
  -2  11   5   62.39    6.00
  -1 -11   5  101.19    7.60
   1 -11  -5  126.49    8.50
  -1 -11   5  122.99    7.40
   1 -11  -5   99.09    7.70
  -1 -11   5  123.19    9.20
   1  11  -5   92.89    8.00
  -1  11   5  122.89    8.50
  -1  11   5  132.39    9.10
  -1  11   5  112.69    7.80
  -1  11   5   92.09    8.00
   1  11  -5  113.69    8.10
   1  11  -5  125.69    8.60
   1  11  -5  126.19    8.50
   0 -11  -5   87.59    6.60
   0 -11   5  101.49    7.50
   0 -11   5   90.79    7.00
   0  11  -5  109.19    7.80
   0  11   5   97.79    7.20
   0  11  -5   81.19    7.20
   0  11  -5   98.69    7.80
   0  11   5   77.29    7.40
   0  11   5   99.19    7.20
   0  11  -5  102.69    6.80
   0  11   5  104.69    8.00
   1 -11   5   -0.80    1.60
  -1 -11  -5    1.50    1.40
  -1 -11  -5    0.40    1.80
   1 -11   5    0.40    1.70
  -1  11  -5    1.80    1.40
  -1  11  -5    1.10    2.70
   1  11   5    2.90    1.80
  -1  11  -5    0.10    2.20
  -1  11  -5    0.10    1.80
   1  11   5   -1.10    1.80
   1  11   5    0.80    1.80
   2 -11   5   13.60    3.10
   2 -11   5   10.40    2.30
  -2  11  -5    7.10    2.40
   2  11   5   11.10    2.60
   2  11   5    8.90    2.40
  -2  11  -5   15.00    3.60
   3 -11   5    8.90    2.40
  -3 -11  -5    6.40    2.80
   3 -11   5   11.30    3.00
  -3  11  -5   14.40    6.80
   3  11   5    8.50    2.60
   3  11   5    7.90    2.40
   4 -11   5   -0.70    2.20
   4 -11   5   -3.60    4.20
  -4 -11  -5    2.20    2.00
  -4  11  -5   -0.20    4.10
   4  11   5    3.70    2.20
   4  11   5    4.80    2.10
  -5 -11  -5    6.00    3.30
   5 -11   5    2.70    2.60
   5 -11   5    2.60    3.20
  -5  11  -5    3.30    3.00
   5  11   5    3.70    2.70
   5  11   5    1.20    2.20
   7 -12  -5    6.60    2.80
   7 -12  -5    1.90    2.50
   7  12  -5    1.60    2.00
   7  12  -5    6.30    2.60
  -7  12   5   16.90    6.00
  -6 -12   5   12.60    3.60
   6 -12  -5   12.10    3.30
   6 -12  -5    6.40    2.70
   6 -12  -5    8.30    2.60
   6  12  -5   11.60    2.90
   6  12  -5    7.00    2.30
   5 -12  -5   42.40    5.30
  -5 -12   5   41.00    7.80
   5 -12  -5   57.49    5.50
   5 -12  -5   39.30    5.20
   5  12  -5   45.40    5.40
   5  12  -5   41.40    4.80
  -5  12   5   51.89    7.20
   4 -12  -5    9.20    2.90
   4 -12  -5    5.80    2.20
   4  12  -5    6.30    2.30
   4  12  -5    4.10    2.00
  -4  12   5    7.60    3.50
  -4  12   5   12.40    3.30
   3 -12  -5  154.18   11.20
   3 -12  -5  179.38   11.30
   3  12  -5  144.99   10.90
   3  12  -5  169.38   11.40
   3  12  -5  162.58   11.40
  -3  12   5  201.28   12.30
  -3  12   5  184.08   12.00
   2 -12  -5    2.80    1.70
  -2 -12   5    3.60    1.80
  -2 -12   5    2.50    1.40
   2 -12  -5    7.50    2.40
  -2  12   5    2.70    1.70
   2  12  -5    2.10    1.80
  -2  12   5    1.80    2.10
   2  12  -5    4.60    1.90
  -2  12   5    4.50    2.50
  -2  12   5    5.90    3.00
   2  12  -5    0.00    2.20
   1 -12  -5   25.50    3.60
  -1 -12   5   29.30    3.60
  -1  12   5   30.10    4.60
   1  12  -5   31.30    3.80
  -1  12   5   35.80    5.10
  -1  12   5   25.10    4.00
   1  12  -5   24.90    4.00
   1  12  -5   33.70    5.40
  -1  12   5   33.80    3.80
   0 -12  -5    0.10    1.30
   0 -12   5    0.20    1.40
   0  12   5   -1.40    1.60
   0  12  -5   -1.00    1.50
   0  12  -5   -0.80    1.30
   0  12  -5    0.10    1.80
   0  12  -5   -1.60    2.20
   0  12   5   -1.80    1.60
   0  12   5    0.20    2.00
   1 -12   5    9.80    2.70
   1 -12   5   13.00    2.90
  -1 -12  -5   11.10    2.00
  -1  12  -5    7.50    2.40
   1  12   5   13.80    2.70
   1  12   5    6.40    2.30
   1  12   5   11.70    3.70
  -1  12  -5   15.40    2.90
  -1  12  -5   11.60    3.60
  -2 -12  -5   -2.30    1.70
   2 -12   5   -0.50    1.80
   2 -12   5    1.50    2.00
   2  12   5    0.20    1.90
   2  12   5    1.30    1.80
  -2  12  -5    1.70    3.20
   3 -12   5   13.30    3.10
   3  12   5   14.60    3.30
  -3  12  -5   20.10    4.00
   3  12   5   12.40    3.00
   4 -12   5    7.40    2.90
  -4 -12  -5    5.80    2.70
   4 -12   5    7.70    2.80
  -4  12  -5    0.90    2.40
   4  12   5    4.90    2.20
   5 -12   5   -2.30    2.40
   5  12   5    1.30    2.50
   5  12   5    3.20    2.30
  -5  12  -5    6.10    3.90
   6 -13  -5    3.60    2.50
   6 -13  -5   -5.20    3.00
  -6 -13   5   -7.90    4.40
   6 -13  -5   -1.40    2.30
   6  13  -5    0.00    2.30
   6  13  -5    1.90    2.00
   5 -13  -5   91.59    8.10
  -5 -13   5  107.39    8.40
   5 -13  -5   97.19    8.20
   5  13  -5   98.89    8.40
   5  13  -5   90.79    7.70
  -4 -13   5    2.90    3.90
   4 -13  -5    9.40    2.60
   4 -13  -5   -0.90    1.90
   4  13  -5    3.80    1.80
   4  13  -5    7.60    2.30
  -3 -13   5   87.79    8.50
   3 -13  -5   82.59    6.90
   3 -13  -5   67.89    6.30
  -3  13   5   84.39    7.60
   3  13  -5   73.19    6.70
   3  13  -5   67.09    6.40
   2 -13  -5   -0.30    1.70
   2 -13  -5   -0.60    2.10
  -2 -13   5    0.20    1.40
  -2  13   5    0.20    2.50
  -2  13   5   -0.10    1.90
   2  13  -5   -1.70    1.50
  -2  13   5    1.90    1.70
   2  13  -5   -2.00    2.70
   2  13  -5    1.70    1.70
  -1 -13   5    0.50    1.50
   1 -13  -5    0.50    1.50
   1 -13  -5    1.90    2.20
   1  13  -5    0.40    2.50
  -1  13   5   -1.10    2.30
   1  13  -5    2.60    1.60
   1  13  -5    0.10    1.70
  -1  13   5    0.50    1.70
  -1  13   5   -0.10    1.80
   0 -13  -5   22.80    3.30
   0 -13   5   24.30    3.80
   0  13  -5   28.30    5.30
   0  13  -5   20.60    3.80
   0  13  -5   24.60    3.60
   0  13   5   22.40    3.70
   0  13   5   33.50    4.50
   0  13   5   16.40    3.30
   1 -13   5   -3.10    1.80
  -1 -13  -5   -1.60    1.40
  -1 -13  -5   -1.10    3.00
   1 -13   5   -1.00    1.80
  -1  13  -5   -0.70    1.70
  -1  13  -5    0.00    1.50
   1  13   5   -1.50    1.70
   1  13   5    0.40    1.90
  -1  13  -5   -1.40    2.70
   2 -13   5   44.90    5.60
   2 -13   5   45.40    5.40
  -2 -13  -5   45.40    5.20
  -2  13  -5   45.80    8.70
   2  13   5   48.30    5.50
   2  13   5   39.10    5.10
  -2  13  -5   51.99    5.90
   2  13   5   51.79    6.90
  -3 -13  -5    7.90    2.80
   3 -13   5   13.00    3.20
   3  13   5   18.00    3.60
  -3  13  -5   13.00    3.30
   4 -13   5    2.90    2.20
   4  13   5   -3.50    2.50
   4  13   5   -3.30    2.20
  -4  13  -5    3.30    2.60
   6 -14  -5    9.10    3.00
   6  14  -5    4.80    2.80
   5 -14  -5   39.30    5.40
  -5 -14   5   50.39    5.90
   5 -14  -5   32.50    5.20
   5  14  -5   45.00    5.30
   5  14  -5   29.00    4.80
   4 -14  -5    9.70    3.60
  -4  14   5   12.40    4.20
  -4  14   5    7.80    3.70
   4  14  -5    4.10    2.00
   4  14  -5    6.70    2.40
   3 -14  -5   11.20    2.60
  -3  14   5   14.00    6.00
   3  14  -5   15.60    3.40
   3  14  -5    7.20    2.60
  -3  14   5   15.60    3.70
   2 -14  -5   14.60    2.70
  -2 -14   5   15.80    4.30
   2 -14  -5   26.40    4.80
  -2 -14   5   20.20    3.20
  -2  14   5   29.90    6.00
   2  14  -5   21.40    3.70
  -2  14   5   14.50    3.20
   2  14  -5   22.30    4.20
  -2  14   5   18.60    3.30
  -2  14   5   25.00    4.20
   1 -14  -5   -1.80    1.70
   1 -14  -5   -0.20    1.70
  -1 -14   5    0.40    1.50
  -1  14   5   -1.00    1.70
  -1  14   5   -1.40    1.80
   1  14  -5    0.10    3.60
   1  14  -5   -2.00    1.50
  -1  14   5   -2.00    2.30
   1  14  -5   -3.80    2.80
   1  14  -5    2.40    2.00
   0 -14  -5   -0.20    1.60
   0 -14   5    0.80    2.10
   0 -14   5   -0.60    2.00
   0  14  -5    3.50    2.00
   0  14  -5    1.50    3.00
   0  14  -5    1.00    1.70
   0  14   5    1.80    2.10
   0  14   5   -0.60    2.40
   0  14   5    0.00    3.30
  -1 -14  -5   15.50    2.90
   1 -14   5   13.10    3.30
   1 -14   5   24.10    4.10
   1  14   5   14.40    3.10
   1  14   5   14.70    3.10
  -1  14  -5   20.70    4.90
  -1  14  -5   12.10    2.90
  -1  14  -5   16.30    3.10
  -2 -14  -5   -0.70    1.90
   2 -14   5    3.70    2.30
   2 -14   5    1.70    2.20
   2  14   5    8.00    5.70
  -2  14  -5    6.60    3.60
   2  14   5    3.20    2.20
  -2  14  -5    1.20    2.20
   3 -14   5    6.30    3.00
   3  14   5   10.30    3.10
  -3  14  -5   12.20    3.20
   3  14   5   11.50    3.20
   4 -14   5    1.10    2.90
   4  14   5    4.60    2.30
   4  14   5    0.00    2.40
   5 -15  -5    1.70    2.60
   5 -15  -5   11.60    3.40
   5  15  -5    3.30    3.30
   5  15  -5    3.40    2.20
   4 -15  -5   -1.80    1.90
  -4 -15   5    7.70    3.60
   4  15  -5    0.60    2.20
  -4  15   5    0.00    3.80
   4  15  -5   -1.10    1.90
  -3 -15   5   36.10    5.30
   3 -15  -5   35.10    4.60
   3 -15  -5   51.59    5.70
   3  15  -5   39.80    5.20
   3  15  -5   28.00    4.90
   3  15  -5   55.99    9.20
  -3  15   5   43.10    6.90
  -3  15   5   42.10    7.40
   2 -15  -5    8.20    3.50
   2 -15  -5    1.80    1.80
  -2 -15   5    9.00    2.30
  -2 -15   5    4.00    2.70
  -2  15   5    6.10    3.80
   2  15  -5    5.20    2.30
  -2  15   5    4.90    2.20
   2  15  -5   11.40    3.50
  -2  15   5    6.40    2.40
   2  15  -5   10.00    2.90
  -2  15   5    6.70    3.40
  -1 -15   5   -1.70    2.00
   1 -15  -5    0.60    1.50
  -1 -15   5    0.10    1.70
   1 -15  -5    1.90    2.60
   1 -15  -5    0.70    2.30
   1  15  -5    4.80    2.40
   1  15  -5    0.40    1.70
   1  15  -5    1.80    2.00
  -1  15   5   -0.20    3.30
  -1  15   5    3.30    2.00
   1  15  -5    1.70    3.20
  -1  15   5    4.90    3.20
  -1  15   5    0.40    1.90
   0 -15  -5   10.10    2.10
   0 -15   5    9.20    2.70
   0 -15  -5   12.20    2.20
   0 -15   5    9.00    2.50
   0  15   5    8.20    2.60
   0  15  -5    9.00    2.60
   0  15   5   18.40    4.60
   0  15   5   12.50    2.60
   0  15  -5   12.70    3.10
   0  15   5    8.10    3.60
   0  15  -5    9.60    3.30
  -1 -15  -5   45.90    7.60
   1 -15   5   24.50    4.70
   1 -15   5   26.40    4.90
   1  15   5   36.90    4.70
  -1  15  -5   37.20    8.70
  -1  15  -5   32.00    4.00
  -1  15  -5   30.40    4.80
   1  15   5   29.70    4.60
   2  15   5    2.60    2.40
  -2  15  -5    3.70    2.60
   2  15   5    2.70    2.40
   3 -15   5    1.10    2.60
   3  15   5   -4.50    2.40
   3  15   5    1.20    2.60
   5 -16  -5   -3.00    2.80
   5 -16  -5   -2.40    3.80
   5  16  -5    2.50    2.20
   5  16  -5    0.70    2.40
   4 -16  -5    5.50    2.50
   4  16  -5    6.50    2.90
   4  16  -5    5.90    2.70
   3 -16  -5    6.00    3.10
   3 -16  -5    1.90    2.10
   3  16  -5   -1.50    3.10
  -3  16   5    2.80    2.30
   3  16  -5   -2.30    2.10
  -3  16   5   -0.90    3.60
   3  16  -5   -1.40    2.00
   2 -16  -5   14.60    2.70
   2 -16  -5   20.20    3.70
   2  16  -5   22.50    4.60
   2  16  -5   13.40    3.00
   2  16  -5   14.70    3.10
  -2  16   5   21.90    4.10
  -2  16   5   11.00    2.70
  -1 -16   5   13.20    2.80
   1  16  -5   13.80    2.90
   1  16  -5   13.20    3.10
  -1  16   5    8.30    2.80
   0 -16   5    6.00    2.50
   0 -16  -5    9.20    2.20
   0  16   5    4.00    2.30
   0  16   5   12.20    2.70
   0  16  -5    3.80    2.50
   0  16   5    7.60    3.70
   0  16  -5   11.40    4.30
   0  16  -5    5.60    2.20
   0  16  -5   17.10    5.70
   1 -16   5   -3.40    2.30
  -1  16  -5    3.40    2.10
  -1  16  -5    2.20    4.90
   1  16   5    0.60    2.40
   1  16   5    0.30    2.10
   2 -16   5   25.50    5.20
   2  16   5   16.00    3.60
   2  16   5   21.00    4.30
   3 -16   5   17.00    4.10
   3  16   5   10.90    3.50
   3  16   5    8.80    3.40
   4 -17  -5   -0.70    2.30
   4  17  -5    0.40    2.20
   4  17  -5   -3.00    2.10
   2 -17  -5    0.30    2.50
   2  17  -5    0.50    2.30
  -2  17   5    5.60    2.50
   1 -17  -5    2.60    3.40
  -1  17   5    0.60    4.30
  -1  17   5   -1.00    2.00
   1  17  -5    0.00    1.80
  -1  17   5    4.50    2.20
   0 -17  -5   10.50    1.90
   1 -17   5   -0.80    2.20
   1  17   5    6.40    2.50
  -1  17  -5    0.70    1.90
   2  17   5   29.50    5.80
   2  17   5   42.20    5.10
   3 -18  -5   -1.90    1.90
  -3  18   5    0.20    2.70
   3  18  -5   -3.10    2.60
   3  18  -5   -0.70    3.00
  -2  18   5    5.40    3.00
   2  18  -5   -1.00    2.60
  -2  18   5   -0.10    2.70
   1 -18  -5   -3.80    2.50
  -1 -18   5    5.70    1.90
  -1  18   5   -1.30    4.10
  -1  18   5    6.60    2.50
   0 -18  -5    6.70    2.50
   0  18   5    1.20    2.50
   0  18   5    4.60    2.40
   0  18  -5    5.40    2.50
   1 -18   5    9.20    3.00
   1  18   5   10.30    3.10
  -1  18  -5    3.00    2.50
   1  18   5    8.50    3.50
   8   0  -6    5.40    2.40
   8   0  -6    5.10    1.70
  -7   0   6   -3.20    2.90
   7   0  -6   -1.70    1.60
   7   0  -6   -2.20    1.30
  -6   0   6   33.00    5.00
   6   0  -6   31.40    4.60
   6   0  -6   35.40    3.70
   5   0  -6    0.00    1.50
  -5   0   6   -1.40    1.60
   5   0  -6    0.50    1.30
   4   0  -6  348.07   20.40
   4   0  -6  406.06   20.10
   4   0  -6  368.06   21.10
  -4   0   6  360.06   20.80
  -3   0   6   -0.70    1.30
   3   0  -6    0.50    1.00
   3   0  -6    1.30    1.30
   3   0  -6    0.70    1.00
  -2   0   6    0.30    1.10
   2   0  -6    1.10    1.10
   2   0  -6    1.90    1.20
  -2   0   6    2.00    1.10
   2   0  -6    0.60    1.10
  -1   0   6    0.30    1.00
  -1   0   6   -1.10    1.10
   1   0  -6    0.40    1.00
  -1   0   6    0.90    1.20
   1   0  -6   -0.20    1.00
   1   0  -6    0.00    1.00
   0   0  -6  980.10   49.99
   0   0  -6 1022.70   49.80
   0   0   6 1034.10   52.19
   0   0   6  821.82   49.70
   0   0  -6  916.91   49.30
   0   0   6  945.51   49.60
   1   0   6    3.30    1.70
   1   0   6    1.50    1.70
   1   0   6    1.70    1.30
  -1   0  -6    2.40    1.70
  -1   0  -6    1.40    1.30
   2   0   6  315.57   18.80
   2   0   6  281.07   18.00
  -2   0  -6  324.77   18.30
   2   0   6  322.77   17.80
  -2   0  -6  316.87   17.10
   3   0   6   -0.90    3.10
  -3   0  -6    0.30    1.10
  -3   0  -6    0.10    1.60
   3   0   6    0.40    1.90
   3   0   6    0.40    1.50
   4   0   6   -1.30    2.10
   4   0   6   -1.10    1.70
   4   0   6    0.30    1.90
   5   0   6    0.70    2.10
   5   0   6    0.40    2.10
   5   0   6   -2.10    2.40
   6   0   6    1.50    2.30
   6   0   6    8.30    3.60
   8  -1  -6   -1.30    2.00
   8  -1  -6    0.60    1.90
   8   1  -6    0.60    1.70
   8   1  -6   -1.80    1.90
  -7  -1   6   23.10    5.00
   7  -1  -6   16.30    3.40
   7  -1  -6   15.00    2.80
   7   1  -6   14.40    3.40
   7   1  -6   17.30    3.30
  -6  -1   6    0.80    2.10
   6  -1  -6   -0.10    1.30
   6  -1  -6   -0.10    1.50
   6   1  -6    1.80    1.40
   6   1  -6   -1.30    1.50
  -6   1   6    2.60    2.30
  -5  -1   6   53.29    5.30
   5  -1  -6   55.59    5.50
   5  -1  -6   50.39    4.70
   5   1  -6   53.89    5.40
   5   1  -6   55.99    4.60
  -5   1   6   59.69    5.50
   4  -1  -6    0.00    1.10
   4  -1  -6    0.00    1.30
  -4   1   6    0.20    1.10
   4   1  -6    1.10    1.10
   4   1  -6    2.00    1.20
   4   1  -6    0.40    1.40
   3  -1  -6  135.89    7.90
  -3  -1   6  135.49    8.40
   3  -1  -6  133.19    8.70
   3  -1  -6  119.99    8.10
   3   1  -6  121.49    8.10
  -3   1   6  125.59    7.80
   3   1  -6  126.49    8.50
  -3   1   6  127.29   10.60
   3   1  -6  138.49    8.10
  -2  -1   6   -0.70    1.30
   2  -1  -6    0.20    1.00
  -2  -1   6    2.00    1.30
   2  -1  -6    0.80    1.00
   2  -1  -6    1.20    1.30
  -2  -1   6    0.60    1.10
  -2   1   6    2.40    1.20
   2   1  -6    1.00    1.10
   2   1  -6    0.60    1.20
   2   1  -6    1.80    1.20
  -2   1   6    0.20    1.10
   1  -1  -6   70.79    5.00
  -1  -1   6   70.99    5.10
  -1  -1   6   63.19    5.10
   1  -1  -6   57.49    5.00
  -1  -1   6   77.39    5.20
  -1  -1   6   74.49    5.30
   1  -1  -6   75.79    5.40
   1  -1  -6   70.39    5.20
  -1   1   6   60.89    4.90
   1   1  -6   70.39    5.10
  -1   1   6   74.59    5.20
   1   1  -6   74.89    5.40
   1   1  -6   62.39    5.00
   0  -1   6  233.98   15.70
   0  -1  -6  278.17   15.30
   0  -1  -6  289.27   16.00
   0  -1   6  275.47   15.80
   0  -1  -6  298.17   15.70
   0  -1   6  300.47   18.10
   0  -1   6  273.97   16.00
   0   1   6  270.07   15.60
   0   1   6  246.08   15.70
   0   1  -6  295.57   15.80
   0   1  -6  262.47   15.40
   0   1   6  296.27   17.20
   0   1  -6  300.87   16.50
   1  -1   6  349.77   19.10
   1  -1   6  318.87   19.70
  -1  -1  -6  367.76   19.20
   1  -1   6  347.17   20.10
  -1  -1  -6  347.07   19.80
   1  -1   6  359.56   19.40
   1   1   6  320.27   19.70
  -1   1  -6  336.37   18.80
   1   1   6  373.46   19.50
  -1   1  -6  361.76   19.80
  -1   1  -6  356.36   19.00
  -2  -1  -6  333.37   18.20
   2  -1   6  327.57   19.80
   2  -1   6  361.06   18.90
  -2  -1  -6  329.07   19.10
   2  -1   6  291.37   19.00
   2   1   6  306.77   19.20
   2   1   6  353.36   18.80
  -2   1  -6  344.17   19.30
  -2   1  -6  341.87   18.10
  -3  -1  -6   14.20    2.60
   3  -1   6   16.40    2.80
  -3  -1  -6    9.50    2.50
   3  -1   6   12.50    4.30
   3  -1   6   12.30    3.20
   3   1   6   11.70    4.00
  -3   1  -6   11.90    2.90
   3   1   6   18.10    3.20
   3   1   6    8.70    4.50
   4  -1   6    8.20    2.30
   4  -1   6   10.10    2.40
  -4  -1  -6    5.10    3.20
   4  -1   6    7.50    2.90
   4   1   6    6.40    2.70
   4   1   6    7.30    2.50
   4   1   6    8.60    2.30
   5  -1   6    3.30    2.40
  -5  -1  -6   -0.10    2.50
   5  -1   6   -1.60    2.10
   5  -1   6   -1.80    1.90
   5   1   6    2.40    2.50
   5   1   6   -1.40    2.00
   6  -1   6    2.30    2.40
   6   1   6    2.80    2.40
   6   1   6    7.80    3.60
   8  -2  -6    3.00    2.00
   8  -2  -6   -0.90    1.80
   8   2  -6    1.40    1.90
   8   2  -6   -2.70    2.20
   8   2  -6    1.60    1.70
   7  -2  -6   23.40    4.10
  -7  -2   6   24.60    4.90
   7   2  -6   21.60    4.00
   7   2  -6   24.50    3.50
  -6  -2   6    2.20    2.00
   6  -2  -6    0.10    1.60
   6  -2  -6   -0.70    1.50
   6   2  -6    1.30    1.50
  -6   2   6    1.10    2.40
   6   2  -6    0.00    1.40
   6   2  -6    0.40    1.40
   5  -2  -6    4.60    2.00
   5  -2  -6    4.20    1.70
  -5  -2   6    5.90    2.00
   5   2  -6    4.90    1.60
  -5   2   6    3.90    2.10
   5   2  -6    3.80    1.50
   5   2  -6    2.70    1.70
  -4  -2   6   77.69    6.00
   4  -2  -6   75.79    5.80
   4  -2  -6   71.29    6.20
   4   2  -6   80.39    5.40
  -4   2   6   76.19    6.00
   4   2  -6   76.79    6.20
   4   2  -6   70.99    5.50
  -3  -2   6   12.70    2.40
   3  -2  -6   10.80    2.10
  -3  -2   6   11.20    2.50
   3  -2  -6    9.10    2.10
   3  -2  -6   12.50    2.00
   3   2  -6    7.70    1.90
   3   2  -6    9.10    1.80
   3   2  -6   12.80    2.30
  -3   2   6   12.70    2.40
  -3   2   6   12.50    1.90
   2  -2  -6   77.49    6.10
  -2  -2   6   96.49    6.70
   2  -2  -6  106.59    8.30
  -2  -2   6   98.79    6.30
  -2  -2   6   82.89    6.20
   2  -2  -6   92.39    6.10
   2  -2  -6   90.99    6.50
  -2   2   6   97.09    8.20
   2   2  -6   92.19    6.50
  -2   2   6   88.19    6.00
   2   2  -6   83.29    6.10
   2   2  -6  103.89    6.40
  -1  -2   6   -0.80    1.00
  -1  -2   6   -1.40    1.00
   1  -2  -6    0.30    1.00
   1  -2  -6    1.90    1.30
   1  -2  -6   -0.10    1.00
  -1  -2   6   -0.60    1.50
   1  -2  -6   -0.20    1.00
  -1  -2   6   -1.60    1.10
  -1   2   6   -1.20    1.10
   1   2  -6   -0.80    0.90
   1   2  -6   -1.40    1.20
  -1   2   6   -0.90    0.90
   0  -2  -6  167.58    9.50
   0  -2  -6  151.78    9.00
   0  -2   6  135.49    9.60
   0  -2  -6  157.58    9.70
   0  -2   6  154.18    9.60
   0  -2   6  168.88   10.70
   0  -2   6  147.99    9.80
   0   2  -6  145.79    9.20
   0   2   6  143.49    9.60
   0   2   6  171.68   10.50
   1  -2   6  163.08   10.80
   1  -2   6  177.98   10.20
  -1  -2  -6  164.88   10.40
   1  -2   6  151.58    9.80
   1  -2   6  139.99   10.20
  -1  -2  -6  173.58    9.90
  -1   2  -6  168.38    9.70
   1   2   6  156.28   10.40
  -1   2  -6  158.68    9.70
   1   2   6  182.88   10.30
  -1   2  -6  165.38   10.40
   2  -2   6  271.67   16.70
   2  -2   6  278.07   15.20
   2  -2   6  248.68   16.10
  -2  -2  -6  270.27   16.20
   2  -2   6  281.97   15.80
  -2  -2  -6  271.97   15.20
   2   2   6  287.27   15.80
  -2   2  -6  278.37   14.90
  -2   2  -6  267.57   16.10
   2   2   6  252.57   16.10
  -3  -2  -6   77.39    5.90
   3  -2   6   95.89    6.70
   3  -2   6   82.79    8.20
   3   2   6   73.99    7.80
  -3   2  -6   87.59    7.10
   3   2   6   92.79    6.60
   4  -2   6   22.20    3.90
  -4  -2  -6   18.90    4.20
   4  -2   6   23.50    4.60
   4  -2   6   23.50    4.00
   4   2   6   20.40    4.10
   4   2   6   23.50    4.00
   4   2   6   21.00    4.10
   5  -2   6   21.90    4.30
  -5  -2  -6   18.60    4.10
   5  -2   6   12.70    3.10
  -5   2  -6   19.40    3.80
   5   2   6   15.00    3.70
   5   2   6   20.40    3.50
   5   2   6   14.70    3.20
   6  -2   6    4.50    2.60
   6   2   6   -1.10    2.80
   6   2   6    1.90    2.50
   8  -3  -6   10.00    2.90
   8  -3  -6    8.00    2.70
   8   3  -6    9.80    2.80
   8   3  -6   10.70    3.10
   8   3  -6   10.90    2.20
   7  -3  -6    0.90    1.80
   7  -3  -6   -0.40    1.70
  -7  -3   6    3.10    3.00
   7   3  -6   -1.80    1.20
   7   3  -6   -0.10    1.40
  -7   3   6    3.20    5.60
   6  -3  -6    9.60    2.80
  -6  -3   6   11.90    3.20
   6  -3  -6   11.90    2.50
   6   3  -6   13.40    2.50
  -6   3   6    6.90    2.90
   6   3  -6   10.30    2.50
   5  -3  -6    0.30    1.30
   5  -3  -6   -0.20    1.60
  -5  -3   6    0.90    2.90
  -5   3   6   -0.50    1.90
   5   3  -6    0.50    1.30
   5   3  -6    1.60    1.60
   5   3  -6    0.70    1.20
   4  -3  -6  121.99    8.30
  -4  -3   6  122.99    8.90
  -4  -3   6  124.59    8.20
   4  -3  -6  125.29    8.90
   4   3  -6  119.29    8.50
  -4   3   6  129.59    8.70
   4   3  -6  123.09    7.90
   4   3  -6  131.79    8.10
   3  -3  -6   11.30    2.10
   3  -3  -6   11.30    2.30
   3  -3  -6   11.70    2.40
  -3  -3   6   12.90    2.30
  -3   3   6   11.60    2.00
   3   3  -6   11.70    2.20
   3   3  -6   14.50    2.50
   3   3  -6   12.70    2.40
  -3   3   6   12.80    2.50
  -2  -3   6   -0.30    1.30
  -2  -3   6    1.00    1.20
   2  -3  -6    0.10    1.10
   2  -3  -6   -0.60    1.10
   2  -3  -6   -0.10    1.10
   2  -3  -6   -1.40    0.90
   2   3  -6    0.50    1.10
   2   3  -6    0.00    1.10
  -2   3   6   -1.60    1.00
  -2   3   6    1.50    1.10
   2   3  -6    0.00    1.10
  -2   3   6   -1.60    0.90
   1  -3  -6    3.20    1.30
  -1  -3   6    1.80    1.20
   1  -3  -6    0.90    1.10
  -1  -3   6    0.70    1.50
   1  -3  -6    3.30    1.40
  -1  -3   6   -0.50    1.30
   1  -3  -6    0.30    1.10
  -1  -3   6    2.20    1.30
   1   3  -6    2.20    1.50
  -1   3   6    2.90    1.30
   1   3  -6    2.30    1.20
  -1   3   6    1.90    2.10
   0  -3  -6   54.29    4.60
   0  -3   6   55.19    5.10
   0  -3   6   53.69    5.00
   0  -3  -6   61.29    5.00
   0  -3   6   68.99    5.10
   0  -3  -6   65.89    4.90
   0  -3  -6   63.79    4.30
   0  -3   6   59.09    4.80
   0   3   6   67.89    5.00
   0   3  -6   53.29    4.60
   0   3   6   57.99    4.90
   0   3  -6   64.89    5.20
  -1  -3  -6   28.30    3.50
   1  -3   6   22.10    3.70
  -1  -3  -6   31.60    3.20
   1  -3   6   22.30    3.80
   1  -3   6   25.20    3.10
   1  -3   6   23.90    3.20
   1   3   6   29.60    3.60
  -1   3  -6   27.40    3.50
   1   3   6   32.60    3.50
  -1   3  -6   26.10    3.10
  -1   3  -6   26.30    3.00
   2  -3   6  588.14   31.00
   2  -3   6  524.25   31.70
   2  -3   6  633.64   31.70
  -2  -3  -6  599.64   31.10
  -2  -3  -6  585.64   32.00
   2  -3   6  567.64   32.30
   2   3   6  536.35   31.80
  -2   3  -6  560.44   30.90
  -2   3  -6  597.64   31.90
   2   3   6  641.24   31.60
  -3  -3  -6   28.60    3.30
   3  -3   6   26.30    3.70
   3  -3   6   21.90    5.50
   3  -3   6   17.00    4.60
   3   3   6   23.40    3.90
  -3   3  -6   23.50    3.90
   3   3   6   29.00    3.70
   4  -3   6  115.79    9.30
  -4  -3  -6   98.29    7.60
   4  -3   6  109.99    8.40
   4   3   6  105.89    9.10
   4   3   6  118.59    8.10
   4   3   6  105.49    8.50
  -5  -3  -6    0.10    3.90
   5  -3   6    2.10    2.10
   5  -3   6   -1.20    2.00
  -5   3  -6    2.80    2.20
   5   3   6   -0.10    2.20
   5   3   6   -0.70    1.90
   5   3   6    0.00    2.20
   6  -3   6    3.70    2.40
   6  -3   6    4.00    2.90
   6   3   6    3.60    4.20
   6   3   6    7.40    3.10
   8  -4  -6    0.10    5.00
   8  -4  -6    0.90    1.90
   8   4  -6   -0.70    1.90
   8   4  -6    0.30    2.10
   7  -4  -6   -4.30    2.20
  -7  -4   6   -2.00    2.60
   7  -4  -6    1.40    2.20
  -7   4   6    6.80    3.00
   7   4  -6   -1.20    2.00
   7   4  -6    0.10    1.40
   7   4  -6   -0.20    1.70
   6  -4  -6   -0.90    1.50
   6  -4  -6   -0.60    1.30
  -6  -4   6    1.80    2.20
   6   4  -6   -0.50    1.30
   6   4  -6    0.90    1.20
   6   4  -6    0.90    1.30
   5  -4  -6   56.69    5.50
  -5  -4   6   62.59    5.70
   5  -4  -6   66.69    7.60
   5  -4  -6   74.89    6.00
   5   4  -6   69.39    6.40
   5   4  -6   62.39    5.00
  -5   4   6   78.49    6.60
   5   4  -6   64.69    5.90
   4  -4  -6   81.39    6.70
   4  -4  -6   87.79    6.40
   4  -4  -6   78.39    6.00
  -4  -4   6   74.69    6.50
  -4  -4   6   77.79    5.80
   4   4  -6   83.99    6.00
   4   4  -6   73.69    6.20
  -4   4   6   80.79    6.50
   4   4  -6   72.49    5.50
   3  -4  -6   14.70    2.20
  -3  -4   6   14.40    2.90
   3  -4  -6   13.40    2.60
   3  -4  -6   15.50    2.80
  -3  -4   6   20.10    2.70
   3  -4  -6   15.70    2.60
  -3   4   6   20.80    3.00
   3   4  -6   12.40    2.40
  -3   4   6   17.10    2.60
   3   4  -6   15.70    2.70
   3   4  -6   15.00    2.40
  -2  -4   6   88.29    6.60
   2  -4  -6   88.09    6.10
   2  -4  -6   79.19    5.50
  -2  -4   6   82.99    5.70
   2  -4  -6   78.49    6.10
  -2   4   6   77.69    5.40
  -2   4   6   86.19    6.20
   2   4  -6   73.39    5.90
  -2   4   6   79.99    5.70
   2   4  -6   86.29    6.10
   1  -4  -6    9.60    2.00
   1  -4  -6   11.70    2.20
  -1  -4   6   13.90    2.30
  -1  -4   6   14.00    2.60
   1  -4  -6   14.90    2.40
   1  -4  -6   12.90    2.40
  -1  -4   6   12.10    2.30
   1   4  -6   15.60    4.00
   1   4  -6   14.30    2.40
  -1   4   6   13.00    2.30
  -1   4   6   12.10    2.30
   0  -4   6   55.19    4.40
   0  -4  -6   58.79    4.10
   0  -4   6   55.59    4.70
   0  -4  -6   60.79    6.00
   0  -4  -6   51.29    4.40
   0  -4   6   43.40    4.50
   0  -4   6   51.49    4.80
   0  -4  -6   60.99    4.70
   0   4   6   51.99    4.70
   0   4  -6   56.69    4.90
   0   4   6   66.39    4.80
   0   4  -6   50.49    4.40
   1  -4   6   23.40    3.80
   1  -4   6   23.20    3.20
   1  -4   6   32.90    3.40
  -1  -4  -6   32.20    3.60
  -1   4  -6   31.30    3.60
   1   4   6   25.30    3.40
   1   4   6   23.80    3.40
  -1   4  -6   23.20    3.20
   2  -4   6   35.40    3.80
   2  -4   6   21.90    3.70
   2  -4   6   29.10    4.30
  -2  -4  -6   34.90    3.90
  -2  -4  -6   31.40    4.10
   2  -4   6   35.00    3.50
   2   4   6   30.70    3.80
   2   4   6   36.70    4.30
  -2   4  -6   24.40    3.90
  -2   4  -6   28.00    3.40
   3  -4   6    6.40    2.90
   3  -4   6    4.70    2.30
  -3  -4  -6    5.20    1.80
   3   4   6    5.70    2.00
  -3   4  -6    6.90    2.40
   3   4   6    3.30    2.10
   4  -4   6    4.90    2.10
  -4  -4  -6    9.50    2.60
  -4  -4  -6    5.90    2.00
   4  -4   6    4.60    2.60
   4   4   6    6.60    2.50
  -4   4  -6    8.60    2.20
   4   4   6    6.10    2.30
   5  -4   6   28.10    4.30
  -5  -4  -6   22.10    3.50
   5   4   6   23.40    4.50
   5   4   6   31.60    4.60
  -5   4  -6   24.10    4.50
   6  -4   6    2.50    2.90
   6  -4   6    6.00    2.60
   6   4   6    3.80    2.40
   6   4   6    2.40    2.70
   8  -5  -6   -0.10    2.00
   8  -5  -6   -1.90    2.20
   8  -5  -6    7.70    4.50
   8   5  -6    0.10    2.60
   8   5  -6   -1.70    1.90
   8   5  -6   -4.00    2.10
   7  -5  -6    4.30    2.60
   7  -5  -6    6.60    2.30
   7   5  -6    3.60    2.30
  -7   5   6    6.40    3.50
   7   5  -6    6.30    2.20
   6  -5  -6    5.80    2.20
   6  -5  -6    6.60    2.40
   6  -5  -6    3.50    1.80
   6   5  -6    4.30    2.00
   6   5  -6    8.20    2.10
  -5  -5   6    7.30    2.40
   5  -5  -6   11.70    2.60
  -5  -5   6    7.90    2.20
   5   5  -6    8.80    3.30
   5   5  -6   11.90    2.40
  -5   5   6   11.50    3.00
   4  -5  -6    2.10    1.60
   4  -5  -6    2.50    1.90
  -4  -5   6    0.70    1.20
  -4  -5   6   -0.40    1.60
   4  -5  -6    3.40    1.60
   4   5  -6   -0.90    1.40
   4   5  -6    0.70    1.40
   4   5  -6    1.80    1.30
  -4   5   6    2.50    1.50
  -4   5   6    1.30    1.80
   3  -5  -6  204.38   12.20
   3  -5  -6  207.98   12.60
   3  -5  -6  183.48   12.00
  -3  -5   6  198.08   11.60
  -3  -5   6  205.78   12.50
   3   5  -6  190.28   11.50
   3   5  -6  204.88   12.60
   3   5  -6  184.28   12.00
  -3   5   6  204.28   12.40
  -3   5   6  205.58   11.80
   2  -5  -6   49.99    4.10
  -2  -5   6   56.19    4.80
  -2  -5   6   57.89    4.40
   2  -5  -6   56.19    4.80
   2  -5  -6   48.70    4.40
   2  -5  -6   47.60    4.40
  -2   5   6   52.39    4.00
  -2   5   6   51.09    4.80
  -2   5   6   57.89    4.60
   2   5  -6   57.69    4.90
   2   5  -6   52.39    4.60
  -1  -5   6   -0.60    1.40
   1  -5  -6    0.70    1.20
  -1  -5   6   -1.30    1.30
   1  -5  -6    1.40    1.30
  -1  -5   6    1.00    1.10
   1  -5  -6   -1.30    1.00
   1  -5  -6    0.30    0.90
  -1  -5   6    2.10    1.20
   1   5  -6    0.00    1.20
   1   5  -6    0.90    1.10
  -1   5   6    1.80    1.30
  -1   5   6    1.10    1.30
   0  -5   6    1.40    1.30
   0  -5   6    0.60    1.10
   0  -5   6    1.60    1.50
   0  -5  -6    0.90    2.00
   0  -5  -6   -0.70    1.20
   0  -5  -6    1.90    1.20
   0  -5   6    0.30    1.40
   0   5  -6    0.80    1.50
   0   5   6    2.00    1.40
   0   5   6    0.00    1.30
   0   5  -6    0.00    1.10
   1  -5   6  243.58   13.40
   1  -5   6  194.18   13.50
   1  -5   6  228.88   13.30
  -1  -5  -6  229.08   13.70
   1  -5   6  214.08   13.80
  -1  -5  -6  240.58   13.30
   1   5   6  249.88   13.40
  -1   5  -6  225.88   13.70
   1   5   6  216.58   13.70
  -1   5  -6  210.88   13.10
  -2  -5  -6   57.09    5.50
  -2  -5  -6   58.89    4.80
   2  -5   6   46.10    5.10
   2  -5   6   61.29    4.80
   2  -5   6   47.90    5.30
   2  -5   6   53.49    4.80
  -2   5  -6   51.59    4.60
   2   5   6   52.09    5.40
  -2   5  -6   54.29    5.30
   2   5   6   60.19    5.10
   2   5   6   55.49    4.90
   3  -5   6   27.40    4.30
   3  -5   6   24.60    4.10
   3  -5   6   21.50    3.70
  -3  -5  -6   25.20    3.40
  -3   5  -6   20.10    3.70
   3   5   6   23.80    3.90
   3   5   6   20.00    3.70
   3   5   6   23.90    3.50
   4  -5   6   40.40    5.60
  -4  -5  -6   35.10    4.00
  -4  -5  -6   32.30    5.10
   4  -5   6   36.30    4.70
   4   5   6   37.40    4.30
   4   5   6   47.40    4.90
  -4   5  -6   36.80    5.70
   4   5   6   44.50    5.10
  -5  -5  -6    4.90    2.10
   5  -5   6    1.80    2.10
   5  -5   6    4.40    2.60
   5   5   6    1.70    2.20
   5   5   6    1.30    1.60
  -5   5  -6    4.50    2.50
   5   5   6   -2.00    3.10
   5   5   6   -0.20    2.40
   6  -5   6    7.70    2.90
   6  -5   6    8.70    3.50
   6   5   6   10.80    3.00
   6   5   6   13.80    3.60
   8  -6  -6    5.80    3.70
   8  -6  -6   -2.80    2.20
   8  -6  -6   -2.10    3.00
   8   6  -6    1.80    2.10
   8   6  -6   -2.00    2.30
   7  -6  -6   24.60    5.10
   7  -6  -6   46.10    5.20
   7  -6  -6   34.30    4.70
   7   6  -6   34.90    4.60
  -7   6   6   42.40    6.90
   7   6  -6   30.30    4.80
   7   6  -6   41.30    5.10
   6  -6  -6    4.60    2.40
   6  -6  -6    1.80    1.90
   6  -6  -6    3.20    2.20
   6   6  -6    3.60    1.90
   6   6  -6    8.00    2.40
   6   6  -6    3.90    2.30
  -6   6   6    2.30    4.00
   5  -6  -6   10.60    2.60
   5  -6  -6    7.00    2.20
  -5  -6   6    7.30    2.60
   5  -6  -6    5.90    2.30
   5   6  -6    8.60    2.40
  -5   6   6   13.10    2.40
   5   6  -6    7.40    2.30
   4  -6  -6   98.39    8.00
   4  -6  -6  113.99    7.50
   4  -6  -6   94.29    7.30
  -4  -6   6   95.19    6.80
  -4  -6   6  104.59    7.80
  -4   6   6  102.49    7.90
   4   6  -6  112.39    7.40
  -4   6   6   95.59    7.10
   4   6  -6   93.39    7.30
  -3  -6   6   28.70    3.90
   3  -6  -6   34.50    4.20
   3  -6  -6   31.10    3.80
   3  -6  -6   31.30    3.70
  -3  -6   6   34.90    3.40
   3   6  -6   28.00    3.70
   3   6  -6   30.40    3.60
  -3   6   6   37.20    4.10
  -3   6   6   31.30    3.80
   2  -6  -6    9.80    2.10
   2  -6  -6   10.80    1.90
   2  -6  -6   10.90    2.10
  -2  -6   6   10.70    2.10
  -2  -6   6    9.70    2.20
   2  -6  -6    8.10    2.00
   2   6  -6    7.60    1.90
  -2   6   6   15.90    2.80
  -2   6   6    7.90    1.60
   2   6  -6   10.20    2.20
  -2   6   6   12.00    2.40
  -1  -6   6   52.59    4.40
   1  -6  -6   61.59    4.90
   1  -6  -6   62.29    4.80
  -1  -6   6   62.69    4.70
   1  -6  -6   60.19    4.80
  -1  -6   6   59.99    5.00
   1  -6  -6   54.49    4.70
  -1   6   6   62.19    5.20
   1   6  -6   65.59    5.20
   1   6  -6   50.09    4.70
  -1   6   6   53.89    4.60
  -1   6   6   59.79    5.10
   0  -6   6  225.98   13.50
   0  -6   6  251.87   13.30
   0  -6   6  192.48   13.40
   0  -6  -6  243.78   13.50
   0  -6   6  234.88   13.50
   0  -6  -6  197.78   13.10
   0  -6  -6  226.38   12.90
   0  -6  -6  235.98   14.30
   0   6   6  241.88   13.50
   0   6  -6  205.18   13.20
   0   6   6  217.48   13.50
   0   6  -6  251.07   13.80
   1  -6   6   26.80    3.80
   1  -6   6   23.80    3.80
   1  -6   6   30.60    3.50
  -1  -6  -6   28.50    3.40
  -1  -6  -6   31.10    3.80
   1  -6   6   32.00    3.60
  -1   6  -6   26.10    3.50
   1   6   6   28.40    3.70
  -1   6  -6   19.70    3.60
   1   6   6   27.80    3.60
   1   6   6   24.00    3.50
  -2  -6  -6   63.49    5.90
   2  -6   6   74.19    5.40
  -2  -6  -6   65.49    5.20
   2  -6   6   58.89    5.90
   2  -6   6   55.59    5.60
   2   6   6   58.19    5.40
   2   6   6   67.39    5.40
  -2   6  -6   59.19    5.10
  -2   6  -6   66.39    5.70
   2   6   6   59.99    5.80
   3  -6   6    9.40    2.20
   3  -6   6    4.80    2.50
   3  -6   6   16.80    2.90
  -3  -6  -6   10.20    2.20
   3   6   6    8.40    2.50
   3   6   6    9.60    2.30
   3   6   6   10.40    2.50
   4  -6   6    0.50    1.80
  -4  -6  -6    9.90    3.10
   4  -6   6    4.20    2.70
  -4  -6  -6    3.90    1.90
   4   6   6    5.70    2.00
   4   6   6    2.20    2.30
   4   6   6    4.70    2.10
   5  -6   6   -3.40    1.80
   5  -6   6   -0.90    2.40
  -5  -6  -6   -0.80    2.00
  -5   6  -6   -0.30    2.70
   5   6   6   -0.10    2.30
   5   6   6    1.00    1.70
   5   6   6    4.80    2.60
   8  -7  -6    2.50    2.70
   8  -7  -6   10.80    3.50
   8   7  -6    3.70    2.50
   8   7  -6    3.10    2.00
   7  -7  -6   12.50    3.20
   7  -7  -6   10.80    3.10
   7   7  -6   11.10    3.40
   7   7  -6   11.10    2.70
   6  -7  -6   -0.10    1.60
  -6  -7   6    1.00    2.60
   6  -7  -6   -0.80    1.90
   6  -7  -6    0.10    1.80
   6  -7  -6    2.30    2.00
   6   7  -6   -0.80    2.00
  -6   7   6    7.10    2.90
  -6   7   6   -2.60    2.10
   6   7  -6    4.10    2.00
   6   7  -6    1.60    1.70
   5  -7  -6    0.50    1.70
   5  -7  -6    1.10    1.70
  -5  -7   6    1.00    1.80
  -5   7   6   -2.80    1.80
   5   7  -6    1.10    1.70
   5   7  -6   -2.20    1.90
   5   7  -6    1.50    1.50
   4  -7  -6   21.20    3.60
  -4  -7   6   22.60    3.90
   4  -7  -6   22.60    4.10
   4   7  -6   17.60    3.50
  -4   7   6   28.40    4.00
   4   7  -6   24.90    3.60
  -3  -7   6   29.90    3.90
   3  -7  -6   35.60    3.90
   3  -7  -6   26.30    3.50
   3   7  -6   26.70    3.60
   3   7  -6   31.30    3.90
  -3   7   6   33.50    4.30
  -3   7   6   25.90    3.80
  -2  -7   6   21.50    3.30
  -2  -7   6   17.20    2.70
   2  -7  -6   21.70    3.10
   2  -7  -6   18.30    2.70
   2  -7  -6   15.70    2.80
  -2   7   6   18.40    3.30
  -2   7   6   24.90    3.60
   2   7  -6   24.10    3.40
   2   7  -6   22.40    3.20
  -2   7   6   18.10    2.50
  -1  -7   6   40.80    3.90
   1  -7  -6   43.80    4.20
   1  -7  -6   46.30    4.40
   1  -7  -6   40.20    4.10
  -1  -7   6   51.39    4.70
  -1  -7   6   44.50    4.30
   1  -7  -6   40.60    4.10
  -1   7   6   45.60    4.20
  -1   7   6   47.60    4.60
   1   7  -6   41.20    4.10
   1   7  -6   47.30    4.50
  -1   7   6   50.59    4.70
   0  -7   6   43.50    4.50
   0  -7  -6   53.19    4.80
   0  -7   6   50.79    4.30
   0  -7  -6   50.79    4.50
   0  -7   6   44.40    4.60
   0  -7  -6   41.80    4.20
   0   7   6   44.50    4.60
   0   7  -6   40.10    4.30
   0   7  -6   49.60    4.70
   0   7   6   53.49    4.60
   0   7   6   46.10    4.60
  -1  -7  -6   85.89    7.00
  -1  -7  -6   99.89    6.70
  -1  -7  -6   85.99    6.40
   1  -7   6  106.19    6.80
   1  -7   6   93.09    7.20
   1  -7   6   96.89    6.80
   1  -7   6   77.79    6.90
   1   7   6  104.19    6.90
  -1   7  -6  102.39    7.20
   1   7   6   88.89    7.00
  -1   7  -6   80.39    6.60
   1   7   6   80.29    6.80
  -2  -7  -6   58.09    5.10
   2  -7   6   54.09    5.50
   2  -7   6   61.59    4.90
  -2  -7  -6   61.69    5.60
   2   7   6   55.79    5.00
   2   7   6   43.40    7.30
  -2   7  -6   50.69    4.90
  -2   7  -6   51.29    5.20
   2   7   6   47.10    4.90
   3  -7   6   -0.30    1.70
  -3  -7  -6    1.30    2.00
   3  -7   6    1.80    2.20
   3  -7   6    5.00    2.00
  -3  -7  -6    3.30    2.60
   3   7   6    2.20    1.70
   3   7   6    1.60    1.90
   3   7   6    2.50    1.90
   4  -7   6    2.50    2.40
  -4  -7  -6    3.00    1.90
   4  -7   6    2.40    2.00
   4  -7   6   -2.30    2.10
   4   7   6    4.00    2.50
   4   7   6    6.30    2.50
  -4   7  -6    5.10    2.70
   4   7   6    2.70    2.90
   5  -7   6    2.60    2.60
   5  -7   6    0.50    2.10
   5  -7   6    3.40    2.40
   5   7   6    3.50    2.40
  -5   7  -6    4.80    3.00
   5   7   6    3.30    1.90
   5   7   6    6.00    2.50
   8  -8  -6    4.60    2.30
   8  -8  -6    0.80    2.40
   8  -8  -6    8.00    3.40
   8   8  -6    5.00    2.30
   8   8  -6    7.00    3.80
   7  -8  -6   30.10    4.40
   7  -8  -6   26.10    5.10
   7  -8  -6   31.30    4.80
   7   8  -6   27.60    4.30
   7   8  -6   26.00    4.60
  -7   8   6   28.70    5.00
   6  -8  -6    0.50    2.20
   6  -8  -6    2.80    2.20
  -6  -8   6    7.10    2.90
   6  -8  -6    6.40    2.20
   6   8  -6    3.30    2.20
  -6   8   6    1.00    2.90
   6   8  -6    2.70    2.50
   6   8  -6    4.40    1.80
   5  -8  -6   24.40    4.00
   5  -8  -6   28.90    4.40
   5   8  -6   25.60    4.20
   5   8  -6   29.70    3.80
   5   8  -6   27.80    4.30
  -5   8   6   21.80    4.30
  -4  -8   6    3.10    2.30
   4  -8  -6    0.40    1.70
   4  -8  -6    0.00    1.60
  -4   8   6    8.10    2.60
   4   8  -6    7.20    2.20
   4   8  -6    1.90    1.90
   4   8  -6    2.90    2.00
   3  -8  -6    7.90    2.30
   3  -8  -6   12.90    2.60
  -3  -8   6   12.20    2.60
  -3   8   6   12.20    2.90
   3   8  -6    8.70    2.70
   3   8  -6   10.70    2.40
  -3   8   6   15.10    3.20
   3   8  -6   14.70    2.70
  -2  -8   6   16.40    2.70
  -2  -8   6   14.60    2.80
   2  -8  -6   16.60    2.90
   2  -8  -6   16.00    2.90
  -2   8   6   22.50    3.50
  -2   8   6   13.00    2.50
   2   8  -6   17.40    2.90
  -2   8   6   15.60    2.90
   2   8  -6   14.40    2.70
   1  -8  -6    2.40    1.60
   1  -8  -6    2.40    1.50
   1  -8  -6    3.60    1.60
  -1  -8   6    1.90    1.50
  -1  -8   6    3.50    1.50
   1   8  -6    2.80    1.70
  -1   8   6    1.60    1.60
  -1   8   6    5.80    2.10
  -1   8   6    5.00    2.10
   1   8  -6    4.10    1.80
   1   8  -6    0.30    1.40
   0  -8   6   37.40    3.70
   0  -8  -6   38.60    4.10
   0  -8  -6   29.30    3.60
   0  -8  -6   32.40    3.90
   0  -8   6   31.50    3.80
   0  -8   6   31.40    4.00
   0   8  -6   33.10    4.30
   0   8   6   31.60    4.10
   0   8   6   31.00    3.90
   0   8  -6   32.20    3.80
   0   8   6   27.40    3.90
   0   8  -6   33.30    4.00
   0   8  -6   33.90    3.90
   1  -8   6   48.90    5.00
   1  -8   6   59.09    5.10
   1  -8   6   61.29    4.80
  -1  -8  -6   49.70    5.00
   1  -8   6   46.00    4.90
  -1  -8  -6   44.50    4.40
  -1  -8  -6   47.70    4.70
  -1   8  -6   42.70    4.70
  -1   8  -6   54.99    5.30
   1   8   6   53.49    5.10
  -1   8  -6   54.49    4.40
   1   8   6   40.60    4.70
   1   8   6   47.10    4.80
   2  -8   6   -0.30    1.40
   2  -8   6   -0.80    1.60
   2  -8   6   -0.30    1.80
  -2  -8  -6    1.90    1.70
  -2  -8  -6    3.50    1.90
  -2   8  -6    0.00    1.60
   2   8   6    1.90    1.60
  -2   8  -6    2.10    1.50
   2   8   6    1.00    1.80
   2   8   6    1.10    1.70
   3  -8   6   18.70    3.80
   3  -8   6   22.70    3.70
  -3  -8  -6   23.60    3.60
   3   8   6   21.30    4.10
   3   8   6   21.80    3.80
   3   8   6   21.90    4.10
   4  -8   6   15.10    3.60
   4  -8   6   14.60    3.30
   4  -8   6   19.40    3.60
   4   8   6   14.30    3.30
   4   8   6   20.20    3.50
   4   8   6   20.30    3.10
  -4   8  -6   19.50    3.80
   5  -8   6   17.00    2.90
   5  -8   6   12.30    4.30
   5  -8   6   22.70    4.30
  -5  -8  -6   14.90    3.60
   5   8   6   13.70    4.70
   5   8   6   21.00    3.50
   7  -9  -6    6.40    2.20
   7  -9  -6    3.70    5.10
   7   9  -6    6.30    2.40
  -6  -9   6    8.50    2.50
   6  -9  -6    3.90    2.20
   6  -9  -6    1.70    2.30
   6  -9  -6    0.80    1.90
  -6   9   6    4.80    2.60
   6   9  -6    4.80    2.40
  -6   9   6    3.00    3.30
   6   9  -6    2.90    1.90
   5  -9  -6    8.00    2.70
   5  -9  -6    5.70    2.30
  -5  -9   6    1.90    3.00
   5   9  -6    4.40    1.80
  -5   9   6    6.70    2.80
   5   9  -6    9.30    2.80
   5   9  -6    1.60    1.90
   4  -9  -6   14.10    2.90
  -4   9   6   27.40    4.20
   4   9  -6   20.20    3.80
   4   9  -6   21.80    3.80
   4   9  -6   24.10    3.60
  -4   9   6   13.20    3.40
   3  -9  -6   48.80    5.70
   3  -9  -6   68.99    5.70
   3   9  -6   68.99    5.80
   3   9  -6   61.79    5.90
  -3   9   6   56.09    6.20
  -3   9   6   60.19    5.90
  -2  -9   6    5.90    1.90
   2  -9  -6    3.90    1.80
  -2  -9   6    5.00    1.60
   2  -9  -6    3.90    2.00
   2   9  -6    3.50    1.60
  -2   9   6    4.60    2.20
  -2   9   6    5.00    2.30
   2   9  -6    3.80    1.90
   2   9  -6    5.30    2.20
  -2   9   6    2.30    1.60
   1  -9  -6    8.90    2.40
  -1  -9   6   13.40    2.40
   1  -9  -6    8.20    2.00
  -1  -9   6   13.20    2.50
  -1  -9   6    8.30    2.00
  -1   9   6   12.50    2.90
   1   9  -6    6.80    2.20
  -1   9   6   10.80    2.60
   1   9  -6   10.70    2.50
  -1   9   6    6.10    1.90
   1   9  -6   15.70    3.00
   1   9  -6    7.40    2.00
   0  -9   6   -0.20    1.40
   0  -9   6    0.00    1.30
   0  -9  -6   -1.60    1.30
   0  -9  -6    0.20    1.50
   0  -9   6    1.80    1.50
   0   9  -6   -0.50    1.20
   0   9   6    0.80    1.50
   0   9   6   -2.10    1.70
   0   9  -6   -3.30    3.00
   0   9   6   -1.00    1.40
   0   9  -6   -0.60    1.30
   0   9   6   -1.40    1.80
   0   9  -6    0.10    1.30
   1  -9   6   18.20    3.40
   1  -9   6   15.70    2.70
  -1  -9  -6   12.60    2.30
  -1  -9  -6   19.50    3.10
   1   9   6   20.90    3.30
  -1   9  -6   20.80    3.60
   1   9   6   15.20    3.40
  -1   9  -6   17.20    3.30
   1   9   6   14.50    2.80
  -1   9  -6   14.90    3.60
   2  -9   6   66.19    5.90
   2  -9   6   69.69    6.10
   2  -9   6   64.29    7.30
  -2  -9  -6   72.19    5.80
  -2   9  -6   63.39    5.80
   2   9   6   73.39    6.00
   2   9   6   69.79    6.20
   2   9   6   59.49    5.80
   3  -9   6   17.30    2.70
   3  -9   6   12.50    3.10
   3  -9   6   12.80    2.80
   3   9   6   12.90    2.90
   3   9   6   21.30    3.90
   3   9   6   11.40    2.60
  -3   9  -6   12.90    3.90
   4  -9   6   -1.40    2.60
   4  -9   6    1.40    1.80
   4  -9   6    2.00    2.10
  -4  -9  -6   -0.30    2.40
  -4   9  -6    0.40    2.60
   4   9   6   -0.20    1.80
   4   9   6   -2.40    1.70
   5  -9   6    4.80    3.10
  -5  -9  -6   -0.70    2.90
   5  -9   6    4.50    2.50
   5   9   6    4.30    2.30
   5   9   6    5.70    2.60
   7 -10  -6    0.50    3.80
   7 -10  -6    0.90    3.00
   7 -10  -6    0.40    2.00
   7  10  -6   -3.60    2.80
   7  10  -6    0.00    2.00
   6 -10  -6   -0.80    2.00
   6 -10  -6    2.70    2.90
  -6  10   6    4.50    3.20
   6  10  -6   -1.90    1.90
   6  10  -6    0.20    1.80
  -5 -10   6   -1.80    3.50
   5 -10  -6    5.20    2.40
   5 -10  -6    0.20    2.00
  -5  10   6   -4.10    3.00
   5  10  -6   -0.60    1.60
  -5  10   6    5.80    2.80
   5  10  -6    4.30    2.40
   5  10  -6    3.40    2.10
   4 -10  -6   14.50    3.10
   4 -10  -6   10.30    2.50
   4  10  -6   13.80    2.80
   4  10  -6   10.70    2.50
  -4  10   6   19.00    4.00
   4  10  -6   18.60    3.50
   3 -10  -6    8.40    2.40
   3 -10  -6    4.90    2.10
   3  10  -6    7.00    2.40
  -3  10   6    6.00    3.00
  -3  10   6   10.70    3.00
   3  10  -6    5.80    2.00
   3  10  -6    6.30    2.30
   2 -10  -6   48.20    5.10
   2 -10  -6   55.89    5.40
   2  10  -6   65.59    5.60
  -2  10   6   50.99    4.70
   2  10  -6   63.69    5.60
  -2  10   6   59.59    5.90
   2  10  -6   51.39    5.40
  -2  10   6   63.69    6.00
  -1 -10   6   52.79    4.70
   1 -10  -6   46.70    4.80
  -1 -10   6   60.89    4.80
  -1 -10   6   59.59    5.50
  -1  10   6   47.90    6.10
   1  10  -6   58.49    5.30
  -1  10   6   60.49    5.70
  -1  10   6   55.29    5.00
  -1  10   6   63.69    6.20
   1  10  -6   60.59    5.40
   0 -10   6    6.30    2.20
   0 -10  -6    6.80    2.10
   0 -10  -6    3.80    1.70
   0 -10   6    4.00    1.90
   0 -10   6    5.50    1.90
   0  10  -6    7.10    1.90
   0  10   6    9.60    2.50
   0  10   6    2.80    1.90
   0  10  -6    3.10    1.90
   0  10   6    7.30    2.00
   0  10  -6    7.10    2.50
   0  10   6    5.10    2.30
  -1 -10  -6   -0.90    1.60
   1 -10   6    1.30    1.60
   1 -10   6   -0.10    1.70
  -1 -10  -6   -0.30    1.30
  -1  10  -6    3.50    2.20
  -1  10  -6   -0.70    2.40
  -1  10  -6   -0.20    1.30
   1  10   6   -0.90    1.90
   1  10   6   -2.20    2.50
   1  10   6    0.90    1.70
   2 -10   6   23.90    4.20
   2 -10   6   27.30    4.30
   2  10   6   22.10    3.80
  -2  10  -6   30.70    5.90
   2  10   6   27.60    3.90
  -2  10  -6   23.60    3.90
   2  10   6   23.60    4.00
   3 -10   6    3.70    2.10
   3 -10   6    0.20    2.20
   3 -10   6    1.00    2.30
  -3 -10  -6    2.00    2.70
   3  10   6    4.10    2.40
  -3  10  -6    0.60    2.10
   3  10   6    0.60    1.80
   3  10   6    2.60    2.10
   4 -10   6   -7.00    4.20
   4 -10   6   -2.60    2.30
   4 -10   6    0.50    2.20
  -4 -10  -6    1.30    2.30
   4  10   6   -1.40    2.00
  -4  10  -6   -2.80    2.40
   4  10   6    0.40    2.30
   5 -10   6   -4.30    2.50
   5 -10   6   -0.10    2.60
   5 -10   6   -0.20    2.70
  -5 -10  -6    4.00    3.90
   5  10   6    2.20    2.30
   5  10   6    3.20    2.80
   5  10   6   -2.60    2.50
   7 -11  -6    8.10    2.60
   7  11  -6    4.20    2.70
   6 -11  -6    5.00    4.40
   6 -11  -6    4.10    2.20
   6  11  -6    5.00    2.30
   5 -11  -6    2.30    1.70
   5  11  -6   -2.80    2.50
   5  11  -6    1.90    2.10
  -5  11   6    4.80    2.90
   5  11  -6   -0.40    1.50
  -5  11   6   -3.10    2.80
  -4 -11   6   14.30    5.60
   4 -11  -6   11.00    2.60
   4 -11  -6   17.70    3.40
  -4  11   6    5.40    6.30
   4  11  -6   14.40    3.00
   4  11  -6   11.50    2.50
  -4  11   6   13.00    3.80
   4  11  -6   19.30    3.40
   3 -11  -6    1.40    1.60
   3 -11  -6    1.20    2.20
  -3  11   6    3.60    2.70
   3  11  -6    2.00    1.60
   3  11  -6    2.00    1.90
   3  11  -6    6.20    2.20
  -3  11   6   -2.30    2.70
   2 -11  -6   78.29    8.40
   2 -11  -6  104.39    7.70
   2  11  -6   76.49    7.00
  -2  11   6   95.49    7.90
  -2  11   6   89.49    6.50
   2  11  -6   90.49    8.10
  -2  11   6  102.49    8.00
  -1 -11   6   27.00    3.50
   1 -11  -6   24.40    3.60
  -1 -11   6   20.90    3.30
  -1 -11   6   28.60    4.10
  -1  11   6   35.70    4.70
   1  11  -6   24.70    3.60
  -1  11   6   22.50    3.90
  -1  11   6   26.60    4.90
   1  11  -6   28.40    4.10
  -1  11   6   25.90    3.50
   0 -11   6    6.90    2.30
   0 -11   6    3.60    1.60
   0 -11   6    4.50    1.90
   0 -11  -6    2.80    1.60
   0  11   6    3.20    2.20
   0  11   6    1.80    1.70
   0  11  -6    2.60    1.80
   0  11  -6    3.10    1.60
   0  11   6    4.20    1.90
   0  11  -6    0.00    2.10
  -1 -11  -6   56.29    5.10
   1 -11   6   69.69    6.00
  -1  11  -6   63.29    5.20
   1  11   6   58.69    5.90
  -1  11  -6   56.39    5.90
   1  11   6   75.49    6.30
   1  11   6   61.49    5.90
  -1  11  -6   63.29    6.90
  -2 -11  -6   10.20    4.10
   2 -11   6    8.80    2.60
   2  11   6   11.10    2.60
   2  11   6    7.70    2.60
  -2  11  -6   10.40    5.30
   2  11   6   12.60    3.30
  -2  11  -6    6.20    2.30
   3 -11   6   -3.90    2.50
   3 -11   6   -1.90    2.10
   3  11   6   -0.40    2.10
   3  11   6   -3.50    2.40
   3  11   6   -1.80    1.70
  -3  11  -6   -2.00    3.90
  -3  11  -6   -3.30    1.90
  -4 -11  -6    8.10    3.30
   4 -11   6    1.80    2.60
   6 -12  -6    1.30    2.90
   6  12  -6    4.50    2.10
   6  12  -6    6.30    2.90
   5  12  -6    9.40    2.80
   5  12  -6    9.40    3.00
   5  12  -6   10.50    2.60
   4 -12  -6    2.90    1.80
  -4 -12   6    0.00    2.50
   4 -12  -6    3.30    2.80
   4  12  -6    2.10    2.10
   4  12  -6    1.30    1.60
  -4  12   6    4.20    3.30
   4  12  -6    2.40    2.30
   3 -12  -6   -1.20    1.60
  -3 -12   6   -2.80    3.40
   3  12  -6    0.80    1.80
  -3  12   6   -2.50    2.60
   3  12  -6   -0.40    1.60
   2 -12  -6   -2.20    1.70
   2 -12  -6   -1.80    2.00
  -2  12   6    1.70    2.90
   2  12  -6    0.80    1.70
  -2  12   6    4.10    3.10
   2  12  -6    2.30    1.90
  -2  12   6    2.40    1.70
   1 -12  -6    3.90    2.00
  -1 -12   6    6.10    2.00
  -1 -12   6    9.30    2.10
   1  12  -6    7.20    2.20
   1  12  -6    9.20    2.30
   1  12  -6    7.90    3.00
  -1  12   6    2.90    1.80
  -1  12   6    6.10    2.30
  -1  12   6   12.20    3.20
   0 -12   6   82.99    6.90
   0 -12   6   77.39    6.00
   0 -12  -6   61.39    5.60
   0 -12   6   66.69    6.10
   0  12  -6   72.19    5.90
   0  12  -6   87.79    7.70
   0  12  -6   85.79    7.60
   0  12  -6   57.39    6.30
   0  12   6   86.49    6.90
   0  12   6   92.79   10.10
   0  12   6   72.99    6.40
   0  12   6   56.79    6.10
   1 -12   6   23.40    4.00
   1 -12   6   14.00    5.50
  -1 -12  -6   25.00    4.30
  -1 -12  -6   20.10    3.30
   1  12   6   26.80    5.00
  -1  12  -6   28.40    5.70
   1  12   6   16.80    3.30
  -1  12  -6   23.80    4.10
   1  12   6   21.80    3.90
  -1  12  -6   19.60    3.20
  -1  12  -6   29.50    5.20
   1  12   6   27.80    4.70
   2 -12   6    3.20    2.20
  -2 -12  -6    2.80    2.80
   2 -12   6    8.70    2.50
   2  12   6    0.40    2.20
  -2  12  -6    0.70    6.70
   2  12   6   -0.10    2.60
   2  12   6    3.40    2.20
   2  12   6    9.50    3.60
  -2  12  -6    0.80    2.20
   3 -12   6    7.10    2.80
  -3 -12  -6   10.90    3.40
   3  12   6    8.30    2.50
   3  12   6    9.10    2.60
  -3  12  -6    3.60    2.40
   4 -12   6   54.99    9.10
   4  12   6   69.39    6.70
   4  12   6   77.29    7.40
   6 -13  -6    8.00    3.10
   6  13  -6    3.20    2.10
   6  13  -6    1.90    2.60
   5 -13  -6   36.50    5.10
   5 -13  -6   58.89    6.20
   5  13  -6   41.20    5.20
   5  13  -6   47.60    5.60
   4 -13  -6    9.90    2.80
   4  13  -6   12.70    2.80
  -4  13   6   17.70    6.80
   4  13  -6   14.10    3.10
  -4  13   6   24.00    4.70
   4  13  -6   17.20    3.70
  -3 -13   6   13.00    3.30
   3 -13  -6   10.90    2.60
   3 -13  -6   14.90    3.10
  -3  13   6    5.90    6.50
   3  13  -6   15.90    3.50
   3  13  -6    9.30    2.60
   3  13  -6    9.60    2.60
  -2 -13   6   -0.50    3.20
   2 -13  -6   -0.70    1.70
  -2  13   6    0.20    3.00
   2  13  -6   -1.30    1.80
  -2  13   6   -1.40    1.50
  -2  13   6   -1.50    1.80
  -1 -13   6    4.60    2.70
  -1 -13   6    7.30    2.10
   1 -13  -6    7.60    2.40
  -1 -13   6   10.90    2.10
   1  13  -6   10.10    2.90
   1  13  -6    6.50    3.20
   1  13  -6    6.50    2.40
   1  13  -6    9.80    3.20
  -1  13   6    4.40    2.00
  -1  13   6    8.70    3.50
  -1  13   6   14.90    5.40
  -1  13   6    5.70    2.40
   0 -13   6    3.70    1.70
   0 -13  -6   -1.20    1.70
   0 -13   6   -0.90    1.90
   0 -13   6   -0.80    2.00
   0 -13  -6    0.00    1.30
   0  13   6   -0.30    1.80
   0  13   6   -0.40    2.10
   0  13  -6   -2.80    2.60
   0  13   6    5.30    2.20
   0  13  -6    3.30    2.00
   0  13  -6    0.40    1.90
   1 -13   6   -1.10    1.90
  -1 -13  -6    3.90    2.50
  -1 -13  -6    1.50    1.60
   1 -13   6    1.90    2.20
   1  13   6   -2.00    2.50
  -1  13  -6    0.60    1.70
   1  13   6   -0.40    1.90
  -1  13  -6   -1.40    1.70
   1  13   6    1.00    3.20
  -2 -13  -6   24.20    6.20
   2 -13   6   16.30    3.60
  -2  13  -6   20.30    4.00
   2  13   6   30.10    4.40
  -2  13  -6   23.70    5.90
   2  13   6   23.40    4.30
   3 -13   6   27.40    4.70
   3  13   6   15.80    3.50
   3  13   6   18.80    3.80
   4 -13   6    5.50    2.80
   4  13   6    5.80    2.80
   4  13   6    0.90    2.70
   5 -14  -6    4.90    2.60
   5 -14  -6    9.00    3.70
   5  14  -6    1.50    2.00
   5  14  -6    5.90    3.20
   4 -14  -6    2.20    2.10
   4  14  -6    1.30    2.20
  -4  14   6    0.60    3.80
   3 -14  -6    0.90    1.80
   3 -14  -6    9.90    3.00
  -3 -14   6    2.30    3.50
   3  14  -6    4.30    2.50
  -3  14   6    9.80    4.00
  -3  14   6   -0.30    3.90
   3  14  -6    8.10    4.30
   3  14  -6    5.30    2.40
   2 -14  -6    2.10    2.00
   2 -14  -6    5.00    2.90
  -2 -14   6   -0.10    1.60
  -2  14   6    2.20    2.20
  -2  14   6    8.30    3.60
   2  14  -6    9.10    2.60
   2  14  -6    3.90    2.20
   2  14  -6    1.30    1.90
  -2  14   6    0.30    1.80
  -2  14   6    6.00    3.50
   1 -14  -6   15.20    3.10
   1 -14  -6    4.80    2.00
  -1 -14   6   12.20    2.80
  -1 -14   6    9.50    2.30
   1  14  -6    7.90    2.90
   1  14  -6    6.60    2.40
   1  14  -6    7.40    2.40
  -1  14   6    7.40    2.40
  -1  14   6    3.20    2.30
  -1  14   6   10.60    3.90
  -1  14   6   10.50    4.10
   1  14  -6    6.10    3.60
   0 -14   6    3.80    2.30
   0 -14  -6   -0.50    2.60
   0 -14  -6    1.40    2.30
   0 -14   6   -1.10    1.60
   0 -14   6   -2.90    1.80
   0  14  -6    4.90    3.30
   0  14   6   -1.10    2.00
   0  14   6    5.50    3.30
   0  14   6    1.20    1.90
   0  14  -6   -0.20    1.90
   0  14  -6   -1.30    1.90
   0  14  -6   -1.70    2.00
  -1 -14  -6    0.30    1.80
   1 -14   6    0.20    2.00
  -1  14  -6   -1.10    2.10
   1  14   6   -3.30    2.80
   1  14   6    3.00    2.00
   1  14   6    2.50    2.20
  -1  14  -6   -0.10    1.80
   2  14   6   23.80    4.40
  -2  14  -6   41.20    7.70
   2  14   6   30.50    5.00
   3 -14   6    1.80    2.70
   3  14   6    2.40    2.70
   3  14   6   -4.90    3.50
   5 -15  -6    9.00    3.50
   5  15  -6    0.30    4.20
   5  15  -6   13.60    3.30
   4 -15  -6    0.50    1.90
   4  15  -6    1.30    2.30
   4  15  -6   -3.60    2.10
   3 -15  -6    5.60    1.80
  -3  15   6   18.00    5.80
   3  15  -6    0.40    2.00
  -3  15   6   11.60    4.40
   2 -15  -6   43.70    5.00
  -2 -15   6   42.40    4.60
  -2  15   6   43.60    5.60
  -2  15   6   48.10    4.90
   2  15  -6   45.00    5.80
   2  15  -6   51.89    5.40
   1 -15  -6    3.70    2.00
   1 -15  -6    1.90    1.80
  -1  15   6   -1.10    2.40
   1  15  -6    2.90    2.20
   1  15  -6    3.60    2.20
  -1  15   6   -0.50    3.50
  -1  15   6    2.70    2.50
   0 -15  -6   20.10    3.90
   0 -15   6   22.00    4.20
   0 -15  -6   23.10    3.80
   0 -15   6   28.50    4.30
   0  15  -6   27.40    4.80
   0  15  -6   29.90    4.40
   0  15   6   18.10    3.80
   0  15   6   32.20    4.50
   1 -15   6   14.60    3.60
   1  15   6   20.70    4.70
  -1  15  -6   13.80    2.70
  -1  15  -6   13.50    5.20
   1  15   6   17.70    3.40
   2 -15   6    1.90    2.50
   2  15   6    2.10    2.00
   2  15   6    4.90    4.30
   4 -16  -6   -3.10    1.80
   4  16  -6    0.40    2.80
   4  16  -6   -0.30    3.80
   3 -16  -6    3.10    1.90
   3  16  -6    5.90    2.50
   3  16  -6    5.70    2.20
  -2 -16   6    2.80    2.30
   2 -16  -6    1.60    2.00
   2 -16  -6    0.90    2.10
   2  16  -6   -0.60    2.30
   2  16  -6    0.40    2.30
  -2  16   6    4.50    2.10
   1 -16  -6   25.60    3.90
  -1 -16   6   20.40    3.60
  -1  16   6   27.60    4.90
   1  16  -6   22.50    4.50
   1  16  -6   33.90    4.70
   0 -16   6   18.40    3.50
   0 -16  -6   11.20    2.60
   0  16  -6   14.40    3.30
   0  16   6   15.30    3.70
   0  16   6   22.60    4.30
   1 -16   6    2.00    2.50
   1  16   6    0.70    2.40
  -1  16  -6    0.80    3.20
   1  16   6    6.40    3.30
   2 -16   6    6.80    3.30
   2  16   6   10.00    3.30
   2  16   6   -1.00    3.90
   3 -17  -6   -1.10    2.30
   3  17  -6    6.20    3.80
   3  17  -6   -2.40    2.20
   2 -17  -6   11.10    4.30
   2 -17  -6    9.90    2.60
  -2 -17   6   13.30    2.80
   2  17  -6    7.30    3.20
   2  17  -6    9.20    3.10
   1 -17  -6    4.70    2.40
   0 -17  -6    5.20    2.90
   0 -17   6    8.60    2.60
   0 -17  -6    5.90    2.40
   0  17  -6   13.10    3.00
   0  17   6    8.00    2.70
   0  17  -6    8.60    3.10
   0  17   6    8.20    2.50
   1 -17   6    8.70    2.90
  -1  17  -6    5.40    2.50
   1  17   6    2.10    2.90
   8   0  -7    0.40    1.80
   8   0  -7   -4.00    2.10
   7   0  -7   11.60    2.50
   7   0  -7    6.60    2.60
   6   0  -7   -2.00    1.50
   6   0  -7   -0.20    1.80
  -6   0   7    5.10    2.60
   5   0  -7    4.90    1.90
  -5   0   7    3.90    2.30
   5   0  -7    2.30    1.70
   4   0  -7    2.40    1.50
   4   0  -7    2.60    1.50
   4   0  -7    1.80    1.60
  -4   0   7    2.40    1.60
  -3   0   7  208.48   12.20
   3   0  -7  193.98   12.20
   3   0  -7  213.18   11.90
   3   0  -7  173.18   11.70
   2   0  -7    2.70    1.50
   2   0  -7    2.20    1.70
  -2   0   7    0.60    1.90
   2   0  -7    2.80    1.80
   1   0  -7  424.16   22.10
  -1   0   7  401.76   21.90
   1   0  -7  433.06   22.20
   1   0  -7  375.86   21.70
  -1   0   7  393.66   22.10
  -1   0   7  344.57   21.70
   0   0  -7   -1.50    1.30
   0   0   7    0.60    1.50
   0   0   7   -0.60    1.70
   0   0  -7   -1.30    1.30
   0   0   7   -1.20    1.70
   0   0   7   -1.00    1.70
   0   0  -7   -1.20    1.60
   1   0   7   -0.20    1.60
   1   0   7   -1.10    1.50
   1   0   7   -1.50    1.40
  -1   0  -7   -2.20    1.30
  -1   0  -7   -1.80    1.60
   2   0   7   -0.20    1.60
   2   0   7   -0.30    1.60
   2   0   7   -0.90    1.50
  -2   0  -7    0.00    1.20
   3   0   7    8.10    2.80
   3   0   7    5.00    2.20
   3   0   7    1.60    2.10
   4   0   7   -2.00    1.90
  -4   0  -7    3.70    2.30
   4   0   7    2.50    2.10
   4   0   7   -3.50    2.20
   5   0   7   -3.90    2.00
   5   0   7    5.40    2.50
   8  -1  -7    2.20    2.00
   8  -1  -7    2.50    2.60
   8   1  -7    2.90    2.00
   8   1  -7    0.10    2.00
   7  -1  -7    1.90    2.40
   7  -1  -7    5.20    1.90
   7   1  -7    4.00    2.30
   7   1  -7    5.00    1.80
  -7   1   7    4.90    6.70
   6  -1  -7   14.00    2.60
  -6  -1   7   23.50    4.30
   6  -1  -7   14.60    3.20
   6   1  -7   17.10    3.30
  -6   1   7   12.40    4.20
   6   1  -7   15.00    2.70
   5  -1  -7    2.10    1.70
   5  -1  -7    0.30    1.40
  -5  -1   7    4.10    2.10
   5   1  -7    1.50    1.60
  -5   1   7   -0.60    1.90
   5   1  -7    2.20    1.40
  -4  -1   7  133.49    8.70
   4  -1  -7  128.29    9.10
   4  -1  -7  121.39    8.40
   4   1  -7  112.99    8.20
  -4   1   7  133.39    8.90
   4   1  -7  131.19    8.30
   4   1  -7  123.59    8.90
   3  -1  -7   15.30    2.90
   3  -1  -7   19.00    2.80
  -3  -1   7   19.30    3.20
   3  -1  -7   20.10    3.20
  -3   1   7   17.50    2.70
   3   1  -7   20.30    3.10
  -3   1   7   16.30    3.20
   3   1  -7   13.50    2.80
   3   1  -7   19.20    2.90
  -2  -1   7 1116.39   64.69
   2  -1  -7 1065.39   64.79
   2  -1  -7 1358.76   65.09
  -2  -1   7 1335.27   65.79
  -2  -1   7 1344.27   65.19
   2  -1  -7 1280.37   65.29
   2   1  -7 1363.76   66.39
   2   1  -7 1257.47   65.19
   2   1  -7 1118.69   64.79
  -2   1   7 1181.18   64.69
  -2   1   7 1360.26   65.39
   1  -1  -7    0.50    1.00
  -1  -1   7    1.00    1.50
  -1  -1   7   -1.50    1.70
   1  -1  -7    4.00    1.40
   1  -1  -7    1.20    1.50
  -1  -1   7    0.30    1.40
  -1  -1   7   -1.60    1.60
   1  -1  -7    2.30    1.60
   1   1  -7    1.90    1.80
   1   1  -7   -2.50    1.50
  -1   1   7    4.10    1.60
   0  -1   7  494.25   30.00
   0  -1   7  552.14   29.90
   0  -1  -7  581.34   30.40
   0  -1   7  586.04   30.00
   0  -1  -7  602.34   30.00
   0  -1   7  547.15   30.30
   0  -1  -7  537.85   29.40
   0   1  -7  570.94   30.40
   0   1   7  508.95   30.10
   0   1   7  579.44   30.00
   0   1  -7  534.85   29.50
   1  -1   7    2.60    1.90
   1  -1   7   -0.60    1.50
  -1  -1  -7   -1.90    1.20
   1  -1   7   -0.10    1.40
   1  -1   7    0.40    1.30
  -1  -1  -7    0.40    1.70
  -1   1  -7    0.60    1.50
   1   1   7   -0.40    1.50
   1   1   7    0.60    1.50
  -1   1  -7    0.80    1.00
  -1   1  -7   -1.20    1.20
  -2  -1  -7    1.10    1.70
   2  -1   7   -0.20    1.50
   2  -1   7   -2.20    1.70
   2   1   7    0.70    1.80
   2   1   7    1.10    1.70
  -2   1  -7    0.80    1.30
   2   1   7   -1.70    1.60
   3  -1   7   36.90    4.80
   3  -1   7   38.30    4.50
   3  -1   7   31.90    5.10
   3   1   7   35.50    5.30
  -3   1  -7   41.60    5.50
   3   1   7   38.90    4.50
   3   1   7   36.00    4.70
   4  -1   7   -0.40    2.30
  -4  -1  -7    0.30    2.00
   4  -1   7    0.20    2.30
   4  -1   7   -3.00    1.90
  -4   1  -7    1.30    2.00
   4   1   7   -0.70    2.20
   5  -1   7    5.20    3.40
   5  -1   7    1.40    2.50
   5   1   7    8.20    2.90
   5   1   7    6.00    3.40
   8  -2  -7   12.40    2.80
   8  -2  -7    7.80    3.60
   8   2  -7    9.60    2.40
   8   2  -7   10.90    3.20
  -7  -2   7   10.00    3.80
   7  -2  -7   -1.60    1.90
   7  -2  -7    0.20    1.60
  -7   2   7    2.60    3.70
   7   2  -7    2.20    1.80
  -6  -2   7   18.80    4.20
   6  -2  -7   10.70    2.40
   6  -2  -7   12.20    3.00
   6   2  -7   10.00    2.60
   6   2  -7   15.60    3.00
   5  -2  -7   -0.30    1.60
  -5  -2   7   -1.50    1.50
   5  -2  -7   -1.90    2.00
  -5   2   7    2.00    2.20
   5   2  -7   -1.80    1.40
   5   2  -7   -2.60    1.40
   5   2  -7   -0.50    1.30
   4  -2  -7   21.40    3.60
   4  -2  -7   12.70    2.50
  -4  -2   7   20.60    3.50
   4   2  -7   21.00    3.60
  -4   2   7   16.20    3.10
   4   2  -7   17.80    2.90
   4   2  -7   23.70    3.10
   3  -2  -7   25.10    3.50
  -3  -2   7   22.40    3.90
  -3  -2   7   25.00    3.40
   3  -2  -7   25.10    3.20
   3  -2  -7   30.10    3.10
  -3   2   7   26.50    2.90
   3   2  -7   18.80    3.50
   3   2  -7   23.20    3.50
  -3   2   7   28.00    3.70
   3   2  -7   23.40    3.20
  -2  -2   7   15.20    3.10
   2  -2  -7   28.70    3.40
   2  -2  -7   28.10    3.40
   2  -2  -7   23.50    3.10
  -2  -2   7   25.30    3.30
   2  -2  -7   20.50    3.10
   2   2  -7   19.00    3.40
  -2   2   7   28.30    3.10
   2   2  -7   17.60    3.50
   2   2  -7   21.70    3.50
   1  -2  -7    3.60    1.50
  -1  -2   7    3.00    1.80
  -1  -2   7    0.80    1.60
   1  -2  -7    3.50    1.80
   1  -2  -7    4.30    1.50
  -1  -2   7   -2.50    2.40
  -1  -2   7    0.20    1.60
   1  -2  -7    2.90    1.50
  -1   2   7    4.30    1.70
  -1   2   7    1.80    1.40
   1   2  -7    3.50    1.80
   1   2  -7    0.10    1.60
   0  -2  -7  273.77   14.80
   0  -2  -7  237.88   14.10
   0  -2   7  241.18   14.70
   0  -2   7  262.37   14.70
   0  -2  -7  257.27   15.00
   0  -2   7  234.18   15.00
   0   2  -7  233.38   14.30
   0   2  -7  273.07   15.70
   0   2   7  215.28   14.70
   0   2  -7  267.67   15.20
   0   2   7  269.07   14.90
  -1  -2  -7   27.60    3.90
   1  -2   7   24.20    3.20
   1  -2   7   21.00    3.20
   1  -2   7   26.60    3.80
  -1  -2  -7   23.30    3.20
   1  -2   7   18.90    3.40
  -1   2  -7   22.60    2.80
  -1   2  -7   22.80    3.70
   1   2   7   25.60    3.80
   1   2   7   25.60    3.50
  -1   2  -7   23.80    3.00
   2  -2   7    0.60    1.70
   2  -2   7    2.10    2.00
  -2  -2  -7   -0.10    1.20
  -2   2  -7    0.40    1.20
   2   2   7    3.10    1.80
   2   2   7    0.50    1.70
  -3  -2  -7   -0.90    1.30
   3  -2   7    0.90    2.10
   3  -2   7    1.90    2.10
   3  -2   7    0.50    1.90
   3   2   7   -0.30    2.10
   3   2   7   -0.50    1.80
  -3   2  -7   -0.40    2.30
   3   2   7    0.60    1.90
   4  -2   7   42.50    5.80
   4  -2   7   36.50    5.40
  -4  -2  -7   42.20    6.30
   4  -2   7   39.00    5.30
   4   2   7   40.10    5.10
  -4   2  -7   47.50    5.30
   4   2   7   45.70    6.00
   4   2   7   41.20    5.30
   5  -2   7    7.20    3.60
   5  -2   7    9.10    2.90
   5   2   7   17.00    4.60
   5   2   7    5.20    2.80
   8  -3  -7   -0.80    2.00
   8  -3  -7    4.20    3.90
   8   3  -7   -1.80    2.20
   8   3  -7    3.00    2.60
   7  -3  -7   14.30    3.30
  -7  -3   7   25.50    4.70
   7  -3  -7   14.30    2.80
   7   3  -7   16.90    3.10
   7   3  -7   13.50    3.90
  -6  -3   7   -2.90    2.50
   6  -3  -7    1.00    1.60
   6  -3  -7   -2.20    1.50
   6   3  -7    0.60    1.50
   6   3  -7    4.00    1.70
   6   3  -7   -1.80    1.60
   5  -3  -7    0.80    1.80
   5  -3  -7    1.80    1.70
  -5  -3   7    5.40    1.90
   5   3  -7    2.40    2.10
  -5   3   7    1.40    2.30
   5   3  -7    3.30    1.60
   5   3  -7    3.60    1.90
  -4  -3   7    2.60    2.00
   4  -3  -7    3.30    1.70
  -4  -3   7    2.90    1.60
   4  -3  -7    4.00    2.20
   4  -3  -7    1.10    1.80
   4   3  -7    3.80    1.80
   4   3  -7    5.20    2.00
  -4   3   7    2.40    2.00
   4   3  -7    3.00    1.50
   3  -3  -7    5.20    1.70
   3  -3  -7    4.50    1.80
  -3  -3   7    3.40    1.90
   3  -3  -7    5.40    1.60
  -3  -3   7    7.00    1.90
   3  -3  -7    3.70    1.90
   3   3  -7    3.80    1.90
   3   3  -7    5.00    2.00
  -3   3   7    8.80    2.30
   3   3  -7    5.50    1.60
  -3   3   7    4.90    1.50
   2  -3  -7   11.10    2.30
   2  -3  -7   14.50    2.60
  -2  -3   7   12.30    2.70
  -2  -3   7   14.70    2.70
  -2  -3   7    8.60    2.30
   2  -3  -7   11.60    2.30
   2  -3  -7   17.80    2.80
  -2   3   7   15.20    2.60
   2   3  -7   11.50    2.40
  -2   3   7   20.80    3.10
   2   3  -7   13.70    2.60
   2   3  -7   14.70    2.90
   1  -3  -7    5.80    1.80
  -1  -3   7    2.40    1.80
   1  -3  -7    4.50    2.30
  -1  -3   7    1.20    1.60
   1  -3  -7    2.80    1.50
  -1  -3   7    5.80    1.80
   1  -3  -7    3.00    1.60
  -1  -3   7    3.60    1.80
  -1   3   7    6.90    1.80
  -1   3   7    3.10    1.70
   1   3  -7    3.40    2.10
   1   3  -7    3.90    1.70
   0  -3  -7    4.50    1.70
   0  -3  -7    4.40    1.70
   0  -3   7    2.90    1.80
   0  -3   7    4.30    1.90
   0  -3  -7    4.50    1.40
   0  -3   7    4.80    2.20
   0  -3   7    4.70    2.00
   0  -3  -7    5.70    2.10
   0   3  -7    4.40    1.70
   0   3  -7    5.60    2.00
   0   3   7    4.70    2.10
   0   3   7    4.60    1.80
  -1  -3  -7   18.50    3.60
   1  -3   7   19.00    3.40
   1  -3   7   18.70    3.20
  -1  -3  -7   20.50    3.10
   1  -3   7   20.30    3.20
   1   3   7   23.00    3.40
  -1   3  -7   24.70    3.60
  -1   3  -7   24.10    2.80
   1   3   7   17.70    3.40
  -1   3  -7   24.40    2.90
  -2  -3  -7   38.60    3.90
   2  -3   7   35.50    4.50
   2  -3   7   41.80    4.90
  -2  -3  -7   30.30    4.20
   2   3   7   30.30    4.50
   2   3   7   40.60    4.20
  -2   3  -7   38.00    3.40
  -2   3  -7   34.10    3.70
  -3  -3  -7  162.98    9.90
   3  -3   7  151.68   11.00
   3  -3   7  160.78   11.70
   3  -3   7  154.18   13.00
   3   3   7  146.89   11.00
   3   3   7  175.48   10.80
  -3   3  -7  164.18   14.60
  -4  -3  -7    2.70    1.70
   4  -3   7    3.70    2.60
   4  -3   7    5.80    2.60
   4  -3   7    4.00    3.00
   4   3   7    7.10    2.40
   4   3   7    2.60    2.40
  -4   3  -7    9.10    2.90
   4   3   7    3.50    2.50
   5  -3   7    4.40    3.70
   5  -3   7    7.80    2.70
   5   3   7    4.10    3.00
   8  -4  -7   -0.90    2.10
   8  -4  -7   -1.90    2.70
   8  -4  -7    8.50    5.30
   8   4  -7    3.90    2.60
   8   4  -7    2.60    2.60
   7  -4  -7   13.90    3.10
  -7  -4   7   13.50    3.70
  -6  -4   7   12.70    3.50
   6  -4  -7   10.80    2.70
   6  -4  -7   16.20    3.40
   6  -4  -7    5.50    2.10
  -6   4   7   20.10    6.60
   6   4  -7    4.70    2.10
   6   4  -7    6.40    2.40
   6   4  -7    9.90    2.10
   5  -4  -7    1.20    1.90
  -5  -4   7    2.30    1.90
   5  -4  -7    0.60    1.60
   5  -4  -7    0.50    1.50
   5   4  -7    0.90    1.30
   5   4  -7    1.60    1.60
   5   4  -7    1.60    1.50
  -5   4   7   -1.80    2.10
   4  -4  -7    3.20    1.90
  -4  -4   7    2.50    1.80
   4  -4  -7    1.60    1.80
   4  -4  -7    4.20    2.10
   4   4  -7    2.60    2.50
   4   4  -7    4.40    2.00
  -4   4   7    5.00    2.20
   4   4  -7    2.80    1.40
   3  -4  -7   67.89    4.90
   3  -4  -7   63.49    5.70
  -3  -4   7   64.99    6.00
  -3  -4   7   70.89    5.30
   3  -4  -7   68.69    5.60
   3  -4  -7   56.09    5.20
   3   4  -7   71.79    5.50
   3   4  -7   53.69    5.30
   3   4  -7   57.49    4.80
  -3   4   7   64.19    5.70
  -3   4   7   60.79    4.60
   2  -4  -7   -0.20    1.30
   2  -4  -7   -0.80    1.40
   2  -4  -7    0.10    1.40
  -2  -4   7   -2.40    1.50
   2  -4  -7    1.30    1.50
  -2  -4   7    1.40    1.20
   2   4  -7    0.70    1.40
  -2   4   7    2.40    1.60
  -2   4   7    1.30    1.40
   2   4  -7   -0.20    1.30
  -2   4   7   -2.20    1.30
  -1  -4   7  167.18   10.70
  -1  -4   7  178.28   10.40
  -1  -4   7  139.89   10.30
   1  -4  -7  168.68   11.20
   1  -4  -7  165.28   10.20
   1  -4  -7  186.98   10.70
  -1   4   7  147.29   10.10
   1   4  -7  148.09   10.30
  -1   4   7  180.78   10.70
   1   4  -7  175.78   10.80
   0  -4   7   54.59    4.90
   0  -4  -7   53.69    5.10
   0  -4  -7   57.19    4.70
   0  -4   7   56.89    4.80
   0  -4   7   54.59    5.00
   0  -4  -7   43.00    4.50
   0  -4   7   45.10    4.90
   0   4  -7   60.79    5.30
   0   4   7   58.19    5.10
   0   4   7   45.60    4.80
   0   4  -7   47.40    4.40
  -1  -4  -7    9.50    2.10
   1  -4   7    9.80    2.60
   1  -4   7    9.60    2.30
  -1  -4  -7   10.80    2.40
   1  -4   7    8.60    2.10
   1  -4   7    7.40    2.30
  -1   4  -7   10.00    1.90
   1   4   7   13.50    2.80
   1   4   7    8.00    2.50
  -1   4  -7    9.50    1.90
   2  -4   7    1.80    1.80
  -2  -4  -7    0.90    1.40
  -2  -4  -7   -0.90    1.80
   2  -4   7   -1.00    2.60
   2  -4   7    1.80    2.00
   2   4   7   -0.50    1.70
   2   4   7    2.00    1.80
  -2   4  -7   -0.60    1.20
   3  -4   7    3.00    2.40
   3  -4   7    4.70    2.40
  -3  -4  -7    6.60    1.90
   3   4   7    3.40    2.20
   3   4   7    3.40    2.10
  -3   4  -7    6.80    3.50
  -4  -4  -7    4.20    1.70
   4  -4   7    2.60    2.30
   4  -4   7   -2.00    2.10
   4   4   7   -0.20    2.30
  -4   4  -7   -2.80    2.20
   4   4   7    0.70    2.50
   4   4   7    0.10    2.30
   5  -4   7    3.60    2.30
   5  -4   7    1.20    3.40
   5   4   7    4.20    3.10
   5   4   7   -2.80    3.40
   8  -5  -7   -6.00    3.40
   8  -5  -7    0.20    2.20
   8   5  -7    0.50    2.50
   8   5  -7    0.30    2.60
   8   5  -7    4.70    2.60
   7  -5  -7   -1.40    1.90
   7  -5  -7   -1.30    1.80
   7   5  -7   -1.70    2.00
   7   5  -7    5.40    2.00
   6  -5  -7    1.30    1.70
   6  -5  -7    3.70    2.30
   6   5  -7    1.00    1.60
  -6   5   7    0.30    3.10
   6   5  -7   -2.50    1.60
   6   5  -7   -0.10    1.40
   5  -5  -7    8.70    2.30
   5  -5  -7   15.10    3.10
  -5  -5   7   11.40    2.60
   5  -5  -7    8.10    2.50
   5   5  -7   11.40    2.50
   5   5  -7    8.40    2.30
   5   5  -7   10.50    2.10
   4  -5  -7   18.20    3.50
   4  -5  -7   28.20    3.90
   4  -5  -7   21.00    3.90
  -4  -5   7   21.30    3.70
   4   5  -7   21.60    2.90
  -4   5   7   22.10    4.00
   4   5  -7   21.70    3.70
   4   5  -7   22.50    3.50
   3  -5  -7   36.40    4.00
  -3  -5   7   25.20    4.00
   3  -5  -7   21.50    3.60
  -3  -5   7   28.50    3.70
   3  -5  -7   25.30    3.60
  -3   5   7   29.20    3.70
   3   5  -7   27.10    3.80
   3   5  -7   29.70    3.70
  -3   5   7   21.90    2.70
  -3   5   7   33.70    4.30
  -2  -5   7  260.97   15.80
   2  -5  -7  266.27   15.10
   2  -5  -7  226.88   15.20
   2  -5  -7  250.77   15.50
  -2  -5   7  265.67   15.10
   2  -5  -7  287.57   15.80
   2   5  -7  284.77   15.80
  -2   5   7  247.68   14.90
  -2   5   7  285.27   15.90
   2   5  -7  237.38   15.40
  -2   5   7  286.97   15.40
  -1  -5   7    8.90    2.30
   1  -5  -7    9.60    2.10
  -1  -5   7   13.20    2.30
  -1  -5   7   10.00    2.30
  -1  -5   7   10.70    2.10
   1  -5  -7   14.70    2.70
   1  -5  -7   11.60    2.20
   1  -5  -7   10.10    2.50
   1   5  -7   13.20    2.70
   1   5  -7    8.70    2.10
  -1   5   7   11.40    2.70
  -1   5   7    8.90    2.00
   0  -5   7   72.99    5.40
   0  -5  -7   52.69    5.00
   0  -5   7   65.39    5.40
   0  -5  -7   65.59    5.60
   0  -5  -7   72.99    5.40
   0  -5   7   62.99    5.40
   0  -5   7   54.79    5.40
   0   5   7   63.19    5.60
   0   5  -7   70.39    5.90
   0   5  -7   56.29    5.10
   0   5   7   59.19    5.40
  -1  -5  -7    4.00    1.70
  -1  -5  -7    2.20    2.10
   1  -5   7    4.10    2.00
   1  -5   7    4.30    2.30
   1  -5   7    5.70    1.90
   1  -5   7    5.80    1.90
  -1   5  -7    5.40    1.60
   1   5   7    2.60    1.80
   1   5   7    4.40    2.00
   2  -5   7    7.00    3.00
   2  -5   7    7.10    2.40
  -2  -5  -7   12.70    2.90
  -2  -5  -7    7.00    2.10
  -2   5  -7    7.80    2.10
   2   5   7    7.60    2.20
   2   5   7   12.00    2.80
  -3  -5  -7    8.30    2.90
   3  -5   7   10.30    2.90
   3  -5   7    8.40    2.40
   3  -5   7    9.30    2.10
   3   5   7    3.00    2.40
   3   5   7    7.20    2.50
  -3   5  -7   11.30    3.00
  -4  -5  -7    3.80    2.20
   4  -5   7    1.90    2.20
   4  -5   7   -1.30    1.90
   4   5   7   -3.60    2.30
   4   5   7   -2.60    1.90
   5  -5   7    0.00    2.40
   5  -5   7   -0.20    2.90
   5   5   7    0.80    2.70
   5   5   7    3.00    2.70
   8  -6  -7   -3.00    2.30
   8  -6  -7    5.10    2.40
   8   6  -7   -2.70    2.80
   8   6  -7    6.10    3.30
   8   6  -7   -3.30    2.60
   7  -6  -7    1.80    2.70
   7  -6  -7   -2.40    1.60
   7   6  -7   -2.80    2.20
   7   6  -7    1.10    2.00
   7   6  -7    0.70    1.70
   6  -6  -7   19.30    3.50
   6  -6  -7   15.80    3.40
   6   6  -7   12.20    2.60
   5  -6  -7    3.50    2.20
  -5  -6   7    0.40    3.00
   5  -6  -7    4.70    2.00
   5  -6  -7    6.90    2.40
   5   6  -7    6.40    2.00
   5   6  -7    5.50    1.60
   5   6  -7    4.30    2.10
  -5   6   7    4.70    3.70
  -4  -6   7   36.00    4.30
   4  -6  -7   37.20    6.20
   4  -6  -7   34.30    4.20
   4   6  -7   33.50    4.20
   4   6  -7   38.80    3.60
   4   6  -7   36.30    4.30
  -4   6   7   31.20    4.30
  -3  -6   7  111.49    7.40
   3  -6  -7  112.19    8.20
   3  -6  -7   93.39    8.30
   3  -6  -7  115.49    8.10
  -3  -6   7  111.09    8.30
   3   6  -7  114.49    7.80
   3   6  -7   92.89    8.00
  -3   6   7  114.39    7.70
  -3   6   7  101.59    6.70
   2  -6  -7   -0.90    1.30
   2  -6  -7    2.80    1.80
   2  -6  -7    1.00    1.50
  -2  -6   7    0.50    1.80
  -2  -6   7   -1.00    1.40
   2  -6  -7    2.10    1.50
  -2   6   7    0.80    1.40
   2   6  -7   -0.10    1.50
   2   6  -7    1.70    1.50
  -2   6   7    2.40    2.10
  -1  -6   7  149.49    9.90
  -1  -6   7  166.38   10.70
   1  -6  -7  160.18   10.10
   1  -6  -7  162.38   10.40
   1  -6  -7  181.98   10.70
  -1  -6   7  175.68   10.20
   1   6  -7  169.38   10.70
  -1   6   7  153.38   10.20
  -1   6   7  172.58   10.80
   1   6  -7  142.69   10.20
   0  -6   7   39.50    3.90
   0  -6  -7   29.10    3.70
   0  -6  -7   36.80    4.30
   0  -6   7   37.50    4.10
   0  -6   7   25.30    4.10
   0  -6   7   32.10    3.90
   0  -6  -7   39.50    4.10
   0   6  -7   34.50    4.40
   0   6  -7   31.70    3.70
   0   6   7   27.60    3.90
   0   6   7   33.70    4.20
  -1  -6  -7   37.20    4.50
   1  -6   7   30.10    4.20
   1  -6   7   31.30    4.10
   1  -6   7   28.20    4.10
   1  -6   7   43.80    4.30
  -1  -6  -7   40.80    4.30
  -1   6  -7   33.50    4.00
   1   6   7   37.60    4.40
   1   6   7   33.30    4.70
  -2  -6  -7   56.99    5.30
  -2  -6  -7   67.59    5.70
   2  -6   7   57.79    6.60
   2  -6   7   58.09    5.30
   2  -6   7   48.70    5.40
   2   6   7   50.19    5.50
  -2   6  -7   52.39    5.00
   2   6   7   60.19    5.60
   3  -6   7   31.20    4.50
   3  -6   7   21.60    4.60
  -3  -6  -7   20.40    3.60
   3  -6   7   18.60    3.40
  -3  -6  -7   23.70    4.30
   3  -6   7   27.70    4.10
  -3   6  -7   23.40    4.20
   3   6   7   22.40    3.60
   3   6   7   17.40    3.60
  -4  -6  -7   15.20    3.20
   4  -6   7   22.50    4.60
   4  -6   7   21.90    4.20
   4   6   7   14.50    3.40
   4   6   7   23.00    4.20
   5  -6   7    3.10    2.90
   5  -6   7    8.70    3.40
   5   6   7    3.20    3.00
   5   6   7    7.70    2.30
   7  -7  -7    5.50    2.70
   7   7  -7    9.40    3.00
   7   7  -7    4.20    2.30
   7   7  -7    8.70    3.30
   6  -7  -7   10.40    3.80
   6  -7  -7    3.20    2.00
   6  -7  -7    2.50    2.20
   6   7  -7   -1.30    1.90
   6   7  -7    3.00    1.80
   6   7  -7    4.40    2.50
   5  -7  -7    6.30    2.10
   5  -7  -7   11.20    3.00
  -5  -7   7    7.80    5.70
  -5   7   7    7.90    4.30
   5   7  -7    6.20    2.10
   4  -7  -7   14.00    3.10
   4  -7  -7   21.80    3.60
   4  -7  -7   17.60    3.30
  -4  -7   7   10.30    2.70
   4   7  -7   16.40    3.10
  -4   7   7   16.40    4.00
   4   7  -7   14.10    2.70
   3  -7  -7    0.70    1.70
  -3  -7   7   -1.40    1.50
   3  -7  -7    3.20    1.80
   3  -7  -7   -0.40    1.70
   3   7  -7    0.50    1.60
   3   7  -7   -0.60    1.50
  -3   7   7    1.70    2.40
  -3   7   7    1.40    1.80
  -2  -7   7  128.49    9.30
   2  -7  -7  115.59    8.80
   2  -7  -7  130.69    8.50
   2  -7  -7  139.49    9.10
  -2  -7   7  129.49    8.50
  -2   7   7  143.99    9.20
  -2   7   7  144.79    9.50
  -2   7   7  125.79    8.30
   2   7  -7  136.69    9.20
   2   7  -7  112.09    8.90
   1  -7  -7    3.30    1.60
   1  -7  -7    3.10    1.70
   1  -7  -7    6.50    2.10
  -1  -7   7    6.20    2.10
  -1  -7   7    5.70    1.90
  -1  -7   7    3.70    1.70
   1  -7  -7    3.40    1.70
  -1   7   7    7.40    2.30
  -1   7   7    7.00    1.80
  -1   7   7    7.00    2.50
   1   7  -7    6.00    2.00
   1   7  -7    5.00    1.80
   0  -7  -7    5.30    1.80
   0  -7   7    1.30    1.70
   0  -7   7    5.80    1.90
   0  -7  -7    3.30    1.80
   0  -7   7    2.40    1.80
   0  -7  -7    4.30    2.00
   0  -7   7    6.40    2.20
   0   7   7    3.60    1.90
   0   7  -7    3.10    1.60
   0   7   7    2.00    1.90
   1  -7   7    0.80    1.80
   1  -7   7    1.50    1.60
  -1  -7  -7   -0.70    1.80
  -1  -7  -7   -2.00    1.40
   1  -7   7    1.70    1.80
   1  -7   7    2.80    1.90
   1   7   7    0.40    1.80
  -1   7  -7    0.10    1.50
   1   7   7    1.90    1.90
  -2  -7  -7   17.70    3.00
   2  -7   7   11.20    3.00
   2  -7   7   18.30    3.60
   2  -7   7    8.40    2.60
  -2  -7  -7   17.40    3.30
  -2   7  -7   15.80    4.00
   2   7   7   19.00    3.40
   2   7   7   10.10    2.90
  -2   7  -7   11.20    2.60
   3  -7   7   68.69    6.90
  -3  -7  -7   85.69    7.70
   3  -7   7   82.69    6.70
  -3  -7  -7   63.89    8.30
   3  -7   7   74.49    7.40
   3   7   7   75.59    7.20
  -3   7  -7   76.89    7.50
   3   7   7   97.49    7.20
   3   7   7   88.29    6.90
   4  -7   7    2.80    2.80
   4  -7   7    8.50    2.70
   4   7   7    1.50    2.20
   4   7   7    5.20    3.00
   5  -7   7   29.20    4.70
   7  -8  -7    1.60    3.30
   7  -8  -7   -1.60    2.90
   7  -8  -7    0.50    2.70
   7   8  -7   -1.20    2.50
   7   8  -7   -1.20    1.80
   7   8  -7    6.50    2.90
   6  -8  -7   10.00    2.80
   6  -8  -7    5.70    2.60
  -6  -8   7    9.50    3.50
  -6   8   7   13.40    3.50
   6   8  -7   15.40    3.40
   6   8  -7    9.90    2.50
   6   8  -7    9.60    3.00
  -5  -8   7    0.60    2.10
   5  -8  -7    0.80    1.80
   5  -8  -7    4.40    1.90
   5  -8  -7    0.90    2.00
   5   8  -7   -1.10    2.00
   5   8  -7    1.00    1.60
   5   8  -7   -1.30    1.80
  -5   8   7   -0.90    2.50
  -5   8   7   -4.60    4.40
   4  -8  -7   -0.50    1.90
   4  -8  -7    1.10    1.60
   4  -8  -7   -3.30    1.70
   4   8  -7   -1.40    2.00
  -4   8   7   -2.80    2.10
   4   8  -7   -1.30    1.60
   4   8  -7   -2.30    1.70
   3  -8  -7    1.80    1.60
   3  -8  -7    3.10    1.90
   3  -8  -7    2.50    1.80
  -3  -8   7   -0.80    1.50
   3   8  -7    0.20    1.50
   3   8  -7    1.20    1.70
  -3   8   7   -0.90    2.00
  -3   8   7   -0.70    2.00
  -2  -8   7   -1.30    1.70
   2  -8  -7    3.20    2.50
   2  -8  -7    0.70    1.50
   2  -8  -7   -0.40    1.40
  -2  -8   7   -2.70    1.50
   2   8  -7    0.50    1.60
  -2   8   7   -0.70    1.80
  -2   8   7   -1.30    1.40
   2   8  -7   -1.10    1.70
   1  -8  -7   17.10    2.90
   1  -8  -7   11.30    2.50
  -1  -8   7   15.20    2.90
   1  -8  -7   12.70    2.30
   1  -8  -7   11.90    2.50
  -1  -8   7   17.00    3.00
   1   8  -7   16.30    3.10
  -1   8   7   19.50    3.80
  -1   8   7   12.30    2.40
   1   8  -7   15.10    3.40
  -1   8   7   20.00    3.30
   0  -8  -7    4.90    2.00
   0  -8   7    9.70    2.30
   0  -8   7    7.20    2.20
   0  -8  -7    7.40    2.40
   0  -8   7   10.50    2.40
   0   8   7    7.10    2.20
   0   8  -7    6.80    2.10
   1  -8   7   24.90    3.90
  -1  -8  -7   23.30    4.20
   1  -8   7   26.80    4.00
   1  -8   7   21.90    4.00
  -1   8  -7   25.80    3.40
   1   8   7   23.60    3.90
   1   8   7   24.90    4.30
  -1   8  -7   22.10    3.80
  -2  -8  -7   35.80    6.50
   2  -8   7   28.00    4.60
   2  -8   7   30.50    4.40
   2  -8   7   42.70    5.50
   2   8   7   28.50    4.20
  -2   8  -7   34.60    6.20
  -2   8  -7   41.60    5.30
   2   8   7   31.50    4.50
   2   8   7   38.50    4.90
   3  -8   7    4.40    2.00
   3  -8   7    3.50    2.40
  -3  -8  -7   -1.60    3.30
   3  -8   7    2.70    2.20
   3   8   7    0.50    2.20
  -3   8  -7   -2.20    2.20
   3   8   7   -0.10    2.20
   3   8   7   -1.10    1.70
  -4  -8  -7   32.10    5.30
   4  -8   7   35.50    5.80
   4  -8   7   37.60    5.10
   4   8   7   24.50    4.70
   4   8   7   34.80    4.70
   4   8   7   49.30    6.10
   7  -9  -7    1.70    2.20
   7  -9  -7   -0.70    3.90
   7   9  -7    3.00    2.00
   7   9  -7   -0.70    2.80
   7   9  -7    0.40    2.70
   6  -9  -7    2.20    1.90
   6  -9  -7   -0.40    2.00
   6   9  -7   -1.00    1.90
   6   9  -7   -1.10    1.90
   6   9  -7    2.10    2.60
  -5  -9   7    3.60    2.40
   5  -9  -7    3.80    1.90
   5  -9  -7    7.50    3.60
  -5   9   7    6.60    3.50
   5   9  -7    4.00    2.20
  -5   9   7    0.50    2.90
   5   9  -7    7.60    2.60
   5   9  -7    2.00    1.90
   4  -9  -7    0.90    2.10
  -4  -9   7    1.40    3.40
   4  -9  -7    0.80    1.60
   4   9  -7    1.10    1.60
  -4   9   7   -1.00    2.20
   4   9  -7    2.20    2.00
  -4   9   7   -2.20    4.10
   4   9  -7   -0.60    1.80
   3  -9  -7   24.50    3.80
   3  -9  -7   28.00    4.40
  -3  -9   7   23.20    3.30
   3   9  -7   28.50    4.10
  -3   9   7   23.90    4.50
   3   9  -7   23.80    3.90
   3   9  -7   29.30    3.90
   2  -9  -7    6.10    2.20
  -2  -9   7    6.40    2.30
   2  -9  -7    5.40    2.00
  -2  -9   7    4.20    2.00
  -2   9   7    7.30    2.80
   2   9  -7    6.10    2.50
  -2   9   7    3.10    1.70
   2   9  -7    9.40    2.40
   2   9  -7    3.50    1.80
  -2   9   7    6.60    3.00
  -1  -9   7    1.70    1.60
   1  -9  -7   -2.20    2.40
  -1  -9   7    2.40    1.60
   1  -9  -7    1.10    1.50
  -1  -9   7    4.00    1.90
  -1   9   7    4.40    2.50
   1   9  -7    2.40    1.70
  -1   9   7   -2.40    1.80
  -1   9   7   -0.40    1.50
   1   9  -7    1.90    1.60
   0  -9   7    4.80    2.20
   0  -9  -7    1.90    2.80
   0  -9   7    7.80    2.20
   0   9  -7    5.70    1.90
   0   9   7    8.00    2.30
   0   9  -7    3.40    1.90
   0   9   7    9.70    2.90
   1  -9   7    0.70    1.80
   1  -9   7    0.10    1.80
  -1   9  -7   -2.70    3.30
   1   9   7    1.10    2.20
   1   9   7    1.20    1.80
  -1   9  -7   -2.70    1.40
  -2  -9  -7    0.30    2.20
   2  -9   7    4.90    2.20
   2  -9   7    2.30    2.10
   2  -9   7    1.60    2.00
   2  -9   7    1.60    2.00
   2   9   7   -0.10    2.00
   2   9   7   -1.10    1.80
  -2   9  -7   -0.60    1.90
   2   9   7    0.60    2.30
  -2   9  -7    0.60    1.70
   3  -9   7   26.70    4.70
   3  -9   7   18.70    3.50
  -3  -9  -7   28.70    4.40
  -3   9  -7   22.80    5.10
   3   9   7   21.90    4.10
   3   9   7   26.20    4.60
   3   9   7   28.10    4.10
   4  -9   7    7.40    3.60
   4  -9   7    4.10    2.60
   4  -9   7    5.50    5.10
  -4  -9  -7    8.60    2.80
   4   9   7    9.00    3.20
   4   9   7    8.20    2.50
   7 -10  -7    0.60    2.50
   7 -10  -7    5.70    2.50
   7  10  -7    1.20    3.50
   7  10  -7   -0.30    2.10
   6 -10  -7    0.50    3.30
   6  10  -7    7.90    2.20
   6  10  -7   10.30    3.10
  -6  10   7    8.00    3.80
   5 -10  -7   -0.40    2.50
   5 -10  -7    4.10    1.80
   5  10  -7    1.70    2.30
  -5  10   7   -1.80    3.00
   4 -10  -7   36.20    7.00
   4 -10  -7   30.00    4.20
  -4 -10   7   27.60    5.30
  -4  10   7   36.10    6.20
   4  10  -7   29.70    4.10
   4  10  -7   33.50    4.70
   3 -10  -7   23.90    3.80
   3 -10  -7   23.80    4.20
   3  10  -7   19.50    3.50
   3  10  -7   17.20    3.50
  -3  10   7   22.90    4.40
  -3  10   7   24.50    4.40
   3  10  -7   21.20    3.70
  -2 -10   7   -0.90    1.40
   2 -10  -7    3.50    2.00
  -2 -10   7   -2.00    1.70
   2  10  -7    2.10    2.00
  -2  10   7   -1.70    1.50
   2  10  -7    1.10    1.30
   2  10  -7    1.70    1.80
  -2  10   7    0.90    2.40
  -1 -10   7   68.79    5.30
   1 -10  -7   59.59    5.40
  -1 -10   7   58.09    5.00
  -1 -10   7   66.69    5.90
   1 -10  -7   47.90    5.20
   1  10  -7   46.90    5.40
  -1  10   7   61.29    6.40
  -1  10   7   57.09    6.20
  -1  10   7   49.00    5.20
   1  10  -7   70.19    5.60
   0 -10  -7   61.99    5.80
   0 -10   7   71.29    6.20
   0 -10   7   73.09    5.70
   0 -10   7   63.49    5.50
   0 -10  -7   76.19    7.20
   0  10   7   59.79    6.20
   0  10   7   59.79    7.70
   0  10  -7   56.39    5.90
   0  10  -7   60.09    5.50
   1 -10   7   -1.10    2.20
  -1 -10  -7   -0.70    3.70
   1 -10   7   -2.70    1.60
   1  10   7    0.00    1.90
   1  10   7   -2.50    1.70
  -1  10  -7    0.00    2.00
  -1  10  -7   -2.50    1.50
   1  10   7   -1.80    2.40
  -1  10  -7   -0.60    1.70
   2 -10   7    8.70    2.60
  -2 -10  -7    4.40    2.10
   2 -10   7    2.90    2.50
   2 -10   7   11.60    3.10
  -2  10  -7    4.70    2.30
   2  10   7    4.70    2.80
   2  10   7    1.30    2.30
   2  10   7    2.40    2.00
  -2  10  -7    4.00    2.10
  -3 -10  -7    6.10    2.50
   3 -10   7    6.10    2.50
   3 -10   7    3.60    2.50
   3  10   7    3.30    2.20
   3  10   7   -1.00    2.20
   3  10   7    2.90    2.80
   4 -10   7    2.30    2.60
   4 -10   7   -1.90    3.30
   4  10   7    2.80    2.50
   4  10   7    6.50    2.50
   4  10   7    2.70    3.00
   6 -11  -7    3.30    2.70
  -6  11   7   17.90    7.20
   5 -11  -7   29.40    4.90
   5 -11  -7   15.60    3.30
   5  11  -7   20.50    3.90
   5  11  -7   26.40    4.30
   4 -11  -7    2.50    2.00
  -4 -11   7    0.50    2.40
   4 -11  -7    6.20    2.40
  -4  11   7    4.20    3.00
  -4  11   7    5.30    3.90
   4  11  -7    0.50    1.80
   3 -11  -7    7.90    2.50
  -3 -11   7    9.80    3.90
   3 -11  -7   18.60    3.80
   3  11  -7   13.10    2.70
   3  11  -7   13.00    2.80
   3  11  -7   17.00    3.80
  -3  11   7    7.70    5.00
   2 -11  -7   50.89    5.50
  -2 -11   7   44.60    4.50
   2 -11  -7   45.50    5.00
  -2 -11   7   45.70    5.20
   2  11  -7   53.79    5.90
  -2  11   7   37.60    7.00
   2  11  -7   35.70    4.80
   2  11  -7   48.10    5.10
  -2  11   7   44.10    4.40
  -2  11   7   57.79    6.10
  -1 -11   7    3.40    4.10
   1 -11  -7    3.90    1.90
  -1 -11   7    5.00    2.10
  -1 -11   7    7.50    1.90
  -1  11   7    7.90    2.30
   1  11  -7    5.30    2.30
  -1  11   7   10.80    3.20
   1  11  -7   11.90    3.40
   1  11  -7    8.80    2.80
   0 -11  -7    0.00    1.60
   0 -11  -7    2.20    2.20
   0 -11   7   -2.10    1.60
   0 -11   7   -0.90    1.90
   0  11  -7   -1.90    2.70
   0  11  -7   -3.40    1.90
   0  11  -7    0.10    1.80
   0  11   7    1.30    2.30
   0  11   7    0.30    2.50
   1 -11   7   19.20    3.80
   1 -11   7   18.20    3.50
  -1 -11  -7   17.70    3.80
  -1 -11  -7   14.10    2.60
   1 -11   7   17.70    4.60
   1  11   7   16.40    3.40
  -1  11  -7   21.30    3.80
   1  11   7   16.50    3.40
  -1  11  -7   20.80    3.30
  -1  11  -7   13.80    3.00
   2 -11   7   74.09    6.90
  -2 -11  -7   73.79    6.40
   2  11   7   51.99    6.30
  -2  11  -7   58.79    6.20
   2  11   7   57.69    6.30
   2  11   7   77.59    6.90
   3 -11   7    9.70    2.80
   3 -11   7    2.10    2.80
   3  11   7    5.40    2.70
   3  11   7    7.00    2.70
   5 -12  -7   -1.50    1.90
   5  12  -7    0.70    1.80
   5  12  -7    0.60    2.10
   4 -12  -7    3.40    2.10
   4  12  -7    3.30    3.10
  -4  12   7   -0.90    6.40
  -4  12   7   15.10    5.30
   4  12  -7    5.30    2.30
   4  12  -7    0.00    2.20
   3 -12  -7   10.80    2.70
   3 -12  -7   15.80    3.80
  -3 -12   7   12.90    3.30
   3  12  -7    9.30    2.60
  -3  12   7    9.10    4.10
   3  12  -7   13.50    3.20
   3  12  -7   10.60    2.90
   2 -12  -7   -0.70    2.60
  -2 -12   7    1.20    2.30
   2 -12  -7    0.30    1.80
   2  12  -7    0.20    2.00
  -2  12   7   -0.40    6.30
   2  12  -7    3.20    2.10
  -2  12   7    1.70    1.80
  -2  12   7    6.60    3.60
   2  12  -7    2.60    2.60
  -1 -12   7    0.70    1.80
   1 -12  -7    7.10    2.80
  -1 -12   7    5.50    2.70
  -1 -12   7   -0.20    2.00
   1 -12  -7    3.40    1.90
   1  12  -7   -0.90    2.80
  -1  12   7   -1.80    3.00
   1  12  -7   -1.80    1.80
   1  12  -7    3.20    2.30
   1  12  -7    0.50    1.90
  -1  12   7   -3.50    3.70
  -1  12   7    1.70    2.00
   0 -12  -7    6.90    2.60
   0 -12   7    4.40    2.70
   0 -12  -7    3.10    1.80
   0 -12   7    1.90    2.10
   0  12  -7   -1.10    2.20
   0  12   7    9.90    3.70
   0  12  -7    0.50    2.00
   0  12   7    8.00    3.10
   0  12   7    1.30    2.20
   0  12  -7    3.70    3.00
   0  12  -7    2.10    1.90
   1 -12   7   31.20    4.80
   1 -12   7   44.30    5.10
  -1 -12  -7   40.10    6.40
  -1 -12  -7   29.60    4.10
  -1  12  -7   40.50    7.10
  -1  12  -7   36.80    6.70
   1  12   7   35.60    5.00
   1  12   7   43.40    5.00
   2 -12   7    2.70    2.60
   2 -12   7    3.70    3.00
   2  12   7    1.90    2.40
   2  12   7    2.40    3.30
   2  12   7    3.50    2.60
   5 -13  -7    7.00    2.80
   5  13  -7   -5.00    3.60
  -5  13   7   -2.10    4.50
   5  13  -7    3.10    2.80
   4 -13  -7    1.30    2.20
   4  13  -7    2.30    2.20
  -4  13   7   -5.90    3.60
   4  13  -7    1.30    2.10
  -3  13   7   15.50    4.40
   2 -13  -7   -2.20    1.90
   2 -13  -7    2.90    3.90
  -2  13   7   -2.20    3.40
   2  13  -7    0.80    2.00
  -2  13   7    4.60    3.90
  -2  13   7   -1.20    1.80
   2  13  -7   -1.60    1.90
  -1 -13   7   -2.30    2.60
  -1 -13   7   -2.90    1.70
   1 -13  -7   -0.50    1.60
  -1  13   7    5.80    4.30
  -1  13   7    0.90    2.30
   0 -13   7   26.60    4.40
   0 -13  -7   30.60    4.20
   0  13   7   43.80    7.90
   0  13  -7   27.70    4.80
   0  13   7   32.80    5.10
   0  13   7   41.70    4.90
   0  13  -7   42.50    6.30
   1  13   7   10.80    3.40
  -1  13  -7    8.70    4.20
   2 -13   7   47.50    5.80
   2  13   7   58.29    6.10
   2  13   7   42.80    5.70
   3 -13   7    9.90    4.10
   3  13   7    9.80    3.90
   3  13   7    7.60    3.00
   5 -14  -7    4.00    2.40
   5  14  -7    0.50    2.40
   5  14  -7    3.80    2.50
   4 -14  -7   37.80    4.90
   4  14  -7   36.50    5.50
   4  14  -7   41.30    5.80
  -4  14   7   39.60    8.50
   3  14  -7    3.40    2.20
   3  14  -7    8.30    2.80
   2 -14  -7    4.50    2.20
   2  14  -7    9.60    3.00
   2  14  -7   11.30    2.90
  -2  14   7    8.60    2.50
  -1 -14   7   30.80    4.20
  -1 -14   7   30.60    4.50
   1 -14  -7   26.40    4.40
  -1  14   7   34.80    4.90
   1  14  -7   25.70    4.50
   1  14  -7   19.20    3.70
   0 -14   7   20.40    4.10
   0 -14  -7   21.90    3.70
   0  14  -7   22.90    3.80
   0  14   7   16.70    3.40
   0  14  -7   18.10    3.50
   0  14   7   25.10    4.60
   1 -14   7   13.20    3.40
  -1 -14  -7   11.10    2.60
   1  14   7   14.70    3.30
  -1  14  -7   12.80    3.20
  -1  14  -7   21.20    4.00
   1  14   7   13.10    3.20
   2 -14   7    5.90    2.80
   2  14   7    9.80    4.20
   2  14   7    4.50    2.70
   2  14   7    6.80    3.70
   4  15  -7    3.10    2.40
   4  15  -7    4.30    2.90
   3 -15  -7    5.00    2.60
   3  15  -7    2.30    2.30
   2 -15  -7   29.80    4.80
   2  15  -7   42.00    6.90
  -2  15   7   45.80    5.20
   2  15  -7   45.00    5.40
   0 -15   7   33.90    6.40
   0 -15   7   27.00    4.70
   0 -15  -7   23.00    4.20
   0  15  -7   39.70    4.80
   0  15   7   31.70    7.00
   0  15  -7   17.50    5.50
   0  15   7   28.50    4.80
   1 -15   7   -1.40    2.50
  -1 -15  -7   -0.70    2.10
  -1  15  -7    6.10    3.30
   1  15   7    0.10    2.60
  -1  15  -7    1.70    3.20
   1  15   7    4.10    2.50
   3 -16  -7    2.80    2.60
   3  16  -7   -3.00    2.30
   3  16  -7    1.90    4.00
   2 -16  -7    2.10    2.20
   2  16  -7   -3.50    2.40
   2  16  -7    2.80    2.80
  -2  16   7    5.00    2.50
  -1 -16   7    0.60    2.40
   1 -16  -7    5.40    2.70
   1 -16  -7   -1.00    2.20
  -1  16   7    4.10    2.70
  -1  16   7    4.10    2.60
   1  16  -7    0.70    2.30
   1  16  -7    1.30    2.40
   0 -16   7    4.70    2.40
   0 -16  -7    1.50    2.10
   0  16   7    1.90    2.50
   0  16  -7   -3.00    2.50
   0  16  -7    2.00    2.60
   0  16   7   -2.30    2.70
   8   0  -8    0.40    2.00
   8   0  -8   -0.20    2.30
   7   0  -8   -1.10    1.60
   7   0  -8   -3.20    2.00
   6   0  -8  104.89    8.00
  -6   0   8  132.29   13.00
   6   0  -8  108.79    8.90
  -5   0   8    4.10    2.50
   5   0  -8    1.20    1.70
   5   0  -8    2.30    1.60
  -4   0   8  703.13   40.40
   4   0  -8  794.82   40.90
  -3   0   8    1.90    2.10
   3   0  -8    1.30    1.70
  -3   0   8    4.70    1.60
   3   0  -8    4.20    1.70
   3   0  -8    3.20    1.80
  -2   0   8  307.87   16.90
   2   0  -8  320.47   16.90
  -2   0   8  257.57   16.30
   2   0  -8  289.07   16.70
   2   0  -8  253.07   16.40
  -1   0   8    0.90    1.50
   1   0  -8   -0.10    1.50
  -1   0   8   -1.00    1.20
   1   0  -8    0.20    1.20
  -1   0   8    0.10    1.50
   1   0  -8   -1.00    1.50
   0   0  -8   50.79    4.50
   0   0  -8   53.69    5.20
   0   0   8   49.30    5.10
   0   0   8   48.20    5.60
   0   0   8   37.10    5.10
   0   0  -8   45.70    4.20
  -1   0  -8   -1.90    1.90
  -1   0  -8    0.30    1.40
   1   0   8   -0.50    1.60
   1   0   8    0.20    1.90
   2   0   8   13.90    3.30
   2   0   8   18.70    4.40
   2   0   8   16.70    3.40
  -2   0  -8   12.50    2.40
   3   0   8   -3.50    2.00
  -3   0  -8   -1.40    2.00
   3   0   8   -2.20    2.40
   3   0   8   -2.60    1.70
   4   0   8   -1.10    2.20
   4   0   8    8.90    2.40
   8  -1  -8   -3.00    1.90
   8   1  -8    2.00    1.90
   8   1  -8   -3.50    2.00
   6  -1  -8   62.39    6.40
   6  -1  -8   57.39    5.40
   6   1  -8   53.59    5.90
   6   1  -8   56.29    5.30
  -5  -1   8   22.90    4.50
   5  -1  -8   30.20    4.30
   5  -1  -8   23.80    3.70
   5   1  -8   20.90    3.90
   5   1  -8   16.30    3.00
   5   1  -8   31.70    5.90
   4  -1  -8   74.39    6.80
  -4  -1   8   90.79    7.10
   4  -1  -8   86.59    6.00
   4  -1  -8   70.79    6.30
   4   1  -8   71.39    6.80
   4   1  -8   89.39    6.30
  -4   1   8   84.89    6.90
   4   1  -8   70.99    6.30
   3  -1  -8    1.50    1.50
   3  -1  -8    2.10    1.50
  -3  -1   8    0.10    2.10
   3  -1  -8    2.00    2.10
  -3   1   8    3.50    1.60
   3   1  -8    0.40    1.50
   3   1  -8    0.10    1.50
  -3   1   8    6.30    1.90
  -2  -1   8    1.50    1.80
   2  -1  -8    3.60    1.70
   2  -1  -8    2.90    1.50
  -2  -1   8    2.80    1.60
   2  -1  -8    1.20    1.60
   2  -1  -8   -1.00    1.60
  -2  -1   8    1.40    1.70
   2   1  -8    0.30    1.40
  -2   1   8    1.60    1.40
  -2   1   8    2.10    1.70
   2   1  -8    0.90    1.70
   2   1  -8   -0.40    1.60
  -1  -1   8   99.39    7.40
   1  -1  -8  102.19    7.10
   1  -1  -8  113.09    7.80
  -1  -1   8   87.49    7.30
  -1  -1   8  114.49    7.70
  -1  -1   8  105.49    7.80
   1  -1  -8  111.19    7.70
  -1   1   8   91.49    7.40
   1   1  -8   93.99    7.20
   1   1  -8  119.89    7.80
   1   1  -8  106.49    7.70
   0  -1   8    2.60    3.40
   0  -1  -8    1.40    1.30
   0  -1   8   -2.30    1.60
   0  -1   8   -0.10    1.60
   0  -1  -8    1.50    1.70
   0  -1  -8    1.80    1.40
   0   1  -8    0.70    1.20
   0   1  -8   -1.70    1.40
   0   1  -8   -0.50    1.70
   0   1   8   -0.40    1.50
   1  -1   8   10.00    2.80
  -1  -1  -8   11.80    2.40
  -1  -1  -8   18.70    3.40
   1  -1   8    8.60    2.60
  -1   1  -8    9.20    1.90
   1   1   8    8.80    2.60
   1   1   8   10.50    2.80
   1   1   8    9.60    2.60
   2  -1   8    5.40    2.20
   2  -1   8   -0.40    2.10
  -2  -1  -8    2.60    1.90
  -2  -1  -8   -0.40    1.40
   2  -1   8   -1.20    2.00
  -2   1  -8    2.90    1.60
   2   1   8    2.50    2.30
   2   1   8   -1.10    1.70
   2   1   8   -3.10    3.50
  -3  -1  -8    6.40    1.90
   3  -1   8    7.00    2.70
  -3  -1  -8    3.30    2.70
   3  -1   8    5.20    2.80
   3  -1   8    2.10    2.30
   3   1   8    2.70    2.80
   3   1   8    0.80    2.60
   3   1   8    5.70    2.30
   4  -1   8    8.20    3.10
   4  -1   8    2.40    2.60
   4   1   8   10.60    3.10
   4   1   8    5.90    2.80
   8  -2  -8   10.20    2.40
   6  -2  -8   65.99    6.80
   6  -2  -8   60.89    5.90
  -6   2   8   74.79    7.80
   6   2  -8   69.89    6.50
   6   2  -8   66.49    5.80
   6   2  -8   73.89    5.60
  -5  -2   8   19.60    3.90
   5  -2  -8   20.60    4.00
   5  -2  -8   22.50    3.50
   5   2  -8   17.10    3.30
   5   2  -8   15.70    4.20
   5   2  -8   19.80    3.50
   4  -2  -8  120.19    9.20
   4  -2  -8  135.49    8.20
   4  -2  -8  117.29    8.60
  -4  -2   8  129.59    9.10
   4   2  -8  119.29    8.50
   4   2  -8  138.09    8.70
   4   2  -8  122.29    9.20
   3  -2  -8    9.30    2.60
   3  -2  -8    8.40    2.20
  -3  -2   8    9.80    2.70
   3  -2  -8    8.70    2.80
  -3  -2   8   10.70    2.90
   3   2  -8    7.20    2.40
   3   2  -8    8.30    2.40
   3   2  -8   13.50    2.80
  -3   2   8   13.10    3.00
  -3   2   8    9.80    1.90
   2  -2  -8    8.60    3.10
  -2  -2   8   10.40    2.50
  -2  -2   8    6.60    2.10
   2  -2  -8   15.00    2.70
   2  -2  -8    9.20    2.20
  -2  -2   8    9.30    2.60
   2   2  -8   14.30    2.60
   2   2  -8    8.40    2.10
   2   2  -8    5.10    1.80
  -2   2   8   13.40    2.50
  -2   2   8   10.60    2.50
  -1  -2   8   59.39    5.10
  -1  -2   8   44.70    4.80
   1  -2  -8   56.99    5.10
  -1  -2   8   48.10    4.80
   1  -2  -8   55.09    4.60
  -1  -2   8   54.69    5.30
   1  -2  -8   58.49    5.00
   1  -2  -8   35.60    6.10
   1   2  -8   47.30    4.70
   1   2  -8   57.39    5.30
  -1   2   8   47.20    4.80
   0  -2  -8    1.00    1.50
   0  -2   8   -0.40    1.50
   0  -2  -8   -0.20    1.40
   0  -2  -8    0.70    1.20
   0  -2   8    1.50    1.20
   0  -2   8   -0.80    1.50
   0  -2   8    1.50    1.90
   0   2  -8   -1.40    1.30
   0   2  -8    1.70    1.40
   0   2  -8    1.10    1.90
   0   2   8   -1.50    1.60
   0   2   8    0.10    1.50
   1  -2   8   85.09    6.60
   1  -2   8   80.99    6.70
  -1  -2  -8   75.69    5.90
   1  -2   8   64.19    6.40
  -1  -2  -8   81.19    6.80
   1   2   8   80.49    6.50
  -1   2  -8   68.49    5.50
   1   2   8   64.19    6.40
  -1   2  -8   85.09    6.00
   2  -2   8    0.40    2.00
  -2  -2  -8    4.30    2.30
  -2  -2  -8    3.80    1.80
   2  -2   8    4.90    2.10
   2   2   8    5.10    2.40
   2   2   8    3.20    2.10
   3  -2   8    3.20    2.40
  -3  -2  -8   11.60    2.20
   3  -2   8   10.80    3.20
   3  -2   8    5.80    3.50
   3   2   8    4.90    2.80
   3   2   8    7.70    2.50
   3   2   8    6.60    3.00
   4  -2   8    3.20    2.30
   4  -2   8    8.70    3.10
   4   2   8    3.80    2.30
   4   2   8    0.90    2.40
   8   3  -8    2.80    2.00
   7  -3  -8    1.80    2.20
   7  -3  -8   -1.70    1.70
   7   3  -8    4.20    2.10
   7   3  -8    2.20    1.80
   6  -3  -8   83.49    6.90
   6  -3  -8   56.49    6.40
  -6  -3   8   73.69    7.20
   6  -3  -8   60.89    5.80
   6   3  -8   63.29    6.30
   6   3  -8   59.49    5.60
   6   3  -8   68.89    5.80
  -6   3   8   82.99    7.60
   5  -3  -8   10.60    4.60
   5  -3  -8    5.70    2.00
  -5  -3   8    2.90    2.80
   5  -3  -8    1.80    2.10
   5   3  -8    5.50    2.10
  -5   3   8    8.40    3.00
   5   3  -8    2.60    1.90
   5   3  -8    3.30    1.90
   4  -3  -8   12.60    2.60
   4  -3  -8   10.70    2.60
  -4  -3   8   16.50    3.20
   4   3  -8   13.20    2.60
   4   3  -8   11.20    2.70
   4   3  -8   13.30    2.50
  -3  -3   8    1.50    1.90
   3  -3  -8    1.30    1.70
   3  -3  -8    2.10    1.40
   3  -3  -8    0.50    1.60
  -3  -3   8    6.00    2.10
  -3   3   8    5.30    1.90
   3   3  -8   -1.80    2.20
  -3   3   8    3.00    1.50
   3   3  -8   -0.10    1.70
   3   3  -8    2.20    1.70
   2  -3  -8   -0.40    1.70
   2  -3  -8    2.10    1.60
   2  -3  -8   -0.20    1.80
  -2  -3   8    0.30    1.70
  -2  -3   8    0.50    1.70
  -2  -3   8   -1.10    1.50
   2  -3  -8   -0.10    1.40
  -2   3   8   -1.10    1.40
   2   3  -8    0.90    1.50
   2   3  -8    0.10    1.70
  -1  -3   8   -2.50    1.40
   1  -3  -8   -1.50    1.40
  -1  -3   8   -2.60    1.60
   1  -3  -8    2.70    1.50
  -1  -3   8   -1.20    1.70
   1  -3  -8    0.80    1.60
  -1  -3   8   -0.70    1.50
   1  -3  -8    1.30    1.80
  -1   3   8    0.20    1.50
   1   3  -8    0.80    1.80
   1   3  -8    1.60    1.50
   0  -3   8   67.09    5.90
   0  -3  -8   66.49    6.00
   0  -3   8   76.69    5.90
   0  -3  -8   61.79    5.00
   0  -3   8   62.19    5.80
   0  -3  -8   70.49    5.90
   0   3   8   65.39    6.00
   0   3  -8   60.19    5.20
   0   3   8   61.49    5.90
   0   3  -8   75.19    5.70
   0   3  -8   64.39    6.10
   1  -3   8   26.40    3.60
  -1  -3  -8   24.90    3.60
   1  -3   8   26.30    3.70
   1  -3   8   17.80    3.30
  -1  -3  -8   18.30    3.50
  -1   3  -8   18.80    3.00
  -1   3  -8   22.20    3.00
   1   3   8   19.70    3.80
   1   3   8   17.30    3.30
   2  -3   8   12.20    3.20
   2  -3   8   14.30    3.20
  -2  -3  -8   17.70    2.90
  -2   3  -8   21.60    3.90
  -2   3  -8   11.50    2.20
   2   3   8   19.60    3.50
   3  -3   8   12.40    3.00
  -3  -3  -8    8.90    2.20
   3  -3   8   14.20    3.50
   3   3   8    6.80    3.20
   3   3   8    5.40    3.00
   3   3   8   13.90    3.20
  -4  -3  -8   33.30    4.40
   4  -3   8   33.80    5.70
   4  -3   8   39.60    5.50
   4   3   8   28.00    6.00
   7  -4  -8    2.30    2.20
   7  -4  -8    3.50    2.00
   7   4  -8    3.80    2.20
   7   4  -8    1.80    2.20
   7   4  -8    4.60    2.00
  -6  -4   8    8.10    3.20
   6  -4  -8    8.80    2.60
   6   4  -8    7.50    2.50
   6   4  -8    9.70    2.40
   6   4  -8   11.20    2.80
  -5  -4   8   11.70    3.30
   5  -4  -8   10.80    2.50
   5  -4  -8   21.40    4.80
   5  -4  -8   11.30    3.00
   5   4  -8    9.10    2.60
   5   4  -8   12.30    2.40
   5   4  -8   14.40    2.80
  -5   4   8   19.90    4.70
  -4  -4   8   22.20    4.20
   4  -4  -8   25.30    4.20
   4  -4  -8   33.20    4.00
  -4  -4   8   23.20    4.40
   4  -4  -8   26.40    3.90
   4   4  -8   32.80    3.70
   4   4  -8   35.20    4.40
   4   4  -8   25.70    3.80
  -3  -4   8    7.00    2.30
   3  -4  -8    4.80    2.00
  -3  -4   8    5.60    2.50
   3  -4  -8    3.60    2.00
   3  -4  -8    6.80    1.90
   3   4  -8    4.90    2.00
  -3   4   8    3.80    1.60
   3   4  -8    1.20    1.50
   3   4  -8    4.20    1.90
   2  -4  -8    8.10    2.10
   2  -4  -8   11.10    2.30
  -2  -4   8   10.70    2.50
  -2  -4   8   13.90    2.60
   2  -4  -8    7.30    2.40
   2  -4  -8   10.40    2.20
  -2   4   8    9.20    2.10
  -2   4   8   14.00    2.80
   2   4  -8   13.10    2.80
   2   4  -8    7.60    2.10
   1  -4  -8    1.70    1.70
   1  -4  -8   -0.80    1.30
  -1  -4   8    0.50    1.60
   1  -4  -8   -0.50    1.60
  -1  -4   8    0.80    1.70
   1  -4  -8    0.50    1.50
  -1  -4   8   -0.90    1.60
   1   4  -8   -0.60    1.70
  -1   4   8    0.00    1.70
   1   4  -8    0.40    1.50
  -1   4   8    2.00    1.60
   0  -4  -8   87.49    6.40
   0  -4   8   63.89    6.20
   0  -4   8   71.99    6.30
   0  -4   8   81.99    6.60
   0  -4  -8   82.59    6.60
   0   4   8   82.99    6.70
   0   4  -8   70.89    5.80
   0   4   8   66.99    6.80
   0   4  -8   79.79    6.80
   1  -4   8   62.69    7.30
   1  -4   8   59.89    5.70
  -1  -4  -8   55.29    5.20
  -1  -4  -8   66.69    6.00
   1   4   8   54.79    5.60
  -1   4  -8   53.39    4.90
  -1   4  -8   61.99    5.00
   1   4   8   56.59    5.60
   2  -4   8    3.00    1.90
   2  -4   8   -1.40    2.00
   2  -4   8    1.10    1.80
  -2  -4  -8    0.40    2.40
   2  -4   8   -0.50    2.10
  -2  -4  -8    0.50    1.60
  -2   4  -8    2.60    2.50
   2   4   8    0.10    2.10
  -2   4  -8    0.30    1.50
   3  -4   8   -1.50    2.30
  -3  -4  -8    1.90    1.90
   3  -4   8    2.20    2.30
   3   4   8    2.90    2.40
   3   4   8    4.30    2.40
   4  -4   8   -3.20    2.80
  -4  -4  -8    5.90    2.10
   4  -4   8    1.90    2.60
   4   4   8    6.10    3.20
   4   4   8   -3.10    4.00
   7  -5  -8    3.30    2.10
   7  -5  -8    3.10    3.00
   7   5  -8    8.30    2.10
   6  -5  -8    5.50    2.20
  -6  -5   8   -0.50    3.10
   6  -5  -8    4.40    2.10
  -6   5   8    8.80    4.20
   6   5  -8    3.30    2.20
   6   5  -8    2.40    2.20
   6   5  -8    5.20    2.20
  -5  -5   8   38.40    5.40
   5  -5  -8   58.49    5.90
   5  -5  -8   44.10    5.00
  -5  -5   8   45.60    7.70
   5  -5  -8   47.10    5.60
   5   5  -8   57.29    4.90
   5   5  -8   39.70    5.10
   5   5  -8   46.00    4.60
   4  -5  -8    3.30    1.80
   4  -5  -8   -0.60    1.90
  -4  -5   8    1.40    2.10
   4  -5  -8    2.00    2.00
   4   5  -8    1.90    1.50
   4   5  -8    3.90    2.00
   4   5  -8    0.50    1.60
   3  -5  -8   12.40    2.60
   3  -5  -8   12.30    2.70
   3  -5  -8   20.00    2.90
  -3  -5   8   18.70    3.00
   3   5  -8   10.50    2.50
   3   5  -8   16.20    2.80
  -3   5   8   14.40    2.30
   2  -5  -8   20.80    3.40
   2  -5  -8   17.90    3.20
  -2  -5   8   19.50    3.60
  -2  -5   8   21.50    3.80
   2  -5  -8   18.50    3.30
  -2   5   8   25.10    3.80
  -2   5   8   17.10    3.10
   2   5  -8   13.60    4.10
   2   5  -8   28.60    4.00
  -1  -5   8  131.09    9.70
   1  -5  -8  153.08    9.70
   1  -5  -8  122.89    9.50
  -1  -5   8  159.78   10.20
  -1  -5   8  145.49    9.60
   1  -5  -8  119.19    9.20
   1  -5  -8  145.19    9.30
   1   5  -8  130.39    9.40
  -1   5   8  165.88   10.30
   1   5  -8  170.88   10.40
  -1   5   8  137.29    9.40
   0  -5   8    5.00    1.80
   0  -5  -8    2.30    1.60
   0  -5   8    5.30    1.90
   0  -5  -8   -0.50    1.50
   0  -5   8   -2.90    2.20
   0  -5   8    3.40    2.00
   0  -5  -8    1.90    1.80
   0   5  -8    0.80    1.60
   0   5  -8    3.20    1.60
   0   5   8    2.70    3.00
   0   5   8    1.80    2.00
   1  -5   8   81.19    7.50
   1  -5   8   99.29    7.90
   1  -5   8  110.99    7.50
  -1  -5  -8   96.39    7.20
  -1  -5  -8   97.29    7.80
  -1   5  -8   90.99    7.00
  -1   5  -8  106.49    7.00
   1   5   8   84.19    7.50
   1   5   8  104.09    7.70
   2  -5   8    1.20    2.00
   2  -5   8    0.70    2.00
  -2  -5  -8   -0.10    1.90
  -2  -5  -8   -0.70    2.40
   2   5   8   -1.60    1.70
  -2   5  -8   -1.10    1.90
  -2   5  -8   -0.60    1.40
  -3  -5  -8   -0.70    2.30
   3  -5   8   -0.90    2.10
   3  -5   8   -2.60    2.30
   3   5   8    2.20    2.10
   3   5   8    5.40    2.60
   4  -5   8    2.30    3.40
   4   5   8    1.10    2.50
   7  -6  -8   -2.80    2.60
   7  -6  -8    1.10    2.40
   7   6  -8    0.40    4.10
   6  -6  -8   30.70    4.70
   6  -6  -8   27.30    4.30
   6  -6  -8   18.10    3.90
  -6  -6   8   21.20    4.50
   6   6  -8   19.60    3.50
   6   6  -8   28.10    3.70
   5  -6  -8   14.20    3.10
  -5  -6   8   13.10    3.60
   5  -6  -8    8.70    2.70
  -5  -6   8    7.60    2.70
   5  -6  -8    7.90    2.40
  -5   6   8   12.20    4.00
   5   6  -8    6.90    2.00
   5   6  -8    9.70    2.60
   5   6  -8    6.40    2.30
   4  -6  -8   58.59    5.60
   4  -6  -8   67.09    6.20
  -4  -6   8   53.19    5.80
   4   6  -8   71.39    5.90
   4   6  -8   59.09    5.90
  -4   6   8   57.29    5.70
   3  -6  -8   17.70    3.30
  -3  -6   8   19.60    3.60
   3  -6  -8   16.70    3.00
   3  -6  -8   18.30    3.70
  -3   6   8   14.90    2.90
  -3   6   8   21.10    3.90
   3   6  -8   19.90    3.30
   3   6  -8   13.80    2.80
  -2  -6   8   -2.70    1.90
   2  -6  -8    2.10    1.50
  -2  -6   8    0.80    1.80
   2  -6  -8    3.80    1.40
   2  -6  -8    2.10    1.80
  -2   6   8    2.50    1.70
   2   6  -8   -0.40    1.40
  -2   6   8    2.50    2.30
   2   6  -8    0.60    1.50
  -2   6   8   -1.20    2.10
   1  -6  -8    8.20    2.30
  -1  -6   8   13.50    2.50
  -1  -6   8   14.40    2.80
   1  -6  -8    6.50    1.90
  -1  -6   8    8.80    2.20
   1  -6  -8    5.90    2.30
   1   6  -8    8.90    2.50
  -1   6   8   14.70    3.00
  -1   6   8   10.50    2.30
   1   6  -8    9.30    3.40
   0  -6  -8   42.40    5.10
   0  -6  -8   31.70    4.20
   0  -6   8   33.20    4.60
   0  -6   8   51.59    4.90
   0  -6   8   44.20    4.60
   0   6   8   43.60    5.20
   0   6  -8   41.60    4.60
   0   6   8   40.70    5.70
   1  -6   8    9.90    2.30
  -1  -6  -8    9.30    2.70
   1  -6   8   11.10    2.60
   1  -6   8   11.10    2.90
  -1   6  -8    8.00    2.10
   1   6   8    7.30    2.50
   1   6   8   13.80    3.00
   2  -6   8    3.70    2.50
   2  -6   8   -0.70    2.00
  -2  -6  -8    2.60    2.60
   2  -6   8    4.70    2.40
   2  -6   8    3.00    2.60
  -2   6  -8    3.20    1.80
   2   6   8    1.00    3.10
  -2   6  -8    5.80    2.80
   2   6   8    5.30    2.30
   3  -6   8   -3.00    2.30
   3  -6   8   -2.80    1.90
   3  -6   8   -1.80    2.00
   3   6   8    0.80    2.40
   4  -6   8    5.60    4.40
   4  -6   8    4.40    3.20
   4   6   8    0.70    2.70
   7  -7  -8    4.50    1.90
   7  -7  -8    0.30    2.30
   7   7  -8    5.00    2.40
   7   7  -8    2.90    2.80
   6  -7  -8   -0.10    1.90
   6  -7  -8    3.40    3.50
   6   7  -8   -1.70    2.10
   6   7  -8   -1.80    1.90
   5  -7  -8    1.10    2.70
   5  -7  -8    3.80    2.20
   5  -7  -8    2.40    1.80
  -5  -7   8   -1.20    1.90
  -5   7   8    7.00    3.30
   5   7  -8    5.90    2.40
  -5   7   8    1.50    2.50
   5   7  -8    1.40    1.60
   4  -7  -8    8.00    2.50
  -4  -7   8    7.30    2.60
   4  -7  -8   10.00    2.80
   4  -7  -8    7.60    2.30
   4   7  -8   10.30    2.70
   4   7  -8   10.70    2.60
  -4   7   8    9.40    3.00
   3  -7  -8   -0.10    1.50
   3  -7  -8    0.50    2.00
   3  -7  -8   -0.90    1.60
  -3   7   8   -3.30    2.00
  -3   7   8   -0.10    2.30
  -3   7   8    1.70    1.40
   3   7  -8    2.00    1.80
  -2  -7   8   20.30    3.80
   2  -7  -8   22.00    3.50
   2  -7  -8   20.60    3.50
   2  -7  -8   14.90    3.00
  -2  -7   8   21.90    3.70
  -2   7   8   23.40    3.70
  -2   7   8   16.70    3.60
  -2   7   8   20.60    3.20
   2   7  -8   23.50    4.00
   2   7  -8   17.00    3.30
   1  -7  -8   59.99    5.70
  -1  -7   8   55.29    4.90
  -1  -7   8   56.49    5.30
   1  -7  -8   51.09    4.90
  -1  -7   8   52.99    5.60
   1  -7  -8   43.60    4.90
   1   7  -8   44.40    5.00
  -1   7   8   61.69    6.00
  -1   7   8   51.79    5.20
  -1   7   8   58.29    6.20
   1   7  -8   57.89    5.80
   0  -7  -8   54.09    5.60
   0  -7   8   52.19    5.20
   0  -7   8   57.69    5.60
   0  -7  -8   42.70    4.90
   0  -7   8   47.50    5.30
   0   7  -8   49.10    5.00
   0   7   8   52.79    5.30
   0   7   8   56.29    5.80
   1  -7   8    0.40    2.00
   1  -7   8    0.40    3.00
   1  -7   8    2.70    1.70
  -1  -7  -8   -2.90    2.90
   1  -7   8   -1.40    1.60
  -1  -7  -8    3.40    3.10
  -1   7  -8   -2.10    2.10
   1   7   8   -0.20    2.40
  -1   7  -8    0.60    1.70
   1   7   8   -0.30    1.90
   2  -7   8   12.50    2.80
  -2  -7  -8    8.30    3.10
  -2  -7  -8    9.00    3.30
   2  -7   8    8.20    2.90
   2  -7   8   10.50    2.80
   2   7   8    7.20    3.20
  -2   7  -8   12.20    3.80
  -2   7  -8    5.70    2.20
   2   7   8    5.20    2.40
   3  -7   8   27.60    4.90
   3  -7   8   27.70    5.10
   3  -7   8   34.60    4.80
   3   7   8   36.80    5.30
   3   7   8   29.70    5.00
   4  -7   8   16.60    4.00
   4  -7   8   10.90    3.30
   7  -8  -8   10.30    2.80
   7   8  -8    7.20    3.10
   7   8  -8    6.30    2.60
   6  -8  -8   -0.60    2.20
   6  -8  -8    0.80    2.10
   6   8  -8   -2.30    2.30
   5  -8  -8   10.90    2.80
   5  -8  -8   10.70    3.10
  -5   8   8   13.60    3.50
   5   8  -8   12.90    2.90
   5   8  -8   12.30    3.20
  -4  -8   8   19.10    3.40
   4  -8  -8   21.80    3.90
   4  -8  -8   14.00    2.90
  -4  -8   8   26.20    4.50
   4  -8  -8   14.70    3.10
  -4   8   8   21.10    4.40
   4   8  -8    9.80    2.70
  -4   8   8   16.00    3.70
   3  -8  -8   -0.70    1.70
   3  -8  -8    1.10    1.70
  -3  -8   8   -2.60    1.80
  -3  -8   8   -2.00    1.60
   3  -8  -8    4.20    1.80
   3   8  -8    1.20    1.60
  -3   8   8   -1.90    2.20
  -3   8   8   -1.60    2.90
   2  -8  -8    4.90    2.10
   2  -8  -8    3.00    2.20
  -2  -8   8    4.30    2.30
   2  -8  -8    3.70    2.00
  -2  -8   8    9.20    2.70
  -2   8   8    1.70    1.70
   2   8  -8    6.40    2.50
   2   8  -8    4.10    1.90
  -2   8   8    6.50    2.90
  -2   8   8    4.80    2.90
   1  -8  -8    0.20    1.70
  -1  -8   8    1.70    2.10
   1  -8  -8    0.40    1.60
   1  -8  -8   -1.70    1.50
  -1  -8   8   -2.00    1.50
  -1   8   8    2.60    2.30
  -1   8   8   -0.80    1.80
  -1   8   8    0.80    2.30
   1   8  -8    1.80    3.30
   1   8  -8   -1.20    1.40
   0  -8  -8   12.90    2.90
   0  -8   8   12.30    2.70
   0  -8  -8   10.30    2.40
   0   8   8    9.50    2.50
   0   8  -8   12.90    2.40
   0   8   8   18.10    3.60
   1  -8   8   47.50    5.50
   1  -8   8   39.40    5.00
  -1  -8  -8   55.49    6.20
   1  -8   8   41.30    5.20
  -1  -8  -8   43.50    5.80
   1   8   8   58.39    7.30
  -1   8  -8   54.49    5.60
  -1   8  -8   43.70    5.00
   1   8   8   41.70    5.10
   2  -8   8   30.60    5.10
   2  -8   8   27.10    4.90
  -2  -8  -8   40.00    4.70
   2  -8   8   32.30    4.90
  -2   8  -8   24.70    4.00
   2   8   8   42.40    5.40
   2   8   8   30.40    4.80
   3  -8   8    2.60    2.50
   3  -8   8    0.50    2.50
   3  -8   8    1.80    2.70
  -3  -8  -8    4.80    2.50
   3   8   8    5.80    2.90
   3   8   8    1.60    2.70
   6  -9  -8   12.80    3.90
   6  -9  -8   10.30    3.60
  -6   9   8   18.00    4.50
   6   9  -8   10.20    3.00
   6   9  -8   14.00    4.50
   5  -9  -8    5.70    2.20
   5  -9  -8    5.30    2.70
   5   9  -8    3.50    2.20
   5   9  -8   10.80    2.80
  -5   9   8   10.30    3.50
   5   9  -8    5.90    2.50
   4  -9  -8   -1.20    1.70
   4  -9  -8   -0.90    2.00
   4  -9  -8    1.90    2.50
  -4  -9   8    1.20    2.50
   4   9  -8   -0.80    1.80
   4   9  -8   -0.20    1.80
  -4   9   8   -1.10    2.80
   4   9  -8    2.20    2.40
   3  -9  -8    7.70    2.80
   3  -9  -8    2.00    2.10
  -3  -9   8    1.30    2.30
   3   9  -8    6.00    2.10
   3   9  -8    3.90    2.40
   3   9  -8    7.60    2.50
  -3   9   8    5.30    3.30
  -2  -9   8    7.00    2.90
   2  -9  -8    6.70    2.30
  -2  -9   8   10.10    2.70
   2  -9  -8    9.30    2.50
  -2   9   8    3.40    3.50
   2   9  -8    8.20    2.40
   2   9  -8   14.20    3.20
  -2   9   8   10.20    2.20
  -2   9   8   17.00    3.70
   1  -9  -8   14.70    3.20
   1  -9  -8   10.50    2.60
   1  -9  -8   12.00    2.60
  -1  -9   8   12.50    2.90
   1  -9  -8    7.90    2.10
   1   9  -8    8.80    2.30
  -1   9   8   10.60    3.60
   1   9  -8   12.10    3.10
  -1   9   8   14.00    2.80
   0  -9  -8    8.90    2.70
   0  -9   8    5.60    2.30
   0  -9   8    7.20    3.10
   0  -9  -8    7.80    3.10
   0  -9  -8    5.90    2.20
   0   9   8   16.50    3.80
   0   9   8    7.50    2.20
   0   9  -8    5.80    2.20
   0   9  -8   11.90    2.90
   0   9  -8    6.40    2.30
   0   9   8    8.00    5.30
  -1  -9  -8   49.99    6.00
   1  -9   8   42.40    5.60
  -1  -9  -8   63.49    5.80
   1  -9   8   44.40    8.40
  -1   9  -8   42.60    5.40
   1   9   8   50.09    5.70
  -1   9  -8   57.89    5.10
  -1   9  -8   64.49    7.40
   1   9   8   46.90    8.70
   2  -9   8    4.80    2.80
  -2  -9  -8    4.70    2.90
   2  -9   8    9.10    3.90
  -2   9  -8    4.70    2.30
   2   9   8    7.50    2.80
   2   9   8    7.20    3.20
   3  -9   8    8.20    4.60
   3  -9   8   12.50    3.30
   3  -9   8    4.90    3.40
   3   9   8   12.10    4.20
   6 -10  -8    4.40    2.20
   6 -10  -8   -2.60    2.80
   6  10  -8    1.70    2.60
   6  10  -8    2.40    2.60
   5 -10  -8    3.60    1.90
   5 -10  -8    2.00    2.30
  -5  10   8   -0.90    3.20
   5  10  -8   -0.80    2.00
   5  10  -8    0.20    2.10
   5  10  -8    0.40    2.70
   4 -10  -8    5.00    3.70
   4 -10  -8    2.40    2.10
   4 -10  -8    0.40    1.80
  -4  10   8   -0.90    3.10
   4  10  -8    3.20    2.20
   4  10  -8   -0.10    1.80
   4  10  -8    9.10    2.80
   3 -10  -8   26.70    4.70
   3 -10  -8   42.50    5.10
  -3 -10   8   34.40    5.10
   3 -10  -8   26.00    4.20
  -3 -10   8   35.80    4.40
   3  10  -8   23.40    4.00
  -3  10   8   45.80    6.40
   3  10  -8   40.00    5.00
   3  10  -8   31.30    4.70
  -2 -10   8   10.30    3.50
   2 -10  -8   16.20    4.30
   2 -10  -8   12.50    2.80
  -2 -10   8   18.50    3.20
   2  10  -8   13.10    2.90
  -2  10   8   20.60    3.40
  -2  10   8   23.10    4.60
   2  10  -8   12.30    3.30
  -1 -10   8    8.00    2.30
  -1 -10   8   10.00    2.80
   1 -10  -8    6.70    2.50
   1 -10  -8    4.80    2.00
   1 -10  -8    8.70    3.10
   1  10  -8    6.90    2.70
  -1  10   8   10.90    3.80
  -1  10   8   11.70    4.00
   1  10  -8    7.60    2.30
   1  10  -8    7.50    2.40
   0 -10  -8   80.19    6.80
   0 -10  -8   55.39    5.80
   0 -10   8   67.59    6.00
   0  10   8   65.79    6.30
   0  10  -8   50.79    6.20
   0  10   8   83.59    9.50
   0  10  -8   68.09    6.00
   1 -10   8    8.20    2.90
  -1 -10  -8   -1.00    2.80
   1 -10   8    1.10    2.00
   1  10   8   -1.50    2.10
   1  10   8    5.70    3.30
  -1  10  -8    3.40    2.00
  -1  10  -8    1.90    1.90
   2 -10   8    5.40    2.90
   2  10   8    2.80    2.60
  -2  10  -8    6.30    2.40
   3 -10   8    5.10    3.50
   3 -10   8    5.70    3.40
   3 -10   8    3.40    2.80
   3  10   8    3.70    2.50
   3  10   8    6.60    3.30
   5 -11  -8    7.80    2.50
   5 -11  -8    3.80    3.00
   5  11  -8    2.80    2.60
   5  11  -8    1.50    3.00
   4 -11  -8    6.30    2.40
   4 -11  -8    4.50    2.40
   4  11  -8    3.80    2.20
   4  11  -8    4.70    2.70
   3 -11  -8   -0.80    1.90
   3 -11  -8    0.90    2.10
  -3  11   8   -4.80    3.90
   3  11  -8    4.40    3.80
   3  11  -8   -0.90    1.80
   3  11  -8   -0.60    1.60
   2 -11  -8   16.50    3.10
  -2 -11   8   20.40    3.50
   2 -11  -8   21.50    4.10
  -2 -11   8   20.30    5.10
   2  11  -8   21.70    4.20
  -2  11   8   29.40    5.00
   2  11  -8   20.40    4.60
   2  11  -8   15.40    3.20
  -2  11   8   21.00    3.70
   1 -11  -8   40.30    4.90
  -1 -11   8   40.10    4.60
  -1  11   8   54.59    5.00
   1  11  -8   44.60    5.20
   1  11  -8   40.40    5.50
   0 -11   8    1.10    2.40
   0 -11   8   -1.00    3.10
   0 -11   8   -3.70    2.20
   0  11   8   -1.60    3.20
   0  11   8    2.00    2.10
   0  11  -8   -0.90    2.00
   0  11   8   -1.40    2.90
   1 -11   8   16.90    4.10
   1 -11   8    6.90    2.40
   1 -11   8    5.10    3.10
   1  11   8    2.10    2.40
  -1  11  -8    6.50    2.30
  -1  11  -8    6.00    2.40
   2 -11   8   -1.80    2.40
   2  11   8    1.00    2.40
  -2  11  -8    0.50    2.20
   5 -12  -8    6.30    2.50
   5 -12  -8    6.80    3.60
   5  12  -8    1.90    2.20
   5  12  -8    5.90    2.80
  -4  12   8    6.00    3.60
   4  12  -8   -0.30    2.00
   4  12  -8   -3.30    2.30
   3 -12  -8   10.00    2.90
   3 -12  -8    5.10    2.50
   3  12  -8    7.90    2.90
  -3  12   8   13.10    4.60
   3  12  -8    6.80    2.50
  -2 -12   8   -1.40    2.50
   2 -12  -8   -0.60    2.10
   2 -12  -8    4.40    2.30
  -2  12   8    3.00    2.10
   2  12  -8   -1.20    2.00
   2  12  -8    0.30    2.30
  -1 -12   8    4.10    2.20
   1 -12  -8    8.00    2.40
   1 -12  -8    5.20    2.10
   1  12  -8    4.90    2.30
  -1  12   8    5.40    2.50
  -1  12   8   11.30    4.50
   1  12  -8    7.30    2.60
   0 -12   8    9.70    2.80
   0 -12  -8    8.40    2.50
   0  12  -8   15.70    2.80
   0  12  -8    7.50    2.80
   1 -12   8    0.60    2.10
   1  12   8    2.60    2.60
  -1  12  -8    2.60    2.20
  -1  12  -8    4.50    2.20
   2 -12   8    6.50    2.90
   2  12   8   -2.80    3.40
   4 -13  -8    8.50    4.30
   4  13  -8   10.70    3.10
   4  13  -8    9.30    4.60
   3 -13  -8   -0.60    1.90
  -3  13   8   -1.30    4.20
   3  13  -8    0.00    2.00
   3  13  -8   -0.10    2.40
   2 -13  -8   -0.80    2.10
  -2 -13   8    4.20    2.40
   2 -13  -8    5.30    2.30
  -2  13   8    0.30    2.30
   2  13  -8   -2.00    2.10
   2  13  -8    3.90    2.00
  -1 -13   8    9.30    3.90
   1 -13  -8   -3.20    2.10
  -1 -13   8    2.30    2.00
   1 -13  -8   -1.10    3.10
   1  13  -8   -0.60    2.20
  -1  13   8    1.60    2.40
   1  13  -8    1.20    2.20
  -1  13   8   10.60    4.70
   0 -13   8   10.60    2.80
   0  13  -8    4.90    2.70
   0  13   8    5.90    2.80
   0  13  -8    4.90    2.30
   1 -13   8    4.80    2.60
   1  13   8    4.20    3.10
   1  13   8    2.10    2.70
  -1  13  -8    3.00    2.50
  -1  13  -8    6.80    2.50
   4 -14  -8   -1.00    2.50
   4  14  -8    0.90    2.40
   4  14  -8   -0.90    2.90
   3 -14  -8    3.10    2.80
   3  14  -8    2.10    2.30
   3  14  -8    1.50    2.60
   2 -14  -8   14.50    3.10
  -2  14   8   22.60    4.30
   2  14  -8   14.40    3.50
   2  14  -8   24.80    4.50
   1 -14  -8   -1.50    2.20
  -1 -14   8    1.20    2.10
   1 -14  -8   -1.60    2.30
  -1  14   8    2.90    2.70
   1  14  -8   -4.50    2.40
   1  14  -8    0.20    2.40
   0 -14   8   -0.20    2.50
   0 -14  -8   -3.60    2.00
   0 -14   8   -0.20    3.70
   0  14  -8    0.10    2.60
   0  14   8   -2.70    2.10
   0  14  -8   -2.30    2.20
   2 -15  -8   18.70    3.70
   2  15  -8   31.60    5.20
   2  15  -8   19.70    4.10
  -1 -15   8    6.70    3.10
  -1 -15   8    3.50    2.40
  -1  15   8    7.60    2.90
   7   0  -9    1.60    2.00
   7   0  -9    4.40    2.10
  -6   0   9    0.90    3.80
   6   0  -9   -2.50    1.70
   6   0  -9   -1.10    2.00
   5   0  -9   23.70    4.20
   5   0  -9   23.80    3.90
  -5   0   9   28.20    5.00
   4   0  -9    1.90    1.90
   4   0  -9   -0.60    1.70
  -4   0   9    5.60    2.90
   4   0  -9    0.70    1.80
   3   0  -9   93.39    7.40
   3   0  -9  103.99    7.40
   3   0  -9   87.59    7.00
  -3   0   9   85.19    6.90
   2   0  -9    1.40    1.50
  -2   0   9    0.20    1.80
   2   0  -9   -1.50    1.50
   2   0  -9   -0.50    1.70
   1   0  -9   -1.00    1.90
  -1   0   9    0.90    1.80
   1   0  -9    3.20    1.60
  -1   0   9    3.70    1.80
   1   0  -9    1.60    1.60
   0   0   9    0.90    1.90
   0   0  -9   -0.60    1.60
   0   0  -9   -1.30    1.80
   0   0  -9   -0.70    1.20
   1   0   9   50.89    5.50
   1   0   9   34.60    5.20
  -1   0  -9   35.40    4.40
   1   0   9   39.40    5.10
  -2   0  -9    2.50    1.80
   2   0   9   -1.80    1.90
   3   0   9   32.90    5.90
   7  -1  -9    5.70    2.40
   7  -1  -9    1.30    2.00
   7   1  -9    3.10    2.40
   7   1  -9   -2.30    1.80
   6  -1  -9   61.39    6.20
  -6  -1   9   60.09    7.20
   6  -1  -9   47.30    5.40
   6   1  -9   45.40    5.30
   6   1  -9   52.89    5.80
   5  -1  -9    2.20    1.90
  -5  -1   9    3.60    4.80
   5  -1  -9   -0.10    1.60
   5  -1  -9    0.00    1.70
   5   1  -9    0.10    1.90
   5   1  -9    0.40    1.60
   5   1  -9    2.00    1.80
   4  -1  -9    1.30    1.70
   4  -1  -9   -0.10    1.70
  -4   1   9    6.60    4.90
   4   1  -9   -2.30    1.70
   4   1  -9   -2.00    1.50
   4   1  -9    0.10    1.60
   3  -1  -9   -0.90    1.70
   3  -1  -9    0.30    2.90
   3  -1  -9    0.80    1.70
   3  -1  -9    1.70    1.70
  -3   1   9   -0.20    1.50
   3   1  -9    2.70    2.00
   3   1  -9   -1.90    1.60
  -3   1   9    5.90    3.10
   3   1  -9    1.00    1.70
   2  -1  -9   29.20    4.10
  -2  -1   9   21.60    4.40
   2  -1  -9   19.20    3.40
   2  -1  -9   26.20    3.60
  -2   1   9   26.50    5.10
   2   1  -9   20.90    4.20
   2   1  -9   31.50    4.30
  -2   1   9   20.90    3.40
  -1  -1   9   -3.40    1.90
  -1  -1   9    2.40    1.90
  -1  -1   9    0.30    1.60
   1  -1  -9    0.70    2.20
   1  -1  -9   -1.10    1.30
   1   1  -9   -0.50    1.40
  -1   1   9   -0.60    1.60
   1   1  -9    0.90    1.50
  -1   1   9   -0.50    1.70
   0  -1   9    3.50    2.20
   0  -1   9    2.90    2.00
   0  -1   9    5.10    2.20
   0  -1  -9    0.60    1.50
   0  -1  -9    0.80    1.90
   0  -1  -9    1.60    2.30
   0   1  -9    4.20    2.20
   0   1  -9    4.10    1.60
   0   1   9    2.70    2.00
   0   1  -9   11.40    4.60
   0   1   9    5.90    2.50
  -1  -1  -9   56.39    6.10
  -1  -1  -9   57.79    5.30
   1  -1   9   48.60    5.90
   1  -1   9   61.49    6.00
   1  -1   9   43.30    5.50
   1   1   9   45.60    5.40
   1   1   9   43.20    5.90
  -1   1  -9   59.89    6.50
  -1   1  -9   54.69    5.10
   2  -1   9    6.10    2.90
   2  -1   9    4.70    2.70
  -2  -1  -9   11.00    2.50
   2   1   9   10.80    3.20
   2   1   9    4.40    3.10
  -2   1  -9    7.60    2.30
   3  -1   9   15.20    5.90
   3  -1   9   19.70    4.00
  -3  -1  -9   12.80    2.80
   3   1   9   13.80    6.30
   7  -2  -9    4.70    2.20
   7  -2  -9    4.30    2.50
   7   2  -9    2.40    2.30
   6  -2  -9   51.99    5.90
   6  -2  -9   51.99    5.70
   6   2  -9   55.29    6.00
   6   2  -9   67.99    5.40
   6   2  -9   50.09    5.40
   5  -2  -9    4.20    3.00
   5  -2  -9   -1.70    1.60
   5  -2  -9   -2.10    1.70
   5   2  -9    4.60    2.10
  -5   2   9    0.40    2.80
   5   2  -9    2.50    1.90
   5   2  -9   -2.60    1.60
   4  -2  -9    0.70    1.70
   4  -2  -9    0.60    1.80
   4  -2  -9    3.30    1.80
  -4   2   9   -2.80    2.30
   4   2  -9   -1.70    1.70
   4   2  -9    1.70    1.80
   4   2  -9    2.50    1.80
   3  -2  -9    2.90    1.80
   3  -2  -9    4.10    2.40
   3  -2  -9    3.30    1.90
   3   2  -9    1.50    1.50
   3   2  -9    8.30    2.40
  -3   2   9    5.00    1.80
  -3   2   9   13.10    4.70
   3   2  -9    1.70    1.80
   2  -2  -9   -1.30    1.40
  -2  -2   9   -1.20    1.60
   2  -2  -9    0.70    1.30
   2  -2  -9   -2.70    1.90
  -2  -2   9    0.30    1.90
   2   2  -9   -0.80    1.50
  -2   2   9   -1.50    1.70
   2   2  -9   -0.80    1.90
  -1  -2   9    0.00    2.00
  -1  -2   9    2.40    1.70
   1  -2  -9    1.30    1.80
  -1  -2   9   -1.60    1.80
  -1  -2   9    2.90    1.70
   1  -2  -9    1.00    1.30
   1   2  -9   -1.60    1.50
   1   2  -9   -1.10    1.40
  -1   2   9    0.60    1.80
   1   2  -9    1.90    2.00
   0  -2   9    6.00    2.40
   0  -2  -9    8.30    1.80
   0  -2  -9   13.20    2.90
   0  -2   9    9.40    2.50
   0  -2  -9    7.90    3.50
   0  -2   9    9.00    2.50
   0   2  -9   11.70    4.70
   0   2  -9    7.50    1.80
   0   2  -9    7.80    2.40
   0   2   9    8.30    2.50
   0   2   9    2.90    2.50
   1  -2   9   13.30    3.00
  -1  -2  -9   21.10    3.70
   1  -2   9   12.10    3.00
   1  -2   9   11.90    3.20
   1  -2   9   15.50    3.00
  -1   2  -9   21.10    3.90
   1   2   9   13.30    3.00
  -1   2  -9   12.50    2.30
  -1   2  -9   14.10    2.70
   1   2   9    9.90    3.10
   1   2   9   10.40    3.20
   2  -2   9   81.29    7.50
   2  -2   9   87.89    8.10
  -2  -2  -9   85.29    7.00
   2   2   9   86.09    8.40
   2   2   9   71.49    7.50
  -2   2  -9   96.19    6.60
   3  -2   9    2.40    2.70
   3  -2   9    5.70    5.40
   3   2   9    5.30    3.20
   3   2   9   -0.40    3.70
   7  -3  -9    2.90    2.50
   7  -3  -9    2.40    2.10
   7   3  -9    2.00    2.00
   7   3  -9    4.80    2.10
   7   3  -9   -2.30    2.30
   6  -3  -9   23.80    4.10
   6  -3  -9   15.60    3.40
   6   3  -9   17.90    3.20
   6   3  -9   30.30    3.60
   6   3  -9   27.10    4.30
  -5  -3   9    9.90    3.90
   5  -3  -9    0.60    1.70
   5  -3  -9    5.60    3.10
   5  -3  -9    3.30    2.20
   5   3  -9   -1.20    2.00
   5   3  -9    0.90    1.90
   5   3  -9    1.80    2.10
   4  -3  -9    2.70    2.10
   4  -3  -9    1.80    1.90
   4  -3  -9    4.80    1.70
   4  -3  -9    5.20    2.60
   4   3  -9    2.10    1.80
   4   3  -9    2.20    1.90
   4   3  -9    4.50    2.40
  -4   3   9    0.70    2.50
   3  -3  -9    0.10    2.20
   3  -3  -9   -0.70    1.60
   3  -3  -9   -1.30    1.50
  -3  -3   9    2.30    2.00
   3  -3  -9    1.70    1.70
  -3   3   9    0.90    1.70
   3   3  -9   -1.10    1.50
   3   3  -9    0.50    1.90
   3   3  -9    0.90    1.70
  -3   3   9   -3.20    2.40
   2  -3  -9    0.70    2.10
   2  -3  -9    3.60    1.90
   2  -3  -9   -2.00    1.60
  -2  -3   9    1.20    1.80
  -2  -3   9    0.90    2.30
   2  -3  -9   -0.40    1.70
   2   3  -9    1.00    2.00
   2   3  -9   -1.30    1.50
  -2   3   9   -0.50    1.70
  -1  -3   9    5.60    2.60
  -1  -3   9    1.50    1.70
  -1  -3   9    1.10    1.60
   1  -3  -9    3.20    2.10
   1  -3  -9    1.70    1.70
   1  -3  -9    2.00    1.50
  -1   3   9    1.20    1.90
   1   3  -9    4.40    2.40
   0  -3   9   -2.70    1.90
   0  -3  -9   -1.10    1.70
   0  -3   9    0.90    1.60
   0  -3   9    0.70    1.70
   0  -3   9   -2.40    1.40
   0   3  -9   -1.10    1.40
   0   3   9   -2.40    2.10
   0   3  -9    1.20    1.90
   0   3  -9   -2.40    2.10
   1  -3   9   44.90    5.60
   1  -3   9   49.50    5.60
   1  -3   9   49.00    5.90
  -1  -3  -9   68.19    6.20
  -1   3  -9   62.99    6.50
  -1   3  -9   44.50    4.80
   1   3   9   65.69    6.40
   1   3   9   49.70    5.80
  -1   3  -9   64.69    5.20
   2  -3   9    4.60    2.60
   2  -3   9   -1.00    2.60
  -2   3  -9    1.60    1.80
   2   3   9    1.10    1.80
   2   3   9   -3.60    2.40
   3  -3   9   51.79    7.70
   3  -3   9   54.39    6.70
   3   3   9   47.80    7.20
   3   3   9   62.99    7.50
   6  -4  -9   -0.50    1.70
   6   4  -9    0.10    1.70
   6   4  -9    2.40    2.20
   6   4  -9   -1.20    2.00
   5   4  -9    8.70    2.20
   5   4  -9    9.40    2.50
   5   4  -9   11.80    2.30
   4  -4  -9    5.60    3.70
   4  -4  -9    4.30    2.30
   4  -4  -9    7.10    2.60
   4  -4  -9    4.90    2.10
  -4  -4   9   -0.50    2.50
   4   4  -9    3.10    1.90
  -4   4   9   12.20    3.10
   4   4  -9    8.10    2.50
   4   4  -9    8.30    2.10
   3  -4  -9  100.59    7.70
  -3  -4   9  100.69   10.10
   3  -4  -9   98.39    7.30
   3  -4  -9   79.09    7.20
   3   4  -9   97.59    7.70
  -3   4   9   98.39    7.30
   3   4  -9  110.49    8.00
  -3   4   9   92.19   10.80
  -3   4   9   88.59    6.80
  -2  -4   9   12.80    3.10
   2  -4  -9   11.30    2.70
   2  -4  -9    7.90    2.20
   2  -4  -9   11.80    2.70
   2   4  -9   12.40    2.90
  -2   4   9   15.60    3.00
  -2   4   9   10.00    2.50
   2   4  -9   10.70    2.40
   1  -4  -9   31.40    4.60
   1  -4  -9   33.10    4.50
  -1  -4   9   34.00    5.70
   1  -4  -9   20.50    3.80
   1  -4  -9   23.00    3.50
  -1  -4   9   22.50    3.90
  -1  -4   9   31.90    4.40
  -1  -4   9   33.20    3.80
  -1   4   9   30.50    4.60
   1   4  -9   35.00    6.00
  -1   4   9   23.30    3.70
   1   4  -9   23.30    3.50
   0  -4   9    3.20    2.40
   0  -4   9    3.00    2.10
   0  -4   9   -1.60    1.80
   0  -4   9    1.40    2.10
   0  -4  -9    4.10    3.20
   0   4   9   -0.20    1.90
   0   4  -9   -2.20    2.20
   0   4  -9    2.10    1.70
   0   4  -9    6.00    2.50
   0   4   9   -1.10    2.30
   1  -4   9   10.40    2.80
   1  -4   9   19.20    3.60
   1  -4   9   16.20    3.70
   1  -4   9   10.60    3.10
  -1  -4  -9   22.50    4.80
   1   4   9   11.50    3.50
  -1   4  -9   11.70    2.50
   1   4   9   15.10    3.30
  -1   4  -9   13.40    3.60
  -1   4  -9   10.50    2.40
   2  -4   9   20.40    3.80
  -2  -4  -9   22.10    4.40
   2  -4   9   18.40    4.20
   2   4   9   17.50    3.70
  -2   4  -9   24.30    3.80
   3  -4   9    2.50    2.70
   3  -4   9    7.60    3.10
   3   4   9    5.80    2.50
   3   4   9    2.00    4.60
  -7  -5   9   11.10    5.60
   7  -5  -9   -0.70    2.30
   7  -5  -9    1.80    2.40
   7   5  -9    5.00    1.90
   7   5  -9    1.90    2.00
   6  -5  -9    0.70    2.10
   6   5  -9    0.80    2.60
   6   5  -9    3.50    1.80
   6   5  -9   -0.60    1.90
   5  -5  -9    5.00    2.30
   5   5  -9    4.00    2.30
   5   5  -9    4.10    1.80
   5   5  -9    3.90    1.80
   4  -5  -9   41.30    5.40
   4  -5  -9   42.90    5.00
   4   5  -9   48.90    5.40
   4   5  -9   44.00    5.10
   3  -5  -9   -0.10    2.10
   3  -5  -9    1.60    2.30
  -3  -5   9    1.60    2.60
   3  -5  -9    1.90    1.90
   3  -5  -9    1.20    1.70
  -3   5   9    8.70    3.50
  -3   5   9    0.70    1.70
  -3   5   9    1.60    2.00
   3   5  -9   -0.20    1.90
   3   5  -9    1.70    1.70
   2  -5  -9   83.49    6.90
   2  -5  -9   88.09    6.50
   2  -5  -9   59.69    6.20
   2  -5  -9   73.29    6.40
  -2  -5   9   83.79    7.20
   2   5  -9   71.49    6.40
  -2   5   9   65.09    6.00
   2   5  -9   87.99    7.00
  -2   5   9   63.39    7.20
  -2   5   9   84.89    6.60
  -1  -5   9    5.90    2.30
  -1  -5   9    6.70    4.50
   1  -5  -9    9.70    2.60
   1  -5  -9    8.50    3.50
   1  -5  -9    4.30    2.10
  -1  -5   9    7.50    2.30
   1  -5  -9    5.70    1.70
   1   5  -9    5.00    1.80
   1   5  -9    7.80    2.70
  -1   5   9    6.60    2.30
  -1   5   9    8.10    3.00
   0  -5   9   12.40    3.00
   0  -5  -9   12.70    4.90
   0  -5   9   13.40    3.20
   0  -5   9   14.70    2.90
   0  -5  -9   13.10    4.20
   0  -5   9    9.50    2.70
   0   5  -9   16.80    3.50
   0   5   9    9.20    2.70
   0   5   9   16.20    3.50
   0   5  -9    8.60    2.10
   1  -5   9   -1.70    2.30
  -1  -5  -9    4.90    2.50
  -1  -5  -9   -2.20    3.00
   1  -5   9   -0.80    3.70
   1  -5   9    0.20    2.10
   1  -5   9   -1.60    2.10
   1   5   9    0.20    2.00
   1   5   9   -2.40    2.30
   2  -5   9   29.90    4.60
   2  -5   9   26.40    4.50
   2  -5   9   27.60    5.00
   2   5   9   18.10    3.70
   3  -5   9    0.70    2.30
   3   5   9   -0.80    3.40
   3   5   9   -0.70    2.50
   6  -6  -9   -2.00    2.20
   6   6  -9   -1.40    1.60
   6   6  -9   -0.50    2.90
   6   6  -9    8.30    3.60
   5  -6  -9    2.90    2.20
   5  -6  -9    5.00    2.50
   5   6  -9   10.20    3.70
   5   6  -9    1.70    2.00
  -4  -6   9   -1.00    2.40
   4  -6  -9   -0.30    1.60
   4  -6  -9   -2.10    2.40
   4  -6  -9    2.60    2.00
  -4   6   9    4.50    3.40
   4   6  -9   -2.20    2.30
   4   6  -9   -0.80    1.70
  -3  -6   9   69.49    7.30
   3  -6  -9   76.89    6.00
   3  -6  -9   61.99    6.10
   3  -6  -9   80.79    6.90
   3  -6  -9   73.39    6.40
  -3   6   9   87.29    7.50
  -3   6   9   74.39    6.50
   3   6  -9   61.09    6.30
  -3   6   9   61.29    5.50
   3   6  -9   76.79    9.40
  -2  -6   9    0.20    4.40
   2  -6  -9   -0.90    2.10
   2  -6  -9    1.70    1.50
   2  -6  -9   -2.40    1.60
   2  -6  -9   -0.90    1.90
  -2   6   9   -0.20    1.80
   2   6  -9   -3.10    1.90
  -2   6   9   -2.90    2.20
   2   6  -9   -2.60    1.60
  -2   6   9    1.90    2.60
  -1  -6   9   -1.20    1.90
   1  -6  -9   -0.70    1.90
  -1  -6   9   -4.20    4.20
   1  -6  -9   -1.10    1.60
   1  -6  -9   -2.00    1.60
   1   6  -9   -1.80    1.40
  -1   6   9   -1.40    1.80
   1   6  -9   -1.80    2.10
  -1   6   9   -1.20    2.80
   0  -6   9    1.60    2.40
   0  -6   9    2.70    2.20
   0  -6   9    5.60    2.70
   0  -6  -9    2.70    2.40
   0   6   9   -1.60    1.90
   0   6   9   -0.30    2.90
   0   6  -9   -0.30    2.70
   0   6  -9    3.30    1.70
   1  -6   9   47.60    5.90
  -1  -6  -9   64.99    6.70
   1  -6   9   68.39    6.30
  -1  -6  -9   70.19    6.30
   1  -6   9   71.99    6.50
  -1   6  -9   64.19    5.60
   1   6   9   57.49    6.10
  -1   6  -9   54.59    5.60
   2  -6   9    8.70    3.10
   2  -6   9    6.70    3.10
   2  -6   9   14.70    3.60
   2   6   9   14.70    3.40
  -2   6  -9   10.60    2.60
   3  -6   9    9.20    2.80
   3  -6   9    8.30    3.30
  -3  -6  -9    8.30    2.40
   3   6   9    4.60    2.50
   6  -7  -9    5.70    2.90
   6  -7  -9   -2.70    3.10
   6   7  -9    4.30    2.80
   6   7  -9   -0.50    2.20
   5  -7  -9    1.30    2.10
   5  -7  -9    0.70    1.90
   5   7  -9    1.30    2.10
   5   7  -9    2.70    1.70
   4  -7  -9    2.20    1.70
  -4  -7   9    3.30    4.20
  -4   7   9   -0.70    2.40
   4   7  -9    2.40    2.50
  -3  -7   9    5.90    2.70
   3  -7  -9    1.20    2.70
   3  -7  -9    1.50    1.80
   3  -7  -9    1.10    1.90
   3   7  -9    1.50    2.40
   3   7  -9    3.20    2.00
  -3   7   9   -2.80    3.00
  -3   7   9    0.10    1.90
  -3   7   9    4.20    2.70
   2  -7  -9    0.10    2.20
   2  -7  -9   -0.40    2.40
  -2  -7   9    6.00    2.40
   2  -7  -9   -0.20    1.80
   2  -7  -9   -2.50    2.60
   2   7  -9   -1.00    2.30
  -2   7   9   -1.70    2.70
  -2   7   9    0.40    1.80
   2   7  -9    0.20    1.80
  -1  -7   9    3.30    2.40
   1  -7  -9    4.50    2.40
   1  -7  -9    2.10    1.70
   1   7  -9    4.80    2.40
   0  -7   9   22.40    4.10
   0  -7   9   21.90    3.80
   0  -7  -9   20.30    3.80
   0  -7  -9   29.80    4.70
   0  -7   9   29.70    6.40
   0   7   9   29.00    5.40
   0   7   9   17.30    3.20
   0   7  -9   15.00    3.00
   1  -7   9   25.30    4.40
  -1  -7  -9   29.00    6.50
   1  -7   9   19.00    3.90
   1  -7   9   19.70    3.80
  -1  -7  -9   19.10    3.90
   1   7   9   15.10    3.40
  -1   7  -9   25.10    4.10
   2  -7   9    1.80    2.40
  -2  -7  -9    0.60    2.70
   2  -7   9    6.30    3.10
   2  -7   9    7.20    4.70
   2   7   9   -0.90    2.40
  -2   7  -9   -0.10    2.10
   6  -8  -9   -0.90    1.90
   6  -8  -9    0.50    2.40
   6   8  -9    5.00    2.10
   6   8  -9   -0.10    2.50
   5  -8  -9    2.70    2.00
  -4  -8   9    3.80    3.20
   4  -8  -9    0.10    1.80
   4  -8  -9    2.60    1.90
   4   8  -9    1.90    1.80
   4   8  -9   -0.20    2.40
   3  -8  -9   -1.70    2.00
  -3  -8   9   -1.30    2.70
   3  -8  -9    0.00    2.00
   3  -8  -9    0.00    1.70
   3   8  -9    1.90    2.30
  -3   8   9    2.30    2.00
  -3   8   9    6.40    3.10
   3   8  -9   -2.00    1.60
   2  -8  -9    6.70    3.20
  -2  -8   9    8.50    3.30
  -2  -8   9    7.00    2.50
   2  -8  -9    1.70    2.30
   2   8  -9   10.30    2.80
   1  -8  -9   27.60    5.00
  -1  -8   9   32.60    5.00
   1  -8  -9   31.10    4.00
   1  -8  -9   38.10    5.50
   1  -8  -9   24.50    4.40
  -1   8   9   25.90    4.30
   1   8  -9   34.60    6.30
  -1   8   9   37.80    6.00
   1   8  -9   32.20    4.60
   0  -8  -9    2.70    2.30
   0  -8   9    1.00    2.90
   0  -8   9    1.00    2.60
   0  -8   9    2.70    2.50
   0  -8  -9   -4.00    3.30
   0   8  -9    2.50    2.10
   0   8   9    6.50    3.00
   0   8   9    0.10    2.00
   1  -8   9   18.10    3.70
   1  -8   9   16.70    3.40
   1   8   9   19.00    3.40
  -1   8  -9   10.30    2.90
   2  -8   9   39.70    5.20
   2  -8   9   31.90    5.30
  -2   8  -9   25.20    4.50
   2   8   9   26.80    6.00
   5  -9  -9   15.40    4.10
   5  -9  -9   22.80    4.40
   5   9  -9   15.60    4.80
   4  -9  -9   25.40    4.70
   4  -9  -9   27.00    4.70
  -4  -9   9   31.20    5.60
   4   9  -9   36.50    5.50
   4   9  -9   24.60    4.40
   3  -9  -9    2.30    2.00
   3  -9  -9    1.00    2.10
  -3   9   9    9.90    4.40
   3   9  -9    2.30    1.90
   2  -9  -9   27.30    4.50
   2  -9  -9   43.80    5.20
   2  -9  -9   38.80    4.80
  -2   9   9   36.10    5.40
   2   9  -9   36.90    4.90
   1  -9  -9   10.00    2.70
   1  -9  -9    9.30    2.10
  -1  -9   9    7.70    3.20
   1  -9  -9   11.40    3.20
   1   9  -9    8.80    2.70
  -1   9   9   17.90    4.20
   0  -9   9   -3.70    2.70
   0  -9   9    7.50    3.40
   0  -9  -9   -0.40    2.00
   0  -9   9    1.60    2.40
   0   9  -9    0.30    2.20
   0   9   9    0.90    2.20
   0   9  -9    0.40    1.90
   0   9   9    7.10    4.00
   1  -9   9    4.00    2.70
  -1   9  -9    2.80    2.40
   1   9   9    7.50    2.70
  -1   9  -9    3.30    2.30
   2  -9   9   22.90    4.10
   2  -9   9   13.50    3.20
   5 -10  -9    6.20    2.30
   5 -10  -9    1.10    3.00
   5  10  -9    0.90    2.70
   5  10  -9   -1.00    2.00
  -4 -10   9    6.00    2.60
   4 -10  -9   -1.60    2.70
   4 -10  -9   -2.30    1.90
   4  10  -9   -0.70    2.40
   4  10  -9    2.20    2.50
   3 -10  -9   50.69    6.00
   3 -10  -9   47.00    5.60
   3  10  -9   58.09    6.20
   3  10  -9   60.09    6.20
   2 -10  -9   13.40    2.70
  -2 -10   9   11.10    5.60
   2 -10  -9    8.60    2.70
  -2  10   9    3.30    2.80
   2  10  -9    6.10    2.40
   2  10  -9    9.10    2.90
   1 -10  -9   17.70    2.90
  -1 -10   9   11.80    2.70
   1 -10  -9   11.50    2.70
   1  10  -9   10.20    3.00
   1  10  -9   13.40    2.90
  -1  10   9   12.70    2.90
   0 -10  -9   -2.30    1.90
   0 -10   9    1.20    2.30
   0  10  -9    1.30    2.20
   0  10  -9    1.10    2.20
   0  10   9    5.30    2.50
   1  10   9    5.70    3.00
  -1  10  -9   12.10    2.90
  -1  10  -9    8.10    2.50
   4 -11  -9    7.60    2.80
   4 -11  -9    9.90    2.90
   4  11  -9    5.70    4.10
   4  11  -9    4.40    2.40
   3 -11  -9    0.10    2.40
   3 -11  -9    4.00    2.50
   3  11  -9    8.10    2.20
  -3  11   9    8.30    3.60
   3  11  -9    1.30    2.90
   2 -11  -9    4.30    2.40
   2 -11  -9    6.50    2.00
  -2 -11   9    3.60    4.40
  -2  11   9    8.20    2.30
   2  11  -9    1.90    2.20
   1 -11  -9    2.30    2.40
  -1 -11   9    1.80    3.10
   1 -11  -9    6.20    2.30
  -1  11   9    3.40    2.40
   1  11  -9    3.30    2.30
   0 -11   9   15.40    3.40
   0 -11  -9   11.00    2.90
   0  11  -9   24.90    4.40
   0  11  -9   17.30    3.20
   0  11   9   16.10    3.50
   1 -11   9   -1.00    2.10
  -1  11  -9   -0.60    2.40
  -1  11  -9   -5.40    3.60
   1  11   9   -2.10    2.80
   4 -12  -9    1.30    2.60
   4 -12  -9    2.20    2.30
   4  12  -9   -3.20    2.60
   4  12  -9   -0.30    1.90
   3 -12  -9   -2.60    3.10
   3 -12  -9    1.80    2.40
   3  12  -9   -0.60    2.10
   3  12  -9   -2.40    2.40
  -2 -12   9    6.20    3.50
   2 -12  -9    1.10    2.40
   2 -12  -9    1.00    2.40
  -2  12   9    9.20    2.50
   2  12  -9    3.40    2.60
   2  12  -9    4.10    3.30
  -1 -12   9   16.20    3.90
   1 -12  -9    8.20    2.90
  -1 -12   9    9.70    3.20
  -1  12   9   15.30    3.30
   1  12  -9    4.90    4.70
   1  12  -9   11.40    3.00
   0 -12  -9    3.70    2.60
   0  12   9    2.90    2.60
   0  12  -9    1.30    2.50
   0  12  -9    2.70    4.70
   2 -13  -9   -1.30    3.00
   2 -13  -9   -0.80    2.50
  -2 -13   9   -3.80    3.50
   2  13  -9   -1.30    2.50
   2  13  -9   -1.80    2.30
  -2  13   9    1.10    2.50
   6   0 -10    3.00    2.30
   5   0 -10    2.00    2.00
  -4   0  10    2.70    3.10
   4   0 -10   -1.30    1.70
   4   0 -10   -1.30    2.00
   4   0 -10   -0.20    1.70
  -3   0  10    2.10    2.40
   3   0 -10    0.30    1.70
  -3   0  10   -3.20    1.90
   3   0 -10   -0.90    1.60
   3   0 -10    1.60    2.40
   3   0 -10   -1.90    2.40
   2   0 -10  105.49    9.00
   2   0 -10   83.59    6.90
  -2   0  10   78.19    7.00
   1   0 -10   -0.90    1.60
   1   0 -10    4.00    2.80
   1   0 -10    3.90    2.30
  -1   0  10   -2.80    2.20
  -1   0  10   -1.30    1.90
   0   0  10   34.40    4.90
   0   0 -10   37.30    4.30
   0   0  10   33.90    5.20
   1   0  10   -2.60    2.30
   1   0  10    0.30    2.30
   2   0  10   -3.40    2.30
   2   0  10    4.00    2.60
   6  -1 -10   -1.30    2.20
   6  -1 -10   -0.30    2.00
   6   1 -10    4.20    2.30
   6   1 -10   -3.40    1.90
   5  -1 -10    2.90    2.10
   5  -1 -10    1.90    2.10
   5  -1 -10    7.70    2.00
   5   1 -10    3.40    1.90
   5   1 -10   -1.10    2.30
   4  -1 -10   -0.60    1.80
   4  -1 -10   -3.00    1.70
  -4  -1  10    3.90    2.70
   4   1 -10   -2.30    2.00
   4   1 -10    0.50    2.20
   4   1 -10   -1.90    1.80
   3  -1 -10   47.10    6.20
  -3  -1  10   49.70    6.20
   3  -1 -10   44.50    4.80
   3  -1 -10   40.80    5.00
   3   1 -10   37.60    4.70
   3   1 -10   36.00    5.70
   3   1 -10   44.10    5.30
   3   1 -10   38.80    4.60
  -3   1  10   33.20    4.60
   2  -1 -10    4.70    2.50
  -2  -1  10    6.10    2.20
   2  -1 -10    6.40    2.10
   2  -1 -10    5.60    2.60
   2  -1 -10    5.10    1.90
  -2   1  10    8.50    2.50
   2   1 -10    4.00    2.00
   2   1 -10    6.70    3.70
   2   1 -10    5.80    2.70
  -2   1  10    8.00    3.60
   1  -1 -10   58.99    6.10
   1  -1 -10   48.50    5.70
  -1  -1  10   45.20    5.30
  -1  -1  10   39.90    5.30
  -1   1  10   39.90    5.40
   1   1 -10   54.99    6.00
   1   1 -10   57.99    5.90
  -1   1  10   40.20    5.20
   1   1 -10   45.40    5.10
   0  -1 -10   23.10    4.40
   0  -1  10   14.80    3.50
   0  -1  10   15.00    3.30
   0   1  10   13.60    3.30
   0   1 -10   19.40    4.60
   0   1  10   12.40    3.40
   0   1 -10   10.20    3.30
   1  -1  10   13.80    3.50
  -1  -1 -10   19.50    4.30
   1  -1  10   12.10    3.40
   1   1  10   23.10    4.50
   2  -1  10    1.20    2.50
   2  -1  10   -2.10    2.50
  -2  -1 -10    1.40    2.70
   2   1  10   -3.50    2.50
   2   1  10    4.30    2.80
   6  -2 -10   -2.30    2.10
   6   2 -10   -3.60    1.80
   6   2 -10   -2.00    2.00
   6   2 -10   -2.20    2.30
  -5  -2  10   13.60    5.10
   5  -2 -10    1.70    1.90
   5  -2 -10    0.10    2.00
   5  -2 -10    2.20    2.10
   5   2 -10   -2.20    2.20
   5   2 -10    1.60    2.00
   5   2 -10   -1.60    2.00
   4  -2 -10    4.50    1.90
   4  -2 -10    7.10    2.10
   4   2 -10    1.80    2.00
   3  -2 -10   -3.40    1.70
   3  -2 -10   -1.80    2.10
  -3  -2  10    3.60    2.70
   3  -2 -10   -2.20    1.50
  -3   2  10    2.70    1.80
   3   2 -10    0.60    1.70
   3   2 -10    3.80    2.40
   2  -2 -10   -0.60    1.80
   2  -2 -10    0.10    1.70
   2  -2 -10    1.00    2.50
  -2  -2  10    0.40    2.60
  -2  -2  10   -2.20    2.10
   2  -2 -10    3.80    2.60
   2   2 -10   -0.80    1.50
  -2   2  10    1.30    1.90
  -2   2  10    5.00    3.70
   2   2 -10   -2.30    2.30
   2   2 -10    2.00    2.40
  -1  -2  10   49.80    6.20
  -1  -2  10   43.40    5.20
   1  -2 -10   39.50    5.80
  -1  -2  10   43.40    5.30
   1   2 -10   42.60    4.80
  -1   2  10   44.80    5.10
  -1   2  10   42.60    5.60
   0  -2  10   -1.00    2.30
   0  -2  10    3.80    2.30
   0  -2  10    1.50    2.10
   0  -2 -10   10.10    3.20
   0  -2 -10    2.00    2.20
   0   2 -10    3.20    1.50
   0   2  10    0.10    2.10
   0   2  10    0.30    2.50
   1  -2  10   14.10    3.30
   1  -2  10   13.70    3.50
   1  -2  10   21.40    3.90
  -1   2 -10   12.40    2.60
   1   2  10   13.00    3.30
   1   2  10   16.80    3.40
   2  -2  10    3.30    2.30
   2  -2  10    2.50    2.80
  -2  -2 -10    3.60    2.40
   2   2  10    5.60    2.80
  -2   2 -10    1.10    2.40
   2   2  10    0.60    2.70
   6  -3 -10    0.50    3.30
   6  -3 -10    3.70    2.70
   6   3 -10    3.90    2.50
   6   3 -10    6.10    2.30
   6   3 -10    5.00    2.30
  -5  -3  10    3.80    3.50
   5  -3 -10    6.50    2.70
   5  -3 -10    2.60    2.20
   5   3 -10    6.80    3.00
   5   3 -10    2.70    2.10
   5   3 -10    2.80    2.10
   4  -3 -10   -0.70    1.80
   4  -3 -10    0.80    2.00
   4  -3 -10   -2.60    1.60
   4   3 -10   -0.40    2.40
   4   3 -10   -1.80    1.80
   4   3 -10   -0.70    1.70
   3  -3 -10   -2.60    1.70
   3  -3 -10    0.60    1.70
   3  -3 -10    6.50    2.20
   3   3 -10    1.00    1.90
   3   3 -10   -1.40    2.70
  -3   3  10   -3.50    2.10
  -2  -3  10   -0.40    2.00
   2  -3 -10    4.20    2.60
   2  -3 -10    0.70    1.80
   2  -3 -10    0.30    2.60
  -2  -3  10    9.00    2.90
   2  -3 -10    0.50    1.90
   2   3 -10    3.70    2.70
  -2   3  10    1.90    2.10
   2   3 -10    5.20    2.00
   1  -3 -10   26.20    4.10
  -1  -3  10   26.20    4.70
  -1  -3  10   27.40    4.60
   1   3 -10   38.90    5.40
  -1   3  10   23.00    4.20
   1   3 -10   26.40    4.20
   0  -3  10   21.40    4.20
   0  -3 -10   25.80    4.20
   0  -3  10   26.00    4.30
   0  -3  10   18.10    3.40
   0   3  10   16.10    3.60
   0   3 -10   30.20    5.20
   0   3 -10   13.70    2.80
  -1  -3 -10   17.50    3.40
   1  -3  10    8.90    3.10
   1   3  10   13.30    3.80
   1   3  10   17.70    3.70
  -1   3 -10   13.50    2.70
   2  -3  10    5.00    3.00
   2  -3  10   -0.50    2.50
  -2  -3 -10    1.40    2.70
   2   3  10    0.70    2.90
   2   3  10    0.50    2.90
  -2   3 -10   -2.50    2.20
   6  -4 -10    4.30    2.40
   6   4 -10    6.70    2.20
   6   4 -10    4.10    2.00
   6   4 -10   14.60    4.50
   5  -4 -10   -1.00    1.80
   5   4 -10   -4.30    3.60
   5   4 -10    1.50    1.90
   5   4 -10   -0.40    2.10
   4  -4 -10    4.70    2.10
  -4  -4  10   -2.60    3.10
   4  -4 -10    0.10    1.90
   4  -4 -10   -2.60    1.80
   4   4 -10    1.50    2.00
   4   4 -10    3.80    2.50
  -3  -4  10    6.80    2.70
   3  -4 -10   -4.00    2.10
   3  -4 -10   -3.10    1.80
   3  -4 -10    3.40    1.80
   3   4 -10    3.60    2.50
   3   4 -10    0.40    1.90
   2  -4 -10   24.50    3.70
   2  -4 -10   19.00    3.40
  -2  -4  10   23.30    4.40
   2  -4 -10   24.30    3.90
   2   4 -10   22.40    3.90
   2   4 -10   29.10    3.80
  -2   4  10   26.90    4.90
  -2   4  10   18.10    3.10
   1  -4 -10    5.30    3.00
   1  -4 -10    3.40    1.90
   1  -4 -10    4.00    2.80
  -1  -4  10    3.10    2.40
  -1  -4  10   13.80    5.40
   1   4 -10    6.80    2.30
  -1   4  10   -1.20    2.10
   1   4 -10    9.70    2.50
   0  -4  10   28.30    4.80
   0  -4  10   36.30    4.70
   0  -4 -10   39.50    5.30
   0   4  10   25.20    4.70
   0   4 -10   31.10    4.10
   0   4 -10   31.90    5.70
  -1  -4 -10    0.10    2.40
   1  -4  10    2.50    2.40
   1  -4  10   -4.80    3.80
  -1   4 -10   -1.30    1.80
   1   4  10   -2.40    2.30
   2  -4  10    1.70    2.50
   2  -4  10    2.30    2.80
   2   4  10    8.30    2.60
   2   4  10    5.40    3.90
  -6  -5  10   11.40    4.40
   6   5 -10    2.80    1.90
   5  -5 -10    1.30    3.80
  -5  -5  10   10.50    4.40
   5  -5 -10    5.10    2.40
   5   5 -10    7.70    3.00
   4  -5 -10    6.90    2.60
   4  -5 -10    4.30    2.40
   4  -5 -10    5.10    2.10
   4   5 -10   14.10    3.30
   4   5 -10    6.30    2.10
   3  -5 -10   13.20    2.90
   3  -5 -10   25.00    4.20
   3  -5 -10   24.00    3.70
  -3  -5  10   29.20    5.60
   3   5 -10   15.30    3.20
  -3   5  10   24.10    4.70
   3   5 -10   19.10    3.90
  -3   5  10   17.00    4.10
   2  -5 -10    2.70    2.00
   2  -5 -10    0.80    1.80
   2   5 -10   -1.80    1.90
  -2   5  10    5.30    2.60
   2   5 -10   -0.90    2.60
  -2   5  10    2.40    1.80
   1  -5 -10   95.79    8.00
   1  -5 -10  109.79    7.80
  -1  -5  10   95.49    8.40
  -1  -5  10  115.69    8.10
  -1   5  10  107.69    8.30
   1   5 -10   96.89    8.00
   0  -5  10    4.00    2.40
   0  -5  10    6.20    2.50
   0   5 -10    5.90    3.20
   0   5 -10    7.00    2.10
   0   5  10    5.70    2.70
   1  -5  10   14.30    3.40
  -1   5 -10   11.90    2.70
   1   5  10   15.40    3.60
   5  -6 -10    5.30    2.50
  -5  -6  10   13.60    4.80
   5  -6 -10    8.80    3.00
   5   6 -10    3.70    2.30
   5   6 -10   12.20    3.10
   4  -6 -10   -3.40    2.00
  -4  -6  10    3.70    3.10
   4   6 -10    5.40    2.90
   4   6 -10   -1.10    1.90
   3  -6 -10    6.40    2.40
   3  -6 -10    6.80    2.50
   3  -6 -10    6.20    2.70
  -3   6  10    9.80    3.10
   3   6 -10    6.30    2.40
   3   6 -10    8.40    3.60
   2  -6 -10   42.10    5.30
   2  -6 -10   42.70    4.90
   2  -6 -10   57.59    5.70
  -2   6  10   50.59    5.10
   2   6 -10   37.20    5.00
  -2   6  10   60.09    6.50
   1  -6 -10    4.50    1.90
  -1  -6  10   13.80    3.20
   1  -6 -10    7.00    2.40
   1   6 -10   11.30    2.60
  -1   6  10    7.40    2.60
   0  -6  10    7.00    2.90
   0  -6  10    2.20    2.50
   0  -6  10    3.00    2.60
   0   6 -10    1.30    2.00
   0   6 -10   12.80    3.00
   0   6  10    5.60    2.70
   1  -6  10   24.20    4.10
  -5  -7  10    0.70    3.70
   5  -7 -10   -1.40    2.00
   5  -7 -10   -1.00    3.50
   5   7 -10    0.10    2.10
   4  -7 -10   -3.00    1.90
  -4   7  10   -5.00    3.10
   4   7 -10   -3.60    2.60
   3  -7 -10    5.60    2.70
   3  -7 -10    3.50    2.80
   3  -7 -10    8.70    2.60
   3   7 -10    9.80    2.70
  -3   7  10    9.90    3.00
   2  -7 -10   -3.10    1.70
   2  -7 -10    0.20    2.20
   2  -7 -10   -0.80    2.80
   2   7 -10    0.90    1.90
   1  -7 -10   16.70    3.10
   1  -7 -10   12.30    2.90
  -1   7  10   24.40    4.40
   1   7 -10   16.60    3.30
   0  -7  10    0.50    4.70
   0  -7  10    2.80    2.60
   0   7  10    4.00    2.70
   0   7 -10    3.80    2.50
   1  -7  10    3.50    2.70
   1  -7  10   -0.90    2.70
  -1   7 -10   -0.70    2.00
   1   7  10    4.70    4.50
   5  -8 -10    8.00    2.20
   5   8 -10    2.80    2.20
  -4  -8  10    8.50    3.50
   3  -8 -10   -7.70    3.90
   3  -8 -10    0.00    2.00
   3  -8 -10    5.20    2.50
  -3  -8  10    1.70    3.60
   3   8 -10   -1.60    2.20
  -3   8  10   -4.70    3.10
   2  -8 -10   -2.50    2.40
   2  -8 -10    5.90    1.80
  -2   8  10    2.90    2.20
  -2   8  10    9.90    5.20
   2   8 -10    2.10    1.80
   1  -8 -10    1.70    2.90
   1   8 -10    4.00    2.30
  -1   8  10    8.40    2.80
   0  -8  10    7.90    2.90
   0   8 -10    9.10    2.40
   0   8  10    4.00    2.80
   4  -9 -10    3.30    2.50
   4  -9 -10    1.50    2.20
   4   9 -10    2.60    2.40
  -3  -9  10   -1.20    3.70
   3  -9 -10   -0.70    2.20
   3  -9 -10    2.90    2.00
  -3   9  10    4.80    5.40
   3   9 -10   -3.50    2.30
  -3   9  10    6.00    3.50
   2  -9 -10    3.60    3.20
   2  -9 -10    2.10    4.20
   2  -9 -10   -0.10    1.90
   2   9 -10   -2.60    2.40
  -2   9  10    0.20    2.20
  -2   9  10   -2.80    3.90
   1  -9 -10   13.30    4.80
   1  -9 -10   20.20    3.50
  -1   9  10   14.40    2.90
   1   9 -10   17.10    3.20
   0  -9  10    0.40    2.80
   0   9 -10    3.80    2.60
   0   9  10    4.00    3.00
   0   9 -10    2.30    2.70
   3 -10 -10   13.90    3.10
   3 -10 -10   24.50    4.70
   3  10 -10   11.50    3.00
  -3  10  10   15.60    3.50
   3  10 -10   20.80    5.00
   2 -10 -10   14.40    3.30
   2 -10 -10   16.80    3.50
   2  10 -10   16.00    3.70
   2  10 -10   19.30    4.00
  -2  10  10   25.60    4.60
   1 -10 -10    3.90    2.50
   1  10 -10    2.10    2.50
   1  10 -10    4.00    3.90
   5   0 -11   20.20    3.90
   5   0 -11   27.60    4.60
   4   0 -11   -5.10    2.60
   4   0 -11   -3.40    3.10
   3   0 -11   14.20    2.80
   3   0 -11   20.80    3.80
  -2   0  11    1.50    2.20
   2   0 -11    0.60    1.90
  -1   0  11   31.90    4.90
  -1   0  11   35.20    4.80
   0   0  11    0.30    3.20
   0   0 -11    1.90    1.90
   0   0  11    3.70    2.60
   5  -1 -11    9.50    3.10
   5   1 -11    2.40    3.20
   4  -1 -11   35.30    4.60
   4  -1 -11   37.40    7.20
   4   1 -11   35.10    5.50
   4   1 -11   34.70    5.00
   3  -1 -11    5.70    3.00
   3  -1 -11    1.10    3.20
   3  -1 -11   -1.40    1.80
   3   1 -11   -1.90    1.80
   3   1 -11   -0.70    2.60
   2  -1 -11   -0.70    1.90
  -2  -1  11   -0.50    2.20
   2  -1 -11   -0.10    4.20
   2   1 -11   -2.40    1.80
  -2   1  11    2.20    2.30
  -1  -1  11    0.90    2.40
  -1  -1  11    6.30    2.30
   1  -1 -11   -0.60    1.70
  -1   1  11   -2.00    2.30
   1   1 -11    1.20    1.90
  -1   1  11    1.20    2.40
   0  -1  11    9.50    3.40
   0  -1  11   13.20    3.60
   0   1  11    9.00    3.00
   0   1  11    2.30    3.80
   0   1 -11    3.80    2.40
   4  -2 -11   -0.90    2.20
   4  -2 -11   -2.50    2.50
   4  -2 -11   -3.00    2.10
   4   2 -11    2.40    2.00
   4   2 -11   -0.40    2.70
   4   2 -11   -5.30    2.70
   3  -2 -11    1.40    4.30
   3  -2 -11    0.90    2.10
   3   2 -11    7.70    2.60
  -3   2  11    3.50    2.50
  -2  -2  11   -3.90    2.30
   2  -2 -11   -1.80    1.70
  -2   2  11    3.60    2.30
  -2   2  11    1.10    2.30
   1  -2 -11   25.70    4.30
  -1  -2  11   34.20    5.00
  -1   2  11   30.00    5.30
   1   2 -11   27.50    4.20
  -1   2  11   26.70    4.90
   0  -2  11   24.20    4.90
   0  -2  11   14.60    3.60
   0   2 -11   17.20    3.10
   0   2  11   12.40    5.00
   0   2  11   12.40    3.50
   0   2 -11   23.10    6.00
   4  -3 -11    1.90    2.20
   4  -3 -11    2.10    2.30
   4   3 -11   -1.70    3.80
   4   3 -11    3.30    3.50
   3   3 -11    1.10    2.20
   2  -3 -11    2.50    3.10
   2  -3 -11    1.30    1.90
  -2   3  11   -2.80    2.20
  -2   3  11    8.60    3.00
   2   3 -11    3.10    2.00
  -1  -3  11    8.50    3.60
  -1  -3  11    4.20    3.80
   0  -3  11    0.50    2.70
   0  -3  11    6.40    2.70
   0   3  11   -1.90    3.80
   0   3  11    9.00    2.70
   4  -4 -11    2.50    2.20
   4  -4 -11    1.00    2.00
   4  -4 -11    3.00    2.90
   4   4 -11   -1.90    2.10
   3  -4 -11   54.99    6.00
   3  -4 -11   59.89    5.80
  -3   4  11   55.99    6.00
   2  -4 -11    4.90    3.20
   2  -4 -11    1.70    2.20
   2  -4 -11    4.80    2.20
   2   4 -11   -0.40    2.10
  -2   4  11    8.60    4.10
  -2   4  11    3.50    2.20
  -1  -4  11    1.90    3.10
  -1  -4  11    5.40    3.40
   1  -4 -11    1.90    2.20
   1   4 -11    2.80    2.20
  -1   4  11   -3.10    2.60
   4  -5 -11   25.30    4.70
   4  -5 -11   15.70    3.60
   4  -5 -11   18.50    4.10
  -4   5  11   17.70    3.40
   4   5 -11   27.90    4.50
   3  -5 -11   -1.90    3.60
   3  -5 -11    6.70    2.20
   3  -5 -11    1.30    2.20
   3   5 -11    5.70    3.40
  -3   5  11    3.80    2.50
   2  -5 -11   -1.50    2.90
   2  -5 -11    3.50    2.10
   2  -5 -11   -2.60    2.00
  -2   5  11   -1.90    2.20
   2   5 -11   -0.10    2.00
  -1  -5  11   -3.70    2.40
   1   5 -11   -1.30    1.90
  -1   5  11   -3.20    2.50
   3  -6 -11   11.30    3.10
   3  -6 -11   13.60    3.10
   3   6 -11   11.00    3.20
   2   6 -11   11.50    2.40
   0   0   0    0.00    0.00





_computing_structure_solution     'SHELXT 2018/2 (Sheldrick, 2018)'
_computing_structure_solution     'SHELXT 2018/2 (Sheldrick, 2018)'
_computing_structure_solution     'SHELXT 2018/2 (Sheldrick, 2018)'
_computing_structure_solution     'SHELXT 2018/2 (Sheldrick, 2018)'
_computing_structure_solution     'SHELXT 2018/2 (Sheldrick, 2018)'
;
_shelx_hkl_checksum              49419
_olex2_submission_original_sample_id
'Pyrene-Tetrachloroterephthalonitrile Cocrystal'
_olex2_submission_special_instructions 'No special instructions were received'
loop_
_space_group_symop_operation_xyz
'x, y, z'
'-x+1/2, y+1/2, -z+1/2'
'-x, -y, -z'
'x-1/2, -y-1/2, z-1/2'
loop_
_atom_site_label
_atom_site_type_symbol
_atom_site_fract_x
_atom_site_fract_y
_atom_site_fract_z
_atom_site_U_iso_or_equiv
_atom_site_adp_type
_atom_site_occupancy
_atom_site_site_symmetry_order
_atom_site_calc_flag
_atom_site_refinement_flags_posn
_atom_site_refinement_flags_adp
_atom_site_refinement_flags_occupancy
_atom_site_disorder_assembly
_atom_site_disorder_group
Cl01 Cl 0.63287(11) 0.58529(5) 0.82259(7) 0.0600(2) Uani 1 1 d . . . . .
Cl02 Cl 0.55585(11) 0.39262(5) 0.79768(7) 0.0592(2) Uani 1 1 d . . . . .
C003 C 0.5391(3) 0.58489(15) 0.5109(3) 0.0403(5) Uani 1 1 d . . . . .
C004 C 0.0250(3) 0.54273(15) 0.5105(3) 0.0406(5) Uani 1 1 d . . . . .
C005 C 0.5232(3) 0.45295(15) 0.6352(3) 0.0404(5) Uani 1 1 d . . . . .
C006 C 0.5609(3) 0.53754(15) 0.6457(3) 0.0402(5) Uani 1 1 d . . . . .
N007 N 0.6129(4) 0.74168(17) 0.5283(3) 0.0711(7) Uani 1 1 d . . . . .
C008 C 0.5804(4) 0.67239(17) 0.5210(3) 0.0496(6) Uani 1 1 d . . . . .
C009 C 0.0862(4) 0.57658(17) 0.6619(3) 0.0491(6) Uani 1 1 d . . . . .
C00A C 0.0146(3) 0.59465(17) 0.3793(3) 0.0483(6) Uani 1 1 d . . . . .
C00B C -0.0470(4) 0.5579(2) 0.2283(3) 0.0600(7) Uani 1 1 d . . . . .
H00B H -0.054048 0.591557 0.139510 0.072 Uiso 1 1 calc R U . . .
C00C C -0.0947(4) 0.4774(2) 0.2087(3) 0.0606(8) Uani 1 1 d . . . . .
H00C H -0.135157 0.455567 0.106467 0.073 Uiso 1 1 calc R U . . .
C00D C 0.1354(4) 0.6610(2) 0.6780(4) 0.0652(8) Uani 1 1 d . . . . .
H00D H 0.175464 0.684876 0.778668 0.078 Uiso 1 1 calc R U . . .
C00E C 0.0664(4) 0.67814(18) 0.4026(4) 0.0645(8) Uani 1 1 d . . . . .
H00E H 0.060189 0.713339 0.315891 0.077 Uiso 1 1 calc R U . . .
C00F C 0.1264(5) 0.7097(2) 0.5501(4) 0.0720(9) Uani 1 1 d . . . . .
H00F H 0.162555 0.766655 0.563970 0.086 Uiso 1 1 calc R U . . .
loop_
_atom_site_aniso_label
_atom_site_aniso_U_11
_atom_site_aniso_U_22
_atom_site_aniso_U_33
_atom_site_aniso_U_23
_atom_site_aniso_U_13
_atom_site_aniso_U_12
Cl01 0.0659(5) 0.0673(5) 0.0409(3) -0.0119(3) 0.0033(3) 0.0048(4)
Cl02 0.0661(4) 0.0655(4) 0.0442(3) 0.0125(3) 0.0112(3) 0.0018(3)
C003 0.0318(11) 0.0463(14) 0.0423(12) -0.0019(10) 0.0088(9) 0.0043(10)
C004 0.0267(11) 0.0532(14) 0.0424(12) -0.0030(11) 0.0100(9) 0.0048(10)
C005 0.0321(12) 0.0499(14) 0.0383(12) 0.0033(10) 0.0074(10) 0.0066(10)
C006 0.0353(12) 0.0486(14) 0.0344(11) -0.0051(10) 0.0048(9) 0.0042(10)
N007 0.090(2) 0.0586(16) 0.0650(16) -0.0054(12) 0.0202(14) -0.0151(14)
C008 0.0500(15) 0.0516(17) 0.0471(14) -0.0016(12) 0.0121(12) -0.0026(12)
C009 0.0354(13) 0.0622(17) 0.0495(14) -0.0120(12) 0.0104(11) 0.0024(12)
C00A 0.0364(13) 0.0572(16) 0.0537(15) 0.0061(12) 0.0158(11) 0.0086(12)
C00B 0.0512(16) 0.085(2) 0.0435(15) 0.0119(14) 0.0126(12) 0.0104(15)
C00C 0.0463(16) 0.093(2) 0.0401(14) -0.0104(14) 0.0076(12) 0.0050(15)
C00D 0.0508(17) 0.075(2) 0.072(2) -0.0293(17) 0.0192(15) -0.0021(15)
C00E 0.0599(18) 0.0556(18) 0.084(2) 0.0140(16) 0.0296(16) 0.0085(15)
C00F 0.067(2) 0.0534(18) 0.104(3) -0.0118(18) 0.0365(19) -0.0023(15)
loop_
_atom_type_symbol
_atom_type_description
_atom_type_scat_dispersion_real
_atom_type_scat_dispersion_imag
_atom_type_scat_source
C C 0.0033 0.0016 'International Tables Vol C Tables 4.2.6.8 and 6.1.1.4'
H H 0.0000 0.0000 'International Tables Vol C Tables 4.2.6.8 and 6.1.1.4'
Cl Cl 0.1484 0.1585 'International Tables Vol C Tables 4.2.6.8 and 6.1.1.4'
N N 0.0061 0.0033 'International Tables Vol C Tables 4.2.6.8 and 6.1.1.4'
loop_
_geom_angle_atom_site_label_1
_geom_angle_atom_site_label_2
_geom_angle_atom_site_label_3
_geom_angle
_geom_angle_site_symmetry_1
_geom_angle_site_symmetry_3
_geom_angle_publ_flag
C005 C003 C008 119.6(2) 3_666 . ?
C006 C003 C005 120.1(2) . 3_666 ?
C006 C003 C008 120.3(2) . . ?
C004 C004 C00A 120.0(3) 3_566 . ?
C009 C004 C004 120.2(3) . 3_566 ?
C009 C004 C00A 119.7(2) . . ?
C003 C005 Cl02 118.86(19) 3_666 . ?
C006 C005 Cl02 121.22(18) . . ?
C006 C005 C003 119.9(2) . 3_666 ?
C003 C006 Cl01 119.31(18) . . ?
C005 C006 Cl01 120.68(18) . . ?
C005 C006 C003 120.0(2) . . ?
N007 C008 C003 179.7(3) . . ?
C004 C009 C00C 118.3(2) . 3_566 ?
C00D C009 C004 118.5(3) . . ?
C00D C009 C00C 123.2(3) . 3_566 ?
C004 C00A C00B 118.0(2) . . ?
C00E C00A C004 119.1(3) . . ?
C00E C00A C00B 122.9(3) . . ?
C00A C00B H00B 119.1 . . ?
C00C C00B C00A 121.9(3) . . ?
C00C C00B H00B 119.1 . . ?
C009 C00C H00C 119.2 3_566 . ?
C00B C00C C009 121.6(3) . 3_566 ?
C00B C00C H00C 119.2 . . ?
C009 C00D H00D 119.6 . . ?
C00F C00D C009 120.8(3) . . ?
C00F C00D H00D 119.6 . . ?
C00A C00E H00E 119.8 . . ?
C00F C00E C00A 120.3(3) . . ?
C00F C00E H00E 119.8 . . ?
C00D C00F C00E 121.5(3) . . ?
C00D C00F H00F 119.3 . . ?
C00E C00F H00F 119.3 . . ?
loop_
_geom_bond_atom_site_label_1
_geom_bond_atom_site_label_2
_geom_bond_distance
_geom_bond_site_symmetry_2
_geom_bond_publ_flag
Cl01 C006 1.710(2) . ?
Cl02 C005 1.709(2) . ?
C003 C005 1.402(3) 3_666 ?
C003 C006 1.397(3) . ?
C003 C008 1.435(4) . ?
C004 C004 1.420(5) 3_566 ?
C004 C009 1.416(3) . ?
C004 C00A 1.424(3) . ?
C005 C006 1.385(3) . ?
N007 C008 1.136(3) . ?
C009 C00C 1.433(4) 3_566 ?
C009 C00D 1.401(4) . ?
C00A C00B 1.432(4) . ?
C00A C00E 1.394(4) . ?
C00B H00B 0.9500 . ?
C00B C00C 1.337(4) . ?
C00C H00C 0.9500 . ?
C00D H00D 0.9500 . ?
C00D C00F 1.371(4) . ?
C00E H00E 0.9500 . ?
C00E C00F 1.371(4) . ?
C00F H00F 0.9500 . ?
loop_
_geom_torsion_atom_site_label_1
_geom_torsion_atom_site_label_2
_geom_torsion_atom_site_label_3
_geom_torsion_atom_site_label_4
_geom_torsion
_geom_torsion_site_symmetry_1
_geom_torsion_site_symmetry_2
_geom_torsion_site_symmetry_3
_geom_torsion_site_symmetry_4
_geom_torsion_publ_flag
Cl02 C005 C006 Cl01 -2.5(3) . . . . ?
Cl02 C005 C006 C003 177.90(18) . . . . ?
C003 C005 C006 Cl01 178.82(17) 3_666 . . . ?
C003 C005 C006 C003 -0.8(4) 3_666 . . . ?
C004 C004 C009 C00C -0.5(4) 3_566 . . 3_566 ?
C004 C004 C009 C00D 179.6(3) 3_566 . . . ?
C004 C004 C00A C00B 0.0(4) 3_566 . . . ?
C004 C004 C00A C00E -179.2(3) 3_566 . . . ?
C004 C009 C00D C00F -0.7(4) . . . . ?
C004 C00A C00B C00C 0.3(4) . . . . ?
C004 C00A C00E C00F -0.1(4) . . . . ?
C005 C003 C006 Cl01 -178.83(17) 3_666 . . . ?
C005 C003 C006 C005 0.8(4) 3_666 . . . ?
C008 C003 C006 Cl01 1.3(3) . . . . ?
C008 C003 C006 C005 -179.2(2) . . . . ?
C009 C004 C00A C00B 179.6(2) . . . . ?
C009 C004 C00A C00E 0.4(4) . . . . ?
C009 C00D C00F C00E 1.0(5) . . . . ?
C00A C004 C009 C00C 179.9(2) . . . 3_566 ?
C00A C004 C009 C00D 0.0(3) . . . . ?
C00A C00B C00C C009 -0.2(4) . . . 3_566 ?
C00A C00E C00F C00D -0.7(5) . . . . ?
C00B C00A C00E C00F -179.2(3) . . . . ?
C00C C009 C00D C00F 179.4(3) 3_566 . . . ?
C00E C00A C00B C00C 179.5(3) . . . . ?
