#------------------------------------------------------------------------------
#$Date: 2021-12-21 01:35:35 +0200 (Tue, 21 Dec 2021) $
#$Revision: 271547 $
#$URL: file:///home/coder/svn-repositories/cod/cif/7/24/40/7244088.cif $
#------------------------------------------------------------------------------
#
# This file is available in the Crystallography Open Database (COD),
# http://www.crystallography.net/
#
# All data on this site have been placed in the public domain by the
# contributors.
#
data_7244088
loop_
_publ_author_name
'Panikkattu, Vinu V.'
'Sinha, Abhijeet Shekhar'
'Aaker\"oy, Christer'
_publ_section_title
;
 A family of powerful halogen-bond donors: A structural and theoretical
 analysis of triply activated 3-iodo-1-phenylprop-2-yn-1-ones
;
_journal_name_full               CrystEngComm
_journal_paper_doi               10.1039/D1CE01583D
_journal_year                    2022
_chemical_formula_moiety         'C9 H5 I O'
_chemical_formula_sum            'C9 H5 I O'
_chemical_formula_weight         256.03
_chemical_name_systematic        3-iodo-1-phenylprop-2-yn-1-one
_space_group_crystal_system      monoclinic
_space_group_IT_number           14
_space_group_name_Hall           '-P 2ybc'
_space_group_name_H-M_alt        'P 1 21/c 1'
_atom_sites_solution_hydrogens   geom
_atom_sites_solution_primary     dual
_audit_creation_date             2020-05-01
_audit_creation_method
;
APEX2 v2014.11-0
Olex2 1.2
(compiled 2018.05.29 svn.r3508 for OlexSys, GUI svn.r5506)
;
_audit_update_record
;
2021-09-15 deposited with the CCDC.	2021-12-20 downloaded from the CCDC.
;
_cell_angle_alpha                90
_cell_angle_beta                 91.0130(10)
_cell_angle_gamma                90
_cell_formula_units_Z            4
_cell_length_a                   10.0763(2)
_cell_length_b                   11.2448(2)
_cell_length_c                   7.2619(2)
_cell_measurement_reflns_used    3738
_cell_measurement_temperature    200.(2)
_cell_measurement_theta_max      69.84
_cell_measurement_theta_min      4.39
_cell_volume                     822.69(3)
_computing_cell_refinement       'SAINT v8.34A (Bruker, 2013)'
_computing_data_collection       'Bruker MicroStar'
_computing_data_reduction        'SAINT v8.34A (Bruker, 2013)'
_computing_molecular_graphics    'Olex2 (Dolomanov et al., 2009)'
_computing_publication_material  'Olex2 (Dolomanov et al., 2009)'
_computing_structure_refinement  'SHELXL-2014/7 (Sheldrick, 2014)'
_computing_structure_solution    'XT (Sheldrick, 2015)'
_diffrn_ambient_temperature      200.(2)
_diffrn_measured_fraction_theta_full 'ACTA 50'
_diffrn_measured_fraction_theta_max 0.963
_diffrn_measurement_device_type  'Bruker MicroStar'
_diffrn_measurement_method       '\f and \w scans'
_diffrn_radiation_type           CuK\a
_diffrn_radiation_wavelength     1.54178
_diffrn_reflns_av_R_equivalents  0.0270
_diffrn_reflns_av_unetI/netI     0.0241
_diffrn_reflns_limit_h_max       12
_diffrn_reflns_limit_h_min       -11
_diffrn_reflns_limit_k_max       13
_diffrn_reflns_limit_k_min       -13
_diffrn_reflns_limit_l_max       8
_diffrn_reflns_limit_l_min       -8
_diffrn_reflns_number            5730
_diffrn_reflns_theta_full        'ACTA 50'
_diffrn_reflns_theta_max         69.83
_diffrn_reflns_theta_min         4.39
_exptl_absorpt_coefficient_mu    30.056
_exptl_absorpt_correction_T_max  0.38
_exptl_absorpt_correction_T_min  0.25
_exptl_absorpt_correction_type   multi-scan
_exptl_absorpt_process_details
;
SADABS-2014/5 (Bruker,2014/5) was used for absorption correction.
wR2(int) was 0.0747 before and 0.0379 after correction.
The Ratio of minimum to maximum transmission is 0.7535.
The \l/2 correction factor is 0.00150.
;
_exptl_crystal_colour            colourless
_exptl_crystal_density_diffrn    2.067
_exptl_crystal_density_method    'not measured'
_exptl_crystal_description       Chunk
_exptl_crystal_F_000             480
_exptl_crystal_recrystallization_method
'Re-crystallisation from solvent: Dioxane'
_exptl_crystal_size_max          0.065
_exptl_crystal_size_mid          0.055
_exptl_crystal_size_min          0.040
_refine_diff_density_max         1.041
_refine_diff_density_min         -1.194
_refine_ls_extinction_method     none
_refine_ls_goodness_of_fit_ref   1.061
_refine_ls_hydrogen_treatment    constr
_refine_ls_matrix_type           full
_refine_ls_number_parameters     100
_refine_ls_number_reflns         1501
_refine_ls_number_restraints     0
_refine_ls_restrained_S_all      1.061
_refine_ls_R_factor_all          0.0279
_refine_ls_R_factor_gt           0.0265
_refine_ls_shift/su_max          0.002
_refine_ls_shift/su_mean         0.000
_refine_ls_structure_factor_coef Fsqd
_refine_ls_weighting_details
'w=1/[\s^2^(Fo^2^)+(0.0473P)^2^+0.6377P] where P=(Fo^2^+2Fc^2^)/3'
_refine_ls_weighting_scheme      calc
_refine_ls_wR_factor_gt          0.0687
_refine_ls_wR_factor_ref         0.0697
_reflns_number_gt                1416
_reflns_number_total             1501
_reflns_threshold_expression     'I > 2\s(I)'
_cod_data_source_file            d1ce01583d2.cif
_cod_data_source_block           vp-k1-us-3-3
_cod_database_code               7244088
_shelx_res_file
;
VP-K1-US-3-3.res created by SHELXL-2014/7

TITL vp-k1-us-3-3_a.res in P2(1)/c
CELL 1.54178 10.0763 11.2448 7.2619 90 91.013 90
ZERR 4 0.0002 0.0002 0.0002 0 0.001 0
LATT 1
SYMM -X,0.5+Y,0.5-Z
SFAC C H I O
UNIT 36 20 4 4

L.S. 20
PLAN  20
SIZE 0.04 0.055 0.065
TEMP -73.16
BOND $H
BIND I11 O8_$1
EQIV $1_[2-x, 1/2+y, 1/2-z]
list 4
fmap 2
acta
REM <olex2.extras>
REM <HklSrc "%.\\VP-K1-US-3-3.hkl">
REM </olex2.extras>

WGHT    0.047300    0.637700
FVAR       0.49604
C1    1    0.566014    0.375766    0.345269    11.00000    0.01755    0.01765 =
         0.01589   -0.00409   -0.00265    0.00279
C2    1    0.515098    0.474538    0.249820    11.00000    0.02216    0.01733 =
         0.02051    0.00232   -0.00044   -0.00040
AFIX  43
H2    2    0.573607    0.533183    0.203523    11.00000   -1.20000
AFIX   0
C3    1    0.379831    0.486415    0.223246    11.00000    0.02530    0.02486 =
         0.02686    0.00293   -0.00476    0.00793
AFIX  43
H3    2    0.345334    0.552913    0.157434    11.00000   -1.20000
AFIX   0
C4    1    0.293901    0.401450    0.292411    11.00000    0.01524    0.03222 =
         0.03048   -0.00235   -0.00632    0.00507
AFIX  43
H4    2    0.200869    0.409710    0.273035    11.00000   -1.20000
AFIX   0
C5    1    0.343932    0.304008    0.390277    11.00000    0.02093    0.02545 =
         0.02825    0.00242   -0.00262   -0.00391
AFIX  43
H5    2    0.285033    0.246610    0.439202    11.00000   -1.20000
AFIX   0
C6    1    0.479128    0.291281    0.415757    11.00000    0.02337    0.01879 =
         0.02099    0.00180   -0.00549    0.00135
AFIX  43
H6    2    0.513277    0.224666    0.481626    11.00000   -1.20000
AFIX   0
C7    1    0.710292    0.357522    0.371285    11.00000    0.01777    0.02173 =
         0.02199   -0.00607   -0.00319    0.00071
O8    4    0.755785    0.267661    0.443552    11.00000    0.02162    0.02898 =
         0.04220    0.00400   -0.00747    0.00474
C9    1    0.799385    0.449754    0.307200    11.00000    0.01916    0.02762 =
         0.02953   -0.00212    0.00239    0.00112
C10   1    0.877006    0.524913    0.260287    11.00000    0.01811    0.02814 =
         0.03151   -0.00758   -0.00030    0.00016
I11   3    1.011410    0.642682    0.178323    11.00000    0.01484    0.02416 =
         0.03498   -0.00273   -0.00241   -0.00279
HKLF 4

REM  vp-k1-us-3-3_a.res in P2(1)/c
REM R1 =  0.0265 for    1416 Fo > 4sig(Fo)  and  0.0279 for all    1501 data
REM    100 parameters refined using      0 restraints

END

WGHT      0.0473      0.6377

REM Highest difference peak  1.041,  deepest hole -1.194,  1-sigma level  0.138
Q1    1   0.9191  0.6446  0.1613  11.00000  0.05    1.04
Q2    1   1.1001  0.6396  0.1908  11.00000  0.05    0.94
Q3    1   1.0178  0.7195  0.1811  11.00000  0.05    0.47
Q4    1   0.7791  0.1585  0.2822  11.00000  0.05    0.44
Q5    1   0.9414  0.7337  0.1712  11.00000  0.05    0.40
Q6    1   0.6397  0.3695  0.3472  11.00000  0.05    0.39
Q7    1   0.4161  0.3007  0.3967  11.00000  0.05    0.38
Q8    1   0.8938  0.4557  0.2924  11.00000  0.05    0.36
Q9    1   0.8748  0.4754  0.2542  11.00000  0.05    0.35
Q10   1   0.1791  0.2005  0.3273  11.00000  0.05    0.35
Q11   1   0.8324  0.2596  0.4658  11.00000  0.05    0.35
Q12   1   0.2156  0.6213  0.1394  11.00000  0.05    0.33
Q13   1   0.0255  0.3676  0.1370  11.00000  0.05    0.31
Q14   1   0.4526  0.4752  0.2616  11.00000  0.05    0.31
Q15   1   0.2022  0.5596  0.1882  11.00000  0.05    0.30
Q16   1   0.8362  0.2538  0.6355  11.00000  0.05    0.30
Q17   1   0.8124  0.5342  0.2989  11.00000  0.05    0.30
Q18   1   0.9393  0.3286  0.2356  11.00000  0.05    0.29
Q19   1   0.6867  0.2618  0.5076  11.00000  0.05    0.28
Q20   1   0.0642  0.4692  0.3076  11.00000  0.05    0.28
;
_shelx_res_checksum              25895
_shelx_hkl_file
;
   0   0  -2 7273.77  208.38
   0   0  -2 7574.04  201.88
   0   0   2 7372.86  201.08
   0   0   2 7471.55  201.28
   0   0   3   -1.90    2.20
   0   0  -3   -0.20    5.20
   0   0  -3   -1.40    2.70
   0   0   3    1.80    2.40
   0   0  -4  169.28   11.80
   0   0   4  158.18   10.00
   0   0   4  159.38   10.40
   0   0  -4  162.48   17.60
   0   0   5    3.30    4.00
   0   0  -5   11.20    9.10
   0   0  -5   -0.50    3.30
   0   0   5    7.40    3.50
   0   0  -6  857.41   28.70
   0   0  -7   -0.40    2.80
   0   0  -8  331.37   13.60
   0   1   0    1.60    0.70
   0   1   1   75.19    4.00
   0  -1  -1   73.79    8.70
   0   1  -2 8832.82  250.17
   0   1   2 8965.60  244.18
   0   1  -2 9999.00  243.98
   0   1   2 9040.79  244.08
   0  -1  -2 9086.49  244.98
   0  -1  -2 8135.29  251.57
   0   1  -3 1070.69   33.70
   0   1   3 1066.19   34.00
   0   1   3 1039.10   33.70
   0   1  -3 1029.90   41.30
   0  -1   3 1087.89   32.80
   0  -1  -3 1020.40   43.60
   0  -1   3 1062.19   32.90
   0  -1  -3 1081.19   35.20
   0   1   4 1825.22   56.49
   0   1  -4 1747.93   66.49
   0   1  -4 1807.42   56.39
   0   1   4 1751.12   55.89
   0  -1   4 1803.22   55.19
   0  -1  -4 1779.02   57.79
   0  -1  -4 1870.71   70.59
   0  -1   4 1788.92   54.89
   0   1   5  568.34   25.50
   0   1  -5  558.44   19.80
   0  -1  -5  547.25   19.70
   0  -1  -5  634.44   38.90
   0   1  -6  170.48    9.70
   0  -1  -6  167.28    9.70
   0   1  -7    1.60    2.90
   0  -1  -7   -1.10    2.80
   0   1  -8   45.90    4.80
   0  -1  -8   41.90    4.80
   0   2   0  156.88    9.90
   0   2   0  183.88    6.40
   0   2   1 2117.09   58.59
   0   2  -1 2182.28   63.89
   0   2   1 2045.30   64.09
   0   2   1 2159.48   58.49
   0  -2  -1 1937.21   64.49
   0   2  -2 1429.56   47.90
   0   2  -2 1545.15   40.90
   0   2   2 1386.16   42.20
   0   2   2 1396.76   42.10
   0  -2  -2 1362.36   51.09
   0  -2  -2 1385.46   43.20
   0   2   3  519.95   19.90
   0   2  -3  570.14   19.10
   0   2  -3  509.65   26.30
   0   2   3  520.75   20.20
   0  -2  -3  481.45   29.20
   0  -2   3  532.05   18.00
   0  -2  -3  502.95   21.30
   0  -2   3  525.65   18.10
   0   2   4  511.45   22.20
   0   2   4  548.55   23.00
   0   2  -4  551.34   30.30
   0  -2  -4  570.54   35.00
   0   2   5  687.33   30.10
   0   2  -5  691.23   23.40
   0  -2  -5  696.23   23.70
   0  -2  -5  773.22   44.90
   0   2  -6   77.49    6.90
   0   2   6   44.30    5.40
   0  -2  -6   58.89    3.90
   0  -2  -6   55.59    6.00
   0   2  -7  960.80   30.90
   0  -2  -7  895.51   30.60
   0   2  -8   40.20    4.50
   0  -2  -8   42.70    4.90
   0   3   0   19.00    2.80
   0   3   0   -2.20    4.80
   0   3   1  149.49   12.10
   0   3  -1  145.29   12.50
   0   3   1  157.48    7.50
   0   3   1  152.18    7.60
   0  -3  -1  134.29   13.00
   0   3  -2  763.82   31.10
   0   3   2  725.43   33.00
   0   3   2  750.72   25.30
   0   3   2  747.43   25.00
   0  -3  -2  787.42   35.50
   0   3  -3 2680.23   85.59
   0   3   3 2637.24   77.19
   0   3   3 2637.44   76.89
   0   3   3 2474.65   88.09
   0  -3  -3 2568.84   91.29
   0   3  -4 1964.50   77.19
   0   3   4 1814.32   74.99
   0   3   4 1967.00   62.59
   0   3   4 2011.10   63.19
   0  -3  -4 2087.79   80.69
   0   3   5 1452.75   68.29
   0   3  -5 1581.94   46.50
   0   3   5 1550.34   54.89
   0  -3  -5 1514.95   46.60
   0  -3  -5 1720.93   74.39
   0   3  -6   62.99    6.20
   0   3   6   45.30    5.00
   0  -3  -6   47.50    5.10
   0  -3  -6   52.99    4.00
   0  -3  -6   48.80    5.60
   0   3  -7    1.80    2.90
   0  -3  -7    2.90    3.30
   0  -3  -7   -0.80    1.60
   0   3  -8   42.00    6.70
   0  -3  -8   23.50    5.90
   0   4   0 2767.82   86.09
   0   4   0 2626.24   74.99
   0   4  -1 1046.20   41.00
   0   4   1 1093.19   33.10
   0   4   1  983.60   40.80
   0   4   1 1104.89   32.90
   0   4   2 1706.33   52.49
   0   4  -2 1756.52   60.49
   0   4   2 1771.52   52.39
   0   4   2 1667.13   62.09
   0  -4  -2 1717.33   65.39
   0   4   3  593.84   23.90
   0   4   3  584.34   33.60
   0   4  -3  626.74   31.10
   0   4   3  588.64   24.20
   0  -4  -3  641.34   37.20
   0   4   4  598.64   37.60
   0   4   4  584.94   26.20
   0   4   4  631.84   27.00
   0  -4  -4  645.54   41.50
   0   4   5  170.28   15.40
   0   4   5  171.88   22.00
   0  -4  -5  196.38   26.60
   0   4   6 1513.75   44.70
   0  -4  -6 1460.55   43.80
   0  -4  -6 1463.95   42.00
   0   4   7  246.38   11.30
   0  -4  -7  256.37    9.10
   0  -4  -7  253.27   10.80
   0   5   0   -1.40    5.60
   0   5   1  207.38   10.80
   0   5  -1  214.58   18.30
   0   5   1  184.28   16.70
   0   5   1  215.78   11.20
   0   5  -2 2670.43   88.69
   0   5   2 2614.94   91.29
   0   5   2 2608.14   77.89
   0   5   2 2653.23   78.39
   0   5  -3   30.70    9.70
   0   5   3   24.20    5.70
   0   5   3   27.50    9.90
   0   5   3   29.20    6.10
   0   5   4 2828.52   88.99
   0   5   4 2654.73  104.59
   0  -5  -4 2996.70  112.29
   0   5   5   16.50    9.10
   0  -5  -5    7.60    3.40
   0   5   6   56.69    5.90
   0  -5  -6   65.89    4.30
   0  -5  -6   64.49    5.90
   0   5   7    7.60    3.00
   0  -5  -7    7.90    1.90
   0  -5  -7    6.20    3.00
   0   6   0 1769.02   68.79
   0   6  -1 2397.36   84.49
   0   6   1 2350.06   85.29
   0   6  -2 1010.40   45.90
   0   6   2  987.00   48.20
   0   6   3   27.50    6.70
   0   6   3   33.90    7.50
   0   6   3   45.10   13.50
   0   6  -4   53.99    5.70
   0   6   4   80.69   18.40
   0   6   4   45.50    9.20
   0  -6   4   57.29    5.60
   0   6  -5  114.59    8.00
   0  -6  -5  114.39    7.30
   0  -6  -5  114.49    5.80
   0   6   6  210.38   10.30
   0  -6  -6  202.28    8.00
   0  -6  -6  212.78   10.10
   0   6   7  298.07   12.00
   0  -6  -7  287.87   11.50
   0  -6  -7  317.57   10.20
   0   7   0   -6.10    7.40
   0   7   1  982.70   50.79
   0   7  -1 1060.49   50.39
   0   7   2    8.50    9.00
   0   7   3 2165.68   87.89
   0  -7   3 1962.50   59.49
   0   7  -4    3.10    3.20
   0  -7  -4    8.90    2.90
   0  -7  -4    3.00    1.80
   0  -7   4    5.90    3.40
   0  -7  -4   10.60    3.70
   0   7  -5  705.43   25.50
   0  -7  -5  796.72   25.00
   0  -7  -5  764.62   23.00
   0   7   6   24.30    4.00
   0  -7  -6   24.80    2.80
   0  -7  -6   21.70    4.10
   0   7   7   35.20    3.60
   0  -7  -7   27.50    3.20
   0  -7  -7   37.40    2.80
   0   8   0 1695.33   73.59
   0   8   1 1427.16   68.09
   0   8  -1 1541.45   67.59
   0   8   2  549.15   40.80
   0  -8   2  541.45   19.50
   0   8  -3    9.40    3.80
   0  -8   3    4.60    2.80
   0  -8  -3    9.40    2.90
   0  -8   3   12.90    4.20
   0  -8  -3    5.40    3.00
   0   8  -4   14.70    4.50
   0  -8  -4    2.90    2.80
   0  -8  -4    6.50    3.80
   0  -8  -4    7.80    2.20
   0   8  -5  195.78   10.70
   0  -8  -5  205.98    9.90
   0  -8  -5  188.48    7.90
   0   8   6  217.68   10.00
   0  -8  -6  240.98   10.00
   0  -8  -6  224.88    8.20
   0  -8  -7  271.77    8.50
   0   9   0   -0.10    9.40
   0  -9   0    1.80    1.70
   0  -9   0   -0.60    1.70
   0   9  -1  106.39    7.10
   0  -9  -1  108.29    6.50
   0  -9   1   95.49    7.00
   0  -9   1   93.09    7.10
   0  -9  -1   98.69    5.70
   0   9  -2 1218.48   36.30
   0  -9  -2 1184.18   35.30
   0  -9   2 1126.49   35.80
   0  -9  -2 1097.89   37.50
   0  -9  -2 1119.89   32.80
   0  -9   2 1072.09   35.70
   0  -9   2 1108.19   37.60
   0  -9  -2 1169.58   34.40
   0   9  -3   76.29    7.40
   0  -9  -3   70.09    4.50
   0  -9   3   84.79    7.50
   0  -9  -3   71.69    6.50
   0  -9  -3   70.09    6.00
   0   9  -4 1121.59   35.60
   0  -9  -4 1069.99   34.60
   0  -9  -4 1117.89   34.20
   0  -9  -4 1108.99   32.40
   0   9   5    5.30    2.80
   0   9  -5    5.90    3.60
   0  -9  -5    1.80    4.10
   0  -9  -5    3.90    3.00
   0  -9  -5    1.50    1.80
   0   9   6   58.99    4.90
   0  -9  -6   44.50    4.00
   0  -9  -6   63.69    3.50
   0 -10   0 1266.47   36.00
   0 -10   0 1272.37   36.90
   0 -10   0 1200.08   41.20
   0 -10   0 1194.58   38.40
   0 -10   0 1248.18   37.80
   0 -10   1  115.39    8.50
   0 -10   1  108.59   10.00
   0 -10  -1  106.29    5.60
   0 -10  -1  117.49   10.40
   0 -10  -1  119.59    7.40
   0 -10  -1  100.99    6.40
   0  10  -2  417.56   16.70
   0 -10   2  406.56   16.70
   0 -10  -2  412.26   13.80
   0 -10  -2  410.66   15.20
   0 -10   2  420.66   18.80
   0 -10  -2  408.76   18.70
   0 -10  -2  414.86   16.20
   0  10  -3   47.80    5.90
   0 -10  -3   50.39    5.30
   0 -10  -3   53.19    6.00
   0 -10   3   54.59    6.40
   0 -10  -3   49.00    3.90
   0  10   4   42.20    5.10
   0  10  -4   48.60    5.80
   0 -10  -4   56.09    5.80
   0 -10  -4   60.09    4.30
   0 -10   4   66.19    9.00
   0 -10  -4   62.39    5.60
   0  10   5   38.00    4.00
   0  10  -5   32.00    4.40
   0 -10  -5   30.70    3.70
   0 -10  -5   45.20    3.40
   0 -10  -5   34.40    4.10
   0 -11   0    3.10    1.90
   0 -11   0    3.10    4.70
   0 -11   0    5.60    2.80
   0 -11   0    0.60    2.00
   0 -11   0    7.50    4.10
   0 -11  -1   97.19    7.30
   0 -11   1  101.79    8.50
   0 -11  -1   94.09    5.40
   0 -11  -1   87.09    6.00
   0 -11   1  107.09   10.60
   0 -11  -1   77.89    8.70
   0  11  -2   93.49    7.30
   0 -11  -2   89.49    6.40
   0 -11   2   98.09    8.40
   0 -11   2   90.69    9.80
   0 -11  -2   84.79    5.10
   0 -11  -2   84.99    7.20
   0 -11  -2   73.59    8.20
   0  11  -3  637.14   22.60
   0 -11   3  669.33   23.00
   0 -11  -3  668.23   22.40
   0 -11  -3  636.44   21.50
   0 -11  -3  647.44   20.00
   0  11  -4  142.99    8.60
   0  11   4  152.38    8.20
   0 -11  -4  155.48    6.40
   0 -11  -4  145.69    8.10
   0 -11  -4  154.58    7.80
   0 -11   4  154.38    8.00
   0 -11  -5  244.08    9.60
   0 -11  -5  275.47    8.50
   0 -12   0  212.88    9.80
   0 -12   0  207.58   13.30
   0 -12   0  189.78   10.20
   0 -12   0  206.08    9.00
   0 -12  -1  864.11   27.50
   0 -12   1  910.31   31.50
   0 -12   1  836.82   28.10
   0 -12  -1  849.22   30.50
   0 -12  -1  822.62   26.30
   0 -12  -1  844.02   25.40
   0  12  -2   37.00    4.40
   0 -12  -2   40.80    6.10
   0 -12  -2   29.10    3.70
   0 -12  -2   41.60    3.50
   0 -12  -2   29.20    4.40
   0 -12   2   48.50    5.70
   0 -12   2   49.30    6.90
   0  12   3   93.99    6.70
   0  12  -3   86.29    6.00
   0 -12  -3   80.89    5.70
   0 -12  -3   95.89    4.90
   0 -12  -3  103.39    6.80
   0 -12   3  110.69    7.10
   0 -12  -4   10.90    1.60
   0 -13   0    2.70    3.60
   0 -13   0   -1.20    2.00
   0 -13  -1   71.29    7.00
   0 -13  -1   58.59    3.60
   0 -13  -1   60.79    5.20
   0 -13   1   70.49    5.90
   0 -13   1   59.69    6.50
   0 -13  -1   57.19    6.20
   0  13   2  439.76   15.60
   0 -13   2  477.75   17.00
   0 -13  -2  453.05   15.50
   0 -13  -2  462.25   14.10
   1   0  -8  348.67   14.10
   1   0  -7    3.70    3.10
   1   0  -6 1841.72   54.19
  -1   0   6 1760.72   73.39
   1   0  -5    0.30    2.30
   1   0  -5   37.90   12.40
   1   0  -5   -4.10    4.20
  -1   0   5   -0.60    3.10
  -1   0   5    5.60    3.10
   1   0  -4  222.28   13.20
   1   0  -4  222.38   21.60
  -1   0   4  250.07   12.70
  -1   0   4  232.48   12.20
  -1   0   3   12.20    3.20
   1   0  -3   -2.30    6.00
   1   0  -3    7.20    3.20
   1   0  -2  852.21   34.90
   1   0  -2  930.21   28.00
   1   0  -1   -0.60    4.20
   1   0   0 3195.88   86.99
   1   0   1   -6.80    1.30
   1   0   2 4832.32  128.39
   1   0   2 4627.34  128.39
  -1   0  -2 4578.34  133.09
   1   0   3    0.50    2.40
   1   0   3    0.10    2.40
  -1   0  -3   -0.40    4.60
   1   0   4   32.80    5.70
   1   0   4   28.70    5.10
  -1   0  -4   26.30    8.70
   1   0   5    1.10    4.20
  -1   0  -5   -0.80    2.30
   1   0   5   -3.10    3.30
   1   0   6 1207.38   38.40
  -1   0  -6 1284.97   39.60
  -1   0  -7    0.20    3.10
  -1   0  -8  640.54   22.00
   1   1  -8  120.79    7.50
   1  -1  -8  118.99    7.90
   1   1  -7   11.60    3.40
   1  -1  -7   23.70    4.20
   1  -1  -7   16.90    3.00
   1   1  -6  148.49    8.80
   1  -1  -6  153.58    9.00
   1  -1  -6  120.29    5.90
   1   1  -5  455.15   33.00
   1   1  -5  437.36   16.30
  -1   1   5  446.66   21.70
   1   1  -5  462.05   22.40
  -1  -1   5  446.06   20.60
   1  -1  -5  444.76   16.50
   1  -1  -5  451.35   23.70
   1  -1  -5  469.15   35.70
   1   1  -4 2338.27   69.89
  -1   1   4 2232.38   69.39
  -1   1   4 2293.17   69.89
   1   1  -4 2344.87   84.19
  -1  -1   4 2243.98   68.19
   1  -1  -4 2343.07   71.69
  -1  -1   4 2273.47   68.59
   1  -1  -4 2338.67   86.39
  -1   1   3 2476.45   71.49
   1   1  -3 2565.84   71.89
   1   1  -3 2441.96   82.99
  -1   1   3 2443.66   71.79
   1  -1  -3 2461.55   84.19
   1  -1  -3 2442.96   72.79
   1   1  -2  811.82   32.20
   1   1  -2  821.42   25.20
   1  -1  -2  819.72   26.00
   1  -1  -2  772.92   33.10
   1   1  -1  832.62   29.10
   1  -1  -1  799.92   29.20
   1   1   0  203.78    7.70
   1   1   1 1090.09   32.70
   1   1   1 1151.78   32.70
   1  -1   1 1117.79   31.40
  -1   1  -2 1815.62   54.29
   1   1   2 1711.83   50.59
   1   1   2 1736.03   50.79
   1  -1   2 1752.22   49.60
  -1  -1  -2 1691.13   56.29
   1  -1   2 1767.12   49.50
  -1   1  -3 2044.10   65.09
   1   1   3 1937.21   58.79
   1   1   3 1928.21   58.59
  -1  -1  -3 1993.70   67.59
   1   1   4 2903.01   85.79
   1   1   4 2833.02   85.49
  -1  -1  -4 3064.19   98.19
   1  -1   4 2787.22   84.09
   1  -1   4 2805.62   86.39
  -1   1  -5  345.67   14.00
   1   1   5  387.76   19.80
  -1  -1  -5  356.16   14.30
  -1   1  -6  394.46   15.70
   1   1   6  341.77   14.40
  -1  -1  -6  322.67   13.20
  -1  -1  -6  385.16   15.40
   1   1   7    9.10    3.30
  -1   1  -7    5.60    3.60
  -1  -1  -7   10.40    3.90
  -1   1  -8   47.30    5.10
  -1  -1  -8   53.49    5.60
   1   2  -8   -2.50    2.20
   1  -2  -8    0.40    2.70
   1   2  -7  966.70   31.00
   1  -2  -7  943.51   27.70
   1  -2  -7  922.81   30.90
   1   2  -6   83.39    6.90
   1  -2  -6   76.29    4.50
   1  -2  -6   82.09    7.10
   1   2  -5 1282.17   39.20
  -1   2   5 1273.57   46.40
   1   2  -5 1275.77   60.09
   1  -2  -5 1290.77   39.50
   1  -2  -5 1378.16   65.39
  -1   2   4  177.98   11.60
   1   2  -4  186.88   19.40
   1   2  -4  188.98   11.10
  -1   2   4  177.58   11.40
   1  -2  -4  162.48   20.70
  -1  -2   4  167.58   13.00
   1  -2  -4  167.08   12.80
   1   2  -3  110.89   13.70
  -1   2   3  139.19    8.70
   1   2  -3  141.89    8.20
  -1   2   3  128.39    8.20
   1  -2  -3  128.39    9.60
   1  -2  -3  118.19   16.40
   1   2  -2  717.83   21.80
  -1   2   2  699.43   22.40
  -1   2   2  707.53   22.60
   1   2  -2  677.03   29.80
   1  -2  -2  674.03   23.30
   1  -2  -2  627.34   31.20
  -1   2   1 9615.94  251.77
   1   2  -1 9466.25  259.57
   1  -2  -1 9173.38  259.17
   1  -2  -1 9074.79  252.07
   1   2   0  232.38   13.70
   1   2   0  250.27   10.10
   1   2   1 8604.54  226.58
   1   2   1 8729.13  231.78
   1   2   1 8974.30  226.58
   1  -2   1 7120.19  223.68
   1   2   2  471.05   23.10
  -1   2  -2  508.45   20.50
   1   2   2  485.95   17.90
   1   2   2  483.35   17.70
   1  -2   2  502.85   15.60
  -1  -2  -2  494.35   24.10
   1   2   3  230.78   12.10
  -1   2  -3  243.98   16.60
   1   2   3  232.88   12.30
  -1  -2  -3  226.98   18.50
   1   2   4   30.30    6.20
   1   2   4   12.10    4.80
   1   2   4   33.30    8.90
  -1  -2  -4   26.20    9.80
   1   2   5  807.32   33.00
  -1   2  -5  796.12   26.00
  -1  -2  -5  764.82   25.90
  -1   2  -6   66.19    7.00
   1   2   6   67.89    6.50
  -1  -2  -6   59.59    6.30
  -1  -2  -6   69.89    6.20
  -1   2  -7  588.24   21.80
   1   2   7  577.24   20.70
  -1  -2  -7  601.44   22.00
  -1   2  -8   27.90    3.90
  -1  -2  -8   30.20    4.30
   1   3  -7   -0.80    2.70
   1  -3  -7   -0.80    2.90
   1  -3  -7    1.20    1.90
   1   3  -6   15.20    3.80
   1  -3  -6   13.30    2.50
   1  -3  -6    8.70    3.40
  -1   3   5 1083.09   41.80
   1   3  -5 1080.99   54.89
   1   3  -5 1058.09   33.50
   1  -3  -5 1165.88   61.29
   1  -3  -5 1065.09   33.90
   1   3  -4  131.59   17.50
  -1   3   4   98.29    9.30
  -1   3   4  103.49    9.60
   1  -3  -4  111.69   11.40
   1  -3  -4  133.09   22.00
  -1   3   3 5863.21  163.78
   1   3  -3 5931.71  175.88
  -1   3   3 5918.31  163.48
   1  -3  -3 5516.15  179.88
   1  -3  -3 5973.60  165.58
   1   3  -2  996.30   29.30
  -1   3   2 1009.50   31.20
  -1   3   2  969.20   30.70
   1   3  -2  979.50   39.40
   1  -3  -2  956.90   32.20
   1  -3  -2  905.01   41.10
  -1   3   1 3210.68   92.29
   1   3  -1 2870.01   93.19
  -1   3   1 3124.89   83.99
  -1   3   1 3022.10   84.09
   1   3  -1 3062.99   83.69
   1  -3  -1 2860.81   92.79
   1   3   0    7.50    3.20
   1   3   0   12.60    3.60
  -1   3   0    8.70    4.90
  -1   3   0    9.20    1.70
   1   3   0    9.10    6.60
   1   3   1 1599.74   47.30
   1   3   1 1564.24   53.89
   1   3   1 1542.35   47.30
  -1   3  -1 1700.23   51.29
   1   3   2  598.14   21.70
   1   3   2  554.94   27.10
   1   3   2  594.44   21.50
  -1   3  -2  628.04   24.80
  -1  -3  -2  621.54   29.60
   1   3   3 4131.69  117.89
   1   3   3 3888.21  128.19
   1   3   3 4139.19  117.99
  -1  -3  -3 4300.27  131.29
   1   3   4  838.92   32.50
   1   3   4  871.81   33.00
   1   3   4  827.82   42.30
  -1  -3  -4  895.41   45.00
   1   3   5 1035.50   41.20
  -1   3  -5 1024.40   32.90
   1   3   5 1015.70   51.69
  -1  -3  -5 1075.19   33.40
  -1  -3  -5 1115.09   54.69
   1   3   6  165.08    9.20
  -1   3  -6  178.68   10.00
  -1  -3  -6  165.48    9.90
  -1  -3  -6  150.08    8.40
  -1   3  -7    2.30    3.00
   1   3   7    3.80    3.00
  -1  -3  -7    1.90    3.10
  -1  -3  -7    8.90    3.50
   1  -4  -8  157.78    5.80
   1  -4  -7  158.58    6.80
   1  -4  -6  248.58    9.20
  -1   4   5  304.97   19.80
  -1   4   5  289.57   28.50
   1  -4  -5  319.07   34.30
  -1   4   4   75.59   14.80
   1   4  -4  102.49   17.30
  -1   4   4   93.09   10.90
  -1   4   4   63.89    8.50
   1  -4  -4   79.19   17.80
   1   4  -3  164.28   17.90
  -1   4   3  148.39   17.00
  -1   4   3  159.98   10.70
  -1   4   3  172.58   10.80
   1  -4  -3  164.08   20.50
   1   4  -2 1469.85   55.89
  -1   4   2 1466.75   44.90
  -1   4   2 1511.05   55.99
  -1   4   2 1474.25   45.30
   1  -4  -2 1393.06   57.49
  -1   4   1  857.71   27.50
   1   4  -1  843.52   37.50
  -1   4   1  890.81   35.90
  -1   4   1  911.21   27.40
   1   4   0 5191.98  154.58
  -1   4   0 5391.26  151.18
   1   4   0 5222.08  143.19
   1   4   0 4965.50  143.29
  -1   4  -1  942.21   34.70
   1   4   1  882.81   29.20
   1   4   1  863.31   29.00
   1   4   1  829.52   36.60
   1   4   2 1920.61   69.99
  -1   4  -2 2192.78   67.29
   1   4   2 1915.31   60.29
   1   4   2 1946.61   59.99
   1   4   3   11.60    4.60
   1   4   3    6.10    6.80
   1   4   3   11.10    4.50
  -1  -4  -3    8.40    8.80
   1   4   4    1.10    4.10
   1   4   4    2.40    5.80
   1   4   4    4.50    5.20
  -1  -4  -4   -1.10    7.60
   1   4   5  260.07   25.70
   1   4   5  242.58   18.50
  -1  -4  -5  270.07   14.10
  -1  -4  -5  248.68   28.50
   1   4   6  983.90   30.90
  -1  -4  -6  957.20   30.00
  -1  -4  -6  921.31   27.90
   1   4   7  131.59    8.10
  -1  -4  -7  140.99    7.60
   1   4   8  375.46   12.80
   1  -5  -8   25.80    2.10
   1  -5  -7    7.70    2.00
  -1   5   6  142.69    8.40
   1  -5  -6  134.49    8.20
   1  -5  -6  143.89    6.30
   1  -5  -5  349.87   13.70
   1   5  -4 1701.73   71.09
  -1   5   4 1756.42   58.79
  -1   5   4 1668.13   73.39
   1  -5  -4 1677.93   78.29
  -1   5   3  467.75   21.30
   1   5  -3  464.05   29.90
  -1   5   3  439.06   20.30
  -1   5   3  470.95   30.50
   1  -5  -3  457.05   34.00
  -1   5   2 2984.60   86.79
   1   5  -2 2930.41  100.79
  -1   5   2 2935.71   87.09
  -1   5   2 3070.89  100.39
   1   5  -1   49.70   12.00
  -1   5   1   42.70    9.10
   1   5   0    9.00    8.20
  -1   5   0   13.70    7.20
   1   5   1    3.00    6.30
   1   5   1   -0.70    3.60
  -1   5  -1    0.70    5.70
   1   5   1   -1.60    3.70
   1   5   2 1450.55   58.59
   1   5   2 1442.36   47.00
   1   5   2 1441.26   47.30
   1   5   3  148.29   12.50
   1   5   3  130.99   11.40
   1   5   3  155.48   18.90
   1   5   4 2140.69   87.69
   1   5   4 2291.17   73.49
  -1  -5  -5  110.39    7.00
   1   5   6  260.17   11.80
  -1  -5  -6  260.87   11.30
  -1  -5  -6  236.48    9.10
   1   5   7    7.50    3.10
  -1  -5  -7    9.80    3.10
   1  -6  -7  856.21   24.80
  -1   6   6  397.56   15.40
   1  -6  -6  392.16   13.10
   1  -6  -6  396.26   15.10
   1   6  -5 1068.09   34.20
   1  -6  -5 1088.59   31.70
   1  -6  -5 1111.59   33.70
  -1   6   4  245.48   18.10
   1   6  -4  235.88   11.00
  -1   6   4  259.27   27.50
   1   6  -3   75.59   15.40
  -1   6   3   59.79    8.90
  -1   6   3   69.59   15.50
  -1   6   2  365.76   26.80
   1   6  -2  367.16   27.80
  -1   6   1 1501.75   59.49
   1   6  -1 1537.85   63.59
  -1   6   0 1325.17   53.09
   1   6   0 1218.78   55.59
   1   6   1 1634.44   69.89
  -1   6  -1 1938.81   66.79
   1   6   2  432.96   30.20
   1   6   2  448.36   25.20
   1   6   2  438.26   21.10
   1   6   3   85.09   11.30
   1   6   3   82.59   17.10
   1   6   3   71.89   10.30
   1   6   4   -2.10    6.40
   1   6   4   -1.90    8.40
   1  -6   4    1.70    2.80
  -1  -6  -5  310.97   11.10
  -1  -6  -5  319.77   13.00
   1   6   6  341.27   13.90
  -1  -6  -6  323.57   11.30
  -1  -6  -6  337.47   13.40
   1   6   7  416.46   15.10
  -1  -6  -7  416.66   14.40
   1  -7  -7   80.39    4.00
  -1   7   6   11.50    3.40
   1  -7  -6   11.00    3.80
   1  -7  -6    6.20    1.90
   1   7  -5  920.71   31.00
   1  -7  -5 1006.90   30.60
   1  -7  -5  960.80   28.40
   1   7  -4   24.60    4.20
   1  -7  -4   20.70    3.60
   1  -7  -4   18.00    2.50
   1   7  -3 2636.44   75.69
  -1   7   3 2633.24  102.39
   1   7  -3 2687.43  106.39
   1   7  -2   22.10   10.70
  -1   7   2   26.50   10.80
  -1   7   1  586.24   35.70
   1   7  -1  610.74   38.90
  -1   7   0   42.40   12.50
   1   7   0   27.50   12.50
   1   7   1  462.25   34.00
   1   7   2    3.70    8.80
   1   7   3 2133.09   88.99
   1  -7   3 2052.09   60.99
  -1   7  -4    6.30    3.70
  -1  -7  -4    8.00    3.00
  -1  -7  -4   10.20    4.20
  -1  -7  -4    4.10    2.00
   1  -7   4   11.30    3.80
   1   7   5  689.63   23.20
  -1   7  -5  663.63   23.50
  -1  -7  -5  684.83   22.40
  -1  -7  -5  665.93   20.70
  -1  -7  -5  655.23   22.70
   1   7   6    6.40    3.10
  -1  -7  -6    2.50    3.20
  -1  -7  -6    3.60    1.60
   1   7   7    2.60    2.20
  -1  -7  -7    2.60    2.10
   1  -8  -7  187.88    6.30
  -1   8   6  107.29    6.80
   1  -8  -6  105.39    6.80
   1  -8  -6  107.59    5.00
   1   8  -5  170.68    9.90
   1  -8  -5  170.88    7.30
   1  -8  -5  184.38    9.60
   1   8  -4   23.00    4.70
   1  -8  -4   22.60    4.20
   1  -8  -4   17.90    3.60
   1  -8  -4   20.50    2.60
   1   8  -3  350.56   14.20
   1  -8  -3  320.67   13.20
   1  -8  -3  335.87   13.20
   1  -8  -3  334.87   12.90
  -1  -8   3  315.77   13.70
  -1   8   2   55.89   14.80
   1   8  -2   54.59   14.40
   1   8  -2   53.29    5.60
   1   8  -1 1586.94   72.29
  -1   8   1 1536.55   68.79
   1   8   0  866.11   49.80
   1   8   1 1638.54   76.19
   1   8   2  530.05   41.50
   1  -8   2  519.05   19.30
  -1  -8  -3   99.29    5.80
   1  -8   3   84.89    6.80
  -1  -8  -3   80.09    6.00
   1  -8   3   87.99    7.50
  -1  -8  -3   99.79    7.30
  -1   8  -4   40.80    6.10
   1   8   4   42.40    5.70
  -1  -8  -4   44.30    4.00
  -1  -8  -4   31.20    4.40
  -1  -8  -4   46.00    5.90
   1  -8   4   54.99    6.70
  -1   8  -5  173.48   10.10
   1   8   5  182.68    9.50
  -1  -8  -5  172.78    7.40
  -1  -8  -5  177.88    9.30
  -1  -8  -5  185.28    9.50
   1   8   6  186.08    8.70
  -1  -8  -6  181.78    8.30
  -1  -8  -6  165.18    6.70
  -1   9   6   78.79    5.20
   1  -9  -6   87.29    5.50
   1  -9  -6   85.49    4.10
   1   9  -5   32.20    5.10
   1  -9  -5   19.60    3.80
   1  -9  -5   27.70    3.00
   1   9  -4  658.73   22.80
   1  -9  -4  614.94   21.30
   1  -9  -4  626.84   19.40
   1  -9  -4  597.74   21.50
   1   9  -3    8.40    3.90
   1  -9  -3    6.80    1.80
  -1  -9   3    5.40    3.70
   1  -9  -3    3.40    2.60
   1  -9  -3    6.80    3.70
   1   9  -2 1225.38   35.70
  -1  -9   2 1063.89   35.30
   1  -9  -2 1131.69   34.10
   1  -9  -2 1106.39   32.30
   1  -9  -2 1124.99   34.70
  -1  -9   2 1097.49   37.30
   1   9  -1    3.70    2.60
   1  -9  -1    5.70    2.30
   1  -9  -1    4.90    2.80
  -1  -9   1    3.50    3.30
  -1  -9   0  121.29    6.80
   1  -9   0  122.99    7.30
   1  -9   0  127.89    6.70
   1  -9   1   28.70    3.60
   1  -9   1   30.70    3.60
   1  -9   1   25.90    4.60
  -1  -9  -1   23.70    3.00
  -1  -9  -1   26.40    3.60
   1  -9   1   46.30    5.20
   1  -9   2 1185.28   37.40
   1  -9   2 1149.78   39.10
  -1  -9  -2 1172.58   39.20
  -1  -9  -2 1145.69   34.20
  -1  -9  -2 1206.98   35.50
   1  -9   2 1237.28   35.80
  -1  -9  -2 1222.88   36.60
   1  -9   2 1144.79   37.50
  -1   9  -3  131.59    9.20
   1  -9   3  117.19    8.60
  -1  -9  -3  110.59    5.70
  -1  -9  -3  112.79    7.80
   1  -9   3  113.19    8.50
  -1  -9  -3  107.99    7.00
   1   9   4 1410.96   42.60
  -1   9  -4 1358.96   42.80
  -1  -9  -4 1326.37   39.50
  -1  -9  -4 1407.26   42.00
  -1  -9  -4 1366.56   41.10
  -1   9  -5   18.30    4.30
   1   9   5   23.30    3.90
  -1  -9  -5   17.80    4.00
  -1  -9  -5   15.40    2.30
  -1  -9  -5   20.10    3.70
   1   9   6  178.98    7.90
  -1  -9  -6  174.48    6.30
  -1  -9  -6  177.48    7.70
   1 -10  -6  276.77    8.80
   1  10  -5   25.80    3.90
   1 -10  -5   25.50    3.60
   1 -10  -5   28.40    2.60
   1  10  -4  101.79    7.80
   1 -10  -4   90.19    5.20
   1 -10  -4  105.39    7.20
   1 -10  -4  109.59    7.90
   1  10  -3   51.79    5.80
   1 -10  -3   47.10    5.70
   1 -10  -3   55.89    4.00
   1 -10  -3   62.09    5.70
  -1 -10   3   70.09    7.10
   1  10  -2  168.48    9.90
  -1 -10   2  172.58   10.40
   1 -10  -2  172.48    8.80
   1 -10  -2  175.38   12.00
  -1 -10   2  177.08   12.20
   1 -10  -2  180.08    9.60
   1 -10  -2  180.88    7.30
   1 -10  -1  847.32   26.70
  -1 -10   1  799.32   29.80
   1 -10  -1  817.02   25.70
   1 -10  -1  799.12   29.40
  -1 -10   1  748.33   26.80
   1 -10  -1  805.62   24.20
   1 -10   0 1693.33   52.69
   1 -10   0 1753.32   55.69
   1 -10   0 1782.52   50.09
   1 -10   0 1855.41   52.19
  -1 -10   0 1751.72   51.69
  -1 -10   0 1714.73   52.49
  -1 -10   0 1805.92   55.99
   1 -10   0 1750.92   51.19
  -1  10  -1  470.35   17.30
   1 -10   1  435.76   17.60
   1 -10   1  437.66   19.80
   1 -10   1  438.66   14.80
  -1 -10  -1  438.26   15.30
   1 -10   1  369.76   17.80
   1 -10   1  436.76   16.20
  -1 -10  -1  423.36   16.30
  -1 -10  -1  450.65   19.90
   1 -10   1  449.56   15.80
  -1 -10  -1  442.36   14.50
  -1  10  -2  983.50   31.50
   1 -10   2  976.30   29.60
   1 -10   2  950.90   33.70
   1 -10   2  960.90   31.70
  -1 -10  -2  899.21   33.10
   1 -10   2  934.11   31.40
  -1 -10  -2  935.31   28.20
  -1 -10  -2  938.31   29.40
  -1 -10  -2  975.10   30.70
  -1  10  -3   78.29    7.50
  -1 -10  -3   67.79    4.70
   1 -10   3   64.89    6.80
  -1 -10  -3   66.59    5.60
  -1 -10  -3   59.99    6.30
   1  10   4   14.40    3.80
  -1  10  -4   18.40    4.40
   1 -10   4   35.60    5.60
  -1 -10  -4   26.10    4.70
  -1 -10  -4   17.70    2.70
  -1 -10  -4   21.10    3.80
  -1  10  -5   13.70    3.60
   1  10   5    8.30    2.70
  -1 -10  -5   11.40    3.00
  -1 -10  -5   11.30    1.90
  -1 -10  -5    8.20    3.00
   1 -11  -5  227.28    7.40
   1 -11  -5  217.28   10.30
   1  11  -4  108.39    7.20
  -1  11   4  115.59    6.90
   1 -11  -4  109.09    6.60
   1 -11  -4   98.49    7.00
   1 -11  -4  107.09    5.20
   1  11  -3  941.81   29.90
   1 -11  -3  946.11   27.30
  -1 -11   3  946.31   30.10
   1 -11  -3  915.61   28.90
   1 -11  -3  878.91   29.40
   1  11  -2  332.47   13.80
  -1 -11   2  338.77   14.70
   1 -11  -2  332.97   11.60
   1 -11  -2  347.07   13.20
   1 -11  -2  303.87   16.00
  -1 -11   2  337.17   16.80
   1 -11  -2  334.57   13.90
   1 -11  -1   94.49   10.40
  -1 -11   1  112.19   10.90
   1 -11  -1   93.99    6.40
   1 -11  -1   90.59    7.20
  -1 -11   1  108.49    8.30
   1 -11  -1   93.49    5.40
   1 -11   0   50.99    5.20
  -1 -11   0   52.59    7.60
  -1 -11   0   59.19    6.40
  -1 -11   0   43.40    4.80
   1 -11   0   57.19    6.10
   1 -11   0   63.89    5.40
   1 -11   0   65.49    8.70
   1 -11   0   58.89    4.40
   1 -11   1  426.86   19.80
  -1 -11  -1  422.36   14.20
  -1 -11  -1  424.16   16.30
  -1 -11  -1  439.46   19.80
  -1 -11  -1  409.16   15.00
   1 -11   1  426.56   17.40
   1 -11   1  432.06   14.60
   1 -11   1  413.26   15.20
   1 -11   1  438.26   16.00
  -1  11  -2  185.88   10.00
   1 -11   2  192.48   12.70
  -1 -11  -2  171.38    7.60
  -1 -11  -2  181.88   12.40
   1 -11   2  195.88   11.10
  -1 -11  -2  191.08   10.10
  -1 -11  -2  184.88    8.80
   1  11   3  771.02   25.60
  -1  11  -3  748.73   25.20
  -1 -11  -3  716.83   23.80
   1 -11   3  801.22   25.90
  -1 -11  -3  753.82   25.00
  -1 -11  -3  733.33   22.80
   1  11   4   93.89    6.60
  -1  11  -4   91.29    6.80
  -1 -11  -4  106.19    5.00
   1 -11   4   98.59    6.70
  -1 -11  -4  102.09    6.80
  -1 -11  -4   99.29    6.10
   1 -12  -4    1.30    1.20
   1  12  -3    5.20    2.40
   1 -12  -3    3.30    3.00
   1 -12  -3    9.00    2.00
   1 -12  -3    8.60    2.80
  -1 -12   2   31.40    4.60
   1 -12  -2   25.10    5.20
   1 -12  -2   28.30    3.90
   1 -12  -2   19.40    3.80
  -1 -12   2   27.80    5.60
   1 -12  -2   28.00    2.90
   1 -12  -1  705.03   21.20
   1 -12  -1  691.83   23.30
   1 -12  -1  690.43   26.20
   1 -12  -1  669.33   22.20
  -1 -12   1  680.63   23.60
  -1 -12   1  747.83   26.80
   1 -12   0   12.90    2.40
   1 -12   0   15.30    3.70
   1 -12   0   19.50    6.00
  -1 -12   0   18.80    4.30
   1 -12   0   21.60    4.60
  -1 -12   0   17.20    5.50
   1 -12   0   20.10    3.30
  -1 -12   0   21.00    4.20
   1 -12   1  374.36   13.10
  -1 -12  -1  371.36   17.30
   1 -12   1  363.56   13.90
   1 -12   1  360.26   15.30
  -1 -12  -1  360.56   14.30
   1 -12   1  384.36   18.10
  -1  12  -2   41.90    4.50
  -1 -12  -2   60.09    7.10
  -1 -12  -2   57.39    4.70
   1 -12   2   54.69    7.10
  -1 -12  -2   57.19    4.10
  -1 -12  -2   50.29    5.40
   1 -12   2   68.99    6.50
   1  12   3    7.30    3.00
  -1  12  -3    4.80    2.50
  -1 -12  -3   11.20    2.60
   1 -12   3    6.70    3.20
  -1 -12  -3    7.00    3.10
  -1 -12  -3    6.80    1.80
   1 -13  -2  290.67   11.70
  -1 -13   2  357.66   15.30
   1 -13  -2  326.97   12.30
   1 -13  -2  321.07   10.40
   1 -13  -1   44.50    4.40
   1 -13  -1   43.00    3.30
  -1 -13   1   41.90    5.60
   1 -13  -1   42.80    3.60
   1 -13  -1   41.30    5.40
   1 -13   0   58.29    4.00
   1 -13   0   44.20    4.50
   1 -13   0   61.29    7.00
   1 -13   0   53.89    4.80
   1 -13   0   50.89    3.50
  -1 -13   0   42.90    5.70
   1  13   1   26.80    3.60
   1 -13   1   31.10    4.30
  -1 -13  -1   26.20    4.60
   1 -13   1   29.80    5.10
  -1 -13  -1   31.90    3.60
   1  13   2   54.59    5.80
   1 -13   2   69.89    6.20
   1 -13   2   58.59    4.90
   2   0  -8  354.36   13.80
   2   0  -7    1.40    1.60
   2   0  -7   -1.50    2.60
   2   0  -6 1201.78   36.10
   2   0  -6 1338.97   39.60
   2   0  -5    5.50    5.30
   2   0  -5    0.80    2.20
  -2   0   5    4.60    3.60
   2   0  -5    3.60    9.60
   2   0  -4  262.47   24.80
  -2   0   4  310.77   14.10
   2   0  -4  294.87   15.60
  -2   0   4  259.67   13.90
   2   0  -3   -2.70    2.70
   2   0  -3   -2.80    6.00
   2   0  -2 1888.01   53.19
   2   0  -2 1737.53   61.49
   2   0  -1   -1.80    4.50
   2   0  -1   10.10    3.00
   2   0   0 5533.25  151.08
   2   0   1   -3.40    2.50
   2   0   1    0.20    2.80
   2   0   2 4657.33  130.69
  -2   0  -2 4901.11  132.89
   2   0   2 4633.04  130.69
   2   0   3    1.70    2.80
   2   0   3   10.00    3.60
   2   0   4   39.30    6.50
   2   0   4   35.40    6.20
  -2   0  -5    0.20    2.20
   2   0   6  808.32   27.00
  -2   0  -6  805.62   27.90
  -2   0  -7    2.20    3.10
   2   0   7   -1.00    2.70
   2   1  -8  119.39    7.30
   2  -1  -8  128.19    7.60
   2   1  -7    8.90    3.60
   2  -1  -7    4.20    3.30
   2  -1  -7   11.00    2.30
   2   1  -6   84.29    6.50
   2   1  -6   71.79    4.30
   2  -1  -6   76.29    4.60
   2  -1  -6   85.59    6.60
  -2   1   5  340.07   18.20
   2   1  -5  310.97   12.90
   2   1  -5  326.77   18.60
   2   1  -5  332.97   30.40
   2  -1  -5  364.96   33.10
   2  -1  -5  326.47   13.20
  -2  -1   5  307.87   16.70
   2  -1  -5  331.27   20.20
  -2   1   4 2037.00   63.89
   2   1  -4 2072.89   64.39
   2   1  -4 2105.99   80.59
  -2   1   4 2020.20   63.39
   2  -1  -4 2123.99   81.69
   2  -1  -4 2098.89   65.79
   2   1  -3 1517.95   59.59
   2   1  -3 1588.84   47.70
   2  -1  -3 1577.44   48.70
   2  -1  -3 1470.65   59.39
   2   1  -2 1845.62   64.09
   2   1  -2 1933.01   55.29
   2  -1  -2 1809.72   64.29
   2  -1  -2 2005.10   56.09
   2   1  -1  310.77   11.80
   2   1  -1  297.97   16.70
   2  -1  -1  270.47   15.90
   2  -1  -1  320.27   11.50
   2   1   0  259.57   11.00
   2   1   0  261.87   10.80
   2   1   0  217.68   12.30
   2   1   1 1702.13   51.09
   2   1   1 1749.62   49.60
   2   1   1 1708.43   49.60
   2  -1   1 1628.74   48.30
   2   1   2 1444.36   47.20
   2   1   2 1506.35   44.50
   2   1   2 1521.95   44.70
  -2  -1  -2 1518.95   47.90
   2  -1   2 1424.76   43.20
   2  -1   2 1440.46   43.30
   2   1   3 3476.55  110.09
   2   1   3 3597.04  104.99
   2   1   3 3701.33  105.09
   2  -1   3 3710.93  103.89
  -2  -1  -3 3892.51  111.69
   2  -1   3 3687.13  103.79
   2   1   4 2407.86   74.79
   2   1   4 2501.95   75.29
   2   1   5 1464.85   51.29
  -2   1  -5 1457.95   44.40
  -2  -1  -5 1468.95   44.50
  -2   1  -6  119.59    8.70
   2   1   6  105.99    8.10
  -2  -1  -6  132.39    8.90
   2  -1   6  115.99    7.90
  -2   1  -7   43.90    5.70
   2   1   7   35.60    4.90
   2  -1   7   33.90    4.30
  -2  -1  -7   34.50    5.10
  -2   1  -8   24.80    4.00
   2   1   8   20.70    3.00
  -2  -1  -8   26.10    4.20
   2   2  -8   61.39    5.40
   2  -2  -8   62.29    5.60
   2  -2  -8   61.99    3.50
   2   2  -7  634.64   22.60
   2  -2  -7  639.44   22.90
   2  -2  -7  648.34   19.70
   2   2  -6  103.19    7.50
   2  -2  -6  103.89    5.30
   2  -2  -6  111.49    7.90
  -2   2   5 1215.68   45.20
   2   2  -5 1229.28   37.80
   2   2  -5 1285.77   62.69
   2  -2  -5 1216.78   47.80
   2  -2  -5 1347.87   66.89
   2  -2  -5 1228.48   38.10
  -2   2   4   26.20    4.90
  -2   2   4   39.60    6.80
   2   2  -4   25.30    5.00
   2   2  -4   31.50   11.40
   2  -2  -4   41.70   14.30
   2  -2  -4   41.40    8.00
  -2   2   3   12.60    3.80
   2   2  -3   26.20    4.50
   2   2  -3   23.40    9.60
   2  -2  -3   16.60    9.40
   2  -2  -3   10.60    4.40
   2   2  -2   52.79    5.10
   2   2  -2   40.10    9.00
   2  -2  -2   37.70    9.20
   2  -2  -2   43.30    5.40
   2   2  -1 6024.10  161.88
   2   2  -1 5908.21  170.18
   2  -2  -1 5716.63  168.48
   2  -2  -1 5963.10  161.38
   2   2   0   90.59    7.10
   2   2   0   96.99   11.00
   2   2   0  102.39    7.40
   2   2   1 7338.47  193.18
   2   2   1 6927.71  196.98
   2   2   1 7070.79  193.08
   2  -2   1 6839.42  189.98
   2   2   2  437.56   21.10
   2   2   2  466.05   17.90
   2   2   2  469.05   18.10
   2   2   3  752.42   33.00
   2   2   3  735.23   27.50
   2   2   3  759.92   27.90
  -2  -2  -3  844.32   34.80
   2   2   4   92.69    9.40
   2   2   4   94.19    9.20
  -2   2  -5  636.94   22.30
   2   2   5  638.24   29.30
  -2  -2  -5  642.04   22.40
   2   2   6  140.29    9.10
  -2   2  -6  149.39    9.60
   2  -2   6  128.29    8.10
  -2  -2  -6  151.38    9.60
  -2  -2  -6  152.28    8.30
   2   2   7 1113.89   35.00
  -2   2  -7 1133.29   35.90
   2  -2   7 1078.49   34.10
  -2  -2  -7 1108.89   35.90
   2   2   8   29.90    3.30
  -2   2  -8   33.60    4.30
  -2  -2  -8   32.80    4.30
   2  -3  -8  120.29    5.00
   2   3  -7   32.10    4.50
   2  -3  -7   31.50    4.70
   2  -3  -7   40.60    3.50
   2   3  -6    9.20    3.50
   2  -3  -6   14.90    4.00
   2  -3  -6    9.80    2.30
   2   3  -5  772.02   47.00
   2   3  -5  736.83   24.60
  -2   3   5  747.63   32.40
   2  -3  -5  767.32   25.20
   2  -3  -5  786.52   50.39
  -2   3   4  409.76   19.80
   2   3  -4  431.06   31.80
  -2   3   4  392.46   19.20
   2  -3  -4  400.26   21.60
   2  -3  -4  459.05   34.40
  -2   3   3 4731.03  130.79
  -2   3   3 4615.84  131.09
   2   3  -3 4818.62  129.59
   2   3  -3 4549.04  145.89
   2  -3  -3 4547.84  132.69
   2  -3  -3 4389.26  148.19
  -2   3   2  875.41   28.60
   2   3  -2  864.91   39.10
   2   3  -2  915.41   28.10
  -2   3   2  896.81   28.20
   2  -3  -2  857.41   29.70
   2  -3  -2  800.42   38.90
   2   3  -1 3218.58  101.79
   2   3  -1 3238.08   91.19
  -2   3   1 3620.54   98.19
   2  -3  -1 3084.99   90.69
   2  -3  -1 3037.40   98.69
  -2   3   0    4.30    3.50
   2   3   0   10.90    6.30
   2   3   0    4.60    3.30
   2   3   0    4.30    3.60
   2   3   1  108.29   11.00
   2   3   1  115.69    8.40
   2   3   1  109.29    8.50
   2   3   2  314.27   19.40
   2   3   2  321.17   15.00
   2   3   2  308.17   14.70
   2   3   3 1844.42   67.49
   2   3   3 1950.90   59.89
   2   3   3 1948.61   60.09
   2   3   4  142.99   16.00
   2   3   4  139.79   12.50
   2   3   4  142.69   12.40
  -2  -3  -4  147.49   17.50
   2   3   5 1107.79   44.00
  -2   3  -5 1156.38   35.60
  -2  -3  -5 1115.99   35.60
  -2   3  -6  117.39    8.30
   2   3   6  110.19    7.80
   2  -3   6  101.39    7.20
  -2  -3  -6  103.99    7.00
  -2  -3  -6  106.39    8.20
   2   3   7    2.20    2.90
  -2   3  -7    4.00    3.20
  -2  -3  -7    5.10    3.60
   2   3   8   10.10    2.40
   2  -4  -8  411.76   12.50
   2  -4  -7   86.69    4.80
   2  -4  -6 1349.27   38.50
  -2   4   5  272.27   18.50
   2   4  -5  271.27   28.50
  -2   4   5  239.78   33.70
   2  -4  -5  298.87   47.20
   2   4  -4  390.66   30.80
  -2   4   4  391.26   30.20
  -2   4   4  400.06   19.70
  -2   4   4  399.36   20.20
   2  -4  -4  361.86   33.70
   2  -4  -4  378.16   22.10
   2   4  -3    3.10    7.60
  -2   4   3    7.90    7.20
  -2   4   3    2.10    3.30
  -2   4   3    4.40    3.10
   2  -4  -3    1.70    9.20
   2  -4  -3    0.50    4.70
  -2   4   2  897.71   37.90
   2   4  -2  801.92   39.60
  -2   4   2  821.92   27.80
  -2   4   2  826.92   27.40
   2  -4  -2  771.52   29.20
   2  -4  -2  733.23   38.50
   2   4  -1  836.82   39.20
  -2   4   1  831.32   26.30
   2   4  -1  884.91   28.00
  -2   4   1  900.41   34.50
   2  -4  -1  769.62   35.60
   2   4   0 4143.39  121.89
  -2   4   0 4938.71  127.89
   2   4   0 4127.99  122.29
   2   4   0 4162.08  132.69
   2   4   1  561.94   21.80
   2   4   1  566.84   29.10
   2   4   1  544.15   21.50
   2   4   2  792.22   36.70
   2   4   2  808.72   29.50
   2   4   2  796.82   29.30
   2   4   3   45.50    8.00
   2   4   3   45.00    8.20
   2   4   3   50.49   10.90
   2   4   4   21.20    8.70
   2   4   4   26.70    7.30
   2   4   5   39.60    4.70
   2   4   5   26.50    8.80
  -2  -4  -5   35.50    4.30
   2  -4   5   40.40    4.60
   2   4   6  644.54   23.10
  -2  -4  -6  666.83   22.30
   2  -4   6  677.43   22.50
   2   4   7  111.59    7.70
  -2  -4  -7  100.89    6.80
   2   4   8  320.67   11.30
   2  -5  -8  118.29    4.50
   2  -5  -7   35.00    3.10
   2  -5  -6  279.97   10.00
   2  -5  -5   57.49    3.90
  -2   5   4 2289.47   73.49
  -2   5   4 2217.48   89.79
   2   5  -4 2261.27   90.89
   2  -5  -4 2208.78   94.59
  -2   5   3  202.88   12.40
  -2   5   3  191.78   12.80
  -2   5   3  196.18   19.80
   2   5  -3  186.78   21.00
   2  -5  -3  183.48   23.50
   2   5  -2 2933.01  106.19
  -2   5   2 3346.67  103.59
   2  -5  -2 3019.40  106.89
   2   5  -1  401.06   28.40
  -2   5   1  432.56   23.90
   2   5   0    7.60    3.60
  -2   5   0   11.60    6.10
   2   5   0    8.80    4.10
   2   5   0   11.90    9.40
   2   5   1  117.09   16.80
   2   5   1  106.19    9.90
   2   5   1  104.89   10.10
   2   5   2 2251.37   71.09
   2   5   2 2295.57   82.69
   2   5   2 2320.37   71.09
   2   5   3  237.68   16.40
   2   5   3  233.18   22.30
   2   5   3  218.68   15.50
   2   5   4 1918.41   78.69
   2   5   4 1916.61   65.79
   2   5   5   74.39    6.20
   2  -5   5   70.79    5.70
  -2  -5  -5   72.39    5.70
  -2  -5  -5   76.19    8.70
  -2  -5  -5   81.49    6.50
   2   5   6  370.46   15.30
  -2  -5  -6  390.16   14.70
   2   5   7    6.20    2.90
  -2  -5  -7    5.00    2.60
   2  -6  -7  141.49    5.80
   2  -6  -6  209.28    7.90
   2   6  -5  204.88   10.30
   2  -6  -5  208.38   10.20
   2  -6  -5  226.78    8.30
   2   6  -4   20.20    4.10
  -2   6   4   13.40    7.90
   2   6  -4   19.10   11.80
  -2   6   4   16.20    9.80
   2  -6  -4    8.70    4.70
  -2   6   3    2.60    6.70
   2   6  -3    1.70    8.70
  -2   6   2  549.45   31.90
   2   6  -2  473.35   34.20
   2   6  -1 1248.68   57.79
  -2   6   1 1300.17   51.69
   2   6   0 2473.05   91.49
   2   6   1 3230.68  111.99
   2   6   1 3105.19   94.59
   2   6   2  719.03   29.90
   2   6   2  651.03   29.00
   2   6   2  749.23   42.10
   2   6   3  545.85   27.10
   2   6   3  527.25   36.30
   2   6   4    4.40    3.20
   2   6   4   -1.10    8.40
   2   6   4  -11.50    6.10
   2  -6   4   -0.10    2.20
   2  -6   4    0.90    3.00
  -2  -6  -4    1.70    3.90
  -2  -6  -4    3.60    2.60
   2   6   5  249.58   11.50
   2  -6   5  247.08   10.60
  -2  -6  -5  240.38   10.80
  -2  -6  -5  219.88   10.90
  -2  -6  -5  220.18    8.70
   2   6   6  280.07   12.40
  -2  -6  -6  284.77   11.90
   2   6   7  280.27   11.30
  -2  -6  -7  281.57   10.60
   2  -7  -7   22.70    2.20
   2  -7  -6    1.50    1.60
   2   7  -5  235.48   11.30
   2  -7  -5  219.08    8.50
   2  -7  -5  219.78   10.70
   2   7  -4   63.09    6.50
   2  -7  -4   81.79    6.20
   2  -7  -4   75.49    4.10
   2   7  -3 1703.53   49.40
  -2   7   3 1724.83   73.59
   2   7  -3 1559.64   73.99
   2   7  -2    7.10    9.50
  -2   7   2   -2.40    6.10
   2   7  -1 1052.79   55.89
  -2   7   1 1170.38   51.09
   2   7   0    3.10    8.80
   2   7   1  165.08   22.30
   2   7   2    0.40   10.50
   2   7   3 2675.73  107.19
   2   7   3 2791.22   88.99
   2  -7   3 2689.23   78.29
   2   7   4    3.80    3.10
   2  -7   4   19.00    3.60
  -2  -7  -4    6.00    3.40
  -2  -7  -4   12.70    4.20
  -2  -7  -4    1.90    1.90
   2  -7   4    2.80    3.80
  -2   7  -5  850.91   29.20
   2   7   5  932.11   29.30
  -2  -7  -5  905.91   28.10
  -2  -7  -5  839.22   26.10
   2  -7   5  902.21   29.30
  -2  -7  -5  891.01   28.50
   2   7   6    8.10    3.00
  -2  -7  -6   14.00    3.40
   2   7   7    8.40    2.40
  -2  -7  -7    4.50    2.00
   2  -8  -7  287.67    8.90
  -2   8   6  331.07   12.30
   2   8  -6  280.17   13.10
   2  -8  -6  328.97   12.30
   2  -8  -6  353.36   10.70
   2   8  -5  494.35   18.50
   2  -8  -5  496.15   15.80
   2  -8  -5  500.75   18.00
   2   8  -4   30.00    5.10
   2  -8  -4   24.70    2.80
   2  -8  -4   28.80    4.40
   2   8  -3   20.70    4.10
   2  -8  -3   21.50    2.40
  -2  -8   3   35.20    5.10
   2  -8  -3   20.80    3.90
   2  -8  -3   26.30    3.80
   2   8  -2  745.83   24.20
   2   8  -2  689.33   46.40
  -2   8   2  713.03   42.70
   2  -8  -2  724.73   23.30
   2  -8  -2  746.73   24.50
   2   8  -1  651.33   45.00
   2   8   0  902.91   53.19
   2   8   1 1353.46   69.09
   2  -8   1 1352.56   41.40
   2   8   2  443.66   39.60
   2  -8   2  501.25   17.80
   2  -8   2  462.15   18.10
  -2  -8  -2  477.35   17.20
  -2  -8  -3   79.29    4.80
  -2  -8  -3   83.49    6.20
   2  -8   3   88.99    7.10
   2  -8   3   89.69    8.30
   2  -8   3   78.39    6.10
  -2  -8  -3   88.19    7.10
   2   8   4    2.10    3.40
  -2  -8  -4    4.10    2.10
  -2  -8  -4    3.30    2.80
   2  -8   4    2.10    4.20
   2  -8   4    2.80    2.60
  -2  -8  -4    9.10    4.30
   2   8   5  313.87   13.30
  -2   8  -5  294.07   13.80
  -2  -8  -5  335.27   12.90
  -2  -8  -5  328.97   13.20
  -2  -8  -5  315.87   11.00
   2   8   6  190.78    8.90
  -2  -8  -6  189.68    8.50
  -2   9   6   31.80    3.20
   2  -9  -6   22.00    3.20
   2  -9  -6   36.10    2.70
   2   9  -5   28.70    4.50
   2  -9  -5   17.10    3.70
   2  -9  -5   27.70    2.90
   2   9  -4 1419.86   42.40
   2  -9  -4 1343.27   41.10
   2  -9  -4 1336.37   38.90
   2   9  -3  172.28    9.80
   2  -9  -3  156.58    8.40
  -2  -9   3  150.38    9.50
   2  -9  -3  147.79    6.30
   2  -9  -3  149.39    8.60
   2   9  -2 1045.10   31.90
  -2  -9   2  968.00   33.80
   2  -9  -2  986.70   30.50
   2  -9  -2  983.60   28.50
   2  -9  -2  993.90   31.10
  -2  -9   2  946.61   31.70
  -2  -9   1   44.20    5.30
   2  -9  -1   38.70    4.20
   2  -9  -1   28.60    4.00
   2  -9  -1   33.00    3.00
  -2  -9   1   37.60    6.60
   2  -9  -1   49.80    6.80
   2  -9   0    5.80    2.40
  -2  -9   0    8.80    4.10
   2  -9   0    2.40    2.50
   2  -9   0    4.00    2.80
  -2  -9  -1   13.50    3.50
   2  -9   1   11.00    2.50
   2  -9   1    6.40    4.10
   2  -9   1   10.40    2.80
  -2  -9  -1    7.90    4.60
   2  -9   1   12.10    3.50
   2  -9   1    4.60    3.50
   2  -9   1    7.60    2.80
   2  -9   2  716.83   27.10
   2  -9   2  737.53   24.00
   2  -9   2  721.13   22.50
  -2  -9  -2  722.33   23.00
   2  -9   2  707.53   25.60
   2  -9   2  749.13   25.30
  -2  -9  -2  747.63   24.40
  -2  -9  -2  681.13   21.90
  -2  -9  -2  673.83   26.60
   2  -9   2  757.42   23.80
  -2  -9  -3  124.69    6.20
  -2  -9  -3  136.79    9.00
   2  -9   3  126.09    8.40
  -2  -9  -3  112.19    7.30
   2  -9   3  126.09    7.30
   2  -9   3  127.69    9.30
   2   9   4 1203.08   37.70
  -2   9  -4 1170.68   37.80
   2  -9   4 1225.58   36.70
  -2  -9  -4 1184.08   37.00
  -2  -9  -4 1185.78   36.00
   2  -9   4 1254.17   38.40
  -2  -9  -4 1148.29   34.60
  -2   9  -5    1.60    3.50
   2   9   5    0.20    2.70
  -2  -9  -5    2.40    2.70
  -2  -9  -5    4.70    3.10
   2   9   6  196.98    8.40
  -2  -9  -6  204.28    8.00
   2  10  -5   73.79    6.20
   2 -10  -5   70.59    5.30
   2 -10  -5   80.59    4.00
   2  10  -4   89.79    7.60
   2 -10  -4   94.29    5.10
   2 -10  -4  101.99    7.20
   2 -10  -4  104.89    7.00
   2  10  -3   30.10    4.90
   2 -10  -3   18.20    3.90
   2 -10  -3   19.90    4.10
   2 -10  -3   27.20    2.80
  -2 -10   3   33.90    5.20
   2  10  -2  468.25   17.60
   2 -10  -2  475.05   17.40
   2 -10  -2  421.56   20.30
   2 -10  -2  455.35   14.70
   2 -10  -2  486.05   16.90
  -2 -10   2  447.26   17.90
  -2 -10   2  471.35   20.20
   2 -10  -1   96.09    7.20
   2 -10  -1   95.69    5.10
  -2 -10   1   99.09   10.20
   2 -10  -1  100.49    6.40
  -2 -10   1  106.79    7.70
   2 -10  -1   91.09    9.10
   2 -10   0 1009.60   31.20
  -2 -10   0  953.90   34.30
  -2 -10   0  957.70   31.40
   2 -10   0  989.60   34.70
   2 -10   0  969.80   28.90
   2 -10   0  988.70   30.40
   2 -10   0  935.41   31.50
   2 -10   1  264.47   14.90
   2 -10   1  223.68   12.30
   2 -10   1  269.77   11.70
   2 -10   1  272.17   11.30
   2 -10   1  259.67   10.20
  -2 -10  -1  264.47   14.90
   2 -10   1  259.87   12.80
  -2 -10  -1  266.57   11.80
   2 -10   2  587.94   21.70
   2 -10   2  575.24   23.60
  -2 -10  -2  588.14   20.80
  -2 -10  -2  549.54   23.00
   2 -10   2  564.44   21.80
   2 -10   2  603.24   18.90
   2 -10   2  566.94   19.70
  -2 -10  -2  576.04   19.30
   2 -10   2  576.04   20.50
   2  10   3   61.99    6.70
  -2  10  -3   61.69    6.60
   2 -10   3   77.29    7.30
  -2 -10  -3   68.99    6.50
  -2 -10  -3   48.60    4.80
  -2 -10  -3   59.49    4.60
   2 -10   3   66.79    5.30
   2 -10   3   57.49    6.30
  -2  10  -4    2.10    3.30
   2  10   4    1.30    2.90
  -2 -10  -4   -0.50    2.60
   2 -10   4   -2.10    3.40
  -2 -10  -4   10.90    3.70
  -2  10  -5    5.90    2.90
   2  10   5    6.20    2.50
   2  10   5   10.30    2.50
  -2 -10  -5    8.40    2.60
  -2 -10  -5    3.90    2.70
   2 -11  -5  174.38    5.80
   2  11  -4  163.08    8.50
  -2  11   4  170.98    8.30
   2 -11  -4  156.38    8.30
   2 -11  -4  182.68    8.40
   2 -11  -4  186.68    6.80
   2  11  -3  681.43   23.30
   2 -11  -3  704.53   21.00
   2 -11  -3  699.23   23.20
   2 -11  -3  711.33   22.80
   2  11  -2   94.59    7.20
   2 -11  -2  100.19    6.70
   2 -11  -2   94.49    9.50
   2 -11  -2   97.79    7.40
  -2 -11   2  108.29    8.00
  -2 -11   2  110.29    9.80
   2 -11  -2  109.79    5.30
  -2 -11   1  537.95   22.30
   2 -11  -1  525.05   22.10
   2 -11  -1  534.55   16.90
   2 -11  -1  549.54   19.30
   2 -11  -1  541.35   18.40
  -2 -11   1  499.15   19.40
   2 -11   0    4.90    2.90
   2 -11   0   -1.90    1.80
   2 -11   0    0.30    2.30
  -2 -11   0    4.20    4.90
   2 -11   0   -3.10    3.90
  -2 -11   0    6.00    3.80
   2 -11   0    1.50    3.40
   2 -11   1   76.49    5.30
   2 -11   1   86.29    9.40
  -2 -11  -1   76.49    8.70
   2 -11   1   78.99    6.00
   2 -11   1   79.29    6.30
   2 -11   1   75.89    7.30
  -2 -11  -1   85.39    7.00
  -2  11  -2   31.60    4.80
   2 -11   2   30.30    4.90
  -2 -11  -2   37.90    5.40
  -2 -11  -2   34.10    6.30
   2 -11   2   32.30    3.90
   2 -11   2   25.90    5.10
   2 -11   2   29.10    5.60
  -2  11  -3  652.43   22.50
   2  11   3  675.43   22.90
  -2 -11  -3  640.44   22.30
   2 -11   3  700.53   23.10
   2 -11   3  682.83   22.20
  -2 -11  -3  627.64   20.80
  -2  11  -4  116.69    7.10
   2  11   4  120.59    7.10
   2 -11   4  130.79    6.90
  -2 -11  -4  120.39    6.80
  -2 -11  -4  113.29    6.00
   2 -12  -4    0.20    1.00
   2  12  -3   -1.20    3.20
   2  12  -3    5.70    2.60
   2 -12  -3    5.00    1.60
   2 -12  -3    1.70    2.40
   2 -12  -3    5.70    3.00
   2 -12  -2    4.80    3.00
   2 -12  -2    1.90    5.10
  -2 -12   2    5.80    3.90
   2 -12  -2    7.90    1.90
   2 -12  -2   10.50    2.90
   2 -12  -1  737.13   24.00
  -2 -12   1  736.23   26.70
   2 -12  -1  722.13   21.80
   2 -12  -1  685.43   26.50
   2 -12  -1  750.72   23.10
   2 -12   0  105.89    6.50
   2 -12   0  117.89    5.70
   2 -12   0  114.39   10.30
   2 -12   0  104.59    8.00
  -2 -12   0  130.69   10.50
   2 -12   0  118.09    7.30
   2  12   1 1065.79   33.50
  -2 -12  -1 1063.69   36.00
   2 -12   1 1083.49   33.00
  -2 -12  -1 1091.99   33.20
   2 -12   1 1144.19   37.10
   2 -12   1 1069.19   34.30
   2 -12   1 1069.29   32.30
   2 -12   1 1090.69   31.70
  -2  12  -2   38.30    4.30
   2  12   2   34.20    4.50
  -2 -12  -2   37.90    4.70
   2 -12   2   35.40    5.60
   2 -12   2   40.00    3.70
   2 -12   2   39.70    5.30
   2  12   3   66.19    5.50
  -2  12  -3   65.29    5.30
  -2 -12  -3   68.39    5.50
   2 -12   3   71.89    5.60
   2  13  -2  287.37   11.00
   2 -13  -2  326.67    9.90
   2  13  -1  124.39    6.50
   2 -13  -1  124.19    8.50
   2 -13  -1  142.69    6.30
   2 -13  -1  131.99    6.90
   2 -13  -1  147.49    5.60
   2  13   0    6.20    2.00
   2 -13   0   11.00    3.10
   2 -13   0    9.10    3.90
   2 -13   0    9.70    2.10
   2 -13   0   12.00    1.90
   2 -13   0    9.20    2.50
   2 -13   1   65.59    4.10
   2 -13   1   51.89    4.60
   2 -13   1   63.59    6.90
   2 -13   2  177.98    8.30
   3   0  -8  244.38   10.50
   3   0  -7    0.10    1.70
   3   0  -7    2.60    2.90
   3   0  -6 1616.14   46.80
   3   0  -6 1715.53   50.29
   3   0  -5    1.30    4.50
  -3   0   5    2.50    3.10
   3   0  -5   -0.70    2.30
   3   0  -5   -5.70    9.00
   3   0  -4 2049.99   82.49
   3   0  -4 2084.39   65.99
   3   0  -3    0.00    3.10
   3   0  -3   -0.20    6.60
   3   0  -2 1278.47   39.20
   3   0  -2 1200.38   47.80
   3   0  -1    7.40    5.00
   3   0  -1    1.70    2.90
   3   0   0 5567.64  152.58
   3   0   0 5342.27  155.18
   3   0   0 5662.93  152.48
   3   0   1   -2.20    2.50
   3   0   1   -3.00    3.00
   3   0   2 2333.47   69.49
   3   0   2 2430.56   69.79
   3   0   3    4.20    4.00
   3   0   3   -1.20    3.80
   3   0   4    5.70    5.10
   3   0   4    2.20    5.20
  -3   0  -5   -0.90    2.70
   3   0   6 1043.80   34.40
  -3   0  -6 1109.39   35.70
   3   0   7   -0.70    2.70
  -3   0  -7    1.30    3.10
   3   0   8  417.06   13.80
  -3   0  -8  377.16   15.50
   3   1  -8   96.49    6.40
   3  -1  -8  104.29    4.60
   3  -1  -8  104.69    6.90
   3   1  -7    6.60    3.20
   3  -1  -7    5.80    1.90
   3  -1  -7   11.40    3.60
   3   1  -6    4.40    1.90
   3   1  -6    8.10    3.20
   3  -1  -6    7.60    3.30
   3  -1  -6    4.00    2.00
   3   1  -5  450.15   16.90
   3   1  -5  512.35   39.10
   3   1  -5  449.16   23.20
  -3   1   5  442.26   22.00
   3  -1  -5  445.56   24.10
  -3  -1   5  451.15   21.30
   3  -1  -5  531.65   40.00
   3  -1  -5  470.95   17.20
  -3   1   4 1916.81   61.19
   3   1  -4 2001.30   62.39
   3   1  -4 1908.61   78.99
   3  -1  -4 1985.30   79.49
   3  -1  -4 1887.71   62.79
   3   1  -3 1589.14   49.60
   3   1  -3 1523.35   62.89
   3  -1  -3 1571.04   62.69
   3  -1  -3 1605.24   50.69
   3   1  -2 3936.11  127.59
   3   1  -2 4341.37  117.89
   3  -1  -2 4218.58  117.69
   3  -1  -2 4204.18  128.19
   3   1  -1  796.32   33.30
   3   1  -1  880.61   28.20
   3  -1  -1  869.51   27.50
   3   1   0    5.80    3.90
   3   1   0   16.70    5.40
   3  -1   0   15.20    3.40
   3   1   1  277.27   13.00
   3   1   1  303.37   13.50
   3   1   1  303.27   14.60
   3  -1   1  258.37   11.80
   3  -1   1  283.47   11.80
   3   1   2  982.10   32.10
   3   1   2  922.51   31.80
   3  -1   2  940.01   30.80
   3  -1   2  956.50   31.10
   3   1   3 2216.48   67.99
   3   1   3 2260.77   68.19
   3   1   4 2134.09   66.49
   3   1   4 2032.50   66.19
   3   1   5  935.11   38.70
  -3   1  -5  974.60   31.60
  -3  -1  -5  981.60   31.70
  -3   1  -6  386.46   16.60
   3   1   6  402.96   16.20
  -3  -1  -6  361.16   16.20
   3  -1   6  375.36   15.40
  -3   1  -7   34.90    4.90
   3   1   7   48.10    5.60
  -3  -1  -7   37.00    5.40
   3  -1   7   37.00    4.60
   3   1   8   14.50    2.60
  -3  -1  -8   23.90    5.20
   3  -1   8   16.00    2.60
   3  -2  -8    3.60    1.40
   3   2  -7  858.81   28.40
   3  -2  -7  890.51   25.60
   3  -2  -7  850.91   28.60
   3   2  -6   14.80    3.90
   3  -2  -6   12.80    2.40
   3  -2  -6   18.30    4.30
   3   2  -5  824.02   27.70
   3   2  -5  917.81   53.99
   3   2  -5  808.62   34.40
  -3   2   5  828.62   34.50
   3  -2  -5  872.61   38.00
   3  -2  -5  952.30   55.49
  -3  -2   5  916.51   42.00
   3  -2  -5  881.31   28.30
  -3   2   4   77.89    7.40
   3   2  -4   67.39    8.60
   3   2  -4   83.49   18.40
  -3   2   4   67.19    8.60
   3  -2  -4   65.99   10.00
   3  -2  -4   75.19   17.50
   3   2  -3   24.60    9.70
   3   2  -3   39.10    6.00
   3  -2  -3   23.40    5.50
   3  -2  -3   39.80   11.80
   3   2  -2  759.72   36.80
   3   2  -2  826.52   27.30
   3  -2  -2  800.92   27.60
   3  -2  -2  734.23   35.70
   3   2  -1 2815.52   91.99
   3   2  -1 3017.90   84.19
   3  -2  -1 3005.80   82.79
   3  -2  -1 2832.12   89.49
   3   2   0  726.43   25.10
   3   2   0  727.23   25.40
   3   2   0  717.83   30.10
   3  -2   0  705.03   22.90
   3   2   1 5499.85  152.18
   3   2   1 5316.27  151.98
   3   2   1 5515.75  156.68
   3   2   2  177.68   11.20
   3   2   2  169.38   12.60
   3   2   2  169.08   11.20
   3   2   3  624.14   24.80
   3   2   3  593.24   24.70
   3   2   4   50.99    9.10
   3   2   4   49.00    8.90
   3   2   5  502.55   26.90
  -3   2  -5  560.34   20.00
  -3  -2  -5  517.25   19.70
   3   2   6   69.19    6.60
  -3   2  -6   88.89    8.00
   3  -2   6   90.99    7.20
  -3  -2  -6   94.09    6.60
  -3  -2  -6  100.49    8.20
   3   2   7  880.61   28.20
  -3   2  -7  852.21   28.90
   3  -2   7  849.81   27.50
  -3  -2  -7  850.91   29.00
   3   2   8   10.40    2.50
   3  -2   8   10.10    2.00
   3  -3  -8   32.50    2.60
   3   3  -7   11.20    3.40
   3  -3  -7   10.20    3.60
   3  -3  -7   13.80    2.30
   3   3  -6   27.70    4.50
   3  -3  -6   26.20    2.90
   3  -3  -6   29.00    4.70
  -3   3   5  636.94   29.60
   3   3  -5  642.94   22.20
   3   3  -5  659.13   45.90
   3  -3  -5  727.53   50.09
   3  -3  -5  665.63   22.80
   3  -3  -5  649.64   32.90
  -3   3   4  308.47   17.00
   3   3  -4  315.77   20.50
   3   3  -4  292.67   29.00
  -3   3   4  285.17   15.70
   3  -3  -4  307.87   19.20
   3  -3  -4  316.47   30.50
   3   3  -3 1885.81   56.89
   3   3  -3 1861.61   73.89
  -3   3   3 1853.21   57.59
   3  -3  -3 1855.91   59.59
   3  -3  -3 1769.42   73.59
   3   3  -2  547.95   20.50
   3   3  -2  515.75   30.70
   3  -3  -2  495.15   29.50
   3  -3  -2  523.45   21.10
   3   3  -1 1341.17   42.60
   3   3  -1 1381.16   52.69
   3  -3  -1 1256.77   48.00
   3  -3  -1 1406.56   41.40
   3   3   0  466.15   18.60
   3   3   0  453.95   18.80
   3   3   0  425.36   23.50
   3   3   1  133.29   13.50
   3   3   1  139.59   10.20
   3   3   1  132.99   10.40
   3   3   2  655.23   25.20
   3   3   2  637.74   29.60
   3   3   2  653.53   25.30
   3   3   3 2504.55   77.29
   3   3   3 2512.65   77.39
   3   3   4  392.46   29.30
   3   3   4  500.75   24.20
   3   3   5  875.41   30.50
  -3   3  -5  948.21   30.40
   3   3   5  891.21   39.10
   3   3   5  954.40   30.00
   3  -3   5  903.81   29.50
  -3  -3  -5  934.51   30.50
  -3  -3  -5  909.81   28.70
   3   3   6  112.19    8.00
  -3   3  -6  121.49    8.60
  -3  -3  -6  112.19    7.10
  -3  -3  -6  109.99    8.40
   3  -3   6  112.59    7.60
  -3   3  -7    2.70    2.70
   3   3   7    1.60    2.90
   3  -3   7    6.50    2.80
  -3  -3  -7    3.00    3.30
   3   3   8    4.60    2.00
   3  -4  -8  105.19    4.20
   3  -4  -7  169.78    6.70
   3  -4  -6  801.02   23.70
   3   4  -4  227.88   27.00
  -3   4   4  216.98   14.80
   3  -4  -4  218.58   17.70
   3  -4  -4  230.18   26.80
   3   4  -3    1.90    8.80
  -3   4   3    4.10    2.50
  -3   4   3    5.00    3.40
   3  -4  -3   -0.20    8.40
   3  -4  -3    3.40    4.70
  -3   4   2  576.14   29.20
  -3   4   2  590.94   21.50
  -3   4   2  564.34   20.80
   3   4  -2  593.14   22.20
   3   4  -2  525.15   32.60
   3  -4  -2  598.44   23.50
   3  -4  -2  517.15   31.80
  -3   4   1  193.78   13.70
   3   4  -1  157.88   10.50
   3   4  -1  159.78   18.40
   3  -4  -1  173.18   15.80
   3   4   0 5974.30  162.38
   3   4   0 5781.92  162.58
   3   4   0 5577.34  172.58
   3   4   1 1075.59   37.30
   3   4   1 1006.30   44.50
   3   4   1 1107.39   37.30
   3   4   2 3485.45  102.39
   3   4   2 3514.05  102.49
   3   4   2 3355.66  110.59
   3   4   3   83.09   13.70
   3   4   3   98.69   11.50
   3   4   3   80.49   10.20
   3   4   4   -2.10    6.10
   3   4   5   60.39    5.80
   3   4   5   62.29    5.70
  -3  -4  -5   58.89    5.40
   3  -4   5   52.99    5.30
   3   4   6  352.46   15.10
  -3  -4  -6  378.36   14.10
   3  -4   6  352.96   14.30
   3   4   7  143.19    8.30
   3  -4   7  136.59    7.30
   3  -5  -7    9.30    1.80
   3  -5  -6   50.99    3.80
   3   5  -5    6.40    3.00
   3  -5  -5   13.60    2.20
  -3   5   4 1999.90   81.49
   3   5  -4 1803.42   55.39
  -3   5   4 1951.90   64.29
   3   5  -4 1939.11   85.59
   3  -5  -4 1876.91   85.99
   3   5  -3  183.88   23.80
  -3   5   3  206.98   20.40
  -3   5   3  230.68   13.60
   3  -5  -3  202.68   17.60
   3  -5  -3  169.98   23.30
   3   5  -2 3458.15  122.29
  -3   5   2 3854.01  116.29
   3  -5  -2 3427.06  119.29
   3   5  -1    7.50    7.90
   3   5  -1    4.30    3.80
   3   5   0  700.73   27.00
   3   5   0  679.83   36.90
   3   5   0  660.23   26.00
   3   5   1   65.69    9.10
   3   5   1   95.59   16.10
   3   5   1   69.79    8.60
   3   5   2 1824.42   59.89
   3   5   2 1824.32   71.09
   3   5   2 1779.12   59.69
   3   5   3   36.00    8.30
   3   5   3   17.80    6.60
   3   5   3   32.50   10.60
   3   5   4 2078.49   70.49
   3  -5   4 2011.50   59.59
   3   5   5   45.50    5.40
   3   5   5   55.79    5.70
  -3  -5  -5   53.79    5.50
  -3  -5  -5   46.50    5.50
   3  -5   5   44.10    5.00
   3   5   6  351.06   14.60
  -3  -5  -6  365.46   13.80
   3  -5   6  344.87   13.80
   3   5   7   10.30    3.00
   3  -5   7   13.70    2.60
   3  -6  -7  296.97    9.60
   3  -6  -6  478.65   14.90
   3   6  -5  463.95   17.40
   3  -6  -5  465.25   14.60
   3   6  -4  200.58   10.10
   3   6  -3   13.20   11.20
  -3   6   3   17.60    8.70
   3   6  -2  141.49   22.90
  -3   6   2  137.29   16.00
   3   6  -1 1572.94   68.69
   3   6   0 1453.75   63.29
   3   6   1 1145.99   42.30
   3   6   1 1225.88   56.89
   3   6   1 1133.29   41.50
   3   6   2  587.94   27.90
   3   6   2  574.34   27.20
   3   6   2  605.04   38.60
   3   6   3  237.48   26.10
   3   6   3  260.87   19.00
   3  -6   3  229.88   15.10
   3   6   4   81.59    7.30
   3  -6   4   83.39    6.30
  -3  -6  -4   78.99    6.00
   3  -6   4   83.99    7.20
  -3  -6  -4   91.29    7.50
   3   6   5  226.18   10.80
   3   6   5  217.38   11.00
   3  -6   5  212.48   10.10
  -3  -6  -5  215.08   10.10
  -3  -6  -5  212.68   10.60
   3   6   6  205.88   10.90
   3   6   6  203.88   10.20
   3  -6   6  192.08    9.10
  -3  -6  -6  196.58    9.50
   3   6   7  354.46   13.00
   3  -7  -7   14.30    1.60
   3  -7  -6   11.40    1.90
   3   7  -5  439.26   16.70
   3  -7  -5  436.96   13.90
   3   7  -4   21.40    4.30
   3  -7  -4   16.20    2.60
   3  -7  -4   24.80    3.90
   3   7  -3 2424.76   70.19
  -3   7   3 2496.45   94.59
   3   7  -3 2713.73  122.49
   3  -7  -3 2238.38   68.89
   3   7  -2   67.19   17.60
   3   7  -2   78.79    6.60
   3   7  -1  787.62   47.90
   3   7   0   55.49   15.70
   3   7   1  129.79   21.50
   3   7   2  106.19   21.20
   3   7   2   81.49   11.50
   3  -7   2   98.59    7.20
   3   7   3 1549.05   45.80
   3   7   3 1442.26   56.09
  -3  -7  -3 1500.35   44.90
  -3  -7  -3 1480.75   43.70
   3  -7   3 1479.95   46.10
   3  -7   3 1504.25   44.50
   3   7   4    8.40    3.50
  -3  -7  -4   10.30    4.00
   3  -7   4    5.90    2.90
   3  -7   4   11.90    4.10
  -3  -7  -4    8.00    3.30
   3   7   5 1169.28   36.30
  -3   7  -5 1087.99   36.60
   3   7   5 1177.48   37.00
   3  -7   5 1236.38   37.10
   3  -7   5 1215.58   36.10
  -3  -7  -5 1178.08   35.50
  -3  -7  -5 1155.68   36.10
   3   7   6   29.50    3.90
   3   7   6   38.90    4.20
  -3  -7  -6   38.00    4.00
   3  -7   6   34.80    3.70
   3   7   7   10.30    2.20
   3   8  -6  255.57   10.80
   3  -8  -6  290.37    9.00
   3   8  -5  401.06   15.60
   3  -8  -5  387.06   16.00
   3  -8  -5  406.36   12.80
   3   8  -4  182.18    9.80
   3  -8  -4  158.68    6.40
   3  -8  -4  153.78    8.60
   3   8  -3   -0.20    2.80
   3  -8  -3    1.20    2.40
  -3  -8   3    2.20    2.90
   3  -8  -3    0.50    2.50
   3   8  -2  136.99    8.10
   3  -8  -2  137.49    7.10
  -3  -8   2  129.99    8.00
   3  -8  -2  121.59    7.10
   3   8  -1 1221.68   39.50
   3   8  -1 1099.89   64.89
   3  -8  -1 1386.36   41.20
   3  -8  -1 1555.34   42.80
   3   8   0  994.50   57.99
   3   8   1 1234.88   65.39
   3  -8   1 1143.49   39.00
   3  -8   1 1206.78   38.70
   3  -8   1 1348.77   37.80
  -3  -8  -2  797.72   25.60
   3  -8   2  762.12   25.00
   3  -8   2  766.12   25.40
   3  -8   2  753.12   26.60
   3  -8   2  768.22   26.40
   3   8   3  431.76   17.60
   3  -8   3  437.56   17.30
   3  -8   3  443.46   16.40
   3  -8   3  444.06   18.00
  -3  -8  -3  430.76   15.60
  -3  -8  -3  446.16   17.20
   3   8   4   61.79    6.60
  -3  -8  -4   66.09    6.70
  -3  -8  -4   62.49    5.70
   3  -8   4   54.79    5.20
   3  -8   4   67.09    7.30
   3   8   5  110.49    7.50
   3   8   5  106.39    7.10
  -3   8  -5   93.29    7.70
  -3  -8  -5  105.09    6.80
   3  -8   5  112.79    6.60
  -3  -8  -5   99.19    7.10
   3  -8   5  124.69    8.40
   3   8   6  117.89    6.60
   3   8   6  122.49    6.70
  -3  -8  -6  120.69    6.20
   3  -9  -6    8.90    1.30
   3   9  -5   -0.10    2.70
   3  -9  -5   -0.20    2.80
   3  -9  -5    1.80    1.40
   3   9  -4  596.04   21.10
   3  -9  -4  591.14   18.20
   3  -9  -4  615.74   20.80
   3   9  -3  138.59    8.40
   3  -9  -3  133.49    7.90
   3  -9  -3  126.09    7.90
   3  -9  -3  135.39    5.60
   3   9  -2 1142.39   34.40
   3  -9  -2 1063.29   33.60
   3  -9  -2 1074.19   33.30
   3  -9  -2 1061.49   30.80
  -3  -9   2 1081.09   34.30
   3  -9  -1   48.70    4.90
   3  -9  -1   31.50    3.00
  -3  -9   1   24.30    5.30
  -3  -9   1   33.20    4.80
   3  -9  -1   25.00    5.20
   3  -9  -1   36.70    4.70
   3  -9   0   34.10    4.30
   3  -9   0   32.30    4.80
  -3  -9   0   28.20    5.70
   3  -9   0   38.60    6.30
   3  -9   0   20.30    2.70
  -3  -9   0   29.40    4.80
   3  -9   0   23.00    3.90
  -3  -9  -1   -1.30    3.80
   3  -9   1   13.80    3.90
  -3  -9  -1    3.80    2.80
   3  -9   1    1.80    3.50
   3  -9   1    9.10    3.30
   3  -9   1    3.30    2.00
   3  -9   1    2.20    2.40
   3  -9   1    2.60    3.60
   3  -9   2  765.22   28.80
  -3  -9  -2  759.52   25.90
   3  -9   2  779.12   25.30
   3  -9   2  823.82   27.20
   3  -9   2  800.02   25.90
   3  -9   2  766.02   24.10
  -3  -9  -2  721.83   28.20
   3  -9   2  782.62   27.40
   3   9   3   52.59    6.30
   3  -9   3   45.20    5.80
  -3  -9  -3   60.59    6.70
   3  -9   3   56.39    6.90
  -3  -9  -3   43.70    4.40
   3  -9   3   46.00    5.00
   3   9   4 1072.59   34.70
  -3  -9  -4 1063.89   32.90
  -3  -9  -4 1089.09   34.10
   3  -9   4 1147.79   33.60
   3  -9   4 1104.59   35.40
   3   9   5  122.09    7.50
   3   9   5  110.39    6.80
  -3   9  -5  117.69    7.50
   3  -9   5  123.39    6.20
  -3  -9  -5  119.49    6.50
  -3  -9  -5  106.79    6.90
   3   9   6  196.08    8.20
  -3  -9  -6  184.68    7.40
   3  10  -5   35.10    4.20
   3 -10  -5   31.50    3.60
   3 -10  -5   37.80    2.60
   3  10  -4  108.49    7.50
   3 -10  -4  112.69    7.10
   3 -10  -4  115.19    5.20
   3  10  -3    6.10    3.10
   3 -10  -3    4.60    3.20
   3 -10  -3    5.70    1.70
   3 -10  -3    5.60    3.20
   3  10  -2  192.58    9.80
   3 -10  -2  182.68    9.70
   3 -10  -2  190.68    7.20
   3 -10  -2  190.98    9.30
  -3 -10   2  188.58   12.00
   3 -10  -1  145.29   10.70
   3 -10  -1  163.78    8.40
   3 -10  -1  153.38    8.70
  -3 -10   1  156.18   11.60
   3 -10  -1  159.18    6.60
  -3 -10   1  156.88    9.30
   3 -10   0 1048.80   31.10
   3 -10   0 1050.89   36.80
   3 -10   0 1052.69   32.80
  -3 -10   0 1063.09   36.70
   3 -10   0 1050.19   34.10
   3 -10   0 1089.39   33.60
   3 -10   1  411.96   15.60
  -3 -10  -1  427.66   19.30
   3 -10   1  420.96   19.60
   3 -10   1  428.96   16.30
   3 -10   1  417.36   14.40
   3 -10   1  418.46   17.30
   3 -10   1  442.66   17.40
  -3 -10  -1  410.46   16.00
   3  10   2  376.46   15.40
   3 -10   2  364.66   15.60
   3 -10   2  350.86   13.80
  -3 -10  -2  327.37   16.70
   3 -10   2  360.56   14.10
  -3 -10  -2  358.16   14.70
   3 -10   2  358.86   12.80
   3 -10   2  357.76   17.30
   3 -10   2  371.06   16.10
   3  10   3   12.80    3.80
   3 -10   3   20.40    4.50
   3 -10   3   15.60    4.50
   3 -10   3   18.20    5.10
  -3 -10  -3   14.20    4.30
   3 -10   3   21.40    3.40
   3  10   4   29.30    4.20
  -3  10  -4   27.70    4.40
   3 -10   4   43.70    4.00
   3 -10   4   37.40    5.00
  -3 -10  -4   36.50    4.00
   3 -10   4   42.00    5.70
  -3 -10  -4   25.80    4.00
  -3  10  -5    9.20    3.90
   3  10   5   11.80    2.70
   3  10   5   12.70    2.50
  -3 -10  -5   13.90    2.40
   3  11  -4  105.79    6.40
   3 -11  -4  123.39    6.50
   3 -11  -4  105.19    4.70
   3  11  -3  670.03   22.10
   3  11  -3  656.63   22.30
   3 -11  -3  644.94   22.00
   3 -11  -3  686.53   21.80
   3 -11  -3  685.63   19.90
   3  11  -2  171.88    8.90
   3 -11  -2  186.18    9.40
   3 -11  -2  192.08    9.00
   3 -11  -2  174.88    7.00
  -3 -11   2  194.58   11.60
   3 -11  -1  511.95   17.30
  -3 -11   1  513.15   20.90
   3 -11  -1  469.85   20.40
   3 -11  -1  463.75   17.60
   3 -11  -1  485.45   15.50
   3 -11   0    2.80    1.80
   3 -11   0    0.60    2.70
  -3 -11   0    3.50    4.60
   3 -11   0   -2.10    3.40
   3 -11   0    1.20    4.20
   3  11   1   37.00    4.80
   3 -11   1   62.29    5.20
   3 -11   1   53.29    4.40
  -3 -11  -1   40.40    6.50
   3 -11   1   58.89    8.00
  -3 -11  -1   35.90    4.60
   3 -11   1   60.49    6.60
   3 -11   1   45.10    5.10
  -3  11  -2  114.89    7.90
   3  11   2  112.39    7.80
   3 -11   2  112.69    8.30
   3 -11   2  116.49    8.50
   3 -11   2  110.09    6.50
   3 -11   2  123.19    9.80
   3 -11   2  112.99    6.90
   3 -11   2  120.59    6.00
  -3 -11  -2  110.79    7.60
  -3  11  -3  767.12   25.20
   3  11   3  767.02   25.30
  -3 -11  -3  769.12   24.90
   3 -11   3  810.72   25.60
   3 -11   3  783.72   25.80
   3 -11   3  779.62   24.10
   3  11   4   63.09    5.10
  -3  11  -4   60.49    5.30
  -3 -11  -4   63.19    4.90
   3  12  -3   -0.60    1.90
   3 -12  -3   -0.70    2.50
   3 -12  -3    5.10    1.40
   3 -12  -3    5.50    2.30
   3  12  -2    0.50    2.30
   3 -12  -2    1.50    1.40
   3 -12  -2    2.10    2.30
   3 -12  -2    4.50    2.60
   3  12  -1  471.95   16.70
   3 -12  -1  457.15   18.90
   3 -12  -1  457.75   16.40
   3 -12  -1  466.95   14.50
   3 -12  -1  460.35   15.70
   3  12   0    7.50    2.90
   3 -12   0    9.40    2.00
   3 -12   0   13.60    3.70
   3 -12   0    8.30    2.70
   3 -12   0    8.00    4.50
   3 -12   0    9.40    3.10
   3 -12   1 1172.78   33.80
   3 -12   1 1129.99   34.50
   3 -12   1 1244.18   38.70
   3 -12   1 1185.68   36.20
   3 -12   1 1150.58   35.20
  -3  12  -2   21.00    3.10
   3  12   2   23.70    3.60
  -3 -12  -2   15.30    3.30
   3 -12   2   30.90    4.40
   3 -12   2   21.60    2.80
   3 -12   2   17.70    4.20
   3 -12   2   23.20    3.50
   3  12   3  137.59    6.80
  -3 -12  -3  138.19    6.60
   3 -12   3  138.79    7.10
   3  13  -1  140.39    6.50
   3 -13  -1  151.28    5.40
   3 -13  -1  134.09    8.50
   3 -13  -1  158.48    8.90
   3 -13  -1  143.09    7.60
   3 -13   0   22.70    2.10
   3 -13   0   21.00    2.80
   3 -13   0   13.70    3.60
   3 -13   0   16.60    3.60
   3 -13   1    3.50    2.90
   3 -13   1    1.90    2.50
   4   0  -8  306.07    9.80
   4   0  -7    1.00    1.70
   4   0  -7   -2.90    2.50
   4   0  -6  895.01   27.00
   4   0  -6  955.20   30.50
  -4   0   5   12.60    4.30
   4   0  -5    1.30    2.50
   4   0  -5   -0.60    9.80
   4   0  -5   -1.50    5.10
   4   0  -4  410.96   21.70
   4   0  -4  442.36   34.80
   4   0  -3    0.20    3.40
   4   0  -3   -2.20    6.60
   4   0  -2  580.34   22.60
   4   0  -2  565.14   30.80
   4   0  -1    2.10    3.70
   4   0  -1    3.00    4.40
   4   0   0 7307.67  201.98
   4   0   1   -3.40    3.10
   4   0   1   -5.20    3.40
   4   0   2 1591.84   49.90
   4   0   2 1541.55   49.60
   4   0   3    1.50    4.20
   4   0   3    5.30    4.80
   4   0   5   -1.80    2.50
  -4   0  -5   -1.90    2.90
   4   0   6  929.31   30.40
  -4   0  -6  913.21   31.40
   4   0   7    1.70    2.70
  -4   0  -7   -1.10    2.80
   4   0   8  529.05   16.80
   4  -1  -8  103.59    4.40
   4   1  -7   82.29    7.10
   4   1  -7   92.09    4.80
   4  -1  -7   88.39    4.70
   4  -1  -7   98.59    7.60
   4   1  -6   81.49    4.80
   4   1  -6   91.89    7.30
   4  -1  -6   90.69    4.90
   4  -1  -6   89.59    7.20
   4   1  -5  187.28   28.90
   4   1  -5  143.39   13.70
   4   1  -5  147.39    8.50
  -4   1   5  154.88   12.60
   4  -1  -5  130.79   23.50
   4  -1  -5  148.39    8.70
   4  -1  -5  157.38   15.30
  -4  -1   5  150.98   11.70
   4   1  -4  884.81   51.09
   4   1  -4  918.41   35.50
   4  -1  -4  858.21   35.70
   4  -1  -4  966.60   51.49
   4   1  -3 1536.65   65.89
   4   1  -3 1500.95   50.29
   4  -1  -3 1625.04   65.09
   4  -1  -3 1547.75   51.19
   4   1  -2 3189.08   91.19
   4   1  -2 2941.11  101.79
   4  -1  -2 3140.29   90.59
   4  -1  -2 3125.09  101.29
   4   1  -1 1740.23   52.49
   4   1  -1 1642.94   58.79
   4  -1  -1 1738.43   51.49
   4  -1  -1 1587.64   56.29
   4   1   0   60.19    8.70
   4   1   0   56.49    6.90
   4   1   0   66.99    7.30
   4  -1   0   61.49    6.50
   4  -1   1   59.69    5.50
   4  -1   1   62.69    5.80
   4   1   2 2035.50   64.69
   4   1   2 2115.39   64.99
   4  -1   2 2173.18   63.69
   4   1   3  626.84   25.90
   4   1   3  615.84   26.00
  -4   1  -4 1522.45   46.50
   4   1   4 1306.57   48.40
   4   1   4 1387.86   48.60
  -4  -1  -4 1264.07   47.20
  -4   1  -5  589.44   22.20
   4   1   5  583.34   21.30
   4   1   5  598.34   21.40
   4  -1   5  619.74   21.40
  -4  -1  -5  604.84   22.30
  -4   1  -6  450.25   18.50
   4   1   6  447.86   17.70
  -4  -1  -6  435.16   18.40
   4  -1   6  460.65   17.60
  -4   1  -7   32.50    5.10
   4   1   7   23.30    3.90
   4  -1   7   20.60    3.70
  -4  -1  -7   26.70    4.80
   4   1   8   11.00    2.20
   4  -1   8    5.40    1.90
   4  -2  -8   27.90    2.20
   4   2  -7  686.63   23.90
   4  -2  -7  752.52   21.20
   4  -2  -7  678.33   24.10
   4   2  -6   34.60    5.00
   4   2  -6   39.70    3.50
   4  -2  -6   44.10    3.60
   4  -2  -6   42.50    5.60
   4   2  -5 1680.53   49.10
  -4   2   5 1586.54   56.79
   4   2  -5 1637.24   57.69
   4  -2  -5 1714.83   49.50
  -4  -2   5 1608.94   55.19
   4  -2  -5 1640.74   60.59
  -4   2   4   52.79    7.90
   4   2  -4   65.89   17.80
   4   2  -4   47.50    8.00
   4  -2  -4   43.70    6.80
   4  -2  -4   39.30    8.50
   4  -2  -4   51.09   15.90
   4   2  -3  154.88   11.00
   4   2  -3  147.09   20.20
   4  -2  -3  150.08   12.10
   4  -2  -3  183.48   20.90
   4   2  -2   -1.80    6.30
   4   2  -2   -3.50    3.00
   4  -2  -2    6.60    7.30
   4  -2  -2    5.20    4.00
   4   2  -1 1627.54   58.99
   4   2  -1 1571.74   50.29
   4  -2  -1 1557.64   48.50
   4   2   0 1176.88   38.20
   4   2   0 1156.68   38.50
   4  -2   0 1071.89   35.40
   4   2   1 4364.86  124.59
   4   2   1 4338.37  124.89
   4   2   2   90.69    9.80
   4   2   2   87.59    9.30
   4   2   3 1371.36   47.10
   4   2   3 1366.76   47.30
   4   2   4   37.20    8.00
  -4   2  -4   37.90    5.00
  -4  -2  -4   56.29    6.10
   4   2   5  161.88   17.00
   4   2   5  189.98   10.10
   4   2   5  179.98    9.80
  -4   2  -5  180.18   10.50
  -4  -2  -5  192.98    9.30
  -4  -2  -5  186.98   10.70
   4  -2   5  155.88    9.20
   4   2   6    7.10    3.60
  -4   2  -6    4.30    3.40
   4  -2   6    1.00    3.00
  -4  -2  -6    3.10    3.70
  -4   2  -7  670.53   23.60
   4   2   7  701.63   23.00
  -4  -2  -7  663.73   23.70
   4  -2   7  694.03   22.70
   4   2   8   30.10    3.10
   4  -3  -8    9.70    1.40
   4   3  -7   76.59    6.40
   4  -3  -7   69.59    6.80
   4  -3  -7   76.79    4.20
   4   3  -6   10.00    3.40
   4  -3  -6   12.40    3.90
   4  -3  -6   12.30    2.20
   4   3  -5  467.25   17.20
   4  -3  -5  472.35   17.70
   4  -3  -5  446.06   15.20
   4   3  -4  691.93   46.40
   4   3  -4  673.63   28.20
   4   3  -4  653.33   21.90
  -4   3   4  669.83   28.00
   4  -3  -4  714.93   45.80
   4  -3  -4  622.24   21.90
   4  -3  -4  647.84   30.40
   4   3  -3 2818.92   82.29
   4   3  -3 2754.22  102.09
   4  -3  -3 2663.63   83.59
   4  -3  -3 2571.64   98.39
   4   3  -2  227.68   13.40
   4   3  -2  219.78   21.90
   4  -3  -2  243.48   13.70
   4  -3  -2  236.48   20.90
   4   3  -1 1363.46   53.49
   4   3  -1 1300.27   43.00
   4  -3  -1 1197.48   40.30
   4   3   0    3.70    6.20
   4   3   0   -0.50    3.90
   4   3   0    1.30    3.60
   4   3   1   93.09    9.00
   4   3   1   87.89    9.40
   4   3   2  497.95   22.40
   4   3   2  442.86   21.40
   4   3   3 2642.34   82.29
   4   3   3 2593.14   81.89
  -4   3  -4 1101.59   35.10
   4   3   4 1128.39   43.50
  -4  -3  -4 1104.19   35.30
  -4   3  -5 1614.84   48.70
   4   3   5 1603.94   48.10
   4   3   5 1587.44   48.50
   4  -3   5 1584.64   47.80
  -4  -3  -5 1541.45   48.60
  -4  -3  -5 1596.64   46.70
   4   3   6   51.09    5.50
  -4   3  -6   57.49    6.10
  -4  -3  -6   72.29    7.40
  -4  -3  -6   52.59    5.20
   4  -3   6   48.50    5.20
   4   3   7   52.09    5.30
  -4   3  -7   43.00    4.80
  -4  -3  -7   61.29    6.00
   4  -3   7   41.00    4.40
   4  -4  -8  121.99    4.80
   4  -4  -7   48.40    3.30
   4  -4  -6  827.12   24.10
   4  -4  -5   97.29    4.40
   4   4  -4  278.67   12.00
  -4   4   4  281.17   17.10
   4   4  -4  308.07   32.30
   4  -4  -4  325.07   32.30
   4  -4  -4  260.57   19.90
   4   4  -3  108.49   10.00
   4   4  -3  118.69   21.10
  -4   4   3  126.39    9.90
  -4   4   3  129.89    9.00
   4  -4  -3  100.19   19.20
   4  -4  -3  112.49   11.60
   4   4  -2 1038.70   38.20
  -4   4   2 1171.68   46.10
   4   4  -2 1057.99   51.69
   4   4  -1  823.02   31.60
   4   4  -1  886.61   43.10
   4   4   0 3389.26   97.59
   4   4   0 3233.28   97.59
   4   4   0 3212.38  108.09
   4   4   1  984.40   35.40
   4   4   1  912.41   42.00
   4   4   1  953.40   35.50
   4   4   2 3167.88   95.59
   4   4   2 3089.49   95.19
   4   4   3  186.78   15.30
   4   4   3  196.08   15.80
   4   4   4   -6.50    5.90
   4   4   5  152.18    9.50
   4   4   5  158.68    8.90
   4  -4   5  152.58    8.80
  -4  -4  -5  146.19    8.20
   4   4   6  635.94   21.70
   4   4   6  571.04   21.10
  -4  -4  -6  620.84   20.40
   4  -4   6  582.04   20.80
   4   4   7  118.49    7.10
   4  -4   7  122.49    6.70
   4  -5  -7    2.10    1.30
   4  -5  -6    1.70    1.40
   4   5  -5   13.30    3.60
   4  -5  -5   12.40    1.90
   4   5  -4 1561.34   44.90
  -4   5   4 1427.46   82.29
   4  -5  -4 1412.76  100.29
   4   5  -3  108.99   21.70
  -4   5   3  133.09   16.30
   4  -5  -3   87.59   17.50
   4   5  -2 2501.75   95.69
   4   5  -1  252.07   15.10
   4   5  -1  282.07   25.40
   4   5   0  481.95   22.90
   4   5   0  476.35   22.00
   4   5   0  504.45   31.80
   4   5   1    1.10    6.80
   4   5   1    3.10    4.30
   4   5   1    3.70    5.00
   4   5   2  724.03   39.80
   4   5   2  740.13   31.50
   4   5   2  739.63   31.90
   4   5   3   18.60    8.00
   4   5   4 2097.89   61.19
   4   5   4 2031.80   59.89
   4   5   4 2034.90   73.59
   4  -5   4 2084.89   60.69
  -4  -5  -4 2045.90   59.09
  -4  -5  -4 2104.69   60.19
   4  -5   4 2074.09   60.19
   4   5   5   87.59    7.40
   4   5   5   63.29    6.00
   4  -5   5   81.29    6.60
  -4  -5  -5   81.89    6.60
   4   5   6  243.58   11.30
   4   5   6  234.48   11.00
   4  -5   6  230.68   10.50
  -4  -5  -6  233.88   10.20
   4   5   7   53.49    4.60
   4  -5   7   59.39    4.30
   4  -6  -7  266.67    8.40
   4  -6  -6  403.46   12.40
   4   6  -5  250.47   11.80
   4  -6  -5  284.57    9.10
   4   6  -4  279.27   12.10
   4   6  -3    2.40    2.30
   4   6  -3   -3.60    9.50
   4   6  -2   90.99   19.40
   4   6  -1 1484.05   67.59
   4   6   0  617.14   27.50
   4   6   0  643.04   40.20
   4   6   1 2287.17   87.59
   4   6   1 2256.47   73.69
   4   6   1 2218.18   72.69
   4   6   2  816.72   46.20
   4   6   2  842.52   35.90
   4   6   3  445.76   25.10
   4   6   3  405.56   16.10
   4  -6   3  410.26   15.30
  -4  -6  -3  406.26   15.60
   4  -6   3  390.06   16.40
   4   6   4    2.60    2.80
   4   6   4    0.40    2.80
  -4  -6  -4   -4.00    2.70
   4  -6   4   -0.30    3.50
   4  -6   4    2.80    2.60
  -4  -6  -4    5.20    3.70
   4   6   5   10.10    3.60
   4   6   5   12.50    3.50
  -4  -6  -5   10.00    3.60
   4  -6   5   11.20    3.40
   4   6   6  227.78   10.70
   4   6   6  230.28   10.80
  -4  -6  -6  244.08   10.00
   4  -6   6  237.28   10.20
   4   6   7  252.97    9.80
   4  -6   7  268.27   11.20
   4  -7  -7   22.40    1.70
   4  -7  -6    2.00    1.20
   4   7  -5  332.27   13.60
   4  -7  -5  327.37   10.50
   4   7  -4    1.20    3.10
   4   7  -3 1682.83   48.30
   4   7  -3 1537.45   47.90
   4   7  -2   16.00   12.00
   4   7  -2    7.80    3.10
   4   7  -1 1194.78   61.89
   4   7   0   -1.10    9.50
   4   7   1  202.58   24.90
   4  -7   1  222.28   10.90
   4   7   2   -9.80    9.10
   4   7   2    9.10    3.30
   4   7   2    5.40    6.30
   4  -7   2    3.70    3.10
  -4  -7  -2    9.20    3.60
   4  -7   2   -0.20    2.20
   4  -7   2    3.40    2.60
   4   7   3 1482.25   43.90
  -4  -7  -3 1422.26   43.00
   4  -7   3 1440.56   43.10
   4  -7   3 1370.76   43.30
   4  -7   3 1381.66   42.40
   4  -7   3 1388.26   44.00
   4   7   4   17.90    4.40
   4   7   4   11.90    3.20
  -4  -7  -4   18.60    3.70
   4  -7   4   16.40    4.60
  -4  -7  -4   20.00    4.80
   4  -7   4   19.10    3.90
   4   7   5  908.41   29.10
   4   7   5  885.31   28.20
  -4  -7  -5  858.21   27.30
   4  -7   5  900.21   28.00
   4  -7   5  857.61   28.70
   4   7   6    1.20    2.30
   4   7   6    0.00    2.20
   4  -7   6    0.20    2.00
  -4  -7  -6    1.90    2.40
   4   8  -6  199.48   11.20
   4  -8  -6  198.68    6.40
   4   8  -5  316.07   13.00
   4  -8  -5  319.37   10.10
   4   8  -4  152.48    8.90
   4   8  -3   35.00    5.10
   4   8  -3   37.40    4.90
   4  -8  -3   29.80    4.20
   4   8  -2   40.50    5.10
   4  -8  -2   45.70    4.60
   4  -8  -2   41.60    4.60
   4   8  -1  690.43   23.10
   4  -8  -1  712.23   23.40
   4  -8  -1  699.23   22.90
   4  -8   0  915.41   28.70
   4  -8   0  911.71   29.10
   4  -8   0  903.51   32.00
   4   8   1 1066.49   36.40
   4   8   1 1116.79   34.40
   4  -8   1 1170.28   34.90
  -4  -8  -1 1018.20   38.80
   4  -8   1 1136.29   35.60
   4  -8   1 1125.19   33.60
  -4  -8  -1 1123.39   34.00
   4  -8   1 1092.29   40.20
   4  -8   1 1075.49   35.60
   4  -8   1 1087.39   33.80
   4   8   2  442.06   17.60
  -4  -8  -2  473.35   17.50
   4  -8   2  462.55   18.20
   4  -8   2  437.76   16.70
   4  -8   2  465.75   20.30
   4  -8   2  473.55   17.50
   4  -8   2  436.46   15.30
   4  -8   2  458.65   18.60
   4   8   3   51.89    5.90
   4  -8   3   54.09    5.50
   4  -8   3   52.79    5.80
   4  -8   3   61.69    4.90
   4  -8   3   63.99    6.10
   4  -8   3   57.39    6.80
   4  -8   3   55.79    6.90
  -4  -8  -3   70.09    6.50
   4   8   4    1.90    2.90
   4   8   4    1.70    2.40
   4  -8   4    0.80    2.60
  -4  -8  -4    7.80    3.60
   4  -8   4   -0.60    3.70
  -4  -8  -4    0.50    2.60
  -4   8  -5   90.59    6.90
   4   8   5   92.99    7.10
   4   8   5   95.09    6.40
  -4  -8  -5   90.49    5.90
   4  -8   5  110.29    7.30
   4  -8   5   88.29    6.20
   4   8   6  110.09    6.00
   4   8   6  104.89    5.90
   4  -8   6  106.69    5.10
  -4  -8  -6  104.69    5.30
   4   9  -5   15.10    3.30
   4  -9  -5   10.60    1.50
   4   9  -4  640.64   21.10
   4  -9  -4  603.84   20.40
   4  -9  -4  576.04   17.80
   4   9  -3   41.10    5.10
   4   9  -3   41.10    4.90
   4  -9  -3   59.09    5.50
   4  -9  -3   42.20    3.00
   4   9  -2 1415.26   42.20
   4  -9  -2 1355.36   38.80
   4  -9  -2 1405.86   42.00
   4  -9  -2 1390.46   41.60
  -4  -9   1   72.99    8.50
   4  -9  -1   59.49    5.80
   4  -9  -1   62.89    7.60
   4  -9  -1   60.39    3.80
   4  -9  -1   74.49    5.90
   4   9   0  165.78    9.10
   4  -9   0  160.58   11.40
   4  -9   0  158.18    6.90
   4  -9   0  160.58    9.00
  -4  -9   0  172.68   12.00
   4  -9   0  168.58    9.90
   4  -9   0  161.78    8.60
   4   9   1   61.19    5.70
   4  -9   1   54.29    5.50
   4  -9   1   60.79    6.80
   4  -9   1   60.19    6.60
  -4  -9  -1   50.49    7.40
  -4  -9  -1   59.19    7.60
   4  -9   1   47.40    4.70
   4  -9   1   68.09    8.30
   4  -9   1   60.49    4.50
   4   9   2  672.03   23.80
   4  -9   2  682.73   24.90
   4  -9   2  696.83   26.50
  -4  -9  -2  684.43   23.40
   4  -9   2  653.33   22.70
   4  -9   2  691.33   24.50
   4  -9   2  696.23   23.50
   4  -9   2  695.73   21.60
   4   9   3   49.70    5.90
   4  -9   3   34.00    3.60
   4  -9   3   49.20    6.00
   4  -9   3   44.80    6.20
  -4  -9  -3   57.29    6.10
   4  -9   3   52.49    5.20
   4  -9   3   46.20    4.70
   4  -9   3   51.59    6.60
   4   9   4 1132.79   35.50
  -4  -9  -4 1085.59   34.50
   4  -9   4 1183.98   36.00
   4  -9   4 1118.89   34.10
   4   9   5    8.10    2.40
  -4   9  -5    8.70    3.10
   4   9   5    8.80    2.80
  -4  -9  -5    9.60    2.40
   4  -9   5    6.70    2.10
   4 -10  -5  164.48    5.20
   4  10  -4  181.98    8.70
   4 -10  -4  167.88    6.20
   4 -10  -4  168.48    8.20
   4  10  -3    0.00    2.80
   4  10  -3    1.80    2.80
   4 -10  -3    0.60    2.60
   4 -10  -3    3.60    2.90
   4 -10  -3    2.90    1.40
   4  10  -2  120.39    7.90
   4  10  -2  118.49    7.30
   4 -10  -2  121.29    7.60
   4 -10  -2  109.79    5.00
   4 -10  -2  122.69    7.20
   4  10  -1   64.29    6.30
   4 -10  -1   52.99    5.70
   4 -10  -1   53.19    3.60
   4 -10  -1   34.40    6.00
   4 -10  -1   54.89    5.20
  -4 -10   1   57.69    7.70
   4  10   0 1323.97   40.80
   4 -10   0 1292.47   38.00
   4 -10   0 1332.47   40.50
  -4 -10   0 1335.27   43.60
   4 -10   0 1341.07   41.30
   4 -10   0 1340.67   39.90
   4 -10   0 1318.67   43.80
   4  10   1  171.48    8.90
   4 -10   1  175.38    8.70
   4 -10   1  156.98   10.20
   4 -10   1  161.38    9.00
   4 -10   1  171.88    9.80
   4 -10   1  164.48   11.80
   4 -10   1  169.88    7.50
   4  10   2  811.62   27.10
   4 -10   2  850.11   30.00
   4 -10   2  802.92   26.20
   4 -10   2  811.72   28.20
   4 -10   2  859.01   27.90
   4 -10   2  814.42   26.70
   4 -10   2  841.82   25.20
  -4 -10  -2  802.12   26.60
   4  10   3  130.89    8.10
   4 -10   3  120.29    8.70
   4 -10   3  108.79    6.60
   4 -10   3  132.79    8.20
  -4 -10  -3  112.89    7.50
   4 -10   3  119.89    6.80
   4 -10   3  132.59    9.00
   4  10   4    5.10    2.80
  -4  10  -4    3.10    3.00
   4 -10   4   -4.00    1.60
  -4 -10  -4    3.00    2.80
   4 -10   4   -0.20    2.90
   4  10   5   17.30    3.20
   4 -11  -4   48.80    2.50
   4  11  -3  699.83   22.60
   4  11  -3  677.93   22.80
   4 -11  -3  744.13   20.60
   4 -11  -3  694.83   22.60
   4 -11  -3  738.83   22.50
   4  11  -2  188.68    9.20
   4 -11  -2  191.88    8.80
   4 -11  -2  167.28    8.80
   4 -11  -2  179.38    6.70
   4  11  -1  292.57   12.40
   4 -11  -1  297.87   11.60
   4 -11  -1  292.87    9.90
   4 -11  -1  277.97   14.40
   4 -11  -1  284.37   12.00
   4  11   0   36.20    4.60
   4 -11   0   26.40    4.00
   4 -11   0   25.90    3.60
   4 -11   0   33.70    5.70
   4 -11   0   31.90    3.10
   4 -11   0   40.70    5.20
   4 -11   1    0.70    3.20
   4 -11   1    4.50    2.90
   4 -11   1    2.70    2.40
   4 -11   1    1.20    1.80
   4  11   2   56.29    5.30
  -4 -11  -2   63.19    5.60
   4 -11   2   52.29    4.80
   4 -11   2   52.09    5.30
   4 -11   2   60.99    5.90
   4 -11   2   53.99    4.20
   4 -11   2   49.90    6.30
   4 -11   2   54.19    4.60
   4  11   3  451.35   16.00
  -4  11  -3  431.06   15.70
   4 -11   3  432.46   16.20
   4 -11   3  467.95   17.00
   4 -11   3  485.35   16.30
  -4 -11  -3  459.55   15.60
   4 -11   3  437.46   14.90
   4  11   4  111.59    5.90
   4 -12  -3   28.90    2.60
   4  12  -2   20.00    3.10
   4 -12  -2   17.30    1.90
   4 -12  -2   20.20    2.90
   4 -12  -2   15.50    2.90
   4  12  -1  483.15   16.90
   4 -12  -1  495.95   16.30
   4 -12  -1  493.25   18.70
   4 -12  -1  497.95   15.00
   4 -12  -1  500.35   16.80
   4  12   0   57.79    4.80
   4 -12   0   65.89    7.20
   4 -12   0   64.99    3.80
   4 -12   0   60.99    5.30
   4 -12   0   63.89    4.70
   4 -12   0   64.29    5.20
   4 -12   1  699.23   20.60
   4 -12   1  681.43   22.50
   4 -12   1  693.03   21.50
   4 -12   1  684.83   21.90
   4 -12   1  717.83   24.60
   4  12   2   20.80    3.70
   4 -12   2   27.20    2.80
   4 -12   2   29.00    3.00
   4 -12   2   33.10    2.70
   4 -12   2   37.40    4.70
   4 -12   2   30.40    3.70
  -4 -12  -2   30.10    4.10
   5   0  -7   -0.90    2.50
   5   0  -7    3.90    1.70
   5   0  -6 1276.17   40.30
   5   0  -6 1309.17   36.90
   5   0  -5   -0.10    1.40
   5   0  -5    2.40    2.90
   5   0  -4  610.84   42.20
   5   0  -4  576.54   20.10
   5   0  -4  543.85   27.50
   5   0  -3    0.00    3.70
   5   0  -3   -0.70    7.60
   5   0  -2   88.19    9.10
   5   0  -2   89.29   14.80
   5   0  -1    3.10    4.20
   5   0   0 2902.21   86.39
   5   0   1    6.80    5.20
   5   0   1    1.50    4.40
   5   0   2 4342.87  126.19
   5   0   2 4370.66  126.09
  -5   0  -4    6.10    3.10
   5   0   5    1.20    2.70
   5   0   5   -2.10    2.60
  -5   0  -5   -1.30    3.10
   5   0   6 1256.07   37.70
  -5   0  -6 1139.19   38.40
   5   0   7    3.70    2.70
  -5   0  -7   -1.30    2.80
   5  -1  -8  149.09    5.30
   5   1  -7   16.20    3.60
   5   1  -7   15.20    2.20
   5  -1  -7   13.30    3.60
   5  -1  -7   16.80    2.20
   5   1  -6    9.60    3.50
   5   1  -6   11.80    2.40
   5  -1  -6   11.70    2.10
   5  -1  -6    7.40    3.60
   5   1  -5  225.28   10.90
   5   1  -5  197.28    8.00
   5  -1  -5  213.78    7.70
   5  -1  -5  225.68   11.10
   5   1  -4 1045.90   57.29
   5   1  -4  945.01   30.30
   5   1  -4  879.81   37.70
   5  -1  -4  976.60   30.60
   5  -1  -4 1006.60   55.09
   5  -1  -4  898.61   38.80
   5   1  -3 1429.46   65.29
   5   1  -3 1408.46   49.30
   5  -1  -3 1506.95   63.89
   5  -1  -3 1373.46   49.40
   5   1  -2 1541.05   62.19
   5   1  -2 1532.85   50.79
   5  -1  -2 1460.75   49.70
   5  -1  -2 1528.25   60.29
   5   1  -1  682.83   33.60
   5   1  -1  664.23   27.00
   5  -1  -1  686.53   26.30
   5   1   0 1142.99   39.20
   5  -1   0 1102.49   37.70
   5   1   1  169.68   12.30
   5   1   1  168.98   11.90
   5   1   2  615.04   25.60
   5   1   2  605.94   25.80
   5   1   3 1075.99   39.60
   5   1   3 1029.40   39.10
  -5   1  -4 1928.11   57.59
  -5  -1  -4 1927.21   57.59
   5   1   5  570.24   20.60
   5   1   5  564.14   21.00
  -5   1  -5  585.84   22.00
  -5  -1  -5  581.74   22.00
   5  -1   5  566.84   20.40
   5  -1   5  542.85   20.60
  -5   1  -6  441.86   18.10
   5   1   6  430.26   17.10
  -5  -1  -6  461.65   18.40
   5  -1   6  447.56   17.20
  -5   1  -7   55.39    5.50
   5   1   7   71.69    5.90
  -5  -1  -7   66.19    6.30
   5  -1   7   71.19    5.80
   5  -2  -8    1.20    1.20
   5   2  -7  523.55   18.90
   5  -2  -7  525.85   19.30
   5  -2  -7  563.74   16.30
   5   2  -6   40.90    5.00
   5   2  -6   50.49    3.90
   5  -2  -6   48.40    3.40
   5  -2  -6   35.80    5.00
   5   2  -5 1174.88   36.90
   5   2  -5 1125.59   33.90
   5  -2  -5 1225.18   37.40
   5  -2  -5 1187.48   33.20
   5   2  -4   12.50   10.50
   5   2  -4    1.30    2.50
   5   2  -4    5.30    5.00
   5  -2  -4    0.60    2.70
   5  -2  -4    9.60    5.40
   5  -2  -4    0.40    9.70
   5   2  -3   29.50   12.70
   5   2  -3   43.80    8.00
   5  -2  -3   33.50   12.30
   5  -2  -3   17.20    5.70
   5   2  -2    1.90    4.20
   5   2  -2    0.50    7.20
   5  -2  -2    4.70    4.20
   5   2  -1 3034.50   97.69
   5   2  -1 2925.81   87.39
   5  -2  -1 2675.33   84.49
   5   2   0  103.99   10.60
   5   2   1 3918.01  116.19
   5   2   1 4006.10  115.99
   5   2   2  519.55   23.70
   5   2   2  515.15   23.50
   5   2   3  667.33   28.70
   5   2   3  586.04   27.50
  -5   2  -4   11.60    3.30
   5   2   4   15.80    7.00
  -5  -2  -4   13.60    3.90
  -5   2  -5  123.79    9.00
   5   2   5  118.39    8.20
   5   2   5  125.19    8.90
   5  -2   5  128.29    8.20
   5  -2   5  117.19    7.80
  -5  -2  -5  118.79    9.10
   5   2   6    6.90    3.20
  -5   2  -6    8.10    3.70
   5   2   6    3.40    2.80
   5  -2   6    4.40    3.20
  -5  -2  -6    2.70    3.60
   5   2   7  346.57   13.40
  -5   2  -7  332.07   13.80
  -5  -2  -7  362.16   14.30
   5  -2   7  374.26   13.40
   5   3  -7   82.59    6.10
   5  -3  -7   78.79    6.80
   5  -3  -7   90.89    4.10
   5   3  -6   -0.80    2.50
   5  -3  -6   -0.10    2.90
   5  -3  -6    1.40    1.40
   5   3  -5  296.67   13.00
   5   3  -5  287.27   10.60
   5  -3  -5  297.97    9.60
   5  -3  -5  304.17   13.40
  -5   3   4  257.97   15.80
   5   3  -4  226.48   16.60
   5   3  -4  260.07   31.00
   5   3  -4  227.48   11.00
   5   3  -4  266.57   11.40
   5  -3  -4  253.17   11.50
   5  -3  -4  257.57   19.10
   5  -3  -4  285.77   30.50
   5   3  -3 2895.11  108.69
   5   3  -3 2748.32   86.69
   5  -3  -3 2740.93   87.59
   5   3  -2 1134.09   40.70
   5   3  -2 1099.29   52.79
   5  -3  -2 1039.70   38.60
   5   3  -1 1740.03   57.49
   5   3  -1 1756.02   67.89
   5   3   0   95.19   13.80
   5   3   0   90.89    9.90
   5   3   1  158.88   12.40
   5   3   1  188.88   13.70
   5   3   2   63.59    9.40
   5   3   2   67.19   10.00
   5   3   3 1645.44   57.49
   5   3   4  406.36   24.00
   5   3   4  388.96   15.60
  -5   3  -4  400.26   16.30
   5   3   4  415.06   16.40
  -5  -3  -4  398.36   16.50
   5  -3   4  413.96   15.90
  -5  -3  -4  394.16   16.30
   5  -3   4  407.36   15.50
   5   3   5  792.92   27.80
  -5   3  -5  830.72   28.10
   5   3   5  812.62   27.10
   5  -3   5  799.72   27.50
  -5  -3  -5  817.92   26.00
  -5  -3  -5  801.12   28.10
   5  -3   5  825.12   27.10
   5   3   6  122.69    8.20
  -5   3  -6  133.19    8.80
   5   3   6  126.29    8.30
  -5  -3  -6  124.49    8.70
   5  -3   6  136.99    8.20
   5   3   7   39.70    4.10
  -5   3  -7   35.00    4.00
  -5  -3  -7   47.60    5.00
   5  -3   7   57.59    4.80
   5  -4  -7   92.09    3.90
   5  -4  -6  562.44   16.70
   5  -4  -5  263.07    8.60
   5   4  -4  630.84   21.90
  -5   4   4  656.93   28.40
   5  -4  -4  628.24   31.80
   5   4  -3   25.50   12.30
   5   4  -3   13.00    5.60
  -5   4   3   24.90    6.40
   5   4  -2  154.38   20.80
   5   4  -2  135.19   12.00
   5   4  -1  738.33   40.20
   5   4  -1  753.72   30.80
   5   4   0 2597.84   81.69
   5   4   0 2624.04   92.39
   5   4   1  749.53   30.90
   5   4   1  765.22   31.60
   5   4   2 2098.89   70.29
   5   4   2 2214.98   71.49
   5   4   3   74.29   11.60
   5   4   4  206.28   10.90
   5   4   4  210.68   10.10
  -5  -4  -4  206.28    9.50
   5  -4   4  202.68   10.10
   5  -4   4  193.28   10.10
   5   4   5   44.40    5.80
   5   4   5   42.60    5.00
   5  -4   5   57.99    6.10
  -5  -4  -5   53.69    5.10
   5   4   6  382.76   14.90
   5   4   6  363.16   14.90
   5  -4   6  373.96   14.60
   5   4   7   84.59    5.50
   5  -4   7   93.89    5.40
   5  -5  -7    1.30    1.00
   5  -5  -6    1.60    1.20
   5   5  -5   56.49    5.60
   5   5  -4  639.74   22.00
   5   5  -3   93.19   20.70
   5   5  -3   87.29    6.20
   5   5  -2 1991.80   82.79
   5   5  -2 1917.81   64.69
   5   5  -1   93.59   11.10
   5   5  -1  108.19   18.90
   5   5   0  265.27   17.30
   5   5   0  267.97   24.40
   5   5   1   20.90    7.10
   5   5   1   18.70    6.10
   5   5   2  576.14   28.40
   5   5   3   74.39    6.80
   5   5   3   66.19   11.10
  -5  -5  -3   84.99    7.10
   5  -5   3   72.19    5.90
   5  -5   3   58.99    5.80
   5  -5   3   69.59    6.80
   5   5   4 2093.59   63.39
   5   5   4 2124.39   62.29
   5  -5   4 2154.58   62.79
   5  -5   4 2202.58   63.09
   5  -5   4 2152.98   62.59
  -5  -5  -4 2161.68   61.29
   5   5   5   57.29    6.50
   5   5   5   44.40    5.10
   5  -5   5   71.89    6.30
  -5  -5  -5   66.49    5.40
   5   5   6  578.04   20.40
   5   5   6  590.84   20.20
   5  -5   6  593.94   19.80
   5   5   7    2.90    1.80
   5  -5   7    0.30    1.50
   5  -6  -7  318.87    9.30
   5  -6  -6  208.68    6.80
   5   6  -5  448.86   16.70
   5   6  -4  149.69    8.80
   5   6  -3   -2.20    2.00
   5   6  -3    5.50    2.80
   5   6  -2  138.49   23.80
   5   6  -2  126.19    7.60
   5   6  -1  946.71   51.29
   5   6  -1  841.12   44.10
   5   6   0  913.11   49.80
   5   6   0  927.21   37.70
   5   6   1 2129.59   71.89
   5   6   1 2154.18   85.19
   5  -6   1 2108.09   62.59
   5   6   2  678.53   32.00
   5  -6   2  632.84   26.30
   5  -6   2  637.94   23.10
   5  -6   2  683.13   25.70
   5   6   3  479.85   18.30
   5  -6   3  527.25   22.90
   5  -6   3  452.05   17.40
   5  -6   3  461.45   16.10
   5  -6   3  477.65   18.60
   5  -6   3  457.35   17.80
  -5  -6  -3  495.65   17.80
   5  -6   3  492.15   18.10
   5   6   4   18.70    4.10
   5  -6   4   18.20    4.10
   5  -6   4   29.40    4.30
   5  -6   4   18.00    3.50
   5   6   5   60.79    6.00
   5   6   5   56.79    5.30
  -5  -6  -5   76.49    5.80
   5  -6   5   55.59    5.30
   5   6   6  305.37   12.10
   5   6   6  292.77   11.70
   5  -6   6  280.37   11.30
   5  -7  -6   24.10    1.80
   5   7  -5  317.27   12.90
   5   7  -4   35.30    5.00
   5   7  -3 1701.73   48.70
   5   7  -3 1536.85   48.10
   5   7  -2   23.70    3.90
   5   7  -2   20.80    4.00
   5   7  -1 1187.68   36.20
   5   7  -1 1218.28   37.40
   5  -7  -1 1196.98   36.30
   5  -7  -1 1159.68   35.70
   5   7   0    5.40    9.50
   5  -7   0   -2.40    3.00
   5  -7   0    5.80    2.70
   5  -7   0   -0.30    2.10
   5   7   1   44.70    9.40
   5   7   1   62.59   21.70
   5  -7   1   56.69    6.00
   5  -7   1   62.39    5.40
   5  -7   1   58.89    5.50
   5  -7   1   48.90    5.90
   5   7   2    8.40    3.00
   5  -7   2   10.20    2.60
   5  -7   2    8.20    3.20
   5  -7   2   12.90    3.10
  -5  -7  -2    6.50    3.50
   5  -7   2   11.00    4.20
   5  -7   2   14.20    4.00
   5  -7   2    8.00    4.30
   5   7   3 1594.54   48.50
   5  -7   3 1607.74   48.00
   5  -7   3 1582.14   48.20
   5  -7   3 1585.54   50.39
   5  -7   3 1627.64   49.10
   5  -7   3 1585.34   47.40
   5  -7   3 1533.25   45.80
  -5  -7  -3 1620.74   47.70
   5   7   4    4.00    3.30
   5  -7   4    5.80    2.90
   5  -7   4    2.00    2.40
   5  -7   4    3.50    3.60
   5   7   5  912.71   29.70
   5   7   5  908.61   28.60
  -5  -7  -5  897.71   27.70
   5  -7   5  949.60   28.80
   5   7   6    1.90    2.10
   5   7   6    5.70    2.20
   5  -7   6    5.50    2.00
   5   8  -5  368.26   13.70
   5   8  -4  127.79    7.90
   5   8  -3   23.60    4.20
   5   8  -3   16.80    3.70
   5   8  -2   12.40    3.30
   5   8  -2   17.70    3.80
   5  -8  -2   18.70    3.40
   5  -8  -2   20.70    3.60
   5   8  -1  392.26   15.50
   5   8  -1  408.56   15.00
   5  -8  -1  394.36   15.00
   5  -8  -1  365.16   15.40
   5  -8  -1  388.86   14.40
   5  -8  -1  375.66   17.40
   5   8   0  660.33   22.30
   5  -8   0  617.34   19.30
   5  -8   0  643.64   24.90
   5  -8   0  641.44   22.00
   5  -8   0  642.94   21.40
   5  -8   0  649.04   22.90
   5  -8   0  586.24   22.50
   5   8   1 1123.79   34.80
   5  -8   1 1122.79   36.30
   5  -8   1 1125.59   38.50
   5  -8   1 1139.59   36.20
   5  -8   1 1100.49   34.30
   5  -8   1 1087.79   34.90
   5  -8   1 1089.49   32.60
   5   8   2  600.94   21.50
   5  -8   2  608.54   19.50
   5  -8   2  611.44   22.50
  -5  -8  -2  612.24   21.20
   5  -8   2  620.54   24.50
   5  -8   2  579.34   20.70
   5  -8   2  614.64   22.30
   5  -8   2  620.84   21.60
   5   8   3  156.08    9.30
   5  -8   3  138.39   10.00
   5  -8   3  138.79    9.00
   5  -8   3  133.39    9.90
   5  -8   3  145.69    7.20
  -5  -8  -3  138.99    8.80
   5  -8   3  143.99    8.40
   5  -8   3  149.69    8.30
   5   8   4   14.60    3.60
   5  -8   4   14.60    3.00
   5  -8   4    9.90    2.90
   5  -8   4   10.60    4.00
   5   8   5   90.09    6.70
  -5   8  -5   90.69    6.40
   5  -8   5   92.19    6.30
   5  -8   5   98.49    5.90
   5   9  -5    3.10    2.40
   5   9  -4  665.93   22.00
   5   9  -3   15.80    3.50
   5   9  -3   26.50    4.20
   5   9  -2 1376.86   41.60
   5   9  -2 1368.86   41.10
   5  -9  -2 1356.56   40.50
   5  -9  -2 1339.17   40.90
   5   9  -1   35.50    4.60
   5  -9  -1   49.00    5.30
   5  -9  -1   38.10    6.30
   5  -9  -1   31.90    4.10
   5  -9  -1   35.50    2.90
   5  -9  -1   27.70    6.20
   5   9   0  447.76   16.80
   5  -9   0  432.86   16.50
   5  -9   0  451.55   19.60
   5  -9   0  404.56   16.90
   5  -9   0  437.46   16.00
   5  -9   0  415.36   14.00
   5   9   1    1.00    2.50
   5  -9   1    2.70    3.80
   5  -9   1    3.20    2.70
   5  -9   1    1.10    3.20
   5  -9   1    1.00    1.90
   5  -9   1    0.50    2.70
   5  -9   1    2.10    4.20
   5   9   2  258.77   12.30
   5  -9   2  293.47   10.90
   5  -9   2  297.37   14.00
  -5  -9  -2  302.37   12.40
   5  -9   2  299.07   12.60
   5  -9   2  294.37   13.40
   5  -9   2  288.67   15.00
   5  -9   2  283.77   12.00
   5   9   3   36.10    5.00
   5  -9   3   34.70    4.40
   5  -9   3   31.90    5.10
   5  -9   3   25.70    3.70
   5  -9   3   37.50    3.70
   5  -9   3   45.00    5.70
  -5  -9  -3   46.40    5.30
   5  -9   3   32.60    4.80
   5   9   4  762.12   24.80
   5  -9   4  747.63   23.50
   5  -9   4  735.13   24.90
   5   9   5    1.20    2.20
   5  -9   5    5.50    1.80
   5  10  -4  119.69    6.50
   5  10  -3    2.80    2.70
   5  10  -3    4.00    2.50
   5 -10  -3    5.50    2.40
   5 -10  -3    2.40    1.20
   5  10  -2   91.09    6.70
   5  10  -2   80.29    6.10
   5 -10  -2   88.29    6.40
   5 -10  -2   90.59    4.10
   5 -10  -2   93.39    6.20
   5  10  -1  151.68    8.40
   5 -10  -1  127.79    5.50
   5 -10  -1  133.19    7.90
   5 -10  -1  134.09    7.50
   5 -10  -1  120.99    9.60
   5  10   0 1072.19   33.30
   5 -10   0 1046.70   33.70
   5 -10   0 1054.19   30.70
   5 -10   0 1084.09   36.20
   5 -10   0 1067.39   33.10
   5 -10   0 1039.70   32.50
   5  10   1  168.38    8.50
   5 -10   1  164.38    9.60
   5 -10   1  168.68    9.90
   5 -10   1  168.08    8.90
   5 -10   1  173.38    8.50
   5 -10   1  168.98    7.30
   5 -10   1  166.58   11.40
   5  10   2  726.83   24.60
   5 -10   2  787.32   24.40
   5 -10   2  771.22   25.50
  -5 -10  -2  737.63   24.10
   5 -10   2  760.22   25.80
   5 -10   2  753.92   27.30
   5 -10   2  766.62   23.00
   5 -10   2  757.02   24.60
   5  10   3   67.69    5.80
   5 -10   3   62.89    4.90
   5 -10   3   60.49    4.10
   5 -10   3   74.89    6.70
   5 -10   3   57.69    5.90
   5 -10   3   67.69    5.10
  -5 -10  -3   62.89    5.60
   5 -10   3   50.79    5.00
  -5  10  -4    4.80    2.60
   5  10   4    3.30    2.60
   5 -10   4    6.30    1.90
   5 -10   4    7.50    2.70
   5  11  -3  492.05   16.70
   5 -11  -3  492.65   16.60
   5 -11  -3  532.05   14.60
   5  11  -2   71.89    5.40
   5 -11  -2   69.29    5.20
   5 -11  -2   67.29    3.40
   5 -11  -2   66.89    5.00
   5  11  -1  357.36   13.50
   5 -11  -1  354.26   15.40
   5 -11  -1  347.37   13.20
   5 -11  -1  354.86   12.80
   5 -11  -1  338.47   11.10
   5  11   0    2.80    2.50
   5 -11   0    0.90    2.80
   5 -11   0    1.20    1.40
   5 -11   0    0.50    2.10
   5 -11   0    1.40    3.70
   5 -11   0   -2.50    2.20
   5 -11   1    1.90    2.30
   5 -11   1   10.20    2.60
   5 -11   1    4.90    3.20
   5 -11   1    6.10    3.90
   5 -11   1    2.20    4.50
   5 -11   1    5.80    1.80
   5 -11   2  181.28   10.00
   5 -11   2  166.38    7.80
   5 -11   2  178.78    9.10
   5 -11   2  178.58    7.00
   5 -11   2  172.48    8.80
   5 -11   2  172.98    7.60
   5  11   3  281.07   10.60
  -5  11  -3  290.37   13.80
   5 -11   3  288.37   11.40
   5 -11   3  326.37   15.20
   5 -11   3  268.87    9.80
   5 -11   3  251.37   11.80
   5 -11   3  282.37   10.70
   5  12  -2    0.30    1.70
   5  12  -1  352.46   12.30
   5 -12  -1  353.86   10.50
   5 -12  -1  337.17   12.10
   5 -12  -1  343.27   13.50
   5 -12  -1  326.57   11.60
   5  12   0   19.10    2.50
   5 -12   0   19.10    2.90
   5 -12   0   17.60    3.70
   5 -12   0   23.80    2.80
   5 -12   0   23.70    2.10
   5 -12   0   20.90    2.90
   5 -12   1  551.14   17.60
   5 -12   1  575.14   18.10
   5 -12   1  597.54   17.10
   5 -12   1  583.34   20.10
   5 -12   1  573.84   18.50
   5 -12   2   77.39    7.50
   5 -12   2   69.29    6.40
   6   0  -7   -1.60    2.20
   6   0  -7   -0.40    1.40
   6   0  -6 1234.68   34.60
   6   0  -6 1187.78   38.00
   6   0  -5    0.10    3.10
   6   0  -5    1.30    1.50
   6   0  -4  919.61   29.90
   6   0  -4  945.61   56.09
   6   0  -4  847.62   38.70
   6   0  -3   -0.90    2.40
   6   0  -3    3.90    4.60
   6   0  -2  274.97   17.00
   6   0  -1    5.10    4.30
   6   0   0 3277.97   98.59
   6   0   1    1.10    3.90
   6   0   3   13.00    4.00
   6   0   4  138.89    8.80
   6   0   4  145.59    8.10
  -6   0  -4  134.19    9.00
   6   0   5   -1.50    3.00
  -6   0  -5    1.90    3.30
   6   0   5   -0.20    2.60
  -6   0  -6   66.59    6.60
   6   0   6   88.89    7.00
   6   0   6   71.19    6.00
   6   0   7   -0.20    2.00
  -6   0  -7   -1.90    2.40
   6   1  -7   10.30    2.80
   6   1  -7   12.70    2.00
   6  -1  -7    8.00    3.00
   6  -1  -7   13.70    1.90
   6   1  -6   -1.10    2.50
   6   1  -6    0.40    1.70
   6  -1  -6   -1.30    2.80
   6  -1  -6   -1.00    1.40
   6   1  -5  153.08    6.40
   6   1  -5  156.08    9.30
   6  -1  -5  150.28    5.90
   6  -1  -5  152.68    9.50
   6   1  -4 1031.10   33.20
   6   1  -4  958.10   42.10
   6  -1  -4 1228.98   72.89
   6  -1  -4 1046.20   33.40
   6  -1  -4  965.00   42.70
   6   1  -3 1255.17   37.90
   6   1  -3 1156.18   45.60
   6   1  -3 1279.57   61.99
   6  -1  -3 1216.08   37.80
   6  -1  -3 1213.48   46.30
   6   1  -2 1738.03   59.69
   6  -1  -2 1804.12   59.39
   6   1  -1 1408.66   48.70
   6  -1  -1 1312.47   46.40
   6   1   0  453.85   22.00
   6  -1   0  446.56   21.00
   6   1   1   61.69    8.80
   6   1   2  505.65   23.80
   6   1   2  501.95   24.10
   6   1   3  594.84   27.00
   6   1   3  540.35   20.90
   6  -1   3  529.05   20.90
  -6   1  -4 1077.09   35.30
   6   1   4 1106.49   34.10
   6   1   4 1059.79   35.10
  -6  -1  -4 1080.89   35.40
   6  -1   4 1117.09   34.10
   6  -1   4 1082.89   35.00
   6   1   5  500.05   18.90
   6   1   5  538.45   20.10
  -6   1  -5  496.45   20.30
   6  -1   5  507.25   19.50
   6  -1   5  548.75   19.20
  -6  -1  -5  533.05   20.70
   6   1   6  213.98   10.20
  -6   1  -6  224.78   11.20
   6   1   6  197.98   10.20
   6  -1   6  200.48    9.80
  -6  -1  -6  193.78   11.00
   6  -1   6  215.78   10.10
  -6   1  -7    4.10    2.60
   6   1   7    3.30    2.30
  -6  -1  -7    4.40    2.90
   6  -1   7    4.00    2.20
   6   2  -7  283.87   12.60
   6   2  -7  328.57   10.40
   6  -2  -7  310.97   12.60
   6  -2  -7  327.57    9.90
   6   2  -6   31.20    3.00
   6   2  -6   28.00    4.50
   6  -2  -6   33.20    5.10
   6  -2  -6   33.10    2.80
   6   2  -5  856.11   28.90
   6   2  -5  871.31   25.80
   6  -2  -5  858.91   24.80
   6  -2  -5  900.71   29.50
   6   2  -4   20.80    3.70
   6   2  -4   27.80    4.70
   6  -2  -4   26.90    4.70
   6   2  -3  128.99   13.10
   6   2  -3  164.08   25.50
   6   2  -3  134.19    8.10
   6  -2  -3  136.39   13.60
   6  -2  -3  145.09    8.20
   6   2  -2   20.50    6.30
   6   2  -2   34.00   12.00
   6  -2  -2   21.60    6.40
   6   2  -1 1251.17   44.00
   6  -2  -1 1093.89   40.50
   6   2   0   96.79   11.60
   6   2   1 3514.45  106.89
   6   2   1 3554.44  106.59
   6   2   2   73.79   10.10
   6   2   2   92.99   10.90
   6   2   3 1078.69   41.90
   6   2   3 1081.49   35.00
   6  -2   3 1037.50   34.90
  -6   2  -4  112.29    8.40
   6   2   4  119.89    8.30
   6  -2   4  103.79    7.40
  -6  -2  -4  107.49    8.20
   6  -2   4  106.79    7.90
   6   2   5  284.27   12.50
   6   2   5  293.37   13.50
  -6   2  -5  286.07   13.80
  -6  -2  -5  292.37   13.90
   6  -2   5  286.17   12.60
   6  -2   5  270.67   12.70
   6   2   6   42.80    4.80
   6   2   6   46.60    5.10
  -6   2  -6   46.00    5.60
   6  -2   6   48.50    5.20
  -6  -2  -6   55.69    6.20
   6   2   7  913.51   27.60
   6  -2   7  920.41   27.70
   6  -3  -7  157.78    5.50
   6   3  -6    5.80    2.90
   6  -3  -6    3.00    3.20
   6  -3  -6    7.40    1.50
   6   3  -5   90.59    5.10
   6   3  -5   78.99    6.90
   6  -3  -5   73.29    7.00
   6  -3  -5   82.59    3.70
   6   3  -4  250.17   11.40
   6   3  -4  247.38   11.60
   6   3  -4  238.98    9.00
   6  -3  -4  242.48   11.80
   6   3  -3 1265.57   37.90
   6   3  -3 1244.78   37.50
   6   3  -3 1341.77   65.89
   6   3  -3 1228.68   46.70
   6  -3  -3 1119.39   45.80
   6  -3  -3 1172.68   37.80
   6   3  -2  702.33   32.00
   6   3  -2  774.52   44.60
   6   3  -1 1288.77   47.20
   6   3   0  139.89   12.40
   6   3   1   31.20    7.10
   6   3   1   42.50    7.80
   6   3   2   17.30    6.70
   6   3   2   16.20    6.60
   6  -3   2    3.90    5.70
  -6   3  -3 2133.79   61.49
   6   3   3 2103.09   71.39
   6  -3   3 2071.99   62.79
   6  -3   3 2137.79   63.99
  -6  -3  -3 2057.59   61.59
   6   3   4  184.78   10.60
  -6   3  -4  188.68   10.30
   6  -3   4  176.08    9.40
   6  -3   4  174.68   10.00
  -6  -3  -4  178.68   10.40
   6   3   5 2157.68   62.09
  -6   3  -5 2159.18   63.09
   6   3   5 2151.98   63.39
  -6  -3  -5 2113.19   63.29
   6  -3   5 2079.49   62.29
   6  -3   5 2126.69   62.09
   6   3   6  248.68   11.00
   6   3   6  243.88   11.40
  -6   3  -6  256.67   11.50
  -6  -3  -6  250.77   11.80
   6  -3   6  261.57   11.10
   6   3   7   91.19    5.20
   6  -3   7   88.69    5.00
   6  -4  -7  104.19    3.80
   6  -4  -6  678.53   19.40
   6   4  -5  190.38    9.80
   6  -4  -5  196.68    6.70
   6   4  -4  434.96   16.60
   6   4  -3   18.50   14.90
   6   4  -3   21.20    4.00
   6   4  -3    9.70    6.00
   6   4  -2  147.99   13.50
   6   4  -2  151.08    8.10
   6   4  -2  149.79   21.90
   6   4  -1  248.58   33.10
   6   4  -1  239.88   17.00
   6   4   0 1978.70   66.59
   6   4   1  681.03   30.60
   6   4   2 1072.59   42.30
   6  -4   2 1053.69   33.80
   6   4   3  508.65   19.20
   6   4   3  491.85   26.70
   6  -4   3  506.15   19.00
   6  -4   3  521.25   19.00
   6  -4   3  501.85   18.30
   6   4   4  138.39    9.10
   6  -4   4  122.29    8.30
   6  -4   4  118.39    7.80
   6   4   5    3.20    3.30
   6   4   5    6.70    2.90
   6  -4   5   -2.10    2.50
   6  -4   5    3.40    2.90
   6   4   6  194.18    9.10
   6   4   6  193.78    9.60
   6  -4   6  200.38    9.10
   6  -4   7   98.19    5.30
   6  -5  -6    4.10    1.00
   6   5  -5    1.00    2.70
   6   5  -4  828.92   27.20
   6   5  -3   36.60    4.80
   6   5  -2 1954.10   55.89
   6   5  -2 1882.21   82.99
   6   5  -2 1883.81   65.69
   6   5  -1   19.80    6.50
   6   5  -1   35.20   12.00
   6  -5  -1   24.00    4.40
   6   5   0  158.98   14.50
   6  -5   0  147.89    8.60
   6   5   1   59.59   10.50
   6  -5   1   52.69    5.70
   6   5   2  576.64   29.40
   6   5   2  629.34   21.50
   6  -5   2  637.74   21.60
   6  -5   2  577.84   21.70
   6  -5   2  588.74   20.40
   6   5   3  425.86   16.70
   6  -5   3  406.46   14.40
   6  -5   3  428.56   16.60
   6  -5   3  417.06   16.80
   6  -5   3  417.36   16.30
   6  -5   3  431.46   15.90
   6  -5   3  393.76   18.00
   6   5   4 1046.30   33.70
   6  -5   4 1017.00   32.30
   6  -5   4 1043.60   33.10
   6  -5   4  999.30   32.70
   6   5   5   89.19    8.20
   6   5   5   83.29    7.20
   6  -5   5   83.39    6.20
   6  -5   5   90.89    6.50
   6   5   6  442.96   15.90
   6   5   6  428.96   15.20
   6  -5   6  453.65   15.40
   6  -6  -6  180.58    5.60
   6   6  -5  456.85   16.50
   6   6  -4  163.48    9.10
   6   6  -3  109.19    7.40
   6   6  -3  110.29    7.40
   6   6  -2   90.79    6.60
   6   6  -2   85.89    6.70
   6   6  -1  644.54   21.40
   6   6  -1  635.64   20.70
   6   6  -1  582.44   29.30
   6  -6  -1  547.75   21.40
   6   6   0 1036.90   43.50
   6  -6   0 1123.19   35.40
   6  -6   0 1128.59   34.30
   6   6   1 2481.35   84.09
   6  -6   1 2473.25   72.09
   6  -6   1 2633.54   73.19
   6  -6   1 2526.05   73.99
   6  -6   1 2567.04   73.99
   6   6   2  354.46   15.00
   6  -6   2  394.96   16.00
   6  -6   2  373.86   13.30
  -6  -6  -2  408.96   15.10
   6  -6   2  361.46   17.60
   6  -6   2  390.26   14.80
   6  -6   2  391.46   16.30
   6  -6   2  391.46   15.50
   6   6   3  693.03   24.30
   6  -6   3  711.43   24.80
   6  -6   3  687.63   23.40
   6  -6   3  714.53   24.20
   6  -6   3  677.43   21.90
   6  -6   3  675.13   25.90
   6  -6   3  698.83   24.00
   6   6   4    4.50    3.40
   6  -6   4    6.00    3.40
   6  -6   4    1.60    2.60
   6  -6   4    3.40    2.90
   6   6   5   36.00    4.90
   6  -6   5   35.00    5.00
   6  -6   5   47.80    5.00
   6   6   6   98.49    5.60
   6   6   6   91.29    5.90
   6  -6   6   93.39    5.30
   6   7  -5  111.89    6.70
   6   7  -4    2.50    2.90
   6   7  -3 1526.65   46.50
   6   7  -3 1578.74   46.60
   6   7  -2   36.80    4.60
   6   7  -2   31.80    4.60
   6   7  -1 1929.01   56.49
   6   7  -1 1953.60   57.39
   6  -7  -1 1939.81   57.59
   6  -7  -1 1936.01   59.79
   6  -7  -1 1960.30   56.79
   6   7   0    4.30    2.70
   6  -7   0    5.40    2.70
   6  -7   0    5.60    2.60
   6  -7   0    6.20    3.30
   6  -7   0    7.40    3.70
   6  -7   0    6.40    1.90
   6  -7   0    2.90    3.80
   6   7   1   50.49    5.40
   6  -7   1   53.79    6.40
   6  -7   1   54.89    5.70
   6  -7   1   66.09    8.00
   6  -7   1   60.29    5.60
   6  -7   1   54.59    6.10
   6  -7   1   55.99    4.30
   6   7   2   74.89    6.40
   6  -7   2   55.29    5.70
   6  -7   2   66.29    5.00
   6  -7   2   51.19    5.10
   6  -7   2   64.59    6.90
   6  -7   2   50.09    7.00
   6  -7   2   56.49    6.20
  -6  -7  -2   83.29    6.80
   6   7   3 1218.98   37.90
   6  -7   3 1169.68   37.40
   6  -7   3 1180.38   39.50
   6  -7   3 1199.38   36.80
   6  -7   3 1177.48   35.20
   6  -7   3 1219.18   37.40
   6  -7   3 1218.58   38.30
   6   7   4   -0.20    2.80
   6  -7   4   -0.20    2.20
   6  -7   4   -0.20    3.00
   6  -7   4    1.70    2.50
   6   7   5  702.93   23.00
   6  -7   5  668.23   21.80
   6  -7   6    0.00    1.30
   6   8  -5  293.57   11.10
   6   8  -4   51.79    5.00
   6   8  -3   57.19    5.70
   6   8  -3   45.60    5.10
   6   8  -2   70.59    6.30
   6   8  -2   78.79    6.30
   6   8  -1  244.78   11.50
   6  -8  -1  256.67   13.80
   6  -8  -1  252.97   11.30
   6  -8  -1  259.47   11.90
   6   8   0  264.87   12.10
   6  -8   0  261.17   14.40
   6  -8   0  266.57    9.50
   6  -8   0  274.27   12.80
   6  -8   0  253.57   12.60
   6  -8   0  272.57   11.30
   6  -8   0  265.97   11.90
   6   8   1 1130.99   35.10
   6  -8   1 1141.69   36.40
   6  -8   1 1148.79   35.40
   6  -8   1 1101.69   32.70
   6  -8   1 1129.99   36.20
   6  -8   1 1113.89   38.50
   6  -8   1 1077.79   34.40
   6   8   2  404.16   16.70
   6  -8   2  453.45   17.20
   6  -8   2  460.75   15.20
   6  -8   2  442.36   19.70
   6  -8   2  448.46   16.50
   6  -8   2  475.95   18.00
   6  -8   2  479.35   18.30
   6   8   3  195.88   10.00
   6  -8   3  185.08    9.40
   6  -8   3  190.88   10.00
   6  -8   3  181.48    9.10
   6  -8   3  183.28    8.00
   6  -8   3  187.68   11.20
   6  -8   3  198.98   10.90
   6   8   4   54.19    5.40
   6  -8   4   64.29    5.20
   6  -8   4   74.89    6.50
   6  -8   4   64.59    5.20
   6   8   5  124.39    7.10
   6  -8   5  128.69    6.00
   6   9  -4  556.74   18.40
   6   9  -3   15.90    3.30
   6   9  -3   10.70    3.00
   6   9  -2  711.93   23.40
   6   9  -2  675.13   22.60
   6   9  -1    0.80    2.70
   6  -9  -1    0.90    2.50
   6  -9  -1    3.60    1.40
   6  -9  -1   -1.30    3.40
   6  -9  -1    3.60    2.40
   6  -9  -1   -0.40    2.90
   6   9   0  136.39    8.10
   6  -9   0  125.99   10.20
   6  -9   0  124.49    8.50
   6  -9   0  134.79    8.60
   6  -9   0  127.09    7.30
   6  -9   0  124.09    7.80
   6  -9   0  122.69    5.70
   6   9   1    5.50    2.80
   6  -9   1    8.50    2.80
   6  -9   1    1.90    2.50
   6  -9   1    6.50    3.80
   6  -9   1    4.70    3.40
   6  -9   1    5.90    4.70
   6  -9   1    5.10    2.10
   6  -9   2  143.69    8.10
   6  -9   2  130.09    9.10
   6  -9   2  143.99    6.60
   6  -9   2  134.19   10.20
   6  -9   2  139.09    8.70
   6  -9   2  143.09    7.60
   6   9   3   99.39    6.70
   6  -9   3   93.89    6.30
   6  -9   3  103.09    5.40
   6  -9   3  106.39    7.70
   6  -9   3   99.09    7.60
   6  -9   3  100.89    6.30
   6  -9   3   93.29    6.80
   6   9   4  764.32   23.70
   6  -9   4  709.73   22.40
   6  -9   4  711.73   22.30
   6  -9   4  752.12   23.70
   6  10  -3   51.19    4.50
   6  10  -3   50.99    4.50
   6  10  -2  126.59    6.60
   6  10  -2  127.99    7.20
   6 -10  -2  115.59    5.20
   6  10  -1   75.59    6.00
   6 -10  -1   84.79    6.00
   6 -10  -1   59.59    6.60
   6 -10  -1   78.19    3.70
   6 -10  -1   80.79    5.50
   6  10   0  624.84   21.00
   6 -10   0  613.84   18.50
   6 -10   0  609.44   21.00
   6 -10   0  632.34   20.20
   6 -10   0  610.24   20.60
   6 -10   0  604.34   23.10
   6  10   1  229.48    9.60
   6 -10   1  222.28   10.50
   6 -10   1  225.88    9.90
   6 -10   1  218.38   10.80
   6 -10   1  208.28    9.40
   6 -10   1  230.88   12.30
   6 -10   1  217.58    8.30
   6 -10   2  626.64   22.80
   6 -10   2  646.14   19.40
   6 -10   2  649.24   21.80
   6 -10   2  649.43   21.50
   6 -10   2  629.94   20.80
   6 -10   2  627.44   20.30
   6  10   3   62.19    5.10
   6 -10   3   63.09    5.70
   6 -10   3   67.69    5.10
   6 -10   3   61.39    4.50
   6 -10   3   54.89    4.10
   6 -10   3   72.69    5.80
   6 -10   3   62.99    3.70
   6  11  -2  100.49    5.70
   6 -11  -2  107.49    3.80
   6  11  -1  546.15   17.80
   6 -11  -1  542.45   19.20
   6 -11  -1  524.15   17.50
   6 -11  -1  537.05   17.10
   6 -11  -1  527.45   15.60
   6  11   0   10.90    2.50
   6 -11   0   10.50    2.80
   6 -11   0    9.90    3.50
   6 -11   0   12.70    1.80
   6 -11   0   10.70    2.30
   6 -11   0   10.00    2.60
   6 -11   1    3.70    2.00
   6 -11   1    2.70    2.50
   6 -11   1   -0.40    2.80
   6 -11   1    4.50    2.20
   6 -11   1    3.20    1.40
   6 -11   2   18.20    2.30
   6 -11   2   23.80    3.10
   6 -11   2   20.30    2.50
   6 -11   2   17.60    2.00
   6 -11   2   16.60    3.20
   7   0  -7    2.50    1.20
   7   0  -6  893.71   25.10
   7   0  -6  840.92   28.20
   7   0  -5    3.00    3.30
   7   0  -5    0.50    1.50
   7   0  -4 1190.08   36.90
   7   0  -4 1104.49   32.30
   7   0  -3   -2.40    2.80
   7   0  -3    0.00    5.10
   7   0  -3    1.90    2.70
   7   0  -2  260.87   18.20
   7   0  -2  277.67   12.20
   7   0  -2  241.48   11.90
   7   0  -1    1.80    2.40
   7   0  -1    1.10    4.50
   7   0   0 2290.27   75.59
   7   0   0 2371.96   67.89
   7   0   1   -1.50    4.10
   7   0   1    9.60    4.00
   7   0   2 2052.69   61.39
   7   0   3   -0.80    2.50
   7   0   3   -2.40    3.80
  -7   0  -4  218.38   11.70
   7   0   4  243.68   11.90
   7   0   5   -1.20    2.40
   7   0   5    0.50    3.10
  -7   0  -5   -1.00    3.00
  -7   0  -6  665.53   22.70
   7   0   6  660.43   21.50
   7   0   6  658.13   22.00
   7   1  -7   32.70    2.50
   7  -1  -7   32.40    2.40
   7   1  -6   31.30    2.80
   7   1  -6   23.40    3.90
   7  -1  -6   24.10    4.20
   7  -1  -6   34.50    2.80
   7   1  -5   36.00    5.00
   7   1  -5   50.79    3.70
   7  -1  -5   43.50    5.60
   7  -1  -5   53.29    3.30
   7   1  -4  859.81   28.30
   7   1  -4  820.32   24.30
   7   1  -4  772.22   29.10
   7  -1  -4  810.92   23.70
   7  -1  -4  885.11   28.60
   7   1  -3  499.55   18.00
   7   1  -3  418.96   24.90
   7   1  -3  448.06   17.10
   7  -1  -3  468.05   17.90
   7  -1  -3  438.46   25.50
   7  -1  -3  438.06   17.20
   7   1  -2 1992.30   56.99
   7   1  -2 1898.01   56.19
   7   1  -2 1896.91   66.29
   7  -1  -2 1964.90   56.99
   7  -1  -2 1844.02   56.49
   7  -1  -2 1933.91   65.49
   7   1  -1  601.74   21.10
   7   1  -1  614.34   29.20
   7  -1  -1  572.74   27.10
   7  -1  -1  611.14   21.20
   7   1   0  189.88   10.00
   7   1   0  189.48   14.80
   7  -1   0  180.48    9.60
   7   1   1    3.10    3.50
   7   1   1    4.60    5.20
   7  -1   1    3.00    3.10
   7   1   2  123.89    9.30
   7   1   2  141.79   13.30
   7  -1   2  123.39    9.50
   7   1   3  529.75   20.40
   7   1   3  493.55   18.90
   7  -1   3  473.95   18.70
   7  -1   3  485.85   19.90
   7   1   4 1390.26   42.90
  -7   1  -4 1382.76   43.00
  -7  -1  -4 1377.56   43.00
   7  -1   4 1339.77   42.60
   7  -1   4 1338.97   41.20
  -7   1  -5  439.36   17.90
   7   1   5  444.66   16.40
   7   1   5  448.66   17.70
   7  -1   5  473.55   17.80
   7  -1   5  442.06   16.50
  -7  -1  -5  445.56   18.10
   7   1   6  463.75   16.40
  -7   1  -6  484.45   17.60
   7   1   6  481.25   17.00
  -7  -1  -6  468.75   17.50
   7  -1   6  469.95   16.40
   7  -1   6  481.95   16.90
   7   2  -7  350.96   11.20
   7  -2  -7  328.87   10.10
   7   2  -6   49.40    5.10
   7   2  -6   60.29    3.90
   7  -2  -6   61.59    3.30
   7  -2  -6   65.69    6.20
   7   2  -5  596.74   18.20
   7   2  -5  586.04   21.20
   7  -2  -5  583.14   17.20
   7  -2  -5  587.44   21.60
   7   2  -4   77.69    6.90
   7   2  -4   66.39    4.30
   7   2  -4   64.39    6.50
   7  -2  -4   65.79    3.20
   7  -2  -4   53.79    5.90
   7   2  -3  111.89    7.50
   7   2  -3  114.49    8.00
   7  -2  -3  110.99    8.00
   7   2  -2   96.09   12.40
   7   2  -2  140.89    7.90
   7   2  -2  149.59    8.50
   7  -2  -2  132.69    8.30
   7  -2  -2  133.99   13.00
   7  -2  -2  134.89    8.30
   7   2  -1  683.43   23.60
   7   2  -1  710.03   32.10
   7  -2  -1  677.13   23.70
   7   2   0  109.19    7.70
   7   2   0  124.19   13.80
   7  -2   0  103.89    7.80
   7   2   1 2990.80   93.79
   7   2   1 2983.00   85.29
   7  -2   1 2941.61   85.49
   7   2   2   65.69   10.00
   7   2   2   84.09    7.90
   7  -2   2   83.39    6.60
   7  -2   2   89.69    8.20
   7   2   3 1020.90   33.50
   7   2   3 1017.30   34.40
   7  -2   3 1056.69   33.50
   7  -2   3 1012.80   34.70
   7   2   4  113.69    8.60
  -7   2  -4  123.09    8.70
   7  -2   4  116.59    7.40
  -7  -2  -4  116.09    8.50
   7  -2   4  114.79    8.40
  -7   2  -5    3.80    3.20
   7   2   5    4.40    3.10
   7   2   5    3.90    2.70
   7  -2   5    4.40    3.10
   7  -2   5    2.00    2.70
  -7  -2  -5   11.00    3.90
   7   2   6   33.80    4.30
  -7   2  -6   24.40    3.70
   7   2   6   31.60    3.70
  -7  -2  -6   37.60    4.70
   7  -2   6   35.90    3.90
   7  -2   6   30.20    3.70
   7  -3  -7   39.90    2.10
   7   3  -6    2.10    2.10
   7   3  -6   -1.90    1.90
   7  -3  -6    2.00    2.60
   7  -3  -6    0.70    1.10
   7   3  -5  130.79    6.00
   7   3  -5  127.59    8.20
   7  -3  -5  129.39    8.80
   7  -3  -5  129.99    4.80
   7   3  -4  153.58    6.70
   7   3  -4  148.29    9.00
   7   3  -4  158.68    9.10
   7  -3  -4  129.89    8.80
   7   3  -3 1103.79   34.90
   7   3  -3 1085.09   31.70
   7   3  -3 1123.59   34.50
   7  -3  -3 1057.19   34.80
   7   3  -2  671.23   22.60
   7   3  -2  652.03   31.40
   7   3  -2  663.33   22.10
   7  -3  -2  610.64   22.50
   7  -3  -2  636.34   22.60
   7   3  -1 1720.93   61.79
   7   3  -1 1738.93   51.19
   7   3  -1 1779.72   52.09
   7  -3  -1 1730.03   52.19
   7  -3  -1 1749.12   52.19
   7   3   0  509.15   18.90
   7   3   0  499.15   25.50
   7  -3   0  490.85   19.00
   7  -3   0  523.85   19.10
   7   3   1   52.99    6.60
   7   3   1   53.09   10.10
   7  -3   1   47.50    5.50
   7  -3   1   58.19    7.00
   7   3   2  235.28   17.90
   7   3   2  227.88   11.30
   7   3   2  234.98   12.30
   7  -3   2  241.88   12.80
   7  -3   2  252.77   11.60
   7  -3   2  237.18   11.50
  -7   3  -3  972.40   30.40
   7   3   3  934.21   30.70
   7  -3   3  863.71   32.40
   7  -3   3  956.40   33.80
   7  -3   3  912.51   30.00
   7  -3   3  950.90   30.70
  -7  -3  -3  870.01   30.10
  -7   3  -4  317.57   13.90
   7   3   4  331.27   14.50
   7  -3   4  296.27   13.50
  -7  -3  -4  312.67   14.00
   7  -3   4  293.07   12.70
  -7   3  -5  761.02   25.10
   7   3   5  745.73   25.30
   7  -3   5  725.03   24.50
  -7  -3  -5  705.83   24.90
   7  -3   5  722.83   23.90
   7   3   6   51.39    4.90
  -7   3  -6   44.40    4.40
   7   3   6   45.90    4.00
   7  -3   6   55.29    4.40
   7  -3   6   51.29    4.30
  -7  -3  -6   52.99    5.10
   7  -4  -6  601.84   17.00
   7   4  -5  125.29    7.80
   7  -4  -5  126.99    4.50
   7   4  -4  524.45   19.20
   7   4  -3  113.29    7.50
   7   4  -2   33.50    4.50
   7   4  -2   50.89    5.60
   7   4  -2   32.90   12.40
   7   4  -1   53.29   10.70
   7   4  -1   53.19    5.20
   7  -4  -1   48.60    6.10
   7   4   0 2678.63   75.99
   7   4   0 2640.34   87.09
   7  -4   0 2716.23   77.69
   7   4   1  599.84   29.70
   7  -4   1  626.94   21.70
   7  -4   1  622.64   22.30
   7   4   2 2574.04   74.89
   7  -4   2 2607.04   75.29
   7  -4   2 2511.05   72.49
   7  -4   2 2643.64   74.99
   7  -4   2 2685.53   75.59
   7  -4   2 2521.35   79.89
   7   4   3   47.40    5.80
   7  -4   3   37.90    4.60
   7  -4   3   42.20    4.60
   7  -4   3   45.20    6.90
   7  -4   3   30.70    3.60
   7  -4   3   44.70    5.60
   7  -4   3   40.80    5.50
   7   4   4   42.10    5.80
   7  -4   4   32.20    4.50
   7  -4   4   26.40    4.50
   7   4   5   35.00    4.90
   7  -4   5   54.39    5.10
   7  -4   5   50.49    5.20
   7   4   6  153.88    7.80
   7  -4   6  165.38    7.40
   7  -5  -6   11.00    1.10
   7   5  -5    9.60    3.10
   7   5  -4  615.14   21.40
   7   5  -3  114.79    7.90
   7   5  -3  131.09    8.20
   7   5  -2 1805.02   53.49
   7   5  -2 1789.72   53.09
   7   5  -1   18.90    3.70
   7   5  -1   20.20    3.80
   7  -5  -1   17.90    4.10
   7  -5  -1   17.10    3.70
   7   5   0  506.45   18.40
   7  -5   0  488.25   18.00
   7  -5   0  495.35   19.20
   7  -5   0  504.25   19.20
   7   5   1   64.59    6.20
   7  -5   1   71.19    4.70
   7  -5   1   70.89    8.10
   7  -5   1   60.59    6.90
   7  -5   1   59.19    6.40
   7  -5   1   70.99    6.50
   7   5   2  965.10   31.70
   7  -5   2  993.50   34.80
   7  -5   2  989.80   32.30
   7  -5   2  988.60   32.60
   7  -5   2 1002.90   31.90
   7  -5   2  955.00   29.30
   7   5   3   30.40    4.90
   7  -5   3   28.70    4.50
   7  -5   3   38.50    3.90
   7  -5   3   33.60    4.70
   7  -5   3   23.30    4.90
   7  -5   3   38.70    4.80
   7  -5   3   41.10    5.70
   7   5   4 1796.32   52.09
   7  -5   4 1680.93   50.99
   7  -5   4 1673.33   50.39
   7   5   5   94.69    7.30
   7  -5   5   90.49    6.20
   7  -5   5   85.59    6.10
   7   5   6  362.96   12.80
   7  -5   6  355.46   12.20
   7   6  -5  513.35   17.40
   7   6  -4  169.08    9.00
   7   6  -3   73.09    6.60
   7   6  -3   70.39    6.30
   7   6  -2    6.30    2.90
   7   6  -2    8.50    3.30
   7   6  -1  142.59    8.20
   7   6  -1  151.28    8.60
   7  -6  -1  153.78   10.60
   7  -6  -1  133.19    8.80
   7  -6  -1  148.39    9.30
   7   6   0  630.24   21.70
   7  -6   0  626.84   24.50
   7  -6   0  575.54   18.30
   7  -6   0  612.64   22.50
   7  -6   0  602.54   22.20
   7  -6   0  606.94   21.20
   7   6   1  335.17   13.80
   7  -6   1  332.87   14.60
   7  -6   1  342.97   14.20
   7  -6   1  334.47   15.10
   7  -6   1  322.17   16.30
   7  -6   1  332.67   11.70
   7   6   2  505.45   19.20
   7  -6   2  526.55   20.20
   7  -6   2  492.55   17.00
   7  -6   2  537.85   22.20
   7  -6   2  545.65   19.50
   7  -6   2  526.35   19.80
   7  -6   2  521.55   18.40
   7   6   3  510.65   19.40
   7  -6   3  544.55   19.40
   7  -6   3  526.65   19.20
   7  -6   3  507.35   21.00
   7  -6   3  519.75   18.50
   7  -6   3  532.05   19.90
   7  -6   3  517.35   17.30
   7   6   4    0.20    2.90
   7  -6   4    3.70    2.70
   7  -6   4    3.40    2.60
   7  -6   4    2.30    3.20
   7   6   5    5.90    3.00
   7  -6   5    0.20    1.90
   7  -6   5    1.60    1.90
   7   7  -5   70.49    5.00
   7   7  -4    1.30    2.60
   7   7  -3  971.90   30.60
   7   7  -3  972.50   30.70
   7   7  -2    6.50    3.00
   7   7  -2    6.00    2.70
   7   7  -1  532.55   19.10
   7   7  -1  552.44   20.00
   7  -7  -1  553.34   20.00
   7  -7  -1  549.35   22.10
   7   7   0   18.60    3.60
   7  -7   0   21.70    5.30
   7  -7   0   20.20    2.60
   7  -7   0   24.90    4.20
   7  -7   0   19.60    2.60
   7  -7   0   30.30    5.10
   7  -7   0   22.60    4.50
   7   7   1   17.40    3.70
   7  -7   1   16.00    3.70
   7  -7   1   18.00    5.20
   7  -7   1   17.50    4.20
   7  -7   1    8.40    3.90
   7  -7   1   15.70    3.30
   7  -7   1   14.10    2.60
   7  -7   2   45.40    6.00
   7  -7   2   41.40    5.10
   7  -7   2   43.80    6.70
   7  -7   2   42.70    4.80
   7  -7   2   39.50    5.30
   7  -7   2   40.40    3.90
   7   7   3  412.26   16.20
   7  -7   3  426.46   17.90
   7  -7   3  420.26   16.20
   7  -7   3  426.96   15.50
   7  -7   3  420.16   15.90
   7  -7   3  419.56   16.80
   7  -7   3  408.56   14.20
   7   7   4   54.49    5.60
   7  -7   4   52.19    4.80
   7  -7   4   50.19    5.20
   7  -7   4   56.89    4.90
   7   7   5  986.00   29.50
   7  -7   5  985.30   30.20
   7  -7   5  924.91   28.30
   7   8  -4  216.38    9.40
   7   8  -3    9.00    3.10
   7   8  -3    7.10    2.70
   7   8  -2   19.40    3.60
   7   8  -2   12.60    3.30
   7   8  -1  681.93   22.80
   7  -8  -1  637.44   24.50
   7  -8  -1  669.83   22.60
   7  -8  -1  629.74   21.70
   7   8   0  762.02   25.60
   7  -8   0  776.72   25.40
   7  -8   0  762.72   26.10
   7  -8   0  776.82   26.30
   7  -8   0  788.32   28.50
   7  -8   0  753.12   22.80
   7   8   1  874.51   29.10
   7  -8   1  905.81   27.00
   7  -8   1  924.61   32.40
   7  -8   1  940.51   30.20
   7  -8   1  912.51   29.30
   7  -8   1  909.11   28.50
   7  -8   1  923.71   30.40
   7  -8   2  559.24   17.80
   7  -8   2  553.04   19.60
   7  -8   2  554.94   20.60
   7  -8   2  556.34   22.10
   7  -8   2  556.54   19.00
   7  -8   2  591.24   20.40
   7   8   3  581.84   20.20
   7  -8   3  579.24   20.20
   7  -8   3  593.54   18.40
   7  -8   3  607.14   20.90
   7  -8   3  595.64   19.40
   7  -8   3  598.34   21.80
   7  -8   3  574.54   19.90
   7   8   4    1.60    2.40
   7  -8   4    4.50    2.70
   7  -8   4    4.90    1.90
   7  -8   4    8.00    2.10
   7   9  -3  137.49    6.90
   7   9  -3  130.99    6.80
   7   9  -2 1525.35   43.70
   7   9  -2 1428.66   43.00
   7   9  -1   18.00    3.50
   7  -9  -1    8.50    2.70
   7  -9  -1   13.10    4.00
   7  -9  -1   15.40    1.80
   7   9   0  481.05   17.70
   7  -9   0  499.65   20.00
   7  -9   0  518.65   17.70
   7  -9   0  490.65   18.10
   7  -9   0  501.25   15.30
   7  -9   0  506.95   17.50
   7  -9   0  494.55   18.20
   7   9   1    5.30    2.50
   7  -9   1   11.10    3.10
   7  -9   1    9.40    2.70
   7  -9   1   13.70    3.80
   7  -9   1   16.30    4.10
   7  -9   1   10.00    2.10
   7  -9   1    8.50    4.00
   7  -9   2  148.09    7.50
   7  -9   2  153.28    6.50
   7  -9   2  151.38    9.00
   7  -9   2  154.78    8.50
   7  -9   2  160.88    9.80
   7  -9   2  164.78    8.00
   7   9   3   55.19    4.50
   7  -9   3   58.09    4.90
   7  -9   3   56.29    4.20
   7  -9   3   59.19    5.40
   7  -9   3   55.79    4.60
   7  -9   3   62.19    5.50
   7  -9   3   53.39    3.60
   7  -9   4  488.85   16.60
   7  10  -3    0.30    2.00
   7  10  -2    6.00    2.40
   7  10  -1   45.90    4.30
   7 -10  -1   40.50    4.90
   7 -10  -1   39.50    2.40
   7 -10  -1   46.30    4.10
   7  10   0  645.34   21.20
   7 -10   0  653.23   19.20
   7 -10   0  651.03   21.40
   7 -10   0  659.03   20.50
   7 -10   0  684.33   23.30
   7 -10   0  672.33   21.10
   7 -10   1  294.77   11.60
   7 -10   1  306.27    9.80
   7 -10   1  293.47   11.80
   7 -10   1  286.37   10.60
   7 -10   1  299.97   13.10
   7 -10   1  279.17   11.10
   7 -10   2  543.45   17.30
   7 -10   2  538.15   17.60
   7 -10   2  560.54   16.50
   7 -10   2  563.74   19.50
   7 -10   2  559.14   18.40
   7 -10   2  544.45   18.10
   7  11  -1  342.97   12.20
   7 -11   0    7.10    1.20
   7 -11   0    2.60    2.40
   7 -11   1    7.60    1.30
   7 -11   1   11.60    2.80
   8   0  -6  161.98    5.90
   8   0  -6  157.08    8.10
   8   0  -5    2.70    3.00
   8   0  -5    0.20    1.40
   8   0  -4  280.17   13.10
   8   0  -4  268.87    9.40
   8   0  -3   -0.50    3.20
   8   0  -3    5.80    3.70
   8   0  -3    4.10    1.60
   8   0  -2    2.50    3.30
   8   0  -2    0.90    2.70
   8   0  -2    1.10    2.90
   8   0  -2    6.40    1.80
   8   0  -1    0.10    2.70
   8   0  -1   -4.00    4.40
   8   0  -1   -0.80    3.30
   8   0   0 2434.46   69.19
   8   0   0 2288.17   78.49
   8   0   0 2378.46   69.89
   8   0   1    3.30    3.10
   8   0   1    8.90    3.60
   8   0   1    5.40    4.50
   8   0   2 2594.14   74.59
   8   0   2 2525.65   74.19
   8   0   2 2556.04   75.49
   8   0   3   -0.50    4.30
   8   0   3    1.10    2.70
  -8   0  -4  293.27   13.70
   8   0   4  314.67   13.80
  -8   0  -5    0.70    2.80
   8   0   5   -2.40    2.40
   8   0   6  139.89    6.30
   8   0   6  139.69    7.00
   8   1  -6    1.10    2.00
   8   1  -6    1.10    1.30
   8  -1  -6    1.60    1.20
   8  -1  -6    4.30    2.50
   8   1  -5  141.89    5.90
   8   1  -5  128.39    8.50
   8  -1  -5  131.89    8.70
   8  -1  -5  142.59    5.50
   8   1  -4   91.59    4.80
   8   1  -4   96.69    7.50
   8   1  -4   91.59    7.60
   8  -1  -4   95.69    4.40
   8  -1  -4   82.09    7.50
   8   1  -3 1317.07   40.80
   8   1  -3 1331.17   40.30
   8   1  -3 1277.57   36.60
   8  -1  -3 1252.37   36.10
   8  -1  -3 1265.17   40.60
   8  -1  -3 1287.07   40.40
   8   1  -2 1146.89   36.80
   8   1  -2 1199.28   37.50
   8   1  -2 1200.88   37.70
   8   1  -2 1170.08   33.50
   8  -1  -2 1098.39   37.00
   8  -1  -2 1243.38   37.90
   8  -1  -2 1141.19   33.00
   8   1  -1 1130.99   34.70
   8   1  -1  934.71   41.80
   8   1  -1 1073.09   33.50
   8   1  -1  999.20   34.10
   8  -1  -1 1058.79   36.10
   8  -1  -1 1065.59   34.30
   8  -1  -1 1045.10   33.90
   8   1   0  684.03   24.30
   8   1   0  626.44   31.10
   8   1   0  652.43   23.00
   8  -1   0  673.83   24.30
   8  -1   0  682.43   23.80
   8   1   1   18.80    6.90
   8   1   1   25.90    4.40
   8   1   1   47.60    6.40
   8   1   1   24.00    4.10
   8  -1   1   28.30    4.70
   8  -1   1   43.20    5.70
   8  -1   1   22.00    4.90
   8   1   2  220.98   11.00
   8   1   2  219.78   11.20
   8   1   2  242.48   13.00
   8  -1   2  229.38   11.10
   8  -1   2  226.08   11.30
   8  -1   2  237.98   13.00
   8  -1   2  210.98    9.20
   8  -1   2  226.38   11.10
   8   1   3  376.86   15.80
   8   1   3  393.66   17.50
   8  -1   3  386.26   16.10
   8  -1   3  386.16   17.50
  -8   1  -4  840.52   28.80
   8   1   4  897.41   29.20
  -8  -1  -4  848.62   29.00
   8  -1   4  867.51   28.90
   8   1   5  495.35   17.80
  -8   1  -5  467.65   17.80
   8  -1   5  449.16   17.40
  -8  -1  -5  467.15   17.80
   8  -1   5  484.75   18.10
   8   1   6  320.57   11.80
   8  -1   6  318.07   11.50
   8  -1   6  308.67   10.90
   8   2  -6   51.99    3.30
   8  -2  -6   50.39    2.70
   8   2  -5 1198.58   38.70
   8   2  -5 1298.87   36.00
   8  -2  -5 1267.37   39.30
   8  -2  -5 1291.97   35.30
   8   2  -4   93.89    7.70
   8   2  -4  100.49    5.10
   8   2  -4  104.19    7.80
   8  -2  -4  103.29    4.30
   8  -2  -4   93.49    7.80
   8   2  -3  147.99    6.50
   8   2  -3  144.09    9.20
   8   2  -3  140.99    9.10
   8  -2  -3  136.99    9.10
   8  -2  -3  138.79    5.40
   8   2  -2  115.39    8.70
   8   2  -2  124.59    5.90
   8   2  -2  123.89    8.30
   8   2  -2  122.09    8.20
   8  -2  -2  135.49    9.00
   8  -2  -2  122.59    8.30
   8  -2  -2  114.09    4.90
   8   2  -1 1127.59   35.70
   8   2  -1 1157.28   36.70
   8   2  -1 1151.58   36.40
   8  -2  -1 1128.79   36.60
   8  -2  -1 1145.49   36.80
   8  -2  -1 1094.99   36.20
   8   2   0   94.09   12.70
   8   2   0  117.99    7.90
   8   2   0  112.99    8.90
   8   2   0  104.89    7.20
   8  -2   0  120.69    8.60
   8  -2   0  130.59    8.70
   8  -2   0  110.29    8.80
   8   2   1 2779.52   81.19
   8   2   1 2782.62   82.19
   8  -2   1 2750.92   82.49
   8  -2   1 2888.61   82.19
   8  -2   1 2774.22   81.69
   8  -2   1 2863.61   81.69
   8  -2   1 2892.11   81.59
   8   2   2   48.50    5.60
   8   2   2   52.89    6.90
   8   2   2   53.79    6.00
   8  -2   2   41.20    5.20
   8  -2   2   45.40    4.50
   8  -2   2   40.90    6.50
   8  -2   2   38.20    4.90
   8  -2   2   51.49    6.10
   8   2   3 1068.49   35.10
  -8   2  -3 1103.19   34.90
   8  -2   3 1095.79   36.70
  -8  -2  -3 1068.09   34.90
   8  -2   3 1117.39   35.40
  -8   2  -4    5.90    3.20
   8   2   4    7.30    3.50
   8  -2   4    3.00    3.20
  -8  -2  -4    8.80    3.40
  -8   2  -5    5.60    3.10
   8   2   5    7.80    3.30
   8  -2   5    2.40    2.20
  -8  -2  -5    1.20    2.70
   8  -2   5    3.60    2.70
   8   2   6   47.30    4.10
   8  -2   6   47.10    3.60
   8  -2   6   43.20    3.80
   8  -3  -6   27.70    2.00
   8   3  -5   66.79    4.00
   8   3  -5   66.39    5.80
   8  -3  -5   66.29    6.20
   8  -3  -5   53.09    2.90
   8   3  -4   75.69    6.90
   8   3  -4   77.39    6.80
   8   3  -4   68.29    4.60
   8  -3  -4   69.89    3.30
   8  -3  -4   76.49    7.00
   8   3  -3 1429.66   40.80
   8   3  -3 1475.95   43.90
   8   3  -3 1436.76   44.10
   8  -3  -3 1368.56   44.10
   8   3  -2   97.29    5.50
   8   3  -2  100.89    8.20
   8   3  -2   99.59    7.50
   8   3  -2   94.89    7.50
   8  -3  -2   81.49    7.80
   8  -3  -2  112.59    8.20
   8   3  -1  923.51   27.00
   8   3  -1  907.51   29.90
   8   3  -1  947.41   30.60
   8   3  -1  919.91   29.40
   8  -3  -1  924.01   30.30
   8  -3  -1  905.61   30.60
   8  -3  -1  838.42   29.90
   8  -3  -1  864.61   25.90
   8   3   0   68.49    7.40
   8   3   0   73.79    6.70
   8   3   0   69.29    6.10
   8  -3   0   56.19    6.10
   8  -3   0   60.29    4.30
   8  -3   0   64.59    6.70
   8  -3   0   66.39    8.00
   8  -3   0   68.49    7.30
   8   3   1    5.00    3.10
   8   3   1   -0.60    3.80
   8  -3   1   12.20    3.80
   8  -3   1    3.80    2.90
   8  -3   1   11.30    3.70
   8  -3   1    6.00    4.70
   8  -3   1   10.10    2.70
   8   3   2    3.10    4.10
   8   3   2    2.00    2.50
   8   3   2    5.50    3.10
   8  -3   2    2.90    3.10
   8  -3   2    1.90    4.00
   8  -3   2    4.50    2.50
   8  -3   2   -2.10    2.70
   8  -3   2    3.50    2.90
   8  -3   2    7.60    4.40
  -8   3  -3  764.62   25.30
   8   3   3  750.92   25.50
  -8  -3  -3  741.63   25.30
   8  -3   3  755.32   28.20
   8  -3   3  757.52   25.60
   8  -3   3  708.33   25.70
   8  -3   3  715.93   23.00
   8  -3   3  719.43   27.20
   8  -3   3  724.33   23.00
   8   3   4  232.98   11.40
  -8   3  -4  237.68   11.40
   8  -3   4  233.68   11.30
   8  -3   4  261.67   14.40
  -8  -3  -4  210.78   11.20
   8   3   5  764.02   24.50
  -8   3  -5  763.02   24.10
  -8  -3  -5  724.43   24.00
   8  -3   5  724.13   24.00
   8  -3   5  717.73   22.90
   8   3   6   77.69    4.90
   8  -3   6   79.79    6.40
   8  -4  -6  441.16   12.40
   8   4  -5  203.78    9.20
   8  -4  -5  184.78    6.10
   8   4  -4  580.94   20.50
   8   4  -3    5.40    3.40
   8   4  -2    7.50    3.30
   8   4  -2    6.90    3.40
   8  -4  -2    8.60    3.80
   8   4  -1  171.48    9.30
   8   4  -1  168.18    9.60
   8  -4  -1  157.28   10.00
   8  -4  -1  159.88    9.70
   8  -4  -1  147.29   11.20
   8   4   0  506.95   18.80
   8   4   0  487.55   18.00
   8  -4   0  460.35   15.60
   8  -4   0  504.05   21.70
   8  -4   0  509.65   19.70
   8  -4   0  516.35   19.60
   8  -4   1  165.68    7.70
   8  -4   1  174.68   10.40
   8  -4   1  167.78   10.10
   8  -4   1  182.68   12.50
   8  -4   1  174.28    9.60
   8  -4   2 1327.47   42.00
   8  -4   2 1363.56   42.10
   8  -4   2 1329.47   44.60
   8  -4   2 1376.46   41.80
   8  -4   2 1301.17   38.90
   8   4   3   57.99    6.00
   8  -4   3   76.79    6.90
   8  -4   3   86.39    7.20
   8  -4   3   81.89    6.80
   8  -4   3   78.79    8.30
   8  -4   3   68.69    5.20
   8   4   4  107.79    7.60
   8  -4   4   95.79    6.20
   8  -4   4   86.59    6.90
   8   4   5   11.00    3.10
   8  -4   5    5.90    2.20
   8  -4   5    3.50    2.30
   8   5  -5    0.70    2.30
   8   5  -4  590.44   20.30
   8   5  -3   36.80    4.70
   8   5  -3   29.40    4.40
   8   5  -2 1551.74   46.20
   8   5  -2 1481.55   45.60
   8   5  -1  211.38   10.70
   8   5  -1  210.48   10.40
   8  -5  -1  219.78   11.20
   8  -5  -1  214.08   11.20
   8  -5  -1  224.98   13.20
   8   5   0  868.11   29.00
   8  -5   0  838.82   25.70
   8  -5   0  893.01   29.70
   8  -5   0  891.81   32.00
   8  -5   0  893.71   30.00
   8   5   1   -0.20    2.50
   8  -5   1    2.00    3.90
   8  -5   1    2.30    4.10
   8  -5   1    0.70    2.80
   8  -5   1    4.60    2.70
   8  -5   1    0.00    2.00
   8  -5   2   90.19    5.70
   8  -5   2   87.99    8.10
   8  -5   2   83.69    7.40
   8  -5   2   84.49    9.20
   8  -5   2   93.69    7.30
   8   5   3   84.99    7.00
   8  -5   3   90.69    7.10
   8  -5   3  102.39    5.80
   8  -5   3  101.79    7.60
   8  -5   3   89.89    8.60
   8  -5   3  111.59    7.40
   8   5   4 1329.37   40.80
   8  -5   4 1338.37   40.40
   8  -5   4 1349.66   39.40
   8   5   5   49.70    4.70
   8  -5   5   51.69    4.10
   8  -5   5   47.40    4.10
   8   6  -4   94.79    6.50
   8   6  -3  136.69    8.00
   8   6  -3  144.59    8.20
   8   6  -2   39.60    5.10
   8   6  -2   40.10    4.90
   8   6  -1  353.46   14.50
   8   6  -1  339.67   13.60
   8  -6  -1  331.87   14.20
   8  -6  -1  320.77   14.50
   8  -6  -1  338.47   16.20
   8   6   0  628.44   22.80
   8  -6   0  677.53   25.80
   8  -6   0  672.43   23.60
   8  -6   0  654.63   23.60
   8  -6   0  643.24   19.80
   8  -6   0  659.23   22.50
   8   6   1 1401.16   43.90
   8  -6   1 1426.36   41.40
   8  -6   1 1451.15   44.90
   8  -6   1 1471.45   47.40
   8  -6   1 1418.26   43.90
   8  -6   1 1525.15   45.40
   8  -6   2 1230.98   38.20
   8  -6   2 1189.48   37.80
   8  -6   2 1191.58   40.00
   8  -6   2 1183.68   37.20
   8  -6   2 1202.28   35.10
   8   6   3  310.97   13.30
   8  -6   3  327.47   15.20
   8  -6   3  341.67   13.50
   8  -6   3  331.97   11.90
   8  -6   3  350.66   12.60
   8  -6   3  335.67   14.10
   8  -6   3  319.57   13.40
   8   6   4   98.79    6.70
   8  -6   4  100.19    6.30
   8  -6   4   92.99    5.80
   8  -6   4  111.49    7.30
   8   6   5    8.10    2.30
   8  -6   5    9.30    2.20
   8  -6   5    7.70    2.10
   8   7  -4    1.20    2.20
   8   7  -3  867.91   27.30
   8   7  -3  878.41   27.50
   8   7  -2    9.10    3.20
   8   7  -2    9.10    3.10
   8   7  -1 1245.68   38.10
   8   7  -1 1275.47   39.00
   8  -7  -1 1255.17   38.80
   8  -7  -1 1258.87   39.00
   8  -7  -1 1289.87   41.10
   8   7   0    2.50    2.80
   8  -7   0   -0.10    2.70
   8  -7   0    0.90    3.90
   8  -7   0    0.50    3.30
   8  -7   0   -0.40    2.40
   8  -7   0    0.00    1.50
   8   7   1   -1.20    2.30
   8  -7   1    6.60    4.30
   8  -7   1    3.30    1.80
   8  -7   1    1.80    2.80
   8  -7   1    2.20    3.50
   8  -7   1    3.30    2.80
   8  -7   2    9.10    3.80
   8  -7   2   14.20    4.40
   8  -7   2   13.20    3.40
   8  -7   2   15.00    3.80
   8  -7   2   14.20    2.70
   8   7   3  638.64   20.90
   8  -7   3  626.54   19.20
   8  -7   3  607.54   22.30
   8  -7   3  659.43   21.60
   8  -7   3  626.44   20.80
   8  -7   3  632.74   20.90
   8  -7   3  589.24   19.70
   8   7   4    9.60    2.80
   8  -7   4    9.30    2.30
   8  -7   4   12.70    2.30
   8   8  -3   90.79    5.80
   8   8  -3   90.09    5.50
   8   8  -2    9.70    2.70
   8   8  -2    4.10    2.60
   8   8  -1  239.88   10.50
   8  -8  -1  229.18    7.60
   8  -8  -1  233.08   12.00
   8  -8  -1  222.08   10.20
   8   8   0  409.66   15.30
   8  -8   0  374.36   15.40
   8  -8   0  414.56   15.00
   8  -8   0  421.56   17.60
   8  -8   0  390.86   15.60
   8  -8   0  413.76   12.80
   8   8   1  764.32   25.30
   8  -8   1  770.82   26.30
   8  -8   1  800.92   23.50
   8  -8   1  851.21   28.30
   8  -8   1  792.42   26.10
   8  -8   1  778.82   25.40
   8  -8   2  478.15   14.90
   8  -8   2  458.35   18.50
   8  -8   2  486.55   16.90
   8  -8   2  455.65   15.50
   8  -8   2  468.75   16.40
   8  -8   3  140.29    7.40
   8  -8   3  120.09    7.50
   8  -8   3  123.79    5.40
   8  -8   3  126.19    5.90
   8  -8   3  130.39    6.70
   8  -8   3  125.09    6.40
   8   9  -2  657.33   20.90
   8   9  -1   31.90    3.60
   8  -9  -1   31.70    4.50
   8  -9  -1   31.60    2.10
   8   9   0  241.98    9.90
   8  -9   0  233.18   10.20
   8  -9   0  226.38   10.10
   8  -9   0  238.68    7.80
   8  -9   0  234.88   11.50
   8  -9   0  225.48    9.40
   8   9   1    9.40    2.30
   8  -9   1   15.40    3.30
   8  -9   1   13.30    3.30
   8  -9   1   12.20    2.70
   8  -9   1   13.30    3.60
   8  -9   1   20.20    2.20
   8  -9   2   29.30    4.10
   8  -9   2   35.00    3.00
   8  -9   2   30.40    3.60
   8  -9   2   45.90    3.10
   8  -9   2   31.10    3.20
   8  10  -1   31.30    3.10
   8  10   0  412.76   13.30
   8 -10   0  393.46   14.50
   8 -10   0  413.56   11.60
   8 -10   0  356.86   13.40
   8 -10   1  117.89    6.10
   8 -10   1  130.29    4.70
   8 -10   1  132.39    7.10
   9   0  -6  780.22   21.90
   9   0  -5    3.40    2.50
   9   0  -5    0.70    1.30
   9   0  -4  736.03   21.40
   9   0  -4  715.63   25.00
   9   0  -3   -0.40    1.60
   9   0  -3   -2.40    3.20
   9   0  -3   -4.10    3.00
   9   0  -2   16.80    4.30
   9   0  -2    5.60    4.00
   9   0  -2   13.50    4.40
   9   0  -2   18.60    2.60
   9   0  -1    3.90    2.20
   9   0  -1    8.70    3.90
   9   0  -1   -2.00    3.00
   9   0  -1    0.90    4.00
   9   0   0 1571.94   48.00
   9   0   0 1554.24   48.40
   9   0   0 1589.64   49.10
   9   0   0 1527.35   44.60
   9   0   1    0.70    2.70
   9   0   1    2.40    3.00
   9   0   1    3.30    2.40
   9   0   1    4.20    4.40
   9   0   2 1595.34   48.00
   9   0   2 1554.54   48.50
   9   0   2 1613.34   49.70
  -9   0  -3    2.50    3.00
   9   0   3    2.80    3.00
  -9   0  -4  145.49    8.70
   9   0   4  153.48    8.60
   9   0   5   -1.10    2.20
  -9   0  -5   -0.70    2.20
   9   1  -6   19.40    1.70
   9  -1  -6   16.90    1.50
   9   1  -5    5.50    1.60
   9   1  -5    6.80    2.60
   9  -1  -5    6.00    3.00
   9  -1  -5    5.20    1.40
   9   1  -4  426.56   13.60
   9   1  -4  412.26   16.70
   9   1  -4  469.65   16.90
   9  -1  -4  415.66   13.20
   9  -1  -4  435.16   17.20
   9   1  -3  282.67   13.90
   9   1  -3  303.37   10.50
   9   1  -3  316.17   13.90
   9  -1  -3  294.87   14.20
   9  -1  -3  303.97   10.10
   9  -1  -3  296.37   13.70
   9   1  -2 1205.28   34.40
   9   1  -2 1225.78   38.30
   9   1  -2 1207.88   38.00
   9   1  -2 1198.38   38.60
   9  -1  -2 1166.98   38.10
   9  -1  -2 1183.38   38.10
   9  -1  -2 1157.58   33.90
   9  -1  -2 1178.68   38.60
   9   1  -1  699.53   24.30
   9   1  -1  637.34   24.30
   9   1  -1  664.93   23.60
   9   1  -1  652.33   20.40
   9  -1  -1  625.04   23.90
   9  -1  -1  656.73   20.10
   9  -1  -1  657.73   24.00
   9  -1  -1  685.23   24.80
   9   1   0  473.25   19.30
   9   1   0  444.56   15.20
   9   1   0  459.95   18.00
   9   1   0  462.35   18.50
   9  -1   0  449.16   15.10
   9  -1   0  445.26   18.50
   9  -1   0  458.55   18.40
   9  -1   0  448.06   19.10
   9   1   1   41.20    3.80
   9   1   1   36.20    4.90
   9   1   1   36.20    5.00
   9   1   1   44.30    6.60
   9  -1   1   51.99    6.30
   9  -1   1   48.80    4.20
   9  -1   1   44.10    5.70
   9  -1   1   57.19    7.70
   9   1   2  126.89    8.30
   9   1   2  146.49   10.30
   9   1   2  143.39    9.00
   9  -1   2  155.98   10.80
   9  -1   2  138.49    8.70
   9  -1   2  149.19    9.30
   9  -1   2  148.09    8.70
   9  -1   2  131.19    6.90
   9   1   3  356.56   14.50
  -9   1  -3  336.77   14.40
  -9  -1  -3  352.06   14.50
   9  -1   3  334.97   14.40
  -9   1  -4  480.45   17.70
   9   1   4  471.05   17.50
   9  -1   4  464.55   17.50
  -9  -1  -4  478.35   17.70
   9   1   5  497.35   16.60
  -9   1  -5  462.15   16.50
   9  -1   5  481.15   16.50
  -9  -1  -5  470.45   16.60
   9   2  -5  531.35   15.80
   9   2  -5  503.45   17.90
   9  -2  -5  517.85   15.10
   9  -2  -5  529.15   18.60
   9   2  -4   19.40    4.10
   9   2  -4   19.30    4.00
   9   2  -4   21.90    2.70
   9  -2  -4   25.00    4.70
   9  -2  -4   23.50    2.20
   9   2  -3  258.27   12.80
   9   2  -3  292.47   12.90
   9   2  -3  269.47    9.80
   9  -2  -3  277.47   12.80
   9  -2  -3  262.97   13.40
   9  -2  -3  256.57    8.90
   9   2  -2    3.70    3.50
   9   2  -2    6.20    3.70
   9   2  -2    3.70    3.40
   9   2  -2    5.70    2.20
   9  -2  -2    1.20    3.50
   9  -2  -2    5.30    1.70
   9  -2  -2    3.50    3.80
   9   2  -1  352.66   15.20
   9   2  -1  375.56   16.50
   9   2  -1  362.46   12.80
   9   2  -1  358.76   15.60
   9  -2  -1  370.86   15.80
   9  -2  -1  381.06   12.30
   9  -2  -1  367.16   15.80
   9  -2  -1  377.46   16.70
   9   2   0  134.09   10.00
   9   2   0  117.29    8.30
   9   2   0  118.79    8.20
   9   2   0  116.09    6.40
   9  -2   0  122.79    9.90
   9  -2   0  109.29    8.30
   9  -2   0  121.49    6.20
   9  -2   0  120.99    8.80
   9   2   1 2420.86   70.69
   9   2   1 2469.65   71.79
   9  -2   1 2371.76   67.39
   9  -2   1 2351.26   71.79
   9  -2   1 2413.76   70.79
   9  -2   1 2412.76   70.89
   9   2   2   83.89    7.10
   9   2   2   93.09    8.90
   9  -2   2   79.79    5.70
   9  -2   2   96.89    9.10
   9  -2   2  117.49    7.70
   9  -2   2   90.49    7.40
   9  -2   2   88.59    7.50
  -9   2  -3 1287.77   39.40
   9   2   3 1295.97   39.50
  -9  -2  -3 1248.08   39.30
   9  -2   3 1275.07   39.60
   9   2   4    4.40    2.90
  -9   2  -4    5.00    3.10
   9  -2   4    5.30    2.90
  -9  -2  -4    5.00    2.80
   9   2   5   -0.20    2.10
   9  -2   5    0.80    2.10
   9   3  -5   63.59    3.70
   9  -3  -5   60.19    2.80
   9   3  -4   86.79    4.80
   9   3  -4   88.59    6.90
   9   3  -4   89.29    6.90
   9  -3  -4   77.69    7.40
   9  -3  -4   91.59    3.80
   9   3  -3  930.61   29.40
   9   3  -3  917.91   26.50
   9   3  -3  895.61   29.60
   9  -3  -3  870.51   25.30
   9  -3  -3  843.92   29.60
   9   3  -2  366.66   15.90
   9   3  -2  399.66   15.90
   9   3  -2  363.56   15.30
   9   3  -2  368.06   12.80
   9  -3  -2  355.26   15.70
   9  -3  -2  364.16   11.70
   9  -3  -2  365.66   16.00
   9   3  -1 1416.96   44.10
   9   3  -1 1470.15   45.40
   9   3  -1 1472.75   45.00
   9  -3  -1 1444.16   45.60
   9  -3  -1 1448.96   45.30
   9  -3  -1 1478.65   45.10
   9  -3  -1 1420.56   40.80
   9  -3  -1 1406.06   53.69
   9   3   0  120.49    8.50
   9   3   0  100.59    7.50
   9   3   0  100.39    9.40
   9  -3   0  116.59    8.60
   9  -3   0  113.89    9.20
   9  -3   0  129.09   11.00
   9  -3   0  110.19    6.00
   9  -3   0  110.29    9.60
   9   3   1  108.29    7.80
   9   3   1  110.99    9.30
   9  -3   1  110.69   10.50
   9  -3   1  116.59    8.60
   9  -3   1  108.49    6.30
   9  -3   1  110.29    9.90
   9  -3   1  114.69    8.90
   9   3   2    3.80    2.90
   9   3   2    7.40    4.10
   9  -3   2    0.10    3.00
   9  -3   2    4.20    4.20
   9  -3   2    2.20    3.10
   9  -3   2    7.30    3.70
   9  -3   2    5.00    4.20
   9  -3   2    0.10    2.20
  -9   3  -3  716.43   23.90
   9   3   3  687.13   23.90
   9  -3   3  707.83   24.10
   9  -3   3  743.83   24.10
  -9  -3  -3  703.63   24.00
   9  -3   3  722.93   26.60
  -9   3  -4  214.08    9.80
   9   3   4  207.88    9.80
   9  -3   4  202.58    9.60
  -9  -3  -4  194.68    9.70
   9   3   5  796.22   24.10
   9  -3   5  755.82   23.80
   9   4  -4  488.25   17.30
   9   4  -2   17.90    4.00
   9   4  -2   14.10    4.00
   9  -4  -2   15.40    4.20
   9  -4  -2   17.60    2.20
   9   4  -1   22.00    3.90
   9   4  -1   24.10    4.40
   9  -4  -1   30.60    6.30
   9  -4  -1   28.20    5.00
   9  -4  -1   27.50    4.90
   9  -4  -1   28.50    3.00
   9   4   0  968.50   31.30
   9   4   0  963.20   32.10
   9  -4   0  992.20   32.70
   9  -4   0  994.30   32.80
   9  -4   0 1014.70   35.00
   9  -4   0  969.50   28.90
   9   4   1  304.57   13.40
   9  -4   1  318.47   14.40
   9  -4   1  278.57   12.60
   9  -4   1  300.47   11.20
   9  -4   1  290.37   13.60
   9  -4   1  314.87   16.00
   9   4   2 1272.67   41.30
   9  -4   2 1374.66   43.50
   9  -4   2 1288.17   40.10
   9  -4   2 1288.37   37.90
   9  -4   2 1295.17   40.70
   9  -4   2 1307.47   40.70
   9   4   3  113.09    7.10
   9  -4   3  100.99    7.10
   9  -4   3  113.89    7.40
   9  -4   3  121.89    7.40
   9  -4   3  112.49    8.80
   9  -4   3  104.09    5.80
   9   4   4  211.88    9.70
   9  -4   4  224.28    9.80
   9   4   5   35.20    3.30
   9  -4   5   28.90    3.00
   9   5  -4  382.36   13.90
   9   5  -3   72.09    6.50
   9   5  -3   79.89    6.00
   9   5  -2 1476.25   43.90
   9   5  -2 1405.76   43.30
   9   5  -1   90.69    6.90
   9   5  -1   90.49    7.30
   9  -5  -1   89.89    8.50
   9  -5  -1  105.89    8.30
   9  -5  -1   90.19    4.70
   9  -5  -1   92.49    7.50
   9   5   0  471.75   18.40
   9  -5   0  501.05   19.30
   9  -5   0  492.25   18.80
   9  -5   0  502.75   21.00
   9  -5   0  489.45   15.60
   9   5   1    2.00    2.80
   9  -5   1    1.10    2.60
   9  -5   1    2.40    3.00
   9  -5   1    3.00    4.00
   9  -5   1   -1.90    3.60
   9  -5   1    3.40    2.20
   9  -5   2   36.90    5.00
   9  -5   2   34.90    5.80
   9  -5   2   39.60    5.20
   9  -5   2   47.10    4.10
   9  -5   2   41.80    4.90
   9  -5   2   47.70    4.20
   9   5   3   10.40    2.60
   9  -5   3   12.60    2.50
   9  -5   3   16.20    3.40
   9  -5   3   15.70    4.20
   9  -5   3   22.10    3.90
   9  -5   3   16.50    3.30
   9   5   4  718.23   22.40
   9  -5   4  682.43   22.00
   9   6  -4  203.08    8.70
   9   6  -3  163.48    8.40
   9   6  -3  159.08    7.90
   9   6  -2    8.80    3.10
   9   6  -2    5.20    2.80
   9   6  -1  139.89    8.30
   9   6  -1  134.19    7.80
   9  -6  -1  131.29    8.30
   9  -6  -1  139.19    8.80
   9  -6  -1  139.49    5.60
   9  -6  -1  131.19    9.60
   9   6   0  356.46   14.60
   9  -6   0  363.96   11.90
   9  -6   0  360.06   15.30
   9  -6   0  359.86   16.70
   9  -6   0  362.16   14.90
   9   6   1  772.02   25.50
   9  -6   1  782.12   23.20
   9  -6   1  745.63   25.00
   9  -6   1  757.02   25.90
   9  -6   1  787.52   28.10
   9  -6   1  764.52   26.20
   9  -6   1  792.62   23.20
   9  -6   2  353.06   13.80
   9  -6   2  356.66   16.00
   9  -6   2  365.46   14.30
   9  -6   2  360.66   14.60
   9  -6   2  360.56   12.30
   9  -6   3  290.17   11.30
   9  -6   3  294.87    9.90
   9  -6   3  266.27   11.00
   9  -6   3  278.97   12.70
   9  -6   3  277.87   11.60
   9   6   4   48.70    4.70
   9  -6   4   48.00    3.90
   9   7  -3  601.84   19.00
   9   7  -3  576.84   18.80
   9   7  -2   -1.00    2.10
   9   7  -2   -0.90    2.10
   9   7  -1  991.90   30.30
   9  -7  -1  972.60   30.00
   9  -7  -1  925.71   32.30
   9  -7  -1  974.20   27.20
   9  -7  -1  962.80   30.10
   9   7   0   41.60    4.50
   9  -7   0   52.79    6.50
   9  -7   0   43.70    5.10
   9  -7   0   53.09    3.40
   9  -7   0   48.80    5.10
   9   7   1   32.10    4.10
   9  -7   1   34.20    4.00
   9  -7   1   32.10    4.60
   9  -7   1   25.80    3.90
   9  -7   1   30.00    5.20
   9  -7   1   26.70    2.80
   9  -7   2   16.80    3.30
   9  -7   2   15.00    3.40
   9  -7   2   15.30    3.10
   9  -7   2   18.90    2.40
   9  -7   2   21.40    4.20
   9  -7   3  366.56   12.90
   9  -7   3  366.16   14.00
   9  -7   3  374.46   11.90
   9  -7   3  388.06   13.00
   9   8  -2   11.90    2.50
   9   8  -1  211.38    9.00
   9  -8  -1  201.98    7.10
   9   8   0  167.68    8.20
   9  -8   0  173.38    9.70
   9  -8   0  178.08    6.20
   9  -8   0  186.38    8.30
   9  -8   0  174.08    8.60
   9   8   1  790.92   25.00
   9  -8   1  843.52   23.60
   9  -8   1  787.82   24.80
   9  -8   1  834.42   25.60
   9  -8   1  815.02   25.70
   9  -8   1  829.72   27.20
   9  -8   2  401.46   15.10
   9  -8   2  420.76   12.50
   9  -8   2  401.96   13.50
   9  -8   2  375.66   13.80
   9   9  -1   40.90    3.50
   9   9   0  283.17   10.80
   9  -9   0  285.87   11.40
   9  -9   0  290.57    8.70
   9  -9   0  303.97   12.20
   9  -9   1    1.10    1.00
   9  -9   1    2.20    2.00
   9  -9   1    2.50    2.00
  10   0  -5    1.40    1.10
  10   0  -4  446.56   16.70
  10   0  -4  458.25   13.80
  10   0  -3   -1.00    3.00
  10   0  -3   -1.50    3.00
  10   0  -3   -0.10    1.70
  10   0  -2   11.90    3.90
  10   0  -2   11.10    4.00
  10   0  -2   14.20    4.00
  10   0  -2   14.60    2.60
  10   0  -1   -1.20    3.80
  10   0  -1   -1.70    3.20
  10   0  -1    1.40    2.20
  10   0  -1    3.60    3.30
  10   0   0 1326.37   40.80
  10   0   0 1298.47   41.20
  10   0   0 1283.57   42.10
  10   0   0 1305.37   37.90
  10   0   1   -0.70    3.00
  10   0   1   -1.30    3.80
  10   0   1    3.40    2.30
  10   0   1    4.50    3.00
  10   0   2 2540.15   73.19
  10   0   2 2543.55   74.59
 -10   0  -3    0.30    2.50
  10   0   3   -1.60    2.40
 -10   0  -4  310.37   12.20
  10   0   4  310.07   11.80
  10   1  -5    1.90    1.20
  10  -1  -5    1.90    1.10
  10   1  -4  279.47    9.20
  10   1  -4  252.37   11.50
  10   1  -4  278.27   11.30
  10  -1  -4  269.07    8.80
  10  -1  -4  279.37   12.00
  10   1  -3  215.08   11.30
  10   1  -3  223.98    8.40
  10   1  -3  224.48   11.00
  10  -1  -3  225.88    8.00
  10  -1  -3  224.68   10.90
  10  -1  -3  225.98   11.60
  10   1  -2  818.92   27.50
  10   1  -2  822.72   27.60
  10   1  -2  832.32   24.50
  10   1  -2  846.32   28.40
  10  -1  -2  809.42   24.10
  10  -1  -2  788.52   28.20
  10  -1  -2  819.02   27.60
  10  -1  -2  818.32   27.50
  10   1  -1  394.86   16.70
  10   1  -1  404.56   13.90
  10   1  -1  398.16   17.40
  10   1  -1  400.26   16.50
  10  -1  -1  388.66   17.50
  10  -1  -1  420.56   16.90
  10  -1  -1  427.56   13.80
  10  -1  -1  437.66   17.10
  10   1   0  627.74   23.00
  10   1   0  630.34   24.00
  10   1   0  633.54   22.50
  10   1   0  606.74   19.90
  10  -1   0  630.84   19.90
  10  -1   0  669.33   23.30
  10  -1   0  630.64   22.90
  10  -1   0  624.34   24.00
  10   1   1   24.40    5.40
  10   1   1   16.80    3.90
  10   1   1   14.70    3.40
  10  -1   1   19.60    4.50
  10  -1   1   22.00    3.40
  10  -1   1   17.10    4.10
  10  -1   1   24.10    5.20
  10   1   2   33.90    5.50
  10   1   2   27.50    4.30
  10  -1   2   23.20    4.10
  10  -1   2   30.80    3.50
  10  -1   2   28.30    4.10
  10   1   3  185.98    8.90
 -10   1  -3  190.18    9.20
  10  -1   3  179.68   11.00
 -10  -1  -3  180.38    9.20
  10  -1   3  175.98    8.90
  10   1   4  667.73   21.20
 -10   1  -4  644.74   22.00
 -10  -1  -4  661.93   23.50
  10  -1   4  669.23   21.20
  10   2  -4   31.70    4.00
  10   2  -4   28.70    2.70
  10   2  -4   11.60    4.30
  10  -2  -4   32.10    2.50
  10  -2  -4   31.90    4.50
  10   2  -3  323.77   11.10
  10   2  -3  343.37   13.80
  10   2  -3  328.17   14.00
  10  -2  -3  340.47   13.70
  10  -2  -3  328.67   10.60
  10  -2  -3  322.67   14.40
  10   2  -2    8.40    3.80
  10   2  -2    9.10    2.30
  10   2  -2    9.70    3.90
  10   2  -2   10.30    3.80
  10  -2  -2   17.60    4.50
  10  -2  -2   12.50    4.20
  10  -2  -2   10.40    3.90
  10  -2  -2   10.80    2.10
  10   2  -1  207.48   10.80
  10   2  -1  205.58    8.60
  10   2  -1  200.18   11.80
  10   2  -1  199.38   10.90
  10  -2  -1  202.78    8.10
  10  -2  -1  202.38   10.90
  10  -2  -1  208.18   12.10
  10  -2  -1  196.28   11.10
  10   2   0   10.20    3.40
  10   2   0    7.40    3.80
  10   2   0    5.40    4.50
  10  -2   0    4.20    4.50
  10  -2   0    3.70    3.90
  10  -2   0   10.60    5.00
  10  -2   0    9.60    2.60
  10  -2   0    7.40    3.70
  10   2   1 1314.87   41.20
  10   2   1 1334.77   42.00
  10  -2   1 1335.27   41.50
  10  -2   1 1312.97   41.10
  10  -2   1 1322.07   38.40
  10  -2   1 1326.37   42.30
  10  -2   1 1334.77   44.10
  10   2   2   65.89    6.80
  10   2   2   77.89    6.30
  10  -2   2   73.29    6.40
  10  -2   2   76.99    5.00
  10  -2   2   93.29    8.50
  10  -2   2   70.69    8.00
  10  -2   2   68.99    5.80
  10  -2   2   71.09    6.50
  10   2   3  632.74   21.20
 -10   2  -3  699.73   22.00
  10  -2   3  662.83   23.80
  10  -2   3  629.34   21.50
 -10  -2  -3  655.13   21.80
  10   2   4    1.50    2.20
  10  -2   4   -0.60    1.90
  10   3  -4   43.50    4.30
  10   3  -4   50.59    3.20
  10  -3  -4   47.70    2.70
  10   3  -3  900.61   27.80
  10   3  -3  844.22   27.80
  10   3  -3  880.31   25.40
  10  -3  -3  860.41   24.60
  10  -3  -3  845.02   28.20
  10   3  -2  481.35   18.20
  10   3  -2  472.65   17.50
  10   3  -2  458.25   17.50
  10   3  -2  485.55   15.20
  10  -3  -2  453.25   18.30
  10  -3  -2  453.05   17.80
  10  -3  -2  465.75   14.50
  10   3  -1 1403.76   42.50
  10   3  -1 1327.77   41.70
  10   3  -1 1321.77   41.20
  10  -3  -1 1343.97   41.80
  10  -3  -1 1361.16   42.10
  10  -3  -1 1349.96   38.40
  10  -3  -1 1339.47   42.50
  10   3   0  121.09    8.00
  10   3   0  130.39    8.40
  10   3   0  120.69    9.80
  10  -3   0  122.29    6.20
  10  -3   0  122.89   10.30
  10  -3   0  115.79   10.20
  10  -3   0  120.09    8.50
  10  -3   0  121.69    8.80
  10   3   1   84.29    7.80
  10   3   1   74.69    6.80
  10  -3   1   83.79    8.90
  10  -3   1   86.19    7.50
  10  -3   1   91.89    7.40
  10  -3   1   99.59    8.60
  10  -3   1   84.79    5.40
 -10   3  -2   25.60    3.90
  10   3   2   23.70    3.80
  10  -3   2   19.40    3.70
 -10  -3  -2   27.90    4.20
  10  -3   2   23.10    3.10
  10  -3   2   25.60    4.30
  10  -3   2   12.10    4.10
  10  -3   2   27.70    4.00
  10  -3   2   27.60    5.30
  10   3   3  293.07   11.60
 -10   3  -3  312.97   11.90
  10  -3   3  307.77   12.20
 -10  -3  -3  300.27   12.00
  10  -3   3  301.17   11.90
  10  -3   3  321.47   14.00
  10   3   4  151.78    7.00
  10  -3   4  152.08    6.90
  10   4  -3   44.90    4.80
  10  -4  -3   36.60    2.50
  10   4  -2   19.70    3.80
  10   4  -2   17.70    3.90
  10  -4  -2   17.40    2.20
  10  -4  -2   17.80    3.90
  10   4  -1  159.28    9.00
  10   4  -1  181.98    9.50
  10  -4  -1  161.58    9.30
  10  -4  -1  174.58    6.90
  10  -4  -1  162.68    9.60
  10   4   0  853.31   28.20
  10   4   0  856.31   29.70
  10  -4   0  869.41   25.40
  10  -4   0  864.11   28.30
  10  -4   0  849.12   30.30
  10  -4   0  843.62   28.50
  10   4   1  433.36   16.30
  10  -4   1  405.16   18.30
  10  -4   1  435.76   16.90
  10  -4   1  427.96   14.10
  10  -4   1  425.76   16.40
  10  -4   2  947.51   29.90
  10  -4   2  948.01   29.90
  10  -4   2  921.01   29.20
  10  -4   2  947.81   27.80
  10  -4   2  967.70   32.20
  10  -4   2  956.70   27.90
  10  -4   3  176.58    7.80
  10  -4   3  169.38    9.40
  10  -4   3  161.78    7.70
  10  -4   4  201.08    9.50
  10   5  -3   16.30    2.90
  10   5  -2 1302.97   38.60
  10   5  -2 1316.97   38.70
  10  -5  -2 1256.17   35.70
  10   5  -1   44.10    4.70
  10   5  -1   49.99    4.90
  10  -5  -1   47.60    3.40
  10  -5  -1   44.10    5.20
  10  -5  -1   42.20    4.70
  10   5   0  561.44   20.10
  10  -5   0  595.34   20.40
  10  -5   0  555.34   21.80
  10  -5   0  586.84   17.70
  10  -5   0  598.84   20.70
  10   5   1   66.69    5.80
  10  -5   1   48.60    6.20
  10  -5   1   56.79    4.10
  10  -5   1   54.99    5.40
  10  -5   1   43.80    5.00
  10  -5   1   57.59    3.90
  10  -5   2   18.00    2.50
  10  -5   2   15.30    2.80
  10  -5   2   25.40    4.90
  10  -5   2   17.70    3.40
  10  -5   2   21.00    3.60
  10  -5   3    3.60    1.40
  10  -5   3    5.90    1.80
  10  -5   3    3.50    2.00
  10  -5   3    4.50    2.60
  10   6  -2    2.80    2.20
  10   6  -2    4.30    2.40
  10   6  -1   75.39    5.60
  10   6  -1   72.99    5.50
  10  -6  -1   75.49    3.60
  10  -6  -1   76.29    5.90
  10  -6  -1   75.89    5.60
  10   6   0  350.16   13.40
  10  -6   0  351.76   14.90
  10  -6   0  340.57   11.10
  10  -6   0  349.67   13.50
  10  -6   0  353.36   13.70
  10   6   1  725.83   24.10
  10  -6   1  788.52   22.50
  10  -6   1  753.52   26.00
  10  -6   1  774.92   24.60
  10  -6   1  796.52   24.90
  10  -6   2  252.07   11.40
  10  -6   2  261.27    8.70
  10  -6   2  251.57   10.40
  10  -6   2  237.98    9.50
  10  -6   2  245.68   10.00
  10  -6   3  352.56   15.60
  10   7  -2    4.90    2.00
  10   7  -1  683.73   21.20
  10  -7  -1  679.73   18.80
  10  -7  -1  645.74   22.10
  10   7   0   36.70    3.70
  10  -7   0   35.10    4.40
  10  -7   0   40.70    2.60
  10  -7   0   38.80    3.70
  10   7   1   89.09    5.00
  10  -7   1   99.49    4.20
  10  -7   1   87.09    5.40
  10  -7   1   88.29    6.40
  10  -7   2   30.90    4.20
  10  -7   2   34.50    2.50
  10  -7   2   38.40    4.10
  11   0  -4  819.82   23.10
  11   0  -3    3.70    2.80
  11   0  -3   -1.20    1.40
  11   0  -2   11.20    3.10
  11   0  -2   10.40    3.50
  11   0  -2   15.30    2.40
  11   0  -2   11.00    3.40
  11   0  -1   -0.90    3.40
  11   0  -1   -0.40    2.80
  11   0  -1    1.20    3.00
  11   0  -1    2.60    2.00
  11   0   0  794.32   26.80
  11   0   0  770.82   23.20
  11   0   0  770.42   25.60
  11   0   0  752.52   25.40
  11   0   1   -0.30    2.50
  11   0   1    4.90    2.50
  11   0   1    4.50    2.00
  11   0   1    2.40    3.40
  11   0   2 1337.07   40.30
 -11   0  -2 1362.66   40.30
  11   0   2 1394.96   42.60
  11   0   3   -1.30    2.20
  11  -1  -4  122.59    4.70
  11   1  -3  220.88    9.70
  11   1  -3  222.08    7.90
  11  -1  -3  225.78    7.70
  11   1  -2  859.11   27.00
  11   1  -2  838.12   27.90
  11   1  -2  875.71   25.20
  11   1  -2  874.41   27.40
  11  -1  -2  879.61   28.30
  11  -1  -2  870.71   24.90
  11  -1  -2  857.81   27.50
  11  -1  -2  810.02   26.80
  11   1  -1  433.66   17.20
  11   1  -1  434.86   13.90
  11   1  -1  415.76   15.80
  11   1  -1  412.76   16.10
  11  -1  -1  418.86   16.20
  11  -1  -1  433.46   13.80
  11  -1  -1  427.16   17.50
  11  -1  -1  431.06   16.10
  11   1   0  342.27   14.00
  11   1   0  348.07   11.90
  11   1   0  347.97   13.90
  11   1   0  363.86   15.30
  11  -1   0  368.56   14.30
  11  -1   0  341.47   14.00
  11  -1   0  345.67   11.90
  11  -1   0  336.67   15.70
  11  -1   0  351.16   15.50
  11   1   1   47.80    5.00
  11   1   1   63.09    6.50
  11  -1   1   55.49    6.40
  11  -1   1   57.79    4.30
  11  -1   1   56.39    5.50
  11  -1   1   46.80    5.80
  11  -1   1   55.29    5.30
  11   1   2    2.40    2.40
 -11   1  -2   11.50    2.80
  11  -1   2    5.30    2.60
 -11  -1  -2   10.10    2.70
  11  -1   2    8.50    3.70
  11   1   3  109.89    7.00
  11  -1   3  122.99    7.20
  11  -1   3  118.59    7.60
  11   2  -3  274.77    9.30
  11  -2  -3  288.27    9.00
  11   2  -2   11.60    3.00
  11   2  -2   10.20    3.10
  11   2  -2   14.20    2.30
  11   2  -2    8.50    3.30
  11  -2  -2   10.70    3.10
  11  -2  -2   10.20    3.90
  11  -2  -2   15.70    2.20
  11   2  -1   92.29    7.90
  11   2  -1   96.39    6.80
  11   2  -1   95.99    5.10
  11   2  -1   97.49    6.80
  11  -2  -1   89.99    7.10
  11  -2  -1   90.99    8.70
  11  -2  -1   99.19    4.90
  11  -2  -1   91.09    6.70
  11   2   0   44.40    5.50
  11   2   0   49.00    4.80
  11   2   0   37.00    4.40
  11  -2   0   42.00    5.80
  11  -2   0   41.20    3.50
  11  -2   0   40.00    4.80
  11  -2   0   34.90    4.30
  11  -2   0   49.90    6.20
  11   2   1 1147.69   34.60
  11   2   1 1132.09   35.30
  11  -2   1 1123.59   35.60
  11  -2   1 1143.19   34.70
  11  -2   1 1123.89   34.50
  11  -2   1 1120.89   32.50
  11  -2   1 1125.99   36.50
  11   2   2   50.59    4.50
 -11   2  -2   47.90    6.20
  11  -2   2   52.39    3.60
  11  -2   2   39.70    5.10
 -11  -2  -2   66.39    7.50
  11  -2   2   50.59    4.50
  11  -2   2   55.69    3.60
  11  -2   3  734.33   23.70
  11  -3  -3  585.94   16.70
  11   3  -2  175.28    8.30
  11   3  -2  172.68    8.30
  11  -3  -2  177.48    8.60
  11  -3  -2  179.48    6.40
  11   3  -1 1078.09   32.60
  11   3  -1  988.70   37.30
  11   3  -1 1102.49   32.90
  11  -3  -1 1077.39   33.00
  11  -3  -1 1109.39   30.50
  11  -3  -1 1006.70   34.00
  11  -3  -1 1101.69   32.90
  11   3   0  184.38    9.20
  11   3   0  185.08    8.30
  11   3   0  178.58    9.50
  11  -3   0  182.58    9.30
  11  -3   0  175.48    9.00
  11  -3   0  195.78    7.30
  11  -3   0  178.48   10.40
  11  -3   0  175.48   10.10
  11   3   1  195.38    9.10
  11  -3   1  188.38    9.20
  11  -3   1  196.98    7.50
  11  -3   1  182.08   10.40
  11  -3   1  192.58    9.00
  11   3   2   22.60    3.70
  11  -3   2   30.30    4.30
  11  -3   2   28.20    2.50
  11  -3   2   25.80    3.20
  11  -3   3  117.19    6.40
  11   4  -2    5.90    2.30
  11  -4  -2    8.40    1.50
  11   4  -1   49.10    4.40
  11   4  -1   40.70    4.30
  11  -4  -1   34.10    3.90
  11  -4  -1   35.60    4.10
  11  -4  -1   43.80    3.10
  11   4   0  645.34   21.00
  11  -4   0  656.93   18.90
  11  -4   0  627.14   21.00
  11  -4   0  629.14   20.90
  11  -4   0  627.74   22.10
  11   4   1  268.67   10.50
  11  -4   1  258.27   10.70
  11  -4   1  276.17   12.10
  11  -4   1  268.97    9.10
  11  -4   1  263.17   10.70
  11  -4   1  269.57    9.10
  11  -4   2  891.21   25.50
  11  -4   2  908.41   28.30
  11  -4   2  878.41   26.80
  11   5  -1  102.49    5.70
  11  -5  -1   96.39    5.60
  11  -5  -1   99.09    4.00
  11   5   0  589.34   18.90
  11  -5   0  597.94   17.10
  11  -5   0  596.44   17.10
  11  -5   0  580.14   19.80
  11  -5   0  550.24   18.70
  11   5   1   73.59    4.70
  11  -5   1   80.89    3.80
  11  -5   1   72.79    4.80
  11  -5   1   79.99    6.00
  11  -5   2   56.09    4.50
  11  -6   0  226.58    8.10
  12   0  -1    1.30    1.90
  12   0  -1   -0.20    1.30
  12   0   0  310.67   11.50
  12   0   0  308.17   11.90
  12   0   0  320.07   10.00
  12   0   1    1.60    1.70
  12   0   1    2.00    2.40
  12   1  -1  392.96   13.70
  12   1  -1  360.66   12.90
  12  -1  -1  358.66   13.70
  12  -1  -1  398.36   11.70
  12   1   0  435.96   15.70
  12   1   0  442.06   14.90
  12  -1   0  458.45   13.60
  12  -1   0  468.55   15.10
  12  -1   0  430.66   15.60
  12   1   1   45.70    4.40
  12   1   1   42.30    4.40
  12  -1   1   41.70    4.40
  12  -1   1   38.50    3.70
  12  -2  -1  148.59    5.40
  12   2   0  151.18    6.70
  12  -2   0  153.08    5.60
  12  -2   0  148.19    6.90
  12   2   1  857.91   27.70
  12  -2   1  848.52   27.70

_computing_structure_solution     'SHELXT 2014/4 (Sheldrick, 2014)'
;
_shelx_hkl_checksum              97827
loop_
_space_group_symop_operation_xyz
'x, y, z'
'-x, y+1/2, -z+1/2'
'-x, -y, -z'
'x, -y-1/2, z-1/2'
loop_
_atom_site_type_symbol
_atom_site_label
_atom_site_fract_x
_atom_site_fract_y
_atom_site_fract_z
_atom_site_U_iso_or_equiv
_atom_site_adp_type
_atom_site_calc_flag
_atom_site_refinement_flags_adp
_atom_site_refinement_flags_occupancy
_atom_site_refinement_flags_posn
_atom_site_occupancy
_atom_site_disorder_assembly
_atom_site_disorder_group
C C1 0.5660(3) 0.3758(3) 0.3453(4) 0.0171(6) Uani d . . . 1 . .
C C2 0.5151(3) 0.4745(3) 0.2498(5) 0.0200(6) Uani d . . . 1 . .
H H2 0.5736 0.5332 0.2035 0.024 Uiso calc U . R 1 . .
C C3 0.3798(4) 0.4864(3) 0.2232(5) 0.0257(7) Uani d . . . 1 . .
H H3 0.3453 0.5529 0.1574 0.031 Uiso calc U . R 1 . .
C C4 0.2939(3) 0.4015(3) 0.2924(5) 0.0261(7) Uani d . . . 1 . .
H H4 0.2009 0.4097 0.273 0.031 Uiso calc U . R 1 . .
C C5 0.3439(3) 0.3040(3) 0.3903(5) 0.0249(7) Uani d . . . 1 . .
H H5 0.285 0.2466 0.4392 0.03 Uiso calc U . R 1 . .
C C6 0.4791(3) 0.2913(3) 0.4158(4) 0.0211(6) Uani d . . . 1 . .
H H6 0.5133 0.2247 0.4816 0.025 Uiso calc U . R 1 . .
C C7 0.7103(4) 0.3575(3) 0.3713(5) 0.0205(7) Uani d . . . 1 . .
O O8 0.7558(2) 0.2677(2) 0.4436(4) 0.0310(6) Uani d . . . 1 . .
C C9 0.7994(3) 0.4498(3) 0.3072(5) 0.0254(7) Uani d . . . 1 . .
C C10 0.8770(3) 0.5249(3) 0.2603(5) 0.0259(7) Uani d . . . 1 . .
I I11 1.01141(2) 0.64268(2) 0.17832(3) 0.02469(12) Uani d . . . 1 . .
loop_
_atom_site_aniso_label
_atom_site_aniso_U_11
_atom_site_aniso_U_22
_atom_site_aniso_U_33
_atom_site_aniso_U_12
_atom_site_aniso_U_13
_atom_site_aniso_U_23
C1 0.0176(15) 0.0177(13) 0.0159(15) 0.0028(12) -0.0027(12) -0.0041(12)
C2 0.0222(15) 0.0173(14) 0.0205(15) -0.0004(12) -0.0004(12) 0.0023(12)
C3 0.0253(17) 0.0249(16) 0.0269(17) 0.0079(14) -0.0048(14) 0.0029(14)
C4 0.0152(15) 0.032(2) 0.0305(19) 0.0051(14) -0.0063(13) -0.0024(15)
C5 0.0209(16) 0.0255(17) 0.0283(17) -0.0039(13) -0.0026(13) 0.0024(14)
C6 0.0234(16) 0.0188(14) 0.0210(15) 0.0014(13) -0.0055(12) 0.0018(12)
C7 0.0178(17) 0.0217(17) 0.0220(17) 0.0007(12) -0.0032(13) -0.0061(12)
O8 0.0216(11) 0.0290(13) 0.0422(14) 0.0047(10) -0.0075(10) 0.0040(12)
C9 0.0192(16) 0.0276(17) 0.0295(18) 0.0011(14) 0.0024(13) -0.0021(14)
C10 0.0181(15) 0.0281(17) 0.0315(18) 0.0002(14) -0.0003(13) -0.0076(15)
I11 0.01484(16) 0.02416(17) 0.03498(18) -0.00279(6) -0.00241(10) -0.00273(8)
loop_
_atom_type_symbol
_atom_type_description
_atom_type_scat_dispersion_real
_atom_type_scat_dispersion_imag
_atom_type_scat_source
C C 0.0181 0.0091 'International Tables Vol C Tables 4.2.6.8 and 6.1.1.4'
H H 0.0000 0.0000 'International Tables Vol C Tables 4.2.6.8 and 6.1.1.4'
I I -0.3257 6.8362 'International Tables Vol C Tables 4.2.6.8 and 6.1.1.4'
O O 0.0492 0.0322 'International Tables Vol C Tables 4.2.6.8 and 6.1.1.4'
loop_
_geom_angle_atom_site_label_1
_geom_angle_atom_site_label_2
_geom_angle_atom_site_label_3
_geom_angle_site_symmetry_1
_geom_angle_site_symmetry_3
_geom_angle
_geom_angle_publ_flag
C6 C1 C2 . . 119.6(3) ?
C6 C1 C7 . . 118.8(3) ?
C2 C1 C7 . . 121.6(3) ?
C3 C2 C1 . . 119.9(3) ?
C3 C2 H2 . . 120.1 ?
C1 C2 H2 . . 120.1 ?
C2 C3 C4 . . 120.2(3) ?
C2 C3 H3 . . 119.9 ?
C4 C3 H3 . . 119.9 ?
C3 C4 C5 . . 120.1(3) ?
C3 C4 H4 . . 119.9 ?
C5 C4 H4 . . 119.9 ?
C6 C5 C4 . . 119.8(3) ?
C6 C5 H5 . . 120.1 ?
C4 C5 H5 . . 120.1 ?
C5 C6 C1 . . 120.3(3) ?
C5 C6 H6 . . 119.8 ?
C1 C6 H6 . . 119.8 ?
O8 C7 C9 . . 119.8(3) ?
O8 C7 C1 . . 122.0(3) ?
C9 C7 C1 . . 118.2(3) ?
C10 C9 C7 . . 177.1(4) ?
C9 C10 I11 . . 177.1(3) ?
C10 I11 O8 . 2_755 167.24(12) ?
loop_
_geom_bond_atom_site_label_1
_geom_bond_atom_site_label_2
_geom_bond_site_symmetry_2
_geom_bond_distance
_geom_bond_publ_flag
C1 C6 . 1.395(5) ?
C1 C2 . 1.402(5) ?
C1 C7 . 1.477(5) ?
C2 C3 . 1.380(5) ?
C2 H2 . 0.95 ?
C3 C4 . 1.389(6) ?
C3 H3 . 0.95 ?
C4 C5 . 1.395(5) ?
C4 H4 . 0.95 ?
C5 C6 . 1.379(5) ?
C5 H5 . 0.95 ?
C6 H6 . 0.95 ?
C7 O8 . 1.224(4) ?
C7 C9 . 1.454(5) ?
C9 C10 . 1.205(6) ?
C10 I11 . 1.993(4) ?
I11 O8 2_755 2.887(3) ?
